
  -OEChem-04042215593D

 29 29  0     1  0  0  0  0  0999 V2000
   -2.5980   -4.3596    0.3995 H   0  0  0  0  0  0  0  0  0  0  0  0
   -2.6826   -3.3570   -0.0298 C   0  0  0  0  0  0  0  0  0  0  0  0
   -3.4559   -2.8072    0.5120 H   0  0  0  0  0  0  0  0  0  0  0  0
   -2.9750   -3.4490   -1.0785 H   0  0  0  0  0  0  0  0  0  0  0  0
   -1.3551   -2.6302    0.0791 C   0  0  0  0  0  0  0  0  0  0  0  0
   -0.4181   -3.1662    0.6408 O   0  0  0  0  0  0  0  0  0  0  0  0
   -1.2173   -1.3695   -0.4691 N   0  0  0  0  0  0  0  0  0  0  0  0
   -2.0051   -1.0184   -1.0050 H   0  0  0  0  0  0  0  0  0  0  0  0
    0.0432   -0.6018   -0.4978 C   0  0  1  0  0  0  0  0  0  0  0  0
    0.8053   -1.1606   -1.0524 H   0  0  0  0  0  0  0  0  0  0  0  0
   -0.2941    0.7012   -1.2519 C   0  0  0  0  0  0  0  0  0  0  0  0
   -0.6707    0.4436   -2.2461 H   0  0  0  0  0  0  0  0  0  0  0  0
   -1.0970    1.2179   -0.7179 H   0  0  0  0  0  0  0  0  0  0  0  0
    0.8193    1.6986   -1.4444 C   0  0  0  0  0  0  0  0  0  0  0  0
    0.5649    2.8887   -2.1155 N   0  0  0  0  0  0  0  0  0  0  0  0
    1.7050    3.5326   -2.1932 C   0  0  0  0  0  0  0  0  0  0  0  0
    1.8394    4.5051   -2.6585 H   0  0  0  0  0  0  0  0  0  0  0  0
    2.7059    2.7870   -1.6045 N   0  0  0  0  0  0  0  0  0  0  0  0
    3.6851    3.0591   -1.5399 H   0  0  0  0  0  0  0  0  0  0  0  0
    2.1525    1.6125   -1.1436 C   0  0  0  0  0  0  0  0  0  0  0  0
    2.6705    0.7888   -0.6608 H   0  0  0  0  0  0  0  0  0  0  0  0
    0.5889   -0.3273    0.9285 C   0  0  0  0  0  0  0  0  0  0  0  0
    1.7834   -0.4363    1.1755 O   0  0  0  0  0  0  0  0  0  0  0  0
   -0.2677    0.1033    1.9267 N   0  0  0  0  0  0  0  0  0  0  0  0
   -1.2595    0.0710    1.7174 H   0  0  0  0  0  0  0  0  0  0  0  0
    0.1523    0.2826    3.3105 C   0  0  0  0  0  0  0  0  0  0  0  0
    0.9670    1.0116    3.3735 H   0  0  0  0  0  0  0  0  0  0  0  0
   -0.6833    0.6481    3.9149 H   0  0  0  0  0  0  0  0  0  0  0  0
    0.4965   -0.6684    3.7308 H   0  0  0  0  0  0  0  0  0  0  0  0
  1  2  1  0  0  0  0
  2  3  1  0  0  0  0
  2  4  1  0  0  0  0
  2  5  1  0  0  0  0
  5  6  2  0  0  0  0
  5  7  1  0  0  0  0
  7  8  1  0  0  0  0
  7  9  1  0  0  0  0
  9 10  1  0  0  0  0
  9 11  1  0  0  0  0
  9 22  1  0  0  0  0
 11 12  1  0  0  0  0
 11 13  1  0  0  0  0
 11 14  1  0  0  0  0
 14 15  1  0  0  0  0
 14 20  2  0  0  0  0
 15 16  2  0  0  0  0
 16 17  1  0  0  0  0
 16 18  1  0  0  0  0
 18 19  1  0  0  0  0
 18 20  1  0  0  0  0
 20 21  1  0  0  0  0
 22 23  2  0  0  0  0
 22 24  1  0  0  0  0
 24 25  1  0  0  0  0
 24 26  1  0  0  0  0
 26 27  1  0  0  0  0
 26 28  1  0  0  0  0
 26 29  1  0  0  0  0
M  END
$$$$

  -OEChem-04042215593D

 29 29  0     1  0  0  0  0  0999 V2000
   -2.5885   -4.3769    0.4232 H   0  0  0  0  0  0  0  0  0  0  0  0
   -2.6851   -3.3771   -0.0097 C   0  0  0  0  0  0  0  0  0  0  0  0
   -3.4496   -2.8268    0.5437 H   0  0  0  0  0  0  0  0  0  0  0  0
   -2.9973   -3.4755   -1.0521 H   0  0  0  0  0  0  0  0  0  0  0  0
   -1.3587   -2.6449    0.0691 C   0  0  0  0  0  0  0  0  0  0  0  0
   -0.4069   -3.1737    0.6127 O   0  0  0  0  0  0  0  0  0  0  0  0
   -1.2392   -1.3849   -0.4837 N   0  0  0  0  0  0  0  0  0  0  0  0
   -2.0442   -1.0317   -0.9918 H   0  0  0  0  0  0  0  0  0  0  0  0
    0.0137   -0.6075   -0.5295 C   0  0  1  0  0  0  0  0  0  0  0  0
    0.7679   -1.1722   -1.0889 H   0  0  0  0  0  0  0  0  0  0  0  0
   -0.3262    0.6863   -1.2957 C   0  0  0  0  0  0  0  0  0  0  0  0
   -0.7093    0.4297   -2.2874 H   0  0  0  0  0  0  0  0  0  0  0  0
   -1.1221    1.2111   -0.7584 H   0  0  0  0  0  0  0  0  0  0  0  0
    0.8042    1.6632   -1.4832 C   0  0  0  0  0  0  0  0  0  0  0  0
    0.5507    2.9721   -1.8732 N   0  0  0  0  0  0  0  0  0  0  0  0
    1.7156    3.5689   -1.9640 C   0  0  0  0  0  0  0  0  0  0  0  0
    1.8607    4.6084   -2.2436 H   0  0  0  0  0  0  0  0  0  0  0  0
    2.7263    2.6802   -1.6553 N   0  0  0  0  0  0  0  0  0  0  0  0
    3.7205    2.8999   -1.6344 H   0  0  0  0  0  0  0  0  0  0  0  0
    2.1522    1.4643   -1.3556 C   0  0  0  0  0  0  0  0  0  0  0  0
    2.6554    0.5449   -1.0662 H   0  0  0  0  0  0  0  0  0  0  0  0
    0.5923   -0.3139    0.8790 C   0  0  0  0  0  0  0  0  0  0  0  0
    1.7973   -0.3895    1.0846 O   0  0  0  0  0  0  0  0  0  0  0  0
   -0.2414    0.1191    1.8953 N   0  0  0  0  0  0  0  0  0  0  0  0
   -1.2385    0.0768    1.7148 H   0  0  0  0  0  0  0  0  0  0  0  0
    0.2180    0.3451    3.2594 C   0  0  0  0  0  0  0  0  0  0  0  0
    1.0182    1.0923    3.2765 H   0  0  0  0  0  0  0  0  0  0  0  0
   -0.6061    0.7098    3.8797 H   0  0  0  0  0  0  0  0  0  0  0  0
    0.5956   -0.5863    3.6942 H   0  0  0  0  0  0  0  0  0  0  0  0
  1  2  1  0  0  0  0
  2  3  1  0  0  0  0
  2  4  1  0  0  0  0
  2  5  1  0  0  0  0
  5  6  2  0  0  0  0
  5  7  1  0  0  0  0
  7  8  1  0  0  0  0
  7  9  1  0  0  0  0
  9 10  1  0  0  0  0
  9 11  1  0  0  0  0
  9 22  1  0  0  0  0
 11 12  1  0  0  0  0
 11 13  1  0  0  0  0
 11 14  1  0  0  0  0
 14 15  1  0  0  0  0
 14 20  2  0  0  0  0
 15 16  2  0  0  0  0
 16 17  1  0  0  0  0
 16 18  1  0  0  0  0
 18 19  1  0  0  0  0
 18 20  1  0  0  0  0
 20 21  1  0  0  0  0
 22 23  2  0  0  0  0
 22 24  1  0  0  0  0
 24 25  1  0  0  0  0
 24 26  1  0  0  0  0
 26 27  1  0  0  0  0
 26 28  1  0  0  0  0
 26 29  1  0  0  0  0
M  END
$$$$

  -OEChem-04042215593D

 29 29  0     1  0  0  0  0  0999 V2000
   -2.5657   -4.3969    0.4436 H   0  0  0  0  0  0  0  0  0  0  0  0
   -2.6796   -3.4014    0.0048 C   0  0  0  0  0  0  0  0  0  0  0  0
   -3.4388   -2.8536    0.5680 H   0  0  0  0  0  0  0  0  0  0  0  0
   -3.0097   -3.5109   -1.0310 H   0  0  0  0  0  0  0  0  0  0  0  0
   -1.3586   -2.6567    0.0539 C   0  0  0  0  0  0  0  0  0  0  0  0
   -0.3887   -3.1775    0.5727 O   0  0  0  0  0  0  0  0  0  0  0  0
   -1.2631   -1.3951   -0.4997 N   0  0  0  0  0  0  0  0  0  0  0  0
   -2.0852   -1.0420   -0.9796 H   0  0  0  0  0  0  0  0  0  0  0  0
   -0.0200   -0.6046   -0.5624 C   0  0  1  0  0  0  0  0  0  0  0  0
    0.7272   -1.1716   -1.1283 H   0  0  0  0  0  0  0  0  0  0  0  0
   -0.3681    0.6808   -1.3365 C   0  0  0  0  0  0  0  0  0  0  0  0
   -0.7545    0.4225   -2.3263 H   0  0  0  0  0  0  0  0  0  0  0  0
   -1.1602    1.2090   -0.7971 H   0  0  0  0  0  0  0  0  0  0  0  0
    0.7739    1.6432   -1.5193 C   0  0  0  0  0  0  0  0  0  0  0  0
    0.5610    3.0126   -1.6109 N   0  0  0  0  0  0  0  0  0  0  0  0
    1.7450    3.5669   -1.7230 C   0  0  0  0  0  0  0  0  0  0  0  0
    1.9253    4.6348   -1.8069 H   0  0  0  0  0  0  0  0  0  0  0  0
    2.7256    2.5943   -1.7154 N   0  0  0  0  0  0  0  0  0  0  0  0
    3.7286    2.7674   -1.7468 H   0  0  0  0  0  0  0  0  0  0  0  0
    2.1124    1.3679   -1.5809 C   0  0  0  0  0  0  0  0  0  0  0  0
    2.5825    0.3911   -1.4975 H   0  0  0  0  0  0  0  0  0  0  0  0
    0.5921   -0.2950    0.8272 C   0  0  0  0  0  0  0  0  0  0  0  0
    1.8050   -0.3427    0.9919 O   0  0  0  0  0  0  0  0  0  0  0  0
   -0.2173    0.1354    1.8636 N   0  0  0  0  0  0  0  0  0  0  0  0
   -1.2188    0.0914    1.7108 H   0  0  0  0  0  0  0  0  0  0  0  0
    0.2823    0.4073    3.2048 C   0  0  0  0  0  0  0  0  0  0  0  0
    1.0572    1.1804    3.1762 H   0  0  0  0  0  0  0  0  0  0  0  0
   -0.5310    0.7587    3.8468 H   0  0  0  0  0  0  0  0  0  0  0  0
    0.7060   -0.5012    3.6455 H   0  0  0  0  0  0  0  0  0  0  0  0
  1  2  1  0  0  0  0
  2  3  1  0  0  0  0
  2  4  1  0  0  0  0
  2  5  1  0  0  0  0
  5  6  2  0  0  0  0
  5  7  1  0  0  0  0
  7  8  1  0  0  0  0
  7  9  1  0  0  0  0
  9 10  1  0  0  0  0
  9 11  1  0  0  0  0
  9 22  1  0  0  0  0
 11 12  1  0  0  0  0
 11 13  1  0  0  0  0
 11 14  1  0  0  0  0
 14 15  1  0  0  0  0
 14 20  2  0  0  0  0
 15 16  2  0  0  0  0
 16 17  1  0  0  0  0
 16 18  1  0  0  0  0
 18 19  1  0  0  0  0
 18 20  1  0  0  0  0
 20 21  1  0  0  0  0
 22 23  2  0  0  0  0
 22 24  1  0  0  0  0
 24 25  1  0  0  0  0
 24 26  1  0  0  0  0
 26 27  1  0  0  0  0
 26 28  1  0  0  0  0
 26 29  1  0  0  0  0
M  END
$$$$

  -OEChem-04042215593D

 29 29  0     1  0  0  0  0  0999 V2000
   -2.5335   -4.4207    0.4411 H   0  0  0  0  0  0  0  0  0  0  0  0
   -2.6650   -3.4255    0.0066 C   0  0  0  0  0  0  0  0  0  0  0  0
   -3.4205   -2.8871    0.5836 H   0  0  0  0  0  0  0  0  0  0  0  0
   -3.0112   -3.5354   -1.0238 H   0  0  0  0  0  0  0  0  0  0  0  0
   -1.3513   -2.6672    0.0349 C   0  0  0  0  0  0  0  0  0  0  0  0
   -0.3652   -3.1819    0.5289 O   0  0  0  0  0  0  0  0  0  0  0  0
   -1.2797   -1.4020   -0.5133 N   0  0  0  0  0  0  0  0  0  0  0  0
   -2.1186   -1.0479   -0.9621 H   0  0  0  0  0  0  0  0  0  0  0  0
   -0.0482   -0.5946   -0.5850 C   0  0  1  0  0  0  0  0  0  0  0  0
    0.6975   -1.1564   -1.1581 H   0  0  0  0  0  0  0  0  0  0  0  0
   -0.4099    0.6860   -1.3583 C   0  0  0  0  0  0  0  0  0  0  0  0
   -0.7912    0.4270   -2.3496 H   0  0  0  0  0  0  0  0  0  0  0  0
   -1.2048    1.2126   -0.8212 H   0  0  0  0  0  0  0  0  0  0  0  0
    0.7397    1.6382   -1.5287 C   0  0  0  0  0  0  0  0  0  0  0  0
    0.6056    3.0033   -1.3147 N   0  0  0  0  0  0  0  0  0  0  0  0
    1.7994    3.5216   -1.4809 C   0  0  0  0  0  0  0  0  0  0  0  0
    2.0377    4.5759   -1.3733 H   0  0  0  0  0  0  0  0  0  0  0  0
    2.7054    2.5313   -1.8093 N   0  0  0  0  0  0  0  0  0  0  0  0
    3.7059    2.6682   -1.9391 H   0  0  0  0  0  0  0  0  0  0  0  0
    2.0360    1.3273   -1.8331 C   0  0  0  0  0  0  0  0  0  0  0  0
    2.4460    0.3361   -2.0054 H   0  0  0  0  0  0  0  0  0  0  0  0
    0.5873   -0.2746    0.7912 C   0  0  0  0  0  0  0  0  0  0  0  0
    1.8048   -0.2961    0.9256 O   0  0  0  0  0  0  0  0  0  0  0  0
   -0.2045    0.1460    1.8450 N   0  0  0  0  0  0  0  0  0  0  0  0
   -1.2088    0.1150    1.7095 H   0  0  0  0  0  0  0  0  0  0  0  0
    0.3249    0.4673    3.1635 C   0  0  0  0  0  0  0  0  0  0  0  0
    1.0564    1.2792    3.0947 H   0  0  0  0  0  0  0  0  0  0  0  0
   -0.4832    0.7871    3.8279 H   0  0  0  0  0  0  0  0  0  0  0  0
    0.8105   -0.4097    3.6042 H   0  0  0  0  0  0  0  0  0  0  0  0
  1  2  1  0  0  0  0
  2  3  1  0  0  0  0
  2  4  1  0  0  0  0
  2  5  1  0  0  0  0
  5  6  2  0  0  0  0
  5  7  1  0  0  0  0
  7  8  1  0  0  0  0
  7  9  1  0  0  0  0
  9 10  1  0  0  0  0
  9 11  1  0  0  0  0
  9 22  1  0  0  0  0
 11 12  1  0  0  0  0
 11 13  1  0  0  0  0
 11 14  1  0  0  0  0
 14 15  1  0  0  0  0
 14 20  2  0  0  0  0
 15 16  2  0  0  0  0
 16 17  1  0  0  0  0
 16 18  1  0  0  0  0
 18 19  1  0  0  0  0
 18 20  1  0  0  0  0
 20 21  1  0  0  0  0
 22 23  2  0  0  0  0
 22 24  1  0  0  0  0
 24 25  1  0  0  0  0
 24 26  1  0  0  0  0
 26 27  1  0  0  0  0
 26 28  1  0  0  0  0
 26 29  1  0  0  0  0
M  END
$$$$

  -OEChem-04042215593D

 29 29  0     1  0  0  0  0  0999 V2000
   -2.4942   -4.4296    0.4663 H   0  0  0  0  0  0  0  0  0  0  0  0
   -2.6420   -3.4385    0.0277 C   0  0  0  0  0  0  0  0  0  0  0  0
   -3.3799   -2.8973    0.6245 H   0  0  0  0  0  0  0  0  0  0  0  0
   -3.0213   -3.5587   -0.9899 H   0  0  0  0  0  0  0  0  0  0  0  0
   -1.3298   -2.6768    0.0075 C   0  0  0  0  0  0  0  0  0  0  0  0
   -0.3239   -3.1925    0.4585 O   0  0  0  0  0  0  0  0  0  0  0  0
   -1.2823   -1.4065   -0.5321 N   0  0  0  0  0  0  0  0  0  0  0  0
   -2.1416   -1.0434   -0.9319 H   0  0  0  0  0  0  0  0  0  0  0  0
   -0.0641   -0.5795   -0.6050 C   0  0  1  0  0  0  0  0  0  0  0  0
    0.6875   -1.1283   -1.1832 H   0  0  0  0  0  0  0  0  0  0  0  0
   -0.4392    0.6995   -1.3733 C   0  0  0  0  0  0  0  0  0  0  0  0
   -0.8066    0.4381   -2.3692 H   0  0  0  0  0  0  0  0  0  0  0  0
   -1.2427    1.2215   -0.8448 H   0  0  0  0  0  0  0  0  0  0  0  0
    0.7170    1.6446   -1.5242 C   0  0  0  0  0  0  0  0  0  0  0  0
    0.6989    2.9382   -1.0219 N   0  0  0  0  0  0  0  0  0  0  0  0
    1.8845    3.4432   -1.2691 C   0  0  0  0  0  0  0  0  0  0  0  0
    2.2029    4.4434   -0.9891 H   0  0  0  0  0  0  0  0  0  0  0  0
    2.6658    2.5190   -1.9370 N   0  0  0  0  0  0  0  0  0  0  0  0
    3.6417    2.6518   -2.1952 H   0  0  0  0  0  0  0  0  0  0  0  0
    1.9264    1.3670   -2.0973 C   0  0  0  0  0  0  0  0  0  0  0  0
    2.2378    0.4249   -2.5384 H   0  0  0  0  0  0  0  0  0  0  0  0
    0.5778   -0.2572    0.7676 C   0  0  0  0  0  0  0  0  0  0  0  0
    1.7966   -0.2610    0.8908 O   0  0  0  0  0  0  0  0  0  0  0  0
   -0.2110    0.1450    1.8312 N   0  0  0  0  0  0  0  0  0  0  0  0
   -1.2156    0.1264    1.6976 H   0  0  0  0  0  0  0  0  0  0  0  0
    0.3270    0.4937    3.1391 C   0  0  0  0  0  0  0  0  0  0  0  0
    1.0477    1.3135    3.0504 H   0  0  0  0  0  0  0  0  0  0  0  0
   -0.4788    0.8137    3.8065 H   0  0  0  0  0  0  0  0  0  0  0  0
    0.8278   -0.3704    3.5883 H   0  0  0  0  0  0  0  0  0  0  0  0
  1  2  1  0  0  0  0
  2  3  1  0  0  0  0
  2  4  1  0  0  0  0
  2  5  1  0  0  0  0
  5  6  2  0  0  0  0
  5  7  1  0  0  0  0
  7  8  1  0  0  0  0
  7  9  1  0  0  0  0
  9 10  1  0  0  0  0
  9 11  1  0  0  0  0
  9 22  1  0  0  0  0
 11 12  1  0  0  0  0
 11 13  1  0  0  0  0
 11 14  1  0  0  0  0
 14 15  1  0  0  0  0
 14 20  2  0  0  0  0
 15 16  2  0  0  0  0
 16 17  1  0  0  0  0
 16 18  1  0  0  0  0
 18 19  1  0  0  0  0
 18 20  1  0  0  0  0
 20 21  1  0  0  0  0
 22 23  2  0  0  0  0
 22 24  1  0  0  0  0
 24 25  1  0  0  0  0
 24 26  1  0  0  0  0
 26 27  1  0  0  0  0
 26 28  1  0  0  0  0
 26 29  1  0  0  0  0
M  END
$$$$

  -OEChem-04042215593D

 29 29  0     1  0  0  0  0  0999 V2000
   -2.4885   -4.4345    0.4654 H   0  0  0  0  0  0  0  0  0  0  0  0
   -2.6391   -3.4441    0.0264 C   0  0  0  0  0  0  0  0  0  0  0  0
   -3.3695   -2.9004    0.6301 H   0  0  0  0  0  0  0  0  0  0  0  0
   -3.0295   -3.5653   -0.9868 H   0  0  0  0  0  0  0  0  0  0  0  0
   -1.3252   -2.6856   -0.0101 C   0  0  0  0  0  0  0  0  0  0  0  0
   -0.3120   -3.2105    0.4133 O   0  0  0  0  0  0  0  0  0  0  0  0
   -1.2829   -1.4116   -0.5410 N   0  0  0  0  0  0  0  0  0  0  0  0
   -2.1516   -1.0349   -0.9060 H   0  0  0  0  0  0  0  0  0  0  0  0
   -0.0674   -0.5798   -0.6085 C   0  0  1  0  0  0  0  0  0  0  0  0
    0.6878   -1.1205   -1.1903 H   0  0  0  0  0  0  0  0  0  0  0  0
   -0.4511    0.6970   -1.3747 C   0  0  0  0  0  0  0  0  0  0  0  0
   -0.8055    0.4288   -2.3738 H   0  0  0  0  0  0  0  0  0  0  0  0
   -1.2622    1.2176   -0.8569 H   0  0  0  0  0  0  0  0  0  0  0  0
    0.7074    1.6375   -1.5130 C   0  0  0  0  0  0  0  0  0  0  0  0
    0.8253    2.7991   -0.7640 N   0  0  0  0  0  0  0  0  0  0  0  0
    1.9766    3.3316   -1.0977 C   0  0  0  0  0  0  0  0  0  0  0  0
    2.3808    4.2468   -0.6748 H   0  0  0  0  0  0  0  0  0  0  0  0
    2.5943    2.5618   -2.0663 N   0  0  0  0  0  0  0  0  0  0  0  0
    3.5165    2.7414   -2.4584 H   0  0  0  0  0  0  0  0  0  0  0  0
    1.7867    1.4774   -2.3348 C   0  0  0  0  0  0  0  0  0  0  0  0
    1.9724    0.6509   -3.0140 H   0  0  0  0  0  0  0  0  0  0  0  0
    0.5771   -0.2624    0.7643 C   0  0  0  0  0  0  0  0  0  0  0  0
    1.7957   -0.2827    0.8897 O   0  0  0  0  0  0  0  0  0  0  0  0
   -0.2094    0.1318    1.8327 N   0  0  0  0  0  0  0  0  0  0  0  0
   -1.2106    0.1768    1.6827 H   0  0  0  0  0  0  0  0  0  0  0  0
    0.3366    0.5250    3.1244 C   0  0  0  0  0  0  0  0  0  0  0  0
    0.9939    1.3936    3.0125 H   0  0  0  0  0  0  0  0  0  0  0  0
   -0.4719    0.7885    3.8127 H   0  0  0  0  0  0  0  0  0  0  0  0
    0.9102   -0.2982    3.5630 H   0  0  0  0  0  0  0  0  0  0  0  0
  1  2  1  0  0  0  0
  2  3  1  0  0  0  0
  2  4  1  0  0  0  0
  2  5  1  0  0  0  0
  5  6  2  0  0  0  0
  5  7  1  0  0  0  0
  7  8  1  0  0  0  0
  7  9  1  0  0  0  0
  9 10  1  0  0  0  0
  9 11  1  0  0  0  0
  9 22  1  0  0  0  0
 11 12  1  0  0  0  0
 11 13  1  0  0  0  0
 11 14  1  0  0  0  0
 14 15  1  0  0  0  0
 14 20  2  0  0  0  0
 15 16  2  0  0  0  0
 16 17  1  0  0  0  0
 16 18  1  0  0  0  0
 18 19  1  0  0  0  0
 18 20  1  0  0  0  0
 20 21  1  0  0  0  0
 22 23  2  0  0  0  0
 22 24  1  0  0  0  0
 24 25  1  0  0  0  0
 24 26  1  0  0  0  0
 26 27  1  0  0  0  0
 26 28  1  0  0  0  0
 26 29  1  0  0  0  0
M  END
$$$$

  -OEChem-04042215593D

 29 29  0     1  0  0  0  0  0999 V2000
   -2.4863   -4.4314    0.4622 H   0  0  0  0  0  0  0  0  0  0  0  0
   -2.6358   -3.4355    0.0350 C   0  0  0  0  0  0  0  0  0  0  0  0
   -3.3526   -2.8918    0.6549 H   0  0  0  0  0  0  0  0  0  0  0  0
   -3.0418   -3.5438   -0.9736 H   0  0  0  0  0  0  0  0  0  0  0  0
   -1.3173   -2.6867   -0.0131 C   0  0  0  0  0  0  0  0  0  0  0  0
   -0.3037   -3.2219    0.3956 O   0  0  0  0  0  0  0  0  0  0  0  0
   -1.2738   -1.4117   -0.5412 N   0  0  0  0  0  0  0  0  0  0  0  0
   -2.1472   -1.0247   -0.8827 H   0  0  0  0  0  0  0  0  0  0  0  0
   -0.0587   -0.5792   -0.6037 C   0  0  1  0  0  0  0  0  0  0  0  0
    0.7007   -1.1194   -1.1804 H   0  0  0  0  0  0  0  0  0  0  0  0
   -0.4435    0.6910   -1.3825 C   0  0  0  0  0  0  0  0  0  0  0  0
   -0.7905    0.4081   -2.3803 H   0  0  0  0  0  0  0  0  0  0  0  0
   -1.2604    1.2131   -0.8758 H   0  0  0  0  0  0  0  0  0  0  0  0
    0.7087    1.6391   -1.5229 C   0  0  0  0  0  0  0  0  0  0  0  0
    0.9839    2.6361   -0.5988 N   0  0  0  0  0  0  0  0  0  0  0  0
    2.0786    3.2270   -1.0137 C   0  0  0  0  0  0  0  0  0  0  0  0
    2.5749    4.0439   -0.4980 H   0  0  0  0  0  0  0  0  0  0  0  0
    2.5002    2.6638   -2.2044 N   0  0  0  0  0  0  0  0  0  0  0  0
    3.3425    2.9274   -2.7122 H   0  0  0  0  0  0  0  0  0  0  0  0
    1.6263    1.6498   -2.5347 C   0  0  0  0  0  0  0  0  0  0  0  0
    1.6654    0.9780   -3.3865 H   0  0  0  0  0  0  0  0  0  0  0  0
    0.5781   -0.2666    0.7742 C   0  0  0  0  0  0  0  0  0  0  0  0
    1.7938   -0.3239    0.9174 O   0  0  0  0  0  0  0  0  0  0  0  0
   -0.2151    0.1238    1.8395 N   0  0  0  0  0  0  0  0  0  0  0  0
   -1.2107    0.2085    1.6720 H   0  0  0  0  0  0  0  0  0  0  0  0
    0.3243    0.5080    3.1365 C   0  0  0  0  0  0  0  0  0  0  0  0
    0.9938    1.3682    3.0314 H   0  0  0  0  0  0  0  0  0  0  0  0
   -0.4866    0.7809    3.8182 H   0  0  0  0  0  0  0  0  0  0  0  0
    0.8832   -0.3231    3.5790 H   0  0  0  0  0  0  0  0  0  0  0  0
  1  2  1  0  0  0  0
  2  3  1  0  0  0  0
  2  4  1  0  0  0  0
  2  5  1  0  0  0  0
  5  6  2  0  0  0  0
  5  7  1  0  0  0  0
  7  8  1  0  0  0  0
  7  9  1  0  0  0  0
  9 10  1  0  0  0  0
  9 11  1  0  0  0  0
  9 22  1  0  0  0  0
 11 12  1  0  0  0  0
 11 13  1  0  0  0  0
 11 14  1  0  0  0  0
 14 15  1  0  0  0  0
 14 20  2  0  0  0  0
 15 16  2  0  0  0  0
 16 17  1  0  0  0  0
 16 18  1  0  0  0  0
 18 19  1  0  0  0  0
 18 20  1  0  0  0  0
 20 21  1  0  0  0  0
 22 23  2  0  0  0  0
 22 24  1  0  0  0  0
 24 25  1  0  0  0  0
 24 26  1  0  0  0  0
 26 27  1  0  0  0  0
 26 28  1  0  0  0  0
 26 29  1  0  0  0  0
M  END
$$$$

  -OEChem-04042215593D

 29 29  0     1  0  0  0  0  0999 V2000
   -2.4901   -4.4120    0.4828 H   0  0  0  0  0  0  0  0  0  0  0  0
   -2.6341   -3.4176    0.0503 C   0  0  0  0  0  0  0  0  0  0  0  0
   -3.3354   -2.8611    0.6763 H   0  0  0  0  0  0  0  0  0  0  0  0
   -3.0562   -3.5287   -0.9513 H   0  0  0  0  0  0  0  0  0  0  0  0
   -1.3072   -2.6850   -0.0227 C   0  0  0  0  0  0  0  0  0  0  0  0
   -0.2922   -3.2364    0.3601 O   0  0  0  0  0  0  0  0  0  0  0  0
   -1.2584   -1.4081   -0.5465 N   0  0  0  0  0  0  0  0  0  0  0  0
   -2.1363   -1.0051   -0.8558 H   0  0  0  0  0  0  0  0  0  0  0  0
   -0.0405   -0.5774   -0.5965 C   0  0  1  0  0  0  0  0  0  0  0  0
    0.7252   -1.1170   -1.1652 H   0  0  0  0  0  0  0  0  0  0  0  0
   -0.4263    0.6854   -1.3912 C   0  0  0  0  0  0  0  0  0  0  0  0
   -0.7706    0.3884   -2.3861 H   0  0  0  0  0  0  0  0  0  0  0  0
   -1.2498    1.2018   -0.8898 H   0  0  0  0  0  0  0  0  0  0  0  0
    0.7063    1.6577   -1.5422 C   0  0  0  0  0  0  0  0  0  0  0  0
    1.1569    2.4772   -0.5185 N   0  0  0  0  0  0  0  0  0  0  0  0
    2.1824    3.1390   -0.9967 C   0  0  0  0  0  0  0  0  0  0  0  0
    2.7741    3.8560   -0.4351 H   0  0  0  0  0  0  0  0  0  0  0  0
    2.3906    2.7947   -2.3197 N   0  0  0  0  0  0  0  0  0  0  0  0
    3.1430    3.1504   -2.9062 H   0  0  0  0  0  0  0  0  0  0  0  0
    1.4493    1.8506   -2.6728 C   0  0  0  0  0  0  0  0  0  0  0  0
    1.3328    1.3396   -3.6236 H   0  0  0  0  0  0  0  0  0  0  0  0
    0.5810   -0.2741    0.7904 C   0  0  0  0  0  0  0  0  0  0  0  0
    1.7888   -0.3880    0.9636 O   0  0  0  0  0  0  0  0  0  0  0  0
   -0.2239    0.1128    1.8484 N   0  0  0  0  0  0  0  0  0  0  0  0
   -1.2092    0.2488    1.6573 H   0  0  0  0  0  0  0  0  0  0  0  0
    0.3027    0.4644    3.1598 C   0  0  0  0  0  0  0  0  0  0  0  0
    0.9893    1.3138    3.0799 H   0  0  0  0  0  0  0  0  0  0  0  0
   -0.5133    0.7396    3.8344 H   0  0  0  0  0  0  0  0  0  0  0  0
    0.8405   -0.3844    3.5952 H   0  0  0  0  0  0  0  0  0  0  0  0
  1  2  1  0  0  0  0
  2  3  1  0  0  0  0
  2  4  1  0  0  0  0
  2  5  1  0  0  0  0
  5  6  2  0  0  0  0
  5  7  1  0  0  0  0
  7  8  1  0  0  0  0
  7  9  1  0  0  0  0
  9 10  1  0  0  0  0
  9 11  1  0  0  0  0
  9 22  1  0  0  0  0
 11 12  1  0  0  0  0
 11 13  1  0  0  0  0
 11 14  1  0  0  0  0
 14 15  1  0  0  0  0
 14 20  2  0  0  0  0
 15 16  2  0  0  0  0
 16 17  1  0  0  0  0
 16 18  1  0  0  0  0
 18 19  1  0  0  0  0
 18 20  1  0  0  0  0
 20 21  1  0  0  0  0
 22 23  2  0  0  0  0
 22 24  1  0  0  0  0
 24 25  1  0  0  0  0
 24 26  1  0  0  0  0
 26 27  1  0  0  0  0
 26 28  1  0  0  0  0
 26 29  1  0  0  0  0
M  END
$$$$

  -OEChem-04042215593D

 29 29  0     1  0  0  0  0  0999 V2000
   -2.4960   -4.3871    0.4744 H   0  0  0  0  0  0  0  0  0  0  0  0
   -2.6278   -3.3858    0.0544 C   0  0  0  0  0  0  0  0  0  0  0  0
   -3.3265   -2.8301    0.6841 H   0  0  0  0  0  0  0  0  0  0  0  0
   -3.0457   -3.4790   -0.9508 H   0  0  0  0  0  0  0  0  0  0  0  0
   -1.2936   -2.6658   -0.0014 C   0  0  0  0  0  0  0  0  0  0  0  0
   -0.2908   -3.2242    0.4018 O   0  0  0  0  0  0  0  0  0  0  0  0
   -1.2279   -1.3927   -0.5327 N   0  0  0  0  0  0  0  0  0  0  0  0
   -2.0976   -0.9885   -0.8625 H   0  0  0  0  0  0  0  0  0  0  0  0
   -0.0038   -0.5701   -0.5771 C   0  0  1  0  0  0  0  0  0  0  0  0
    0.7675   -1.1128   -1.1352 H   0  0  0  0  0  0  0  0  0  0  0  0
   -0.3903    0.6867   -1.3854 C   0  0  0  0  0  0  0  0  0  0  0  0
   -0.7440    0.3778   -2.3732 H   0  0  0  0  0  0  0  0  0  0  0  0
   -1.2128    1.1995   -0.8791 H   0  0  0  0  0  0  0  0  0  0  0  0
    0.7205    1.6838   -1.5614 C   0  0  0  0  0  0  0  0  0  0  0  0
    1.3793    2.3264   -0.5253 N   0  0  0  0  0  0  0  0  0  0  0  0
    2.3115    3.0684   -1.0705 C   0  0  0  0  0  0  0  0  0  0  0  0
    3.0146    3.6866   -0.5196 H   0  0  0  0  0  0  0  0  0  0  0  0
    2.2591    2.9492   -2.4465 N   0  0  0  0  0  0  0  0  0  0  0  0
    2.8888    3.4118   -3.0992 H   0  0  0  0  0  0  0  0  0  0  0  0
    1.2476    2.0667   -2.7637 C   0  0  0  0  0  0  0  0  0  0  0  0
    0.9431    1.7218   -3.7470 H   0  0  0  0  0  0  0  0  0  0  0  0
    0.5924   -0.2714    0.8227 C   0  0  0  0  0  0  0  0  0  0  0  0
    1.7862   -0.4428    1.0386 O   0  0  0  0  0  0  0  0  0  0  0  0
   -0.2341    0.1215    1.8624 N   0  0  0  0  0  0  0  0  0  0  0  0
   -1.2180    0.2435    1.6555 H   0  0  0  0  0  0  0  0  0  0  0  0
    0.2494    0.3779    3.2121 C   0  0  0  0  0  0  0  0  0  0  0  0
    0.9976    1.1774    3.2042 H   0  0  0  0  0  0  0  0  0  0  0  0
   -0.5779    0.6841    3.8591 H   0  0  0  0  0  0  0  0  0  0  0  0
    0.7029   -0.5258    3.6327 H   0  0  0  0  0  0  0  0  0  0  0  0
  1  2  1  0  0  0  0
  2  3  1  0  0  0  0
  2  4  1  0  0  0  0
  2  5  1  0  0  0  0
  5  6  2  0  0  0  0
  5  7  1  0  0  0  0
  7  8  1  0  0  0  0
  7  9  1  0  0  0  0
  9 10  1  0  0  0  0
  9 11  1  0  0  0  0
  9 22  1  0  0  0  0
 11 12  1  0  0  0  0
 11 13  1  0  0  0  0
 11 14  1  0  0  0  0
 14 15  1  0  0  0  0
 14 20  2  0  0  0  0
 15 16  2  0  0  0  0
 16 17  1  0  0  0  0
 16 18  1  0  0  0  0
 18 19  1  0  0  0  0
 18 20  1  0  0  0  0
 20 21  1  0  0  0  0
 22 23  2  0  0  0  0
 22 24  1  0  0  0  0
 24 25  1  0  0  0  0
 24 26  1  0  0  0  0
 26 27  1  0  0  0  0
 26 28  1  0  0  0  0
 26 29  1  0  0  0  0
M  END
$$$$

  -OEChem-04042215593D

 29 29  0     1  0  0  0  0  0999 V2000
   -2.5099   -4.3616    0.4722 H   0  0  0  0  0  0  0  0  0  0  0  0
   -2.6277   -3.3590    0.0509 C   0  0  0  0  0  0  0  0  0  0  0  0
   -3.3302   -2.7979    0.6715 H   0  0  0  0  0  0  0  0  0  0  0  0
   -3.0328   -3.4489   -0.9597 H   0  0  0  0  0  0  0  0  0  0  0  0
   -1.2869   -2.6497    0.0124 C   0  0  0  0  0  0  0  0  0  0  0  0
   -0.2960   -3.2159    0.4335 O   0  0  0  0  0  0  0  0  0  0  0  0
   -1.2034   -1.3789   -0.5223 N   0  0  0  0  0  0  0  0  0  0  0  0
   -2.0638   -0.9747   -0.8754 H   0  0  0  0  0  0  0  0  0  0  0  0
    0.0280   -0.5649   -0.5598 C   0  0  1  0  0  0  0  0  0  0  0  0
    0.8035   -1.1080   -1.1114 H   0  0  0  0  0  0  0  0  0  0  0  0
   -0.3602    0.6919   -1.3718 C   0  0  0  0  0  0  0  0  0  0  0  0
   -0.7251    0.3802   -2.3548 H   0  0  0  0  0  0  0  0  0  0  0  0
   -1.1802    1.1994   -0.8559 H   0  0  0  0  0  0  0  0  0  0  0  0
    0.7327    1.7087   -1.5663 C   0  0  0  0  0  0  0  0  0  0  0  0
    1.5996    2.1676   -0.5887 N   0  0  0  0  0  0  0  0  0  0  0  0
    2.4368    2.9907   -1.1687 C   0  0  0  0  0  0  0  0  0  0  0  0
    3.2480    3.5096   -0.6657 H   0  0  0  0  0  0  0  0  0  0  0  0
    2.1271    3.0985   -2.5109 N   0  0  0  0  0  0  0  0  0  0  0  0
    2.6379    3.6634   -3.1869 H   0  0  0  0  0  0  0  0  0  0  0  0
    1.0461    2.2813   -2.7691 C   0  0  0  0  0  0  0  0  0  0  0  0
    0.5549    2.1038   -3.7210 H   0  0  0  0  0  0  0  0  0  0  0  0
    0.6054   -0.2718    0.8501 C   0  0  0  0  0  0  0  0  0  0  0  0
    1.7854   -0.4878    1.1000 O   0  0  0  0  0  0  0  0  0  0  0  0
   -0.2374    0.1272    1.8746 N   0  0  0  0  0  0  0  0  0  0  0  0
   -1.2205    0.2301    1.6546 H   0  0  0  0  0  0  0  0  0  0  0  0
    0.2099    0.3117    3.2485 C   0  0  0  0  0  0  0  0  0  0  0  0
    1.0091    1.0591    3.2930 H   0  0  0  0  0  0  0  0  0  0  0  0
   -0.6193    0.6549    3.8740 H   0  0  0  0  0  0  0  0  0  0  0  0
    0.5862   -0.6322    3.6570 H   0  0  0  0  0  0  0  0  0  0  0  0
  1  2  1  0  0  0  0
  2  3  1  0  0  0  0
  2  4  1  0  0  0  0
  2  5  1  0  0  0  0
  5  6  2  0  0  0  0
  5  7  1  0  0  0  0
  7  8  1  0  0  0  0
  7  9  1  0  0  0  0
  9 10  1  0  0  0  0
  9 11  1  0  0  0  0
  9 22  1  0  0  0  0
 11 12  1  0  0  0  0
 11 13  1  0  0  0  0
 11 14  1  0  0  0  0
 14 15  1  0  0  0  0
 14 20  2  0  0  0  0
 15 16  2  0  0  0  0
 16 17  1  0  0  0  0
 16 18  1  0  0  0  0
 18 19  1  0  0  0  0
 18 20  1  0  0  0  0
 20 21  1  0  0  0  0
 22 23  2  0  0  0  0
 22 24  1  0  0  0  0
 24 25  1  0  0  0  0
 24 26  1  0  0  0  0
 26 27  1  0  0  0  0
 26 28  1  0  0  0  0
 26 29  1  0  0  0  0
M  END
$$$$

  -OEChem-04042215593D

 29 29  0     1  0  0  0  0  0999 V2000
   -2.5318   -4.3404    0.4670 H   0  0  0  0  0  0  0  0  0  0  0  0
   -2.6355   -3.3382    0.0407 C   0  0  0  0  0  0  0  0  0  0  0  0
   -3.3540   -2.7745    0.6403 H   0  0  0  0  0  0  0  0  0  0  0  0
   -3.0121   -3.4288   -0.9808 H   0  0  0  0  0  0  0  0  0  0  0  0
   -1.2924   -2.6323    0.0391 C   0  0  0  0  0  0  0  0  0  0  0  0
   -0.3194   -3.1950    0.5034 O   0  0  0  0  0  0  0  0  0  0  0  0
   -1.1884   -1.3673   -0.5063 N   0  0  0  0  0  0  0  0  0  0  0  0
   -2.0298   -0.9775   -0.9164 H   0  0  0  0  0  0  0  0  0  0  0  0
    0.0529   -0.5670   -0.5467 C   0  0  1  0  0  0  0  0  0  0  0  0
    0.8265   -1.1145   -1.0965 H   0  0  0  0  0  0  0  0  0  0  0  0
   -0.3335    0.6956   -1.3532 C   0  0  0  0  0  0  0  0  0  0  0  0
   -0.7114    0.3889   -2.3328 H   0  0  0  0  0  0  0  0  0  0  0  0
   -1.1456    1.2035   -0.8252 H   0  0  0  0  0  0  0  0  0  0  0  0
    0.7541    1.7167   -1.5641 C   0  0  0  0  0  0  0  0  0  0  0  0
    1.8165    1.9849   -0.7182 N   0  0  0  0  0  0  0  0  0  0  0  0
    2.5570    2.8969   -1.2961 C   0  0  0  0  0  0  0  0  0  0  0  0
    3.4697    3.3132   -0.8792 H   0  0  0  0  0  0  0  0  0  0  0  0
    1.9986    3.2447   -2.5107 N   0  0  0  0  0  0  0  0  0  0  0  0
    2.3885    3.9229   -3.1626 H   0  0  0  0  0  0  0  0  0  0  0  0
    0.8561    2.4920   -2.6878 C   0  0  0  0  0  0  0  0  0  0  0  0
    0.1820    2.4927   -3.5387 H   0  0  0  0  0  0  0  0  0  0  0  0
    0.6196   -0.2729    0.8682 C   0  0  0  0  0  0  0  0  0  0  0  0
    1.7885   -0.5159    1.1426 O   0  0  0  0  0  0  0  0  0  0  0  0
   -0.2331    0.1410    1.8789 N   0  0  0  0  0  0  0  0  0  0  0  0
   -1.2180    0.2042    1.6525 H   0  0  0  0  0  0  0  0  0  0  0  0
    0.1861    0.2697    3.2681 C   0  0  0  0  0  0  0  0  0  0  0  0
    1.0166    0.9786    3.3525 H   0  0  0  0  0  0  0  0  0  0  0  0
   -0.6430    0.6349    3.8812 H   0  0  0  0  0  0  0  0  0  0  0  0
    0.5089   -0.7004    3.6607 H   0  0  0  0  0  0  0  0  0  0  0  0
  1  2  1  0  0  0  0
  2  3  1  0  0  0  0
  2  4  1  0  0  0  0
  2  5  1  0  0  0  0
  5  6  2  0  0  0  0
  5  7  1  0  0  0  0
  7  8  1  0  0  0  0
  7  9  1  0  0  0  0
  9 10  1  0  0  0  0
  9 11  1  0  0  0  0
  9 22  1  0  0  0  0
 11 12  1  0  0  0  0
 11 13  1  0  0  0  0
 11 14  1  0  0  0  0
 14 15  1  0  0  0  0
 14 20  2  0  0  0  0
 15 16  2  0  0  0  0
 16 17  1  0  0  0  0
 16 18  1  0  0  0  0
 18 19  1  0  0  0  0
 18 20  1  0  0  0  0
 20 21  1  0  0  0  0
 22 23  2  0  0  0  0
 22 24  1  0  0  0  0
 24 25  1  0  0  0  0
 24 26  1  0  0  0  0
 26 27  1  0  0  0  0
 26 28  1  0  0  0  0
 26 29  1  0  0  0  0
M  END
$$$$

  -OEChem-04042215593D

 29 29  0     1  0  0  0  0  0999 V2000
   -2.5477   -4.3304    0.4640 H   0  0  0  0  0  0  0  0  0  0  0  0
   -2.6425   -3.3291    0.0338 C   0  0  0  0  0  0  0  0  0  0  0  0
   -3.3829   -2.7684    0.6091 H   0  0  0  0  0  0  0  0  0  0  0  0
   -2.9854   -3.4230   -0.9993 H   0  0  0  0  0  0  0  0  0  0  0  0
   -1.3039   -2.6162    0.0750 C   0  0  0  0  0  0  0  0  0  0  0  0
   -0.3493   -3.1650    0.5908 O   0  0  0  0  0  0  0  0  0  0  0  0
   -1.1860   -1.3607   -0.4893 N   0  0  0  0  0  0  0  0  0  0  0  0
   -2.0035   -1.0021   -0.9701 H   0  0  0  0  0  0  0  0  0  0  0  0
    0.0642   -0.5748   -0.5459 C   0  0  1  0  0  0  0  0  0  0  0  0
    0.8317   -1.1285   -1.0981 H   0  0  0  0  0  0  0  0  0  0  0  0
   -0.3234    0.6935   -1.3427 C   0  0  0  0  0  0  0  0  0  0  0  0
   -0.7118    0.3919   -2.3197 H   0  0  0  0  0  0  0  0  0  0  0  0
   -1.1268    1.2065   -0.8060 H   0  0  0  0  0  0  0  0  0  0  0  0
    0.7697    1.7044   -1.5707 C   0  0  0  0  0  0  0  0  0  0  0  0
    1.9889    1.7771   -0.9206 N   0  0  0  0  0  0  0  0  0  0  0  0
    2.6514    2.7795   -1.4401 C   0  0  0  0  0  0  0  0  0  0  0  0
    3.6483    3.0888   -1.1391 H   0  0  0  0  0  0  0  0  0  0  0  0
    1.8890    3.3759   -2.4256 N   0  0  0  0  0  0  0  0  0  0  0  0
    2.1795    4.1720   -2.9900 H   0  0  0  0  0  0  0  0  0  0  0  0
    0.6938    2.6926   -2.5150 C   0  0  0  0  0  0  0  0  0  0  0  0
   -0.1349    2.8824   -3.1901 H   0  0  0  0  0  0  0  0  0  0  0  0
    0.6324   -0.2706    0.8674 C   0  0  0  0  0  0  0  0  0  0  0  0
    1.7971   -0.5194    1.1534 O   0  0  0  0  0  0  0  0  0  0  0  0
   -0.2220    0.1644    1.8683 N   0  0  0  0  0  0  0  0  0  0  0  0
   -1.2091    0.1882    1.6430 H   0  0  0  0  0  0  0  0  0  0  0  0
    0.1838    0.2638    3.2642 C   0  0  0  0  0  0  0  0  0  0  0  0
    1.0328    0.9478    3.3678 H   0  0  0  0  0  0  0  0  0  0  0  0
   -0.6420    0.6442    3.8726 H   0  0  0  0  0  0  0  0  0  0  0  0
    0.4747   -0.7200    3.6479 H   0  0  0  0  0  0  0  0  0  0  0  0
  1  2  1  0  0  0  0
  2  3  1  0  0  0  0
  2  4  1  0  0  0  0
  2  5  1  0  0  0  0
  5  6  2  0  0  0  0
  5  7  1  0  0  0  0
  7  8  1  0  0  0  0
  7  9  1  0  0  0  0
  9 10  1  0  0  0  0
  9 11  1  0  0  0  0
  9 22  1  0  0  0  0
 11 12  1  0  0  0  0
 11 13  1  0  0  0  0
 11 14  1  0  0  0  0
 14 15  1  0  0  0  0
 14 20  2  0  0  0  0
 15 16  2  0  0  0  0
 16 17  1  0  0  0  0
 16 18  1  0  0  0  0
 18 19  1  0  0  0  0
 18 20  1  0  0  0  0
 20 21  1  0  0  0  0
 22 23  2  0  0  0  0
 22 24  1  0  0  0  0
 24 25  1  0  0  0  0
 24 26  1  0  0  0  0
 26 27  1  0  0  0  0
 26 28  1  0  0  0  0
 26 29  1  0  0  0  0
M  END
$$$$

  -OEChem-04042215593D

 29 29  0     1  0  0  0  0  0999 V2000
   -2.5653   -4.3306    0.4939 H   0  0  0  0  0  0  0  0  0  0  0  0
   -2.6510   -3.3478    0.0213 C   0  0  0  0  0  0  0  0  0  0  0  0
   -3.4294   -2.7783    0.5340 H   0  0  0  0  0  0  0  0  0  0  0  0
   -2.9360   -3.4858   -1.0243 H   0  0  0  0  0  0  0  0  0  0  0  0
   -1.3269   -2.6117    0.1067 C   0  0  0  0  0  0  0  0  0  0  0  0
   -0.3903   -3.1313    0.6821 O   0  0  0  0  0  0  0  0  0  0  0  0
   -1.2047   -1.3663   -0.4791 N   0  0  0  0  0  0  0  0  0  0  0  0
   -1.9989   -1.0488   -1.0239 H   0  0  0  0  0  0  0  0  0  0  0  0
    0.0514   -0.5910   -0.5612 C   0  0  1  0  0  0  0  0  0  0  0  0
    0.8088   -1.1510   -1.1212 H   0  0  0  0  0  0  0  0  0  0  0  0
   -0.3396    0.6824   -1.3467 C   0  0  0  0  0  0  0  0  0  0  0  0
   -0.7323    0.3820   -2.3223 H   0  0  0  0  0  0  0  0  0  0  0  0
   -1.1377    1.2016   -0.8081 H   0  0  0  0  0  0  0  0  0  0  0  0
    0.7647    1.6759   -1.5909 C   0  0  0  0  0  0  0  0  0  0  0  0
    2.0841    1.5656   -1.1886 N   0  0  0  0  0  0  0  0  0  0  0  0
    2.7026    2.6520   -1.5775 C   0  0  0  0  0  0  0  0  0  0  0  0
    3.7539    2.8648   -1.4057 H   0  0  0  0  0  0  0  0  0  0  0  0
    1.8143    3.4794   -2.2372 N   0  0  0  0  0  0  0  0  0  0  0  0
    2.0438    4.3890   -2.6333 H   0  0  0  0  0  0  0  0  0  0  0  0
    0.5804    2.8624   -2.2472 C   0  0  0  0  0  0  0  0  0  0  0  0
   -0.3474    3.2304   -2.6738 H   0  0  0  0  0  0  0  0  0  0  0  0
    0.6383   -0.2677    0.8405 C   0  0  0  0  0  0  0  0  0  0  0  0
    1.8120   -0.4861    1.1130 O   0  0  0  0  0  0  0  0  0  0  0  0
   -0.2036    0.1901    1.8417 N   0  0  0  0  0  0  0  0  0  0  0  0
   -1.1954    0.1688    1.6367 H   0  0  0  0  0  0  0  0  0  0  0  0
    0.2225    0.3186    3.2291 C   0  0  0  0  0  0  0  0  0  0  0  0
    1.0771    0.9991    3.3058 H   0  0  0  0  0  0  0  0  0  0  0  0
   -0.5920    0.7188    3.8400 H   0  0  0  0  0  0  0  0  0  0  0  0
    0.5123   -0.6584    3.6303 H   0  0  0  0  0  0  0  0  0  0  0  0
  1  2  1  0  0  0  0
  2  3  1  0  0  0  0
  2  4  1  0  0  0  0
  2  5  1  0  0  0  0
  5  6  2  0  0  0  0
  5  7  1  0  0  0  0
  7  8  1  0  0  0  0
  7  9  1  0  0  0  0
  9 10  1  0  0  0  0
  9 11  1  0  0  0  0
  9 22  1  0  0  0  0
 11 12  1  0  0  0  0
 11 13  1  0  0  0  0
 11 14  1  0  0  0  0
 14 15  1  0  0  0  0
 14 20  2  0  0  0  0
 15 16  2  0  0  0  0
 16 17  1  0  0  0  0
 16 18  1  0  0  0  0
 18 19  1  0  0  0  0
 18 20  1  0  0  0  0
 20 21  1  0  0  0  0
 22 23  2  0  0  0  0
 22 24  1  0  0  0  0
 24 25  1  0  0  0  0
 24 26  1  0  0  0  0
 26 27  1  0  0  0  0
 26 28  1  0  0  0  0
 26 29  1  0  0  0  0
M  END
$$$$

  -OEChem-04042215593D

 29 29  0     1  0  0  0  0  0999 V2000
   -2.5254   -4.3606    0.5120 H   0  0  0  0  0  0  0  0  0  0  0  0
   -2.6316   -3.3863    0.0260 C   0  0  0  0  0  0  0  0  0  0  0  0
   -3.4327   -2.8324    0.5211 H   0  0  0  0  0  0  0  0  0  0  0  0
   -2.8984   -3.5452   -1.0216 H   0  0  0  0  0  0  0  0  0  0  0  0
   -1.3293   -2.6129    0.1203 C   0  0  0  0  0  0  0  0  0  0  0  0
   -0.3889   -3.0958    0.7215 O   0  0  0  0  0  0  0  0  0  0  0  0
   -1.2326   -1.3720   -0.4803 N   0  0  0  0  0  0  0  0  0  0  0  0
   -2.0198   -1.0959   -1.0570 H   0  0  0  0  0  0  0  0  0  0  0  0
    0.0151   -0.5871   -0.5910 C   0  0  1  0  0  0  0  0  0  0  0  0
    0.7652   -1.1442   -1.1637 H   0  0  0  0  0  0  0  0  0  0  0  0
   -0.3903    0.6901   -1.3603 C   0  0  0  0  0  0  0  0  0  0  0  0
   -0.7874    0.3928   -2.3349 H   0  0  0  0  0  0  0  0  0  0  0  0
   -1.1851    1.2084   -0.8162 H   0  0  0  0  0  0  0  0  0  0  0  0
    0.7257    1.6680   -1.6102 C   0  0  0  0  0  0  0  0  0  0  0  0
    2.0793    1.4034   -1.4886 N   0  0  0  0  0  0  0  0  0  0  0  0
    2.7143    2.5259   -1.7146 C   0  0  0  0  0  0  0  0  0  0  0  0
    3.7935    2.6462   -1.6854 H   0  0  0  0  0  0  0  0  0  0  0  0
    1.8032    3.5264   -1.9959 N   0  0  0  0  0  0  0  0  0  0  0  0
    2.0409    4.4967   -2.1924 H   0  0  0  0  0  0  0  0  0  0  0  0
    0.5357    2.9863   -1.9227 C   0  0  0  0  0  0  0  0  0  0  0  0
   -0.4154    3.4908   -2.0604 H   0  0  0  0  0  0  0  0  0  0  0  0
    0.6248   -0.2448    0.7967 C   0  0  0  0  0  0  0  0  0  0  0  0
    1.8157   -0.3958    1.0367 O   0  0  0  0  0  0  0  0  0  0  0  0
   -0.2045    0.2152    1.8072 N   0  0  0  0  0  0  0  0  0  0  0  0
   -1.2000    0.1392    1.6333 H   0  0  0  0  0  0  0  0  0  0  0  0
    0.2533    0.3897    3.1795 C   0  0  0  0  0  0  0  0  0  0  0  0
    1.0895    1.0956    3.2171 H   0  0  0  0  0  0  0  0  0  0  0  0
   -0.5565    0.7816    3.8020 H   0  0  0  0  0  0  0  0  0  0  0  0
    0.5821   -0.5682    3.5962 H   0  0  0  0  0  0  0  0  0  0  0  0
  1  2  1  0  0  0  0
  2  3  1  0  0  0  0
  2  4  1  0  0  0  0
  2  5  1  0  0  0  0
  5  6  2  0  0  0  0
  5  7  1  0  0  0  0
  7  8  1  0  0  0  0
  7  9  1  0  0  0  0
  9 10  1  0  0  0  0
  9 11  1  0  0  0  0
  9 22  1  0  0  0  0
 11 12  1  0  0  0  0
 11 13  1  0  0  0  0
 11 14  1  0  0  0  0
 14 15  1  0  0  0  0
 14 20  2  0  0  0  0
 15 16  2  0  0  0  0
 16 17  1  0  0  0  0
 16 18  1  0  0  0  0
 18 19  1  0  0  0  0
 18 20  1  0  0  0  0
 20 21  1  0  0  0  0
 22 23  2  0  0  0  0
 22 24  1  0  0  0  0
 24 25  1  0  0  0  0
 24 26  1  0  0  0  0
 26 27  1  0  0  0  0
 26 28  1  0  0  0  0
 26 29  1  0  0  0  0
M  END
$$$$

  -OEChem-04042215593D

 29 29  0     1  0  0  0  0  0999 V2000
   -2.4769   -4.3974    0.5000 H   0  0  0  0  0  0  0  0  0  0  0  0
   -2.6033   -3.4297    0.0060 C   0  0  0  0  0  0  0  0  0  0  0  0
   -3.4278   -2.8960    0.4845 H   0  0  0  0  0  0  0  0  0  0  0  0
   -2.8480   -3.6022   -1.0448 H   0  0  0  0  0  0  0  0  0  0  0  0
   -1.3261   -2.6177    0.1149 C   0  0  0  0  0  0  0  0  0  0  0  0
   -0.3798   -3.0684    0.7318 O   0  0  0  0  0  0  0  0  0  0  0  0
   -1.2606   -1.3736   -0.4825 N   0  0  0  0  0  0  0  0  0  0  0  0
   -2.0458   -1.1278   -1.0760 H   0  0  0  0  0  0  0  0  0  0  0  0
   -0.0278   -0.5686   -0.6086 C   0  0  1  0  0  0  0  0  0  0  0  0
    0.7203   -1.1134   -1.1959 H   0  0  0  0  0  0  0  0  0  0  0  0
   -0.4536    0.7111   -1.3595 C   0  0  0  0  0  0  0  0  0  0  0  0
   -0.8537    0.4242   -2.3358 H   0  0  0  0  0  0  0  0  0  0  0  0
   -1.2473    1.2205   -0.8051 H   0  0  0  0  0  0  0  0  0  0  0  0
    0.6710    1.6792   -1.5995 C   0  0  0  0  0  0  0  0  0  0  0  0
    1.9980    1.3201   -1.7720 N   0  0  0  0  0  0  0  0  0  0  0  0
    2.6856    2.4320   -1.8517 C   0  0  0  0  0  0  0  0  0  0  0  0
    3.7634    2.4882   -1.9754 H   0  0  0  0  0  0  0  0  0  0  0  0
    1.8332    3.5163   -1.7579 N   0  0  0  0  0  0  0  0  0  0  0  0
    2.1241    4.4918   -1.7692 H   0  0  0  0  0  0  0  0  0  0  0  0
    0.5492    3.0412   -1.5877 C   0  0  0  0  0  0  0  0  0  0  0  0
   -0.3630    3.6115   -1.4432 H   0  0  0  0  0  0  0  0  0  0  0  0
    0.6042   -0.2171    0.7665 C   0  0  0  0  0  0  0  0  0  0  0  0
    1.8123   -0.2704    0.9571 O   0  0  0  0  0  0  0  0  0  0  0  0
   -0.2120    0.2276    1.7940 N   0  0  0  0  0  0  0  0  0  0  0  0
   -1.2063    0.0816    1.6621 H   0  0  0  0  0  0  0  0  0  0  0  0
    0.2843    0.4647    3.1434 C   0  0  0  0  0  0  0  0  0  0  0  0
    1.0782    1.2190    3.1325 H   0  0  0  0  0  0  0  0  0  0  0  0
   -0.5243    0.8257    3.7858 H   0  0  0  0  0  0  0  0  0  0  0  0
    0.6837   -0.4607    3.5718 H   0  0  0  0  0  0  0  0  0  0  0  0
  1  2  1  0  0  0  0
  2  3  1  0  0  0  0
  2  4  1  0  0  0  0
  2  5  1  0  0  0  0
  5  6  2  0  0  0  0
  5  7  1  0  0  0  0
  7  8  1  0  0  0  0
  7  9  1  0  0  0  0
  9 10  1  0  0  0  0
  9 11  1  0  0  0  0
  9 22  1  0  0  0  0
 11 12  1  0  0  0  0
 11 13  1  0  0  0  0
 11 14  1  0  0  0  0
 14 15  1  0  0  0  0
 14 20  2  0  0  0  0
 15 16  2  0  0  0  0
 16 17  1  0  0  0  0
 16 18  1  0  0  0  0
 18 19  1  0  0  0  0
 18 20  1  0  0  0  0
 20 21  1  0  0  0  0
 22 23  2  0  0  0  0
 22 24  1  0  0  0  0
 24 25  1  0  0  0  0
 24 26  1  0  0  0  0
 26 27  1  0  0  0  0
 26 28  1  0  0  0  0
 26 29  1  0  0  0  0
M  END
$$$$

  -OEChem-04042215593D

 29 29  0     1  0  0  0  0  0999 V2000
   -2.4073   -4.4433    0.4503 H   0  0  0  0  0  0  0  0  0  0  0  0
   -2.5681   -3.4680   -0.0181 C   0  0  0  0  0  0  0  0  0  0  0  0
   -3.4066   -2.9737    0.4779 H   0  0  0  0  0  0  0  0  0  0  0  0
   -2.8140   -3.6225   -1.0714 H   0  0  0  0  0  0  0  0  0  0  0  0
   -1.3167   -2.6183    0.1043 C   0  0  0  0  0  0  0  0  0  0  0  0
   -0.3600   -3.0447    0.7229 O   0  0  0  0  0  0  0  0  0  0  0  0
   -1.2844   -1.3671   -0.4810 N   0  0  0  0  0  0  0  0  0  0  0  0
   -2.0720   -1.1409   -1.0791 H   0  0  0  0  0  0  0  0  0  0  0  0
   -0.0682   -0.5389   -0.6120 C   0  0  1  0  0  0  0  0  0  0  0  0
    0.6805   -1.0707   -1.2106 H   0  0  0  0  0  0  0  0  0  0  0  0
   -0.5059    0.7438   -1.3471 C   0  0  0  0  0  0  0  0  0  0  0  0
   -0.9096    0.4732   -2.3266 H   0  0  0  0  0  0  0  0  0  0  0  0
   -1.2953    1.2467   -0.7810 H   0  0  0  0  0  0  0  0  0  0  0  0
    0.6303    1.7010   -1.5658 C   0  0  0  0  0  0  0  0  0  0  0  0
    1.8801    1.3165   -2.0257 N   0  0  0  0  0  0  0  0  0  0  0  0
    2.6331    2.3885   -2.0010 C   0  0  0  0  0  0  0  0  0  0  0  0
    3.6803    2.4178   -2.2884 H   0  0  0  0  0  0  0  0  0  0  0  0
    1.8948    3.4724   -1.5625 N   0  0  0  0  0  0  0  0  0  0  0  0
    2.2602    4.4129   -1.4277 H   0  0  0  0  0  0  0  0  0  0  0  0
    0.6174    3.0371   -1.2773 C   0  0  0  0  0  0  0  0  0  0  0  0
   -0.2136    3.6094   -0.8772 H   0  0  0  0  0  0  0  0  0  0  0  0
    0.5790   -0.1864    0.7548 C   0  0  0  0  0  0  0  0  0  0  0  0
    1.7939   -0.1585    0.9029 O   0  0  0  0  0  0  0  0  0  0  0  0
   -0.2284    0.2349    1.7988 N   0  0  0  0  0  0  0  0  0  0  0  0
   -1.2179    0.0386    1.6958 H   0  0  0  0  0  0  0  0  0  0  0  0
    0.2924    0.5066    3.1326 C   0  0  0  0  0  0  0  0  0  0  0  0
    1.0539    1.2928    3.0945 H   0  0  0  0  0  0  0  0  0  0  0  0
   -0.5139    0.8408    3.7924 H   0  0  0  0  0  0  0  0  0  0  0  0
    0.7403   -0.3973    3.5591 H   0  0  0  0  0  0  0  0  0  0  0  0
  1  2  1  0  0  0  0
  2  3  1  0  0  0  0
  2  4  1  0  0  0  0
  2  5  1  0  0  0  0
  5  6  2  0  0  0  0
  5  7  1  0  0  0  0
  7  8  1  0  0  0  0
  7  9  1  0  0  0  0
  9 10  1  0  0  0  0
  9 11  1  0  0  0  0
  9 22  1  0  0  0  0
 11 12  1  0  0  0  0
 11 13  1  0  0  0  0
 11 14  1  0  0  0  0
 14 15  1  0  0  0  0
 14 20  2  0  0  0  0
 15 16  2  0  0  0  0
 16 17  1  0  0  0  0
 16 18  1  0  0  0  0
 18 19  1  0  0  0  0
 18 20  1  0  0  0  0
 20 21  1  0  0  0  0
 22 23  2  0  0  0  0
 22 24  1  0  0  0  0
 24 25  1  0  0  0  0
 24 26  1  0  0  0  0
 26 27  1  0  0  0  0
 26 28  1  0  0  0  0
 26 29  1  0  0  0  0
M  END
$$$$

  -OEChem-04042215593D

 29 29  0     1  0  0  0  0  0999 V2000
   -2.3743   -4.4661    0.4071 H   0  0  0  0  0  0  0  0  0  0  0  0
   -2.5494   -3.4875   -0.0494 C   0  0  0  0  0  0  0  0  0  0  0  0
   -3.4019   -3.0161    0.4454 H   0  0  0  0  0  0  0  0  0  0  0  0
   -2.7824   -3.6320   -1.1071 H   0  0  0  0  0  0  0  0  0  0  0  0
   -1.3158   -2.6159    0.0962 C   0  0  0  0  0  0  0  0  0  0  0  0
   -0.3599   -3.0279    0.7260 O   0  0  0  0  0  0  0  0  0  0  0  0
   -1.2999   -1.3584   -0.4759 N   0  0  0  0  0  0  0  0  0  0  0  0
   -2.0834   -1.1431   -1.0838 H   0  0  0  0  0  0  0  0  0  0  0  0
   -0.0917   -0.5184   -0.6015 C   0  0  1  0  0  0  0  0  0  0  0  0
    0.6581   -1.0414   -1.2065 H   0  0  0  0  0  0  0  0  0  0  0  0
   -0.5315    0.7662   -1.3290 C   0  0  0  0  0  0  0  0  0  0  0  0
   -0.9374    0.5103   -2.3117 H   0  0  0  0  0  0  0  0  0  0  0  0
   -1.3176    1.2657   -0.7554 H   0  0  0  0  0  0  0  0  0  0  0  0
    0.6134    1.7153   -1.5274 C   0  0  0  0  0  0  0  0  0  0  0  0
    1.7500    1.3869   -2.2507 N   0  0  0  0  0  0  0  0  0  0  0  0
    2.5593    2.4134   -2.1499 C   0  0  0  0  0  0  0  0  0  0  0  0
    3.5503    2.4672   -2.5914 H   0  0  0  0  0  0  0  0  0  0  0  0
    1.9626    3.4161   -1.4076 N   0  0  0  0  0  0  0  0  0  0  0  0
    2.4019    4.2997   -1.1579 H   0  0  0  0  0  0  0  0  0  0  0  0
    0.7197    2.9740   -1.0059 C   0  0  0  0  0  0  0  0  0  0  0  0
   -0.0060    3.4840   -0.3803 H   0  0  0  0  0  0  0  0  0  0  0  0
    0.5632   -0.1711    0.7618 C   0  0  0  0  0  0  0  0  0  0  0  0
    1.7792   -0.0933    0.8820 O   0  0  0  0  0  0  0  0  0  0  0  0
   -0.2380    0.2340    1.8164 N   0  0  0  0  0  0  0  0  0  0  0  0
   -1.2221    0.0034    1.7323 H   0  0  0  0  0  0  0  0  0  0  0  0
    0.2972    0.5221    3.1409 C   0  0  0  0  0  0  0  0  0  0  0  0
    1.0334    1.3311    3.0893 H   0  0  0  0  0  0  0  0  0  0  0  0
   -0.5071    0.8315    3.8147 H   0  0  0  0  0  0  0  0  0  0  0  0
    0.7798   -0.3674    3.5595 H   0  0  0  0  0  0  0  0  0  0  0  0
  1  2  1  0  0  0  0
  2  3  1  0  0  0  0
  2  4  1  0  0  0  0
  2  5  1  0  0  0  0
  5  6  2  0  0  0  0
  5  7  1  0  0  0  0
  7  8  1  0  0  0  0
  7  9  1  0  0  0  0
  9 10  1  0  0  0  0
  9 11  1  0  0  0  0
  9 22  1  0  0  0  0
 11 12  1  0  0  0  0
 11 13  1  0  0  0  0
 11 14  1  0  0  0  0
 14 15  1  0  0  0  0
 14 20  2  0  0  0  0
 15 16  2  0  0  0  0
 16 17  1  0  0  0  0
 16 18  1  0  0  0  0
 18 19  1  0  0  0  0
 18 20  1  0  0  0  0
 20 21  1  0  0  0  0
 22 23  2  0  0  0  0
 22 24  1  0  0  0  0
 24 25  1  0  0  0  0
 24 26  1  0  0  0  0
 26 27  1  0  0  0  0
 26 28  1  0  0  0  0
 26 29  1  0  0  0  0
M  END
$$$$

  -OEChem-04042215593D

 29 29  0     1  0  0  0  0  0999 V2000
   -2.3820   -4.4622    0.3977 H   0  0  0  0  0  0  0  0  0  0  0  0
   -2.5507   -3.4858   -0.0657 C   0  0  0  0  0  0  0  0  0  0  0  0
   -3.4073   -3.0106    0.4181 H   0  0  0  0  0  0  0  0  0  0  0  0
   -2.7731   -3.6347   -1.1252 H   0  0  0  0  0  0  0  0  0  0  0  0
   -1.3176   -2.6154    0.0881 C   0  0  0  0  0  0  0  0  0  0  0  0
   -0.3624   -3.0297    0.7178 O   0  0  0  0  0  0  0  0  0  0  0  0
   -1.3018   -1.3531   -0.4726 N   0  0  0  0  0  0  0  0  0  0  0  0
   -2.0834   -1.1333   -1.0816 H   0  0  0  0  0  0  0  0  0  0  0  0
   -0.0943   -0.5116   -0.5863 C   0  0  1  0  0  0  0  0  0  0  0  0
    0.6572   -1.0325   -1.1914 H   0  0  0  0  0  0  0  0  0  0  0  0
   -0.5261    0.7747   -1.3139 C   0  0  0  0  0  0  0  0  0  0  0  0
   -0.9308    0.5280   -2.2994 H   0  0  0  0  0  0  0  0  0  0  0  0
   -1.3116    1.2744   -0.7399 H   0  0  0  0  0  0  0  0  0  0  0  0
    0.6234    1.7202   -1.4960 C   0  0  0  0  0  0  0  0  0  0  0  0
    1.6203    1.5194   -2.4387 N   0  0  0  0  0  0  0  0  0  0  0  0
    2.4703    2.5066   -2.2869 C   0  0  0  0  0  0  0  0  0  0  0  0
    3.3824    2.6328   -2.8630 H   0  0  0  0  0  0  0  0  0  0  0  0
    2.0316    3.3639   -1.2946 N   0  0  0  0  0  0  0  0  0  0  0  0
    2.5356    4.1838   -0.9632 H   0  0  0  0  0  0  0  0  0  0  0  0
    0.8493    2.8674   -0.7885 C   0  0  0  0  0  0  0  0  0  0  0  0
    0.2431    3.2643    0.0197 H   0  0  0  0  0  0  0  0  0  0  0  0
    0.5580   -0.1746    0.7797 C   0  0  0  0  0  0  0  0  0  0  0  0
    1.7738   -0.0822    0.8923 O   0  0  0  0  0  0  0  0  0  0  0  0
   -0.2431    0.2217    1.8373 N   0  0  0  0  0  0  0  0  0  0  0  0
   -1.2254   -0.0183    1.7557 H   0  0  0  0  0  0  0  0  0  0  0  0
    0.2948    0.5036    3.1619 C   0  0  0  0  0  0  0  0  0  0  0  0
    1.0284    1.3151    3.1134 H   0  0  0  0  0  0  0  0  0  0  0  0
   -0.5087    0.8065    3.8398 H   0  0  0  0  0  0  0  0  0  0  0  0
    0.7813   -0.3870    3.5734 H   0  0  0  0  0  0  0  0  0  0  0  0
  1  2  1  0  0  0  0
  2  3  1  0  0  0  0
  2  4  1  0  0  0  0
  2  5  1  0  0  0  0
  5  6  2  0  0  0  0
  5  7  1  0  0  0  0
  7  8  1  0  0  0  0
  7  9  1  0  0  0  0
  9 10  1  0  0  0  0
  9 11  1  0  0  0  0
  9 22  1  0  0  0  0
 11 12  1  0  0  0  0
 11 13  1  0  0  0  0
 11 14  1  0  0  0  0
 14 15  1  0  0  0  0
 14 20  2  0  0  0  0
 15 16  2  0  0  0  0
 16 17  1  0  0  0  0
 16 18  1  0  0  0  0
 18 19  1  0  0  0  0
 18 20  1  0  0  0  0
 20 21  1  0  0  0  0
 22 23  2  0  0  0  0
 22 24  1  0  0  0  0
 24 25  1  0  0  0  0
 24 26  1  0  0  0  0
 26 27  1  0  0  0  0
 26 28  1  0  0  0  0
 26 29  1  0  0  0  0
M  END
$$$$

  -OEChem-04042215593D

 29 29  0     1  0  0  0  0  0999 V2000
   -2.4063   -4.4597    0.3689 H   0  0  0  0  0  0  0  0  0  0  0  0
   -2.5686   -3.4745   -0.0779 C   0  0  0  0  0  0  0  0  0  0  0  0
   -3.4204   -3.0006    0.4160 H   0  0  0  0  0  0  0  0  0  0  0  0
   -2.7955   -3.6046   -1.1388 H   0  0  0  0  0  0  0  0  0  0  0  0
   -1.3279   -2.6165    0.0870 C   0  0  0  0  0  0  0  0  0  0  0  0
   -0.3792   -3.0443    0.7175 O   0  0  0  0  0  0  0  0  0  0  0  0
   -1.2960   -1.3512   -0.4663 N   0  0  0  0  0  0  0  0  0  0  0  0
   -2.0721   -1.1187   -1.0778 H   0  0  0  0  0  0  0  0  0  0  0  0
   -0.0804   -0.5195   -0.5646 C   0  0  1  0  0  0  0  0  0  0  0  0
    0.6722   -1.0456   -1.1633 H   0  0  0  0  0  0  0  0  0  0  0  0
   -0.4956    0.7682   -1.2996 C   0  0  0  0  0  0  0  0  0  0  0  0
   -0.8982    0.5228   -2.2867 H   0  0  0  0  0  0  0  0  0  0  0  0
   -1.2822    1.2727   -0.7311 H   0  0  0  0  0  0  0  0  0  0  0  0
    0.6529    1.7177   -1.4765 C   0  0  0  0  0  0  0  0  0  0  0  0
    1.4835    1.6907   -2.5874 N   0  0  0  0  0  0  0  0  0  0  0  0
    2.3659    2.6446   -2.4075 C   0  0  0  0  0  0  0  0  0  0  0  0
    3.1768    2.8758   -3.0922 H   0  0  0  0  0  0  0  0  0  0  0  0
    2.1075    3.3149   -1.2262 N   0  0  0  0  0  0  0  0  0  0  0  0
    2.6718    4.0713   -0.8444 H   0  0  0  0  0  0  0  0  0  0  0  0
    1.0082    2.7326   -0.6328 C   0  0  0  0  0  0  0  0  0  0  0  0
    0.5399    2.9861    0.3134 H   0  0  0  0  0  0  0  0  0  0  0  0
    0.5623   -0.1958    0.8087 C   0  0  0  0  0  0  0  0  0  0  0  0
    1.7780   -0.1123    0.9283 O   0  0  0  0  0  0  0  0  0  0  0  0
   -0.2426    0.2018    1.8628 N   0  0  0  0  0  0  0  0  0  0  0  0
   -1.2267   -0.0282    1.7722 H   0  0  0  0  0  0  0  0  0  0  0  0
    0.2871    0.4696    3.1938 C   0  0  0  0  0  0  0  0  0  0  0  0
    1.0317    1.2717    3.1569 H   0  0  0  0  0  0  0  0  0  0  0  0
   -0.5186    0.7792    3.8660 H   0  0  0  0  0  0  0  0  0  0  0  0
    0.7582   -0.4295    3.6051 H   0  0  0  0  0  0  0  0  0  0  0  0
  1  2  1  0  0  0  0
  2  3  1  0  0  0  0
  2  4  1  0  0  0  0
  2  5  1  0  0  0  0
  5  6  2  0  0  0  0
  5  7  1  0  0  0  0
  7  8  1  0  0  0  0
  7  9  1  0  0  0  0
  9 10  1  0  0  0  0
  9 11  1  0  0  0  0
  9 22  1  0  0  0  0
 11 12  1  0  0  0  0
 11 13  1  0  0  0  0
 11 14  1  0  0  0  0
 14 15  1  0  0  0  0
 14 20  2  0  0  0  0
 15 16  2  0  0  0  0
 16 17  1  0  0  0  0
 16 18  1  0  0  0  0
 18 19  1  0  0  0  0
 18 20  1  0  0  0  0
 20 21  1  0  0  0  0
 22 23  2  0  0  0  0
 22 24  1  0  0  0  0
 24 25  1  0  0  0  0
 24 26  1  0  0  0  0
 26 27  1  0  0  0  0
 26 28  1  0  0  0  0
 26 29  1  0  0  0  0
M  END
$$$$

  -OEChem-04042215593D

 29 29  0     1  0  0  0  0  0999 V2000
   -2.4423   -4.4447    0.3657 H   0  0  0  0  0  0  0  0  0  0  0  0
   -2.5905   -3.4567   -0.0797 C   0  0  0  0  0  0  0  0  0  0  0  0
   -3.4345   -2.9710    0.4157 H   0  0  0  0  0  0  0  0  0  0  0  0
   -2.8208   -3.5824   -1.1404 H   0  0  0  0  0  0  0  0  0  0  0  0
   -1.3369   -2.6177    0.0854 C   0  0  0  0  0  0  0  0  0  0  0  0
   -0.3924   -3.0637    0.7096 O   0  0  0  0  0  0  0  0  0  0  0  0
   -1.2850   -1.3502   -0.4619 N   0  0  0  0  0  0  0  0  0  0  0  0
   -2.0580   -1.0996   -1.0706 H   0  0  0  0  0  0  0  0  0  0  0  0
   -0.0589   -0.5319   -0.5443 C   0  0  1  0  0  0  0  0  0  0  0  0
    0.6948   -1.0667   -1.1339 H   0  0  0  0  0  0  0  0  0  0  0  0
   -0.4543    0.7578   -1.2902 C   0  0  0  0  0  0  0  0  0  0  0  0
   -0.8503    0.5057   -2.2783 H   0  0  0  0  0  0  0  0  0  0  0  0
   -1.2457    1.2681   -0.7336 H   0  0  0  0  0  0  0  0  0  0  0  0
    0.6870    1.7187   -1.4700 C   0  0  0  0  0  0  0  0  0  0  0  0
    1.3246    1.8931   -2.6908 N   0  0  0  0  0  0  0  0  0  0  0  0
    2.2445    2.8086   -2.4995 C   0  0  0  0  0  0  0  0  0  0  0  0
    2.9354    3.1614   -3.2600 H   0  0  0  0  0  0  0  0  0  0  0  0
    2.1993    3.2611   -1.1944 N   0  0  0  0  0  0  0  0  0  0  0  0
    2.8326    3.9457   -0.7862 H   0  0  0  0  0  0  0  0  0  0  0  0
    1.1984    2.5787   -0.5379 C   0  0  0  0  0  0  0  0  0  0  0  0
    0.8952    2.6669    0.5013 H   0  0  0  0  0  0  0  0  0  0  0  0
    0.5679   -0.2254    0.8396 C   0  0  0  0  0  0  0  0  0  0  0  0
    1.7832   -0.1665    0.9769 O   0  0  0  0  0  0  0  0  0  0  0  0
   -0.2445    0.1749    1.8868 N   0  0  0  0  0  0  0  0  0  0  0  0
   -1.2326   -0.0287    1.7782 H   0  0  0  0  0  0  0  0  0  0  0  0
    0.2704    0.4181    3.2283 C   0  0  0  0  0  0  0  0  0  0  0  0
    1.0323    1.2044    3.2111 H   0  0  0  0  0  0  0  0  0  0  0  0
   -0.5386    0.7381    3.8916 H   0  0  0  0  0  0  0  0  0  0  0  0
    0.7159   -0.4950    3.6370 H   0  0  0  0  0  0  0  0  0  0  0  0
  1  2  1  0  0  0  0
  2  3  1  0  0  0  0
  2  4  1  0  0  0  0
  2  5  1  0  0  0  0
  5  6  2  0  0  0  0
  5  7  1  0  0  0  0
  7  8  1  0  0  0  0
  7  9  1  0  0  0  0
  9 10  1  0  0  0  0
  9 11  1  0  0  0  0
  9 22  1  0  0  0  0
 11 12  1  0  0  0  0
 11 13  1  0  0  0  0
 11 14  1  0  0  0  0
 14 15  1  0  0  0  0
 14 20  2  0  0  0  0
 15 16  2  0  0  0  0
 16 17  1  0  0  0  0
 16 18  1  0  0  0  0
 18 19  1  0  0  0  0
 18 20  1  0  0  0  0
 20 21  1  0  0  0  0
 22 23  2  0  0  0  0
 22 24  1  0  0  0  0
 24 25  1  0  0  0  0
 24 26  1  0  0  0  0
 26 27  1  0  0  0  0
 26 28  1  0  0  0  0
 26 29  1  0  0  0  0
M  END
$$$$

  -OEChem-04042215593D

 29 29  0     1  0  0  0  0  0999 V2000
   -2.4955   -4.4203    0.3539 H   0  0  0  0  0  0  0  0  0  0  0  0
   -2.6182   -3.4263   -0.0861 C   0  0  0  0  0  0  0  0  0  0  0  0
   -3.4499   -2.9215    0.4111 H   0  0  0  0  0  0  0  0  0  0  0  0
   -2.8500   -3.5399   -1.1477 H   0  0  0  0  0  0  0  0  0  0  0  0
   -1.3439   -2.6203    0.0838 C   0  0  0  0  0  0  0  0  0  0  0  0
   -0.4073   -3.0955    0.6985 O   0  0  0  0  0  0  0  0  0  0  0  0
   -1.2619   -1.3507   -0.4550 N   0  0  0  0  0  0  0  0  0  0  0  0
   -2.0336   -1.0708   -1.0526 H   0  0  0  0  0  0  0  0  0  0  0  0
   -0.0231   -0.5500   -0.5165 C   0  0  1  0  0  0  0  0  0  0  0  0
    0.7334   -1.0930   -1.0940 H   0  0  0  0  0  0  0  0  0  0  0  0
   -0.3981    0.7413   -1.2743 C   0  0  0  0  0  0  0  0  0  0  0  0
   -0.7824    0.4738   -2.2632 H   0  0  0  0  0  0  0  0  0  0  0  0
   -1.2000    1.2539   -0.7354 H   0  0  0  0  0  0  0  0  0  0  0  0
    0.7257    1.7254   -1.4655 C   0  0  0  0  0  0  0  0  0  0  0  0
    1.1377    2.1084   -2.7359 N   0  0  0  0  0  0  0  0  0  0  0  0
    2.0995    2.9848   -2.5703 C   0  0  0  0  0  0  0  0  0  0  0  0
    2.6456    3.4673   -3.3758 H   0  0  0  0  0  0  0  0  0  0  0  0
    2.3085    3.2068   -1.2235 N   0  0  0  0  0  0  0  0  0  0  0  0
    3.0183    3.8219   -0.8304 H   0  0  0  0  0  0  0  0  0  0  0  0
    1.4268    2.4185   -0.5166 C   0  0  0  0  0  0  0  0  0  0  0  0
    1.3215    2.3397    0.5620 H   0  0  0  0  0  0  0  0  0  0  0  0
    0.5775   -0.2675    0.8832 C   0  0  0  0  0  0  0  0  0  0  0  0
    1.7902   -0.2412    1.0504 O   0  0  0  0  0  0  0  0  0  0  0  0
   -0.2508    0.1346    1.9171 N   0  0  0  0  0  0  0  0  0  0  0  0
   -1.2408   -0.0420    1.7810 H   0  0  0  0  0  0  0  0  0  0  0  0
    0.2347    0.3519    3.2742 C   0  0  0  0  0  0  0  0  0  0  0  0
    1.0152    1.1199    3.2854 H   0  0  0  0  0  0  0  0  0  0  0  0
   -0.5838    0.6854    3.9191 H   0  0  0  0  0  0  0  0  0  0  0  0
    0.6469   -0.5756    3.6855 H   0  0  0  0  0  0  0  0  0  0  0  0
  1  2  1  0  0  0  0
  2  3  1  0  0  0  0
  2  4  1  0  0  0  0
  2  5  1  0  0  0  0
  5  6  2  0  0  0  0
  5  7  1  0  0  0  0
  7  8  1  0  0  0  0
  7  9  1  0  0  0  0
  9 10  1  0  0  0  0
  9 11  1  0  0  0  0
  9 22  1  0  0  0  0
 11 12  1  0  0  0  0
 11 13  1  0  0  0  0
 11 14  1  0  0  0  0
 14 15  1  0  0  0  0
 14 20  2  0  0  0  0
 15 16  2  0  0  0  0
 16 17  1  0  0  0  0
 16 18  1  0  0  0  0
 18 19  1  0  0  0  0
 18 20  1  0  0  0  0
 20 21  1  0  0  0  0
 22 23  2  0  0  0  0
 22 24  1  0  0  0  0
 24 25  1  0  0  0  0
 24 26  1  0  0  0  0
 26 27  1  0  0  0  0
 26 28  1  0  0  0  0
 26 29  1  0  0  0  0
M  END
$$$$

  -OEChem-04042215593D

 29 29  0     1  0  0  0  0  0999 V2000
   -2.5471   -4.3911    0.3293 H   0  0  0  0  0  0  0  0  0  0  0  0
   -2.6453   -3.3887   -0.0968 C   0  0  0  0  0  0  0  0  0  0  0  0
   -3.4662   -2.8718    0.4059 H   0  0  0  0  0  0  0  0  0  0  0  0
   -2.8780   -3.4816   -1.1602 H   0  0  0  0  0  0  0  0  0  0  0  0
   -1.3528   -2.6159    0.0870 C   0  0  0  0  0  0  0  0  0  0  0  0
   -0.4331   -3.1164    0.7068 O   0  0  0  0  0  0  0  0  0  0  0  0
   -1.2356   -1.3478   -0.4480 N   0  0  0  0  0  0  0  0  0  0  0  0
   -1.9975   -1.0455   -1.0472 H   0  0  0  0  0  0  0  0  0  0  0  0
    0.0172   -0.5673   -0.4838 C   0  0  1  0  0  0  0  0  0  0  0  0
    0.7788   -1.1198   -1.0457 H   0  0  0  0  0  0  0  0  0  0  0  0
   -0.3391    0.7232   -1.2548 C   0  0  0  0  0  0  0  0  0  0  0  0
   -0.7012    0.4343   -2.2463 H   0  0  0  0  0  0  0  0  0  0  0  0
   -1.1586    1.2348   -0.7419 H   0  0  0  0  0  0  0  0  0  0  0  0
    0.7626    1.7341   -1.4591 C   0  0  0  0  0  0  0  0  0  0  0  0
    0.9352    2.3226   -2.7069 N   0  0  0  0  0  0  0  0  0  0  0  0
    1.9421    3.1559   -2.5999 C   0  0  0  0  0  0  0  0  0  0  0  0
    2.3327    3.7664   -3.4090 H   0  0  0  0  0  0  0  0  0  0  0  0
    2.4253    3.1432   -1.3076 N   0  0  0  0  0  0  0  0  0  0  0  0
    3.2161    3.6872   -0.9679 H   0  0  0  0  0  0  0  0  0  0  0  0
    1.6739    2.2496   -0.5761 C   0  0  0  0  0  0  0  0  0  0  0  0
    1.7882    2.0059    0.4758 H   0  0  0  0  0  0  0  0  0  0  0  0
    0.5855   -0.3005    0.9315 C   0  0  0  0  0  0  0  0  0  0  0  0
    1.7915   -0.3471    1.1398 O   0  0  0  0  0  0  0  0  0  0  0  0
   -0.2581    0.1119    1.9484 N   0  0  0  0  0  0  0  0  0  0  0  0
   -1.2509   -0.0053    1.7747 H   0  0  0  0  0  0  0  0  0  0  0  0
    0.1916    0.2747    3.3251 C   0  0  0  0  0  0  0  0  0  0  0  0
    0.9977    1.0137    3.3815 H   0  0  0  0  0  0  0  0  0  0  0  0
   -0.6344    0.6189    3.9547 H   0  0  0  0  0  0  0  0  0  0  0  0
    0.5581   -0.6783    3.7216 H   0  0  0  0  0  0  0  0  0  0  0  0
  1  2  1  0  0  0  0
  2  3  1  0  0  0  0
  2  4  1  0  0  0  0
  2  5  1  0  0  0  0
  5  6  2  0  0  0  0
  5  7  1  0  0  0  0
  7  8  1  0  0  0  0
  7  9  1  0  0  0  0
  9 10  1  0  0  0  0
  9 11  1  0  0  0  0
  9 22  1  0  0  0  0
 11 12  1  0  0  0  0
 11 13  1  0  0  0  0
 11 14  1  0  0  0  0
 14 15  1  0  0  0  0
 14 20  2  0  0  0  0
 15 16  2  0  0  0  0
 16 17  1  0  0  0  0
 16 18  1  0  0  0  0
 18 19  1  0  0  0  0
 18 20  1  0  0  0  0
 20 21  1  0  0  0  0
 22 23  2  0  0  0  0
 22 24  1  0  0  0  0
 24 25  1  0  0  0  0
 24 26  1  0  0  0  0
 26 27  1  0  0  0  0
 26 28  1  0  0  0  0
 26 29  1  0  0  0  0
M  END
$$$$

  -OEChem-04042215593D

 29 29  0     1  0  0  0  0  0999 V2000
   -2.6017   -4.3524    0.3501 H   0  0  0  0  0  0  0  0  0  0  0  0
   -2.6700   -3.3539   -0.0915 C   0  0  0  0  0  0  0  0  0  0  0  0
   -3.4756   -2.8056    0.4025 H   0  0  0  0  0  0  0  0  0  0  0  0
   -2.9037   -3.4560   -1.1540 H   0  0  0  0  0  0  0  0  0  0  0  0
   -1.3558   -2.6160    0.0826 C   0  0  0  0  0  0  0  0  0  0  0  0
   -0.4424   -3.1457    0.6873 O   0  0  0  0  0  0  0  0  0  0  0  0
   -1.2097   -1.3498   -0.4504 N   0  0  0  0  0  0  0  0  0  0  0  0
   -1.9719   -1.0191   -1.0342 H   0  0  0  0  0  0  0  0  0  0  0  0
    0.0541   -0.5860   -0.4667 C   0  0  1  0  0  0  0  0  0  0  0  0
    0.8192   -1.1413   -1.0207 H   0  0  0  0  0  0  0  0  0  0  0  0
   -0.2900    0.7123   -1.2311 C   0  0  0  0  0  0  0  0  0  0  0  0
   -0.6456    0.4241   -2.2252 H   0  0  0  0  0  0  0  0  0  0  0  0
   -1.1146    1.2200   -0.7225 H   0  0  0  0  0  0  0  0  0  0  0  0
    0.7964    1.7400   -1.4403 C   0  0  0  0  0  0  0  0  0  0  0  0
    0.7402    2.5417   -2.5752 N   0  0  0  0  0  0  0  0  0  0  0  0
    1.7937    3.3214   -2.5494 C   0  0  0  0  0  0  0  0  0  0  0  0
    2.0378    4.0631   -3.3044 H   0  0  0  0  0  0  0  0  0  0  0  0
    2.5428    3.0555   -1.4225 N   0  0  0  0  0  0  0  0  0  0  0  0
    3.4187    3.5120   -1.1748 H   0  0  0  0  0  0  0  0  0  0  0  0
    1.9182    2.0502   -0.7169 C   0  0  0  0  0  0  0  0  0  0  0  0
    2.2605    1.6065    0.2115 H   0  0  0  0  0  0  0  0  0  0  0  0
    0.5927   -0.3319    0.9632 C   0  0  0  0  0  0  0  0  0  0  0  0
    1.7847   -0.4565    1.2148 O   0  0  0  0  0  0  0  0  0  0  0  0
   -0.2674    0.0896    1.9623 N   0  0  0  0  0  0  0  0  0  0  0  0
   -1.2582    0.0359    1.7511 H   0  0  0  0  0  0  0  0  0  0  0  0
    0.1435    0.2255    3.3538 C   0  0  0  0  0  0  0  0  0  0  0  0
    0.9700    0.9383    3.4421 H   0  0  0  0  0  0  0  0  0  0  0  0
   -0.6910    0.5900    3.9601 H   0  0  0  0  0  0  0  0  0  0  0  0
    0.4674   -0.7417    3.7526 H   0  0  0  0  0  0  0  0  0  0  0  0
  1  2  1  0  0  0  0
  2  3  1  0  0  0  0
  2  4  1  0  0  0  0
  2  5  1  0  0  0  0
  5  6  2  0  0  0  0
  5  7  1  0  0  0  0
  7  8  1  0  0  0  0
  7  9  1  0  0  0  0
  9 10  1  0  0  0  0
  9 11  1  0  0  0  0
  9 22  1  0  0  0  0
 11 12  1  0  0  0  0
 11 13  1  0  0  0  0
 11 14  1  0  0  0  0
 14 15  1  0  0  0  0
 14 20  2  0  0  0  0
 15 16  2  0  0  0  0
 16 17  1  0  0  0  0
 16 18  1  0  0  0  0
 18 19  1  0  0  0  0
 18 20  1  0  0  0  0
 20 21  1  0  0  0  0
 22 23  2  0  0  0  0
 22 24  1  0  0  0  0
 24 25  1  0  0  0  0
 24 26  1  0  0  0  0
 26 27  1  0  0  0  0
 26 28  1  0  0  0  0
 26 29  1  0  0  0  0
M  END
$$$$

  -OEChem-04042215593D

 29 29  0     1  0  0  0  0  0999 V2000
   -2.6070   -4.3460    0.3710 H   0  0  0  0  0  0  0  0  0  0  0  0
   -2.6780   -3.3438   -0.0617 C   0  0  0  0  0  0  0  0  0  0  0  0
   -3.4654   -2.7922    0.4571 H   0  0  0  0  0  0  0  0  0  0  0  0
   -2.9402   -3.4364   -1.1183 H   0  0  0  0  0  0  0  0  0  0  0  0
   -1.3536   -2.6182    0.0841 C   0  0  0  0  0  0  0  0  0  0  0  0
   -0.4322   -3.1578    0.6676 O   0  0  0  0  0  0  0  0  0  0  0  0
   -1.2032   -1.3555   -0.4564 N   0  0  0  0  0  0  0  0  0  0  0  0
   -1.9755   -1.0104   -1.0180 H   0  0  0  0  0  0  0  0  0  0  0  0
    0.0621   -0.5943   -0.4727 C   0  0  1  0  0  0  0  0  0  0  0  0
    0.8282   -1.1503   -1.0244 H   0  0  0  0  0  0  0  0  0  0  0  0
   -0.2767    0.7108   -1.2260 C   0  0  0  0  0  0  0  0  0  0  0  0
   -0.6410    0.4389   -2.2211 H   0  0  0  0  0  0  0  0  0  0  0  0
   -1.0928    1.2200   -0.7050 H   0  0  0  0  0  0  0  0  0  0  0  0
    0.8168    1.7309   -1.4288 C   0  0  0  0  0  0  0  0  0  0  0  0
    0.6142    2.7446   -2.3587 N   0  0  0  0  0  0  0  0  0  0  0  0
    1.7165    3.4531   -2.4028 C   0  0  0  0  0  0  0  0  0  0  0  0
    1.8727    4.3233   -3.0342 H   0  0  0  0  0  0  0  0  0  0  0  0
    2.6470    2.9224   -1.5341 N   0  0  0  0  0  0  0  0  0  0  0  0
    3.5917    3.2756   -1.3932 H   0  0  0  0  0  0  0  0  0  0  0  0
    2.0890    1.8183   -0.9271 C   0  0  0  0  0  0  0  0  0  0  0  0
    2.5764    1.1545   -0.2213 H   0  0  0  0  0  0  0  0  0  0  0  0
    0.5899   -0.3357    0.9627 C   0  0  0  0  0  0  0  0  0  0  0  0
    1.7758   -0.4782    1.2320 O   0  0  0  0  0  0  0  0  0  0  0  0
   -0.2781    0.0914    1.9528 N   0  0  0  0  0  0  0  0  0  0  0  0
   -1.2668    0.0608    1.7282 H   0  0  0  0  0  0  0  0  0  0  0  0
    0.1187    0.2308    3.3479 C   0  0  0  0  0  0  0  0  0  0  0  0
    0.9467    0.9410    3.4430 H   0  0  0  0  0  0  0  0  0  0  0  0
   -0.7207    0.6004    3.9443 H   0  0  0  0  0  0  0  0  0  0  0  0
    0.4350   -0.7364    3.7525 H   0  0  0  0  0  0  0  0  0  0  0  0
  1  2  1  0  0  0  0
  2  3  1  0  0  0  0
  2  4  1  0  0  0  0
  2  5  1  0  0  0  0
  5  6  2  0  0  0  0
  5  7  1  0  0  0  0
  7  8  1  0  0  0  0
  7  9  1  0  0  0  0
  9 10  1  0  0  0  0
  9 11  1  0  0  0  0
  9 22  1  0  0  0  0
 11 12  1  0  0  0  0
 11 13  1  0  0  0  0
 11 14  1  0  0  0  0
 14 15  1  0  0  0  0
 14 20  2  0  0  0  0
 15 16  2  0  0  0  0
 16 17  1  0  0  0  0
 16 18  1  0  0  0  0
 18 19  1  0  0  0  0
 18 20  1  0  0  0  0
 20 21  1  0  0  0  0
 22 23  2  0  0  0  0
 22 24  1  0  0  0  0
 24 25  1  0  0  0  0
 24 26  1  0  0  0  0
 26 27  1  0  0  0  0
 26 28  1  0  0  0  0
 26 29  1  0  0  0  0
M  END
$$$$

  -OEChem-04042215593D

 29 29  0     1  0  0  0  0  0999 V2000
   -2.5463   -4.4093    0.4153 H   0  0  0  0  0  0  0  0  0  0  0  0
   -2.6640   -3.4128   -0.0201 C   0  0  0  0  0  0  0  0  0  0  0  0
   -3.4476   -2.8818    0.5253 H   0  0  0  0  0  0  0  0  0  0  0  0
   -2.9633   -3.5206   -1.0653 H   0  0  0  0  0  0  0  0  0  0  0  0
   -1.3573   -2.6473    0.0709 C   0  0  0  0  0  0  0  0  0  0  0  0
   -0.4001   -3.1505    0.6293 O   0  0  0  0  0  0  0  0  0  0  0  0
   -1.2595   -1.3860   -0.4840 N   0  0  0  0  0  0  0  0  0  0  0  0
   -2.0623   -1.0561   -1.0111 H   0  0  0  0  0  0  0  0  0  0  0  0
   -0.0165   -0.5930   -0.5337 C   0  0  1  0  0  0  0  0  0  0  0  0
    0.7312   -1.1650   -1.0941 H   0  0  0  0  0  0  0  0  0  0  0  0
   -0.3482    0.7005   -1.3033 C   0  0  0  0  0  0  0  0  0  0  0  0
   -0.9351    0.4478   -2.1911 H   0  0  0  0  0  0  0  0  0  0  0  0
   -0.9636    1.3505   -0.6743 H   0  0  0  0  0  0  0  0  0  0  0  0
    0.8388    1.4952   -1.7798 C   0  0  0  0  0  0  0  0  0  0  0  0
    0.6530    2.6784   -2.4836 N   0  0  0  0  0  0  0  0  0  0  0  0
    1.8478    3.1347   -2.7754 C   0  0  0  0  0  0  0  0  0  0  0  0
    2.0454    4.0538   -3.3196 H   0  0  0  0  0  0  0  0  0  0  0  0
    2.8124    2.2738   -2.2910 N   0  0  0  0  0  0  0  0  0  0  0  0
    3.8186    2.4061   -2.3753 H   0  0  0  0  0  0  0  0  0  0  0  0
    2.1761    1.2265   -1.6613 C   0  0  0  0  0  0  0  0  0  0  0  0
    2.6349    0.3744   -1.1659 H   0  0  0  0  0  0  0  0  0  0  0  0
    0.5769   -0.2821    0.8638 C   0  0  0  0  0  0  0  0  0  0  0  0
    1.7877   -0.3044    1.0451 O   0  0  0  0  0  0  0  0  0  0  0  0
   -0.2505    0.1467    1.8870 N   0  0  0  0  0  0  0  0  0  0  0  0
   -1.2484    0.0516    1.7320 H   0  0  0  0  0  0  0  0  0  0  0  0
    0.2285    0.4030    3.2393 C   0  0  0  0  0  0  0  0  0  0  0  0
    1.0153    1.1648    3.2302 H   0  0  0  0  0  0  0  0  0  0  0  0
   -0.5909    0.7631    3.8687 H   0  0  0  0  0  0  0  0  0  0  0  0
    0.6305   -0.5145    3.6819 H   0  0  0  0  0  0  0  0  0  0  0  0
  1  2  1  0  0  0  0
  2  3  1  0  0  0  0
  2  4  1  0  0  0  0
  2  5  1  0  0  0  0
  5  6  2  0  0  0  0
  5  7  1  0  0  0  0
  7  8  1  0  0  0  0
  7  9  1  0  0  0  0
  9 10  1  0  0  0  0
  9 11  1  0  0  0  0
  9 22  1  0  0  0  0
 11 12  1  0  0  0  0
 11 13  1  0  0  0  0
 11 14  1  0  0  0  0
 14 15  1  0  0  0  0
 14 20  2  0  0  0  0
 15 16  2  0  0  0  0
 16 17  1  0  0  0  0
 16 18  1  0  0  0  0
 18 19  1  0  0  0  0
 18 20  1  0  0  0  0
 20 21  1  0  0  0  0
 22 23  2  0  0  0  0
 22 24  1  0  0  0  0
 24 25  1  0  0  0  0
 24 26  1  0  0  0  0
 26 27  1  0  0  0  0
 26 28  1  0  0  0  0
 26 29  1  0  0  0  0
M  END
$$$$

  -OEChem-04042215593D

 29 29  0     1  0  0  0  0  0999 V2000
   -2.5565   -4.4289    0.4107 H   0  0  0  0  0  0  0  0  0  0  0  0
   -2.6807   -3.4310   -0.0199 C   0  0  0  0  0  0  0  0  0  0  0  0
   -3.4617   -2.9043    0.5334 H   0  0  0  0  0  0  0  0  0  0  0  0
   -2.9883   -3.5358   -1.0631 H   0  0  0  0  0  0  0  0  0  0  0  0
   -1.3763   -2.6608    0.0626 C   0  0  0  0  0  0  0  0  0  0  0  0
   -0.4100   -3.1612    0.6078 O   0  0  0  0  0  0  0  0  0  0  0  0
   -1.2898   -1.3990   -0.4913 N   0  0  0  0  0  0  0  0  0  0  0  0
   -2.1045   -1.0641   -0.9962 H   0  0  0  0  0  0  0  0  0  0  0  0
   -0.0507   -0.6025   -0.5542 C   0  0  1  0  0  0  0  0  0  0  0  0
    0.6854   -1.1862   -1.1177 H   0  0  0  0  0  0  0  0  0  0  0  0
   -0.3817    0.6800   -1.3398 C   0  0  0  0  0  0  0  0  0  0  0  0
   -0.9723    0.4256   -2.2243 H   0  0  0  0  0  0  0  0  0  0  0  0
   -0.9908    1.3376   -0.7124 H   0  0  0  0  0  0  0  0  0  0  0  0
    0.8150    1.4584   -1.8173 C   0  0  0  0  0  0  0  0  0  0  0  0
    0.6804    2.7682   -2.2591 N   0  0  0  0  0  0  0  0  0  0  0  0
    1.8856    3.1854   -2.5667 C   0  0  0  0  0  0  0  0  0  0  0  0
    2.1221    4.1774   -2.9405 H   0  0  0  0  0  0  0  0  0  0  0  0
    2.8054    2.1802   -2.3421 N   0  0  0  0  0  0  0  0  0  0  0  0
    3.8126    2.2633   -2.4667 H   0  0  0  0  0  0  0  0  0  0  0  0
    2.1302    1.0807   -1.8590 C   0  0  0  0  0  0  0  0  0  0  0  0
    2.5493    0.1293   -1.5409 H   0  0  0  0  0  0  0  0  0  0  0  0
    0.5788   -0.2779    0.8226 C   0  0  0  0  0  0  0  0  0  0  0  0
    1.7961   -0.2800    0.9582 O   0  0  0  0  0  0  0  0  0  0  0  0
   -0.2185    0.1564    1.8669 N   0  0  0  0  0  0  0  0  0  0  0  0
   -1.2208    0.0589    1.7454 H   0  0  0  0  0  0  0  0  0  0  0  0
    0.3048    0.4525    3.1942 C   0  0  0  0  0  0  0  0  0  0  0  0
    1.0631    1.2408    3.1406 H   0  0  0  0  0  0  0  0  0  0  0  0
   -0.5007    0.7947    3.8508 H   0  0  0  0  0  0  0  0  0  0  0  0
    0.7569   -0.4423    3.6347 H   0  0  0  0  0  0  0  0  0  0  0  0
  1  2  1  0  0  0  0
  2  3  1  0  0  0  0
  2  4  1  0  0  0  0
  2  5  1  0  0  0  0
  5  6  2  0  0  0  0
  5  7  1  0  0  0  0
  7  8  1  0  0  0  0
  7  9  1  0  0  0  0
  9 10  1  0  0  0  0
  9 11  1  0  0  0  0
  9 22  1  0  0  0  0
 11 12  1  0  0  0  0
 11 13  1  0  0  0  0
 11 14  1  0  0  0  0
 14 15  1  0  0  0  0
 14 20  2  0  0  0  0
 15 16  2  0  0  0  0
 16 17  1  0  0  0  0
 16 18  1  0  0  0  0
 18 19  1  0  0  0  0
 18 20  1  0  0  0  0
 20 21  1  0  0  0  0
 22 23  2  0  0  0  0
 22 24  1  0  0  0  0
 24 25  1  0  0  0  0
 24 26  1  0  0  0  0
 26 27  1  0  0  0  0
 26 28  1  0  0  0  0
 26 29  1  0  0  0  0
M  END
$$$$

  -OEChem-04042215593D

 29 29  0     1  0  0  0  0  0999 V2000
   -2.5466   -4.4416    0.4302 H   0  0  0  0  0  0  0  0  0  0  0  0
   -2.6820   -3.4460   -0.0024 C   0  0  0  0  0  0  0  0  0  0  0  0
   -3.4494   -2.9163    0.5671 H   0  0  0  0  0  0  0  0  0  0  0  0
   -3.0147   -3.5561   -1.0374 H   0  0  0  0  0  0  0  0  0  0  0  0
   -1.3762   -2.6750    0.0444 C   0  0  0  0  0  0  0  0  0  0  0  0
   -0.3945   -3.1752    0.5615 O   0  0  0  0  0  0  0  0  0  0  0  0
   -1.3070   -1.4110   -0.5065 N   0  0  0  0  0  0  0  0  0  0  0  0
   -2.1381   -1.0709   -0.9799 H   0  0  0  0  0  0  0  0  0  0  0  0
   -0.0761   -0.6035   -0.5804 C   0  0  1  0  0  0  0  0  0  0  0  0
    0.6543   -1.1880   -1.1493 H   0  0  0  0  0  0  0  0  0  0  0  0
   -0.4171    0.6752   -1.3671 C   0  0  0  0  0  0  0  0  0  0  0  0
   -1.0135    0.4231   -2.2481 H   0  0  0  0  0  0  0  0  0  0  0  0
   -1.0214    1.3323   -0.7341 H   0  0  0  0  0  0  0  0  0  0  0  0
    0.7839    1.4471   -1.8426 C   0  0  0  0  0  0  0  0  0  0  0  0
    0.7377    2.8265   -1.9963 N   0  0  0  0  0  0  0  0  0  0  0  0
    1.9455    3.2043   -2.3416 C   0  0  0  0  0  0  0  0  0  0  0  0
    2.2439    4.2316   -2.5305 H   0  0  0  0  0  0  0  0  0  0  0  0
    2.7793    2.1064   -2.4238 N   0  0  0  0  0  0  0  0  0  0  0  0
    3.7776    2.1386   -2.6212 H   0  0  0  0  0  0  0  0  0  0  0  0
    2.0478    0.9861   -2.0952 C   0  0  0  0  0  0  0  0  0  0  0  0
    2.4023   -0.0370   -2.0051 H   0  0  0  0  0  0  0  0  0  0  0  0
    0.5778   -0.2685    0.7811 C   0  0  0  0  0  0  0  0  0  0  0  0
    1.7979   -0.2554    0.8867 O   0  0  0  0  0  0  0  0  0  0  0  0
   -0.2005    0.1618    1.8412 N   0  0  0  0  0  0  0  0  0  0  0  0
   -1.2055    0.0706    1.7390 H   0  0  0  0  0  0  0  0  0  0  0  0
    0.3503    0.4905    3.1494 C   0  0  0  0  0  0  0  0  0  0  0  0
    1.0920    1.2914    3.0626 H   0  0  0  0  0  0  0  0  0  0  0  0
   -0.4450    0.8289    3.8203 H   0  0  0  0  0  0  0  0  0  0  0  0
    0.8298   -0.3881    3.5937 H   0  0  0  0  0  0  0  0  0  0  0  0
  1  2  1  0  0  0  0
  2  3  1  0  0  0  0
  2  4  1  0  0  0  0
  2  5  1  0  0  0  0
  5  6  2  0  0  0  0
  5  7  1  0  0  0  0
  7  8  1  0  0  0  0
  7  9  1  0  0  0  0
  9 10  1  0  0  0  0
  9 11  1  0  0  0  0
  9 22  1  0  0  0  0
 11 12  1  0  0  0  0
 11 13  1  0  0  0  0
 11 14  1  0  0  0  0
 14 15  1  0  0  0  0
 14 20  2  0  0  0  0
 15 16  2  0  0  0  0
 16 17  1  0  0  0  0
 16 18  1  0  0  0  0
 18 19  1  0  0  0  0
 18 20  1  0  0  0  0
 20 21  1  0  0  0  0
 22 23  2  0  0  0  0
 22 24  1  0  0  0  0
 24 25  1  0  0  0  0
 24 26  1  0  0  0  0
 26 27  1  0  0  0  0
 26 28  1  0  0  0  0
 26 29  1  0  0  0  0
M  END
$$$$

  -OEChem-04042215593D

 29 29  0     1  0  0  0  0  0999 V2000
   -2.5041   -4.4452    0.4592 H   0  0  0  0  0  0  0  0  0  0  0  0
   -2.6570   -3.4527    0.0256 C   0  0  0  0  0  0  0  0  0  0  0  0
   -3.4045   -2.9214    0.6194 H   0  0  0  0  0  0  0  0  0  0  0  0
   -3.0262   -3.5693   -0.9961 H   0  0  0  0  0  0  0  0  0  0  0  0
   -1.3518   -2.6795    0.0216 C   0  0  0  0  0  0  0  0  0  0  0  0
   -0.3490   -3.1801    0.4961 O   0  0  0  0  0  0  0  0  0  0  0  0
   -1.3067   -1.4120   -0.5239 N   0  0  0  0  0  0  0  0  0  0  0  0
   -2.1605   -1.0606   -0.9460 H   0  0  0  0  0  0  0  0  0  0  0  0
   -0.0880   -0.5866   -0.6029 C   0  0  1  0  0  0  0  0  0  0  0  0
    0.6483   -1.1591   -1.1765 H   0  0  0  0  0  0  0  0  0  0  0  0
   -0.4471    0.6906   -1.3818 C   0  0  0  0  0  0  0  0  0  0  0  0
   -1.0405    0.4374   -2.2644 H   0  0  0  0  0  0  0  0  0  0  0  0
   -1.0550    1.3420   -0.7467 H   0  0  0  0  0  0  0  0  0  0  0  0
    0.7579    1.4585   -1.8473 C   0  0  0  0  0  0  0  0  0  0  0  0
    0.8439    2.8374   -1.7120 N   0  0  0  0  0  0  0  0  0  0  0  0
    2.0387    3.1771   -2.1332 C   0  0  0  0  0  0  0  0  0  0  0  0
    2.4263    4.1918   -2.1459 H   0  0  0  0  0  0  0  0  0  0  0  0
    2.7292    2.0573   -2.5553 N   0  0  0  0  0  0  0  0  0  0  0  0
    3.6942    2.0493   -2.8803 H   0  0  0  0  0  0  0  0  0  0  0  0
    1.9204    0.9575   -2.3665 C   0  0  0  0  0  0  0  0  0  0  0  0
    2.1605   -0.0860   -2.5467 H   0  0  0  0  0  0  0  0  0  0  0  0
    0.5721   -0.2483    0.7547 C   0  0  0  0  0  0  0  0  0  0  0  0
    1.7925   -0.2255    0.8536 O   0  0  0  0  0  0  0  0  0  0  0  0
   -0.2049    0.1659    1.8221 N   0  0  0  0  0  0  0  0  0  0  0  0
   -1.2097    0.0761    1.7207 H   0  0  0  0  0  0  0  0  0  0  0  0
    0.3478    0.4966    3.1289 C   0  0  0  0  0  0  0  0  0  0  0  0
    1.1008    1.2867    3.0385 H   0  0  0  0  0  0  0  0  0  0  0  0
   -0.4441    0.8515    3.7951 H   0  0  0  0  0  0  0  0  0  0  0  0
    0.8139   -0.3856    3.5802 H   0  0  0  0  0  0  0  0  0  0  0  0
  1  2  1  0  0  0  0
  2  3  1  0  0  0  0
  2  4  1  0  0  0  0
  2  5  1  0  0  0  0
  5  6  2  0  0  0  0
  5  7  1  0  0  0  0
  7  8  1  0  0  0  0
  7  9  1  0  0  0  0
  9 10  1  0  0  0  0
  9 11  1  0  0  0  0
  9 22  1  0  0  0  0
 11 12  1  0  0  0  0
 11 13  1  0  0  0  0
 11 14  1  0  0  0  0
 14 15  1  0  0  0  0
 14 20  2  0  0  0  0
 15 16  2  0  0  0  0
 16 17  1  0  0  0  0
 16 18  1  0  0  0  0
 18 19  1  0  0  0  0
 18 20  1  0  0  0  0
 20 21  1  0  0  0  0
 22 23  2  0  0  0  0
 22 24  1  0  0  0  0
 24 25  1  0  0  0  0
 24 26  1  0  0  0  0
 26 27  1  0  0  0  0
 26 28  1  0  0  0  0
 26 29  1  0  0  0  0
M  END
$$$$

  -OEChem-04042215593D

 29 29  0     1  0  0  0  0  0999 V2000
   -2.4737   -4.4529    0.4543 H   0  0  0  0  0  0  0  0  0  0  0  0
   -2.6364   -3.4605    0.0239 C   0  0  0  0  0  0  0  0  0  0  0  0
   -3.3790   -2.9339    0.6278 H   0  0  0  0  0  0  0  0  0  0  0  0
   -3.0183   -3.5773   -0.9932 H   0  0  0  0  0  0  0  0  0  0  0  0
   -1.3348   -2.6811    0.0048 C   0  0  0  0  0  0  0  0  0  0  0  0
   -0.3217   -3.1821    0.4563 O   0  0  0  0  0  0  0  0  0  0  0  0
   -1.3056   -1.4098   -0.5328 N   0  0  0  0  0  0  0  0  0  0  0  0
   -2.1717   -1.0549   -0.9253 H   0  0  0  0  0  0  0  0  0  0  0  0
   -0.0968   -0.5700   -0.6116 C   0  0  1  0  0  0  0  0  0  0  0  0
    0.6469   -1.1269   -1.1919 H   0  0  0  0  0  0  0  0  0  0  0  0
   -0.4743    0.7049   -1.3839 C   0  0  0  0  0  0  0  0  0  0  0  0
   -1.0584    0.4444   -2.2709 H   0  0  0  0  0  0  0  0  0  0  0  0
   -1.0910    1.3528   -0.7536 H   0  0  0  0  0  0  0  0  0  0  0  0
    0.7349    1.4681   -1.8372 C   0  0  0  0  0  0  0  0  0  0  0  0
    0.9833    2.7744   -1.4416 N   0  0  0  0  0  0  0  0  0  0  0  0
    2.1470    3.0976   -1.9531 C   0  0  0  0  0  0  0  0  0  0  0  0
    2.6395    4.0559   -1.8152 H   0  0  0  0  0  0  0  0  0  0  0  0
    2.6509    2.0436   -2.6921 N   0  0  0  0  0  0  0  0  0  0  0  0
    3.5601    2.0297   -3.1502 H   0  0  0  0  0  0  0  0  0  0  0  0
    1.7548    0.9989   -2.6174 C   0  0  0  0  0  0  0  0  0  0  0  0
    1.8454    0.0044   -3.0437 H   0  0  0  0  0  0  0  0  0  0  0  0
    0.5674   -0.2307    0.7439 C   0  0  0  0  0  0  0  0  0  0  0  0
    1.7879   -0.2112    0.8409 O   0  0  0  0  0  0  0  0  0  0  0  0
   -0.2062    0.1697    1.8192 N   0  0  0  0  0  0  0  0  0  0  0  0
   -1.2121    0.0959    1.7178 H   0  0  0  0  0  0  0  0  0  0  0  0
    0.3536    0.5119    3.1200 C   0  0  0  0  0  0  0  0  0  0  0  0
    1.0811    1.3246    3.0223 H   0  0  0  0  0  0  0  0  0  0  0  0
   -0.4392    0.8397    3.7990 H   0  0  0  0  0  0  0  0  0  0  0  0
    0.8528   -0.3573    3.5606 H   0  0  0  0  0  0  0  0  0  0  0  0
  1  2  1  0  0  0  0
  2  3  1  0  0  0  0
  2  4  1  0  0  0  0
  2  5  1  0  0  0  0
  5  6  2  0  0  0  0
  5  7  1  0  0  0  0
  7  8  1  0  0  0  0
  7  9  1  0  0  0  0
  9 10  1  0  0  0  0
  9 11  1  0  0  0  0
  9 22  1  0  0  0  0
 11 12  1  0  0  0  0
 11 13  1  0  0  0  0
 11 14  1  0  0  0  0
 14 15  1  0  0  0  0
 14 20  2  0  0  0  0
 15 16  2  0  0  0  0
 16 17  1  0  0  0  0
 16 18  1  0  0  0  0
 18 19  1  0  0  0  0
 18 20  1  0  0  0  0
 20 21  1  0  0  0  0
 22 23  2  0  0  0  0
 22 24  1  0  0  0  0
 24 25  1  0  0  0  0
 24 26  1  0  0  0  0
 26 27  1  0  0  0  0
 26 28  1  0  0  0  0
 26 29  1  0  0  0  0
M  END
$$$$

  -OEChem-04042215593D

 29 29  0     1  0  0  0  0  0999 V2000
   -2.4536   -4.4469    0.4681 H   0  0  0  0  0  0  0  0  0  0  0  0
   -2.6216   -3.4557    0.0369 C   0  0  0  0  0  0  0  0  0  0  0  0
   -3.3546   -2.9259    0.6497 H   0  0  0  0  0  0  0  0  0  0  0  0
   -3.0176   -3.5752   -0.9743 H   0  0  0  0  0  0  0  0  0  0  0  0
   -1.3190   -2.6789   -0.0033 C   0  0  0  0  0  0  0  0  0  0  0  0
   -0.3000   -3.1851    0.4280 O   0  0  0  0  0  0  0  0  0  0  0  0
   -1.2958   -1.4061   -0.5381 N   0  0  0  0  0  0  0  0  0  0  0  0
   -2.1693   -1.0446   -0.9068 H   0  0  0  0  0  0  0  0  0  0  0  0
   -0.0911   -0.5599   -0.6154 C   0  0  1  0  0  0  0  0  0  0  0  0
    0.6588   -1.1063   -1.1984 H   0  0  0  0  0  0  0  0  0  0  0  0
   -0.4814    0.7108   -1.3876 C   0  0  0  0  0  0  0  0  0  0  0  0
   -1.0575    0.4381   -2.2763 H   0  0  0  0  0  0  0  0  0  0  0  0
   -1.1073    1.3585   -0.7664 H   0  0  0  0  0  0  0  0  0  0  0  0
    0.7296    1.4713   -1.8347 C   0  0  0  0  0  0  0  0  0  0  0  0
    1.1490    2.6434   -1.2242 N   0  0  0  0  0  0  0  0  0  0  0  0
    2.2594    2.9936   -1.8275 C   0  0  0  0  0  0  0  0  0  0  0  0
    2.8548    3.8653   -1.5717 H   0  0  0  0  0  0  0  0  0  0  0  0
    2.5546    2.0959   -2.8373 N   0  0  0  0  0  0  0  0  0  0  0  0
    3.3830    2.1298   -3.4283 H   0  0  0  0  0  0  0  0  0  0  0  0
    1.5793    1.1212   -2.8462 C   0  0  0  0  0  0  0  0  0  0  0  0
    1.5089    0.2447   -3.4832 H   0  0  0  0  0  0  0  0  0  0  0  0
    0.5676   -0.2229    0.7440 C   0  0  0  0  0  0  0  0  0  0  0  0
    1.7869   -0.2319    0.8572 O   0  0  0  0  0  0  0  0  0  0  0  0
   -0.2124    0.1696    1.8180 N   0  0  0  0  0  0  0  0  0  0  0  0
   -1.2182    0.1251    1.7014 H   0  0  0  0  0  0  0  0  0  0  0  0
    0.3386    0.5009    3.1251 C   0  0  0  0  0  0  0  0  0  0  0  0
    1.0693    1.3117    3.0377 H   0  0  0  0  0  0  0  0  0  0  0  0
   -0.4584    0.8270    3.7999 H   0  0  0  0  0  0  0  0  0  0  0  0
    0.8316   -0.3729    3.5639 H   0  0  0  0  0  0  0  0  0  0  0  0
  1  2  1  0  0  0  0
  2  3  1  0  0  0  0
  2  4  1  0  0  0  0
  2  5  1  0  0  0  0
  5  6  2  0  0  0  0
  5  7  1  0  0  0  0
  7  8  1  0  0  0  0
  7  9  1  0  0  0  0
  9 10  1  0  0  0  0
  9 11  1  0  0  0  0
  9 22  1  0  0  0  0
 11 12  1  0  0  0  0
 11 13  1  0  0  0  0
 11 14  1  0  0  0  0
 14 15  1  0  0  0  0
 14 20  2  0  0  0  0
 15 16  2  0  0  0  0
 16 17  1  0  0  0  0
 16 18  1  0  0  0  0
 18 19  1  0  0  0  0
 18 20  1  0  0  0  0
 20 21  1  0  0  0  0
 22 23  2  0  0  0  0
 22 24  1  0  0  0  0
 24 25  1  0  0  0  0
 24 26  1  0  0  0  0
 26 27  1  0  0  0  0
 26 28  1  0  0  0  0
 26 29  1  0  0  0  0
M  END
$$$$

  -OEChem-04042215593D

 29 29  0     1  0  0  0  0  0999 V2000
   -2.4513   -4.4392    0.4768 H   0  0  0  0  0  0  0  0  0  0  0  0
   -2.6167   -3.4475    0.0461 C   0  0  0  0  0  0  0  0  0  0  0  0
   -3.3443   -2.9138    0.6620 H   0  0  0  0  0  0  0  0  0  0  0  0
   -3.0179   -3.5660   -0.9632 H   0  0  0  0  0  0  0  0  0  0  0  0
   -1.3109   -2.6764   -0.0013 C   0  0  0  0  0  0  0  0  0  0  0  0
   -0.2910   -3.1899    0.4189 O   0  0  0  0  0  0  0  0  0  0  0  0
   -1.2869   -1.4042   -0.5376 N   0  0  0  0  0  0  0  0  0  0  0  0
   -2.1648   -1.0355   -0.8873 H   0  0  0  0  0  0  0  0  0  0  0  0
   -0.0824   -0.5568   -0.6131 C   0  0  1  0  0  0  0  0  0  0  0  0
    0.6721   -1.1003   -1.1936 H   0  0  0  0  0  0  0  0  0  0  0  0
   -0.4779    0.7070   -1.3953 C   0  0  0  0  0  0  0  0  0  0  0  0
   -1.0492    0.4212   -2.2830 H   0  0  0  0  0  0  0  0  0  0  0  0
   -1.1099    1.3558   -0.7819 H   0  0  0  0  0  0  0  0  0  0  0  0
    0.7290    1.4724   -1.8450 C   0  0  0  0  0  0  0  0  0  0  0  0
    1.3208    2.4671   -1.0828 N   0  0  0  0  0  0  0  0  0  0  0  0
    2.3661    2.8773   -1.7592 C   0  0  0  0  0  0  0  0  0  0  0  0
    3.0594    3.6436   -1.4248 H   0  0  0  0  0  0  0  0  0  0  0  0
    2.4484    2.1976   -2.9610 N   0  0  0  0  0  0  0  0  0  0  0  0
    3.1868    2.3165   -3.6519 H   0  0  0  0  0  0  0  0  0  0  0  0
    1.4022    1.3010   -3.0218 C   0  0  0  0  0  0  0  0  0  0  0  0
    1.1706    0.5885   -3.8076 H   0  0  0  0  0  0  0  0  0  0  0  0
    0.5690   -0.2202    0.7508 C   0  0  0  0  0  0  0  0  0  0  0  0
    1.7851   -0.2729    0.8856 O   0  0  0  0  0  0  0  0  0  0  0  0
   -0.2167    0.1718    1.8215 N   0  0  0  0  0  0  0  0  0  0  0  0
   -1.2216    0.1537    1.6921 H   0  0  0  0  0  0  0  0  0  0  0  0
    0.3271    0.4843    3.1365 C   0  0  0  0  0  0  0  0  0  0  0  0
    1.0616    1.2933    3.0645 H   0  0  0  0  0  0  0  0  0  0  0  0
   -0.4727    0.8039    3.8109 H   0  0  0  0  0  0  0  0  0  0  0  0
    0.8140   -0.3969    3.5670 H   0  0  0  0  0  0  0  0  0  0  0  0
  1  2  1  0  0  0  0
  2  3  1  0  0  0  0
  2  4  1  0  0  0  0
  2  5  1  0  0  0  0
  5  6  2  0  0  0  0
  5  7  1  0  0  0  0
  7  8  1  0  0  0  0
  7  9  1  0  0  0  0
  9 10  1  0  0  0  0
  9 11  1  0  0  0  0
  9 22  1  0  0  0  0
 11 12  1  0  0  0  0
 11 13  1  0  0  0  0
 11 14  1  0  0  0  0
 14 15  1  0  0  0  0
 14 20  2  0  0  0  0
 15 16  2  0  0  0  0
 16 17  1  0  0  0  0
 16 18  1  0  0  0  0
 18 19  1  0  0  0  0
 18 20  1  0  0  0  0
 20 21  1  0  0  0  0
 22 23  2  0  0  0  0
 22 24  1  0  0  0  0
 24 25  1  0  0  0  0
 24 26  1  0  0  0  0
 26 27  1  0  0  0  0
 26 28  1  0  0  0  0
 26 29  1  0  0  0  0
M  END
$$$$

  -OEChem-04042215593D

 29 29  0     1  0  0  0  0  0999 V2000
   -2.4548   -4.4201    0.4920 H   0  0  0  0  0  0  0  0  0  0  0  0
   -2.6128   -3.4272    0.0612 C   0  0  0  0  0  0  0  0  0  0  0  0
   -3.3349   -2.8877    0.6785 H   0  0  0  0  0  0  0  0  0  0  0  0
   -3.0174   -3.5431   -0.9470 H   0  0  0  0  0  0  0  0  0  0  0  0
   -1.3003   -2.6675    0.0105 C   0  0  0  0  0  0  0  0  0  0  0  0
   -0.2857   -3.1898    0.4320 O   0  0  0  0  0  0  0  0  0  0  0  0
   -1.2662   -1.3976   -0.5317 N   0  0  0  0  0  0  0  0  0  0  0  0
   -2.1412   -1.0257   -0.8850 H   0  0  0  0  0  0  0  0  0  0  0  0
   -0.0578   -0.5540   -0.6050 C   0  0  1  0  0  0  0  0  0  0  0  0
    0.7014   -1.0981   -1.1788 H   0  0  0  0  0  0  0  0  0  0  0  0
   -0.4596    0.7027   -1.4005 C   0  0  0  0  0  0  0  0  0  0  0  0
   -1.0364    0.4042   -2.2804 H   0  0  0  0  0  0  0  0  0  0  0  0
   -1.0928    1.3506   -0.7873 H   0  0  0  0  0  0  0  0  0  0  0  0
    0.7311    1.4870   -1.8663 C   0  0  0  0  0  0  0  0  0  0  0  0
    1.4995    2.2818   -1.0314 N   0  0  0  0  0  0  0  0  0  0  0  0
    2.4681    2.7703   -1.7667 C   0  0  0  0  0  0  0  0  0  0  0  0
    3.2550    3.4243   -1.4017 H   0  0  0  0  0  0  0  0  0  0  0  0
    2.3326    2.3355   -3.0723 N   0  0  0  0  0  0  0  0  0  0  0  0
    2.9709    2.5591   -3.8333 H   0  0  0  0  0  0  0  0  0  0  0  0
    1.2237    1.5178   -3.1413 C   0  0  0  0  0  0  0  0  0  0  0  0
    0.8331    0.9872   -4.0044 H   0  0  0  0  0  0  0  0  0  0  0  0
    0.5782   -0.2193    0.7672 C   0  0  0  0  0  0  0  0  0  0  0  0
    1.7862   -0.3271    0.9377 O   0  0  0  0  0  0  0  0  0  0  0  0
   -0.2224    0.1763    1.8255 N   0  0  0  0  0  0  0  0  0  0  0  0
   -1.2238    0.1843    1.6724 H   0  0  0  0  0  0  0  0  0  0  0  0
    0.2962    0.4359    3.1616 C   0  0  0  0  0  0  0  0  0  0  0  0
    1.0604    1.2198    3.1297 H   0  0  0  0  0  0  0  0  0  0  0  0
   -0.5098    0.7670    3.8231 H   0  0  0  0  0  0  0  0  0  0  0  0
    0.7404   -0.4730    3.5810 H   0  0  0  0  0  0  0  0  0  0  0  0
  1  2  1  0  0  0  0
  2  3  1  0  0  0  0
  2  4  1  0  0  0  0
  2  5  1  0  0  0  0
  5  6  2  0  0  0  0
  5  7  1  0  0  0  0
  7  8  1  0  0  0  0
  7  9  1  0  0  0  0
  9 10  1  0  0  0  0
  9 11  1  0  0  0  0
  9 22  1  0  0  0  0
 11 12  1  0  0  0  0
 11 13  1  0  0  0  0
 11 14  1  0  0  0  0
 14 15  1  0  0  0  0
 14 20  2  0  0  0  0
 15 16  2  0  0  0  0
 16 17  1  0  0  0  0
 16 18  1  0  0  0  0
 18 19  1  0  0  0  0
 18 20  1  0  0  0  0
 20 21  1  0  0  0  0
 22 23  2  0  0  0  0
 22 24  1  0  0  0  0
 24 25  1  0  0  0  0
 24 26  1  0  0  0  0
 26 27  1  0  0  0  0
 26 28  1  0  0  0  0
 26 29  1  0  0  0  0
M  END
$$$$

  -OEChem-04042215593D

 29 29  0     1  0  0  0  0  0999 V2000
   -2.4593   -4.3944    0.5059 H   0  0  0  0  0  0  0  0  0  0  0  0
   -2.6055   -3.4001    0.0738 C   0  0  0  0  0  0  0  0  0  0  0  0
   -3.3211   -2.8509    0.6901 H   0  0  0  0  0  0  0  0  0  0  0  0
   -3.0104   -3.5125   -0.9347 H   0  0  0  0  0  0  0  0  0  0  0  0
   -1.2850   -2.6550    0.0234 C   0  0  0  0  0  0  0  0  0  0  0  0
   -0.2791   -3.1830    0.4576 O   0  0  0  0  0  0  0  0  0  0  0  0
   -1.2381   -1.3895   -0.5274 N   0  0  0  0  0  0  0  0  0  0  0  0
   -2.1078   -1.0157   -0.8912 H   0  0  0  0  0  0  0  0  0  0  0  0
   -0.0244   -0.5525   -0.5966 C   0  0  1  0  0  0  0  0  0  0  0  0
    0.7408   -1.0960   -1.1628 H   0  0  0  0  0  0  0  0  0  0  0  0
   -0.4326    0.7003   -1.3984 C   0  0  0  0  0  0  0  0  0  0  0  0
   -1.0194    0.3976   -2.2703 H   0  0  0  0  0  0  0  0  0  0  0  0
   -1.0619    1.3440   -0.7770 H   0  0  0  0  0  0  0  0  0  0  0  0
    0.7396    1.5051   -1.8812 C   0  0  0  0  0  0  0  0  0  0  0  0
    1.6868    2.0824   -1.0528 N   0  0  0  0  0  0  0  0  0  0  0  0
    2.5706    2.6590   -1.8287 C   0  0  0  0  0  0  0  0  0  0  0  0
    3.4507    3.1910   -1.4789 H   0  0  0  0  0  0  0  0  0  0  0  0
    2.2098    2.4913   -3.1527 N   0  0  0  0  0  0  0  0  0  0  0  0
    2.7400    2.8328   -3.9521 H   0  0  0  0  0  0  0  0  0  0  0  0
    1.0436    1.7553   -3.1911 C   0  0  0  0  0  0  0  0  0  0  0  0
    0.4896    1.4217   -4.0631 H   0  0  0  0  0  0  0  0  0  0  0  0
    0.5901   -0.2193    0.7871 C   0  0  0  0  0  0  0  0  0  0  0  0
    1.7864   -0.3749    0.9980 O   0  0  0  0  0  0  0  0  0  0  0  0
   -0.2306    0.1827    1.8282 N   0  0  0  0  0  0  0  0  0  0  0  0
   -1.2282    0.1891    1.6525 H   0  0  0  0  0  0  0  0  0  0  0  0
    0.2517    0.3800    3.1887 C   0  0  0  0  0  0  0  0  0  0  0  0
    1.0658    1.1123    3.2043 H   0  0  0  0  0  0  0  0  0  0  0  0
   -0.5565    0.7496    3.8267 H   0  0  0  0  0  0  0  0  0  0  0  0
    0.6196   -0.5643    3.6033 H   0  0  0  0  0  0  0  0  0  0  0  0
  1  2  1  0  0  0  0
  2  3  1  0  0  0  0
  2  4  1  0  0  0  0
  2  5  1  0  0  0  0
  5  6  2  0  0  0  0
  5  7  1  0  0  0  0
  7  8  1  0  0  0  0
  7  9  1  0  0  0  0
  9 10  1  0  0  0  0
  9 11  1  0  0  0  0
  9 22  1  0  0  0  0
 11 12  1  0  0  0  0
 11 13  1  0  0  0  0
 11 14  1  0  0  0  0
 14 15  1  0  0  0  0
 14 20  2  0  0  0  0
 15 16  2  0  0  0  0
 16 17  1  0  0  0  0
 16 18  1  0  0  0  0
 18 19  1  0  0  0  0
 18 20  1  0  0  0  0
 20 21  1  0  0  0  0
 22 23  2  0  0  0  0
 22 24  1  0  0  0  0
 24 25  1  0  0  0  0
 24 26  1  0  0  0  0
 26 27  1  0  0  0  0
 26 28  1  0  0  0  0
 26 29  1  0  0  0  0
M  END
$$$$

  -OEChem-04042215593D

 29 29  0     1  0  0  0  0  0999 V2000
   -2.4727   -4.3798    0.4985 H   0  0  0  0  0  0  0  0  0  0  0  0
   -2.6085   -3.3866    0.0605 C   0  0  0  0  0  0  0  0  0  0  0  0
   -3.3408   -2.8373    0.6568 H   0  0  0  0  0  0  0  0  0  0  0  0
   -2.9869   -3.5016   -0.9578 H   0  0  0  0  0  0  0  0  0  0  0  0
   -1.2871   -2.6410    0.0440 C   0  0  0  0  0  0  0  0  0  0  0  0
   -0.2961   -3.1673    0.5129 O   0  0  0  0  0  0  0  0  0  0  0  0
   -1.2231   -1.3787   -0.5134 N   0  0  0  0  0  0  0  0  0  0  0  0
   -2.0758   -1.0189   -0.9279 H   0  0  0  0  0  0  0  0  0  0  0  0
   -0.0006   -0.5526   -0.5820 C   0  0  1  0  0  0  0  0  0  0  0  0
    0.7647   -1.0980   -1.1459 H   0  0  0  0  0  0  0  0  0  0  0  0
   -0.4068    0.7052   -1.3813 C   0  0  0  0  0  0  0  0  0  0  0  0
   -1.0067    0.4085   -2.2465 H   0  0  0  0  0  0  0  0  0  0  0  0
   -1.0264    1.3462   -0.7478 H   0  0  0  0  0  0  0  0  0  0  0  0
    0.7536    1.5216   -1.8798 C   0  0  0  0  0  0  0  0  0  0  0  0
    1.8690    1.8678   -1.1373 N   0  0  0  0  0  0  0  0  0  0  0  0
    2.6697    2.5347   -1.9304 C   0  0  0  0  0  0  0  0  0  0  0  0
    3.6356    2.9393   -1.6413 H   0  0  0  0  0  0  0  0  0  0  0  0
    2.0969    2.6449   -3.1831 N   0  0  0  0  0  0  0  0  0  0  0  0
    2.5228    3.1084   -3.9834 H   0  0  0  0  0  0  0  0  0  0  0  0
    0.8787    1.9978   -3.1567 C   0  0  0  0  0  0  0  0  0  0  0  0
    0.1706    1.8720   -3.9699 H   0  0  0  0  0  0  0  0  0  0  0  0
    0.6005   -0.2244    0.8101 C   0  0  0  0  0  0  0  0  0  0  0  0
    1.7884   -0.4040    1.0471 O   0  0  0  0  0  0  0  0  0  0  0  0
   -0.2332    0.1858    1.8380 N   0  0  0  0  0  0  0  0  0  0  0  0
   -1.2285    0.1784    1.6498 H   0  0  0  0  0  0  0  0  0  0  0  0
    0.2252    0.3484    3.2115 C   0  0  0  0  0  0  0  0  0  0  0  0
    1.0496    1.0678    3.2569 H   0  0  0  0  0  0  0  0  0  0  0  0
   -0.5895    0.7179    3.8413 H   0  0  0  0  0  0  0  0  0  0  0  0
    0.5708   -0.6095    3.6144 H   0  0  0  0  0  0  0  0  0  0  0  0
  1  2  1  0  0  0  0
  2  3  1  0  0  0  0
  2  4  1  0  0  0  0
  2  5  1  0  0  0  0
  5  6  2  0  0  0  0
  5  7  1  0  0  0  0
  7  8  1  0  0  0  0
  7  9  1  0  0  0  0
  9 10  1  0  0  0  0
  9 11  1  0  0  0  0
  9 22  1  0  0  0  0
 11 12  1  0  0  0  0
 11 13  1  0  0  0  0
 11 14  1  0  0  0  0
 14 15  1  0  0  0  0
 14 20  2  0  0  0  0
 15 16  2  0  0  0  0
 16 17  1  0  0  0  0
 16 18  1  0  0  0  0
 18 19  1  0  0  0  0
 18 20  1  0  0  0  0
 20 21  1  0  0  0  0
 22 23  2  0  0  0  0
 22 24  1  0  0  0  0
 24 25  1  0  0  0  0
 24 26  1  0  0  0  0
 26 27  1  0  0  0  0
 26 28  1  0  0  0  0
 26 29  1  0  0  0  0
M  END
$$$$

  -OEChem-04042215593D

 29 29  0     1  0  0  0  0  0999 V2000
   -2.4918   -4.3732    0.4792 H   0  0  0  0  0  0  0  0  0  0  0  0
   -2.6156   -3.3817    0.0343 C   0  0  0  0  0  0  0  0  0  0  0  0
   -3.3768   -2.8366    0.5974 H   0  0  0  0  0  0  0  0  0  0  0  0
   -2.9490   -3.5012   -0.9993 H   0  0  0  0  0  0  0  0  0  0  0  0
   -1.2999   -2.6268    0.0729 C   0  0  0  0  0  0  0  0  0  0  0  0
   -0.3295   -3.1419    0.5942 O   0  0  0  0  0  0  0  0  0  0  0  0
   -1.2195   -1.3700   -0.4951 N   0  0  0  0  0  0  0  0  0  0  0  0
   -2.0489   -1.0338   -0.9717 H   0  0  0  0  0  0  0  0  0  0  0  0
    0.0125   -0.5580   -0.5696 C   0  0  1  0  0  0  0  0  0  0  0  0
    0.7740   -1.1089   -1.1332 H   0  0  0  0  0  0  0  0  0  0  0  0
   -0.3891    0.7059   -1.3631 C   0  0  0  0  0  0  0  0  0  0  0  0
   -1.0003    0.4174   -2.2232 H   0  0  0  0  0  0  0  0  0  0  0  0
   -0.9977    1.3482   -0.7203 H   0  0  0  0  0  0  0  0  0  0  0  0
    0.7671    1.5206   -1.8760 C   0  0  0  0  0  0  0  0  0  0  0  0
    2.0132    1.6307   -1.2850 N   0  0  0  0  0  0  0  0  0  0  0  0
    2.7440    2.3958   -2.0557 C   0  0  0  0  0  0  0  0  0  0  0  0
    3.7772    2.6696   -1.8607 H   0  0  0  0  0  0  0  0  0  0  0  0
    2.0002    2.7966   -3.1491 N   0  0  0  0  0  0  0  0  0  0  0  0
    2.3402    3.3906   -3.9030 H   0  0  0  0  0  0  0  0  0  0  0  0
    0.7433    2.2376   -3.0416 C   0  0  0  0  0  0  0  0  0  0  0  0
   -0.0909    2.3313   -3.7299 H   0  0  0  0  0  0  0  0  0  0  0  0
    0.6105   -0.2281    0.8246 C   0  0  0  0  0  0  0  0  0  0  0  0
    1.7951   -0.4119    1.0735 O   0  0  0  0  0  0  0  0  0  0  0  0
   -0.2268    0.1973    1.8436 N   0  0  0  0  0  0  0  0  0  0  0  0
   -1.2213    0.1689    1.6528 H   0  0  0  0  0  0  0  0  0  0  0  0
    0.2201    0.3412    3.2230 C   0  0  0  0  0  0  0  0  0  0  0  0
    1.0452    1.0586    3.2846 H   0  0  0  0  0  0  0  0  0  0  0  0
   -0.5992    0.7033    3.8511 H   0  0  0  0  0  0  0  0  0  0  0  0
    0.5613   -0.6225    3.6159 H   0  0  0  0  0  0  0  0  0  0  0  0
  1  2  1  0  0  0  0
  2  3  1  0  0  0  0
  2  4  1  0  0  0  0
  2  5  1  0  0  0  0
  5  6  2  0  0  0  0
  5  7  1  0  0  0  0
  7  8  1  0  0  0  0
  7  9  1  0  0  0  0
  9 10  1  0  0  0  0
  9 11  1  0  0  0  0
  9 22  1  0  0  0  0
 11 12  1  0  0  0  0
 11 13  1  0  0  0  0
 11 14  1  0  0  0  0
 14 15  1  0  0  0  0
 14 20  2  0  0  0  0
 15 16  2  0  0  0  0
 16 17  1  0  0  0  0
 16 18  1  0  0  0  0
 18 19  1  0  0  0  0
 18 20  1  0  0  0  0
 20 21  1  0  0  0  0
 22 23  2  0  0  0  0
 22 24  1  0  0  0  0
 24 25  1  0  0  0  0
 24 26  1  0  0  0  0
 26 27  1  0  0  0  0
 26 28  1  0  0  0  0
 26 29  1  0  0  0  0
M  END
$$$$

  -OEChem-04042215593D

 29 29  0     1  0  0  0  0  0999 V2000
   -2.5063   -4.3789    0.4747 H   0  0  0  0  0  0  0  0  0  0  0  0
   -2.6249   -3.3909    0.0203 C   0  0  0  0  0  0  0  0  0  0  0  0
   -3.4085   -2.8499    0.5559 H   0  0  0  0  0  0  0  0  0  0  0  0
   -2.9246   -3.5191   -1.0226 H   0  0  0  0  0  0  0  0  0  0  0  0
   -1.3181   -2.6233    0.0956 C   0  0  0  0  0  0  0  0  0  0  0  0
   -0.3641   -3.1211    0.6619 O   0  0  0  0  0  0  0  0  0  0  0  0
   -1.2295   -1.3726   -0.4846 N   0  0  0  0  0  0  0  0  0  0  0  0
   -2.0367   -1.0655   -1.0162 H   0  0  0  0  0  0  0  0  0  0  0  0
    0.0097   -0.5722   -0.5717 C   0  0  1  0  0  0  0  0  0  0  0  0
    0.7636   -1.1298   -1.1390 H   0  0  0  0  0  0  0  0  0  0  0  0
   -0.3852    0.7008   -1.3542 C   0  0  0  0  0  0  0  0  0  0  0  0
   -1.0023    0.4207   -2.2127 H   0  0  0  0  0  0  0  0  0  0  0  0
   -0.9854    1.3459   -0.7064 H   0  0  0  0  0  0  0  0  0  0  0  0
    0.7736    1.5051   -1.8784 C   0  0  0  0  0  0  0  0  0  0  0  0
    2.0974    1.3861   -1.4933 N   0  0  0  0  0  0  0  0  0  0  0  0
    2.7856    2.2553   -2.1893 C   0  0  0  0  0  0  0  0  0  0  0  0
    3.8586    2.4055   -2.1106 H   0  0  0  0  0  0  0  0  0  0  0  0
    1.9387    2.9446   -3.0360 N   0  0  0  0  0  0  0  0  0  0  0  0
    2.2257    3.6754   -3.6843 H   0  0  0  0  0  0  0  0  0  0  0  0
    0.6580    2.4686   -2.8431 C   0  0  0  0  0  0  0  0  0  0  0  0
   -0.2538    2.7817   -3.3420 H   0  0  0  0  0  0  0  0  0  0  0  0
    0.6142   -0.2365    0.8189 C   0  0  0  0  0  0  0  0  0  0  0  0
    1.8039   -0.3918    1.0613 O   0  0  0  0  0  0  0  0  0  0  0  0
   -0.2198    0.2039    1.8344 N   0  0  0  0  0  0  0  0  0  0  0  0
   -1.2150    0.1384    1.6553 H   0  0  0  0  0  0  0  0  0  0  0  0
    0.2344    0.3661    3.2097 C   0  0  0  0  0  0  0  0  0  0  0  0
    1.0624    1.0812    3.2580 H   0  0  0  0  0  0  0  0  0  0  0  0
   -0.5803    0.7407    3.8361 H   0  0  0  0  0  0  0  0  0  0  0  0
    0.5737   -0.5929    3.6152 H   0  0  0  0  0  0  0  0  0  0  0  0
  1  2  1  0  0  0  0
  2  3  1  0  0  0  0
  2  4  1  0  0  0  0
  2  5  1  0  0  0  0
  5  6  2  0  0  0  0
  5  7  1  0  0  0  0
  7  8  1  0  0  0  0
  7  9  1  0  0  0  0
  9 10  1  0  0  0  0
  9 11  1  0  0  0  0
  9 22  1  0  0  0  0
 11 12  1  0  0  0  0
 11 13  1  0  0  0  0
 11 14  1  0  0  0  0
 14 15  1  0  0  0  0
 14 20  2  0  0  0  0
 15 16  2  0  0  0  0
 16 17  1  0  0  0  0
 16 18  1  0  0  0  0
 18 19  1  0  0  0  0
 18 20  1  0  0  0  0
 20 21  1  0  0  0  0
 22 23  2  0  0  0  0
 22 24  1  0  0  0  0
 24 25  1  0  0  0  0
 24 26  1  0  0  0  0
 26 27  1  0  0  0  0
 26 28  1  0  0  0  0
 26 29  1  0  0  0  0
M  END
$$$$

  -OEChem-04042215593D

 29 29  0     1  0  0  0  0  0999 V2000
   -2.5025   -4.3992    0.4744 H   0  0  0  0  0  0  0  0  0  0  0  0
   -2.6276   -3.4147    0.0144 C   0  0  0  0  0  0  0  0  0  0  0  0
   -3.4290   -2.8833    0.5329 H   0  0  0  0  0  0  0  0  0  0  0  0
   -2.9054   -3.5509   -1.0335 H   0  0  0  0  0  0  0  0  0  0  0  0
   -1.3344   -2.6271    0.1120 C   0  0  0  0  0  0  0  0  0  0  0  0
   -0.3889   -3.0997    0.7136 O   0  0  0  0  0  0  0  0  0  0  0  0
   -1.2523   -1.3819   -0.4806 N   0  0  0  0  0  0  0  0  0  0  0  0
   -2.0450   -1.1069   -1.0504 H   0  0  0  0  0  0  0  0  0  0  0  0
   -0.0125   -0.5853   -0.5880 C   0  0  1  0  0  0  0  0  0  0  0  0
    0.7315   -1.1491   -1.1625 H   0  0  0  0  0  0  0  0  0  0  0  0
   -0.4060    0.6936   -1.3596 C   0  0  0  0  0  0  0  0  0  0  0  0
   -1.0223    0.4138   -2.2186 H   0  0  0  0  0  0  0  0  0  0  0  0
   -1.0052    1.3423   -0.7141 H   0  0  0  0  0  0  0  0  0  0  0  0
    0.7580    1.4824   -1.8946 C   0  0  0  0  0  0  0  0  0  0  0  0
    2.0978    1.1611   -1.7556 N   0  0  0  0  0  0  0  0  0  0  0  0
    2.7862    2.1198   -2.3220 C   0  0  0  0  0  0  0  0  0  0  0  0
    3.8707    2.1596   -2.3730 H   0  0  0  0  0  0  0  0  0  0  0  0
    1.9235    3.0651   -2.8435 N   0  0  0  0  0  0  0  0  0  0  0  0
    2.2083    3.9155   -3.3255 H   0  0  0  0  0  0  0  0  0  0  0  0
    0.6316    2.6650   -2.5705 C   0  0  0  0  0  0  0  0  0  0  0  0
   -0.2939    3.1749   -2.8193 H   0  0  0  0  0  0  0  0  0  0  0  0
    0.6098   -0.2383    0.7920 C   0  0  0  0  0  0  0  0  0  0  0  0
    1.8114   -0.3319    1.0048 O   0  0  0  0  0  0  0  0  0  0  0  0
   -0.2124    0.2125    1.8125 N   0  0  0  0  0  0  0  0  0  0  0  0
   -1.2085    0.1020    1.6605 H   0  0  0  0  0  0  0  0  0  0  0  0
    0.2666    0.4196    3.1733 C   0  0  0  0  0  0  0  0  0  0  0  0
    1.0800    1.1527    3.1856 H   0  0  0  0  0  0  0  0  0  0  0  0
   -0.5428    0.7935    3.8072 H   0  0  0  0  0  0  0  0  0  0  0  0
    0.6340   -0.5216    3.5956 H   0  0  0  0  0  0  0  0  0  0  0  0
  1  2  1  0  0  0  0
  2  3  1  0  0  0  0
  2  4  1  0  0  0  0
  2  5  1  0  0  0  0
  5  6  2  0  0  0  0
  5  7  1  0  0  0  0
  7  8  1  0  0  0  0
  7  9  1  0  0  0  0
  9 10  1  0  0  0  0
  9 11  1  0  0  0  0
  9 22  1  0  0  0  0
 11 12  1  0  0  0  0
 11 13  1  0  0  0  0
 11 14  1  0  0  0  0
 14 15  1  0  0  0  0
 14 20  2  0  0  0  0
 15 16  2  0  0  0  0
 16 17  1  0  0  0  0
 16 18  1  0  0  0  0
 18 19  1  0  0  0  0
 18 20  1  0  0  0  0
 20 21  1  0  0  0  0
 22 23  2  0  0  0  0
 22 24  1  0  0  0  0
 24 25  1  0  0  0  0
 24 26  1  0  0  0  0
 26 27  1  0  0  0  0
 26 28  1  0  0  0  0
 26 29  1  0  0  0  0
M  END
$$$$

  -OEChem-04042215593D

 29 29  0     1  0  0  0  0  0999 V2000
   -2.4588   -4.4425    0.4484 H   0  0  0  0  0  0  0  0  0  0  0  0
   -2.6117   -3.4550    0.0032 C   0  0  0  0  0  0  0  0  0  0  0  0
   -3.4312   -2.9564    0.5263 H   0  0  0  0  0  0  0  0  0  0  0  0
   -2.8813   -3.5833   -1.0478 H   0  0  0  0  0  0  0  0  0  0  0  0
   -1.3435   -2.6300    0.1186 C   0  0  0  0  0  0  0  0  0  0  0  0
   -0.3972   -3.0704    0.7432 O   0  0  0  0  0  0  0  0  0  0  0  0
   -1.2861   -1.3852   -0.4782 N   0  0  0  0  0  0  0  0  0  0  0  0
   -2.0704   -1.1457   -1.0751 H   0  0  0  0  0  0  0  0  0  0  0  0
   -0.0542   -0.5796   -0.6070 C   0  0  1  0  0  0  0  0  0  0  0  0
    0.6804   -1.1431   -1.1941 H   0  0  0  0  0  0  0  0  0  0  0  0
   -0.4540    0.7061   -1.3623 C   0  0  0  0  0  0  0  0  0  0  0  0
   -1.0726    0.4306   -2.2207 H   0  0  0  0  0  0  0  0  0  0  0  0
   -1.0505    1.3533   -0.7125 H   0  0  0  0  0  0  0  0  0  0  0  0
    0.7165    1.4822   -1.9015 C   0  0  0  0  0  0  0  0  0  0  0  0
    2.0108    1.0036   -2.0338 N   0  0  0  0  0  0  0  0  0  0  0  0
    2.7475    2.0018   -2.4533 C   0  0  0  0  0  0  0  0  0  0  0  0
    3.8153    1.9479   -2.6447 H   0  0  0  0  0  0  0  0  0  0  0  0
    1.9604    3.1260   -2.6166 N   0  0  0  0  0  0  0  0  0  0  0  0
    2.2983    4.0392   -2.9141 H   0  0  0  0  0  0  0  0  0  0  0  0
    0.6683    2.8020   -2.2574 C   0  0  0  0  0  0  0  0  0  0  0  0
   -0.2021    3.4499   -2.2322 H   0  0  0  0  0  0  0  0  0  0  0  0
    0.5943   -0.2219    0.7571 C   0  0  0  0  0  0  0  0  0  0  0  0
    1.8071   -0.2348    0.9212 O   0  0  0  0  0  0  0  0  0  0  0  0
   -0.2113    0.2261    1.7915 N   0  0  0  0  0  0  0  0  0  0  0  0
   -1.2051    0.0593    1.6790 H   0  0  0  0  0  0  0  0  0  0  0  0
    0.3036    0.4828    3.1305 C   0  0  0  0  0  0  0  0  0  0  0  0
    1.0889    1.2453    3.0998 H   0  0  0  0  0  0  0  0  0  0  0  0
   -0.4985    0.8417    3.7820 H   0  0  0  0  0  0  0  0  0  0  0  0
    0.7189   -0.4343    3.5614 H   0  0  0  0  0  0  0  0  0  0  0  0
  1  2  1  0  0  0  0
  2  3  1  0  0  0  0
  2  4  1  0  0  0  0
  2  5  1  0  0  0  0
  5  6  2  0  0  0  0
  5  7  1  0  0  0  0
  7  8  1  0  0  0  0
  7  9  1  0  0  0  0
  9 10  1  0  0  0  0
  9 11  1  0  0  0  0
  9 22  1  0  0  0  0
 11 12  1  0  0  0  0
 11 13  1  0  0  0  0
 11 14  1  0  0  0  0
 14 15  1  0  0  0  0
 14 20  2  0  0  0  0
 15 16  2  0  0  0  0
 16 17  1  0  0  0  0
 16 18  1  0  0  0  0
 18 19  1  0  0  0  0
 18 20  1  0  0  0  0
 20 21  1  0  0  0  0
 22 23  2  0  0  0  0
 22 24  1  0  0  0  0
 24 25  1  0  0  0  0
 24 26  1  0  0  0  0
 26 27  1  0  0  0  0
 26 28  1  0  0  0  0
 26 29  1  0  0  0  0
M  END
$$$$

  -OEChem-04042215593D

 29 29  0     1  0  0  0  0  0999 V2000
   -2.4320   -4.4618    0.4448 H   0  0  0  0  0  0  0  0  0  0  0  0
   -2.5925   -3.4863   -0.0237 C   0  0  0  0  0  0  0  0  0  0  0  0
   -3.4344   -2.9941    0.4688 H   0  0  0  0  0  0  0  0  0  0  0  0
   -2.8331   -3.6404   -1.0783 H   0  0  0  0  0  0  0  0  0  0  0  0
   -1.3439   -2.6338    0.1051 C   0  0  0  0  0  0  0  0  0  0  0  0
   -0.3917   -3.0549    0.7345 O   0  0  0  0  0  0  0  0  0  0  0  0
   -1.3112   -1.3826   -0.4795 N   0  0  0  0  0  0  0  0  0  0  0  0
   -2.0954   -1.1590   -1.0829 H   0  0  0  0  0  0  0  0  0  0  0  0
   -0.0909   -0.5609   -0.6143 C   0  0  1  0  0  0  0  0  0  0  0  0
    0.6401   -1.1163   -1.2133 H   0  0  0  0  0  0  0  0  0  0  0  0
   -0.5012    0.7292   -1.3534 C   0  0  0  0  0  0  0  0  0  0  0  0
   -1.1191    0.4605   -2.2144 H   0  0  0  0  0  0  0  0  0  0  0  0
   -1.0983    1.3685   -0.6969 H   0  0  0  0  0  0  0  0  0  0  0  0
    0.6748    1.5013   -1.8837 C   0  0  0  0  0  0  0  0  0  0  0  0
    1.8756    0.9385   -2.2907 N   0  0  0  0  0  0  0  0  0  0  0  0
    2.6768    1.9318   -2.5870 C   0  0  0  0  0  0  0  0  0  0  0  0
    3.7026    1.8216   -2.9271 H   0  0  0  0  0  0  0  0  0  0  0  0
    2.0205    3.1348   -2.4057 N   0  0  0  0  0  0  0  0  0  0  0  0
    2.4359    4.0544   -2.5405 H   0  0  0  0  0  0  0  0  0  0  0  0
    0.7472    2.8653   -1.9488 C   0  0  0  0  0  0  0  0  0  0  0  0
   -0.0273    3.5714   -1.6660 H   0  0  0  0  0  0  0  0  0  0  0  0
    0.5794   -0.2030    0.7378 C   0  0  0  0  0  0  0  0  0  0  0  0
    1.7965   -0.1402    0.8531 O   0  0  0  0  0  0  0  0  0  0  0  0
   -0.2102    0.2282    1.7911 N   0  0  0  0  0  0  0  0  0  0  0  0
   -1.1985    0.0136    1.7141 H   0  0  0  0  0  0  0  0  0  0  0  0
    0.3350    0.5306    3.1084 C   0  0  0  0  0  0  0  0  0  0  0  0
    1.0836    1.3270    3.0402 H   0  0  0  0  0  0  0  0  0  0  0  0
   -0.4617    0.8648    3.7794 H   0  0  0  0  0  0  0  0  0  0  0  0
    0.8051   -0.3590    3.5408 H   0  0  0  0  0  0  0  0  0  0  0  0
  1  2  1  0  0  0  0
  2  3  1  0  0  0  0
  2  4  1  0  0  0  0
  2  5  1  0  0  0  0
  5  6  2  0  0  0  0
  5  7  1  0  0  0  0
  7  8  1  0  0  0  0
  7  9  1  0  0  0  0
  9 10  1  0  0  0  0
  9 11  1  0  0  0  0
  9 22  1  0  0  0  0
 11 12  1  0  0  0  0
 11 13  1  0  0  0  0
 11 14  1  0  0  0  0
 14 15  1  0  0  0  0
 14 20  2  0  0  0  0
 15 16  2  0  0  0  0
 16 17  1  0  0  0  0
 16 18  1  0  0  0  0
 18 19  1  0  0  0  0
 18 20  1  0  0  0  0
 20 21  1  0  0  0  0
 22 23  2  0  0  0  0
 22 24  1  0  0  0  0
 24 25  1  0  0  0  0
 24 26  1  0  0  0  0
 26 27  1  0  0  0  0
 26 28  1  0  0  0  0
 26 29  1  0  0  0  0
M  END
$$$$

  -OEChem-04042215593D

 29 29  0     1  0  0  0  0  0999 V2000
   -2.3971   -4.4729    0.4301 H   0  0  0  0  0  0  0  0  0  0  0  0
   -2.5667   -3.5062   -0.0530 C   0  0  0  0  0  0  0  0  0  0  0  0
   -3.4274   -3.0250    0.4175 H   0  0  0  0  0  0  0  0  0  0  0  0
   -2.7836   -3.6760   -1.1103 H   0  0  0  0  0  0  0  0  0  0  0  0
   -1.3367   -2.6291    0.0905 C   0  0  0  0  0  0  0  0  0  0  0  0
   -0.3814   -3.0329    0.7270 O   0  0  0  0  0  0  0  0  0  0  0  0
   -1.3271   -1.3710   -0.4795 N   0  0  0  0  0  0  0  0  0  0  0  0
   -2.1097   -1.1612   -1.0903 H   0  0  0  0  0  0  0  0  0  0  0  0
   -0.1188   -0.5329   -0.6129 C   0  0  1  0  0  0  0  0  0  0  0  0
    0.6126   -1.0761   -1.2225 H   0  0  0  0  0  0  0  0  0  0  0  0
   -0.5395    0.7597   -1.3382 C   0  0  0  0  0  0  0  0  0  0  0  0
   -1.1586    0.5029   -2.2021 H   0  0  0  0  0  0  0  0  0  0  0  0
   -1.1341    1.3916   -0.6723 H   0  0  0  0  0  0  0  0  0  0  0  0
    0.6451    1.5263   -1.8521 C   0  0  0  0  0  0  0  0  0  0  0  0
    1.7141    0.9493   -2.5229 N   0  0  0  0  0  0  0  0  0  0  0  0
    2.5855    1.9071   -2.7264 C   0  0  0  0  0  0  0  0  0  0  0  0
    3.5457    1.7775   -3.2175 H   0  0  0  0  0  0  0  0  0  0  0  0
    2.0989    3.1020   -2.2294 N   0  0  0  0  0  0  0  0  0  0  0  0
    2.6025    3.9866   -2.2340 H   0  0  0  0  0  0  0  0  0  0  0  0
    0.8641    2.8624   -1.6643 C   0  0  0  0  0  0  0  0  0  0  0  0
    0.2155    3.5614   -1.1454 H   0  0  0  0  0  0  0  0  0  0  0  0
    0.5642   -0.1778    0.7324 C   0  0  0  0  0  0  0  0  0  0  0  0
    1.7804   -0.0641    0.8151 O   0  0  0  0  0  0  0  0  0  0  0  0
   -0.2156    0.2340    1.8002 N   0  0  0  0  0  0  0  0  0  0  0  0
   -1.1974   -0.0150    1.7456 H   0  0  0  0  0  0  0  0  0  0  0  0
    0.3488    0.5493    3.1063 C   0  0  0  0  0  0  0  0  0  0  0  0
    1.0666    1.3725    3.0256 H   0  0  0  0  0  0  0  0  0  0  0  0
   -0.4436    0.8507    3.7978 H   0  0  0  0  0  0  0  0  0  0  0  0
    0.8603   -0.3254    3.5219 H   0  0  0  0  0  0  0  0  0  0  0  0
  1  2  1  0  0  0  0
  2  3  1  0  0  0  0
  2  4  1  0  0  0  0
  2  5  1  0  0  0  0
  5  6  2  0  0  0  0
  5  7  1  0  0  0  0
  7  8  1  0  0  0  0
  7  9  1  0  0  0  0
  9 10  1  0  0  0  0
  9 11  1  0  0  0  0
  9 22  1  0  0  0  0
 11 12  1  0  0  0  0
 11 13  1  0  0  0  0
 11 14  1  0  0  0  0
 14 15  1  0  0  0  0
 14 20  2  0  0  0  0
 15 16  2  0  0  0  0
 16 17  1  0  0  0  0
 16 18  1  0  0  0  0
 18 19  1  0  0  0  0
 18 20  1  0  0  0  0
 20 21  1  0  0  0  0
 22 23  2  0  0  0  0
 22 24  1  0  0  0  0
 24 25  1  0  0  0  0
 24 26  1  0  0  0  0
 26 27  1  0  0  0  0
 26 28  1  0  0  0  0
 26 29  1  0  0  0  0
M  END
$$$$

  -OEChem-04042215593D

 29 29  0     1  0  0  0  0  0999 V2000
   -2.3517   -4.4960    0.3598 H   0  0  0  0  0  0  0  0  0  0  0  0
   -2.5449   -3.5144   -0.0827 C   0  0  0  0  0  0  0  0  0  0  0  0
   -3.4080   -3.0673    0.4161 H   0  0  0  0  0  0  0  0  0  0  0  0
   -2.7716   -3.6473   -1.1433 H   0  0  0  0  0  0  0  0  0  0  0  0
   -1.3294   -2.6210    0.0806 C   0  0  0  0  0  0  0  0  0  0  0  0
   -0.3709   -3.0193    0.7159 O   0  0  0  0  0  0  0  0  0  0  0  0
   -1.3332   -1.3567   -0.4758 N   0  0  0  0  0  0  0  0  0  0  0  0
   -2.1130   -1.1526   -1.0925 H   0  0  0  0  0  0  0  0  0  0  0  0
   -0.1315   -0.5087   -0.6008 C   0  0  1  0  0  0  0  0  0  0  0  0
    0.6037   -1.0408   -1.2161 H   0  0  0  0  0  0  0  0  0  0  0  0
   -0.5564    0.7854   -1.3177 C   0  0  0  0  0  0  0  0  0  0  0  0
   -1.1761    0.5416   -2.1849 H   0  0  0  0  0  0  0  0  0  0  0  0
   -1.1476    1.4134   -0.6447 H   0  0  0  0  0  0  0  0  0  0  0  0
    0.6385    1.5448   -1.8129 C   0  0  0  0  0  0  0  0  0  0  0  0
    1.5490    1.0247   -2.7218 N   0  0  0  0  0  0  0  0  0  0  0  0
    2.4822    1.9342   -2.8677 C   0  0  0  0  0  0  0  0  0  0  0  0
    3.3563    1.8287   -3.5039 H   0  0  0  0  0  0  0  0  0  0  0  0
    2.1863    3.0451   -2.0995 N   0  0  0  0  0  0  0  0  0  0  0  0
    2.7765    3.8698   -2.0103 H   0  0  0  0  0  0  0  0  0  0  0  0
    1.0101    2.8003   -1.4228 C   0  0  0  0  0  0  0  0  0  0  0  0
    0.5014    3.4365   -0.7053 H   0  0  0  0  0  0  0  0  0  0  0  0
    0.5527   -0.1617    0.7455 C   0  0  0  0  0  0  0  0  0  0  0  0
    1.7675   -0.0258    0.8162 O   0  0  0  0  0  0  0  0  0  0  0  0
   -0.2247    0.2339    1.8209 N   0  0  0  0  0  0  0  0  0  0  0  0
   -1.2040   -0.0268    1.7712 H   0  0  0  0  0  0  0  0  0  0  0  0
    0.3441    0.5485    3.1254 C   0  0  0  0  0  0  0  0  0  0  0  0
    1.0609    1.3723    3.0434 H   0  0  0  0  0  0  0  0  0  0  0  0
   -0.4463    0.8486    3.8197 H   0  0  0  0  0  0  0  0  0  0  0  0
    0.8579   -0.3257    3.5388 H   0  0  0  0  0  0  0  0  0  0  0  0
  1  2  1  0  0  0  0
  2  3  1  0  0  0  0
  2  4  1  0  0  0  0
  2  5  1  0  0  0  0
  5  6  2  0  0  0  0
  5  7  1  0  0  0  0
  7  8  1  0  0  0  0
  7  9  1  0  0  0  0
  9 10  1  0  0  0  0
  9 11  1  0  0  0  0
  9 22  1  0  0  0  0
 11 12  1  0  0  0  0
 11 13  1  0  0  0  0
 11 14  1  0  0  0  0
 14 15  1  0  0  0  0
 14 20  2  0  0  0  0
 15 16  2  0  0  0  0
 16 17  1  0  0  0  0
 16 18  1  0  0  0  0
 18 19  1  0  0  0  0
 18 20  1  0  0  0  0
 20 21  1  0  0  0  0
 22 23  2  0  0  0  0
 22 24  1  0  0  0  0
 24 25  1  0  0  0  0
 24 26  1  0  0  0  0
 26 27  1  0  0  0  0
 26 28  1  0  0  0  0
 26 29  1  0  0  0  0
M  END
$$$$

  -OEChem-04042215593D

 29 29  0     1  0  0  0  0  0999 V2000
   -2.3489   -4.4946    0.3368 H   0  0  0  0  0  0  0  0  0  0  0  0
   -2.5418   -3.5092   -0.0969 C   0  0  0  0  0  0  0  0  0  0  0  0
   -3.4059   -3.0673    0.4047 H   0  0  0  0  0  0  0  0  0  0  0  0
   -2.7672   -3.6322   -1.1589 H   0  0  0  0  0  0  0  0  0  0  0  0
   -1.3274   -2.6163    0.0764 C   0  0  0  0  0  0  0  0  0  0  0  0
   -0.3698   -3.0175    0.7114 O   0  0  0  0  0  0  0  0  0  0  0  0
   -1.3299   -1.3487   -0.4722 N   0  0  0  0  0  0  0  0  0  0  0  0
   -2.1091   -1.1398   -1.0882 H   0  0  0  0  0  0  0  0  0  0  0  0
   -0.1287   -0.4990   -0.5875 C   0  0  1  0  0  0  0  0  0  0  0  0
    0.6096   -1.0269   -1.2026 H   0  0  0  0  0  0  0  0  0  0  0  0
   -0.5488    0.7954   -1.3048 C   0  0  0  0  0  0  0  0  0  0  0  0
   -1.1692    0.5607   -2.1740 H   0  0  0  0  0  0  0  0  0  0  0  0
   -1.1369    1.4239   -0.6296 H   0  0  0  0  0  0  0  0  0  0  0  0
    0.6530    1.5510   -1.7870 C   0  0  0  0  0  0  0  0  0  0  0  0
    1.3949    1.1633   -2.8937 N   0  0  0  0  0  0  0  0  0  0  0  0
    2.3773    2.0267   -2.9943 C   0  0  0  0  0  0  0  0  0  0  0  0
    3.1544    1.9954   -3.7526 H   0  0  0  0  0  0  0  0  0  0  0  0
    2.2752    2.9824   -2.0004 N   0  0  0  0  0  0  0  0  0  0  0  0
    2.9417    3.7348   -1.8391 H   0  0  0  0  0  0  0  0  0  0  0  0
    1.1729    2.6840   -1.2283 C   0  0  0  0  0  0  0  0  0  0  0  0
    0.8095    3.1992   -0.3444 H   0  0  0  0  0  0  0  0  0  0  0  0
    0.5498   -0.1600    0.7632 C   0  0  0  0  0  0  0  0  0  0  0  0
    1.7642   -0.0203    0.8353 O   0  0  0  0  0  0  0  0  0  0  0  0
   -0.2311    0.2283    1.8385 N   0  0  0  0  0  0  0  0  0  0  0  0
   -1.2100   -0.0339    1.7841 H   0  0  0  0  0  0  0  0  0  0  0  0
    0.3338    0.5297    3.1478 C   0  0  0  0  0  0  0  0  0  0  0  0
    1.0540    1.3515    3.0765 H   0  0  0  0  0  0  0  0  0  0  0  0
   -0.4584    0.8265    3.8417 H   0  0  0  0  0  0  0  0  0  0  0  0
    0.8430   -0.3502    3.5551 H   0  0  0  0  0  0  0  0  0  0  0  0
  1  2  1  0  0  0  0
  2  3  1  0  0  0  0
  2  4  1  0  0  0  0
  2  5  1  0  0  0  0
  5  6  2  0  0  0  0
  5  7  1  0  0  0  0
  7  8  1  0  0  0  0
  7  9  1  0  0  0  0
  9 10  1  0  0  0  0
  9 11  1  0  0  0  0
  9 22  1  0  0  0  0
 11 12  1  0  0  0  0
 11 13  1  0  0  0  0
 11 14  1  0  0  0  0
 14 15  1  0  0  0  0
 14 20  2  0  0  0  0
 15 16  2  0  0  0  0
 16 17  1  0  0  0  0
 16 18  1  0  0  0  0
 18 19  1  0  0  0  0
 18 20  1  0  0  0  0
 20 21  1  0  0  0  0
 22 23  2  0  0  0  0
 22 24  1  0  0  0  0
 24 25  1  0  0  0  0
 24 26  1  0  0  0  0
 26 27  1  0  0  0  0
 26 28  1  0  0  0  0
 26 29  1  0  0  0  0
M  END
$$$$

  -OEChem-04042215593D

 29 29  0     1  0  0  0  0  0999 V2000
   -2.3847   -4.4787    0.3418 H   0  0  0  0  0  0  0  0  0  0  0  0
   -2.5605   -3.4931   -0.0990 C   0  0  0  0  0  0  0  0  0  0  0  0
   -3.4192   -3.0340    0.3966 H   0  0  0  0  0  0  0  0  0  0  0  0
   -2.7841   -3.6196   -1.1610 H   0  0  0  0  0  0  0  0  0  0  0  0
   -1.3322   -2.6190    0.0727 C   0  0  0  0  0  0  0  0  0  0  0  0
   -0.3777   -3.0361    0.7020 O   0  0  0  0  0  0  0  0  0  0  0  0
   -1.3169   -1.3496   -0.4711 N   0  0  0  0  0  0  0  0  0  0  0  0
   -2.0951   -1.1237   -1.0825 H   0  0  0  0  0  0  0  0  0  0  0  0
   -0.1083   -0.5090   -0.5720 C   0  0  1  0  0  0  0  0  0  0  0  0
    0.6329   -1.0395   -1.1814 H   0  0  0  0  0  0  0  0  0  0  0  0
   -0.5168    0.7856   -1.2955 C   0  0  0  0  0  0  0  0  0  0  0  0
   -1.1363    0.5534   -2.1665 H   0  0  0  0  0  0  0  0  0  0  0  0
   -1.1058    1.4159   -0.6231 H   0  0  0  0  0  0  0  0  0  0  0  0
    0.6844    1.5467   -1.7722 C   0  0  0  0  0  0  0  0  0  0  0  0
    1.2503    1.3502   -3.0242 N   0  0  0  0  0  0  0  0  0  0  0  0
    2.2697    2.1729   -3.0978 C   0  0  0  0  0  0  0  0  0  0  0  0
    2.9381    2.2571   -3.9498 H   0  0  0  0  0  0  0  0  0  0  0  0
    2.3644    2.9183   -1.9374 N   0  0  0  0  0  0  0  0  0  0  0  0
    3.0938    3.5986   -1.7332 H   0  0  0  0  0  0  0  0  0  0  0  0
    1.3493    2.5266   -1.0911 C   0  0  0  0  0  0  0  0  0  0  0  0
    1.1353    2.8790   -0.0863 H   0  0  0  0  0  0  0  0  0  0  0  0
    0.5566   -0.1816    0.7882 C   0  0  0  0  0  0  0  0  0  0  0  0
    1.7713   -0.0536    0.8747 O   0  0  0  0  0  0  0  0  0  0  0  0
   -0.2324    0.2083    1.8569 N   0  0  0  0  0  0  0  0  0  0  0  0
   -1.2141   -0.0404    1.7899 H   0  0  0  0  0  0  0  0  0  0  0  0
    0.3194    0.5062    3.1728 C   0  0  0  0  0  0  0  0  0  0  0  0
    1.0407    1.3277    3.1104 H   0  0  0  0  0  0  0  0  0  0  0  0
   -0.4795    0.8021    3.8591 H   0  0  0  0  0  0  0  0  0  0  0  0
    0.8235   -0.3749    3.5838 H   0  0  0  0  0  0  0  0  0  0  0  0
  1  2  1  0  0  0  0
  2  3  1  0  0  0  0
  2  4  1  0  0  0  0
  2  5  1  0  0  0  0
  5  6  2  0  0  0  0
  5  7  1  0  0  0  0
  7  8  1  0  0  0  0
  7  9  1  0  0  0  0
  9 10  1  0  0  0  0
  9 11  1  0  0  0  0
  9 22  1  0  0  0  0
 11 12  1  0  0  0  0
 11 13  1  0  0  0  0
 11 14  1  0  0  0  0
 14 15  1  0  0  0  0
 14 20  2  0  0  0  0
 15 16  2  0  0  0  0
 16 17  1  0  0  0  0
 16 18  1  0  0  0  0
 18 19  1  0  0  0  0
 18 20  1  0  0  0  0
 20 21  1  0  0  0  0
 22 23  2  0  0  0  0
 22 24  1  0  0  0  0
 24 25  1  0  0  0  0
 24 26  1  0  0  0  0
 26 27  1  0  0  0  0
 26 28  1  0  0  0  0
 26 29  1  0  0  0  0
M  END
$$$$

  -OEChem-04042215593D

 29 29  0     1  0  0  0  0  0999 V2000
   -2.4153   -4.4612    0.3529 H   0  0  0  0  0  0  0  0  0  0  0  0
   -2.5771   -3.4731   -0.0876 C   0  0  0  0  0  0  0  0  0  0  0  0
   -3.4248   -2.9994    0.4131 H   0  0  0  0  0  0  0  0  0  0  0  0
   -2.8100   -3.5969   -1.1480 H   0  0  0  0  0  0  0  0  0  0  0  0
   -1.3335   -2.6189    0.0757 C   0  0  0  0  0  0  0  0  0  0  0  0
   -0.3813   -3.0524    0.6974 O   0  0  0  0  0  0  0  0  0  0  0  0
   -1.2995   -1.3501   -0.4693 N   0  0  0  0  0  0  0  0  0  0  0  0
   -2.0777   -1.1078   -1.0745 H   0  0  0  0  0  0  0  0  0  0  0  0
   -0.0823   -0.5202   -0.5579 C   0  0  1  0  0  0  0  0  0  0  0  0
    0.6629   -1.0570   -1.1566 H   0  0  0  0  0  0  0  0  0  0  0  0
   -0.4776    0.7735   -1.2936 C   0  0  0  0  0  0  0  0  0  0  0  0
   -1.0923    0.5339   -2.1661 H   0  0  0  0  0  0  0  0  0  0  0  0
   -1.0730    1.4079   -0.6308 H   0  0  0  0  0  0  0  0  0  0  0  0
    0.7169    1.5472   -1.7727 C   0  0  0  0  0  0  0  0  0  0  0  0
    1.0991    1.5759   -3.1073 N   0  0  0  0  0  0  0  0  0  0  0  0
    2.1585    2.3475   -3.1704 C   0  0  0  0  0  0  0  0  0  0  0  0
    2.7126    2.5667   -4.0785 H   0  0  0  0  0  0  0  0  0  0  0  0
    2.4612    2.8417   -1.9161 N   0  0  0  0  0  0  0  0  0  0  0  0
    3.2572    3.4359   -1.6930 H   0  0  0  0  0  0  0  0  0  0  0  0
    1.5384    2.3416   -1.0234 C   0  0  0  0  0  0  0  0  0  0  0  0
    1.4841    2.5032    0.0500 H   0  0  0  0  0  0  0  0  0  0  0  0
    0.5620   -0.2028    0.8143 C   0  0  0  0  0  0  0  0  0  0  0  0
    1.7776   -0.1077    0.9268 O   0  0  0  0  0  0  0  0  0  0  0  0
   -0.2392    0.1921    1.8717 N   0  0  0  0  0  0  0  0  0  0  0  0
   -1.2258   -0.0283    1.7814 H   0  0  0  0  0  0  0  0  0  0  0  0
    0.2928    0.4630    3.2013 C   0  0  0  0  0  0  0  0  0  0  0  0
    1.0363    1.2660    3.1622 H   0  0  0  0  0  0  0  0  0  0  0  0
   -0.5121    0.7727    3.8744 H   0  0  0  0  0  0  0  0  0  0  0  0
    0.7654   -0.4352    3.6127 H   0  0  0  0  0  0  0  0  0  0  0  0
  1  2  1  0  0  0  0
  2  3  1  0  0  0  0
  2  4  1  0  0  0  0
  2  5  1  0  0  0  0
  5  6  2  0  0  0  0
  5  7  1  0  0  0  0
  7  8  1  0  0  0  0
  7  9  1  0  0  0  0
  9 10  1  0  0  0  0
  9 11  1  0  0  0  0
  9 22  1  0  0  0  0
 11 12  1  0  0  0  0
 11 13  1  0  0  0  0
 11 14  1  0  0  0  0
 14 15  1  0  0  0  0
 14 20  2  0  0  0  0
 15 16  2  0  0  0  0
 16 17  1  0  0  0  0
 16 18  1  0  0  0  0
 18 19  1  0  0  0  0
 18 20  1  0  0  0  0
 20 21  1  0  0  0  0
 22 23  2  0  0  0  0
 22 24  1  0  0  0  0
 24 25  1  0  0  0  0
 24 26  1  0  0  0  0
 26 27  1  0  0  0  0
 26 28  1  0  0  0  0
 26 29  1  0  0  0  0
M  END
$$$$

  -OEChem-04042215593D

 29 29  0     1  0  0  0  0  0999 V2000
   -2.4689   -4.4318    0.3695 H   0  0  0  0  0  0  0  0  0  0  0  0
   -2.6026   -3.4454   -0.0843 C   0  0  0  0  0  0  0  0  0  0  0  0
   -3.4423   -2.9448    0.4037 H   0  0  0  0  0  0  0  0  0  0  0  0
   -2.8296   -3.5761   -1.1450 H   0  0  0  0  0  0  0  0  0  0  0  0
   -1.3393   -2.6209    0.0784 C   0  0  0  0  0  0  0  0  0  0  0  0
   -0.3937   -3.0806    0.6912 O   0  0  0  0  0  0  0  0  0  0  0  0
   -1.2762   -1.3528   -0.4657 N   0  0  0  0  0  0  0  0  0  0  0  0
   -2.0527   -1.0856   -1.0627 H   0  0  0  0  0  0  0  0  0  0  0  0
   -0.0461   -0.5400   -0.5353 C   0  0  1  0  0  0  0  0  0  0  0  0
    0.7037   -1.0861   -1.1193 H   0  0  0  0  0  0  0  0  0  0  0  0
   -0.4240    0.7526   -1.2868 C   0  0  0  0  0  0  0  0  0  0  0  0
   -1.0264    0.4968   -2.1637 H   0  0  0  0  0  0  0  0  0  0  0  0
   -1.0348    1.3902   -0.6413 H   0  0  0  0  0  0  0  0  0  0  0  0
    0.7571    1.5480   -1.7724 C   0  0  0  0  0  0  0  0  0  0  0  0
    0.9457    1.8159   -3.1228 N   0  0  0  0  0  0  0  0  0  0  0  0
    2.0385    2.5362   -3.2122 C   0  0  0  0  0  0  0  0  0  0  0  0
    2.4669    2.9016   -4.1410 H   0  0  0  0  0  0  0  0  0  0  0  0
    2.5585    2.7632   -1.9532 N   0  0  0  0  0  0  0  0  0  0  0  0
    3.4146    3.2765   -1.7518 H   0  0  0  0  0  0  0  0  0  0  0  0
    1.7405    2.1450   -1.0329 C   0  0  0  0  0  0  0  0  0  0  0  0
    1.8551    2.1177    0.0474 H   0  0  0  0  0  0  0  0  0  0  0  0
    0.5706   -0.2375    0.8530 C   0  0  0  0  0  0  0  0  0  0  0  0
    1.7853   -0.2021    1.0035 O   0  0  0  0  0  0  0  0  0  0  0  0
   -0.2455    0.1657    1.8957 N   0  0  0  0  0  0  0  0  0  0  0  0
   -1.2381   -0.0061    1.7736 H   0  0  0  0  0  0  0  0  0  0  0  0
    0.2585    0.4123    3.2408 C   0  0  0  0  0  0  0  0  0  0  0  0
    1.0197    1.1994    3.2281 H   0  0  0  0  0  0  0  0  0  0  0  0
   -0.5564    0.7334    3.8962 H   0  0  0  0  0  0  0  0  0  0  0  0
    0.7010   -0.4994    3.6560 H   0  0  0  0  0  0  0  0  0  0  0  0
  1  2  1  0  0  0  0
  2  3  1  0  0  0  0
  2  4  1  0  0  0  0
  2  5  1  0  0  0  0
  5  6  2  0  0  0  0
  5  7  1  0  0  0  0
  7  8  1  0  0  0  0
  7  9  1  0  0  0  0
  9 10  1  0  0  0  0
  9 11  1  0  0  0  0
  9 22  1  0  0  0  0
 11 12  1  0  0  0  0
 11 13  1  0  0  0  0
 11 14  1  0  0  0  0
 14 15  1  0  0  0  0
 14 20  2  0  0  0  0
 15 16  2  0  0  0  0
 16 17  1  0  0  0  0
 16 18  1  0  0  0  0
 18 19  1  0  0  0  0
 18 20  1  0  0  0  0
 20 21  1  0  0  0  0
 22 23  2  0  0  0  0
 22 24  1  0  0  0  0
 24 25  1  0  0  0  0
 24 26  1  0  0  0  0
 26 27  1  0  0  0  0
 26 28  1  0  0  0  0
 26 29  1  0  0  0  0
M  END
$$$$

  -OEChem-04042215593D

 29 29  0     1  0  0  0  0  0999 V2000
   -2.5140   -4.4007    0.3752 H   0  0  0  0  0  0  0  0  0  0  0  0
   -2.6238   -3.4108   -0.0770 C   0  0  0  0  0  0  0  0  0  0  0  0
   -3.4487   -2.8893    0.4141 H   0  0  0  0  0  0  0  0  0  0  0  0
   -2.8574   -3.5340   -1.1372 H   0  0  0  0  0  0  0  0  0  0  0  0
   -1.3398   -2.6187    0.0841 C   0  0  0  0  0  0  0  0  0  0  0  0
   -0.4062   -3.1010    0.6978 O   0  0  0  0  0  0  0  0  0  0  0  0
   -1.2445   -1.3540   -0.4635 N   0  0  0  0  0  0  0  0  0  0  0  0
   -2.0150   -1.0663   -1.0590 H   0  0  0  0  0  0  0  0  0  0  0  0
   -0.0026   -0.5570   -0.5111 C   0  0  1  0  0  0  0  0  0  0  0  0
    0.7549   -1.1097   -1.0782 H   0  0  0  0  0  0  0  0  0  0  0  0
   -0.3664    0.7339   -1.2749 C   0  0  0  0  0  0  0  0  0  0  0  0
   -0.9517    0.4587   -2.1577 H   0  0  0  0  0  0  0  0  0  0  0  0
   -0.9983    1.3696   -0.6483 H   0  0  0  0  0  0  0  0  0  0  0  0
    0.7963    1.5565   -1.7678 C   0  0  0  0  0  0  0  0  0  0  0  0
    0.7908    2.0691   -3.0600 N   0  0  0  0  0  0  0  0  0  0  0  0
    1.9150    2.7272   -3.2123 C   0  0  0  0  0  0  0  0  0  0  0  0
    2.2158    3.2420   -4.1202 H   0  0  0  0  0  0  0  0  0  0  0  0
    2.6549    2.6678   -2.0491 N   0  0  0  0  0  0  0  0  0  0  0  0
    3.5733    3.0857   -1.9113 H   0  0  0  0  0  0  0  0  0  0  0  0
    1.9470    1.9288   -1.1266 C   0  0  0  0  0  0  0  0  0  0  0  0
    2.2450    1.6938   -0.1096 H   0  0  0  0  0  0  0  0  0  0  0  0
    0.5782   -0.2625    0.8946 C   0  0  0  0  0  0  0  0  0  0  0  0
    1.7856   -0.3021    1.0947 O   0  0  0  0  0  0  0  0  0  0  0  0
   -0.2592    0.1524    1.9155 N   0  0  0  0  0  0  0  0  0  0  0  0
   -1.2535    0.0318    1.7530 H   0  0  0  0  0  0  0  0  0  0  0  0
    0.2043    0.3535    3.2826 C   0  0  0  0  0  0  0  0  0  0  0  0
    0.9956    1.1100    3.3125 H   0  0  0  0  0  0  0  0  0  0  0  0
   -0.6205    0.6943    3.9155 H   0  0  0  0  0  0  0  0  0  0  0  0
    0.5956   -0.5829    3.6942 H   0  0  0  0  0  0  0  0  0  0  0  0
  1  2  1  0  0  0  0
  2  3  1  0  0  0  0
  2  4  1  0  0  0  0
  2  5  1  0  0  0  0
  5  6  2  0  0  0  0
  5  7  1  0  0  0  0
  7  8  1  0  0  0  0
  7  9  1  0  0  0  0
  9 10  1  0  0  0  0
  9 11  1  0  0  0  0
  9 22  1  0  0  0  0
 11 12  1  0  0  0  0
 11 13  1  0  0  0  0
 11 14  1  0  0  0  0
 14 15  1  0  0  0  0
 14 20  2  0  0  0  0
 15 16  2  0  0  0  0
 16 17  1  0  0  0  0
 16 18  1  0  0  0  0
 18 19  1  0  0  0  0
 18 20  1  0  0  0  0
 20 21  1  0  0  0  0
 22 23  2  0  0  0  0
 22 24  1  0  0  0  0
 24 25  1  0  0  0  0
 24 26  1  0  0  0  0
 26 27  1  0  0  0  0
 26 28  1  0  0  0  0
 26 29  1  0  0  0  0
M  END
$$$$

  -OEChem-04042215593D

 29 29  0     1  0  0  0  0  0999 V2000
   -2.5385   -4.3813    0.3828 H   0  0  0  0  0  0  0  0  0  0  0  0
   -2.6350   -3.3872   -0.0631 C   0  0  0  0  0  0  0  0  0  0  0  0
   -3.4462   -2.8540    0.4385 H   0  0  0  0  0  0  0  0  0  0  0  0
   -2.8804   -3.5007   -1.1219 H   0  0  0  0  0  0  0  0  0  0  0  0
   -1.3357   -2.6188    0.0890 C   0  0  0  0  0  0  0  0  0  0  0  0
   -0.4052   -3.1193    0.6928 O   0  0  0  0  0  0  0  0  0  0  0  0
   -1.2210   -1.3577   -0.4627 N   0  0  0  0  0  0  0  0  0  0  0  0
   -1.9959   -1.0483   -1.0414 H   0  0  0  0  0  0  0  0  0  0  0  0
    0.0268   -0.5696   -0.4987 C   0  0  1  0  0  0  0  0  0  0  0  0
    0.7887   -1.1245   -1.0577 H   0  0  0  0  0  0  0  0  0  0  0  0
   -0.3263    0.7269   -1.2576 C   0  0  0  0  0  0  0  0  0  0  0  0
   -0.9055    0.4527   -2.1447 H   0  0  0  0  0  0  0  0  0  0  0  0
   -0.9631    1.3600   -0.6331 H   0  0  0  0  0  0  0  0  0  0  0  0
    0.8287    1.5610   -1.7507 C   0  0  0  0  0  0  0  0  0  0  0  0
    0.6733    2.3274   -2.9003 N   0  0  0  0  0  0  0  0  0  0  0  0
    1.8263    2.9074   -3.1322 C   0  0  0  0  0  0  0  0  0  0  0  0
    2.0298    3.5780   -3.9623 H   0  0  0  0  0  0  0  0  0  0  0  0
    2.7399    2.5338   -2.1680 N   0  0  0  0  0  0  0  0  0  0  0  0
    3.7121    2.8346   -2.1277 H   0  0  0  0  0  0  0  0  0  0  0  0
    2.1157    1.6693   -1.2950 C   0  0  0  0  0  0  0  0  0  0  0  0
    2.5624    1.1773   -0.4375 H   0  0  0  0  0  0  0  0  0  0  0  0
    0.5816   -0.2784    0.9193 C   0  0  0  0  0  0  0  0  0  0  0  0
    1.7813   -0.3492    1.1534 O   0  0  0  0  0  0  0  0  0  0  0  0
   -0.2755    0.1432    1.9209 N   0  0  0  0  0  0  0  0  0  0  0  0
   -1.2672    0.0488    1.7291 H   0  0  0  0  0  0  0  0  0  0  0  0
    0.1538    0.3324    3.3005 C   0  0  0  0  0  0  0  0  0  0  0  0
    0.9556    1.0764    3.3546 H   0  0  0  0  0  0  0  0  0  0  0  0
   -0.6827    0.6838    3.9119 H   0  0  0  0  0  0  0  0  0  0  0  0
    0.5188   -0.6116    3.7190 H   0  0  0  0  0  0  0  0  0  0  0  0
  1  2  1  0  0  0  0
  2  3  1  0  0  0  0
  2  4  1  0  0  0  0
  2  5  1  0  0  0  0
  5  6  2  0  0  0  0
  5  7  1  0  0  0  0
  7  8  1  0  0  0  0
  7  9  1  0  0  0  0
  9 10  1  0  0  0  0
  9 11  1  0  0  0  0
  9 22  1  0  0  0  0
 11 12  1  0  0  0  0
 11 13  1  0  0  0  0
 11 14  1  0  0  0  0
 14 15  1  0  0  0  0
 14 20  2  0  0  0  0
 15 16  2  0  0  0  0
 16 17  1  0  0  0  0
 16 18  1  0  0  0  0
 18 19  1  0  0  0  0
 18 20  1  0  0  0  0
 20 21  1  0  0  0  0
 22 23  2  0  0  0  0
 22 24  1  0  0  0  0
 24 25  1  0  0  0  0
 24 26  1  0  0  0  0
 26 27  1  0  0  0  0
 26 28  1  0  0  0  0
 26 29  1  0  0  0  0
M  END
$$$$

  -OEChem-04042215593D

 29 29  0     1  0  0  0  0  0999 V2000
   -2.5427   -4.3904    0.3934 H   0  0  0  0  0  0  0  0  0  0  0  0
   -2.6474   -3.3919   -0.0410 C   0  0  0  0  0  0  0  0  0  0  0  0
   -3.4418   -2.8599    0.4877 H   0  0  0  0  0  0  0  0  0  0  0  0
   -2.9233   -3.4948   -1.0932 H   0  0  0  0  0  0  0  0  0  0  0  0
   -1.3407   -2.6307    0.0825 C   0  0  0  0  0  0  0  0  0  0  0  0
   -0.3992   -3.1361    0.6650 O   0  0  0  0  0  0  0  0  0  0  0  0
   -1.2287   -1.3703   -0.4715 N   0  0  0  0  0  0  0  0  0  0  0  0
   -2.0152   -1.0489   -1.0274 H   0  0  0  0  0  0  0  0  0  0  0  0
    0.0181   -0.5815   -0.5094 C   0  0  1  0  0  0  0  0  0  0  0  0
    0.7768   -1.1413   -1.0675 H   0  0  0  0  0  0  0  0  0  0  0  0
   -0.3246    0.7180   -1.2655 C   0  0  0  0  0  0  0  0  0  0  0  0
   -0.9085    0.4593   -2.1538 H   0  0  0  0  0  0  0  0  0  0  0  0
   -0.9505    1.3559   -0.6345 H   0  0  0  0  0  0  0  0  0  0  0  0
    0.8442    1.5370   -1.7488 C   0  0  0  0  0  0  0  0  0  0  0  0
    0.6390    2.5378   -2.6910 N   0  0  0  0  0  0  0  0  0  0  0  0
    1.8162    3.0438   -2.9708 C   0  0  0  0  0  0  0  0  0  0  0  0
    1.9939    3.8532   -3.6730 H   0  0  0  0  0  0  0  0  0  0  0  0
    2.7921    2.3894   -2.2470 N   0  0  0  0  0  0  0  0  0  0  0  0
    3.7905    2.5854   -2.2902 H   0  0  0  0  0  0  0  0  0  0  0  0
    2.1822    1.4200   -1.4809 C   0  0  0  0  0  0  0  0  0  0  0  0
    2.6655    0.7089   -0.8174 H   0  0  0  0  0  0  0  0  0  0  0  0
    0.5799   -0.2835    0.9050 C   0  0  0  0  0  0  0  0  0  0  0  0
    1.7832   -0.3292    1.1261 O   0  0  0  0  0  0  0  0  0  0  0  0
   -0.2728    0.1412    1.9092 N   0  0  0  0  0  0  0  0  0  0  0  0
   -1.2659    0.0506    1.7237 H   0  0  0  0  0  0  0  0  0  0  0  0
    0.1655    0.3598    3.2816 C   0  0  0  0  0  0  0  0  0  0  0  0
    0.9615    1.1109    3.3156 H   0  0  0  0  0  0  0  0  0  0  0  0
   -0.6693    0.7164    3.8925 H   0  0  0  0  0  0  0  0  0  0  0  0
    0.5411   -0.5731    3.7152 H   0  0  0  0  0  0  0  0  0  0  0  0
  1  2  1  0  0  0  0
  2  3  1  0  0  0  0
  2  4  1  0  0  0  0
  2  5  1  0  0  0  0
  5  6  2  0  0  0  0
  5  7  1  0  0  0  0
  7  8  1  0  0  0  0
  7  9  1  0  0  0  0
  9 10  1  0  0  0  0
  9 11  1  0  0  0  0
  9 22  1  0  0  0  0
 11 12  1  0  0  0  0
 11 13  1  0  0  0  0
 11 14  1  0  0  0  0
 14 15  1  0  0  0  0
 14 20  2  0  0  0  0
 15 16  2  0  0  0  0
 16 17  1  0  0  0  0
 16 18  1  0  0  0  0
 18 19  1  0  0  0  0
 18 20  1  0  0  0  0
 20 21  1  0  0  0  0
 22 23  2  0  0  0  0
 22 24  1  0  0  0  0
 24 25  1  0  0  0  0
 24 26  1  0  0  0  0
 26 27  1  0  0  0  0
 26 28  1  0  0  0  0
 26 29  1  0  0  0  0
M  END
$$$$

  -OEChem-04042215593D

 29 29  0     1  0  0  0  0  0999 V2000
   -2.5258   -4.4614    0.4010 H   0  0  0  0  0  0  0  0  0  0  0  0
   -2.6700   -3.4650   -0.0269 C   0  0  0  0  0  0  0  0  0  0  0  0
   -3.4621   -2.9557    0.5271 H   0  0  0  0  0  0  0  0  0  0  0  0
   -2.9740   -3.5729   -1.0708 H   0  0  0  0  0  0  0  0  0  0  0  0
   -1.3811   -2.6693    0.0601 C   0  0  0  0  0  0  0  0  0  0  0  0
   -0.4098   -3.1476    0.6167 O   0  0  0  0  0  0  0  0  0  0  0  0
   -1.3167   -1.4036   -0.4880 N   0  0  0  0  0  0  0  0  0  0  0  0
   -2.1293   -1.0911   -1.0108 H   0  0  0  0  0  0  0  0  0  0  0  0
   -0.0868   -0.5926   -0.5555 C   0  0  1  0  0  0  0  0  0  0  0  0
    0.6398   -1.1869   -1.1189 H   0  0  0  0  0  0  0  0  0  0  0  0
   -0.4061    0.6934   -1.3448 C   0  0  0  0  0  0  0  0  0  0  0  0
   -1.1833    0.4821   -2.0845 H   0  0  0  0  0  0  0  0  0  0  0  0
   -0.7979    1.4577   -0.6669 H   0  0  0  0  0  0  0  0  0  0  0  0
    0.7578    1.2714   -2.1051 C   0  0  0  0  0  0  0  0  0  0  0  0
    0.6074    2.4280   -2.8595 N   0  0  0  0  0  0  0  0  0  0  0  0
    1.7879    2.7070   -3.3589 C   0  0  0  0  0  0  0  0  0  0  0  0
    2.0068    3.5597   -3.9950 H   0  0  0  0  0  0  0  0  0  0  0  0
    2.7081    1.7606   -2.9532 N   0  0  0  0  0  0  0  0  0  0  0  0
    3.7019    1.7709   -3.1745 H   0  0  0  0  0  0  0  0  0  0  0  0
    2.0601    0.8496   -2.1479 C   0  0  0  0  0  0  0  0  0  0  0  0
    2.4921    0.0004   -1.6238 H   0  0  0  0  0  0  0  0  0  0  0  0
    0.5632   -0.2593    0.8072 C   0  0  0  0  0  0  0  0  0  0  0  0
    1.7827   -0.2031    0.9043 O   0  0  0  0  0  0  0  0  0  0  0  0
   -0.2220    0.1657    1.8640 N   0  0  0  0  0  0  0  0  0  0  0  0
   -1.2215    0.0174    1.7725 H   0  0  0  0  0  0  0  0  0  0  0  0
    0.3236    0.4872    3.1764 C   0  0  0  0  0  0  0  0  0  0  0  0
    1.0742    1.2806    3.0965 H   0  0  0  0  0  0  0  0  0  0  0  0
   -0.4723    0.8339    3.8423 H   0  0  0  0  0  0  0  0  0  0  0  0
    0.7910   -0.3971    3.6224 H   0  0  0  0  0  0  0  0  0  0  0  0
  1  2  1  0  0  0  0
  2  3  1  0  0  0  0
  2  4  1  0  0  0  0
  2  5  1  0  0  0  0
  5  6  2  0  0  0  0
  5  7  1  0  0  0  0
  7  8  1  0  0  0  0
  7  9  1  0  0  0  0
  9 10  1  0  0  0  0
  9 11  1  0  0  0  0
  9 22  1  0  0  0  0
 11 12  1  0  0  0  0
 11 13  1  0  0  0  0
 11 14  1  0  0  0  0
 14 15  1  0  0  0  0
 14 20  2  0  0  0  0
 15 16  2  0  0  0  0
 16 17  1  0  0  0  0
 16 18  1  0  0  0  0
 18 19  1  0  0  0  0
 18 20  1  0  0  0  0
 20 21  1  0  0  0  0
 22 23  2  0  0  0  0
 22 24  1  0  0  0  0
 24 25  1  0  0  0  0
 24 26  1  0  0  0  0
 26 27  1  0  0  0  0
 26 28  1  0  0  0  0
 26 29  1  0  0  0  0
M  END
$$$$

  -OEChem-04042215593D

 29 29  0     1  0  0  0  0  0999 V2000
   -2.5440   -4.4669    0.4240 H   0  0  0  0  0  0  0  0  0  0  0  0
   -2.6904   -3.4720   -0.0064 C   0  0  0  0  0  0  0  0  0  0  0  0
   -3.4679   -2.9546    0.5606 H   0  0  0  0  0  0  0  0  0  0  0  0
   -3.0161   -3.5833   -1.0435 H   0  0  0  0  0  0  0  0  0  0  0  0
   -1.3952   -2.6843    0.0508 C   0  0  0  0  0  0  0  0  0  0  0  0
   -0.4130   -3.1690    0.5819 O   0  0  0  0  0  0  0  0  0  0  0  0
   -1.3366   -1.4185   -0.4972 N   0  0  0  0  0  0  0  0  0  0  0  0
   -2.1635   -1.0921   -0.9876 H   0  0  0  0  0  0  0  0  0  0  0  0
   -0.1089   -0.6060   -0.5722 C   0  0  1  0  0  0  0  0  0  0  0  0
    0.6096   -1.2110   -1.1331 H   0  0  0  0  0  0  0  0  0  0  0  0
   -0.4269    0.6725   -1.3733 C   0  0  0  0  0  0  0  0  0  0  0  0
   -1.2081    0.4630   -2.1089 H   0  0  0  0  0  0  0  0  0  0  0  0
   -0.8129    1.4402   -0.6957 H   0  0  0  0  0  0  0  0  0  0  0  0
    0.7389    1.2447   -2.1361 C   0  0  0  0  0  0  0  0  0  0  0  0
    0.6841    2.5375   -2.6412 N   0  0  0  0  0  0  0  0  0  0  0  0
    1.8570    2.7837   -3.1742 C   0  0  0  0  0  0  0  0  0  0  0  0
    2.1383    3.7182   -3.6513 H   0  0  0  0  0  0  0  0  0  0  0  0
    2.6801    1.6841   -3.0325 N   0  0  0  0  0  0  0  0  0  0  0  0
    3.6565    1.6386   -3.3179 H   0  0  0  0  0  0  0  0  0  0  0  0
    1.9795    0.7076   -2.3586 C   0  0  0  0  0  0  0  0  0  0  0  0
    2.3463   -0.2604   -2.0285 H   0  0  0  0  0  0  0  0  0  0  0  0
    0.5612   -0.2638    0.7773 C   0  0  0  0  0  0  0  0  0  0  0  0
    1.7822   -0.2087    0.8513 O   0  0  0  0  0  0  0  0  0  0  0  0
   -0.2052    0.1658    1.8459 N   0  0  0  0  0  0  0  0  0  0  0  0
   -1.2074    0.0280    1.7716 H   0  0  0  0  0  0  0  0  0  0  0  0
    0.3647    0.5091    3.1421 C   0  0  0  0  0  0  0  0  0  0  0  0
    1.1095    1.3048    3.0348 H   0  0  0  0  0  0  0  0  0  0  0  0
   -0.4194    0.8618    3.8188 H   0  0  0  0  0  0  0  0  0  0  0  0
    0.8457   -0.3661    3.5914 H   0  0  0  0  0  0  0  0  0  0  0  0
  1  2  1  0  0  0  0
  2  3  1  0  0  0  0
  2  4  1  0  0  0  0
  2  5  1  0  0  0  0
  5  6  2  0  0  0  0
  5  7  1  0  0  0  0
  7  8  1  0  0  0  0
  7  9  1  0  0  0  0
  9 10  1  0  0  0  0
  9 11  1  0  0  0  0
  9 22  1  0  0  0  0
 11 12  1  0  0  0  0
 11 13  1  0  0  0  0
 11 14  1  0  0  0  0
 14 15  1  0  0  0  0
 14 20  2  0  0  0  0
 15 16  2  0  0  0  0
 16 17  1  0  0  0  0
 16 18  1  0  0  0  0
 18 19  1  0  0  0  0
 18 20  1  0  0  0  0
 20 21  1  0  0  0  0
 22 23  2  0  0  0  0
 22 24  1  0  0  0  0
 24 25  1  0  0  0  0
 24 26  1  0  0  0  0
 26 27  1  0  0  0  0
 26 28  1  0  0  0  0
 26 29  1  0  0  0  0
M  END
$$$$

  -OEChem-04042215593D

 29 29  0     1  0  0  0  0  0999 V2000
   -2.5356   -4.4704    0.4434 H   0  0  0  0  0  0  0  0  0  0  0  0
   -2.6871   -3.4784    0.0080 C   0  0  0  0  0  0  0  0  0  0  0  0
   -3.4556   -2.9561    0.5829 H   0  0  0  0  0  0  0  0  0  0  0  0
   -3.0286   -3.5969   -1.0231 H   0  0  0  0  0  0  0  0  0  0  0  0
   -1.3896   -2.6921    0.0394 C   0  0  0  0  0  0  0  0  0  0  0  0
   -0.3953   -3.1827    0.5416 O   0  0  0  0  0  0  0  0  0  0  0  0
   -1.3403   -1.4242   -0.5050 N   0  0  0  0  0  0  0  0  0  0  0  0
   -2.1821   -1.0862   -0.9609 H   0  0  0  0  0  0  0  0  0  0  0  0
   -0.1175   -0.6041   -0.5852 C   0  0  1  0  0  0  0  0  0  0  0  0
    0.6038   -1.2044   -1.1469 H   0  0  0  0  0  0  0  0  0  0  0  0
   -0.4454    0.6760   -1.3803 C   0  0  0  0  0  0  0  0  0  0  0  0
   -1.2334    0.4730   -2.1103 H   0  0  0  0  0  0  0  0  0  0  0  0
   -0.8239    1.4397   -0.6937 H   0  0  0  0  0  0  0  0  0  0  0  0
    0.7193    1.2483   -2.1439 C   0  0  0  0  0  0  0  0  0  0  0  0
    0.8120    2.6138   -2.3805 N   0  0  0  0  0  0  0  0  0  0  0  0
    1.9591    2.8140   -2.9837 C   0  0  0  0  0  0  0  0  0  0  0  0
    2.3349    3.7842   -3.2962 H   0  0  0  0  0  0  0  0  0  0  0  0
    2.6167    1.6122   -3.1585 N   0  0  0  0  0  0  0  0  0  0  0  0
    3.5461    1.5032   -3.5598 H   0  0  0  0  0  0  0  0  0  0  0  0
    1.8383    0.6134   -2.6151 C   0  0  0  0  0  0  0  0  0  0  0  0
    2.0773   -0.4430   -2.5394 H   0  0  0  0  0  0  0  0  0  0  0  0
    0.5596   -0.2610    0.7608 C   0  0  0  0  0  0  0  0  0  0  0  0
    1.7805   -0.2009    0.8289 O   0  0  0  0  0  0  0  0  0  0  0  0
   -0.2017    0.1619    1.8359 N   0  0  0  0  0  0  0  0  0  0  0  0
   -1.2052    0.0341    1.7642 H   0  0  0  0  0  0  0  0  0  0  0  0
    0.3746    0.5230    3.1246 C   0  0  0  0  0  0  0  0  0  0  0  0
    1.0981    1.3366    3.0061 H   0  0  0  0  0  0  0  0  0  0  0  0
   -0.4100    0.8579    3.8096 H   0  0  0  0  0  0  0  0  0  0  0  0
    0.8824   -0.3385    3.5708 H   0  0  0  0  0  0  0  0  0  0  0  0
  1  2  1  0  0  0  0
  2  3  1  0  0  0  0
  2  4  1  0  0  0  0
  2  5  1  0  0  0  0
  5  6  2  0  0  0  0
  5  7  1  0  0  0  0
  7  8  1  0  0  0  0
  7  9  1  0  0  0  0
  9 10  1  0  0  0  0
  9 11  1  0  0  0  0
  9 22  1  0  0  0  0
 11 12  1  0  0  0  0
 11 13  1  0  0  0  0
 11 14  1  0  0  0  0
 14 15  1  0  0  0  0
 14 20  2  0  0  0  0
 15 16  2  0  0  0  0
 16 17  1  0  0  0  0
 16 18  1  0  0  0  0
 18 19  1  0  0  0  0
 18 20  1  0  0  0  0
 20 21  1  0  0  0  0
 22 23  2  0  0  0  0
 22 24  1  0  0  0  0
 24 25  1  0  0  0  0
 24 26  1  0  0  0  0
 26 27  1  0  0  0  0
 26 28  1  0  0  0  0
 26 29  1  0  0  0  0
M  END
$$$$

  -OEChem-04042215593D

 29 29  0     1  0  0  0  0  0999 V2000
   -2.5022   -4.4721    0.4479 H   0  0  0  0  0  0  0  0  0  0  0  0
   -2.6640   -3.4804    0.0155 C   0  0  0  0  0  0  0  0  0  0  0  0
   -3.4216   -2.9596    0.6058 H   0  0  0  0  0  0  0  0  0  0  0  0
   -3.0253   -3.5990   -1.0089 H   0  0  0  0  0  0  0  0  0  0  0  0
   -1.3677   -2.6922    0.0217 C   0  0  0  0  0  0  0  0  0  0  0  0
   -0.3617   -3.1842    0.4983 O   0  0  0  0  0  0  0  0  0  0  0  0
   -1.3338   -1.4214   -0.5168 N   0  0  0  0  0  0  0  0  0  0  0  0
   -2.1901   -1.0766   -0.9389 H   0  0  0  0  0  0  0  0  0  0  0  0
   -0.1200   -0.5882   -0.5986 C   0  0  1  0  0  0  0  0  0  0  0  0
    0.6106   -1.1709   -1.1682 H   0  0  0  0  0  0  0  0  0  0  0  0
   -0.4701    0.6937   -1.3800 C   0  0  0  0  0  0  0  0  0  0  0  0
   -1.2595    0.4900   -2.1085 H   0  0  0  0  0  0  0  0  0  0  0  0
   -0.8503    1.4513   -0.6877 H   0  0  0  0  0  0  0  0  0  0  0  0
    0.6959    1.2644   -2.1385 C   0  0  0  0  0  0  0  0  0  0  0  0
    0.9811    2.6229   -2.1221 N   0  0  0  0  0  0  0  0  0  0  0  0
    2.0867    2.7803   -2.8095 C   0  0  0  0  0  0  0  0  0  0  0  0
    2.5846    3.7315   -2.9742 H   0  0  0  0  0  0  0  0  0  0  0  0
    2.5218    1.5608   -3.2918 N   0  0  0  0  0  0  0  0  0  0  0  0
    3.3790    1.4098   -3.8201 H   0  0  0  0  0  0  0  0  0  0  0  0
    1.6425    0.5902   -2.8621 C   0  0  0  0  0  0  0  0  0  0  0  0
    1.6999   -0.4815   -3.0277 H   0  0  0  0  0  0  0  0  0  0  0  0
    0.5578   -0.2459    0.7478 C   0  0  0  0  0  0  0  0  0  0  0  0
    1.7787   -0.1900    0.8192 O   0  0  0  0  0  0  0  0  0  0  0  0
   -0.2047    0.1632    1.8278 N   0  0  0  0  0  0  0  0  0  0  0  0
   -1.2091    0.0466    1.7519 H   0  0  0  0  0  0  0  0  0  0  0  0
    0.3714    0.5241    3.1164 C   0  0  0  0  0  0  0  0  0  0  0  0
    1.0787    1.3523    3.0010 H   0  0  0  0  0  0  0  0  0  0  0  0
   -0.4159    0.8377    3.8081 H   0  0  0  0  0  0  0  0  0  0  0  0
    0.8977   -0.3315    3.5523 H   0  0  0  0  0  0  0  0  0  0  0  0
  1  2  1  0  0  0  0
  2  3  1  0  0  0  0
  2  4  1  0  0  0  0
  2  5  1  0  0  0  0
  5  6  2  0  0  0  0
  5  7  1  0  0  0  0
  7  8  1  0  0  0  0
  7  9  1  0  0  0  0
  9 10  1  0  0  0  0
  9 11  1  0  0  0  0
  9 22  1  0  0  0  0
 11 12  1  0  0  0  0
 11 13  1  0  0  0  0
 11 14  1  0  0  0  0
 14 15  1  0  0  0  0
 14 20  2  0  0  0  0
 15 16  2  0  0  0  0
 16 17  1  0  0  0  0
 16 18  1  0  0  0  0
 18 19  1  0  0  0  0
 18 20  1  0  0  0  0
 20 21  1  0  0  0  0
 22 23  2  0  0  0  0
 22 24  1  0  0  0  0
 24 25  1  0  0  0  0
 24 26  1  0  0  0  0
 26 27  1  0  0  0  0
 26 28  1  0  0  0  0
 26 29  1  0  0  0  0
M  END
$$$$

  -OEChem-04042215593D

 29 29  0     1  0  0  0  0  0999 V2000
   -2.4624   -4.4645    0.4618 H   0  0  0  0  0  0  0  0  0  0  0  0
   -2.6335   -3.4737    0.0308 C   0  0  0  0  0  0  0  0  0  0  0  0
   -3.3780   -2.9514    0.6364 H   0  0  0  0  0  0  0  0  0  0  0  0
   -3.0174   -3.5950   -0.9849 H   0  0  0  0  0  0  0  0  0  0  0  0
   -1.3374   -2.6852    0.0058 C   0  0  0  0  0  0  0  0  0  0  0  0
   -0.3190   -3.1805    0.4510 O   0  0  0  0  0  0  0  0  0  0  0  0
   -1.3186   -1.4115   -0.5271 N   0  0  0  0  0  0  0  0  0  0  0  0
   -2.1882   -1.0614   -0.9159 H   0  0  0  0  0  0  0  0  0  0  0  0
   -0.1143   -0.5639   -0.6088 C   0  0  1  0  0  0  0  0  0  0  0  0
    0.6268   -1.1273   -1.1865 H   0  0  0  0  0  0  0  0  0  0  0  0
   -0.4856    0.7158   -1.3822 C   0  0  0  0  0  0  0  0  0  0  0  0
   -1.2674    0.4998   -2.1153 H   0  0  0  0  0  0  0  0  0  0  0  0
   -0.8770    1.4719   -0.6944 H   0  0  0  0  0  0  0  0  0  0  0  0
    0.6848    1.2811   -2.1322 C   0  0  0  0  0  0  0  0  0  0  0  0
    1.1776    2.5565   -1.8984 N   0  0  0  0  0  0  0  0  0  0  0  0
    2.2217    2.6985   -2.6790 C   0  0  0  0  0  0  0  0  0  0  0  0
    2.8453    3.5868   -2.7240 H   0  0  0  0  0  0  0  0  0  0  0  0
    2.4065    1.5562   -3.4355 N   0  0  0  0  0  0  0  0  0  0  0  0
    3.1697    1.4048   -4.0923 H   0  0  0  0  0  0  0  0  0  0  0  0
    1.4283    0.6480   -3.0902 C   0  0  0  0  0  0  0  0  0  0  0  0
    1.2867   -0.3616   -3.4643 H   0  0  0  0  0  0  0  0  0  0  0  0
    0.5560   -0.2250    0.7429 C   0  0  0  0  0  0  0  0  0  0  0  0
    1.7763   -0.1856    0.8309 O   0  0  0  0  0  0  0  0  0  0  0  0
   -0.2157    0.1671    1.8230 N   0  0  0  0  0  0  0  0  0  0  0  0
   -1.2197    0.0582    1.7343 H   0  0  0  0  0  0  0  0  0  0  0  0
    0.3479    0.5016    3.1241 C   0  0  0  0  0  0  0  0  0  0  0  0
    1.0718    1.3179    3.0298 H   0  0  0  0  0  0  0  0  0  0  0  0
   -0.4437    0.8213    3.8081 H   0  0  0  0  0  0  0  0  0  0  0  0
    0.8520   -0.3687    3.5571 H   0  0  0  0  0  0  0  0  0  0  0  0
  1  2  1  0  0  0  0
  2  3  1  0  0  0  0
  2  4  1  0  0  0  0
  2  5  1  0  0  0  0
  5  6  2  0  0  0  0
  5  7  1  0  0  0  0
  7  8  1  0  0  0  0
  7  9  1  0  0  0  0
  9 10  1  0  0  0  0
  9 11  1  0  0  0  0
  9 22  1  0  0  0  0
 11 12  1  0  0  0  0
 11 13  1  0  0  0  0
 11 14  1  0  0  0  0
 14 15  1  0  0  0  0
 14 20  2  0  0  0  0
 15 16  2  0  0  0  0
 16 17  1  0  0  0  0
 16 18  1  0  0  0  0
 18 19  1  0  0  0  0
 18 20  1  0  0  0  0
 20 21  1  0  0  0  0
 22 23  2  0  0  0  0
 22 24  1  0  0  0  0
 24 25  1  0  0  0  0
 24 26  1  0  0  0  0
 26 27  1  0  0  0  0
 26 28  1  0  0  0  0
 26 29  1  0  0  0  0
M  END
$$$$

  -OEChem-04042215593D

 29 29  0     1  0  0  0  0  0999 V2000
   -2.4435   -4.4577    0.4703 H   0  0  0  0  0  0  0  0  0  0  0  0
   -2.6177   -3.4675    0.0394 C   0  0  0  0  0  0  0  0  0  0  0  0
   -3.3554   -2.9437    0.6517 H   0  0  0  0  0  0  0  0  0  0  0  0
   -3.0119   -3.5893   -0.9723 H   0  0  0  0  0  0  0  0  0  0  0  0
   -1.3210   -2.6804    0.0010 C   0  0  0  0  0  0  0  0  0  0  0  0
   -0.2986   -3.1774    0.4350 O   0  0  0  0  0  0  0  0  0  0  0  0
   -1.3090   -1.4062   -0.5308 N   0  0  0  0  0  0  0  0  0  0  0  0
   -2.1851   -1.0546   -0.9027 H   0  0  0  0  0  0  0  0  0  0  0  0
   -0.1099   -0.5510   -0.6140 C   0  0  1  0  0  0  0  0  0  0  0  0
    0.6362   -1.1027   -1.1973 H   0  0  0  0  0  0  0  0  0  0  0  0
   -0.4965    0.7243   -1.3858 C   0  0  0  0  0  0  0  0  0  0  0  0
   -1.2745    0.4947   -2.1192 H   0  0  0  0  0  0  0  0  0  0  0  0
   -0.8954    1.4818   -0.7039 H   0  0  0  0  0  0  0  0  0  0  0  0
    0.6755    1.2856   -2.1330 C   0  0  0  0  0  0  0  0  0  0  0  0
    1.3646    2.4154   -1.7206 N   0  0  0  0  0  0  0  0  0  0  0  0
    2.3421    2.5852   -2.5778 C   0  0  0  0  0  0  0  0  0  0  0  0
    3.0804    3.3805   -2.5267 H   0  0  0  0  0  0  0  0  0  0  0  0
    2.2887    1.6093   -3.5563 N   0  0  0  0  0  0  0  0  0  0  0  0
    2.9540    1.5085   -4.3205 H   0  0  0  0  0  0  0  0  0  0  0  0
    1.2241    0.7782   -3.2780 C   0  0  0  0  0  0  0  0  0  0  0  0
    0.8996   -0.1044   -3.8209 H   0  0  0  0  0  0  0  0  0  0  0  0
    0.5575   -0.2114    0.7395 C   0  0  0  0  0  0  0  0  0  0  0  0
    1.7771   -0.1984    0.8422 O   0  0  0  0  0  0  0  0  0  0  0  0
   -0.2194    0.1737    1.8186 N   0  0  0  0  0  0  0  0  0  0  0  0
   -1.2238    0.0802    1.7194 H   0  0  0  0  0  0  0  0  0  0  0  0
    0.3377    0.4864    3.1280 C   0  0  0  0  0  0  0  0  0  0  0  0
    1.0710    1.2960    3.0488 H   0  0  0  0  0  0  0  0  0  0  0  0
   -0.4556    0.8066    3.8100 H   0  0  0  0  0  0  0  0  0  0  0  0
    0.8293   -0.3946    3.5541 H   0  0  0  0  0  0  0  0  0  0  0  0
  1  2  1  0  0  0  0
  2  3  1  0  0  0  0
  2  4  1  0  0  0  0
  2  5  1  0  0  0  0
  5  6  2  0  0  0  0
  5  7  1  0  0  0  0
  7  8  1  0  0  0  0
  7  9  1  0  0  0  0
  9 10  1  0  0  0  0
  9 11  1  0  0  0  0
  9 22  1  0  0  0  0
 11 12  1  0  0  0  0
 11 13  1  0  0  0  0
 11 14  1  0  0  0  0
 14 15  1  0  0  0  0
 14 20  2  0  0  0  0
 15 16  2  0  0  0  0
 16 17  1  0  0  0  0
 16 18  1  0  0  0  0
 18 19  1  0  0  0  0
 18 20  1  0  0  0  0
 20 21  1  0  0  0  0
 22 23  2  0  0  0  0
 22 24  1  0  0  0  0
 24 25  1  0  0  0  0
 24 26  1  0  0  0  0
 26 27  1  0  0  0  0
 26 28  1  0  0  0  0
 26 29  1  0  0  0  0
M  END
$$$$

  -OEChem-04042215593D

 29 29  0     1  0  0  0  0  0999 V2000
   -2.4325   -4.4523    0.4776 H   0  0  0  0  0  0  0  0  0  0  0  0
   -2.6092   -3.4622    0.0474 C   0  0  0  0  0  0  0  0  0  0  0  0
   -3.3454   -2.9387    0.6619 H   0  0  0  0  0  0  0  0  0  0  0  0
   -3.0062   -3.5851   -0.9630 H   0  0  0  0  0  0  0  0  0  0  0  0
   -1.3134   -2.6742    0.0047 C   0  0  0  0  0  0  0  0  0  0  0  0
   -0.2900   -3.1716    0.4352 O   0  0  0  0  0  0  0  0  0  0  0  0
   -1.3041   -1.4012   -0.5302 N   0  0  0  0  0  0  0  0  0  0  0  0
   -2.1840   -1.0474   -0.8906 H   0  0  0  0  0  0  0  0  0  0  0  0
   -0.1064   -0.5435   -0.6154 C   0  0  1  0  0  0  0  0  0  0  0  0
    0.6421   -1.0920   -1.1988 H   0  0  0  0  0  0  0  0  0  0  0  0
   -0.5028    0.7249   -1.3946 C   0  0  0  0  0  0  0  0  0  0  0  0
   -1.2788    0.4825   -2.1258 H   0  0  0  0  0  0  0  0  0  0  0  0
   -0.9067    1.4855   -0.7197 H   0  0  0  0  0  0  0  0  0  0  0  0
    0.6670    1.2860   -2.1443 C   0  0  0  0  0  0  0  0  0  0  0  0
    1.5344    2.2216   -1.6048 N   0  0  0  0  0  0  0  0  0  0  0  0
    2.4464    2.4523   -2.5172 C   0  0  0  0  0  0  0  0  0  0  0  0
    3.2859    3.1313   -2.3969 H   0  0  0  0  0  0  0  0  0  0  0  0
    2.1757    1.7103   -3.6526 N   0  0  0  0  0  0  0  0  0  0  0  0
    2.7480    1.6982   -4.4947 H   0  0  0  0  0  0  0  0  0  0  0  0
    1.0374    0.9665   -3.4207 C   0  0  0  0  0  0  0  0  0  0  0  0
    0.5483    0.2601   -4.0841 H   0  0  0  0  0  0  0  0  0  0  0  0
    0.5587   -0.2002    0.7390 C   0  0  0  0  0  0  0  0  0  0  0  0
    1.7765   -0.2247    0.8587 O   0  0  0  0  0  0  0  0  0  0  0  0
   -0.2203    0.1858    1.8165 N   0  0  0  0  0  0  0  0  0  0  0  0
   -1.2249    0.1053    1.7104 H   0  0  0  0  0  0  0  0  0  0  0  0
    0.3331    0.4707    3.1339 C   0  0  0  0  0  0  0  0  0  0  0  0
    1.0785    1.2708    3.0713 H   0  0  0  0  0  0  0  0  0  0  0  0
   -0.4598    0.7912    3.8160 H   0  0  0  0  0  0  0  0  0  0  0  0
    0.8098   -0.4236    3.5491 H   0  0  0  0  0  0  0  0  0  0  0  0
  1  2  1  0  0  0  0
  2  3  1  0  0  0  0
  2  4  1  0  0  0  0
  2  5  1  0  0  0  0
  5  6  2  0  0  0  0
  5  7  1  0  0  0  0
  7  8  1  0  0  0  0
  7  9  1  0  0  0  0
  9 10  1  0  0  0  0
  9 11  1  0  0  0  0
  9 22  1  0  0  0  0
 11 12  1  0  0  0  0
 11 13  1  0  0  0  0
 11 14  1  0  0  0  0
 14 15  1  0  0  0  0
 14 20  2  0  0  0  0
 15 16  2  0  0  0  0
 16 17  1  0  0  0  0
 16 18  1  0  0  0  0
 18 19  1  0  0  0  0
 18 20  1  0  0  0  0
 20 21  1  0  0  0  0
 22 23  2  0  0  0  0
 22 24  1  0  0  0  0
 24 25  1  0  0  0  0
 24 26  1  0  0  0  0
 26 27  1  0  0  0  0
 26 28  1  0  0  0  0
 26 29  1  0  0  0  0
M  END
$$$$

  -OEChem-04042215593D

 29 29  0     1  0  0  0  0  0999 V2000
   -2.4296   -4.4391    0.4917 H   0  0  0  0  0  0  0  0  0  0  0  0
   -2.6015   -3.4495    0.0585 C   0  0  0  0  0  0  0  0  0  0  0  0
   -3.3398   -2.9233    0.6680 H   0  0  0  0  0  0  0  0  0  0  0  0
   -2.9931   -3.5730   -0.9540 H   0  0  0  0  0  0  0  0  0  0  0  0
   -1.3034   -2.6648    0.0212 C   0  0  0  0  0  0  0  0  0  0  0  0
   -0.2856   -3.1631    0.4634 O   0  0  0  0  0  0  0  0  0  0  0  0
   -1.2873   -1.3956   -0.5232 N   0  0  0  0  0  0  0  0  0  0  0  0
   -2.1619   -1.0471   -0.9003 H   0  0  0  0  0  0  0  0  0  0  0  0
   -0.0867   -0.5416   -0.6132 C   0  0  1  0  0  0  0  0  0  0  0  0
    0.6644   -1.0880   -1.1956 H   0  0  0  0  0  0  0  0  0  0  0  0
   -0.4924    0.7235   -1.3958 C   0  0  0  0  0  0  0  0  0  0  0  0
   -1.2785    0.4783   -2.1154 H   0  0  0  0  0  0  0  0  0  0  0  0
   -0.8887    1.4832   -0.7155 H   0  0  0  0  0  0  0  0  0  0  0  0
    0.6650    1.2940   -2.1598 C   0  0  0  0  0  0  0  0  0  0  0  0
    1.6995    1.9978   -1.5673 N   0  0  0  0  0  0  0  0  0  0  0  0
    2.5380    2.3114   -2.5238 C   0  0  0  0  0  0  0  0  0  0  0  0
    3.4663    2.8575   -2.3811 H   0  0  0  0  0  0  0  0  0  0  0  0
    2.0601    1.8493   -3.7363 N   0  0  0  0  0  0  0  0  0  0  0  0
    2.5353    1.9526   -4.6309 H   0  0  0  0  0  0  0  0  0  0  0  0
    0.8629    1.2022   -3.5096 C   0  0  0  0  0  0  0  0  0  0  0  0
    0.2202    0.7066   -4.2305 H   0  0  0  0  0  0  0  0  0  0  0  0
    0.5675   -0.1969    0.7474 C   0  0  0  0  0  0  0  0  0  0  0  0
    1.7803   -0.2640    0.8973 O   0  0  0  0  0  0  0  0  0  0  0  0
   -0.2240    0.1946    1.8143 N   0  0  0  0  0  0  0  0  0  0  0  0
   -1.2275    0.1303    1.6889 H   0  0  0  0  0  0  0  0  0  0  0  0
    0.3087    0.4400    3.1481 C   0  0  0  0  0  0  0  0  0  0  0  0
    1.0776    1.2192    3.1161 H   0  0  0  0  0  0  0  0  0  0  0  0
   -0.4892    0.7711    3.8193 H   0  0  0  0  0  0  0  0  0  0  0  0
    0.7508   -0.4750    3.5563 H   0  0  0  0  0  0  0  0  0  0  0  0
  1  2  1  0  0  0  0
  2  3  1  0  0  0  0
  2  4  1  0  0  0  0
  2  5  1  0  0  0  0
  5  6  2  0  0  0  0
  5  7  1  0  0  0  0
  7  8  1  0  0  0  0
  7  9  1  0  0  0  0
  9 10  1  0  0  0  0
  9 11  1  0  0  0  0
  9 22  1  0  0  0  0
 11 12  1  0  0  0  0
 11 13  1  0  0  0  0
 11 14  1  0  0  0  0
 14 15  1  0  0  0  0
 14 20  2  0  0  0  0
 15 16  2  0  0  0  0
 16 17  1  0  0  0  0
 16 18  1  0  0  0  0
 18 19  1  0  0  0  0
 18 20  1  0  0  0  0
 20 21  1  0  0  0  0
 22 23  2  0  0  0  0
 22 24  1  0  0  0  0
 24 25  1  0  0  0  0
 24 26  1  0  0  0  0
 26 27  1  0  0  0  0
 26 28  1  0  0  0  0
 26 29  1  0  0  0  0
M  END
$$$$

  -OEChem-04042215593D

 29 29  0     1  0  0  0  0  0999 V2000
   -2.4333   -4.4247    0.4909 H   0  0  0  0  0  0  0  0  0  0  0  0
   -2.5964   -3.4341    0.0567 C   0  0  0  0  0  0  0  0  0  0  0  0
   -3.3421   -2.9063    0.6557 H   0  0  0  0  0  0  0  0  0  0  0  0
   -2.9732   -3.5557   -0.9616 H   0  0  0  0  0  0  0  0  0  0  0  0
   -1.2960   -2.6527    0.0397 C   0  0  0  0  0  0  0  0  0  0  0  0
   -0.2897   -3.1495    0.5085 O   0  0  0  0  0  0  0  0  0  0  0  0
   -1.2685   -1.3877   -0.5137 N   0  0  0  0  0  0  0  0  0  0  0  0
   -2.1319   -1.0504   -0.9249 H   0  0  0  0  0  0  0  0  0  0  0  0
   -0.0626   -0.5405   -0.6060 C   0  0  1  0  0  0  0  0  0  0  0  0
    0.6912   -1.0862   -1.1854 H   0  0  0  0  0  0  0  0  0  0  0  0
   -0.4746    0.7245   -1.3896 C   0  0  0  0  0  0  0  0  0  0  0  0
   -1.2727    0.4821   -2.0968 H   0  0  0  0  0  0  0  0  0  0  0  0
   -0.8595    1.4822   -0.7009 H   0  0  0  0  0  0  0  0  0  0  0  0
    0.6679    1.3077   -2.1690 C   0  0  0  0  0  0  0  0  0  0  0  0
    1.8467    1.7580   -1.6010 N   0  0  0  0  0  0  0  0  0  0  0  0
    2.6126    2.1634   -2.5829 C   0  0  0  0  0  0  0  0  0  0  0  0
    3.6145    2.5658   -2.4633 H   0  0  0  0  0  0  0  0  0  0  0  0
    1.9516    2.0039   -3.7867 N   0  0  0  0  0  0  0  0  0  0  0  0
    2.3362    2.2339   -4.7009 H   0  0  0  0  0  0  0  0  0  0  0  0
    0.7110    1.4586   -3.5279 C   0  0  0  0  0  0  0  0  0  0  0  0
   -0.0644    1.1890   -4.2383 H   0  0  0  0  0  0  0  0  0  0  0  0
    0.5781   -0.1968    0.7627 C   0  0  0  0  0  0  0  0  0  0  0  0
    1.7855   -0.2900    0.9402 O   0  0  0  0  0  0  0  0  0  0  0  0
   -0.2278    0.2012    1.8168 N   0  0  0  0  0  0  0  0  0  0  0  0
   -1.2287    0.1289    1.6764 H   0  0  0  0  0  0  0  0  0  0  0  0
    0.2816    0.4107    3.1659 C   0  0  0  0  0  0  0  0  0  0  0  0
    1.0709    1.1701    3.1641 H   0  0  0  0  0  0  0  0  0  0  0  0
   -0.5222    0.7513    3.8251 H   0  0  0  0  0  0  0  0  0  0  0  0
    0.6911   -0.5218    3.5682 H   0  0  0  0  0  0  0  0  0  0  0  0
  1  2  1  0  0  0  0
  2  3  1  0  0  0  0
  2  4  1  0  0  0  0
  2  5  1  0  0  0  0
  5  6  2  0  0  0  0
  5  7  1  0  0  0  0
  7  8  1  0  0  0  0
  7  9  1  0  0  0  0
  9 10  1  0  0  0  0
  9 11  1  0  0  0  0
  9 22  1  0  0  0  0
 11 12  1  0  0  0  0
 11 13  1  0  0  0  0
 11 14  1  0  0  0  0
 14 15  1  0  0  0  0
 14 20  2  0  0  0  0
 15 16  2  0  0  0  0
 16 17  1  0  0  0  0
 16 18  1  0  0  0  0
 18 19  1  0  0  0  0
 18 20  1  0  0  0  0
 20 21  1  0  0  0  0
 22 23  2  0  0  0  0
 22 24  1  0  0  0  0
 24 25  1  0  0  0  0
 24 26  1  0  0  0  0
 26 27  1  0  0  0  0
 26 28  1  0  0  0  0
 26 29  1  0  0  0  0
M  END
$$$$

  -OEChem-04042215593D

 29 29  0     1  0  0  0  0  0999 V2000
   -2.4447   -4.4200    0.4764 H   0  0  0  0  0  0  0  0  0  0  0  0
   -2.5989   -3.4314    0.0346 C   0  0  0  0  0  0  0  0  0  0  0  0
   -3.3687   -2.9075    0.6060 H   0  0  0  0  0  0  0  0  0  0  0  0
   -2.9389   -3.5574   -0.9961 H   0  0  0  0  0  0  0  0  0  0  0  0
   -1.3036   -2.6417    0.0627 C   0  0  0  0  0  0  0  0  0  0  0  0
   -0.3151   -3.1290    0.5769 O   0  0  0  0  0  0  0  0  0  0  0  0
   -1.2621   -1.3805   -0.4991 N   0  0  0  0  0  0  0  0  0  0  0  0
   -2.1025   -1.0672   -0.9723 H   0  0  0  0  0  0  0  0  0  0  0  0
   -0.0475   -0.5448   -0.5943 C   0  0  1  0  0  0  0  0  0  0  0  0
    0.7041   -1.0945   -1.1727 H   0  0  0  0  0  0  0  0  0  0  0  0
   -0.4551    0.7268   -1.3735 C   0  0  0  0  0  0  0  0  0  0  0  0
   -1.2657    0.4958   -2.0704 H   0  0  0  0  0  0  0  0  0  0  0  0
   -0.8242    1.4828   -0.6744 H   0  0  0  0  0  0  0  0  0  0  0  0
    0.6772    1.3164   -2.1663 C   0  0  0  0  0  0  0  0  0  0  0  0
    1.9654    1.4979   -1.6950 N   0  0  0  0  0  0  0  0  0  0  0  0
    2.6674    2.0039   -2.6775 C   0  0  0  0  0  0  0  0  0  0  0  0
    3.7224    2.2565   -2.6214 H   0  0  0  0  0  0  0  0  0  0  0  0
    1.8622    2.1659   -3.7891 N   0  0  0  0  0  0  0  0  0  0  0  0
    2.1700    2.5356   -4.6866 H   0  0  0  0  0  0  0  0  0  0  0  0
    0.5940    1.7266   -3.4690 C   0  0  0  0  0  0  0  0  0  0  0  0
   -0.2851    1.6994   -4.1052 H   0  0  0  0  0  0  0  0  0  0  0  0
    0.5866   -0.2033    0.7795 C   0  0  0  0  0  0  0  0  0  0  0  0
    1.7913   -0.3002    0.9720 O   0  0  0  0  0  0  0  0  0  0  0  0
   -0.2267    0.2051    1.8241 N   0  0  0  0  0  0  0  0  0  0  0  0
   -1.2259    0.1236    1.6766 H   0  0  0  0  0  0  0  0  0  0  0  0
    0.2702    0.4030    3.1796 C   0  0  0  0  0  0  0  0  0  0  0  0
    1.0601    1.1616    3.1909 H   0  0  0  0  0  0  0  0  0  0  0  0
   -0.5390    0.7388    3.8347 H   0  0  0  0  0  0  0  0  0  0  0  0
    0.6752   -0.5334    3.5780 H   0  0  0  0  0  0  0  0  0  0  0  0
  1  2  1  0  0  0  0
  2  3  1  0  0  0  0
  2  4  1  0  0  0  0
  2  5  1  0  0  0  0
  5  6  2  0  0  0  0
  5  7  1  0  0  0  0
  7  8  1  0  0  0  0
  7  9  1  0  0  0  0
  9 10  1  0  0  0  0
  9 11  1  0  0  0  0
  9 22  1  0  0  0  0
 11 12  1  0  0  0  0
 11 13  1  0  0  0  0
 11 14  1  0  0  0  0
 14 15  1  0  0  0  0
 14 20  2  0  0  0  0
 15 16  2  0  0  0  0
 16 17  1  0  0  0  0
 16 18  1  0  0  0  0
 18 19  1  0  0  0  0
 18 20  1  0  0  0  0
 20 21  1  0  0  0  0
 22 23  2  0  0  0  0
 22 24  1  0  0  0  0
 24 25  1  0  0  0  0
 24 26  1  0  0  0  0
 26 27  1  0  0  0  0
 26 28  1  0  0  0  0
 26 29  1  0  0  0  0
M  END
$$$$

  -OEChem-04042215593D

 29 29  0     1  0  0  0  0  0999 V2000
   -2.4592   -4.4232    0.4593 H   0  0  0  0  0  0  0  0  0  0  0  0
   -2.6062   -3.4359    0.0118 C   0  0  0  0  0  0  0  0  0  0  0  0
   -3.3976   -2.9167    0.5574 H   0  0  0  0  0  0  0  0  0  0  0  0
   -2.9120   -3.5653   -1.0291 H   0  0  0  0  0  0  0  0  0  0  0  0
   -1.3180   -2.6370    0.0806 C   0  0  0  0  0  0  0  0  0  0  0  0
   -0.3468   -3.1128    0.6368 O   0  0  0  0  0  0  0  0  0  0  0  0
   -1.2661   -1.3791   -0.4878 N   0  0  0  0  0  0  0  0  0  0  0  0
   -2.0852   -1.0880   -1.0099 H   0  0  0  0  0  0  0  0  0  0  0  0
   -0.0438   -0.5545   -0.5864 C   0  0  1  0  0  0  0  0  0  0  0  0
    0.7028   -1.1114   -1.1647 H   0  0  0  0  0  0  0  0  0  0  0  0
   -0.4404    0.7250   -1.3597 C   0  0  0  0  0  0  0  0  0  0  0  0
   -1.2565    0.5054   -2.0534 H   0  0  0  0  0  0  0  0  0  0  0  0
   -0.8001    1.4795   -0.6538 H   0  0  0  0  0  0  0  0  0  0  0  0
    0.6878    1.3149   -2.1606 C   0  0  0  0  0  0  0  0  0  0  0  0
    2.0328    1.2339   -1.8433 N   0  0  0  0  0  0  0  0  0  0  0  0
    2.6923    1.8486   -2.7926 C   0  0  0  0  0  0  0  0  0  0  0  0
    3.7726    1.9572   -2.8290 H   0  0  0  0  0  0  0  0  0  0  0  0
    1.8055    2.3324   -3.7356 N   0  0  0  0  0  0  0  0  0  0  0  0
    2.0657    2.8461   -4.5753 H   0  0  0  0  0  0  0  0  0  0  0  0
    0.5287    1.9911   -3.3396 C   0  0  0  0  0  0  0  0  0  0  0  0
   -0.4081    2.2054   -3.8445 H   0  0  0  0  0  0  0  0  0  0  0  0
    0.5895   -0.2137    0.7885 C   0  0  0  0  0  0  0  0  0  0  0  0
    1.7962   -0.2846    0.9785 O   0  0  0  0  0  0  0  0  0  0  0  0
   -0.2250    0.2052    1.8285 N   0  0  0  0  0  0  0  0  0  0  0  0
   -1.2225    0.0912    1.6890 H   0  0  0  0  0  0  0  0  0  0  0  0
    0.2731    0.4145    3.1823 C   0  0  0  0  0  0  0  0  0  0  0  0
    1.0659    1.1701    3.1869 H   0  0  0  0  0  0  0  0  0  0  0  0
   -0.5348    0.7599    3.8341 H   0  0  0  0  0  0  0  0  0  0  0  0
    0.6745   -0.5194    3.5897 H   0  0  0  0  0  0  0  0  0  0  0  0
  1  2  1  0  0  0  0
  2  3  1  0  0  0  0
  2  4  1  0  0  0  0
  2  5  1  0  0  0  0
  5  6  2  0  0  0  0
  5  7  1  0  0  0  0
  7  8  1  0  0  0  0
  7  9  1  0  0  0  0
  9 10  1  0  0  0  0
  9 11  1  0  0  0  0
  9 22  1  0  0  0  0
 11 12  1  0  0  0  0
 11 13  1  0  0  0  0
 11 14  1  0  0  0  0
 14 15  1  0  0  0  0
 14 20  2  0  0  0  0
 15 16  2  0  0  0  0
 16 17  1  0  0  0  0
 16 18  1  0  0  0  0
 18 19  1  0  0  0  0
 18 20  1  0  0  0  0
 20 21  1  0  0  0  0
 22 23  2  0  0  0  0
 22 24  1  0  0  0  0
 24 25  1  0  0  0  0
 24 26  1  0  0  0  0
 26 27  1  0  0  0  0
 26 28  1  0  0  0  0
 26 29  1  0  0  0  0
M  END
$$$$

  -OEChem-04042215593D

 29 29  0     1  0  0  0  0  0999 V2000
   -2.4724   -4.4403    0.4370 H   0  0  0  0  0  0  0  0  0  0  0  0
   -2.6175   -3.4523   -0.0096 C   0  0  0  0  0  0  0  0  0  0  0  0
   -3.4304   -2.9450    0.5152 H   0  0  0  0  0  0  0  0  0  0  0  0
   -2.8917   -3.5800   -1.0596 H   0  0  0  0  0  0  0  0  0  0  0  0
   -1.3415   -2.6386    0.1000 C   0  0  0  0  0  0  0  0  0  0  0  0
   -0.3884   -3.0954    0.7020 O   0  0  0  0  0  0  0  0  0  0  0  0
   -1.2842   -1.3845   -0.4766 N   0  0  0  0  0  0  0  0  0  0  0  0
   -2.0797   -1.1214   -1.0479 H   0  0  0  0  0  0  0  0  0  0  0  0
   -0.0552   -0.5712   -0.5844 C   0  0  1  0  0  0  0  0  0  0  0  0
    0.6815   -1.1402   -1.1635 H   0  0  0  0  0  0  0  0  0  0  0  0
   -0.4371    0.7166   -1.3509 C   0  0  0  0  0  0  0  0  0  0  0  0
   -1.2556    0.5053   -2.0443 H   0  0  0  0  0  0  0  0  0  0  0  0
   -0.7899    1.4729   -0.6435 H   0  0  0  0  0  0  0  0  0  0  0  0
    0.6902    1.2986   -2.1598 C   0  0  0  0  0  0  0  0  0  0  0  0
    2.0323    0.9757   -2.0439 N   0  0  0  0  0  0  0  0  0  0  0  0
    2.6819    1.7026   -2.9179 C   0  0  0  0  0  0  0  0  0  0  0  0
    3.7577    1.6805   -3.0672 H   0  0  0  0  0  0  0  0  0  0  0  0
    1.7911    2.4934   -3.6185 N   0  0  0  0  0  0  0  0  0  0  0  0
    2.0441    3.1517   -4.3529 H   0  0  0  0  0  0  0  0  0  0  0  0
    0.5224    2.2383   -3.1402 C   0  0  0  0  0  0  0  0  0  0  0  0
   -0.4148    2.6844   -3.4580 H   0  0  0  0  0  0  0  0  0  0  0  0
    0.5885   -0.2273    0.7846 C   0  0  0  0  0  0  0  0  0  0  0  0
    1.8005   -0.2457    0.9510 O   0  0  0  0  0  0  0  0  0  0  0  0
   -0.2189    0.2041    1.8246 N   0  0  0  0  0  0  0  0  0  0  0  0
   -1.2136    0.0481    1.7065 H   0  0  0  0  0  0  0  0  0  0  0  0
    0.2946    0.4508    3.1661 C   0  0  0  0  0  0  0  0  0  0  0  0
    1.0702    1.2237    3.1434 H   0  0  0  0  0  0  0  0  0  0  0  0
   -0.5110    0.7910    3.8235 H   0  0  0  0  0  0  0  0  0  0  0  0
    0.7233   -0.4657    3.5853 H   0  0  0  0  0  0  0  0  0  0  0  0
  1  2  1  0  0  0  0
  2  3  1  0  0  0  0
  2  4  1  0  0  0  0
  2  5  1  0  0  0  0
  5  6  2  0  0  0  0
  5  7  1  0  0  0  0
  7  8  1  0  0  0  0
  7  9  1  0  0  0  0
  9 10  1  0  0  0  0
  9 11  1  0  0  0  0
  9 22  1  0  0  0  0
 11 12  1  0  0  0  0
 11 13  1  0  0  0  0
 11 14  1  0  0  0  0
 14 15  1  0  0  0  0
 14 20  2  0  0  0  0
 15 16  2  0  0  0  0
 16 17  1  0  0  0  0
 16 18  1  0  0  0  0
 18 19  1  0  0  0  0
 18 20  1  0  0  0  0
 20 21  1  0  0  0  0
 22 23  2  0  0  0  0
 22 24  1  0  0  0  0
 24 25  1  0  0  0  0
 24 26  1  0  0  0  0
 26 27  1  0  0  0  0
 26 28  1  0  0  0  0
 26 29  1  0  0  0  0
M  END
$$$$

  -OEChem-04042215593D

 29 29  0     1  0  0  0  0  0999 V2000
   -2.4957   -4.4416    0.4801 H   0  0  0  0  0  0  0  0  0  0  0  0
   -2.6263   -3.4778   -0.0207 C   0  0  0  0  0  0  0  0  0  0  0  0
   -3.4675   -2.9540    0.4394 H   0  0  0  0  0  0  0  0  0  0  0  0
   -2.8485   -3.6582   -1.0752 H   0  0  0  0  0  0  0  0  0  0  0  0
   -1.3635   -2.6471    0.1096 C   0  0  0  0  0  0  0  0  0  0  0  0
   -0.4185   -3.0850    0.7380 O   0  0  0  0  0  0  0  0  0  0  0  0
   -1.3112   -1.3956   -0.4724 N   0  0  0  0  0  0  0  0  0  0  0  0
   -2.0927   -1.1562   -1.0729 H   0  0  0  0  0  0  0  0  0  0  0  0
   -0.0803   -0.5874   -0.5936 C   0  0  1  0  0  0  0  0  0  0  0  0
    0.6441   -1.1664   -1.1776 H   0  0  0  0  0  0  0  0  0  0  0  0
   -0.4545    0.7066   -1.3527 C   0  0  0  0  0  0  0  0  0  0  0  0
   -1.2697    0.4937   -2.0494 H   0  0  0  0  0  0  0  0  0  0  0  0
   -0.8113    1.4638   -0.6482 H   0  0  0  0  0  0  0  0  0  0  0  0
    0.6709    1.2813   -2.1700 C   0  0  0  0  0  0  0  0  0  0  0  0
    1.9507    0.7604   -2.2870 N   0  0  0  0  0  0  0  0  0  0  0  0
    2.6337    1.5842   -3.0418 C   0  0  0  0  0  0  0  0  0  0  0  0
    3.6778    1.4568   -3.3136 H   0  0  0  0  0  0  0  0  0  0  0  0
    1.8244    2.6318   -3.4386 N   0  0  0  0  0  0  0  0  0  0  0  0
    2.1207    3.4137   -4.0195 H   0  0  0  0  0  0  0  0  0  0  0  0
    0.5761    2.4456   -2.8817 C   0  0  0  0  0  0  0  0  0  0  0  0
   -0.2967    3.0859   -2.9648 H   0  0  0  0  0  0  0  0  0  0  0  0
    0.5844   -0.2364    0.7627 C   0  0  0  0  0  0  0  0  0  0  0  0
    1.8007   -0.1974    0.8908 O   0  0  0  0  0  0  0  0  0  0  0  0
   -0.2078    0.2039    1.8104 N   0  0  0  0  0  0  0  0  0  0  0  0
   -1.2000    0.0130    1.7229 H   0  0  0  0  0  0  0  0  0  0  0  0
    0.3313    0.4992    3.1319 C   0  0  0  0  0  0  0  0  0  0  0  0
    1.0838    1.2923    3.0703 H   0  0  0  0  0  0  0  0  0  0  0  0
   -0.4672    0.8345    3.8002 H   0  0  0  0  0  0  0  0  0  0  0  0
    0.7950   -0.3943    3.5634 H   0  0  0  0  0  0  0  0  0  0  0  0
  1  2  1  0  0  0  0
  2  3  1  0  0  0  0
  2  4  1  0  0  0  0
  2  5  1  0  0  0  0
  5  6  2  0  0  0  0
  5  7  1  0  0  0  0
  7  8  1  0  0  0  0
  7  9  1  0  0  0  0
  9 10  1  0  0  0  0
  9 11  1  0  0  0  0
  9 22  1  0  0  0  0
 11 12  1  0  0  0  0
 11 13  1  0  0  0  0
 11 14  1  0  0  0  0
 14 15  1  0  0  0  0
 14 20  2  0  0  0  0
 15 16  2  0  0  0  0
 16 17  1  0  0  0  0
 16 18  1  0  0  0  0
 18 19  1  0  0  0  0
 18 20  1  0  0  0  0
 20 21  1  0  0  0  0
 22 23  2  0  0  0  0
 22 24  1  0  0  0  0
 24 25  1  0  0  0  0
 24 26  1  0  0  0  0
 26 27  1  0  0  0  0
 26 28  1  0  0  0  0
 26 29  1  0  0  0  0
M  END
$$$$

  -OEChem-04042215593D

 29 29  0     1  0  0  0  0  0999 V2000
   -2.4752   -4.4663    0.4671 H   0  0  0  0  0  0  0  0  0  0  0  0
   -2.6196   -3.5046   -0.0334 C   0  0  0  0  0  0  0  0  0  0  0  0
   -3.4744   -2.9974    0.4199 H   0  0  0  0  0  0  0  0  0  0  0  0
   -2.8293   -3.6879   -1.0900 H   0  0  0  0  0  0  0  0  0  0  0  0
   -1.3734   -2.6507    0.1085 C   0  0  0  0  0  0  0  0  0  0  0  0
   -0.4282   -3.0683    0.7510 O   0  0  0  0  0  0  0  0  0  0  0  0
   -1.3386   -1.3972   -0.4707 N   0  0  0  0  0  0  0  0  0  0  0  0
   -2.1141   -1.1792   -1.0872 H   0  0  0  0  0  0  0  0  0  0  0  0
   -0.1137   -0.5822   -0.6040 C   0  0  1  0  0  0  0  0  0  0  0  0
    0.6030   -1.1627   -1.1956 H   0  0  0  0  0  0  0  0  0  0  0  0
   -0.4901    0.7159   -1.3538 C   0  0  0  0  0  0  0  0  0  0  0  0
   -1.3015    0.4987   -2.0535 H   0  0  0  0  0  0  0  0  0  0  0  0
   -0.8537    1.4703   -0.6497 H   0  0  0  0  0  0  0  0  0  0  0  0
    0.6352    1.2866   -2.1747 C   0  0  0  0  0  0  0  0  0  0  0  0
    1.8005    0.6250   -2.5363 N   0  0  0  0  0  0  0  0  0  0  0  0
    2.5527    1.4933   -3.1658 C   0  0  0  0  0  0  0  0  0  0  0  0
    3.5398    1.2834   -3.5677 H   0  0  0  0  0  0  0  0  0  0  0  0
    1.9000    2.7089   -3.2422 N   0  0  0  0  0  0  0  0  0  0  0  0
    2.2818    3.5536   -3.6632 H   0  0  0  0  0  0  0  0  0  0  0  0
    0.6836    2.5843   -2.6040 C   0  0  0  0  0  0  0  0  0  0  0  0
   -0.0702    3.3488   -2.4442 H   0  0  0  0  0  0  0  0  0  0  0  0
    0.5730   -0.2269    0.7389 C   0  0  0  0  0  0  0  0  0  0  0  0
    1.7902   -0.1282    0.8234 O   0  0  0  0  0  0  0  0  0  0  0  0
   -0.2022    0.2087    1.8009 N   0  0  0  0  0  0  0  0  0  0  0  0
   -1.1885   -0.0213    1.7467 H   0  0  0  0  0  0  0  0  0  0  0  0
    0.3639    0.5398    3.1024 C   0  0  0  0  0  0  0  0  0  0  0  0
    1.0872    1.3569    3.0096 H   0  0  0  0  0  0  0  0  0  0  0  0
   -0.4263    0.8570    3.7893 H   0  0  0  0  0  0  0  0  0  0  0  0
    0.8693   -0.3318    3.5315 H   0  0  0  0  0  0  0  0  0  0  0  0
  1  2  1  0  0  0  0
  2  3  1  0  0  0  0
  2  4  1  0  0  0  0
  2  5  1  0  0  0  0
  5  6  2  0  0  0  0
  5  7  1  0  0  0  0
  7  8  1  0  0  0  0
  7  9  1  0  0  0  0
  9 10  1  0  0  0  0
  9 11  1  0  0  0  0
  9 22  1  0  0  0  0
 11 12  1  0  0  0  0
 11 13  1  0  0  0  0
 11 14  1  0  0  0  0
 14 15  1  0  0  0  0
 14 20  2  0  0  0  0
 15 16  2  0  0  0  0
 16 17  1  0  0  0  0
 16 18  1  0  0  0  0
 18 19  1  0  0  0  0
 18 20  1  0  0  0  0
 20 21  1  0  0  0  0
 22 23  2  0  0  0  0
 22 24  1  0  0  0  0
 24 25  1  0  0  0  0
 24 26  1  0  0  0  0
 26 27  1  0  0  0  0
 26 28  1  0  0  0  0
 26 29  1  0  0  0  0
M  END
$$$$

  -OEChem-04042215593D

 29 29  0     1  0  0  0  0  0999 V2000
   -2.4222   -4.5003    0.4013 H   0  0  0  0  0  0  0  0  0  0  0  0
   -2.5972   -3.5236   -0.0592 C   0  0  0  0  0  0  0  0  0  0  0  0
   -3.4577   -3.0557    0.4247 H   0  0  0  0  0  0  0  0  0  0  0  0
   -2.8176   -3.6713   -1.1190 H   0  0  0  0  0  0  0  0  0  0  0  0
   -1.3702   -2.6451    0.0992 C   0  0  0  0  0  0  0  0  0  0  0  0
   -0.4211   -3.0484    0.7454 O   0  0  0  0  0  0  0  0  0  0  0  0
   -1.3562   -1.3862   -0.4690 N   0  0  0  0  0  0  0  0  0  0  0  0
   -2.1325   -1.1787   -1.0885 H   0  0  0  0  0  0  0  0  0  0  0  0
   -0.1405   -0.5586   -0.6048 C   0  0  1  0  0  0  0  0  0  0  0  0
    0.5752   -1.1320   -1.2043 H   0  0  0  0  0  0  0  0  0  0  0  0
   -0.5255    0.7421   -1.3435 C   0  0  0  0  0  0  0  0  0  0  0  0
   -1.3353    0.5261   -2.0454 H   0  0  0  0  0  0  0  0  0  0  0  0
   -0.8919    1.4912   -0.6351 H   0  0  0  0  0  0  0  0  0  0  0  0
    0.6036    1.3117   -2.1587 C   0  0  0  0  0  0  0  0  0  0  0  0
    1.6144    0.5737   -2.7608 N   0  0  0  0  0  0  0  0  0  0  0  0
    2.4453    1.4360   -3.2932 C   0  0  0  0  0  0  0  0  0  0  0  0
    3.3523    1.1736   -3.8304 H   0  0  0  0  0  0  0  0  0  0  0  0
    1.9927    2.7229   -3.0719 N   0  0  0  0  0  0  0  0  0  0  0  0
    2.4764    3.5715   -3.3587 H   0  0  0  0  0  0  0  0  0  0  0  0
    0.8252    2.6486   -2.3418 C   0  0  0  0  0  0  0  0  0  0  0  0
    0.2205    3.4652   -1.9593 H   0  0  0  0  0  0  0  0  0  0  0  0
    0.5608   -0.2047    0.7295 C   0  0  0  0  0  0  0  0  0  0  0  0
    1.7762   -0.0678    0.7838 O   0  0  0  0  0  0  0  0  0  0  0  0
   -0.2028    0.2168    1.8052 N   0  0  0  0  0  0  0  0  0  0  0  0
   -1.1843   -0.0376    1.7709 H   0  0  0  0  0  0  0  0  0  0  0  0
    0.3818    0.5591    3.0955 C   0  0  0  0  0  0  0  0  0  0  0  0
    1.0971    1.3810    2.9868 H   0  0  0  0  0  0  0  0  0  0  0  0
   -0.3995    0.8743    3.7932 H   0  0  0  0  0  0  0  0  0  0  0  0
    0.9009   -0.3063    3.5205 H   0  0  0  0  0  0  0  0  0  0  0  0
  1  2  1  0  0  0  0
  2  3  1  0  0  0  0
  2  4  1  0  0  0  0
  2  5  1  0  0  0  0
  5  6  2  0  0  0  0
  5  7  1  0  0  0  0
  7  8  1  0  0  0  0
  7  9  1  0  0  0  0
  9 10  1  0  0  0  0
  9 11  1  0  0  0  0
  9 22  1  0  0  0  0
 11 12  1  0  0  0  0
 11 13  1  0  0  0  0
 11 14  1  0  0  0  0
 14 15  1  0  0  0  0
 14 20  2  0  0  0  0
 15 16  2  0  0  0  0
 16 17  1  0  0  0  0
 16 18  1  0  0  0  0
 18 19  1  0  0  0  0
 18 20  1  0  0  0  0
 20 21  1  0  0  0  0
 22 23  2  0  0  0  0
 22 24  1  0  0  0  0
 24 25  1  0  0  0  0
 24 26  1  0  0  0  0
 26 27  1  0  0  0  0
 26 28  1  0  0  0  0
 26 29  1  0  0  0  0
M  END
$$$$

  -OEChem-04042215593D

 29 29  0     1  0  0  0  0  0999 V2000
   -2.3800   -4.5129    0.3552 H   0  0  0  0  0  0  0  0  0  0  0  0
   -2.5720   -3.5310   -0.0876 C   0  0  0  0  0  0  0  0  0  0  0  0
   -3.4393   -3.0858    0.4060 H   0  0  0  0  0  0  0  0  0  0  0  0
   -2.7919   -3.6635   -1.1498 H   0  0  0  0  0  0  0  0  0  0  0  0
   -1.3590   -2.6355    0.0845 C   0  0  0  0  0  0  0  0  0  0  0  0
   -0.4058   -3.0306    0.7302 O   0  0  0  0  0  0  0  0  0  0  0  0
   -1.3620   -1.3704   -0.4698 N   0  0  0  0  0  0  0  0  0  0  0  0
   -2.1359   -1.1717   -1.0953 H   0  0  0  0  0  0  0  0  0  0  0  0
   -0.1553   -0.5298   -0.6015 C   0  0  1  0  0  0  0  0  0  0  0  0
    0.5635   -1.0887   -1.2115 H   0  0  0  0  0  0  0  0  0  0  0  0
   -0.5514    0.7740   -1.3253 C   0  0  0  0  0  0  0  0  0  0  0  0
   -1.3615    0.5667   -2.0293 H   0  0  0  0  0  0  0  0  0  0  0  0
   -0.9162    1.5154   -0.6083 H   0  0  0  0  0  0  0  0  0  0  0  0
    0.5849    1.3406   -2.1287 C   0  0  0  0  0  0  0  0  0  0  0  0
    1.4103    0.5947   -2.9602 N   0  0  0  0  0  0  0  0  0  0  0  0
    2.3192    1.4202   -3.4204 C   0  0  0  0  0  0  0  0  0  0  0  0
    3.1273    1.1424   -4.0912 H   0  0  0  0  0  0  0  0  0  0  0  0
    2.0950    2.6922   -2.9282 N   0  0  0  0  0  0  0  0  0  0  0  0
    2.6832    3.5033   -3.1094 H   0  0  0  0  0  0  0  0  0  0  0  0
    0.9942    2.6445   -2.0991 C   0  0  0  0  0  0  0  0  0  0  0  0
    0.5578    3.4494   -1.5158 H   0  0  0  0  0  0  0  0  0  0  0  0
    0.5517   -0.1821    0.7308 C   0  0  0  0  0  0  0  0  0  0  0  0
    1.7647   -0.0198    0.7687 O   0  0  0  0  0  0  0  0  0  0  0  0
   -0.2066    0.2213    1.8169 N   0  0  0  0  0  0  0  0  0  0  0  0
   -1.1845   -0.0483    1.7907 H   0  0  0  0  0  0  0  0  0  0  0  0
    0.3851    0.5602    3.1050 C   0  0  0  0  0  0  0  0  0  0  0  0
    1.0926    1.3890    2.9970 H   0  0  0  0  0  0  0  0  0  0  0  0
   -0.3942    0.8638    3.8103 H   0  0  0  0  0  0  0  0  0  0  0  0
    0.9145   -0.3034    3.5210 H   0  0  0  0  0  0  0  0  0  0  0  0
  1  2  1  0  0  0  0
  2  3  1  0  0  0  0
  2  4  1  0  0  0  0
  2  5  1  0  0  0  0
  5  6  2  0  0  0  0
  5  7  1  0  0  0  0
  7  8  1  0  0  0  0
  7  9  1  0  0  0  0
  9 10  1  0  0  0  0
  9 11  1  0  0  0  0
  9 22  1  0  0  0  0
 11 12  1  0  0  0  0
 11 13  1  0  0  0  0
 11 14  1  0  0  0  0
 14 15  1  0  0  0  0
 14 20  2  0  0  0  0
 15 16  2  0  0  0  0
 16 17  1  0  0  0  0
 16 18  1  0  0  0  0
 18 19  1  0  0  0  0
 18 20  1  0  0  0  0
 20 21  1  0  0  0  0
 22 23  2  0  0  0  0
 22 24  1  0  0  0  0
 24 25  1  0  0  0  0
 24 26  1  0  0  0  0
 26 27  1  0  0  0  0
 26 28  1  0  0  0  0
 26 29  1  0  0  0  0
M  END
$$$$

  -OEChem-04042215593D

 29 29  0     1  0  0  0  0  0999 V2000
   -2.3630   -4.5063    0.3421 H   0  0  0  0  0  0  0  0  0  0  0  0
   -2.5526   -3.5319   -0.1169 C   0  0  0  0  0  0  0  0  0  0  0  0
   -3.4305   -3.0853    0.3555 H   0  0  0  0  0  0  0  0  0  0  0  0
   -2.7532   -3.6793   -1.1809 H   0  0  0  0  0  0  0  0  0  0  0  0
   -1.3481   -2.6270    0.0645 C   0  0  0  0  0  0  0  0  0  0  0  0
   -0.3884   -3.0209    0.7013 O   0  0  0  0  0  0  0  0  0  0  0  0
   -1.3645   -1.3541   -0.4712 N   0  0  0  0  0  0  0  0  0  0  0  0
   -2.1426   -1.1521   -1.0908 H   0  0  0  0  0  0  0  0  0  0  0  0
   -0.1660   -0.5014   -0.5942 C   0  0  1  0  0  0  0  0  0  0  0  0
    0.5563   -1.0456   -1.2138 H   0  0  0  0  0  0  0  0  0  0  0  0
   -0.5678    0.8045   -1.3073 C   0  0  0  0  0  0  0  0  0  0  0  0
   -1.3781    0.6101   -2.0152 H   0  0  0  0  0  0  0  0  0  0  0  0
   -0.9273    1.5420   -0.5835 H   0  0  0  0  0  0  0  0  0  0  0  0
    0.5829    1.3614   -2.0923 C   0  0  0  0  0  0  0  0  0  0  0  0
    1.2114    0.6791   -3.1256 N   0  0  0  0  0  0  0  0  0  0  0  0
    2.1921    1.4496   -3.5313 C   0  0  0  0  0  0  0  0  0  0  0  0
    2.8902    1.1983   -4.3247 H   0  0  0  0  0  0  0  0  0  0  0  0
    2.2035    2.6259   -2.8050 N   0  0  0  0  0  0  0  0  0  0  0  0
    2.8902    3.3709   -2.9048 H   0  0  0  0  0  0  0  0  0  0  0  0
    1.1797    2.5723   -1.8832 C   0  0  0  0  0  0  0  0  0  0  0  0
    0.9161    3.3046   -1.1262 H   0  0  0  0  0  0  0  0  0  0  0  0
    0.5442   -0.1651    0.7389 C   0  0  0  0  0  0  0  0  0  0  0  0
    1.7544    0.0209    0.7662 O   0  0  0  0  0  0  0  0  0  0  0  0
   -0.2117    0.2168    1.8340 N   0  0  0  0  0  0  0  0  0  0  0  0
   -1.1837   -0.0744    1.8145 H   0  0  0  0  0  0  0  0  0  0  0  0
    0.3852    0.5546    3.1198 C   0  0  0  0  0  0  0  0  0  0  0  0
    1.0692    1.4032    3.0149 H   0  0  0  0  0  0  0  0  0  0  0  0
   -0.3935    0.8282    3.8378 H   0  0  0  0  0  0  0  0  0  0  0  0
    0.9420   -0.3000    3.5181 H   0  0  0  0  0  0  0  0  0  0  0  0
  1  2  1  0  0  0  0
  2  3  1  0  0  0  0
  2  4  1  0  0  0  0
  2  5  1  0  0  0  0
  5  6  2  0  0  0  0
  5  7  1  0  0  0  0
  7  8  1  0  0  0  0
  7  9  1  0  0  0  0
  9 10  1  0  0  0  0
  9 11  1  0  0  0  0
  9 22  1  0  0  0  0
 11 12  1  0  0  0  0
 11 13  1  0  0  0  0
 11 14  1  0  0  0  0
 14 15  1  0  0  0  0
 14 20  2  0  0  0  0
 15 16  2  0  0  0  0
 16 17  1  0  0  0  0
 16 18  1  0  0  0  0
 18 19  1  0  0  0  0
 18 20  1  0  0  0  0
 20 21  1  0  0  0  0
 22 23  2  0  0  0  0
 22 24  1  0  0  0  0
 24 25  1  0  0  0  0
 24 26  1  0  0  0  0
 26 27  1  0  0  0  0
 26 28  1  0  0  0  0
 26 29  1  0  0  0  0
M  END
$$$$

  -OEChem-04042215593D

 29 29  0     1  0  0  0  0  0999 V2000
   -2.3443   -4.5127    0.2926 H   0  0  0  0  0  0  0  0  0  0  0  0
   -2.5451   -3.5258   -0.1344 C   0  0  0  0  0  0  0  0  0  0  0  0
   -3.4202   -3.0992    0.3615 H   0  0  0  0  0  0  0  0  0  0  0  0
   -2.7576   -3.6423   -1.2000 H   0  0  0  0  0  0  0  0  0  0  0  0
   -1.3438   -2.6194    0.0598 C   0  0  0  0  0  0  0  0  0  0  0  0
   -0.3863   -3.0144    0.6995 O   0  0  0  0  0  0  0  0  0  0  0  0
   -1.3587   -1.3444   -0.4706 N   0  0  0  0  0  0  0  0  0  0  0  0
   -2.1316   -1.1423   -1.0969 H   0  0  0  0  0  0  0  0  0  0  0  0
   -0.1602   -0.4912   -0.5845 C   0  0  1  0  0  0  0  0  0  0  0  0
    0.5655   -1.0292   -1.2064 H   0  0  0  0  0  0  0  0  0  0  0  0
   -0.5617    0.8152   -1.2936 C   0  0  0  0  0  0  0  0  0  0  0  0
   -1.3736    0.6314   -2.0022 H   0  0  0  0  0  0  0  0  0  0  0  0
   -0.9147    1.5515   -0.5652 H   0  0  0  0  0  0  0  0  0  0  0  0
    0.5972    1.3665   -2.0676 C   0  0  0  0  0  0  0  0  0  0  0  0
    1.0320    0.8275   -3.2708 N   0  0  0  0  0  0  0  0  0  0  0  0
    2.0707    1.5416   -3.6355 C   0  0  0  0  0  0  0  0  0  0  0  0
    2.6561    1.3696   -4.5342 H   0  0  0  0  0  0  0  0  0  0  0  0
    2.3084    2.5426   -2.7120 N   0  0  0  0  0  0  0  0  0  0  0  0
    3.0819    3.2037   -2.7477 H   0  0  0  0  0  0  0  0  0  0  0  0
    1.3684    2.4349   -1.7097 C   0  0  0  0  0  0  0  0  0  0  0  0
    1.2716    3.0322   -0.8080 H   0  0  0  0  0  0  0  0  0  0  0  0
    0.5436   -0.1608    0.7536 C   0  0  0  0  0  0  0  0  0  0  0  0
    1.7535    0.0267    0.7850 O   0  0  0  0  0  0  0  0  0  0  0  0
   -0.2165    0.2163    1.8473 N   0  0  0  0  0  0  0  0  0  0  0  0
   -1.1903   -0.0688    1.8211 H   0  0  0  0  0  0  0  0  0  0  0  0
    0.3744    0.5477    3.1377 C   0  0  0  0  0  0  0  0  0  0  0  0
    1.0654    1.3914    3.0392 H   0  0  0  0  0  0  0  0  0  0  0  0
   -0.4076    0.8256    3.8507 H   0  0  0  0  0  0  0  0  0  0  0  0
    0.9222   -0.3116    3.5385 H   0  0  0  0  0  0  0  0  0  0  0  0
  1  2  1  0  0  0  0
  2  3  1  0  0  0  0
  2  4  1  0  0  0  0
  2  5  1  0  0  0  0
  5  6  2  0  0  0  0
  5  7  1  0  0  0  0
  7  8  1  0  0  0  0
  7  9  1  0  0  0  0
  9 10  1  0  0  0  0
  9 11  1  0  0  0  0
  9 22  1  0  0  0  0
 11 12  1  0  0  0  0
 11 13  1  0  0  0  0
 11 14  1  0  0  0  0
 14 15  1  0  0  0  0
 14 20  2  0  0  0  0
 15 16  2  0  0  0  0
 16 17  1  0  0  0  0
 16 18  1  0  0  0  0
 18 19  1  0  0  0  0
 18 20  1  0  0  0  0
 20 21  1  0  0  0  0
 22 23  2  0  0  0  0
 22 24  1  0  0  0  0
 24 25  1  0  0  0  0
 24 26  1  0  0  0  0
 26 27  1  0  0  0  0
 26 28  1  0  0  0  0
 26 29  1  0  0  0  0
M  END
$$$$

  -OEChem-04042215593D

 29 29  0     1  0  0  0  0  0999 V2000
   -2.3734   -4.4905    0.3305 H   0  0  0  0  0  0  0  0  0  0  0  0
   -2.5550   -3.5130   -0.1255 C   0  0  0  0  0  0  0  0  0  0  0  0
   -3.4261   -3.0583    0.3522 H   0  0  0  0  0  0  0  0  0  0  0  0
   -2.7623   -3.6558   -1.1888 H   0  0  0  0  0  0  0  0  0  0  0  0
   -1.3400   -2.6217    0.0518 C   0  0  0  0  0  0  0  0  0  0  0  0
   -0.3764   -3.0299    0.6739 O   0  0  0  0  0  0  0  0  0  0  0  0
   -1.3469   -1.3449   -0.4743 N   0  0  0  0  0  0  0  0  0  0  0  0
   -2.1274   -1.1260   -1.0856 H   0  0  0  0  0  0  0  0  0  0  0  0
   -0.1464   -0.4937   -0.5790 C   0  0  1  0  0  0  0  0  0  0  0  0
    0.5822   -1.0306   -1.1985 H   0  0  0  0  0  0  0  0  0  0  0  0
   -0.5419    0.8122   -1.2915 C   0  0  0  0  0  0  0  0  0  0  0  0
   -1.3536    0.6327   -2.0022 H   0  0  0  0  0  0  0  0  0  0  0  0
   -0.8941    1.5493   -0.5639 H   0  0  0  0  0  0  0  0  0  0  0  0
    0.6206    1.3657   -2.0588 C   0  0  0  0  0  0  0  0  0  0  0  0
    0.8811    1.0362   -3.3821 N   0  0  0  0  0  0  0  0  0  0  0  0
    1.9696    1.6903   -3.7130 C   0  0  0  0  0  0  0  0  0  0  0  0
    2.4509    1.6403   -4.6854 H   0  0  0  0  0  0  0  0  0  0  0  0
    2.4111    2.4507   -2.6463 N   0  0  0  0  0  0  0  0  0  0  0  0
    3.2545    3.0210   -2.6383 H   0  0  0  0  0  0  0  0  0  0  0  0
    1.5512    2.2475   -1.5887 C   0  0  0  0  0  0  0  0  0  0  0  0
    1.6075    2.6551   -0.5830 H   0  0  0  0  0  0  0  0  0  0  0  0
    0.5470   -0.1716    0.7665 C   0  0  0  0  0  0  0  0  0  0  0  0
    1.7572    0.0121    0.8091 O   0  0  0  0  0  0  0  0  0  0  0  0
   -0.2205    0.2019    1.8560 N   0  0  0  0  0  0  0  0  0  0  0  0
   -1.1974   -0.0712    1.8189 H   0  0  0  0  0  0  0  0  0  0  0  0
    0.3604    0.5331    3.1510 C   0  0  0  0  0  0  0  0  0  0  0  0
    1.0378    1.3885    3.0603 H   0  0  0  0  0  0  0  0  0  0  0  0
   -0.4282    0.7933    3.8632 H   0  0  0  0  0  0  0  0  0  0  0  0
    0.9208   -0.3199    3.5480 H   0  0  0  0  0  0  0  0  0  0  0  0
  1  2  1  0  0  0  0
  2  3  1  0  0  0  0
  2  4  1  0  0  0  0
  2  5  1  0  0  0  0
  5  6  2  0  0  0  0
  5  7  1  0  0  0  0
  7  8  1  0  0  0  0
  7  9  1  0  0  0  0
  9 10  1  0  0  0  0
  9 11  1  0  0  0  0
  9 22  1  0  0  0  0
 11 12  1  0  0  0  0
 11 13  1  0  0  0  0
 11 14  1  0  0  0  0
 14 15  1  0  0  0  0
 14 20  2  0  0  0  0
 15 16  2  0  0  0  0
 16 17  1  0  0  0  0
 16 18  1  0  0  0  0
 18 19  1  0  0  0  0
 18 20  1  0  0  0  0
 20 21  1  0  0  0  0
 22 23  2  0  0  0  0
 22 24  1  0  0  0  0
 24 25  1  0  0  0  0
 24 26  1  0  0  0  0
 26 27  1  0  0  0  0
 26 28  1  0  0  0  0
 26 29  1  0  0  0  0
M  END
$$$$

  -OEChem-04042215593D

 29 29  0     1  0  0  0  0  0999 V2000
   -2.3958   -4.4753    0.3426 H   0  0  0  0  0  0  0  0  0  0  0  0
   -2.5673   -3.4939   -0.1088 C   0  0  0  0  0  0  0  0  0  0  0  0
   -3.4250   -3.0266    0.3807 H   0  0  0  0  0  0  0  0  0  0  0  0
   -2.7896   -3.6302   -1.1698 H   0  0  0  0  0  0  0  0  0  0  0  0
   -1.3366   -2.6223    0.0563 C   0  0  0  0  0  0  0  0  0  0  0  0
   -0.3741   -3.0452    0.6699 O   0  0  0  0  0  0  0  0  0  0  0  0
   -1.3259   -1.3473   -0.4740 N   0  0  0  0  0  0  0  0  0  0  0  0
   -2.1087   -1.1129   -1.0767 H   0  0  0  0  0  0  0  0  0  0  0  0
   -0.1184   -0.5048   -0.5686 C   0  0  1  0  0  0  0  0  0  0  0  0
    0.6153   -1.0460   -1.1779 H   0  0  0  0  0  0  0  0  0  0  0  0
   -0.5057    0.7985   -1.2932 C   0  0  0  0  0  0  0  0  0  0  0  0
   -1.3136    0.6119   -2.0065 H   0  0  0  0  0  0  0  0  0  0  0  0
   -0.8657    1.5397   -0.5736 H   0  0  0  0  0  0  0  0  0  0  0  0
    0.6529    1.3629   -2.0611 C   0  0  0  0  0  0  0  0  0  0  0  0
    0.7500    1.2794   -3.4437 N   0  0  0  0  0  0  0  0  0  0  0  0
    1.8745    1.8725   -3.7691 C   0  0  0  0  0  0  0  0  0  0  0  0
    2.2519    1.9719   -4.7828 H   0  0  0  0  0  0  0  0  0  0  0  0
    2.5040    2.3521   -2.6361 N   0  0  0  0  0  0  0  0  0  0  0  0
    3.4051    2.8256   -2.6171 H   0  0  0  0  0  0  0  0  0  0  0  0
    1.7256    2.0328   -1.5449 C   0  0  0  0  0  0  0  0  0  0  0  0
    1.9219    2.2323   -0.4942 H   0  0  0  0  0  0  0  0  0  0  0  0
    0.5541   -0.1884    0.7896 C   0  0  0  0  0  0  0  0  0  0  0  0
    1.7677   -0.0390    0.8604 O   0  0  0  0  0  0  0  0  0  0  0  0
   -0.2281    0.1909    1.8664 N   0  0  0  0  0  0  0  0  0  0  0  0
   -1.2103   -0.0574    1.8058 H   0  0  0  0  0  0  0  0  0  0  0  0
    0.3306    0.5025    3.1759 C   0  0  0  0  0  0  0  0  0  0  0  0
    1.0329    1.3396    3.1049 H   0  0  0  0  0  0  0  0  0  0  0  0
   -0.4676    0.7820    3.8699 H   0  0  0  0  0  0  0  0  0  0  0  0
    0.8578   -0.3667    3.5832 H   0  0  0  0  0  0  0  0  0  0  0  0
  1  2  1  0  0  0  0
  2  3  1  0  0  0  0
  2  4  1  0  0  0  0
  2  5  1  0  0  0  0
  5  6  2  0  0  0  0
  5  7  1  0  0  0  0
  7  8  1  0  0  0  0
  7  9  1  0  0  0  0
  9 10  1  0  0  0  0
  9 11  1  0  0  0  0
  9 22  1  0  0  0  0
 11 12  1  0  0  0  0
 11 13  1  0  0  0  0
 11 14  1  0  0  0  0
 14 15  1  0  0  0  0
 14 20  2  0  0  0  0
 15 16  2  0  0  0  0
 16 17  1  0  0  0  0
 16 18  1  0  0  0  0
 18 19  1  0  0  0  0
 18 20  1  0  0  0  0
 20 21  1  0  0  0  0
 22 23  2  0  0  0  0
 22 24  1  0  0  0  0
 24 25  1  0  0  0  0
 24 26  1  0  0  0  0
 26 27  1  0  0  0  0
 26 28  1  0  0  0  0
 26 29  1  0  0  0  0
M  END
$$$$

  -OEChem-04042215593D

 29 29  0     1  0  0  0  0  0999 V2000
   -2.4257   -4.4582    0.3524 H   0  0  0  0  0  0  0  0  0  0  0  0
   -2.5840   -3.4711   -0.0913 C   0  0  0  0  0  0  0  0  0  0  0  0
   -3.4292   -2.9922    0.4088 H   0  0  0  0  0  0  0  0  0  0  0  0
   -2.8185   -3.5975   -1.1509 H   0  0  0  0  0  0  0  0  0  0  0  0
   -1.3365   -2.6222    0.0672 C   0  0  0  0  0  0  0  0  0  0  0  0
   -0.3792   -3.0635    0.6759 O   0  0  0  0  0  0  0  0  0  0  0  0
   -1.3006   -1.3510   -0.4719 N   0  0  0  0  0  0  0  0  0  0  0  0
   -2.0824   -1.0991   -1.0689 H   0  0  0  0  0  0  0  0  0  0  0  0
   -0.0825   -0.5218   -0.5528 C   0  0  1  0  0  0  0  0  0  0  0  0
    0.6582   -1.0705   -1.1460 H   0  0  0  0  0  0  0  0  0  0  0  0
   -0.4577    0.7775   -1.2950 C   0  0  0  0  0  0  0  0  0  0  0  0
   -1.2577    0.5753   -2.0134 H   0  0  0  0  0  0  0  0  0  0  0  0
   -0.8337    1.5232   -0.5885 H   0  0  0  0  0  0  0  0  0  0  0  0
    0.6923    1.3605   -2.0670 C   0  0  0  0  0  0  0  0  0  0  0  0
    0.6386    1.5419   -3.4434 N   0  0  0  0  0  0  0  0  0  0  0  0
    1.7873    2.0703   -3.7939 C   0  0  0  0  0  0  0  0  0  0  0  0
    2.0663    2.3301   -4.8110 H   0  0  0  0  0  0  0  0  0  0  0  0
    2.5852    2.2484   -2.6805 N   0  0  0  0  0  0  0  0  0  0  0  0
    3.5301    2.6279   -2.6855 H   0  0  0  0  0  0  0  0  0  0  0  0
    1.8897    1.8024   -1.5779 C   0  0  0  0  0  0  0  0  0  0  0  0
    2.2177    1.7901   -0.5417 H   0  0  0  0  0  0  0  0  0  0  0  0
    0.5600   -0.2095    0.8208 C   0  0  0  0  0  0  0  0  0  0  0  0
    1.7766   -0.1286    0.9346 O   0  0  0  0  0  0  0  0  0  0  0  0
   -0.2394    0.1827    1.8801 N   0  0  0  0  0  0  0  0  0  0  0  0
   -1.2301   -0.0159    1.7854 H   0  0  0  0  0  0  0  0  0  0  0  0
    0.2921    0.4610    3.2083 C   0  0  0  0  0  0  0  0  0  0  0  0
    1.0286    1.2704    3.1661 H   0  0  0  0  0  0  0  0  0  0  0  0
   -0.5144    0.7657    3.8817 H   0  0  0  0  0  0  0  0  0  0  0  0
    0.7729   -0.4318    3.6218 H   0  0  0  0  0  0  0  0  0  0  0  0
  1  2  1  0  0  0  0
  2  3  1  0  0  0  0
  2  4  1  0  0  0  0
  2  5  1  0  0  0  0
  5  6  2  0  0  0  0
  5  7  1  0  0  0  0
  7  8  1  0  0  0  0
  7  9  1  0  0  0  0
  9 10  1  0  0  0  0
  9 11  1  0  0  0  0
  9 22  1  0  0  0  0
 11 12  1  0  0  0  0
 11 13  1  0  0  0  0
 11 14  1  0  0  0  0
 14 15  1  0  0  0  0
 14 20  2  0  0  0  0
 15 16  2  0  0  0  0
 16 17  1  0  0  0  0
 16 18  1  0  0  0  0
 18 19  1  0  0  0  0
 18 20  1  0  0  0  0
 20 21  1  0  0  0  0
 22 23  2  0  0  0  0
 22 24  1  0  0  0  0
 24 25  1  0  0  0  0
 24 26  1  0  0  0  0
 26 27  1  0  0  0  0
 26 28  1  0  0  0  0
 26 29  1  0  0  0  0
M  END
$$$$

  -OEChem-04042215593D

 29 29  0     1  0  0  0  0  0999 V2000
   -2.4608   -4.4361    0.3694 H   0  0  0  0  0  0  0  0  0  0  0  0
   -2.5982   -3.4488   -0.0812 C   0  0  0  0  0  0  0  0  0  0  0  0
   -3.4344   -2.9498    0.4144 H   0  0  0  0  0  0  0  0  0  0  0  0
   -2.8335   -3.5771   -1.1405 H   0  0  0  0  0  0  0  0  0  0  0  0
   -1.3338   -2.6244    0.0741 C   0  0  0  0  0  0  0  0  0  0  0  0
   -0.3827   -3.0849    0.6779 O   0  0  0  0  0  0  0  0  0  0  0  0
   -1.2731   -1.3566   -0.4705 N   0  0  0  0  0  0  0  0  0  0  0  0
   -2.0560   -1.0843   -1.0572 H   0  0  0  0  0  0  0  0  0  0  0  0
   -0.0462   -0.5381   -0.5349 C   0  0  1  0  0  0  0  0  0  0  0  0
    0.7021   -1.0919   -1.1135 H   0  0  0  0  0  0  0  0  0  0  0  0
   -0.4087    0.7612   -1.2856 C   0  0  0  0  0  0  0  0  0  0  0  0
   -1.1969    0.5445   -2.0125 H   0  0  0  0  0  0  0  0  0  0  0  0
   -0.8050    1.5063   -0.5897 H   0  0  0  0  0  0  0  0  0  0  0  0
    0.7307    1.3680   -2.0596 C   0  0  0  0  0  0  0  0  0  0  0  0
    0.5460    1.8291   -3.3578 N   0  0  0  0  0  0  0  0  0  0  0  0
    1.7092    2.2752   -3.7682 C   0  0  0  0  0  0  0  0  0  0  0  0
    1.8996    2.7040   -4.7479 H   0  0  0  0  0  0  0  0  0  0  0  0
    2.6520    2.1172   -2.7720 N   0  0  0  0  0  0  0  0  0  0  0  0
    3.6341    2.3776   -2.8417 H   0  0  0  0  0  0  0  0  0  0  0  0
    2.0356    1.5376   -1.6844 C   0  0  0  0  0  0  0  0  0  0  0  0
    2.4889    1.2710   -0.7340 H   0  0  0  0  0  0  0  0  0  0  0  0
    0.5661   -0.2289    0.8541 C   0  0  0  0  0  0  0  0  0  0  0  0
    1.7803   -0.1948    1.0084 O   0  0  0  0  0  0  0  0  0  0  0  0
   -0.2539    0.1731    1.8939 N   0  0  0  0  0  0  0  0  0  0  0  0
   -1.2479    0.0143    1.7657 H   0  0  0  0  0  0  0  0  0  0  0  0
    0.2447    0.4327    3.2383 C   0  0  0  0  0  0  0  0  0  0  0  0
    0.9934    1.2317    3.2222 H   0  0  0  0  0  0  0  0  0  0  0  0
   -0.5757    0.7434    3.8921 H   0  0  0  0  0  0  0  0  0  0  0  0
    0.7010   -0.4704    3.6573 H   0  0  0  0  0  0  0  0  0  0  0  0
  1  2  1  0  0  0  0
  2  3  1  0  0  0  0
  2  4  1  0  0  0  0
  2  5  1  0  0  0  0
  5  6  2  0  0  0  0
  5  7  1  0  0  0  0
  7  8  1  0  0  0  0
  7  9  1  0  0  0  0
  9 10  1  0  0  0  0
  9 11  1  0  0  0  0
  9 22  1  0  0  0  0
 11 12  1  0  0  0  0
 11 13  1  0  0  0  0
 11 14  1  0  0  0  0
 14 15  1  0  0  0  0
 14 20  2  0  0  0  0
 15 16  2  0  0  0  0
 16 17  1  0  0  0  0
 16 18  1  0  0  0  0
 18 19  1  0  0  0  0
 18 20  1  0  0  0  0
 20 21  1  0  0  0  0
 22 23  2  0  0  0  0
 22 24  1  0  0  0  0
 24 25  1  0  0  0  0
 24 26  1  0  0  0  0
 26 27  1  0  0  0  0
 26 28  1  0  0  0  0
 26 29  1  0  0  0  0
M  END
$$$$

  -OEChem-04042215593D

 29 29  0     1  0  0  0  0  0999 V2000
   -2.4785   -4.4348    0.3838 H   0  0  0  0  0  0  0  0  0  0  0  0
   -2.6124   -3.4459   -0.0643 C   0  0  0  0  0  0  0  0  0  0  0  0
   -3.4338   -2.9373    0.4459 H   0  0  0  0  0  0  0  0  0  0  0  0
   -2.8681   -3.5714   -1.1192 H   0  0  0  0  0  0  0  0  0  0  0  0
   -1.3362   -2.6360    0.0686 C   0  0  0  0  0  0  0  0  0  0  0  0
   -0.3788   -3.1080    0.6535 O   0  0  0  0  0  0  0  0  0  0  0  0
   -1.2689   -1.3685   -0.4763 N   0  0  0  0  0  0  0  0  0  0  0  0
   -2.0625   -1.0763   -1.0384 H   0  0  0  0  0  0  0  0  0  0  0  0
   -0.0403   -0.5525   -0.5321 C   0  0  1  0  0  0  0  0  0  0  0  0
    0.7082   -1.1128   -1.1037 H   0  0  0  0  0  0  0  0  0  0  0  0
   -0.3859    0.7495   -1.2851 C   0  0  0  0  0  0  0  0  0  0  0  0
   -1.1655    0.5342   -2.0217 H   0  0  0  0  0  0  0  0  0  0  0  0
   -0.7887    1.4951   -0.5936 H   0  0  0  0  0  0  0  0  0  0  0  0
    0.7588    1.3591   -2.0511 C   0  0  0  0  0  0  0  0  0  0  0  0
    0.5229    2.0959   -3.2057 N   0  0  0  0  0  0  0  0  0  0  0  0
    1.6953    2.4604   -3.6677 C   0  0  0  0  0  0  0  0  0  0  0  0
    1.8531    3.0558   -4.5626 H   0  0  0  0  0  0  0  0  0  0  0  0
    2.6953    1.9712   -2.8514 N   0  0  0  0  0  0  0  0  0  0  0  0
    3.6941    2.1103   -2.9927 H   0  0  0  0  0  0  0  0  0  0  0  0
    2.1061    1.2616   -1.8278 C   0  0  0  0  0  0  0  0  0  0  0  0
    2.6042    0.7353   -1.0184 H   0  0  0  0  0  0  0  0  0  0  0  0
    0.5643   -0.2421    0.8602 C   0  0  0  0  0  0  0  0  0  0  0  0
    1.7778   -0.2061    1.0190 O   0  0  0  0  0  0  0  0  0  0  0  0
   -0.2603    0.1630    1.8953 N   0  0  0  0  0  0  0  0  0  0  0  0
   -1.2551    0.0156    1.7611 H   0  0  0  0  0  0  0  0  0  0  0  0
    0.2322    0.4389    3.2388 C   0  0  0  0  0  0  0  0  0  0  0  0
    0.9819    1.2368    3.2165 H   0  0  0  0  0  0  0  0  0  0  0  0
   -0.5907    0.7589    3.8850 H   0  0  0  0  0  0  0  0  0  0  0  0
    0.6855   -0.4594    3.6711 H   0  0  0  0  0  0  0  0  0  0  0  0
  1  2  1  0  0  0  0
  2  3  1  0  0  0  0
  2  4  1  0  0  0  0
  2  5  1  0  0  0  0
  5  6  2  0  0  0  0
  5  7  1  0  0  0  0
  7  8  1  0  0  0  0
  7  9  1  0  0  0  0
  9 10  1  0  0  0  0
  9 11  1  0  0  0  0
  9 22  1  0  0  0  0
 11 12  1  0  0  0  0
 11 13  1  0  0  0  0
 11 14  1  0  0  0  0
 14 15  1  0  0  0  0
 14 20  2  0  0  0  0
 15 16  2  0  0  0  0
 16 17  1  0  0  0  0
 16 18  1  0  0  0  0
 18 19  1  0  0  0  0
 18 20  1  0  0  0  0
 20 21  1  0  0  0  0
 22 23  2  0  0  0  0
 22 24  1  0  0  0  0
 24 25  1  0  0  0  0
 24 26  1  0  0  0  0
 26 27  1  0  0  0  0
 26 28  1  0  0  0  0
 26 29  1  0  0  0  0
M  END
$$$$

  -OEChem-04042215593D

 29 29  0     1  0  0  0  0  0999 V2000
   -2.4979   -4.4486    0.3860 H   0  0  0  0  0  0  0  0  0  0  0  0
   -2.6376   -3.4546   -0.0485 C   0  0  0  0  0  0  0  0  0  0  0  0
   -3.4458   -2.9484    0.4846 H   0  0  0  0  0  0  0  0  0  0  0  0
   -2.9160   -3.5674   -1.0991 H   0  0  0  0  0  0  0  0  0  0  0  0
   -1.3559   -2.6510    0.0672 C   0  0  0  0  0  0  0  0  0  0  0  0
   -0.3932   -3.1259    0.6413 O   0  0  0  0  0  0  0  0  0  0  0  0
   -1.2882   -1.3847   -0.4798 N   0  0  0  0  0  0  0  0  0  0  0  0
   -2.0910   -1.0808   -1.0223 H   0  0  0  0  0  0  0  0  0  0  0  0
   -0.0586   -0.5719   -0.5394 C   0  0  1  0  0  0  0  0  0  0  0  0
    0.6797   -1.1494   -1.1066 H   0  0  0  0  0  0  0  0  0  0  0  0
   -0.3889    0.7239   -1.3089 C   0  0  0  0  0  0  0  0  0  0  0  0
   -1.1657    0.5110   -2.0491 H   0  0  0  0  0  0  0  0  0  0  0  0
   -0.7876    1.4792   -0.6252 H   0  0  0  0  0  0  0  0  0  0  0  0
    0.7668    1.3171   -2.0699 C   0  0  0  0  0  0  0  0  0  0  0  0
    0.5531    2.2872   -3.0414 N   0  0  0  0  0  0  0  0  0  0  0  0
    1.7314    2.5997   -3.5261 C   0  0  0  0  0  0  0  0  0  0  0  0
    1.9071    3.3379   -4.3035 H   0  0  0  0  0  0  0  0  0  0  0  0
    2.7111    1.8515   -2.9041 N   0  0  0  0  0  0  0  0  0  0  0  0
    3.7098    1.9112   -3.0937 H   0  0  0  0  0  0  0  0  0  0  0  0
    2.1029    1.0321   -1.9785 C   0  0  0  0  0  0  0  0  0  0  0  0
    2.5784    0.3206   -1.3078 H   0  0  0  0  0  0  0  0  0  0  0  0
    0.5650   -0.2505    0.8406 C   0  0  0  0  0  0  0  0  0  0  0  0
    1.7815   -0.2034    0.9728 O   0  0  0  0  0  0  0  0  0  0  0  0
   -0.2442    0.1646    1.8836 N   0  0  0  0  0  0  0  0  0  0  0  0
   -1.2414    0.0206    1.7649 H   0  0  0  0  0  0  0  0  0  0  0  0
    0.2681    0.4609    3.2151 C   0  0  0  0  0  0  0  0  0  0  0  0
    1.0191    1.2564    3.1694 H   0  0  0  0  0  0  0  0  0  0  0  0
   -0.5447    0.7932    3.8678 H   0  0  0  0  0  0  0  0  0  0  0  0
    0.7255   -0.4314    3.6551 H   0  0  0  0  0  0  0  0  0  0  0  0
  1  2  1  0  0  0  0
  2  3  1  0  0  0  0
  2  4  1  0  0  0  0
  2  5  1  0  0  0  0
  5  6  2  0  0  0  0
  5  7  1  0  0  0  0
  7  8  1  0  0  0  0
  7  9  1  0  0  0  0
  9 10  1  0  0  0  0
  9 11  1  0  0  0  0
  9 22  1  0  0  0  0
 11 12  1  0  0  0  0
 11 13  1  0  0  0  0
 11 14  1  0  0  0  0
 14 15  1  0  0  0  0
 14 20  2  0  0  0  0
 15 16  2  0  0  0  0
 16 17  1  0  0  0  0
 16 18  1  0  0  0  0
 18 19  1  0  0  0  0
 18 20  1  0  0  0  0
 20 21  1  0  0  0  0
 22 23  2  0  0  0  0
 22 24  1  0  0  0  0
 24 25  1  0  0  0  0
 24 26  1  0  0  0  0
 26 27  1  0  0  0  0
 26 28  1  0  0  0  0
 26 29  1  0  0  0  0
M  END
$$$$

  -OEChem-04042215593D

 29 29  0     1  0  0  0  0  0999 V2000
   -2.5412   -4.4774    0.4310 H   0  0  0  0  0  0  0  0  0  0  0  0
   -2.6851   -3.4916   -0.0210 C   0  0  0  0  0  0  0  0  0  0  0  0
   -3.4872   -2.9747    0.5111 H   0  0  0  0  0  0  0  0  0  0  0  0
   -2.9751   -3.6240   -1.0662 H   0  0  0  0  0  0  0  0  0  0  0  0
   -1.4016   -2.6872    0.0647 C   0  0  0  0  0  0  0  0  0  0  0  0
   -0.4243   -3.1602    0.6154 O   0  0  0  0  0  0  0  0  0  0  0  0
   -1.3483   -1.4204   -0.4815 N   0  0  0  0  0  0  0  0  0  0  0  0
   -2.1661   -1.1119   -0.9983 H   0  0  0  0  0  0  0  0  0  0  0  0
   -0.1230   -0.6036   -0.5578 C   0  0  1  0  0  0  0  0  0  0  0  0
    0.5942   -1.2178   -1.1088 H   0  0  0  0  0  0  0  0  0  0  0  0
   -0.4293    0.6803   -1.3623 C   0  0  0  0  0  0  0  0  0  0  0  0
   -1.3688    0.5567   -1.9076 H   0  0  0  0  0  0  0  0  0  0  0  0
   -0.5636    1.5249   -0.6793 H   0  0  0  0  0  0  0  0  0  0  0  0
    0.6088    1.0555   -2.3872 C   0  0  0  0  0  0  0  0  0  0  0  0
    0.4420    2.1885   -3.1735 N   0  0  0  0  0  0  0  0  0  0  0  0
    1.5204    2.2982   -3.9118 C   0  0  0  0  0  0  0  0  0  0  0  0
    1.7000    3.0887   -4.6347 H   0  0  0  0  0  0  0  0  0  0  0  0
    2.3924    1.2658   -3.6290 N   0  0  0  0  0  0  0  0  0  0  0  0
    3.3170    1.1467   -4.0386 H   0  0  0  0  0  0  0  0  0  0  0  0
    1.8252    0.4808   -2.6487 C   0  0  0  0  0  0  0  0  0  0  0  0
    2.2655   -0.3813   -2.1549 H   0  0  0  0  0  0  0  0  0  0  0  0
    0.5512   -0.2594    0.7880 C   0  0  0  0  0  0  0  0  0  0  0  0
    1.7711   -0.1693    0.8448 O   0  0  0  0  0  0  0  0  0  0  0  0
   -0.2138    0.1672    1.8588 N   0  0  0  0  0  0  0  0  0  0  0  0
   -1.2131    0.0039    1.7948 H   0  0  0  0  0  0  0  0  0  0  0  0
    0.3597    0.5205    3.1509 C   0  0  0  0  0  0  0  0  0  0  0  0
    1.0776    1.3402    3.0414 H   0  0  0  0  0  0  0  0  0  0  0  0
   -0.4280    0.8432    3.8383 H   0  0  0  0  0  0  0  0  0  0  0  0
    0.8731   -0.3419    3.5891 H   0  0  0  0  0  0  0  0  0  0  0  0
  1  2  1  0  0  0  0
  2  3  1  0  0  0  0
  2  4  1  0  0  0  0
  2  5  1  0  0  0  0
  5  6  2  0  0  0  0
  5  7  1  0  0  0  0
  7  8  1  0  0  0  0
  7  9  1  0  0  0  0
  9 10  1  0  0  0  0
  9 11  1  0  0  0  0
  9 22  1  0  0  0  0
 11 12  1  0  0  0  0
 11 13  1  0  0  0  0
 11 14  1  0  0  0  0
 14 15  1  0  0  0  0
 14 20  2  0  0  0  0
 15 16  2  0  0  0  0
 16 17  1  0  0  0  0
 16 18  1  0  0  0  0
 18 19  1  0  0  0  0
 18 20  1  0  0  0  0
 20 21  1  0  0  0  0
 22 23  2  0  0  0  0
 22 24  1  0  0  0  0
 24 25  1  0  0  0  0
 24 26  1  0  0  0  0
 26 27  1  0  0  0  0
 26 28  1  0  0  0  0
 26 29  1  0  0  0  0
M  END
$$$$

  -OEChem-04042215593D

 29 29  0     1  0  0  0  0  0999 V2000
   -2.5475   -4.4801    0.4513 H   0  0  0  0  0  0  0  0  0  0  0  0
   -2.6957   -3.4888    0.0131 C   0  0  0  0  0  0  0  0  0  0  0  0
   -3.4737   -2.9684    0.5767 H   0  0  0  0  0  0  0  0  0  0  0  0
   -3.0223   -3.6087   -1.0227 H   0  0  0  0  0  0  0  0  0  0  0  0
   -1.4011   -2.6988    0.0623 C   0  0  0  0  0  0  0  0  0  0  0  0
   -0.4148   -3.1821    0.5874 O   0  0  0  0  0  0  0  0  0  0  0  0
   -1.3463   -1.4340   -0.4887 N   0  0  0  0  0  0  0  0  0  0  0  0
   -2.1775   -1.1082   -0.9723 H   0  0  0  0  0  0  0  0  0  0  0  0
   -0.1204   -0.6179   -0.5679 C   0  0  1  0  0  0  0  0  0  0  0  0
    0.6005   -1.2328   -1.1114 H   0  0  0  0  0  0  0  0  0  0  0  0
   -0.4280    0.6650   -1.3742 C   0  0  0  0  0  0  0  0  0  0  0  0
   -1.3745    0.5526   -1.9095 H   0  0  0  0  0  0  0  0  0  0  0  0
   -0.5485    1.5067   -0.6848 H   0  0  0  0  0  0  0  0  0  0  0  0
    0.6049    1.0440   -2.4043 C   0  0  0  0  0  0  0  0  0  0  0  0
    0.5962    2.3164   -2.9616 N   0  0  0  0  0  0  0  0  0  0  0  0
    1.6327    2.3877   -3.7613 C   0  0  0  0  0  0  0  0  0  0  0  0
    1.9081    3.2619   -4.3441 H   0  0  0  0  0  0  0  0  0  0  0  0
    2.3203    1.1907   -3.7485 N   0  0  0  0  0  0  0  0  0  0  0  0
    3.1832    1.0022   -4.2552 H   0  0  0  0  0  0  0  0  0  0  0  0
    1.6790    0.3356   -2.8784 C   0  0  0  0  0  0  0  0  0  0  0  0
    1.9826   -0.6697   -2.6024 H   0  0  0  0  0  0  0  0  0  0  0  0
    0.5502   -0.2711    0.7796 C   0  0  0  0  0  0  0  0  0  0  0  0
    1.7699   -0.1879    0.8437 O   0  0  0  0  0  0  0  0  0  0  0  0
   -0.2171    0.1585    1.8477 N   0  0  0  0  0  0  0  0  0  0  0  0
   -1.2176    0.0054    1.7797 H   0  0  0  0  0  0  0  0  0  0  0  0
    0.3539    0.5269    3.1367 C   0  0  0  0  0  0  0  0  0  0  0  0
    1.0851    1.3334    3.0163 H   0  0  0  0  0  0  0  0  0  0  0  0
   -0.4325    0.8747    3.8130 H   0  0  0  0  0  0  0  0  0  0  0  0
    0.8514   -0.3349    3.5938 H   0  0  0  0  0  0  0  0  0  0  0  0
  1  2  1  0  0  0  0
  2  3  1  0  0  0  0
  2  4  1  0  0  0  0
  2  5  1  0  0  0  0
  5  6  2  0  0  0  0
  5  7  1  0  0  0  0
  7  8  1  0  0  0  0
  7  9  1  0  0  0  0
  9 10  1  0  0  0  0
  9 11  1  0  0  0  0
  9 22  1  0  0  0  0
 11 12  1  0  0  0  0
 11 13  1  0  0  0  0
 11 14  1  0  0  0  0
 14 15  1  0  0  0  0
 14 20  2  0  0  0  0
 15 16  2  0  0  0  0
 16 17  1  0  0  0  0
 16 18  1  0  0  0  0
 18 19  1  0  0  0  0
 18 20  1  0  0  0  0
 20 21  1  0  0  0  0
 22 23  2  0  0  0  0
 22 24  1  0  0  0  0
 24 25  1  0  0  0  0
 24 26  1  0  0  0  0
 26 27  1  0  0  0  0
 26 28  1  0  0  0  0
 26 29  1  0  0  0  0
M  END
$$$$

  -OEChem-04042215593D

 29 29  0     1  0  0  0  0  0999 V2000
   -2.5296   -4.4788    0.4638 H   0  0  0  0  0  0  0  0  0  0  0  0
   -2.6831   -3.4885    0.0250 C   0  0  0  0  0  0  0  0  0  0  0  0
   -3.4499   -2.9644    0.6003 H   0  0  0  0  0  0  0  0  0  0  0  0
   -3.0278   -3.6115   -1.0046 H   0  0  0  0  0  0  0  0  0  0  0  0
   -1.3864   -2.7010    0.0497 C   0  0  0  0  0  0  0  0  0  0  0  0
   -0.3897   -3.1902    0.5482 O   0  0  0  0  0  0  0  0  0  0  0  0
   -1.3408   -1.4341   -0.4975 N   0  0  0  0  0  0  0  0  0  0  0  0
   -2.1849   -1.0984   -0.9507 H   0  0  0  0  0  0  0  0  0  0  0  0
   -0.1203   -0.6102   -0.5801 C   0  0  1  0  0  0  0  0  0  0  0  0
    0.6100   -1.2118   -1.1271 H   0  0  0  0  0  0  0  0  0  0  0  0
   -0.4444    0.6761   -1.3751 C   0  0  0  0  0  0  0  0  0  0  0  0
   -1.3965    0.5709   -1.9016 H   0  0  0  0  0  0  0  0  0  0  0  0
   -0.5555    1.5126   -0.6778 H   0  0  0  0  0  0  0  0  0  0  0  0
    0.5853    1.0543   -2.4066 C   0  0  0  0  0  0  0  0  0  0  0  0
    0.7954    2.3846   -2.7450 N   0  0  0  0  0  0  0  0  0  0  0  0
    1.7783    2.4032   -3.6124 C   0  0  0  0  0  0  0  0  0  0  0  0
    2.1898    3.3011   -4.0644 H   0  0  0  0  0  0  0  0  0  0  0  0
    2.2099    1.1155   -3.8635 N   0  0  0  0  0  0  0  0  0  0  0  0
    2.9851    0.8641   -4.4741 H   0  0  0  0  0  0  0  0  0  0  0  0
    1.4581    0.2527   -3.0950 C   0  0  0  0  0  0  0  0  0  0  0  0
    1.5526   -0.8269   -3.0288 H   0  0  0  0  0  0  0  0  0  0  0  0
    0.5500   -0.2665    0.7692 C   0  0  0  0  0  0  0  0  0  0  0  0
    1.7694   -0.1863    0.8384 O   0  0  0  0  0  0  0  0  0  0  0  0
   -0.2182    0.1531    1.8409 N   0  0  0  0  0  0  0  0  0  0  0  0
   -1.2198    0.0104    1.7695 H   0  0  0  0  0  0  0  0  0  0  0  0
    0.3525    0.5261    3.1286 C   0  0  0  0  0  0  0  0  0  0  0  0
    1.0631    1.3509    3.0084 H   0  0  0  0  0  0  0  0  0  0  0  0
   -0.4374    0.8500    3.8128 H   0  0  0  0  0  0  0  0  0  0  0  0
    0.8739   -0.3263    3.5765 H   0  0  0  0  0  0  0  0  0  0  0  0
  1  2  1  0  0  0  0
  2  3  1  0  0  0  0
  2  4  1  0  0  0  0
  2  5  1  0  0  0  0
  5  6  2  0  0  0  0
  5  7  1  0  0  0  0
  7  8  1  0  0  0  0
  7  9  1  0  0  0  0
  9 10  1  0  0  0  0
  9 11  1  0  0  0  0
  9 22  1  0  0  0  0
 11 12  1  0  0  0  0
 11 13  1  0  0  0  0
 11 14  1  0  0  0  0
 14 15  1  0  0  0  0
 14 20  2  0  0  0  0
 15 16  2  0  0  0  0
 16 17  1  0  0  0  0
 16 18  1  0  0  0  0
 18 19  1  0  0  0  0
 18 20  1  0  0  0  0
 20 21  1  0  0  0  0
 22 23  2  0  0  0  0
 22 24  1  0  0  0  0
 24 25  1  0  0  0  0
 24 26  1  0  0  0  0
 26 27  1  0  0  0  0
 26 28  1  0  0  0  0
 26 29  1  0  0  0  0
M  END
$$$$

  -OEChem-04042215593D

 29 29  0     1  0  0  0  0  0999 V2000
   -2.4903   -4.4761    0.4627 H   0  0  0  0  0  0  0  0  0  0  0  0
   -2.6556   -3.4857    0.0289 C   0  0  0  0  0  0  0  0  0  0  0  0
   -3.4112   -2.9648    0.6214 H   0  0  0  0  0  0  0  0  0  0  0  0
   -3.0213   -3.6071   -0.9934 H   0  0  0  0  0  0  0  0  0  0  0  0
   -1.3606   -2.6954    0.0275 C   0  0  0  0  0  0  0  0  0  0  0  0
   -0.3503   -3.1878    0.4941 O   0  0  0  0  0  0  0  0  0  0  0  0
   -1.3324   -1.4237   -0.5095 N   0  0  0  0  0  0  0  0  0  0  0  0
   -2.1925   -1.0802   -0.9249 H   0  0  0  0  0  0  0  0  0  0  0  0
   -0.1220   -0.5847   -0.5945 C   0  0  1  0  0  0  0  0  0  0  0  0
    0.6169   -1.1652   -1.1554 H   0  0  0  0  0  0  0  0  0  0  0  0
   -0.4710    0.7031   -1.3748 C   0  0  0  0  0  0  0  0  0  0  0  0
   -1.4232    0.5896   -1.8996 H   0  0  0  0  0  0  0  0  0  0  0  0
   -0.5862    1.5373   -0.6750 H   0  0  0  0  0  0  0  0  0  0  0  0
    0.5609    1.0756   -2.4030 C   0  0  0  0  0  0  0  0  0  0  0  0
    1.0165    2.3784   -2.5494 N   0  0  0  0  0  0  0  0  0  0  0  0
    1.9357    2.3508   -3.4840 C   0  0  0  0  0  0  0  0  0  0  0  0
    2.4990    3.2144   -3.8258 H   0  0  0  0  0  0  0  0  0  0  0  0
    2.0782    1.0646   -3.9690 N   0  0  0  0  0  0  0  0  0  0  0  0
    2.7487    0.7752   -4.6787 H   0  0  0  0  0  0  0  0  0  0  0  0
    1.2054    0.2474   -3.2826 C   0  0  0  0  0  0  0  0  0  0  0  0
    1.0687   -0.8245   -3.3903 H   0  0  0  0  0  0  0  0  0  0  0  0
    0.5496   -0.2474    0.7563 C   0  0  0  0  0  0  0  0  0  0  0  0
    1.7686   -0.1692    0.8299 O   0  0  0  0  0  0  0  0  0  0  0  0
   -0.2207    0.1523    1.8344 N   0  0  0  0  0  0  0  0  0  0  0  0
   -1.2223    0.0133    1.7582 H   0  0  0  0  0  0  0  0  0  0  0  0
    0.3471    0.5099    3.1280 C   0  0  0  0  0  0  0  0  0  0  0  0
    1.0512    1.3419    3.0206 H   0  0  0  0  0  0  0  0  0  0  0  0
   -0.4452    0.8172    3.8171 H   0  0  0  0  0  0  0  0  0  0  0  0
    0.8751   -0.3452    3.5631 H   0  0  0  0  0  0  0  0  0  0  0  0
  1  2  1  0  0  0  0
  2  3  1  0  0  0  0
  2  4  1  0  0  0  0
  2  5  1  0  0  0  0
  5  6  2  0  0  0  0
  5  7  1  0  0  0  0
  7  8  1  0  0  0  0
  7  9  1  0  0  0  0
  9 10  1  0  0  0  0
  9 11  1  0  0  0  0
  9 22  1  0  0  0  0
 11 12  1  0  0  0  0
 11 13  1  0  0  0  0
 11 14  1  0  0  0  0
 14 15  1  0  0  0  0
 14 20  2  0  0  0  0
 15 16  2  0  0  0  0
 16 17  1  0  0  0  0
 16 18  1  0  0  0  0
 18 19  1  0  0  0  0
 18 20  1  0  0  0  0
 20 21  1  0  0  0  0
 22 23  2  0  0  0  0
 22 24  1  0  0  0  0
 24 25  1  0  0  0  0
 24 26  1  0  0  0  0
 26 27  1  0  0  0  0
 26 28  1  0  0  0  0
 26 29  1  0  0  0  0
M  END
$$$$

  -OEChem-04042215593D

 29 29  0     1  0  0  0  0  0999 V2000
   -2.4569   -4.4743    0.4540 H   0  0  0  0  0  0  0  0  0  0  0  0
   -2.6324   -3.4829    0.0263 C   0  0  0  0  0  0  0  0  0  0  0  0
   -3.3825   -2.9677    0.6309 H   0  0  0  0  0  0  0  0  0  0  0  0
   -3.0111   -3.6025   -0.9915 H   0  0  0  0  0  0  0  0  0  0  0  0
   -1.3408   -2.6870    0.0107 C   0  0  0  0  0  0  0  0  0  0  0  0
   -0.3225   -3.1777    0.4611 O   0  0  0  0  0  0  0  0  0  0  0  0
   -1.3270   -1.4118   -0.5187 N   0  0  0  0  0  0  0  0  0  0  0  0
   -2.1960   -1.0689   -0.9149 H   0  0  0  0  0  0  0  0  0  0  0  0
   -0.1251   -0.5602   -0.6059 C   0  0  1  0  0  0  0  0  0  0  0  0
    0.6181   -1.1228   -1.1816 H   0  0  0  0  0  0  0  0  0  0  0  0
   -0.4955    0.7279   -1.3736 C   0  0  0  0  0  0  0  0  0  0  0  0
   -1.4452    0.6022   -1.8998 H   0  0  0  0  0  0  0  0  0  0  0  0
   -0.6192    1.5624   -0.6759 H   0  0  0  0  0  0  0  0  0  0  0  0
    0.5401    1.0916   -2.3970 C   0  0  0  0  0  0  0  0  0  0  0  0
    1.2338    2.2923   -2.3737 N   0  0  0  0  0  0  0  0  0  0  0  0
    2.0814    2.2517   -3.3732 C   0  0  0  0  0  0  0  0  0  0  0  0
    2.7864    3.0402   -3.6208 H   0  0  0  0  0  0  0  0  0  0  0  0
    1.9413    1.0622   -4.0638 N   0  0  0  0  0  0  0  0  0  0  0  0
    2.5038    0.7788   -4.8638 H   0  0  0  0  0  0  0  0  0  0  0  0
    0.9590    0.3183   -3.4449 C   0  0  0  0  0  0  0  0  0  0  0  0
    0.6054   -0.6754   -3.7029 H   0  0  0  0  0  0  0  0  0  0  0  0
    0.5488   -0.2259    0.7447 C   0  0  0  0  0  0  0  0  0  0  0  0
    1.7682   -0.1604    0.8245 O   0  0  0  0  0  0  0  0  0  0  0  0
   -0.2222    0.1588    1.8280 N   0  0  0  0  0  0  0  0  0  0  0  0
   -1.2240    0.0245    1.7484 H   0  0  0  0  0  0  0  0  0  0  0  0
    0.3457    0.4945    3.1272 C   0  0  0  0  0  0  0  0  0  0  0  0
    1.0452    1.3320    3.0341 H   0  0  0  0  0  0  0  0  0  0  0  0
   -0.4468    0.7835    3.8239 H   0  0  0  0  0  0  0  0  0  0  0  0
    0.8792   -0.3661    3.5444 H   0  0  0  0  0  0  0  0  0  0  0  0
  1  2  1  0  0  0  0
  2  3  1  0  0  0  0
  2  4  1  0  0  0  0
  2  5  1  0  0  0  0
  5  6  2  0  0  0  0
  5  7  1  0  0  0  0
  7  8  1  0  0  0  0
  7  9  1  0  0  0  0
  9 10  1  0  0  0  0
  9 11  1  0  0  0  0
  9 22  1  0  0  0  0
 11 12  1  0  0  0  0
 11 13  1  0  0  0  0
 11 14  1  0  0  0  0
 14 15  1  0  0  0  0
 14 20  2  0  0  0  0
 15 16  2  0  0  0  0
 16 17  1  0  0  0  0
 16 18  1  0  0  0  0
 18 19  1  0  0  0  0
 18 20  1  0  0  0  0
 20 21  1  0  0  0  0
 22 23  2  0  0  0  0
 22 24  1  0  0  0  0
 24 25  1  0  0  0  0
 24 26  1  0  0  0  0
 26 27  1  0  0  0  0
 26 28  1  0  0  0  0
 26 29  1  0  0  0  0
M  END
$$$$

  -OEChem-04042215593D

 29 29  0     1  0  0  0  0  0999 V2000
   -2.4335   -4.4681    0.4592 H   0  0  0  0  0  0  0  0  0  0  0  0
   -2.6145   -3.4774    0.0322 C   0  0  0  0  0  0  0  0  0  0  0  0
   -3.3624   -2.9640    0.6410 H   0  0  0  0  0  0  0  0  0  0  0  0
   -2.9986   -3.5984   -0.9835 H   0  0  0  0  0  0  0  0  0  0  0  0
   -1.3251   -2.6783    0.0087 C   0  0  0  0  0  0  0  0  0  0  0  0
   -0.3034   -3.1671    0.4531 O   0  0  0  0  0  0  0  0  0  0  0  0
   -1.3186   -1.4029   -0.5206 N   0  0  0  0  0  0  0  0  0  0  0  0
   -2.1935   -1.0591   -0.9022 H   0  0  0  0  0  0  0  0  0  0  0  0
   -0.1208   -0.5454   -0.6109 C   0  0  1  0  0  0  0  0  0  0  0  0
    0.6247   -1.0987   -1.1940 H   0  0  0  0  0  0  0  0  0  0  0  0
   -0.5024    0.7404   -1.3749 C   0  0  0  0  0  0  0  0  0  0  0  0
   -1.4499    0.6030   -1.9024 H   0  0  0  0  0  0  0  0  0  0  0  0
   -0.6323    1.5782   -0.6826 H   0  0  0  0  0  0  0  0  0  0  0  0
    0.5360    1.0948   -2.3961 C   0  0  0  0  0  0  0  0  0  0  0  0
    1.4440    2.1290   -2.2335 N   0  0  0  0  0  0  0  0  0  0  0  0
    2.2090    2.1230   -3.2979 C   0  0  0  0  0  0  0  0  0  0  0  0
    3.0352    2.8066   -3.4717 H   0  0  0  0  0  0  0  0  0  0  0  0
    1.8043    1.1239   -4.1640 N   0  0  0  0  0  0  0  0  0  0  0  0
    2.2507    0.9016   -5.0517 H   0  0  0  0  0  0  0  0  0  0  0  0
    0.7347    0.4660   -3.5937 C   0  0  0  0  0  0  0  0  0  0  0  0
    0.1793   -0.3811   -3.9842 H   0  0  0  0  0  0  0  0  0  0  0  0
    0.5500   -0.2122    0.7419 C   0  0  0  0  0  0  0  0  0  0  0  0
    1.7691   -0.1655    0.8352 O   0  0  0  0  0  0  0  0  0  0  0  0
   -0.2269    0.1659    1.8235 N   0  0  0  0  0  0  0  0  0  0  0  0
   -1.2279    0.0320    1.7364 H   0  0  0  0  0  0  0  0  0  0  0  0
    0.3332    0.4762    3.1323 C   0  0  0  0  0  0  0  0  0  0  0  0
    1.0512    1.2996    3.0560 H   0  0  0  0  0  0  0  0  0  0  0  0
   -0.4610    0.7752    3.8227 H   0  0  0  0  0  0  0  0  0  0  0  0
    0.8432   -0.3997    3.5465 H   0  0  0  0  0  0  0  0  0  0  0  0
  1  2  1  0  0  0  0
  2  3  1  0  0  0  0
  2  4  1  0  0  0  0
  2  5  1  0  0  0  0
  5  6  2  0  0  0  0
  5  7  1  0  0  0  0
  7  8  1  0  0  0  0
  7  9  1  0  0  0  0
  9 10  1  0  0  0  0
  9 11  1  0  0  0  0
  9 22  1  0  0  0  0
 11 12  1  0  0  0  0
 11 13  1  0  0  0  0
 11 14  1  0  0  0  0
 14 15  1  0  0  0  0
 14 20  2  0  0  0  0
 15 16  2  0  0  0  0
 16 17  1  0  0  0  0
 16 18  1  0  0  0  0
 18 19  1  0  0  0  0
 18 20  1  0  0  0  0
 20 21  1  0  0  0  0
 22 23  2  0  0  0  0
 22 24  1  0  0  0  0
 24 25  1  0  0  0  0
 24 26  1  0  0  0  0
 26 27  1  0  0  0  0
 26 28  1  0  0  0  0
 26 29  1  0  0  0  0
M  END
$$$$

  -OEChem-04042215593D

 29 29  0     1  0  0  0  0  0999 V2000
   -2.4261   -4.4662    0.4661 H   0  0  0  0  0  0  0  0  0  0  0  0
   -2.6083   -3.4763    0.0373 C   0  0  0  0  0  0  0  0  0  0  0  0
   -3.3602   -2.9645    0.6428 H   0  0  0  0  0  0  0  0  0  0  0  0
   -2.9884   -3.5996   -0.9796 H   0  0  0  0  0  0  0  0  0  0  0  0
   -1.3211   -2.6731    0.0178 C   0  0  0  0  0  0  0  0  0  0  0  0
   -0.3015   -3.1573    0.4718 O   0  0  0  0  0  0  0  0  0  0  0  0
   -1.3164   -1.3997   -0.5168 N   0  0  0  0  0  0  0  0  0  0  0  0
   -2.1889   -1.0649   -0.9112 H   0  0  0  0  0  0  0  0  0  0  0  0
   -0.1192   -0.5408   -0.6125 C   0  0  1  0  0  0  0  0  0  0  0  0
    0.6270   -1.0918   -1.1974 H   0  0  0  0  0  0  0  0  0  0  0  0
   -0.5078    0.7417   -1.3795 C   0  0  0  0  0  0  0  0  0  0  0  0
   -1.4577    0.5983   -1.9016 H   0  0  0  0  0  0  0  0  0  0  0  0
   -0.6361    1.5833   -0.6916 H   0  0  0  0  0  0  0  0  0  0  0  0
    0.5288    1.0911   -2.4041 C   0  0  0  0  0  0  0  0  0  0  0  0
    1.6162    1.9082   -2.1420 N   0  0  0  0  0  0  0  0  0  0  0  0
    2.3103    1.9746   -3.2514 C   0  0  0  0  0  0  0  0  0  0  0  0
    3.2353    2.5316   -3.3717 H   0  0  0  0  0  0  0  0  0  0  0  0
    1.6862    1.2375   -4.2412 N   0  0  0  0  0  0  0  0  0  0  0  0
    2.0343    1.1188   -5.1906 H   0  0  0  0  0  0  0  0  0  0  0  0
    0.5454    0.6755   -3.7065 C   0  0  0  0  0  0  0  0  0  0  0  0
   -0.1775    0.0283   -4.1934 H   0  0  0  0  0  0  0  0  0  0  0  0
    0.5506   -0.2031    0.7407 C   0  0  0  0  0  0  0  0  0  0  0  0
    1.7693   -0.1799    0.8455 O   0  0  0  0  0  0  0  0  0  0  0  0
   -0.2272    0.1775    1.8212 N   0  0  0  0  0  0  0  0  0  0  0  0
   -1.2285    0.0481    1.7313 H   0  0  0  0  0  0  0  0  0  0  0  0
    0.3318    0.4649    3.1359 C   0  0  0  0  0  0  0  0  0  0  0  0
    1.0631    1.2778    3.0724 H   0  0  0  0  0  0  0  0  0  0  0  0
   -0.4609    0.7684    3.8262 H   0  0  0  0  0  0  0  0  0  0  0  0
    0.8268   -0.4233    3.5426 H   0  0  0  0  0  0  0  0  0  0  0  0
  1  2  1  0  0  0  0
  2  3  1  0  0  0  0
  2  4  1  0  0  0  0
  2  5  1  0  0  0  0
  5  6  2  0  0  0  0
  5  7  1  0  0  0  0
  7  8  1  0  0  0  0
  7  9  1  0  0  0  0
  9 10  1  0  0  0  0
  9 11  1  0  0  0  0
  9 22  1  0  0  0  0
 11 12  1  0  0  0  0
 11 13  1  0  0  0  0
 11 14  1  0  0  0  0
 14 15  1  0  0  0  0
 14 20  2  0  0  0  0
 15 16  2  0  0  0  0
 16 17  1  0  0  0  0
 16 18  1  0  0  0  0
 18 19  1  0  0  0  0
 18 20  1  0  0  0  0
 20 21  1  0  0  0  0
 22 23  2  0  0  0  0
 22 24  1  0  0  0  0
 24 25  1  0  0  0  0
 24 26  1  0  0  0  0
 26 27  1  0  0  0  0
 26 28  1  0  0  0  0
 26 29  1  0  0  0  0
M  END
$$$$

  -OEChem-04042215593D

 29 29  0     1  0  0  0  0  0999 V2000
   -2.4254   -4.4606    0.4641 H   0  0  0  0  0  0  0  0  0  0  0  0
   -2.6034   -3.4712    0.0331 C   0  0  0  0  0  0  0  0  0  0  0  0
   -3.3660   -2.9620    0.6270 H   0  0  0  0  0  0  0  0  0  0  0  0
   -2.9672   -3.5948   -0.9896 H   0  0  0  0  0  0  0  0  0  0  0  0
   -1.3182   -2.6646    0.0348 C   0  0  0  0  0  0  0  0  0  0  0  0
   -0.3075   -3.1436    0.5132 O   0  0  0  0  0  0  0  0  0  0  0  0
   -1.3083   -1.3942   -0.5074 N   0  0  0  0  0  0  0  0  0  0  0  0
   -2.1678   -1.0779   -0.9430 H   0  0  0  0  0  0  0  0  0  0  0  0
   -0.1083   -0.5392   -0.6105 C   0  0  1  0  0  0  0  0  0  0  0  0
    0.6375   -1.0884   -1.1974 H   0  0  0  0  0  0  0  0  0  0  0  0
   -0.5058    0.7435   -1.3752 C   0  0  0  0  0  0  0  0  0  0  0  0
   -1.4649    0.6037   -1.8810 H   0  0  0  0  0  0  0  0  0  0  0  0
   -0.6200    1.5841   -0.6838 H   0  0  0  0  0  0  0  0  0  0  0  0
    0.5190    1.0966   -2.4120 C   0  0  0  0  0  0  0  0  0  0  0  0
    1.7503    1.6557   -2.1150 N   0  0  0  0  0  0  0  0  0  0  0  0
    2.3800    1.8088   -3.2535 C   0  0  0  0  0  0  0  0  0  0  0  0
    3.3809    2.2176   -3.3592 H   0  0  0  0  0  0  0  0  0  0  0  0
    1.5781    1.3777   -4.2941 N   0  0  0  0  0  0  0  0  0  0  0  0
    1.8423    1.3818   -5.2775 H   0  0  0  0  0  0  0  0  0  0  0  0
    0.3875    0.9268   -3.7626 C   0  0  0  0  0  0  0  0  0  0  0  0
   -0.4670    0.5114   -4.2872 H   0  0  0  0  0  0  0  0  0  0  0  0
    0.5583   -0.2004    0.7450 C   0  0  0  0  0  0  0  0  0  0  0  0
    1.7758   -0.1965    0.8653 O   0  0  0  0  0  0  0  0  0  0  0  0
   -0.2256    0.1854    1.8194 N   0  0  0  0  0  0  0  0  0  0  0  0
   -1.2258    0.0538    1.7217 H   0  0  0  0  0  0  0  0  0  0  0  0
    0.3243    0.4533    3.1419 C   0  0  0  0  0  0  0  0  0  0  0  0
    1.0637    1.2599    3.0934 H   0  0  0  0  0  0  0  0  0  0  0  0
   -0.4718    0.7566    3.8284 H   0  0  0  0  0  0  0  0  0  0  0  0
    0.8075   -0.4439    3.5429 H   0  0  0  0  0  0  0  0  0  0  0  0
  1  2  1  0  0  0  0
  2  3  1  0  0  0  0
  2  4  1  0  0  0  0
  2  5  1  0  0  0  0
  5  6  2  0  0  0  0
  5  7  1  0  0  0  0
  7  8  1  0  0  0  0
  7  9  1  0  0  0  0
  9 10  1  0  0  0  0
  9 11  1  0  0  0  0
  9 22  1  0  0  0  0
 11 12  1  0  0  0  0
 11 13  1  0  0  0  0
 11 14  1  0  0  0  0
 14 15  1  0  0  0  0
 14 20  2  0  0  0  0
 15 16  2  0  0  0  0
 16 17  1  0  0  0  0
 16 18  1  0  0  0  0
 18 19  1  0  0  0  0
 18 20  1  0  0  0  0
 20 21  1  0  0  0  0
 22 23  2  0  0  0  0
 22 24  1  0  0  0  0
 24 25  1  0  0  0  0
 24 26  1  0  0  0  0
 26 27  1  0  0  0  0
 26 28  1  0  0  0  0
 26 29  1  0  0  0  0
M  END
$$$$

  -OEChem-04042215593D

 29 29  0     1  0  0  0  0  0999 V2000
   -2.4266   -4.4571    0.4532 H   0  0  0  0  0  0  0  0  0  0  0  0
   -2.5989   -3.4678    0.0195 C   0  0  0  0  0  0  0  0  0  0  0  0
   -3.3798   -2.9636    0.5937 H   0  0  0  0  0  0  0  0  0  0  0  0
   -2.9347   -3.5915   -1.0128 H   0  0  0  0  0  0  0  0  0  0  0  0
   -1.3194   -2.6533    0.0564 C   0  0  0  0  0  0  0  0  0  0  0  0
   -0.3228   -3.1218    0.5731 O   0  0  0  0  0  0  0  0  0  0  0  0
   -1.3016   -1.3872   -0.4954 N   0  0  0  0  0  0  0  0  0  0  0  0
   -2.1437   -1.0919   -0.9771 H   0  0  0  0  0  0  0  0  0  0  0  0
   -0.0957   -0.5409   -0.6044 C   0  0  1  0  0  0  0  0  0  0  0  0
    0.6486   -1.0932   -1.1905 H   0  0  0  0  0  0  0  0  0  0  0  0
   -0.4941    0.7437   -1.3678 C   0  0  0  0  0  0  0  0  0  0  0  0
   -1.4621    0.6127   -1.8588 H   0  0  0  0  0  0  0  0  0  0  0  0
   -0.5915    1.5821   -0.6714 H   0  0  0  0  0  0  0  0  0  0  0  0
    0.5181    1.1022   -2.4169 C   0  0  0  0  0  0  0  0  0  0  0  0
    1.8485    1.3785   -2.1522 N   0  0  0  0  0  0  0  0  0  0  0  0
    2.4210    1.6325   -3.3024 C   0  0  0  0  0  0  0  0  0  0  0  0
    3.4706    1.8804   -3.4321 H   0  0  0  0  0  0  0  0  0  0  0  0
    1.4884    1.5396   -4.3188 N   0  0  0  0  0  0  0  0  0  0  0  0
    1.6829    1.6873   -5.3074 H   0  0  0  0  0  0  0  0  0  0  0  0
    0.2730    1.2032   -3.7589 C   0  0  0  0  0  0  0  0  0  0  0  0
   -0.6753    1.0429   -4.2621 H   0  0  0  0  0  0  0  0  0  0  0  0
    0.5658   -0.2018    0.7550 C   0  0  0  0  0  0  0  0  0  0  0  0
    1.7819   -0.2010    0.8876 O   0  0  0  0  0  0  0  0  0  0  0  0
   -0.2255    0.1928    1.8212 N   0  0  0  0  0  0  0  0  0  0  0  0
   -1.2235    0.0483    1.7179 H   0  0  0  0  0  0  0  0  0  0  0  0
    0.3136    0.4446    3.1514 C   0  0  0  0  0  0  0  0  0  0  0  0
    1.0655    1.2401    3.1158 H   0  0  0  0  0  0  0  0  0  0  0  0
   -0.4852    0.7564    3.8307 H   0  0  0  0  0  0  0  0  0  0  0  0
    0.7786   -0.4621    3.5528 H   0  0  0  0  0  0  0  0  0  0  0  0
  1  2  1  0  0  0  0
  2  3  1  0  0  0  0
  2  4  1  0  0  0  0
  2  5  1  0  0  0  0
  5  6  2  0  0  0  0
  5  7  1  0  0  0  0
  7  8  1  0  0  0  0
  7  9  1  0  0  0  0
  9 10  1  0  0  0  0
  9 11  1  0  0  0  0
  9 22  1  0  0  0  0
 11 12  1  0  0  0  0
 11 13  1  0  0  0  0
 11 14  1  0  0  0  0
 14 15  1  0  0  0  0
 14 20  2  0  0  0  0
 15 16  2  0  0  0  0
 16 17  1  0  0  0  0
 16 18  1  0  0  0  0
 18 19  1  0  0  0  0
 18 20  1  0  0  0  0
 20 21  1  0  0  0  0
 22 23  2  0  0  0  0
 22 24  1  0  0  0  0
 24 25  1  0  0  0  0
 24 26  1  0  0  0  0
 26 27  1  0  0  0  0
 26 28  1  0  0  0  0
 26 29  1  0  0  0  0
M  END
$$$$

  -OEChem-04042215593D

 29 29  0     1  0  0  0  0  0999 V2000
   -2.4369   -4.4567    0.4405 H   0  0  0  0  0  0  0  0  0  0  0  0
   -2.6013   -3.4696   -0.0013 C   0  0  0  0  0  0  0  0  0  0  0  0
   -3.4026   -2.9684    0.5468 H   0  0  0  0  0  0  0  0  0  0  0  0
   -2.9040   -3.5984   -1.0432 H   0  0  0  0  0  0  0  0  0  0  0  0
   -1.3278   -2.6480    0.0729 C   0  0  0  0  0  0  0  0  0  0  0  0
   -0.3473   -3.1091    0.6257 O   0  0  0  0  0  0  0  0  0  0  0  0
   -1.2993   -1.3844   -0.4844 N   0  0  0  0  0  0  0  0  0  0  0  0
   -2.1215   -1.1074   -1.0093 H   0  0  0  0  0  0  0  0  0  0  0  0
   -0.0862   -0.5478   -0.5959 C   0  0  1  0  0  0  0  0  0  0  0  0
    0.6544   -1.1051   -1.1816 H   0  0  0  0  0  0  0  0  0  0  0  0
   -0.4770    0.7435   -1.3549 C   0  0  0  0  0  0  0  0  0  0  0  0
   -1.4529    0.6282   -1.8338 H   0  0  0  0  0  0  0  0  0  0  0  0
   -0.5570    1.5768   -0.6501 H   0  0  0  0  0  0  0  0  0  0  0  0
    0.5251    1.1106   -2.4138 C   0  0  0  0  0  0  0  0  0  0  0  0
    1.8998    1.1001   -2.2445 N   0  0  0  0  0  0  0  0  0  0  0  0
    2.4299    1.4617   -3.3862 C   0  0  0  0  0  0  0  0  0  0  0  0
    3.4958    1.5510   -3.5764 H   0  0  0  0  0  0  0  0  0  0  0  0
    1.4291    1.7101   -4.3066 N   0  0  0  0  0  0  0  0  0  0  0  0
    1.5789    2.0055   -5.2695 H   0  0  0  0  0  0  0  0  0  0  0  0
    0.2141    1.4867   -3.6922 C   0  0  0  0  0  0  0  0  0  0  0  0
   -0.7794    1.5833   -4.1185 H   0  0  0  0  0  0  0  0  0  0  0  0
    0.5720   -0.2116    0.7668 C   0  0  0  0  0  0  0  0  0  0  0  0
    1.7877   -0.1949    0.9030 O   0  0  0  0  0  0  0  0  0  0  0  0
   -0.2247    0.1908    1.8262 N   0  0  0  0  0  0  0  0  0  0  0  0
   -1.2198    0.0278    1.7229 H   0  0  0  0  0  0  0  0  0  0  0  0
    0.3073    0.4491    3.1580 C   0  0  0  0  0  0  0  0  0  0  0  0
    1.0687    1.2353    3.1210 H   0  0  0  0  0  0  0  0  0  0  0  0
   -0.4930    0.7767    3.8280 H   0  0  0  0  0  0  0  0  0  0  0  0
    0.7584   -0.4593    3.5710 H   0  0  0  0  0  0  0  0  0  0  0  0
  1  2  1  0  0  0  0
  2  3  1  0  0  0  0
  2  4  1  0  0  0  0
  2  5  1  0  0  0  0
  5  6  2  0  0  0  0
  5  7  1  0  0  0  0
  7  8  1  0  0  0  0
  7  9  1  0  0  0  0
  9 10  1  0  0  0  0
  9 11  1  0  0  0  0
  9 22  1  0  0  0  0
 11 12  1  0  0  0  0
 11 13  1  0  0  0  0
 11 14  1  0  0  0  0
 14 15  1  0  0  0  0
 14 20  2  0  0  0  0
 15 16  2  0  0  0  0
 16 17  1  0  0  0  0
 16 18  1  0  0  0  0
 18 19  1  0  0  0  0
 18 20  1  0  0  0  0
 20 21  1  0  0  0  0
 22 23  2  0  0  0  0
 22 24  1  0  0  0  0
 24 25  1  0  0  0  0
 24 26  1  0  0  0  0
 26 27  1  0  0  0  0
 26 28  1  0  0  0  0
 26 29  1  0  0  0  0
M  END
$$$$

  -OEChem-04042215593D

 29 29  0     1  0  0  0  0  0999 V2000
   -2.4515   -4.4681    0.4106 H   0  0  0  0  0  0  0  0  0  0  0  0
   -2.6107   -3.4805   -0.0319 C   0  0  0  0  0  0  0  0  0  0  0  0
   -3.4369   -2.9912    0.4891 H   0  0  0  0  0  0  0  0  0  0  0  0
   -2.8743   -3.6072   -1.0845 H   0  0  0  0  0  0  0  0  0  0  0  0
   -1.3499   -2.6454    0.0917 C   0  0  0  0  0  0  0  0  0  0  0  0
   -0.3909   -3.0914    0.6927 O   0  0  0  0  0  0  0  0  0  0  0  0
   -1.3115   -1.3847   -0.4716 N   0  0  0  0  0  0  0  0  0  0  0  0
   -2.1075   -1.1322   -1.0470 H   0  0  0  0  0  0  0  0  0  0  0  0
   -0.0897   -0.5610   -0.5847 C   0  0  1  0  0  0  0  0  0  0  0  0
    0.6428   -1.1316   -1.1676 H   0  0  0  0  0  0  0  0  0  0  0  0
   -0.4640    0.7364   -1.3436 C   0  0  0  0  0  0  0  0  0  0  0  0
   -1.4428    0.6336   -1.8196 H   0  0  0  0  0  0  0  0  0  0  0  0
   -0.5334    1.5672   -0.6350 H   0  0  0  0  0  0  0  0  0  0  0  0
    0.5326    1.1072   -2.4080 C   0  0  0  0  0  0  0  0  0  0  0  0
    1.8894    0.8254   -2.3802 N   0  0  0  0  0  0  0  0  0  0  0  0
    2.4046    1.3018   -3.4857 C   0  0  0  0  0  0  0  0  0  0  0  0
    3.4547    1.2426   -3.7578 H   0  0  0  0  0  0  0  0  0  0  0  0
    1.4107    1.8847   -4.2489 N   0  0  0  0  0  0  0  0  0  0  0  0
    1.5518    2.3302   -5.1535 H   0  0  0  0  0  0  0  0  0  0  0  0
    0.2171    1.7609   -3.5679 C   0  0  0  0  0  0  0  0  0  0  0  0
   -0.7659    2.1066   -3.8721 H   0  0  0  0  0  0  0  0  0  0  0  0
    0.5732   -0.2241    0.7756 C   0  0  0  0  0  0  0  0  0  0  0  0
    1.7896   -0.1760    0.8988 O   0  0  0  0  0  0  0  0  0  0  0  0
   -0.2196    0.1914    1.8330 N   0  0  0  0  0  0  0  0  0  0  0  0
   -1.2118    0.0028    1.7433 H   0  0  0  0  0  0  0  0  0  0  0  0
    0.3205    0.4727    3.1570 C   0  0  0  0  0  0  0  0  0  0  0  0
    1.0657    1.2733    3.1047 H   0  0  0  0  0  0  0  0  0  0  0  0
   -0.4791    0.7909    3.8326 H   0  0  0  0  0  0  0  0  0  0  0  0
    0.7936   -0.4227    3.5740 H   0  0  0  0  0  0  0  0  0  0  0  0
  1  2  1  0  0  0  0
  2  3  1  0  0  0  0
  2  4  1  0  0  0  0
  2  5  1  0  0  0  0
  5  6  2  0  0  0  0
  5  7  1  0  0  0  0
  7  8  1  0  0  0  0
  7  9  1  0  0  0  0
  9 10  1  0  0  0  0
  9 11  1  0  0  0  0
  9 22  1  0  0  0  0
 11 12  1  0  0  0  0
 11 13  1  0  0  0  0
 11 14  1  0  0  0  0
 14 15  1  0  0  0  0
 14 20  2  0  0  0  0
 15 16  2  0  0  0  0
 16 17  1  0  0  0  0
 16 18  1  0  0  0  0
 18 19  1  0  0  0  0
 18 20  1  0  0  0  0
 20 21  1  0  0  0  0
 22 23  2  0  0  0  0
 22 24  1  0  0  0  0
 24 25  1  0  0  0  0
 24 26  1  0  0  0  0
 26 27  1  0  0  0  0
 26 28  1  0  0  0  0
 26 29  1  0  0  0  0
M  END
$$$$

  -OEChem-04042215593D

 29 29  0     1  0  0  0  0  0999 V2000
   -2.4684   -4.4801    0.4095 H   0  0  0  0  0  0  0  0  0  0  0  0
   -2.6235   -3.4955   -0.0411 C   0  0  0  0  0  0  0  0  0  0  0  0
   -3.4638   -3.0081    0.4590 H   0  0  0  0  0  0  0  0  0  0  0  0
   -2.8632   -3.6288   -1.0987 H   0  0  0  0  0  0  0  0  0  0  0  0
   -1.3708   -2.6518    0.1063 C   0  0  0  0  0  0  0  0  0  0  0  0
   -0.4251   -3.0854    0.7369 O   0  0  0  0  0  0  0  0  0  0  0  0
   -1.3273   -1.3943   -0.4638 N   0  0  0  0  0  0  0  0  0  0  0  0
   -2.1068   -1.1592   -1.0687 H   0  0  0  0  0  0  0  0  0  0  0  0
   -0.0996   -0.5799   -0.5811 C   0  0  1  0  0  0  0  0  0  0  0  0
    0.6242   -1.1651   -1.1592 H   0  0  0  0  0  0  0  0  0  0  0  0
   -0.4576    0.7213   -1.3428 C   0  0  0  0  0  0  0  0  0  0  0  0
   -1.4343    0.6205   -1.8234 H   0  0  0  0  0  0  0  0  0  0  0  0
   -0.5297    1.5527   -0.6350 H   0  0  0  0  0  0  0  0  0  0  0  0
    0.5355    1.0937   -2.4119 C   0  0  0  0  0  0  0  0  0  0  0  0
    1.8153    0.5798   -2.5633 N   0  0  0  0  0  0  0  0  0  0  0  0
    2.3492    1.1747   -3.6008 C   0  0  0  0  0  0  0  0  0  0  0  0
    3.3536    0.9933   -3.9729 H   0  0  0  0  0  0  0  0  0  0  0  0
    1.4409    2.0607   -4.1478 N   0  0  0  0  0  0  0  0  0  0  0  0
    1.6154    2.6543   -4.9565 H   0  0  0  0  0  0  0  0  0  0  0  0
    0.2856    2.0114   -3.3954 C   0  0  0  0  0  0  0  0  0  0  0  0
   -0.6282    2.5809   -3.5339 H   0  0  0  0  0  0  0  0  0  0  0  0
    0.5714   -0.2376    0.7730 C   0  0  0  0  0  0  0  0  0  0  0  0
    1.7880   -0.1579    0.8761 O   0  0  0  0  0  0  0  0  0  0  0  0
   -0.2144    0.1907    1.8303 N   0  0  0  0  0  0  0  0  0  0  0  0
   -1.2039   -0.0195    1.7567 H   0  0  0  0  0  0  0  0  0  0  0  0
    0.3360    0.5012    3.1437 C   0  0  0  0  0  0  0  0  0  0  0  0
    1.0770    1.3043    3.0698 H   0  0  0  0  0  0  0  0  0  0  0  0
   -0.4598    0.8295    3.8188 H   0  0  0  0  0  0  0  0  0  0  0  0
    0.8166   -0.3833    3.5751 H   0  0  0  0  0  0  0  0  0  0  0  0
  1  2  1  0  0  0  0
  2  3  1  0  0  0  0
  2  4  1  0  0  0  0
  2  5  1  0  0  0  0
  5  6  2  0  0  0  0
  5  7  1  0  0  0  0
  7  8  1  0  0  0  0
  7  9  1  0  0  0  0
  9 10  1  0  0  0  0
  9 11  1  0  0  0  0
  9 22  1  0  0  0  0
 11 12  1  0  0  0  0
 11 13  1  0  0  0  0
 11 14  1  0  0  0  0
 14 15  1  0  0  0  0
 14 20  2  0  0  0  0
 15 16  2  0  0  0  0
 16 17  1  0  0  0  0
 16 18  1  0  0  0  0
 18 19  1  0  0  0  0
 18 20  1  0  0  0  0
 20 21  1  0  0  0  0
 22 23  2  0  0  0  0
 22 24  1  0  0  0  0
 24 25  1  0  0  0  0
 24 26  1  0  0  0  0
 26 27  1  0  0  0  0
 26 28  1  0  0  0  0
 26 29  1  0  0  0  0
M  END
$$$$

  -OEChem-04042215593D

 29 29  0     1  0  0  0  0  0999 V2000
   -2.4712   -4.4955    0.4137 H   0  0  0  0  0  0  0  0  0  0  0  0
   -2.6303   -3.5137   -0.0416 C   0  0  0  0  0  0  0  0  0  0  0  0
   -3.4813   -3.0329    0.4466 H   0  0  0  0  0  0  0  0  0  0  0  0
   -2.8557   -3.6523   -1.1017 H   0  0  0  0  0  0  0  0  0  0  0  0
   -1.3877   -2.6574    0.1183 C   0  0  0  0  0  0  0  0  0  0  0  0
   -0.4490   -3.0748    0.7706 O   0  0  0  0  0  0  0  0  0  0  0  0
   -1.3484   -1.4029   -0.4584 N   0  0  0  0  0  0  0  0  0  0  0  0
   -2.1170   -1.1866   -1.0840 H   0  0  0  0  0  0  0  0  0  0  0  0
   -0.1198   -0.5921   -0.5861 C   0  0  1  0  0  0  0  0  0  0  0  0
    0.5963   -1.1877   -1.1624 H   0  0  0  0  0  0  0  0  0  0  0  0
   -0.4713    0.7099   -1.3493 C   0  0  0  0  0  0  0  0  0  0  0  0
   -1.4436    0.5991   -1.8366 H   0  0  0  0  0  0  0  0  0  0  0  0
   -0.5557    1.5442   -0.6463 H   0  0  0  0  0  0  0  0  0  0  0  0
    0.5164    1.0806   -2.4249 C   0  0  0  0  0  0  0  0  0  0  0  0
    1.6649    0.3839   -2.7767 N   0  0  0  0  0  0  0  0  0  0  0  0
    2.2608    1.0755   -3.7163 C   0  0  0  0  0  0  0  0  0  0  0  0
    3.1951    0.7967   -4.1954 H   0  0  0  0  0  0  0  0  0  0  0  0
    1.5207    2.2059   -4.0047 N   0  0  0  0  0  0  0  0  0  0  0  0
    1.7786    2.9176   -4.6858 H   0  0  0  0  0  0  0  0  0  0  0  0
    0.4132    2.2152   -3.1824 C   0  0  0  0  0  0  0  0  0  0  0  0
   -0.3698    2.9648   -3.1227 H   0  0  0  0  0  0  0  0  0  0  0  0
    0.5652   -0.2415    0.7578 C   0  0  0  0  0  0  0  0  0  0  0  0
    1.7816   -0.1283    0.8333 O   0  0  0  0  0  0  0  0  0  0  0  0
   -0.2090    0.1955    1.8198 N   0  0  0  0  0  0  0  0  0  0  0  0
   -1.1949   -0.0378    1.7680 H   0  0  0  0  0  0  0  0  0  0  0  0
    0.3591    0.5307    3.1196 C   0  0  0  0  0  0  0  0  0  0  0  0
    1.0940    1.3367    3.0218 H   0  0  0  0  0  0  0  0  0  0  0  0
   -0.4286    0.8650    3.8011 H   0  0  0  0  0  0  0  0  0  0  0  0
    0.8515   -0.3436    3.5583 H   0  0  0  0  0  0  0  0  0  0  0  0
  1  2  1  0  0  0  0
  2  3  1  0  0  0  0
  2  4  1  0  0  0  0
  2  5  1  0  0  0  0
  5  6  2  0  0  0  0
  5  7  1  0  0  0  0
  7  8  1  0  0  0  0
  7  9  1  0  0  0  0
  9 10  1  0  0  0  0
  9 11  1  0  0  0  0
  9 22  1  0  0  0  0
 11 12  1  0  0  0  0
 11 13  1  0  0  0  0
 11 14  1  0  0  0  0
 14 15  1  0  0  0  0
 14 20  2  0  0  0  0
 15 16  2  0  0  0  0
 16 17  1  0  0  0  0
 16 18  1  0  0  0  0
 18 19  1  0  0  0  0
 18 20  1  0  0  0  0
 20 21  1  0  0  0  0
 22 23  2  0  0  0  0
 22 24  1  0  0  0  0
 24 25  1  0  0  0  0
 24 26  1  0  0  0  0
 26 27  1  0  0  0  0
 26 28  1  0  0  0  0
 26 29  1  0  0  0  0
M  END
$$$$

  -OEChem-04042215593D

 29 29  0     1  0  0  0  0  0999 V2000
   -2.4786   -4.4891    0.4514 H   0  0  0  0  0  0  0  0  0  0  0  0
   -2.6245   -3.5301   -0.0540 C   0  0  0  0  0  0  0  0  0  0  0  0
   -3.4980   -3.0348    0.3765 H   0  0  0  0  0  0  0  0  0  0  0  0
   -2.8043   -3.7176   -1.1152 H   0  0  0  0  0  0  0  0  0  0  0  0
   -1.3955   -2.6571    0.1181 C   0  0  0  0  0  0  0  0  0  0  0  0
   -0.4591   -3.0598    0.7831 O   0  0  0  0  0  0  0  0  0  0  0  0
   -1.3684   -1.4012   -0.4561 N   0  0  0  0  0  0  0  0  0  0  0  0
   -2.1297   -1.2028   -1.0966 H   0  0  0  0  0  0  0  0  0  0  0  0
   -0.1433   -0.5869   -0.5941 C   0  0  1  0  0  0  0  0  0  0  0  0
    0.5682   -1.1810   -1.1772 H   0  0  0  0  0  0  0  0  0  0  0  0
   -0.4993    0.7206   -1.3458 C   0  0  0  0  0  0  0  0  0  0  0  0
   -1.4698    0.6032   -1.8346 H   0  0  0  0  0  0  0  0  0  0  0  0
   -0.5920    1.5523   -0.6407 H   0  0  0  0  0  0  0  0  0  0  0  0
    0.4808    1.0924   -2.4274 C   0  0  0  0  0  0  0  0  0  0  0  0
    1.4474    0.2668   -2.9880 N   0  0  0  0  0  0  0  0  0  0  0  0
    2.1347    1.0008   -3.8284 C   0  0  0  0  0  0  0  0  0  0  0  0
    2.9729    0.6460   -4.4213 H   0  0  0  0  0  0  0  0  0  0  0  0
    1.6325    2.2876   -3.8459 N   0  0  0  0  0  0  0  0  0  0  0  0
    2.0100    3.0570   -4.3956 H   0  0  0  0  0  0  0  0  0  0  0  0
    0.5867    2.3523   -2.9493 C   0  0  0  0  0  0  0  0  0  0  0  0
   -0.0146    3.2160   -2.6825 H   0  0  0  0  0  0  0  0  0  0  0  0
    0.5583   -0.2357    0.7402 C   0  0  0  0  0  0  0  0  0  0  0  0
    1.7731   -0.0907    0.7867 O   0  0  0  0  0  0  0  0  0  0  0  0
   -0.2025    0.1977    1.8129 N   0  0  0  0  0  0  0  0  0  0  0  0
   -1.1836   -0.0594    1.7840 H   0  0  0  0  0  0  0  0  0  0  0  0
    0.3845    0.5523    3.0988 C   0  0  0  0  0  0  0  0  0  0  0  0
    1.0828    1.3880    2.9842 H   0  0  0  0  0  0  0  0  0  0  0  0
   -0.3983    0.8519    3.8019 H   0  0  0  0  0  0  0  0  0  0  0  0
    0.9235   -0.3024    3.5210 H   0  0  0  0  0  0  0  0  0  0  0  0
  1  2  1  0  0  0  0
  2  3  1  0  0  0  0
  2  4  1  0  0  0  0
  2  5  1  0  0  0  0
  5  6  2  0  0  0  0
  5  7  1  0  0  0  0
  7  8  1  0  0  0  0
  7  9  1  0  0  0  0
  9 10  1  0  0  0  0
  9 11  1  0  0  0  0
  9 22  1  0  0  0  0
 11 12  1  0  0  0  0
 11 13  1  0  0  0  0
 11 14  1  0  0  0  0
 14 15  1  0  0  0  0
 14 20  2  0  0  0  0
 15 16  2  0  0  0  0
 16 17  1  0  0  0  0
 16 18  1  0  0  0  0
 18 19  1  0  0  0  0
 18 20  1  0  0  0  0
 20 21  1  0  0  0  0
 22 23  2  0  0  0  0
 22 24  1  0  0  0  0
 24 25  1  0  0  0  0
 24 26  1  0  0  0  0
 26 27  1  0  0  0  0
 26 28  1  0  0  0  0
 26 29  1  0  0  0  0
M  END
$$$$

  -OEChem-04042215593D

 29 29  0     1  0  0  0  0  0999 V2000
   -2.4416   -4.5035    0.4087 H   0  0  0  0  0  0  0  0  0  0  0  0
   -2.6043   -3.5391   -0.0811 C   0  0  0  0  0  0  0  0  0  0  0  0
   -3.4854   -3.0651    0.3580 H   0  0  0  0  0  0  0  0  0  0  0  0
   -2.7826   -3.7126   -1.1451 H   0  0  0  0  0  0  0  0  0  0  0  0
   -1.3893   -2.6491    0.1035 C   0  0  0  0  0  0  0  0  0  0  0  0
   -0.4485   -3.0440    0.7674 O   0  0  0  0  0  0  0  0  0  0  0  0
   -1.3794   -1.3869   -0.4573 N   0  0  0  0  0  0  0  0  0  0  0  0
   -2.1388   -1.1970   -1.1028 H   0  0  0  0  0  0  0  0  0  0  0  0
   -0.1622   -0.5618   -0.5956 C   0  0  1  0  0  0  0  0  0  0  0  0
    0.5496   -1.1440   -1.1905 H   0  0  0  0  0  0  0  0  0  0  0  0
   -0.5284    0.7510   -1.3306 C   0  0  0  0  0  0  0  0  0  0  0  0
   -1.4975    0.6323   -1.8219 H   0  0  0  0  0  0  0  0  0  0  0  0
   -0.6256    1.5765   -0.6186 H   0  0  0  0  0  0  0  0  0  0  0  0
    0.4533    1.1237   -2.4087 C   0  0  0  0  0  0  0  0  0  0  0  0
    1.2054    0.2326   -3.1648 N   0  0  0  0  0  0  0  0  0  0  0  0
    1.9884    0.9539   -3.9296 C   0  0  0  0  0  0  0  0  0  0  0  0
    2.7100    0.5512   -4.6347 H   0  0  0  0  0  0  0  0  0  0  0  0
    1.7570    2.2977   -3.7057 N   0  0  0  0  0  0  0  0  0  0  0  0
    2.2582    3.0623   -4.1543 H   0  0  0  0  0  0  0  0  0  0  0  0
    0.7875    2.4099   -2.7315 C   0  0  0  0  0  0  0  0  0  0  0  0
    0.3877    3.3152   -2.2851 H   0  0  0  0  0  0  0  0  0  0  0  0
    0.5510   -0.2173    0.7335 C   0  0  0  0  0  0  0  0  0  0  0  0
    1.7633   -0.0464    0.7591 O   0  0  0  0  0  0  0  0  0  0  0  0
   -0.2008    0.2000    1.8187 N   0  0  0  0  0  0  0  0  0  0  0  0
   -1.1782   -0.0727    1.8019 H   0  0  0  0  0  0  0  0  0  0  0  0
    0.3981    0.5583    3.0983 C   0  0  0  0  0  0  0  0  0  0  0  0
    1.0833    1.4042    2.9782 H   0  0  0  0  0  0  0  0  0  0  0  0
   -0.3794    0.8448    3.8127 H   0  0  0  0  0  0  0  0  0  0  0  0
    0.9542   -0.2901    3.5108 H   0  0  0  0  0  0  0  0  0  0  0  0
  1  2  1  0  0  0  0
  2  3  1  0  0  0  0
  2  4  1  0  0  0  0
  2  5  1  0  0  0  0
  5  6  2  0  0  0  0
  5  7  1  0  0  0  0
  7  8  1  0  0  0  0
  7  9  1  0  0  0  0
  9 10  1  0  0  0  0
  9 11  1  0  0  0  0
  9 22  1  0  0  0  0
 11 12  1  0  0  0  0
 11 13  1  0  0  0  0
 11 14  1  0  0  0  0
 14 15  1  0  0  0  0
 14 20  2  0  0  0  0
 15 16  2  0  0  0  0
 16 17  1  0  0  0  0
 16 18  1  0  0  0  0
 18 19  1  0  0  0  0
 18 20  1  0  0  0  0
 20 21  1  0  0  0  0
 22 23  2  0  0  0  0
 22 24  1  0  0  0  0
 24 25  1  0  0  0  0
 24 26  1  0  0  0  0
 26 27  1  0  0  0  0
 26 28  1  0  0  0  0
 26 29  1  0  0  0  0
M  END
$$$$

  -OEChem-04042215593D

 29 29  0     1  0  0  0  0  0999 V2000
   -2.3737   -4.5259    0.3170 H   0  0  0  0  0  0  0  0  0  0  0  0
   -2.5736   -3.5407   -0.1142 C   0  0  0  0  0  0  0  0  0  0  0  0
   -3.4503   -3.1124    0.3772 H   0  0  0  0  0  0  0  0  0  0  0  0
   -2.7820   -3.6610   -1.1801 H   0  0  0  0  0  0  0  0  0  0  0  0
   -1.3736   -2.6334    0.0821 C   0  0  0  0  0  0  0  0  0  0  0  0
   -0.4252   -3.0234    0.7384 O   0  0  0  0  0  0  0  0  0  0  0  0
   -1.3832   -1.3637   -0.4611 N   0  0  0  0  0  0  0  0  0  0  0  0
   -2.1450   -1.1764   -1.1050 H   0  0  0  0  0  0  0  0  0  0  0  0
   -0.1760   -0.5240   -0.5920 C   0  0  1  0  0  0  0  0  0  0  0  0
    0.5404   -1.0900   -1.1979 H   0  0  0  0  0  0  0  0  0  0  0  0
   -0.5537    0.7901   -1.3143 C   0  0  0  0  0  0  0  0  0  0  0  0
   -1.5205    0.6742   -1.8107 H   0  0  0  0  0  0  0  0  0  0  0  0
   -0.6523    1.6105   -0.5966 H   0  0  0  0  0  0  0  0  0  0  0  0
    0.4405    1.1562   -2.3799 C   0  0  0  0  0  0  0  0  0  0  0  0
    0.9646    0.2664   -3.3100 N   0  0  0  0  0  0  0  0  0  0  0  0
    1.8372    0.9407   -4.0196 C   0  0  0  0  0  0  0  0  0  0  0  0
    2.4332    0.5258   -4.8274 H   0  0  0  0  0  0  0  0  0  0  0  0
    1.8838    2.2530   -3.5884 N   0  0  0  0  0  0  0  0  0  0  0  0
    2.5056    2.9701   -3.9568 H   0  0  0  0  0  0  0  0  0  0  0  0
    1.0003    2.3928   -2.5392 C   0  0  0  0  0  0  0  0  0  0  0  0
    0.8047    3.2763   -1.9392 H   0  0  0  0  0  0  0  0  0  0  0  0
    0.5417   -0.1881    0.7364 C   0  0  0  0  0  0  0  0  0  0  0  0
    1.7522   -0.0032    0.7514 O   0  0  0  0  0  0  0  0  0  0  0  0
   -0.2057    0.2076    1.8327 N   0  0  0  0  0  0  0  0  0  0  0  0
   -1.1809   -0.0729    1.8191 H   0  0  0  0  0  0  0  0  0  0  0  0
    0.3999    0.5460    3.1144 C   0  0  0  0  0  0  0  0  0  0  0  0
    1.1115    1.3702    2.9985 H   0  0  0  0  0  0  0  0  0  0  0  0
   -0.3708    0.8560    3.8264 H   0  0  0  0  0  0  0  0  0  0  0  0
    0.9278   -0.3202    3.5268 H   0  0  0  0  0  0  0  0  0  0  0  0
  1  2  1  0  0  0  0
  2  3  1  0  0  0  0
  2  4  1  0  0  0  0
  2  5  1  0  0  0  0
  5  6  2  0  0  0  0
  5  7  1  0  0  0  0
  7  8  1  0  0  0  0
  7  9  1  0  0  0  0
  9 10  1  0  0  0  0
  9 11  1  0  0  0  0
  9 22  1  0  0  0  0
 11 12  1  0  0  0  0
 11 13  1  0  0  0  0
 11 14  1  0  0  0  0
 14 15  1  0  0  0  0
 14 20  2  0  0  0  0
 15 16  2  0  0  0  0
 16 17  1  0  0  0  0
 16 18  1  0  0  0  0
 18 19  1  0  0  0  0
 18 20  1  0  0  0  0
 20 21  1  0  0  0  0
 22 23  2  0  0  0  0
 22 24  1  0  0  0  0
 24 25  1  0  0  0  0
 24 26  1  0  0  0  0
 26 27  1  0  0  0  0
 26 28  1  0  0  0  0
 26 29  1  0  0  0  0
M  END
$$$$

  -OEChem-04042215593D

 29 29  0     1  0  0  0  0  0999 V2000
   -2.3746   -4.5112    0.3123 H   0  0  0  0  0  0  0  0  0  0  0  0
   -2.5601   -3.5378   -0.1509 C   0  0  0  0  0  0  0  0  0  0  0  0
   -3.4531   -3.0986    0.3001 H   0  0  0  0  0  0  0  0  0  0  0  0
   -2.7336   -3.6859   -1.2195 H   0  0  0  0  0  0  0  0  0  0  0  0
   -1.3669   -2.6244    0.0596 C   0  0  0  0  0  0  0  0  0  0  0  0
   -0.4155   -3.0155    0.7111 O   0  0  0  0  0  0  0  0  0  0  0  0
   -1.3842   -1.3470   -0.4649 N   0  0  0  0  0  0  0  0  0  0  0  0
   -2.1465   -1.1547   -1.1070 H   0  0  0  0  0  0  0  0  0  0  0  0
   -0.1821   -0.4994   -0.5859 C   0  0  1  0  0  0  0  0  0  0  0  0
    0.5349   -1.0518   -1.2047 H   0  0  0  0  0  0  0  0  0  0  0  0
   -0.5640    0.8192   -1.2930 C   0  0  0  0  0  0  0  0  0  0  0  0
   -1.5313    0.7167   -1.7918 H   0  0  0  0  0  0  0  0  0  0  0  0
   -0.6545    1.6341   -0.5682 H   0  0  0  0  0  0  0  0  0  0  0  0
    0.4444    1.1756   -2.3445 C   0  0  0  0  0  0  0  0  0  0  0  0
    0.7383    0.3685   -3.4363 N   0  0  0  0  0  0  0  0  0  0  0  0
    1.6889    0.9820   -4.1004 C   0  0  0  0  0  0  0  0  0  0  0  0
    2.1532    0.6054   -5.0073 H   0  0  0  0  0  0  0  0  0  0  0  0
    2.0097    2.1744   -3.4786 N   0  0  0  0  0  0  0  0  0  0  0  0
    2.7397    2.8169   -3.7804 H   0  0  0  0  0  0  0  0  0  0  0  0
    1.2200    2.2998   -2.3555 C   0  0  0  0  0  0  0  0  0  0  0  0
    1.2241    3.0929   -1.6135 H   0  0  0  0  0  0  0  0  0  0  0  0
    0.5397   -0.1769    0.7432 C   0  0  0  0  0  0  0  0  0  0  0  0
    1.7467    0.0307    0.7489 O   0  0  0  0  0  0  0  0  0  0  0  0
   -0.2050    0.2000    1.8474 N   0  0  0  0  0  0  0  0  0  0  0  0
   -1.1751   -0.0985    1.8404 H   0  0  0  0  0  0  0  0  0  0  0  0
    0.4049    0.5471    3.1247 C   0  0  0  0  0  0  0  0  0  0  0  0
    1.0684    1.4106    3.0112 H   0  0  0  0  0  0  0  0  0  0  0  0
   -0.3682    0.8015    3.8558 H   0  0  0  0  0  0  0  0  0  0  0  0
    0.9865   -0.2963    3.5119 H   0  0  0  0  0  0  0  0  0  0  0  0
  1  2  1  0  0  0  0
  2  3  1  0  0  0  0
  2  4  1  0  0  0  0
  2  5  1  0  0  0  0
  5  6  2  0  0  0  0
  5  7  1  0  0  0  0
  7  8  1  0  0  0  0
  7  9  1  0  0  0  0
  9 10  1  0  0  0  0
  9 11  1  0  0  0  0
  9 22  1  0  0  0  0
 11 12  1  0  0  0  0
 11 13  1  0  0  0  0
 11 14  1  0  0  0  0
 14 15  1  0  0  0  0
 14 20  2  0  0  0  0
 15 16  2  0  0  0  0
 16 17  1  0  0  0  0
 16 18  1  0  0  0  0
 18 19  1  0  0  0  0
 18 20  1  0  0  0  0
 20 21  1  0  0  0  0
 22 23  2  0  0  0  0
 22 24  1  0  0  0  0
 24 25  1  0  0  0  0
 24 26  1  0  0  0  0
 26 27  1  0  0  0  0
 26 28  1  0  0  0  0
 26 29  1  0  0  0  0
M  END
$$$$

  -OEChem-04042215593D

 29 29  0     1  0  0  0  0  0999 V2000
   -2.3645   -4.5075    0.2934 H   0  0  0  0  0  0  0  0  0  0  0  0
   -2.5535   -3.5308   -0.1614 C   0  0  0  0  0  0  0  0  0  0  0  0
   -3.4411   -3.0930    0.3016 H   0  0  0  0  0  0  0  0  0  0  0  0
   -2.7381   -3.6714   -1.2292 H   0  0  0  0  0  0  0  0  0  0  0  0
   -1.3572   -2.6200    0.0433 C   0  0  0  0  0  0  0  0  0  0  0  0
   -0.3986   -3.0165    0.6808 O   0  0  0  0  0  0  0  0  0  0  0  0
   -1.3786   -1.3388   -0.4712 N   0  0  0  0  0  0  0  0  0  0  0  0
   -2.1457   -1.1395   -1.1057 H   0  0  0  0  0  0  0  0  0  0  0  0
   -0.1805   -0.4850   -0.5827 C   0  0  1  0  0  0  0  0  0  0  0  0
    0.5393   -1.0300   -1.2056 H   0  0  0  0  0  0  0  0  0  0  0  0
   -0.5641    0.8333   -1.2857 C   0  0  0  0  0  0  0  0  0  0  0  0
   -1.5307    0.7396   -1.7876 H   0  0  0  0  0  0  0  0  0  0  0  0
   -0.6502    1.6465   -0.5584 H   0  0  0  0  0  0  0  0  0  0  0  0
    0.4576    1.1816   -2.3244 C   0  0  0  0  0  0  0  0  0  0  0  0
    0.5517    0.5352   -3.5499 N   0  0  0  0  0  0  0  0  0  0  0  0
    1.5695    1.0820   -4.1725 C   0  0  0  0  0  0  0  0  0  0  0  0
    1.9188    0.7945   -5.1600 H   0  0  0  0  0  0  0  0  0  0  0  0
    2.1291    2.0750   -3.3898 N   0  0  0  0  0  0  0  0  0  0  0  0
    2.9500    2.6254   -3.6350 H   0  0  0  0  0  0  0  0  0  0  0  0
    1.4225    2.1403   -2.2082 C   0  0  0  0  0  0  0  0  0  0  0  0
    1.6014    2.7790   -1.3478 H   0  0  0  0  0  0  0  0  0  0  0  0
    0.5383   -0.1679    0.7492 C   0  0  0  0  0  0  0  0  0  0  0  0
    1.7437    0.0498    0.7535 O   0  0  0  0  0  0  0  0  0  0  0  0
   -0.2080    0.1981    1.8558 N   0  0  0  0  0  0  0  0  0  0  0  0
   -1.1786   -0.0991    1.8455 H   0  0  0  0  0  0  0  0  0  0  0  0
    0.3994    0.5411    3.1352 C   0  0  0  0  0  0  0  0  0  0  0  0
    1.0617    1.4063    3.0264 H   0  0  0  0  0  0  0  0  0  0  0  0
   -0.3753    0.7912    3.8661 H   0  0  0  0  0  0  0  0  0  0  0  0
    0.9818   -0.3026    3.5203 H   0  0  0  0  0  0  0  0  0  0  0  0
  1  2  1  0  0  0  0
  2  3  1  0  0  0  0
  2  4  1  0  0  0  0
  2  5  1  0  0  0  0
  5  6  2  0  0  0  0
  5  7  1  0  0  0  0
  7  8  1  0  0  0  0
  7  9  1  0  0  0  0
  9 10  1  0  0  0  0
  9 11  1  0  0  0  0
  9 22  1  0  0  0  0
 11 12  1  0  0  0  0
 11 13  1  0  0  0  0
 11 14  1  0  0  0  0
 14 15  1  0  0  0  0
 14 20  2  0  0  0  0
 15 16  2  0  0  0  0
 16 17  1  0  0  0  0
 16 18  1  0  0  0  0
 18 19  1  0  0  0  0
 18 20  1  0  0  0  0
 20 21  1  0  0  0  0
 22 23  2  0  0  0  0
 22 24  1  0  0  0  0
 24 25  1  0  0  0  0
 24 26  1  0  0  0  0
 26 27  1  0  0  0  0
 26 28  1  0  0  0  0
 26 29  1  0  0  0  0
M  END
$$$$

  -OEChem-04042215593D

 29 29  0     1  0  0  0  0  0999 V2000
   -2.3664   -4.5038    0.2933 H   0  0  0  0  0  0  0  0  0  0  0  0
   -2.5557   -3.5258   -0.1586 C   0  0  0  0  0  0  0  0  0  0  0  0
   -3.4366   -3.0847    0.3137 H   0  0  0  0  0  0  0  0  0  0  0  0
   -2.7515   -3.6643   -1.2247 H   0  0  0  0  0  0  0  0  0  0  0  0
   -1.3533   -2.6208    0.0344 C   0  0  0  0  0  0  0  0  0  0  0  0
   -0.3856   -3.0251    0.6533 O   0  0  0  0  0  0  0  0  0  0  0  0
   -1.3739   -1.3375   -0.4749 N   0  0  0  0  0  0  0  0  0  0  0  0
   -2.1503   -1.1256   -1.0943 H   0  0  0  0  0  0  0  0  0  0  0  0
   -0.1769   -0.4819   -0.5802 C   0  0  1  0  0  0  0  0  0  0  0  0
    0.5444   -1.0258   -1.2022 H   0  0  0  0  0  0  0  0  0  0  0  0
   -0.5568    0.8355   -1.2852 C   0  0  0  0  0  0  0  0  0  0  0  0
   -1.5226    0.7461   -1.7902 H   0  0  0  0  0  0  0  0  0  0  0  0
   -0.6416    1.6495   -0.5587 H   0  0  0  0  0  0  0  0  0  0  0  0
    0.4724    1.1818   -2.3166 C   0  0  0  0  0  0  0  0  0  0  0  0
    0.4028    0.7622   -3.6381 N   0  0  0  0  0  0  0  0  0  0  0  0
    1.4784    1.2322   -4.2256 C   0  0  0  0  0  0  0  0  0  0  0  0
    1.7329    1.0741   -5.2697 H   0  0  0  0  0  0  0  0  0  0  0  0
    2.2376    1.9542   -3.3233 N   0  0  0  0  0  0  0  0  0  0  0  0
    3.1330    2.3949   -3.5257 H   0  0  0  0  0  0  0  0  0  0  0  0
    1.5988    1.9226   -2.1025 C   0  0  0  0  0  0  0  0  0  0  0  0
    1.9213    2.3510   -1.1567 H   0  0  0  0  0  0  0  0  0  0  0  0
    0.5390   -0.1681    0.7541 C   0  0  0  0  0  0  0  0  0  0  0  0
    1.7438    0.0544    0.7595 O   0  0  0  0  0  0  0  0  0  0  0  0
   -0.2086    0.1933    1.8611 N   0  0  0  0  0  0  0  0  0  0  0  0
   -1.1808   -0.0985    1.8481 H   0  0  0  0  0  0  0  0  0  0  0  0
    0.3959    0.5411    3.1407 C   0  0  0  0  0  0  0  0  0  0  0  0
    1.0519    1.4110    3.0318 H   0  0  0  0  0  0  0  0  0  0  0  0
   -0.3810    0.7861    3.8710 H   0  0  0  0  0  0  0  0  0  0  0  0
    0.9840   -0.2985    3.5262 H   0  0  0  0  0  0  0  0  0  0  0  0
  1  2  1  0  0  0  0
  2  3  1  0  0  0  0
  2  4  1  0  0  0  0
  2  5  1  0  0  0  0
  5  6  2  0  0  0  0
  5  7  1  0  0  0  0
  7  8  1  0  0  0  0
  7  9  1  0  0  0  0
  9 10  1  0  0  0  0
  9 11  1  0  0  0  0
  9 22  1  0  0  0  0
 11 12  1  0  0  0  0
 11 13  1  0  0  0  0
 11 14  1  0  0  0  0
 14 15  1  0  0  0  0
 14 20  2  0  0  0  0
 15 16  2  0  0  0  0
 16 17  1  0  0  0  0
 16 18  1  0  0  0  0
 18 19  1  0  0  0  0
 18 20  1  0  0  0  0
 20 21  1  0  0  0  0
 22 23  2  0  0  0  0
 22 24  1  0  0  0  0
 24 25  1  0  0  0  0
 24 26  1  0  0  0  0
 26 27  1  0  0  0  0
 26 28  1  0  0  0  0
 26 29  1  0  0  0  0
M  END
$$$$

  -OEChem-04042215593D

 29 29  0     1  0  0  0  0  0999 V2000
   -2.3822   -4.4957    0.3058 H   0  0  0  0  0  0  0  0  0  0  0  0
   -2.5658   -3.5149   -0.1424 C   0  0  0  0  0  0  0  0  0  0  0  0
   -3.4353   -3.0641    0.3418 H   0  0  0  0  0  0  0  0  0  0  0  0
   -2.7769   -3.6498   -1.2059 H   0  0  0  0  0  0  0  0  0  0  0  0
   -1.3505   -2.6244    0.0371 C   0  0  0  0  0  0  0  0  0  0  0  0
   -0.3823   -3.0393    0.6479 O   0  0  0  0  0  0  0  0  0  0  0  0
   -1.3576   -1.3426   -0.4768 N   0  0  0  0  0  0  0  0  0  0  0  0
   -2.1371   -1.1175   -1.0876 H   0  0  0  0  0  0  0  0  0  0  0  0
   -0.1556   -0.4933   -0.5740 C   0  0  1  0  0  0  0  0  0  0  0  0
    0.5697   -1.0405   -1.1881 H   0  0  0  0  0  0  0  0  0  0  0  0
   -0.5289    0.8222   -1.2875 C   0  0  0  0  0  0  0  0  0  0  0  0
   -1.4930    0.7293   -1.7953 H   0  0  0  0  0  0  0  0  0  0  0  0
   -0.6191    1.6393   -0.5653 H   0  0  0  0  0  0  0  0  0  0  0  0
    0.5005    1.1763   -2.3173 C   0  0  0  0  0  0  0  0  0  0  0  0
    0.2987    1.0242   -3.6825 N   0  0  0  0  0  0  0  0  0  0  0  0
    1.4081    1.4207   -4.2614 C   0  0  0  0  0  0  0  0  0  0  0  0
    1.5800    1.4242   -5.3340 H   0  0  0  0  0  0  0  0  0  0  0  0
    2.3223    1.8307   -3.3089 N   0  0  0  0  0  0  0  0  0  0  0  0
    3.2668    2.1597   -3.5000 H   0  0  0  0  0  0  0  0  0  0  0  0
    1.7465    1.6757   -2.0666 C   0  0  0  0  0  0  0  0  0  0  0  0
    2.1806    1.8735   -1.0888 H   0  0  0  0  0  0  0  0  0  0  0  0
    0.5451   -0.1815    0.7690 C   0  0  0  0  0  0  0  0  0  0  0  0
    1.7534    0.0196    0.7927 O   0  0  0  0  0  0  0  0  0  0  0  0
   -0.2136    0.1856    1.8663 N   0  0  0  0  0  0  0  0  0  0  0  0
   -1.1913   -0.0858    1.8375 H   0  0  0  0  0  0  0  0  0  0  0  0
    0.3760    0.5323    3.1529 C   0  0  0  0  0  0  0  0  0  0  0  0
    1.0366    1.3996    3.0511 H   0  0  0  0  0  0  0  0  0  0  0  0
   -0.4090    0.7811    3.8732 H   0  0  0  0  0  0  0  0  0  0  0  0
    0.9559   -0.3092    3.5466 H   0  0  0  0  0  0  0  0  0  0  0  0
  1  2  1  0  0  0  0
  2  3  1  0  0  0  0
  2  4  1  0  0  0  0
  2  5  1  0  0  0  0
  5  6  2  0  0  0  0
  5  7  1  0  0  0  0
  7  8  1  0  0  0  0
  7  9  1  0  0  0  0
  9 10  1  0  0  0  0
  9 11  1  0  0  0  0
  9 22  1  0  0  0  0
 11 12  1  0  0  0  0
 11 13  1  0  0  0  0
 11 14  1  0  0  0  0
 14 15  1  0  0  0  0
 14 20  2  0  0  0  0
 15 16  2  0  0  0  0
 16 17  1  0  0  0  0
 16 18  1  0  0  0  0
 18 19  1  0  0  0  0
 18 20  1  0  0  0  0
 20 21  1  0  0  0  0
 22 23  2  0  0  0  0
 22 24  1  0  0  0  0
 24 25  1  0  0  0  0
 24 26  1  0  0  0  0
 26 27  1  0  0  0  0
 26 28  1  0  0  0  0
 26 29  1  0  0  0  0
M  END
$$$$

  -OEChem-04042215593D

 29 29  0     1  0  0  0  0  0999 V2000
   -2.4045   -4.4821    0.3276 H   0  0  0  0  0  0  0  0  0  0  0  0
   -2.5764   -3.4988   -0.1200 C   0  0  0  0  0  0  0  0  0  0  0  0
   -3.4319   -3.0324    0.3745 H   0  0  0  0  0  0  0  0  0  0  0  0
   -2.8035   -3.6315   -1.1806 H   0  0  0  0  0  0  0  0  0  0  0  0
   -1.3435   -2.6295    0.0427 C   0  0  0  0  0  0  0  0  0  0  0  0
   -0.3750   -3.0593    0.6423 O   0  0  0  0  0  0  0  0  0  0  0  0
   -1.3339   -1.3505   -0.4779 N   0  0  0  0  0  0  0  0  0  0  0  0
   -2.1206   -1.1078   -1.0726 H   0  0  0  0  0  0  0  0  0  0  0  0
   -0.1271   -0.5063   -0.5648 C   0  0  1  0  0  0  0  0  0  0  0  0
    0.6052   -1.0582   -1.1661 H   0  0  0  0  0  0  0  0  0  0  0  0
   -0.4938    0.8042   -1.2937 C   0  0  0  0  0  0  0  0  0  0  0  0
   -1.4517    0.6959   -1.8105 H   0  0  0  0  0  0  0  0  0  0  0  0
   -0.6021    1.6268   -0.5804 H   0  0  0  0  0  0  0  0  0  0  0  0
    0.5343    1.1728   -2.3228 C   0  0  0  0  0  0  0  0  0  0  0  0
    0.2348    1.3048   -3.6724 N   0  0  0  0  0  0  0  0  0  0  0  0
    1.3595    1.6215   -4.2700 C   0  0  0  0  0  0  0  0  0  0  0  0
    1.4671    1.7945   -5.3369 H   0  0  0  0  0  0  0  0  0  0  0  0
    2.3829    1.7005   -3.3449 N   0  0  0  0  0  0  0  0  0  0  0  0
    3.3552    1.9174   -3.5566 H   0  0  0  0  0  0  0  0  0  0  0  0
    1.8610    1.4153   -2.1019 C   0  0  0  0  0  0  0  0  0  0  0  0
    2.3795    1.3764   -1.1463 H   0  0  0  0  0  0  0  0  0  0  0  0
    0.5509   -0.1940    0.7900 C   0  0  0  0  0  0  0  0  0  0  0  0
    1.7640   -0.0322    0.8438 O   0  0  0  0  0  0  0  0  0  0  0  0
   -0.2232    0.1804    1.8740 N   0  0  0  0  0  0  0  0  0  0  0  0
   -1.2077   -0.0605    1.8202 H   0  0  0  0  0  0  0  0  0  0  0  0
    0.3449    0.5083    3.1752 C   0  0  0  0  0  0  0  0  0  0  0  0
    1.0324    1.3564    3.0914 H   0  0  0  0  0  0  0  0  0  0  0  0
   -0.4500    0.7784    3.8766 H   0  0  0  0  0  0  0  0  0  0  0  0
    0.8909   -0.3497    3.5811 H   0  0  0  0  0  0  0  0  0  0  0  0
  1  2  1  0  0  0  0
  2  3  1  0  0  0  0
  2  4  1  0  0  0  0
  2  5  1  0  0  0  0
  5  6  2  0  0  0  0
  5  7  1  0  0  0  0
  7  8  1  0  0  0  0
  7  9  1  0  0  0  0
  9 10  1  0  0  0  0
  9 11  1  0  0  0  0
  9 22  1  0  0  0  0
 11 12  1  0  0  0  0
 11 13  1  0  0  0  0
 11 14  1  0  0  0  0
 14 15  1  0  0  0  0
 14 20  2  0  0  0  0
 15 16  2  0  0  0  0
 16 17  1  0  0  0  0
 16 18  1  0  0  0  0
 18 19  1  0  0  0  0
 18 20  1  0  0  0  0
 20 21  1  0  0  0  0
 22 23  2  0  0  0  0
 22 24  1  0  0  0  0
 24 25  1  0  0  0  0
 24 26  1  0  0  0  0
 26 27  1  0  0  0  0
 26 28  1  0  0  0  0
 26 29  1  0  0  0  0
M  END
$$$$

  -OEChem-04042215593D

 29 29  0     1  0  0  0  0  0999 V2000
   -2.4264   -4.4790    0.3338 H   0  0  0  0  0  0  0  0  0  0  0  0
   -2.5915   -3.4892   -0.1015 C   0  0  0  0  0  0  0  0  0  0  0  0
   -3.4324   -3.0156    0.4106 H   0  0  0  0  0  0  0  0  0  0  0  0
   -2.8373   -3.6085   -1.1594 H   0  0  0  0  0  0  0  0  0  0  0  0
   -1.3444   -2.6384    0.0495 C   0  0  0  0  0  0  0  0  0  0  0  0
   -0.3758   -3.0822    0.6387 O   0  0  0  0  0  0  0  0  0  0  0  0
   -1.3183   -1.3624   -0.4778 N   0  0  0  0  0  0  0  0  0  0  0  0
   -2.1108   -1.1018   -1.0570 H   0  0  0  0  0  0  0  0  0  0  0  0
   -0.1059   -0.5252   -0.5548 C   0  0  1  0  0  0  0  0  0  0  0  0
    0.6292   -1.0870   -1.1427 H   0  0  0  0  0  0  0  0  0  0  0  0
   -0.4582    0.7821   -1.2983 C   0  0  0  0  0  0  0  0  0  0  0  0
   -1.4086    0.6623   -1.8260 H   0  0  0  0  0  0  0  0  0  0  0  0
   -0.5841    1.6089   -0.5929 H   0  0  0  0  0  0  0  0  0  0  0  0
    0.5703    1.1633   -2.3254 C   0  0  0  0  0  0  0  0  0  0  0  0
    0.2196    1.5878   -3.6007 N   0  0  0  0  0  0  0  0  0  0  0  0
    1.3434    1.8254   -4.2350 C   0  0  0  0  0  0  0  0  0  0  0  0
    1.4142    2.1758   -5.2607 H   0  0  0  0  0  0  0  0  0  0  0  0
    2.4186    1.5636   -3.4079 N   0  0  0  0  0  0  0  0  0  0  0  0
    3.3989    1.6690   -3.6626 H   0  0  0  0  0  0  0  0  0  0  0  0
    1.9312    1.1395   -2.1908 C   0  0  0  0  0  0  0  0  0  0  0  0
    2.4948    0.8487   -1.3072 H   0  0  0  0  0  0  0  0  0  0  0  0
    0.5544   -0.2100    0.8081 C   0  0  0  0  0  0  0  0  0  0  0  0
    1.7698   -0.0783    0.8829 O   0  0  0  0  0  0  0  0  0  0  0  0
   -0.2312    0.1747    1.8802 N   0  0  0  0  0  0  0  0  0  0  0  0
   -1.2204   -0.0401    1.8081 H   0  0  0  0  0  0  0  0  0  0  0  0
    0.3198    0.4992    3.1896 C   0  0  0  0  0  0  0  0  0  0  0  0
    1.0258    1.3329    3.1138 H   0  0  0  0  0  0  0  0  0  0  0  0
   -0.4819    0.7900    3.8750 H   0  0  0  0  0  0  0  0  0  0  0  0
    0.8409   -0.3673    3.6102 H   0  0  0  0  0  0  0  0  0  0  0  0
  1  2  1  0  0  0  0
  2  3  1  0  0  0  0
  2  4  1  0  0  0  0
  2  5  1  0  0  0  0
  5  6  2  0  0  0  0
  5  7  1  0  0  0  0
  7  8  1  0  0  0  0
  7  9  1  0  0  0  0
  9 10  1  0  0  0  0
  9 11  1  0  0  0  0
  9 22  1  0  0  0  0
 11 12  1  0  0  0  0
 11 13  1  0  0  0  0
 11 14  1  0  0  0  0
 14 15  1  0  0  0  0
 14 20  2  0  0  0  0
 15 16  2  0  0  0  0
 16 17  1  0  0  0  0
 16 18  1  0  0  0  0
 18 19  1  0  0  0  0
 18 20  1  0  0  0  0
 20 21  1  0  0  0  0
 22 23  2  0  0  0  0
 22 24  1  0  0  0  0
 24 25  1  0  0  0  0
 24 26  1  0  0  0  0
 26 27  1  0  0  0  0
 26 28  1  0  0  0  0
 26 29  1  0  0  0  0
M  END
$$$$

  -OEChem-04042215593D

 29 29  0     1  0  0  0  0  0999 V2000
   -2.4531   -4.4849    0.3523 H   0  0  0  0  0  0  0  0  0  0  0  0
   -2.6166   -3.4947   -0.0830 C   0  0  0  0  0  0  0  0  0  0  0  0
   -3.4491   -3.0148    0.4369 H   0  0  0  0  0  0  0  0  0  0  0  0
   -2.8738   -3.6144   -1.1382 H   0  0  0  0  0  0  0  0  0  0  0  0
   -1.3624   -2.6520    0.0541 C   0  0  0  0  0  0  0  0  0  0  0  0
   -0.3915   -3.1021    0.6346 O   0  0  0  0  0  0  0  0  0  0  0  0
   -1.3288   -1.3779   -0.4774 N   0  0  0  0  0  0  0  0  0  0  0  0
   -2.1264   -1.1049   -1.0437 H   0  0  0  0  0  0  0  0  0  0  0  0
   -0.1115   -0.5478   -0.5507 C   0  0  1  0  0  0  0  0  0  0  0  0
    0.6175   -1.1276   -1.1277 H   0  0  0  0  0  0  0  0  0  0  0  0
   -0.4422    0.7557   -1.3116 C   0  0  0  0  0  0  0  0  0  0  0  0
   -1.3857    0.6333   -1.8510 H   0  0  0  0  0  0  0  0  0  0  0  0
   -0.5762    1.5880   -0.6142 H   0  0  0  0  0  0  0  0  0  0  0  0
    0.5941    1.1350   -2.3338 C   0  0  0  0  0  0  0  0  0  0  0  0
    0.2622    1.8357   -3.4864 N   0  0  0  0  0  0  0  0  0  0  0  0
    1.3795    2.0101   -4.1520 C   0  0  0  0  0  0  0  0  0  0  0  0
    1.4610    2.5295   -5.1027 H   0  0  0  0  0  0  0  0  0  0  0  0
    2.4331    1.4375   -3.4661 N   0  0  0  0  0  0  0  0  0  0  0  0
    3.4065    1.4461   -3.7650 H   0  0  0  0  0  0  0  0  0  0  0  0
    1.9387    0.8806   -2.3067 C   0  0  0  0  0  0  0  0  0  0  0  0
    2.4893    0.3635   -1.5236 H   0  0  0  0  0  0  0  0  0  0  0  0
    0.5520   -0.2258    0.8079 C   0  0  0  0  0  0  0  0  0  0  0  0
    1.7691   -0.1058    0.8761 O   0  0  0  0  0  0  0  0  0  0  0  0
   -0.2275    0.1710    1.8799 N   0  0  0  0  0  0  0  0  0  0  0  0
   -1.2209   -0.0238    1.8092 H   0  0  0  0  0  0  0  0  0  0  0  0
    0.3299    0.5066    3.1836 C   0  0  0  0  0  0  0  0  0  0  0  0
    1.0379    1.3373    3.0961 H   0  0  0  0  0  0  0  0  0  0  0  0
   -0.4681    0.8068    3.8693 H   0  0  0  0  0  0  0  0  0  0  0  0
    0.8498   -0.3573    3.6110 H   0  0  0  0  0  0  0  0  0  0  0  0
  1  2  1  0  0  0  0
  2  3  1  0  0  0  0
  2  4  1  0  0  0  0
  2  5  1  0  0  0  0
  5  6  2  0  0  0  0
  5  7  1  0  0  0  0
  7  8  1  0  0  0  0
  7  9  1  0  0  0  0
  9 10  1  0  0  0  0
  9 11  1  0  0  0  0
  9 22  1  0  0  0  0
 11 12  1  0  0  0  0
 11 13  1  0  0  0  0
 11 14  1  0  0  0  0
 14 15  1  0  0  0  0
 14 20  2  0  0  0  0
 15 16  2  0  0  0  0
 16 17  1  0  0  0  0
 16 18  1  0  0  0  0
 18 19  1  0  0  0  0
 18 20  1  0  0  0  0
 20 21  1  0  0  0  0
 22 23  2  0  0  0  0
 22 24  1  0  0  0  0
 24 25  1  0  0  0  0
 24 26  1  0  0  0  0
 26 27  1  0  0  0  0
 26 28  1  0  0  0  0
 26 29  1  0  0  0  0
M  END
$$$$

  -OEChem-04042215593D

 29 29  0     1  0  0  0  0  0999 V2000
   -2.4938   -4.4896    0.3801 H   0  0  0  0  0  0  0  0  0  0  0  0
   -2.6523   -3.4969   -0.0511 C   0  0  0  0  0  0  0  0  0  0  0  0
   -3.4652   -3.0051    0.4883 H   0  0  0  0  0  0  0  0  0  0  0  0
   -2.9355   -3.6118   -1.1001 H   0  0  0  0  0  0  0  0  0  0  0  0
   -1.3834   -2.6724    0.0568 C   0  0  0  0  0  0  0  0  0  0  0  0
   -0.4068   -3.1320    0.6200 O   0  0  0  0  0  0  0  0  0  0  0  0
   -1.3433   -1.4010   -0.4801 N   0  0  0  0  0  0  0  0  0  0  0  0
   -2.1534   -1.1099   -1.0189 H   0  0  0  0  0  0  0  0  0  0  0  0
   -0.1235   -0.5752   -0.5539 C   0  0  1  0  0  0  0  0  0  0  0  0
    0.5979   -1.1746   -1.1182 H   0  0  0  0  0  0  0  0  0  0  0  0
   -0.4383    0.7166   -1.3414 C   0  0  0  0  0  0  0  0  0  0  0  0
   -1.3755    0.5889   -1.8899 H   0  0  0  0  0  0  0  0  0  0  0  0
   -0.5791    1.5573   -0.6551 H   0  0  0  0  0  0  0  0  0  0  0  0
    0.6042    1.0908   -2.3610 C   0  0  0  0  0  0  0  0  0  0  0  0
    0.3382    2.0266   -3.3525 N   0  0  0  0  0  0  0  0  0  0  0  0
    1.4449    2.1662   -4.0430 C   0  0  0  0  0  0  0  0  0  0  0  0
    1.5667    2.8333   -4.8915 H   0  0  0  0  0  0  0  0  0  0  0  0
    2.4296    1.3449   -3.5297 N   0  0  0  0  0  0  0  0  0  0  0  0
    3.3876    1.2882   -3.8703 H   0  0  0  0  0  0  0  0  0  0  0  0
    1.9034    0.6668   -2.4517 C   0  0  0  0  0  0  0  0  0  0  0  0
    2.4120   -0.0280   -1.7869 H   0  0  0  0  0  0  0  0  0  0  0  0
    0.5488   -0.2406    0.7959 C   0  0  0  0  0  0  0  0  0  0  0  0
    1.7674   -0.1313    0.8515 O   0  0  0  0  0  0  0  0  0  0  0  0
   -0.2198    0.1697    1.8706 N   0  0  0  0  0  0  0  0  0  0  0  0
   -1.2153   -0.0173    1.8098 H   0  0  0  0  0  0  0  0  0  0  0  0
    0.3512    0.5138    3.1662 C   0  0  0  0  0  0  0  0  0  0  0  0
    1.0771    1.3271    3.0619 H   0  0  0  0  0  0  0  0  0  0  0  0
   -0.4363    0.8422    3.8510 H   0  0  0  0  0  0  0  0  0  0  0  0
    0.8543   -0.3544    3.6046 H   0  0  0  0  0  0  0  0  0  0  0  0
  1  2  1  0  0  0  0
  2  3  1  0  0  0  0
  2  4  1  0  0  0  0
  2  5  1  0  0  0  0
  5  6  2  0  0  0  0
  5  7  1  0  0  0  0
  7  8  1  0  0  0  0
  7  9  1  0  0  0  0
  9 10  1  0  0  0  0
  9 11  1  0  0  0  0
  9 22  1  0  0  0  0
 11 12  1  0  0  0  0
 11 13  1  0  0  0  0
 11 14  1  0  0  0  0
 14 15  1  0  0  0  0
 14 20  2  0  0  0  0
 15 16  2  0  0  0  0
 16 17  1  0  0  0  0
 16 18  1  0  0  0  0
 18 19  1  0  0  0  0
 18 20  1  0  0  0  0
 20 21  1  0  0  0  0
 22 23  2  0  0  0  0
 22 24  1  0  0  0  0
 24 25  1  0  0  0  0
 24 26  1  0  0  0  0
 26 27  1  0  0  0  0
 26 28  1  0  0  0  0
 26 29  1  0  0  0  0
M  END
$$$$

  -OEChem-04042215593D

 29 29  0     1  0  0  0  0  0999 V2000
   -2.5334   -4.4810    0.4578 H   0  0  0  0  0  0  0  0  0  0  0  0
   -2.6775   -3.4899    0.0181 C   0  0  0  0  0  0  0  0  0  0  0  0
   -3.4643   -2.9711    0.5708 H   0  0  0  0  0  0  0  0  0  0  0  0
   -2.9888   -3.6103   -1.0222 H   0  0  0  0  0  0  0  0  0  0  0  0
   -1.3858   -2.6974    0.0867 C   0  0  0  0  0  0  0  0  0  0  0  0
   -0.4123   -3.1721    0.6421 O   0  0  0  0  0  0  0  0  0  0  0  0
   -1.3211   -1.4395   -0.4788 N   0  0  0  0  0  0  0  0  0  0  0  0
   -2.1333   -1.1350   -1.0068 H   0  0  0  0  0  0  0  0  0  0  0  0
   -0.0915   -0.6281   -0.5566 C   0  0  1  0  0  0  0  0  0  0  0  0
    0.6461   -1.2380   -1.0819 H   0  0  0  0  0  0  0  0  0  0  0  0
   -0.3967    0.6632   -1.3566 C   0  0  0  0  0  0  0  0  0  0  0  0
   -1.4503    0.6826   -1.6479 H   0  0  0  0  0  0  0  0  0  0  0  0
   -0.2329    1.5370   -0.7177 H   0  0  0  0  0  0  0  0  0  0  0  0
    0.4159    0.8664   -2.6097 C   0  0  0  0  0  0  0  0  0  0  0  0
    0.2100    1.9956   -3.3923 N   0  0  0  0  0  0  0  0  0  0  0  0
    1.0687    1.9357   -4.3813 C   0  0  0  0  0  0  0  0  0  0  0  0
    1.1643    2.6790   -5.1674 H   0  0  0  0  0  0  0  0  0  0  0  0
    1.8311    0.7900   -4.2727 N   0  0  0  0  0  0  0  0  0  0  0  0
    2.5860    0.5238   -4.9024 H   0  0  0  0  0  0  0  0  0  0  0  0
    1.4271    0.1093   -3.1440 C   0  0  0  0  0  0  0  0  0  0  0  0
    1.8426   -0.8136   -2.7507 H   0  0  0  0  0  0  0  0  0  0  0  0
    0.5510   -0.2789    0.8047 C   0  0  0  0  0  0  0  0  0  0  0  0
    1.7683   -0.1826    0.8907 O   0  0  0  0  0  0  0  0  0  0  0  0
   -0.2400    0.1574    1.8529 N   0  0  0  0  0  0  0  0  0  0  0  0
   -1.2372   -0.0068    1.7655 H   0  0  0  0  0  0  0  0  0  0  0  0
    0.3003    0.5280    3.1544 C   0  0  0  0  0  0  0  0  0  0  0  0
    1.0437    1.3254    3.0492 H   0  0  0  0  0  0  0  0  0  0  0  0
   -0.5001    0.8892    3.8070 H   0  0  0  0  0  0  0  0  0  0  0  0
    0.7746   -0.3365    3.6305 H   0  0  0  0  0  0  0  0  0  0  0  0
  1  2  1  0  0  0  0
  2  3  1  0  0  0  0
  2  4  1  0  0  0  0
  2  5  1  0  0  0  0
  5  6  2  0  0  0  0
  5  7  1  0  0  0  0
  7  8  1  0  0  0  0
  7  9  1  0  0  0  0
  9 10  1  0  0  0  0
  9 11  1  0  0  0  0
  9 22  1  0  0  0  0
 11 12  1  0  0  0  0
 11 13  1  0  0  0  0
 11 14  1  0  0  0  0
 14 15  1  0  0  0  0
 14 20  2  0  0  0  0
 15 16  2  0  0  0  0
 16 17  1  0  0  0  0
 16 18  1  0  0  0  0
 18 19  1  0  0  0  0
 18 20  1  0  0  0  0
 20 21  1  0  0  0  0
 22 23  2  0  0  0  0
 22 24  1  0  0  0  0
 24 25  1  0  0  0  0
 24 26  1  0  0  0  0
 26 27  1  0  0  0  0
 26 28  1  0  0  0  0
 26 29  1  0  0  0  0
M  END
$$$$

  -OEChem-04042215593D

 29 29  0     1  0  0  0  0  0999 V2000
   -2.5428   -4.4781    0.4756 H   0  0  0  0  0  0  0  0  0  0  0  0
   -2.6812   -3.4896    0.0280 C   0  0  0  0  0  0  0  0  0  0  0  0
   -3.4618   -2.9603    0.5797 H   0  0  0  0  0  0  0  0  0  0  0  0
   -2.9980   -3.6162   -1.0101 H   0  0  0  0  0  0  0  0  0  0  0  0
   -1.3835   -2.7054    0.0833 C   0  0  0  0  0  0  0  0  0  0  0  0
   -0.4036   -3.1908    0.6177 O   0  0  0  0  0  0  0  0  0  0  0  0
   -1.3180   -1.4472   -0.4815 N   0  0  0  0  0  0  0  0  0  0  0  0
   -2.1416   -1.1280   -0.9823 H   0  0  0  0  0  0  0  0  0  0  0  0
   -0.0888   -0.6351   -0.5632 C   0  0  1  0  0  0  0  0  0  0  0  0
    0.6561   -1.2359   -1.0895 H   0  0  0  0  0  0  0  0  0  0  0  0
   -0.4040    0.6575   -1.3567 C   0  0  0  0  0  0  0  0  0  0  0  0
   -1.4608    0.6896   -1.6343 H   0  0  0  0  0  0  0  0  0  0  0  0
   -0.2227    1.5259   -0.7150 H   0  0  0  0  0  0  0  0  0  0  0  0
    0.4016    0.8595   -2.6142 C   0  0  0  0  0  0  0  0  0  0  0  0
    0.4329    2.1035   -3.2312 N   0  0  0  0  0  0  0  0  0  0  0  0
    1.2274    1.9942   -4.2683 C   0  0  0  0  0  0  0  0  0  0  0  0
    1.4671    2.8013   -4.9547 H   0  0  0  0  0  0  0  0  0  0  0  0
    1.7100    0.7035   -4.3566 N   0  0  0  0  0  0  0  0  0  0  0  0
    2.3648    0.3675   -5.0604 H   0  0  0  0  0  0  0  0  0  0  0  0
    1.1900   -0.0232   -3.3070 C   0  0  0  0  0  0  0  0  0  0  0  0
    1.3789   -1.0660   -3.0720 H   0  0  0  0  0  0  0  0  0  0  0  0
    0.5543   -0.2880    0.7993 C   0  0  0  0  0  0  0  0  0  0  0  0
    1.7714   -0.1938    0.8884 O   0  0  0  0  0  0  0  0  0  0  0  0
   -0.2358    0.1464    1.8492 N   0  0  0  0  0  0  0  0  0  0  0  0
   -1.2350   -0.0041    1.7605 H   0  0  0  0  0  0  0  0  0  0  0  0
    0.3065    0.5391    3.1435 C   0  0  0  0  0  0  0  0  0  0  0  0
    1.0149    1.3662    3.0269 H   0  0  0  0  0  0  0  0  0  0  0  0
   -0.4990    0.8673    3.8072 H   0  0  0  0  0  0  0  0  0  0  0  0
    0.8228   -0.3047    3.6132 H   0  0  0  0  0  0  0  0  0  0  0  0
  1  2  1  0  0  0  0
  2  3  1  0  0  0  0
  2  4  1  0  0  0  0
  2  5  1  0  0  0  0
  5  6  2  0  0  0  0
  5  7  1  0  0  0  0
  7  8  1  0  0  0  0
  7  9  1  0  0  0  0
  9 10  1  0  0  0  0
  9 11  1  0  0  0  0
  9 22  1  0  0  0  0
 11 12  1  0  0  0  0
 11 13  1  0  0  0  0
 11 14  1  0  0  0  0
 14 15  1  0  0  0  0
 14 20  2  0  0  0  0
 15 16  2  0  0  0  0
 16 17  1  0  0  0  0
 16 18  1  0  0  0  0
 18 19  1  0  0  0  0
 18 20  1  0  0  0  0
 20 21  1  0  0  0  0
 22 23  2  0  0  0  0
 22 24  1  0  0  0  0
 24 25  1  0  0  0  0
 24 26  1  0  0  0  0
 26 27  1  0  0  0  0
 26 28  1  0  0  0  0
 26 29  1  0  0  0  0
M  END
$$$$

  -OEChem-04042215593D

 29 29  0     1  0  0  0  0  0999 V2000
   -2.5112   -4.4739    0.4895 H   0  0  0  0  0  0  0  0  0  0  0  0
   -2.6638   -3.4855    0.0465 C   0  0  0  0  0  0  0  0  0  0  0  0
   -3.4270   -2.9565    0.6221 H   0  0  0  0  0  0  0  0  0  0  0  0
   -3.0128   -3.6127   -0.9810 H   0  0  0  0  0  0  0  0  0  0  0  0
   -1.3648   -2.7016    0.0628 C   0  0  0  0  0  0  0  0  0  0  0  0
   -0.3679   -3.1907    0.5607 O   0  0  0  0  0  0  0  0  0  0  0  0
   -1.3170   -1.4393   -0.4948 N   0  0  0  0  0  0  0  0  0  0  0  0
   -2.1603   -1.1079   -0.9526 H   0  0  0  0  0  0  0  0  0  0  0  0
   -0.0967   -0.6144   -0.5833 C   0  0  1  0  0  0  0  0  0  0  0  0
    0.6549   -1.1981   -1.1222 H   0  0  0  0  0  0  0  0  0  0  0  0
   -0.4332    0.6801   -1.3641 C   0  0  0  0  0  0  0  0  0  0  0  0
   -1.4923    0.7123   -1.6318 H   0  0  0  0  0  0  0  0  0  0  0  0
   -0.2445    1.5460   -0.7207 H   0  0  0  0  0  0  0  0  0  0  0  0
    0.3694    0.8745   -2.6227 C   0  0  0  0  0  0  0  0  0  0  0  0
    0.6717    2.1439   -3.0965 N   0  0  0  0  0  0  0  0  0  0  0  0
    1.4037    1.9816   -4.1721 C   0  0  0  0  0  0  0  0  0  0  0  0
    1.8111    2.7895   -4.7730 H   0  0  0  0  0  0  0  0  0  0  0  0
    1.5759    0.6347   -4.4257 N   0  0  0  0  0  0  0  0  0  0  0  0
    2.1261    0.2463   -5.1895 H   0  0  0  0  0  0  0  0  0  0  0  0
    0.9207   -0.0753   -3.4422 C   0  0  0  0  0  0  0  0  0  0  0  0
    0.8644   -1.1536   -3.3265 H   0  0  0  0  0  0  0  0  0  0  0  0
    0.5507   -0.2729    0.7789 C   0  0  0  0  0  0  0  0  0  0  0  0
    1.7678   -0.1820    0.8688 O   0  0  0  0  0  0  0  0  0  0  0  0
   -0.2378    0.1447    1.8370 N   0  0  0  0  0  0  0  0  0  0  0  0
   -1.2369   -0.0051    1.7483 H   0  0  0  0  0  0  0  0  0  0  0  0
    0.3082    0.5136    3.1368 C   0  0  0  0  0  0  0  0  0  0  0  0
    1.0235    1.3364    3.0331 H   0  0  0  0  0  0  0  0  0  0  0  0
   -0.4944    0.8381    3.8058 H   0  0  0  0  0  0  0  0  0  0  0  0
    0.8182   -0.3412    3.5932 H   0  0  0  0  0  0  0  0  0  0  0  0
  1  2  1  0  0  0  0
  2  3  1  0  0  0  0
  2  4  1  0  0  0  0
  2  5  1  0  0  0  0
  5  6  2  0  0  0  0
  5  7  1  0  0  0  0
  7  8  1  0  0  0  0
  7  9  1  0  0  0  0
  9 10  1  0  0  0  0
  9 11  1  0  0  0  0
  9 22  1  0  0  0  0
 11 12  1  0  0  0  0
 11 13  1  0  0  0  0
 11 14  1  0  0  0  0
 14 15  1  0  0  0  0
 14 20  2  0  0  0  0
 15 16  2  0  0  0  0
 16 17  1  0  0  0  0
 16 18  1  0  0  0  0
 18 19  1  0  0  0  0
 18 20  1  0  0  0  0
 20 21  1  0  0  0  0
 22 23  2  0  0  0  0
 22 24  1  0  0  0  0
 24 25  1  0  0  0  0
 24 26  1  0  0  0  0
 26 27  1  0  0  0  0
 26 28  1  0  0  0  0
 26 29  1  0  0  0  0
M  END
$$$$

  -OEChem-04042215593D

 29 29  0     1  0  0  0  0  0999 V2000
   -2.4757   -4.4701    0.4798 H   0  0  0  0  0  0  0  0  0  0  0  0
   -2.6410   -3.4809    0.0429 C   0  0  0  0  0  0  0  0  0  0  0  0
   -3.3951   -2.9570    0.6350 H   0  0  0  0  0  0  0  0  0  0  0  0
   -3.0091   -3.6061   -0.9783 H   0  0  0  0  0  0  0  0  0  0  0  0
   -1.3452   -2.6918    0.0363 C   0  0  0  0  0  0  0  0  0  0  0  0
   -0.3347   -3.1829    0.5035 O   0  0  0  0  0  0  0  0  0  0  0  0
   -1.3174   -1.4228   -0.5072 N   0  0  0  0  0  0  0  0  0  0  0  0
   -2.1761   -1.0855   -0.9304 H   0  0  0  0  0  0  0  0  0  0  0  0
   -0.1070   -0.5834   -0.5992 C   0  0  1  0  0  0  0  0  0  0  0  0
    0.6461   -1.1496   -1.1575 H   0  0  0  0  0  0  0  0  0  0  0  0
   -0.4651    0.7135   -1.3638 C   0  0  0  0  0  0  0  0  0  0  0  0
   -1.5249    0.7363   -1.6297 H   0  0  0  0  0  0  0  0  0  0  0  0
   -0.2807    1.5797   -0.7196 H   0  0  0  0  0  0  0  0  0  0  0  0
    0.3396    0.8974   -2.6199 C   0  0  0  0  0  0  0  0  0  0  0  0
    0.9173    2.1106   -2.9664 N   0  0  0  0  0  0  0  0  0  0  0  0
    1.5743    1.9080   -4.0829 C   0  0  0  0  0  0  0  0  0  0  0  0
    2.1472    2.6645   -4.6117 H   0  0  0  0  0  0  0  0  0  0  0  0
    1.4272    0.5940   -4.4853 N   0  0  0  0  0  0  0  0  0  0  0  0
    1.8609    0.1800   -5.3085 H   0  0  0  0  0  0  0  0  0  0  0  0
    0.6426   -0.0549   -3.5557 C   0  0  0  0  0  0  0  0  0  0  0  0
    0.3424   -1.0984   -3.5438 H   0  0  0  0  0  0  0  0  0  0  0  0
    0.5487   -0.2526    0.7617 C   0  0  0  0  0  0  0  0  0  0  0  0
    1.7658   -0.1628    0.8498 O   0  0  0  0  0  0  0  0  0  0  0  0
   -0.2370    0.1427    1.8305 N   0  0  0  0  0  0  0  0  0  0  0  0
   -1.2357   -0.0090    1.7428 H   0  0  0  0  0  0  0  0  0  0  0  0
    0.3129    0.4877    3.1352 C   0  0  0  0  0  0  0  0  0  0  0  0
    1.0239    1.3158    3.0449 H   0  0  0  0  0  0  0  0  0  0  0  0
   -0.4880    0.7952    3.8141 H   0  0  0  0  0  0  0  0  0  0  0  0
    0.8284   -0.3739    3.5722 H   0  0  0  0  0  0  0  0  0  0  0  0
  1  2  1  0  0  0  0
  2  3  1  0  0  0  0
  2  4  1  0  0  0  0
  2  5  1  0  0  0  0
  5  6  2  0  0  0  0
  5  7  1  0  0  0  0
  7  8  1  0  0  0  0
  7  9  1  0  0  0  0
  9 10  1  0  0  0  0
  9 11  1  0  0  0  0
  9 22  1  0  0  0  0
 11 12  1  0  0  0  0
 11 13  1  0  0  0  0
 11 14  1  0  0  0  0
 14 15  1  0  0  0  0
 14 20  2  0  0  0  0
 15 16  2  0  0  0  0
 16 17  1  0  0  0  0
 16 18  1  0  0  0  0
 18 19  1  0  0  0  0
 18 20  1  0  0  0  0
 20 21  1  0  0  0  0
 22 23  2  0  0  0  0
 22 24  1  0  0  0  0
 24 25  1  0  0  0  0
 24 26  1  0  0  0  0
 26 27  1  0  0  0  0
 26 28  1  0  0  0  0
 26 29  1  0  0  0  0
M  END
$$$$

  -OEChem-04042215593D

 29 29  0     1  0  0  0  0  0999 V2000
   -2.4506   -4.4698    0.4558 H   0  0  0  0  0  0  0  0  0  0  0  0
   -2.6251   -3.4787    0.0272 C   0  0  0  0  0  0  0  0  0  0  0  0
   -3.3785   -2.9639    0.6280 H   0  0  0  0  0  0  0  0  0  0  0  0
   -2.9992   -3.5989   -0.9924 H   0  0  0  0  0  0  0  0  0  0  0  0
   -1.3341   -2.6818    0.0177 C   0  0  0  0  0  0  0  0  0  0  0  0
   -0.3177   -3.1711    0.4736 O   0  0  0  0  0  0  0  0  0  0  0  0
   -1.3190   -1.4079   -0.5146 N   0  0  0  0  0  0  0  0  0  0  0  0
   -2.1857   -1.0694   -0.9198 H   0  0  0  0  0  0  0  0  0  0  0  0
   -0.1155   -0.5583   -0.6070 C   0  0  1  0  0  0  0  0  0  0  0  0
    0.6368   -1.1117   -1.1808 H   0  0  0  0  0  0  0  0  0  0  0  0
   -0.4886    0.7388   -1.3607 C   0  0  0  0  0  0  0  0  0  0  0  0
   -1.5474    0.7470   -1.6316 H   0  0  0  0  0  0  0  0  0  0  0  0
   -0.3157    1.6086   -0.7183 H   0  0  0  0  0  0  0  0  0  0  0  0
    0.3214    0.9115   -2.6122 C   0  0  0  0  0  0  0  0  0  0  0  0
    1.1518    1.9984   -2.8403 N   0  0  0  0  0  0  0  0  0  0  0  0
    1.7250    1.7928   -4.0013 C   0  0  0  0  0  0  0  0  0  0  0  0
    2.4446    2.4617   -4.4645 H   0  0  0  0  0  0  0  0  0  0  0  0
    1.2767    0.6035   -4.5452 N   0  0  0  0  0  0  0  0  0  0  0  0
    1.5897    0.2088   -5.4301 H   0  0  0  0  0  0  0  0  0  0  0  0
    0.3825    0.0364   -3.6619 C   0  0  0  0  0  0  0  0  0  0  0  0
   -0.1446   -0.9083   -3.7526 H   0  0  0  0  0  0  0  0  0  0  0  0
    0.5471   -0.2340    0.7524 C   0  0  0  0  0  0  0  0  0  0  0  0
    1.7645   -0.1466    0.8386 O   0  0  0  0  0  0  0  0  0  0  0  0
   -0.2346    0.1461    1.8297 N   0  0  0  0  0  0  0  0  0  0  0  0
   -1.2329   -0.0107    1.7462 H   0  0  0  0  0  0  0  0  0  0  0  0
    0.3218    0.4743    3.1361 C   0  0  0  0  0  0  0  0  0  0  0  0
    1.0239    1.3108    3.0546 H   0  0  0  0  0  0  0  0  0  0  0  0
   -0.4768    0.7615    3.8263 H   0  0  0  0  0  0  0  0  0  0  0  0
    0.8494   -0.3891    3.5547 H   0  0  0  0  0  0  0  0  0  0  0  0
  1  2  1  0  0  0  0
  2  3  1  0  0  0  0
  2  4  1  0  0  0  0
  2  5  1  0  0  0  0
  5  6  2  0  0  0  0
  5  7  1  0  0  0  0
  7  8  1  0  0  0  0
  7  9  1  0  0  0  0
  9 10  1  0  0  0  0
  9 11  1  0  0  0  0
  9 22  1  0  0  0  0
 11 12  1  0  0  0  0
 11 13  1  0  0  0  0
 11 14  1  0  0  0  0
 14 15  1  0  0  0  0
 14 20  2  0  0  0  0
 15 16  2  0  0  0  0
 16 17  1  0  0  0  0
 16 18  1  0  0  0  0
 18 19  1  0  0  0  0
 18 20  1  0  0  0  0
 20 21  1  0  0  0  0
 22 23  2  0  0  0  0
 22 24  1  0  0  0  0
 24 25  1  0  0  0  0
 24 26  1  0  0  0  0
 26 27  1  0  0  0  0
 26 28  1  0  0  0  0
 26 29  1  0  0  0  0
M  END
$$$$

  -OEChem-04042215593D

 29 29  0     1  0  0  0  0  0999 V2000
   -2.4342   -4.4689    0.4550 H   0  0  0  0  0  0  0  0  0  0  0  0
   -2.6126   -3.4775    0.0287 C   0  0  0  0  0  0  0  0  0  0  0  0
   -3.3662   -2.9666    0.6324 H   0  0  0  0  0  0  0  0  0  0  0  0
   -2.9886   -3.5965   -0.9901 H   0  0  0  0  0  0  0  0  0  0  0  0
   -1.3244   -2.6760    0.0180 C   0  0  0  0  0  0  0  0  0  0  0  0
   -0.3089   -3.1594    0.4819 O   0  0  0  0  0  0  0  0  0  0  0  0
   -1.3149   -1.4020   -0.5152 N   0  0  0  0  0  0  0  0  0  0  0  0
   -2.1804   -1.0728   -0.9297 H   0  0  0  0  0  0  0  0  0  0  0  0
   -0.1146   -0.5473   -0.6115 C   0  0  1  0  0  0  0  0  0  0  0  0
    0.6380   -1.0941   -1.1921 H   0  0  0  0  0  0  0  0  0  0  0  0
   -0.4952    0.7506   -1.3601 C   0  0  0  0  0  0  0  0  0  0  0  0
   -1.5540    0.7483   -1.6316 H   0  0  0  0  0  0  0  0  0  0  0  0
   -0.3289    1.6253   -0.7224 H   0  0  0  0  0  0  0  0  0  0  0  0
    0.3175    0.9120   -2.6099 C   0  0  0  0  0  0  0  0  0  0  0  0
    1.3658    1.8103   -2.7340 N   0  0  0  0  0  0  0  0  0  0  0  0
    1.8525    1.6517   -3.9406 C   0  0  0  0  0  0  0  0  0  0  0  0
    2.6943    2.2047   -4.3473 H   0  0  0  0  0  0  0  0  0  0  0  0
    1.1334    0.6821   -4.6152 N   0  0  0  0  0  0  0  0  0  0  0  0
    1.3268    0.3621   -5.5624 H   0  0  0  0  0  0  0  0  0  0  0  0
    0.1507    0.2088   -3.7709 C   0  0  0  0  0  0  0  0  0  0  0  0
   -0.5846   -0.5662   -3.9629 H   0  0  0  0  0  0  0  0  0  0  0  0
    0.5474   -0.2218    0.7483 C   0  0  0  0  0  0  0  0  0  0  0  0
    1.7648   -0.1459    0.8421 O   0  0  0  0  0  0  0  0  0  0  0  0
   -0.2367    0.1543    1.8256 N   0  0  0  0  0  0  0  0  0  0  0  0
   -1.2334   -0.0117    1.7413 H   0  0  0  0  0  0  0  0  0  0  0  0
    0.3173    0.4620    3.1380 C   0  0  0  0  0  0  0  0  0  0  0  0
    1.0400    1.2818    3.0668 H   0  0  0  0  0  0  0  0  0  0  0  0
   -0.4795    0.7654    3.8235 H   0  0  0  0  0  0  0  0  0  0  0  0
    0.8208   -0.4165    3.5551 H   0  0  0  0  0  0  0  0  0  0  0  0
  1  2  1  0  0  0  0
  2  3  1  0  0  0  0
  2  4  1  0  0  0  0
  2  5  1  0  0  0  0
  5  6  2  0  0  0  0
  5  7  1  0  0  0  0
  7  8  1  0  0  0  0
  7  9  1  0  0  0  0
  9 10  1  0  0  0  0
  9 11  1  0  0  0  0
  9 22  1  0  0  0  0
 11 12  1  0  0  0  0
 11 13  1  0  0  0  0
 11 14  1  0  0  0  0
 14 15  1  0  0  0  0
 14 20  2  0  0  0  0
 15 16  2  0  0  0  0
 16 17  1  0  0  0  0
 16 18  1  0  0  0  0
 18 19  1  0  0  0  0
 18 20  1  0  0  0  0
 20 21  1  0  0  0  0
 22 23  2  0  0  0  0
 22 24  1  0  0  0  0
 24 25  1  0  0  0  0
 24 26  1  0  0  0  0
 26 27  1  0  0  0  0
 26 28  1  0  0  0  0
 26 29  1  0  0  0  0
M  END
$$$$

  -OEChem-04042215593D

 29 29  0     1  0  0  0  0  0999 V2000
   -2.4379   -4.4766    0.4367 H   0  0  0  0  0  0  0  0  0  0  0  0
   -2.6137   -3.4847    0.0104 C   0  0  0  0  0  0  0  0  0  0  0  0
   -3.3881   -2.9837    0.5959 H   0  0  0  0  0  0  0  0  0  0  0  0
   -2.9607   -3.6019   -1.0189 H   0  0  0  0  0  0  0  0  0  0  0  0
   -1.3326   -2.6720    0.0384 C   0  0  0  0  0  0  0  0  0  0  0  0
   -0.3295   -3.1447    0.5387 O   0  0  0  0  0  0  0  0  0  0  0  0
   -1.3180   -1.4009   -0.5018 N   0  0  0  0  0  0  0  0  0  0  0  0
   -2.1680   -1.0928   -0.9615 H   0  0  0  0  0  0  0  0  0  0  0  0
   -0.1141   -0.5514   -0.6049 C   0  0  1  0  0  0  0  0  0  0  0  0
    0.6350   -1.1007   -1.1878 H   0  0  0  0  0  0  0  0  0  0  0  0
   -0.4956    0.7454   -1.3549 C   0  0  0  0  0  0  0  0  0  0  0  0
   -1.5563    0.7426   -1.6191 H   0  0  0  0  0  0  0  0  0  0  0  0
   -0.3235    1.6227   -0.7228 H   0  0  0  0  0  0  0  0  0  0  0  0
    0.3130    0.8972   -2.6085 C   0  0  0  0  0  0  0  0  0  0  0  0
    1.5323    1.5529   -2.6613 N   0  0  0  0  0  0  0  0  0  0  0  0
    1.9425    1.4832   -3.9038 C   0  0  0  0  0  0  0  0  0  0  0  0
    2.8766    1.8974   -4.2729 H   0  0  0  0  0  0  0  0  0  0  0  0
    1.0083    0.8104   -4.6698 N   0  0  0  0  0  0  0  0  0  0  0  0
    1.0976    0.6166   -5.6655 H   0  0  0  0  0  0  0  0  0  0  0  0
   -0.0367    0.4397   -3.8488 C   0  0  0  0  0  0  0  0  0  0  0  0
   -0.9367   -0.1063   -4.1127 H   0  0  0  0  0  0  0  0  0  0  0  0
    0.5519   -0.2209    0.7522 C   0  0  0  0  0  0  0  0  0  0  0  0
    1.7696   -0.1524    0.8478 O   0  0  0  0  0  0  0  0  0  0  0  0
   -0.2297    0.1644    1.8283 N   0  0  0  0  0  0  0  0  0  0  0  0
   -1.2263   -0.0029    1.7469 H   0  0  0  0  0  0  0  0  0  0  0  0
    0.3283    0.4734    3.1386 C   0  0  0  0  0  0  0  0  0  0  0  0
    1.0363    1.3059    3.0669 H   0  0  0  0  0  0  0  0  0  0  0  0
   -0.4686    0.7578    3.8319 H   0  0  0  0  0  0  0  0  0  0  0  0
    0.8497   -0.3990    3.5464 H   0  0  0  0  0  0  0  0  0  0  0  0
  1  2  1  0  0  0  0
  2  3  1  0  0  0  0
  2  4  1  0  0  0  0
  2  5  1  0  0  0  0
  5  6  2  0  0  0  0
  5  7  1  0  0  0  0
  7  8  1  0  0  0  0
  7  9  1  0  0  0  0
  9 10  1  0  0  0  0
  9 11  1  0  0  0  0
  9 22  1  0  0  0  0
 11 12  1  0  0  0  0
 11 13  1  0  0  0  0
 11 14  1  0  0  0  0
 14 15  1  0  0  0  0
 14 20  2  0  0  0  0
 15 16  2  0  0  0  0
 16 17  1  0  0  0  0
 16 18  1  0  0  0  0
 18 19  1  0  0  0  0
 18 20  1  0  0  0  0
 20 21  1  0  0  0  0
 22 23  2  0  0  0  0
 22 24  1  0  0  0  0
 24 25  1  0  0  0  0
 24 26  1  0  0  0  0
 26 27  1  0  0  0  0
 26 28  1  0  0  0  0
 26 29  1  0  0  0  0
M  END
$$$$

  -OEChem-04042215593D

 29 29  0     1  0  0  0  0  0999 V2000
   -2.4345   -4.4818    0.4229 H   0  0  0  0  0  0  0  0  0  0  0  0
   -2.6101   -3.4893   -0.0022 C   0  0  0  0  0  0  0  0  0  0  0  0
   -3.4040   -2.9990    0.5661 H   0  0  0  0  0  0  0  0  0  0  0  0
   -2.9301   -3.6053   -1.0404 H   0  0  0  0  0  0  0  0  0  0  0  0
   -1.3389   -2.6631    0.0623 C   0  0  0  0  0  0  0  0  0  0  0  0
   -0.3495   -3.1220    0.6012 O   0  0  0  0  0  0  0  0  0  0  0  0
   -1.3198   -1.3963   -0.4881 N   0  0  0  0  0  0  0  0  0  0  0  0
   -2.1500   -1.1154   -0.9984 H   0  0  0  0  0  0  0  0  0  0  0  0
   -0.1111   -0.5539   -0.6016 C   0  0  1  0  0  0  0  0  0  0  0  0
    0.6345   -1.1068   -1.1860 H   0  0  0  0  0  0  0  0  0  0  0  0
   -0.4941    0.7439   -1.3507 C   0  0  0  0  0  0  0  0  0  0  0  0
   -1.5589    0.7502   -1.5974 H   0  0  0  0  0  0  0  0  0  0  0  0
   -0.3040    1.6195   -0.7217 H   0  0  0  0  0  0  0  0  0  0  0  0
    0.3020    0.8932   -2.6135 C   0  0  0  0  0  0  0  0  0  0  0  0
    1.6350    1.2681   -2.6438 N   0  0  0  0  0  0  0  0  0  0  0  0
    1.9902    1.2999   -3.9044 C   0  0  0  0  0  0  0  0  0  0  0  0
    2.9833    1.5551   -4.2632 H   0  0  0  0  0  0  0  0  0  0  0  0
    0.9125    0.9655   -4.7033 N   0  0  0  0  0  0  0  0  0  0  0  0
    0.9307    0.9163   -5.7202 H   0  0  0  0  0  0  0  0  0  0  0  0
   -0.1688    0.7114   -3.8848 C   0  0  0  0  0  0  0  0  0  0  0  0
   -1.1750    0.4245   -4.1731 H   0  0  0  0  0  0  0  0  0  0  0  0
    0.5570   -0.2198    0.7545 C   0  0  0  0  0  0  0  0  0  0  0  0
    1.7747   -0.1567    0.8544 O   0  0  0  0  0  0  0  0  0  0  0  0
   -0.2256    0.1755    1.8262 N   0  0  0  0  0  0  0  0  0  0  0  0
   -1.2206   -0.0008    1.7447 H   0  0  0  0  0  0  0  0  0  0  0  0
    0.3299    0.4738    3.1400 C   0  0  0  0  0  0  0  0  0  0  0  0
    1.0482    1.2979    3.0745 H   0  0  0  0  0  0  0  0  0  0  0  0
   -0.4667    0.7660    3.8304 H   0  0  0  0  0  0  0  0  0  0  0  0
    0.8394   -0.4055    3.5480 H   0  0  0  0  0  0  0  0  0  0  0  0
  1  2  1  0  0  0  0
  2  3  1  0  0  0  0
  2  4  1  0  0  0  0
  2  5  1  0  0  0  0
  5  6  2  0  0  0  0
  5  7  1  0  0  0  0
  7  8  1  0  0  0  0
  7  9  1  0  0  0  0
  9 10  1  0  0  0  0
  9 11  1  0  0  0  0
  9 22  1  0  0  0  0
 11 12  1  0  0  0  0
 11 13  1  0  0  0  0
 11 14  1  0  0  0  0
 14 15  1  0  0  0  0
 14 20  2  0  0  0  0
 15 16  2  0  0  0  0
 16 17  1  0  0  0  0
 16 18  1  0  0  0  0
 18 19  1  0  0  0  0
 18 20  1  0  0  0  0
 20 21  1  0  0  0  0
 22 23  2  0  0  0  0
 22 24  1  0  0  0  0
 24 25  1  0  0  0  0
 24 26  1  0  0  0  0
 26 27  1  0  0  0  0
 26 28  1  0  0  0  0
 26 29  1  0  0  0  0
M  END
$$$$

  -OEChem-04042215593D

 29 29  0     1  0  0  0  0  0999 V2000
   -2.4313   -4.4762    0.4283 H   0  0  0  0  0  0  0  0  0  0  0  0
   -2.6037   -3.4865   -0.0045 C   0  0  0  0  0  0  0  0  0  0  0  0
   -3.4080   -2.9962    0.5488 H   0  0  0  0  0  0  0  0  0  0  0  0
   -2.9072   -3.6086   -1.0469 H   0  0  0  0  0  0  0  0  0  0  0  0
   -1.3367   -2.6555    0.0752 C   0  0  0  0  0  0  0  0  0  0  0  0
   -0.3559   -3.1066    0.6358 O   0  0  0  0  0  0  0  0  0  0  0  0
   -1.3148   -1.3919   -0.4824 N   0  0  0  0  0  0  0  0  0  0  0  0
   -2.1303   -1.1293   -1.0252 H   0  0  0  0  0  0  0  0  0  0  0  0
   -0.1023   -0.5557   -0.6014 C   0  0  1  0  0  0  0  0  0  0  0  0
    0.6412   -1.1112   -1.1855 H   0  0  0  0  0  0  0  0  0  0  0  0
   -0.4854    0.7452   -1.3478 C   0  0  0  0  0  0  0  0  0  0  0  0
   -1.5540    0.7643   -1.5769 H   0  0  0  0  0  0  0  0  0  0  0  0
   -0.2758    1.6151   -0.7171 H   0  0  0  0  0  0  0  0  0  0  0  0
    0.2975    0.9026   -2.6193 C   0  0  0  0  0  0  0  0  0  0  0  0
    1.6793    0.9826   -2.6808 N   0  0  0  0  0  0  0  0  0  0  0  0
    1.9960    1.1196   -3.9445 C   0  0  0  0  0  0  0  0  0  0  0  0
    3.0098    1.2078   -4.3245 H   0  0  0  0  0  0  0  0  0  0  0  0
    0.8483    1.1364   -4.7153 N   0  0  0  0  0  0  0  0  0  0  0  0
    0.8246    1.2350   -5.7286 H   0  0  0  0  0  0  0  0  0  0  0  0
   -0.2374    1.0016   -3.8745 C   0  0  0  0  0  0  0  0  0  0  0  0
   -1.2901    0.9787   -4.1383 H   0  0  0  0  0  0  0  0  0  0  0  0
    0.5621   -0.2224    0.7578 C   0  0  0  0  0  0  0  0  0  0  0  0
    1.7790   -0.1545    0.8652 O   0  0  0  0  0  0  0  0  0  0  0  0
   -0.2276    0.1780    1.8229 N   0  0  0  0  0  0  0  0  0  0  0  0
   -1.2198   -0.0122    1.7366 H   0  0  0  0  0  0  0  0  0  0  0  0
    0.3168    0.4646    3.1443 C   0  0  0  0  0  0  0  0  0  0  0  0
    1.0669    1.2604    3.0869 H   0  0  0  0  0  0  0  0  0  0  0  0
   -0.4804    0.7927    3.8180 H   0  0  0  0  0  0  0  0  0  0  0  0
    0.7848   -0.4306    3.5672 H   0  0  0  0  0  0  0  0  0  0  0  0
  1  2  1  0  0  0  0
  2  3  1  0  0  0  0
  2  4  1  0  0  0  0
  2  5  1  0  0  0  0
  5  6  2  0  0  0  0
  5  7  1  0  0  0  0
  7  8  1  0  0  0  0
  7  9  1  0  0  0  0
  9 10  1  0  0  0  0
  9 11  1  0  0  0  0
  9 22  1  0  0  0  0
 11 12  1  0  0  0  0
 11 13  1  0  0  0  0
 11 14  1  0  0  0  0
 14 15  1  0  0  0  0
 14 20  2  0  0  0  0
 15 16  2  0  0  0  0
 16 17  1  0  0  0  0
 16 18  1  0  0  0  0
 18 19  1  0  0  0  0
 18 20  1  0  0  0  0
 20 21  1  0  0  0  0
 22 23  2  0  0  0  0
 22 24  1  0  0  0  0
 24 25  1  0  0  0  0
 24 26  1  0  0  0  0
 26 27  1  0  0  0  0
 26 28  1  0  0  0  0
 26 29  1  0  0  0  0
M  END
$$$$

  -OEChem-04042215593D

 29 29  0     1  0  0  0  0  0999 V2000
   -2.4363   -4.4877    0.3844 H   0  0  0  0  0  0  0  0  0  0  0  0
   -2.6073   -3.4935   -0.0387 C   0  0  0  0  0  0  0  0  0  0  0  0
   -3.4355   -3.0213    0.4950 H   0  0  0  0  0  0  0  0  0  0  0  0
   -2.8747   -3.6034   -1.0925 H   0  0  0  0  0  0  0  0  0  0  0  0
   -1.3546   -2.6482    0.0955 C   0  0  0  0  0  0  0  0  0  0  0  0
   -0.3989   -3.0838    0.7096 O   0  0  0  0  0  0  0  0  0  0  0  0
   -1.3214   -1.3881   -0.4697 N   0  0  0  0  0  0  0  0  0  0  0  0
   -2.1065   -1.1541   -1.0676 H   0  0  0  0  0  0  0  0  0  0  0  0
   -0.0998   -0.5654   -0.5902 C   0  0  1  0  0  0  0  0  0  0  0  0
    0.6371   -1.1319   -1.1713 H   0  0  0  0  0  0  0  0  0  0  0  0
   -0.4719    0.7409   -1.3352 C   0  0  0  0  0  0  0  0  0  0  0  0
   -1.5427    0.7767   -1.5522 H   0  0  0  0  0  0  0  0  0  0  0  0
   -0.2449    1.6035   -0.7006 H   0  0  0  0  0  0  0  0  0  0  0  0
    0.3003    0.9091   -2.6138 C   0  0  0  0  0  0  0  0  0  0  0  0
    1.6629    0.6956   -2.7552 N   0  0  0  0  0  0  0  0  0  0  0  0
    1.9603    0.9418   -4.0068 C   0  0  0  0  0  0  0  0  0  0  0  0
    2.9557    0.8657   -4.4351 H   0  0  0  0  0  0  0  0  0  0  0  0
    0.8191    1.3101   -4.6940 N   0  0  0  0  0  0  0  0  0  0  0  0
    0.7843    1.5578   -5.6810 H   0  0  0  0  0  0  0  0  0  0  0  0
   -0.2407    1.2905   -3.8110 C   0  0  0  0  0  0  0  0  0  0  0  0
   -1.2810    1.5293   -4.0084 H   0  0  0  0  0  0  0  0  0  0  0  0
    0.5659   -0.2312    0.7680 C   0  0  0  0  0  0  0  0  0  0  0  0
    1.7826   -0.1505    0.8711 O   0  0  0  0  0  0  0  0  0  0  0  0
   -0.2234    0.1832    1.8278 N   0  0  0  0  0  0  0  0  0  0  0  0
   -1.2132   -0.0228    1.7477 H   0  0  0  0  0  0  0  0  0  0  0  0
    0.3232    0.4824    3.1452 C   0  0  0  0  0  0  0  0  0  0  0  0
    1.0596    1.2903    3.0807 H   0  0  0  0  0  0  0  0  0  0  0  0
   -0.4753    0.7986    3.8229 H   0  0  0  0  0  0  0  0  0  0  0  0
    0.8087   -0.4037    3.5675 H   0  0  0  0  0  0  0  0  0  0  0  0
  1  2  1  0  0  0  0
  2  3  1  0  0  0  0
  2  4  1  0  0  0  0
  2  5  1  0  0  0  0
  5  6  2  0  0  0  0
  5  7  1  0  0  0  0
  7  8  1  0  0  0  0
  7  9  1  0  0  0  0
  9 10  1  0  0  0  0
  9 11  1  0  0  0  0
  9 22  1  0  0  0  0
 11 12  1  0  0  0  0
 11 13  1  0  0  0  0
 11 14  1  0  0  0  0
 14 15  1  0  0  0  0
 14 20  2  0  0  0  0
 15 16  2  0  0  0  0
 16 17  1  0  0  0  0
 16 18  1  0  0  0  0
 18 19  1  0  0  0  0
 18 20  1  0  0  0  0
 20 21  1  0  0  0  0
 22 23  2  0  0  0  0
 22 24  1  0  0  0  0
 24 25  1  0  0  0  0
 24 26  1  0  0  0  0
 26 27  1  0  0  0  0
 26 28  1  0  0  0  0
 26 29  1  0  0  0  0
M  END
$$$$

  -OEChem-04042215593D

 29 29  0     1  0  0  0  0  0999 V2000
   -2.4631   -4.4877    0.3937 H   0  0  0  0  0  0  0  0  0  0  0  0
   -2.6187   -3.5031   -0.0569 C   0  0  0  0  0  0  0  0  0  0  0  0
   -3.4690   -3.0227    0.4329 H   0  0  0  0  0  0  0  0  0  0  0  0
   -2.8434   -3.6358   -1.1179 H   0  0  0  0  0  0  0  0  0  0  0  0
   -1.3736   -2.6514    0.1083 C   0  0  0  0  0  0  0  0  0  0  0  0
   -0.4341   -3.0797    0.7520 O   0  0  0  0  0  0  0  0  0  0  0  0
   -1.3305   -1.3937   -0.4613 N   0  0  0  0  0  0  0  0  0  0  0  0
   -2.0995   -1.1703   -1.0838 H   0  0  0  0  0  0  0  0  0  0  0  0
   -0.1017   -0.5814   -0.5797 C   0  0  1  0  0  0  0  0  0  0  0  0
    0.6297   -1.1623   -1.1525 H   0  0  0  0  0  0  0  0  0  0  0  0
   -0.4578    0.7270   -1.3321 C   0  0  0  0  0  0  0  0  0  0  0  0
   -1.5282    0.7723   -1.5496 H   0  0  0  0  0  0  0  0  0  0  0  0
   -0.2261    1.5855   -0.6938 H   0  0  0  0  0  0  0  0  0  0  0  0
    0.3107    0.9081   -2.6140 C   0  0  0  0  0  0  0  0  0  0  0  0
    1.5893    0.4348   -2.8726 N   0  0  0  0  0  0  0  0  0  0  0  0
    1.8948    0.8006   -4.0927 C   0  0  0  0  0  0  0  0  0  0  0  0
    2.8374    0.5861   -4.5882 H   0  0  0  0  0  0  0  0  0  0  0  0
    0.8376    1.4941   -4.6503 N   0  0  0  0  0  0  0  0  0  0  0  0
    0.8268    1.8922   -5.5875 H   0  0  0  0  0  0  0  0  0  0  0  0
   -0.1732    1.5626   -3.7139 C   0  0  0  0  0  0  0  0  0  0  0  0
   -1.1440    2.0386   -3.8111 H   0  0  0  0  0  0  0  0  0  0  0  0
    0.5661   -0.2451    0.7773 C   0  0  0  0  0  0  0  0  0  0  0  0
    1.7821   -0.1422    0.8695 O   0  0  0  0  0  0  0  0  0  0  0  0
   -0.2197    0.1810    1.8351 N   0  0  0  0  0  0  0  0  0  0  0  0
   -1.2074   -0.0388    1.7661 H   0  0  0  0  0  0  0  0  0  0  0  0
    0.3323    0.5031    3.1449 C   0  0  0  0  0  0  0  0  0  0  0  0
    1.0620    1.3159    3.0650 H   0  0  0  0  0  0  0  0  0  0  0  0
   -0.4651    0.8225    3.8223 H   0  0  0  0  0  0  0  0  0  0  0  0
    0.8269   -0.3733    3.5771 H   0  0  0  0  0  0  0  0  0  0  0  0
  1  2  1  0  0  0  0
  2  3  1  0  0  0  0
  2  4  1  0  0  0  0
  2  5  1  0  0  0  0
  5  6  2  0  0  0  0
  5  7  1  0  0  0  0
  7  8  1  0  0  0  0
  7  9  1  0  0  0  0
  9 10  1  0  0  0  0
  9 11  1  0  0  0  0
  9 22  1  0  0  0  0
 11 12  1  0  0  0  0
 11 13  1  0  0  0  0
 11 14  1  0  0  0  0
 14 15  1  0  0  0  0
 14 20  2  0  0  0  0
 15 16  2  0  0  0  0
 16 17  1  0  0  0  0
 16 18  1  0  0  0  0
 18 19  1  0  0  0  0
 18 20  1  0  0  0  0
 20 21  1  0  0  0  0
 22 23  2  0  0  0  0
 22 24  1  0  0  0  0
 24 25  1  0  0  0  0
 24 26  1  0  0  0  0
 26 27  1  0  0  0  0
 26 28  1  0  0  0  0
 26 29  1  0  0  0  0
M  END
$$$$

  -OEChem-04042215593D

 29 29  0     1  0  0  0  0  0999 V2000
   -2.4896   -4.4798    0.4433 H   0  0  0  0  0  0  0  0  0  0  0  0
   -2.6268   -3.5160   -0.0553 C   0  0  0  0  0  0  0  0  0  0  0  0
   -3.4967   -3.0170    0.3780 H   0  0  0  0  0  0  0  0  0  0  0  0
   -2.8065   -3.6942   -1.1181 H   0  0  0  0  0  0  0  0  0  0  0  0
   -1.3903   -2.6553    0.1248 C   0  0  0  0  0  0  0  0  0  0  0  0
   -0.4634   -3.0686    0.7964 O   0  0  0  0  0  0  0  0  0  0  0  0
   -1.3442   -1.4019   -0.4542 N   0  0  0  0  0  0  0  0  0  0  0  0
   -2.0952   -1.1992   -1.1052 H   0  0  0  0  0  0  0  0  0  0  0  0
   -0.1102   -0.5984   -0.5783 C   0  0  1  0  0  0  0  0  0  0  0  0
    0.6153   -1.1923   -1.1441 H   0  0  0  0  0  0  0  0  0  0  0  0
   -0.4523    0.7130   -1.3346 C   0  0  0  0  0  0  0  0  0  0  0  0
   -1.5221    0.7596   -1.5551 H   0  0  0  0  0  0  0  0  0  0  0  0
   -0.2221    1.5713   -0.6953 H   0  0  0  0  0  0  0  0  0  0  0  0
    0.3095    0.8993   -2.6209 C   0  0  0  0  0  0  0  0  0  0  0  0
    1.4415    0.2032   -3.0243 N   0  0  0  0  0  0  0  0  0  0  0  0
    1.7936    0.6840   -4.1909 C   0  0  0  0  0  0  0  0  0  0  0  0
    2.6519    0.3503   -4.7673 H   0  0  0  0  0  0  0  0  0  0  0  0
    0.9082    1.6730   -4.5739 N   0  0  0  0  0  0  0  0  0  0  0  0
    0.9690    2.2130   -5.4350 H   0  0  0  0  0  0  0  0  0  0  0  0
   -0.0371    1.8126   -3.5791 C   0  0  0  0  0  0  0  0  0  0  0  0
   -0.8729    2.5047   -3.5429 H   0  0  0  0  0  0  0  0  0  0  0  0
    0.5631   -0.2559    0.7739 C   0  0  0  0  0  0  0  0  0  0  0  0
    1.7787   -0.1345    0.8526 O   0  0  0  0  0  0  0  0  0  0  0  0
   -0.2183    0.1828    1.8296 N   0  0  0  0  0  0  0  0  0  0  0  0
   -1.2034   -0.0522    1.7711 H   0  0  0  0  0  0  0  0  0  0  0  0
    0.3401    0.5204    3.1327 C   0  0  0  0  0  0  0  0  0  0  0  0
    1.0609    1.3396    3.0407 H   0  0  0  0  0  0  0  0  0  0  0  0
   -0.4550    0.8368    3.8143 H   0  0  0  0  0  0  0  0  0  0  0  0
    0.8468   -0.3477    3.5674 H   0  0  0  0  0  0  0  0  0  0  0  0
  1  2  1  0  0  0  0
  2  3  1  0  0  0  0
  2  4  1  0  0  0  0
  2  5  1  0  0  0  0
  5  6  2  0  0  0  0
  5  7  1  0  0  0  0
  7  8  1  0  0  0  0
  7  9  1  0  0  0  0
  9 10  1  0  0  0  0
  9 11  1  0  0  0  0
  9 22  1  0  0  0  0
 11 12  1  0  0  0  0
 11 13  1  0  0  0  0
 11 14  1  0  0  0  0
 14 15  1  0  0  0  0
 14 20  2  0  0  0  0
 15 16  2  0  0  0  0
 16 17  1  0  0  0  0
 16 18  1  0  0  0  0
 18 19  1  0  0  0  0
 18 20  1  0  0  0  0
 20 21  1  0  0  0  0
 22 23  2  0  0  0  0
 22 24  1  0  0  0  0
 24 25  1  0  0  0  0
 24 26  1  0  0  0  0
 26 27  1  0  0  0  0
 26 28  1  0  0  0  0
 26 29  1  0  0  0  0
M  END
$$$$

  -OEChem-04042215593D

 29 29  0     1  0  0  0  0  0999 V2000
   -2.4853   -4.4946    0.4384 H   0  0  0  0  0  0  0  0  0  0  0  0
   -2.6283   -3.5299   -0.0571 C   0  0  0  0  0  0  0  0  0  0  0  0
   -3.5074   -3.0415    0.3702 H   0  0  0  0  0  0  0  0  0  0  0  0
   -2.7973   -3.7055   -1.1222 H   0  0  0  0  0  0  0  0  0  0  0  0
   -1.4030   -2.6566    0.1377 C   0  0  0  0  0  0  0  0  0  0  0  0
   -0.4837   -3.0563    0.8280 O   0  0  0  0  0  0  0  0  0  0  0  0
   -1.3605   -1.4056   -0.4468 N   0  0  0  0  0  0  0  0  0  0  0  0
   -2.1007   -1.2205   -1.1155 H   0  0  0  0  0  0  0  0  0  0  0  0
   -0.1257   -0.6053   -0.5815 C   0  0  1  0  0  0  0  0  0  0  0  0
    0.5958   -1.2036   -1.1470 H   0  0  0  0  0  0  0  0  0  0  0  0
   -0.4652    0.7079   -1.3365 C   0  0  0  0  0  0  0  0  0  0  0  0
   -1.5345    0.7463   -1.5607 H   0  0  0  0  0  0  0  0  0  0  0  0
   -0.2447    1.5693   -0.6979 H   0  0  0  0  0  0  0  0  0  0  0  0
    0.2869    0.8944   -2.6288 C   0  0  0  0  0  0  0  0  0  0  0  0
    1.2206    0.0292   -3.1861 N   0  0  0  0  0  0  0  0  0  0  0  0
    1.6598    0.5942   -4.2838 C   0  0  0  0  0  0  0  0  0  0  0  0
    2.4091    0.1685   -4.9451 H   0  0  0  0  0  0  0  0  0  0  0  0
    1.0256    1.8070   -4.4712 N   0  0  0  0  0  0  0  0  0  0  0  0
    1.2033    2.4494   -5.2412 H   0  0  0  0  0  0  0  0  0  0  0  0
    0.1554    2.0031   -3.4194 C   0  0  0  0  0  0  0  0  0  0  0  0
   -0.4875    2.8579   -3.2332 H   0  0  0  0  0  0  0  0  0  0  0  0
    0.5581   -0.2582    0.7633 C   0  0  0  0  0  0  0  0  0  0  0  0
    1.7728   -0.1174    0.8230 O   0  0  0  0  0  0  0  0  0  0  0  0
   -0.2147    0.1865    1.8227 N   0  0  0  0  0  0  0  0  0  0  0  0
   -1.1961   -0.0678    1.7815 H   0  0  0  0  0  0  0  0  0  0  0  0
    0.3561    0.5410    3.1161 C   0  0  0  0  0  0  0  0  0  0  0  0
    1.0704    1.3640    3.0081 H   0  0  0  0  0  0  0  0  0  0  0  0
   -0.4338    0.8597    3.8028 H   0  0  0  0  0  0  0  0  0  0  0  0
    0.8724   -0.3194    3.5550 H   0  0  0  0  0  0  0  0  0  0  0  0
  1  2  1  0  0  0  0
  2  3  1  0  0  0  0
  2  4  1  0  0  0  0
  2  5  1  0  0  0  0
  5  6  2  0  0  0  0
  5  7  1  0  0  0  0
  7  8  1  0  0  0  0
  7  9  1  0  0  0  0
  9 10  1  0  0  0  0
  9 11  1  0  0  0  0
  9 22  1  0  0  0  0
 11 12  1  0  0  0  0
 11 13  1  0  0  0  0
 11 14  1  0  0  0  0
 14 15  1  0  0  0  0
 14 20  2  0  0  0  0
 15 16  2  0  0  0  0
 16 17  1  0  0  0  0
 16 18  1  0  0  0  0
 18 19  1  0  0  0  0
 18 20  1  0  0  0  0
 20 21  1  0  0  0  0
 22 23  2  0  0  0  0
 22 24  1  0  0  0  0
 24 25  1  0  0  0  0
 24 26  1  0  0  0  0
 26 27  1  0  0  0  0
 26 28  1  0  0  0  0
 26 29  1  0  0  0  0
M  END
$$$$

  -OEChem-04042215593D

 29 29  0     1  0  0  0  0  0999 V2000
   -2.4757   -4.4951    0.4456 H   0  0  0  0  0  0  0  0  0  0  0  0
   -2.6202   -3.5382   -0.0641 C   0  0  0  0  0  0  0  0  0  0  0  0
   -3.5074   -3.0509    0.3473 H   0  0  0  0  0  0  0  0  0  0  0  0
   -2.7763   -3.7288   -1.1287 H   0  0  0  0  0  0  0  0  0  0  0  0
   -1.4027   -2.6541    0.1317 C   0  0  0  0  0  0  0  0  0  0  0  0
   -0.4774   -3.0482    0.8176 O   0  0  0  0  0  0  0  0  0  0  0  0
   -1.3732   -1.4003   -0.4472 N   0  0  0  0  0  0  0  0  0  0  0  0
   -2.1131   -1.2231   -1.1186 H   0  0  0  0  0  0  0  0  0  0  0  0
   -0.1435   -0.5940   -0.5890 C   0  0  1  0  0  0  0  0  0  0  0  0
    0.5766   -1.1854   -1.1641 H   0  0  0  0  0  0  0  0  0  0  0  0
   -0.4914    0.7236   -1.3310 C   0  0  0  0  0  0  0  0  0  0  0  0
   -1.5601    0.7478   -1.5587 H   0  0  0  0  0  0  0  0  0  0  0  0
   -0.2845    1.5851   -0.6881 H   0  0  0  0  0  0  0  0  0  0  0  0
    0.2526    0.9131   -2.6268 C   0  0  0  0  0  0  0  0  0  0  0  0
    0.9493   -0.0616   -3.3317 N   0  0  0  0  0  0  0  0  0  0  0  0
    1.5005    0.5340   -4.3612 C   0  0  0  0  0  0  0  0  0  0  0  0
    2.1206    0.0418   -5.1051 H   0  0  0  0  0  0  0  0  0  0  0  0
    1.1733    1.8761   -4.3568 N   0  0  0  0  0  0  0  0  0  0  0  0
    1.4951    2.5611   -5.0381 H   0  0  0  0  0  0  0  0  0  0  0  0
    0.3869    2.1226   -3.2512 C   0  0  0  0  0  0  0  0  0  0  0  0
   -0.0249    3.0711   -2.9200 H   0  0  0  0  0  0  0  0  0  0  0  0
    0.5527   -0.2492    0.7494 C   0  0  0  0  0  0  0  0  0  0  0  0
    1.7665   -0.0934    0.7909 O   0  0  0  0  0  0  0  0  0  0  0  0
   -0.2109    0.1878    1.8184 N   0  0  0  0  0  0  0  0  0  0  0  0
   -1.1912   -0.0726    1.7875 H   0  0  0  0  0  0  0  0  0  0  0  0
    0.3720    0.5472    3.1048 C   0  0  0  0  0  0  0  0  0  0  0  0
    1.0699    1.3832    2.9897 H   0  0  0  0  0  0  0  0  0  0  0  0
   -0.4134    0.8485    3.8043 H   0  0  0  0  0  0  0  0  0  0  0  0
    0.9104   -0.3055    3.5318 H   0  0  0  0  0  0  0  0  0  0  0  0
  1  2  1  0  0  0  0
  2  3  1  0  0  0  0
  2  4  1  0  0  0  0
  2  5  1  0  0  0  0
  5  6  2  0  0  0  0
  5  7  1  0  0  0  0
  7  8  1  0  0  0  0
  7  9  1  0  0  0  0
  9 10  1  0  0  0  0
  9 11  1  0  0  0  0
  9 22  1  0  0  0  0
 11 12  1  0  0  0  0
 11 13  1  0  0  0  0
 11 14  1  0  0  0  0
 14 15  1  0  0  0  0
 14 20  2  0  0  0  0
 15 16  2  0  0  0  0
 16 17  1  0  0  0  0
 16 18  1  0  0  0  0
 18 19  1  0  0  0  0
 18 20  1  0  0  0  0
 20 21  1  0  0  0  0
 22 23  2  0  0  0  0
 22 24  1  0  0  0  0
 24 25  1  0  0  0  0
 24 26  1  0  0  0  0
 26 27  1  0  0  0  0
 26 28  1  0  0  0  0
 26 29  1  0  0  0  0
M  END
$$$$

  -OEChem-04042215593D

 29 29  0     1  0  0  0  0  0999 V2000
   -2.4374   -4.5082    0.3844 H   0  0  0  0  0  0  0  0  0  0  0  0
   -2.5992   -3.5430   -0.1042 C   0  0  0  0  0  0  0  0  0  0  0  0
   -3.4954   -3.0813    0.3168 H   0  0  0  0  0  0  0  0  0  0  0  0
   -2.7508   -3.7124   -1.1731 H   0  0  0  0  0  0  0  0  0  0  0  0
   -1.3985   -2.6411    0.1125 C   0  0  0  0  0  0  0  0  0  0  0  0
   -0.4712   -3.0282    0.7999 O   0  0  0  0  0  0  0  0  0  0  0  0
   -1.3861   -1.3792   -0.4487 N   0  0  0  0  0  0  0  0  0  0  0  0
   -2.1252   -1.2073   -1.1228 H   0  0  0  0  0  0  0  0  0  0  0  0
   -0.1643   -0.5617   -0.5892 C   0  0  1  0  0  0  0  0  0  0  0  0
    0.5553   -1.1390   -1.1798 H   0  0  0  0  0  0  0  0  0  0  0  0
   -0.5232    0.7609   -1.3138 C   0  0  0  0  0  0  0  0  0  0  0  0
   -1.5911    0.7773   -1.5461 H   0  0  0  0  0  0  0  0  0  0  0  0
   -0.3248    1.6196   -0.6640 H   0  0  0  0  0  0  0  0  0  0  0  0
    0.2239    0.9478   -2.6062 C   0  0  0  0  0  0  0  0  0  0  0  0
    0.6610   -0.0741   -3.4416 N   0  0  0  0  0  0  0  0  0  0  0  0
    1.3259    0.4959   -4.4174 C   0  0  0  0  0  0  0  0  0  0  0  0
    1.8042   -0.0349   -5.2357 H   0  0  0  0  0  0  0  0  0  0  0  0
    1.3264    1.8672   -4.2485 N   0  0  0  0  0  0  0  0  0  0  0  0
    1.7991    2.5337   -4.8563 H   0  0  0  0  0  0  0  0  0  0  0  0
    0.6344    2.1581   -3.0918 C   0  0  0  0  0  0  0  0  0  0  0  0
    0.4669    3.1296   -2.6364 H   0  0  0  0  0  0  0  0  0  0  0  0
    0.5455   -0.2275    0.7442 C   0  0  0  0  0  0  0  0  0  0  0  0
    1.7572   -0.0499    0.7652 O   0  0  0  0  0  0  0  0  0  0  0  0
   -0.2068    0.1902    1.8285 N   0  0  0  0  0  0  0  0  0  0  0  0
   -1.1823   -0.0899    1.8132 H   0  0  0  0  0  0  0  0  0  0  0  0
    0.3924    0.5457    3.1084 C   0  0  0  0  0  0  0  0  0  0  0  0
    1.0795    1.3901    2.9896 H   0  0  0  0  0  0  0  0  0  0  0  0
   -0.3849    0.8336    3.8224 H   0  0  0  0  0  0  0  0  0  0  0  0
    0.9463   -0.3047    3.5199 H   0  0  0  0  0  0  0  0  0  0  0  0
  1  2  1  0  0  0  0
  2  3  1  0  0  0  0
  2  4  1  0  0  0  0
  2  5  1  0  0  0  0
  5  6  2  0  0  0  0
  5  7  1  0  0  0  0
  7  8  1  0  0  0  0
  7  9  1  0  0  0  0
  9 10  1  0  0  0  0
  9 11  1  0  0  0  0
  9 22  1  0  0  0  0
 11 12  1  0  0  0  0
 11 13  1  0  0  0  0
 11 14  1  0  0  0  0
 14 15  1  0  0  0  0
 14 20  2  0  0  0  0
 15 16  2  0  0  0  0
 16 17  1  0  0  0  0
 16 18  1  0  0  0  0
 18 19  1  0  0  0  0
 18 20  1  0  0  0  0
 20 21  1  0  0  0  0
 22 23  2  0  0  0  0
 22 24  1  0  0  0  0
 24 25  1  0  0  0  0
 24 26  1  0  0  0  0
 26 27  1  0  0  0  0
 26 28  1  0  0  0  0
 26 29  1  0  0  0  0
M  END
$$$$

  -OEChem-04042215593D

 29 29  0     1  0  0  0  0  0999 V2000
   -2.3975   -4.5124    0.3110 H   0  0  0  0  0  0  0  0  0  0  0  0
   -2.5755   -3.5367   -0.1500 C   0  0  0  0  0  0  0  0  0  0  0  0
   -3.4750   -3.0986    0.2889 H   0  0  0  0  0  0  0  0  0  0  0  0
   -2.7321   -3.6794   -1.2220 H   0  0  0  0  0  0  0  0  0  0  0  0
   -1.3859   -2.6246    0.0839 C   0  0  0  0  0  0  0  0  0  0  0  0
   -0.4533   -3.0126    0.7640 O   0  0  0  0  0  0  0  0  0  0  0  0
   -1.3877   -1.3533   -0.4551 N   0  0  0  0  0  0  0  0  0  0  0  0
   -2.1262   -1.1794   -1.1296 H   0  0  0  0  0  0  0  0  0  0  0  0
   -0.1735   -0.5243   -0.5846 C   0  0  1  0  0  0  0  0  0  0  0  0
    0.5465   -1.0869   -1.1900 H   0  0  0  0  0  0  0  0  0  0  0  0
   -0.5415    0.8022   -1.2928 C   0  0  0  0  0  0  0  0  0  0  0  0
   -1.6077    0.8190   -1.5328 H   0  0  0  0  0  0  0  0  0  0  0  0
   -0.3460    1.6567   -0.6369 H   0  0  0  0  0  0  0  0  0  0  0  0
    0.2199    0.9809   -2.5745 C   0  0  0  0  0  0  0  0  0  0  0  0
    0.3951   -0.0164   -3.5267 N   0  0  0  0  0  0  0  0  0  0  0  0
    1.1546    0.4964   -4.4652 C   0  0  0  0  0  0  0  0  0  0  0  0
    1.4855   -0.0334   -5.3538 H   0  0  0  0  0  0  0  0  0  0  0  0
    1.4696    1.8061   -4.1559 N   0  0  0  0  0  0  0  0  0  0  0  0
    2.0716    2.4120   -4.7104 H   0  0  0  0  0  0  0  0  0  0  0  0
    0.8809    2.1168   -2.9483 C   0  0  0  0  0  0  0  0  0  0  0  0
    0.9423    3.0456   -2.3887 H   0  0  0  0  0  0  0  0  0  0  0  0
    0.5422   -0.2049    0.7487 C   0  0  0  0  0  0  0  0  0  0  0  0
    1.7520   -0.0136    0.7601 O   0  0  0  0  0  0  0  0  0  0  0  0
   -0.2053    0.1898    1.8446 N   0  0  0  0  0  0  0  0  0  0  0  0
   -1.1789   -0.0971    1.8317 H   0  0  0  0  0  0  0  0  0  0  0  0
    0.3992    0.5327    3.1255 C   0  0  0  0  0  0  0  0  0  0  0  0
    1.0864    1.3776    3.0121 H   0  0  0  0  0  0  0  0  0  0  0  0
   -0.3756    0.8139    3.8450 H   0  0  0  0  0  0  0  0  0  0  0  0
    0.9541   -0.3218    3.5271 H   0  0  0  0  0  0  0  0  0  0  0  0
  1  2  1  0  0  0  0
  2  3  1  0  0  0  0
  2  4  1  0  0  0  0
  2  5  1  0  0  0  0
  5  6  2  0  0  0  0
  5  7  1  0  0  0  0
  7  8  1  0  0  0  0
  7  9  1  0  0  0  0
  9 10  1  0  0  0  0
  9 11  1  0  0  0  0
  9 22  1  0  0  0  0
 11 12  1  0  0  0  0
 11 13  1  0  0  0  0
 11 14  1  0  0  0  0
 14 15  1  0  0  0  0
 14 20  2  0  0  0  0
 15 16  2  0  0  0  0
 16 17  1  0  0  0  0
 16 18  1  0  0  0  0
 18 19  1  0  0  0  0
 18 20  1  0  0  0  0
 20 21  1  0  0  0  0
 22 23  2  0  0  0  0
 22 24  1  0  0  0  0
 24 25  1  0  0  0  0
 24 26  1  0  0  0  0
 26 27  1  0  0  0  0
 26 28  1  0  0  0  0
 26 29  1  0  0  0  0
M  END
$$$$

  -OEChem-04042215593D

 29 29  0     1  0  0  0  0  0999 V2000
   -2.3893   -4.5054    0.2746 H   0  0  0  0  0  0  0  0  0  0  0  0
   -2.5668   -3.5267   -0.1806 C   0  0  0  0  0  0  0  0  0  0  0  0
   -3.4670   -3.0914    0.2600 H   0  0  0  0  0  0  0  0  0  0  0  0
   -2.7217   -3.6625   -1.2537 H   0  0  0  0  0  0  0  0  0  0  0  0
   -1.3774   -2.6159    0.0600 C   0  0  0  0  0  0  0  0  0  0  0  0
   -0.4432   -3.0097    0.7347 O   0  0  0  0  0  0  0  0  0  0  0  0
   -1.3808   -1.3386   -0.4645 N   0  0  0  0  0  0  0  0  0  0  0  0
   -2.1161   -1.1592   -1.1419 H   0  0  0  0  0  0  0  0  0  0  0  0
   -0.1694   -0.5039   -0.5786 C   0  0  1  0  0  0  0  0  0  0  0  0
    0.5533   -1.0557   -1.1915 H   0  0  0  0  0  0  0  0  0  0  0  0
   -0.5404    0.8245   -1.2764 C   0  0  0  0  0  0  0  0  0  0  0  0
   -1.6050    0.8485   -1.5235 H   0  0  0  0  0  0  0  0  0  0  0  0
   -0.3431    1.6749   -0.6160 H   0  0  0  0  0  0  0  0  0  0  0  0
    0.2387    0.9948   -2.5453 C   0  0  0  0  0  0  0  0  0  0  0  0
    0.1719    0.1042   -3.6097 N   0  0  0  0  0  0  0  0  0  0  0  0
    1.0045    0.5560   -4.5177 C   0  0  0  0  0  0  0  0  0  0  0  0
    1.1943    0.0805   -5.4759 H   0  0  0  0  0  0  0  0  0  0  0  0
    1.6015    1.7225   -4.0766 N   0  0  0  0  0  0  0  0  0  0  0  0
    2.3039    2.2534   -4.5884 H   0  0  0  0  0  0  0  0  0  0  0  0
    1.1176    2.0044   -2.8167 C   0  0  0  0  0  0  0  0  0  0  0  0
    1.3845    2.8272   -2.1595 H   0  0  0  0  0  0  0  0  0  0  0  0
    0.5424   -0.1941    0.7584 C   0  0  0  0  0  0  0  0  0  0  0  0
    1.7512    0.0042    0.7698 O   0  0  0  0  0  0  0  0  0  0  0  0
   -0.2065    0.1875    1.8577 N   0  0  0  0  0  0  0  0  0  0  0  0
   -1.1805   -0.0983    1.8419 H   0  0  0  0  0  0  0  0  0  0  0  0
    0.3974    0.5269    3.1395 C   0  0  0  0  0  0  0  0  0  0  0  0
    1.0705    1.3837    3.0315 H   0  0  0  0  0  0  0  0  0  0  0  0
   -0.3785    0.7887    3.8650 H   0  0  0  0  0  0  0  0  0  0  0  0
    0.9672   -0.3227    3.5302 H   0  0  0  0  0  0  0  0  0  0  0  0
  1  2  1  0  0  0  0
  2  3  1  0  0  0  0
  2  4  1  0  0  0  0
  2  5  1  0  0  0  0
  5  6  2  0  0  0  0
  5  7  1  0  0  0  0
  7  8  1  0  0  0  0
  7  9  1  0  0  0  0
  9 10  1  0  0  0  0
  9 11  1  0  0  0  0
  9 22  1  0  0  0  0
 11 12  1  0  0  0  0
 11 13  1  0  0  0  0
 11 14  1  0  0  0  0
 14 15  1  0  0  0  0
 14 20  2  0  0  0  0
 15 16  2  0  0  0  0
 16 17  1  0  0  0  0
 16 18  1  0  0  0  0
 18 19  1  0  0  0  0
 18 20  1  0  0  0  0
 20 21  1  0  0  0  0
 22 23  2  0  0  0  0
 22 24  1  0  0  0  0
 24 25  1  0  0  0  0
 24 26  1  0  0  0  0
 26 27  1  0  0  0  0
 26 28  1  0  0  0  0
 26 29  1  0  0  0  0
M  END
$$$$

  -OEChem-04042215593D

 29 29  0     1  0  0  0  0  0999 V2000
   -2.3905   -4.5014    0.2551 H   0  0  0  0  0  0  0  0  0  0  0  0
   -2.5684   -3.5189   -0.1912 C   0  0  0  0  0  0  0  0  0  0  0  0
   -3.4616   -3.0828    0.2625 H   0  0  0  0  0  0  0  0  0  0  0  0
   -2.7364   -3.6464   -1.2633 H   0  0  0  0  0  0  0  0  0  0  0  0
   -1.3722   -2.6155    0.0432 C   0  0  0  0  0  0  0  0  0  0  0  0
   -0.4301   -3.0193    0.7009 O   0  0  0  0  0  0  0  0  0  0  0  0
   -1.3741   -1.3344   -0.4718 N   0  0  0  0  0  0  0  0  0  0  0  0
   -2.1164   -1.1410   -1.1379 H   0  0  0  0  0  0  0  0  0  0  0  0
   -0.1648   -0.4962   -0.5740 C   0  0  1  0  0  0  0  0  0  0  0  0
    0.5601   -1.0448   -1.1875 H   0  0  0  0  0  0  0  0  0  0  0  0
   -0.5346    0.8306   -1.2722 C   0  0  0  0  0  0  0  0  0  0  0  0
   -1.5976    0.8616   -1.5264 H   0  0  0  0  0  0  0  0  0  0  0  0
   -0.3357    1.6799   -0.6107 H   0  0  0  0  0  0  0  0  0  0  0  0
    0.2608    0.9923   -2.5299 C   0  0  0  0  0  0  0  0  0  0  0  0
   -0.0061    0.2828   -3.6933 N   0  0  0  0  0  0  0  0  0  0  0  0
    0.8909    0.6709   -4.5694 C   0  0  0  0  0  0  0  0  0  0  0  0
    0.9645    0.2987   -5.5873 H   0  0  0  0  0  0  0  0  0  0  0  0
    1.7253    1.6204   -4.0083 N   0  0  0  0  0  0  0  0  0  0  0  0
    2.5149    2.0613   -4.4766 H   0  0  0  0  0  0  0  0  0  0  0  0
    1.3257    1.8284   -2.7055 C   0  0  0  0  0  0  0  0  0  0  0  0
    1.7625    2.4876   -1.9602 H   0  0  0  0  0  0  0  0  0  0  0  0
    0.5438   -0.1906    0.7653 C   0  0  0  0  0  0  0  0  0  0  0  0
    1.7515    0.0151    0.7753 O   0  0  0  0  0  0  0  0  0  0  0  0
   -0.2062    0.1838    1.8662 N   0  0  0  0  0  0  0  0  0  0  0  0
   -1.1817   -0.0970    1.8475 H   0  0  0  0  0  0  0  0  0  0  0  0
    0.3953    0.5264    3.1485 C   0  0  0  0  0  0  0  0  0  0  0  0
    1.0655    1.3857    3.0408 H   0  0  0  0  0  0  0  0  0  0  0  0
   -0.3822    0.7857    3.8732 H   0  0  0  0  0  0  0  0  0  0  0  0
    0.9681   -0.3207    3.5403 H   0  0  0  0  0  0  0  0  0  0  0  0
  1  2  1  0  0  0  0
  2  3  1  0  0  0  0
  2  4  1  0  0  0  0
  2  5  1  0  0  0  0
  5  6  2  0  0  0  0
  5  7  1  0  0  0  0
  7  8  1  0  0  0  0
  7  9  1  0  0  0  0
  9 10  1  0  0  0  0
  9 11  1  0  0  0  0
  9 22  1  0  0  0  0
 11 12  1  0  0  0  0
 11 13  1  0  0  0  0
 11 14  1  0  0  0  0
 14 15  1  0  0  0  0
 14 20  2  0  0  0  0
 15 16  2  0  0  0  0
 16 17  1  0  0  0  0
 16 18  1  0  0  0  0
 18 19  1  0  0  0  0
 18 20  1  0  0  0  0
 20 21  1  0  0  0  0
 22 23  2  0  0  0  0
 22 24  1  0  0  0  0
 24 25  1  0  0  0  0
 24 26  1  0  0  0  0
 26 27  1  0  0  0  0
 26 28  1  0  0  0  0
 26 29  1  0  0  0  0
M  END
$$$$

  -OEChem-04042215593D

 29 29  0     1  0  0  0  0  0999 V2000
   -2.3929   -4.5026    0.2507 H   0  0  0  0  0  0  0  0  0  0  0  0
   -2.5731   -3.5162   -0.1860 C   0  0  0  0  0  0  0  0  0  0  0  0
   -3.4566   -3.0786    0.2848 H   0  0  0  0  0  0  0  0  0  0  0  0
   -2.7589   -3.6360   -1.2562 H   0  0  0  0  0  0  0  0  0  0  0  0
   -1.3692   -2.6195    0.0346 C   0  0  0  0  0  0  0  0  0  0  0  0
   -0.4181   -3.0298    0.6749 O   0  0  0  0  0  0  0  0  0  0  0  0
   -1.3709   -1.3370   -0.4765 N   0  0  0  0  0  0  0  0  0  0  0  0
   -2.1247   -1.1303   -1.1258 H   0  0  0  0  0  0  0  0  0  0  0  0
   -0.1633   -0.4962   -0.5732 C   0  0  1  0  0  0  0  0  0  0  0  0
    0.5638   -1.0445   -1.1847 H   0  0  0  0  0  0  0  0  0  0  0  0
   -0.5316    0.8280   -1.2752 C   0  0  0  0  0  0  0  0  0  0  0  0
   -1.5941    0.8622   -1.5316 H   0  0  0  0  0  0  0  0  0  0  0  0
   -0.3321    1.6786   -0.6157 H   0  0  0  0  0  0  0  0  0  0  0  0
    0.2722    0.9868   -2.5271 C   0  0  0  0  0  0  0  0  0  0  0  0
   -0.1424    0.5203   -3.7670 N   0  0  0  0  0  0  0  0  0  0  0  0
    0.8147    0.8319   -4.6097 C   0  0  0  0  0  0  0  0  0  0  0  0
    0.8046    0.6019   -5.6713 H   0  0  0  0  0  0  0  0  0  0  0  0
    1.8347    1.4930   -3.9501 N   0  0  0  0  0  0  0  0  0  0  0  0
    2.6986    1.8207   -4.3786 H   0  0  0  0  0  0  0  0  0  0  0  0
    1.4912    1.5942   -2.6190 C   0  0  0  0  0  0  0  0  0  0  0  0
    2.0592    2.0327   -1.8021 H   0  0  0  0  0  0  0  0  0  0  0  0
    0.5447   -0.1899    0.7659 C   0  0  0  0  0  0  0  0  0  0  0  0
    1.7520    0.0192    0.7731 O   0  0  0  0  0  0  0  0  0  0  0  0
   -0.2045    0.1819    1.8679 N   0  0  0  0  0  0  0  0  0  0  0  0
   -1.1813   -0.0939    1.8492 H   0  0  0  0  0  0  0  0  0  0  0  0
    0.3974    0.5314    3.1479 C   0  0  0  0  0  0  0  0  0  0  0  0
    1.0640    1.3932    3.0366 H   0  0  0  0  0  0  0  0  0  0  0  0
   -0.3804    0.7900    3.8724 H   0  0  0  0  0  0  0  0  0  0  0  0
    0.9740   -0.3122    3.5417 H   0  0  0  0  0  0  0  0  0  0  0  0
  1  2  1  0  0  0  0
  2  3  1  0  0  0  0
  2  4  1  0  0  0  0
  2  5  1  0  0  0  0
  5  6  2  0  0  0  0
  5  7  1  0  0  0  0
  7  8  1  0  0  0  0
  7  9  1  0  0  0  0
  9 10  1  0  0  0  0
  9 11  1  0  0  0  0
  9 22  1  0  0  0  0
 11 12  1  0  0  0  0
 11 13  1  0  0  0  0
 11 14  1  0  0  0  0
 14 15  1  0  0  0  0
 14 20  2  0  0  0  0
 15 16  2  0  0  0  0
 16 17  1  0  0  0  0
 16 18  1  0  0  0  0
 18 19  1  0  0  0  0
 18 20  1  0  0  0  0
 20 21  1  0  0  0  0
 22 23  2  0  0  0  0
 22 24  1  0  0  0  0
 24 25  1  0  0  0  0
 24 26  1  0  0  0  0
 26 27  1  0  0  0  0
 26 28  1  0  0  0  0
 26 29  1  0  0  0  0
M  END
$$$$

  -OEChem-04042215593D

 29 29  0     1  0  0  0  0  0999 V2000
   -2.3967   -4.5035    0.2529 H   0  0  0  0  0  0  0  0  0  0  0  0
   -2.5784   -3.5143   -0.1769 C   0  0  0  0  0  0  0  0  0  0  0  0
   -3.4527   -3.0745    0.3090 H   0  0  0  0  0  0  0  0  0  0  0  0
   -2.7809   -3.6282   -1.2447 H   0  0  0  0  0  0  0  0  0  0  0  0
   -1.3665   -2.6251    0.0301 C   0  0  0  0  0  0  0  0  0  0  0  0
   -0.4069   -3.0436    0.6523 O   0  0  0  0  0  0  0  0  0  0  0  0
   -1.3662   -1.3416   -0.4787 N   0  0  0  0  0  0  0  0  0  0  0  0
   -2.1326   -1.1202   -1.1079 H   0  0  0  0  0  0  0  0  0  0  0  0
   -0.1594   -0.4995   -0.5711 C   0  0  1  0  0  0  0  0  0  0  0  0
    0.5682   -1.0509   -1.1788 H   0  0  0  0  0  0  0  0  0  0  0  0
   -0.5240    0.8221   -1.2806 C   0  0  0  0  0  0  0  0  0  0  0  0
   -1.5853    0.8530   -1.5430 H   0  0  0  0  0  0  0  0  0  0  0  0
   -0.3308    1.6765   -0.6241 H   0  0  0  0  0  0  0  0  0  0  0  0
    0.2858    0.9831   -2.5290 C   0  0  0  0  0  0  0  0  0  0  0  0
   -0.2238    0.7964   -3.8067 N   0  0  0  0  0  0  0  0  0  0  0  0
    0.7742    1.0168   -4.6305 C   0  0  0  0  0  0  0  0  0  0  0  0
    0.7098    0.9507   -5.7128 H   0  0  0  0  0  0  0  0  0  0  0  0
    1.9156    1.3436   -3.9210 N   0  0  0  0  0  0  0  0  0  0  0  0
    2.8265    1.5454   -4.3296 H   0  0  0  0  0  0  0  0  0  0  0  0
    1.6071    1.3235   -2.5777 C   0  0  0  0  0  0  0  0  0  0  0  0
    2.2575    1.5132   -1.7263 H   0  0  0  0  0  0  0  0  0  0  0  0
    0.5468   -0.1928    0.7689 C   0  0  0  0  0  0  0  0  0  0  0  0
    1.7547    0.0137    0.7756 O   0  0  0  0  0  0  0  0  0  0  0  0
   -0.2027    0.1779    1.8712 N   0  0  0  0  0  0  0  0  0  0  0  0
   -1.1820   -0.0887    1.8499 H   0  0  0  0  0  0  0  0  0  0  0  0
    0.3965    0.5343    3.1510 C   0  0  0  0  0  0  0  0  0  0  0  0
    1.0589    1.3990    3.0378 H   0  0  0  0  0  0  0  0  0  0  0  0
   -0.3831    0.7913    3.8743 H   0  0  0  0  0  0  0  0  0  0  0  0
    0.9770   -0.3048    3.5486 H   0  0  0  0  0  0  0  0  0  0  0  0
  1  2  1  0  0  0  0
  2  3  1  0  0  0  0
  2  4  1  0  0  0  0
  2  5  1  0  0  0  0
  5  6  2  0  0  0  0
  5  7  1  0  0  0  0
  7  8  1  0  0  0  0
  7  9  1  0  0  0  0
  9 10  1  0  0  0  0
  9 11  1  0  0  0  0
  9 22  1  0  0  0  0
 11 12  1  0  0  0  0
 11 13  1  0  0  0  0
 11 14  1  0  0  0  0
 14 15  1  0  0  0  0
 14 20  2  0  0  0  0
 15 16  2  0  0  0  0
 16 17  1  0  0  0  0
 16 18  1  0  0  0  0
 18 19  1  0  0  0  0
 18 20  1  0  0  0  0
 20 21  1  0  0  0  0
 22 23  2  0  0  0  0
 22 24  1  0  0  0  0
 24 25  1  0  0  0  0
 24 26  1  0  0  0  0
 26 27  1  0  0  0  0
 26 28  1  0  0  0  0
 26 29  1  0  0  0  0
M  END
$$$$

  -OEChem-04042215593D

 29 29  0     1  0  0  0  0  0999 V2000
   -2.4169   -4.4949    0.2947 H   0  0  0  0  0  0  0  0  0  0  0  0
   -2.5898   -3.5105   -0.1495 C   0  0  0  0  0  0  0  0  0  0  0  0
   -3.4525   -3.0505    0.3383 H   0  0  0  0  0  0  0  0  0  0  0  0
   -2.8054   -3.6388   -1.2130 H   0  0  0  0  0  0  0  0  0  0  0  0
   -1.3637   -2.6353    0.0297 C   0  0  0  0  0  0  0  0  0  0  0  0
   -0.3967   -3.0626    0.6342 O   0  0  0  0  0  0  0  0  0  0  0  0
   -1.3584   -1.3527   -0.4809 N   0  0  0  0  0  0  0  0  0  0  0  0
   -2.1380   -1.1150   -1.0874 H   0  0  0  0  0  0  0  0  0  0  0  0
   -0.1517   -0.5100   -0.5685 C   0  0  1  0  0  0  0  0  0  0  0  0
    0.5770   -1.0693   -1.1669 H   0  0  0  0  0  0  0  0  0  0  0  0
   -0.5079    0.8070   -1.2926 C   0  0  0  0  0  0  0  0  0  0  0  0
   -1.5664    0.8267   -1.5667 H   0  0  0  0  0  0  0  0  0  0  0  0
   -0.3305    1.6676   -0.6399 H   0  0  0  0  0  0  0  0  0  0  0  0
    0.3084    0.9747   -2.5378 C   0  0  0  0  0  0  0  0  0  0  0  0
   -0.2396    1.0839   -3.8087 N   0  0  0  0  0  0  0  0  0  0  0  0
    0.7739    1.2189   -4.6321 C   0  0  0  0  0  0  0  0  0  0  0  0
    0.6862    1.3283   -5.7093 H   0  0  0  0  0  0  0  0  0  0  0  0
    1.9648    1.2008   -3.9297 N   0  0  0  0  0  0  0  0  0  0  0  0
    2.8934    1.2847   -4.3395 H   0  0  0  0  0  0  0  0  0  0  0  0
    1.6718    1.0467   -2.5920 C   0  0  0  0  0  0  0  0  0  0  0  0
    2.3565    0.9867   -1.7479 H   0  0  0  0  0  0  0  0  0  0  0  0
    0.5475   -0.2000    0.7736 C   0  0  0  0  0  0  0  0  0  0  0  0
    1.7571   -0.0044    0.7859 O   0  0  0  0  0  0  0  0  0  0  0  0
   -0.2061    0.1726    1.8722 N   0  0  0  0  0  0  0  0  0  0  0  0
   -1.1874   -0.0859    1.8448 H   0  0  0  0  0  0  0  0  0  0  0  0
    0.3881    0.5256    3.1551 C   0  0  0  0  0  0  0  0  0  0  0  0
    1.0561    1.3862    3.0450 H   0  0  0  0  0  0  0  0  0  0  0  0
   -0.3939    0.7877    3.8739 H   0  0  0  0  0  0  0  0  0  0  0  0
    0.9608   -0.3173    3.5559 H   0  0  0  0  0  0  0  0  0  0  0  0
  1  2  1  0  0  0  0
  2  3  1  0  0  0  0
  2  4  1  0  0  0  0
  2  5  1  0  0  0  0
  5  6  2  0  0  0  0
  5  7  1  0  0  0  0
  7  8  1  0  0  0  0
  7  9  1  0  0  0  0
  9 10  1  0  0  0  0
  9 11  1  0  0  0  0
  9 22  1  0  0  0  0
 11 12  1  0  0  0  0
 11 13  1  0  0  0  0
 11 14  1  0  0  0  0
 14 15  1  0  0  0  0
 14 20  2  0  0  0  0
 15 16  2  0  0  0  0
 16 17  1  0  0  0  0
 16 18  1  0  0  0  0
 18 19  1  0  0  0  0
 18 20  1  0  0  0  0
 20 21  1  0  0  0  0
 22 23  2  0  0  0  0
 22 24  1  0  0  0  0
 24 25  1  0  0  0  0
 24 26  1  0  0  0  0
 26 27  1  0  0  0  0
 26 28  1  0  0  0  0
 26 29  1  0  0  0  0
M  END
$$$$

  -OEChem-04042215593D

 29 29  0     1  0  0  0  0  0999 V2000
   -2.4325   -4.5023    0.3075 H   0  0  0  0  0  0  0  0  0  0  0  0
   -2.6074   -3.5105   -0.1194 C   0  0  0  0  0  0  0  0  0  0  0  0
   -3.4537   -3.0501    0.3958 H   0  0  0  0  0  0  0  0  0  0  0  0
   -2.8506   -3.6231   -1.1787 H   0  0  0  0  0  0  0  0  0  0  0  0
   -1.3691   -2.6483    0.0412 C   0  0  0  0  0  0  0  0  0  0  0  0
   -0.3981   -3.0858    0.6315 O   0  0  0  0  0  0  0  0  0  0  0  0
   -1.3515   -1.3698   -0.4795 N   0  0  0  0  0  0  0  0  0  0  0  0
   -2.1396   -1.1165   -1.0682 H   0  0  0  0  0  0  0  0  0  0  0  0
   -0.1400   -0.5332   -0.5613 C   0  0  1  0  0  0  0  0  0  0  0  0
    0.5893   -1.1077   -1.1432 H   0  0  0  0  0  0  0  0  0  0  0  0
   -0.4807    0.7773   -1.3073 C   0  0  0  0  0  0  0  0  0  0  0  0
   -1.5359    0.7869   -1.5946 H   0  0  0  0  0  0  0  0  0  0  0  0
   -0.3193    1.6452   -0.6602 H   0  0  0  0  0  0  0  0  0  0  0  0
    0.3408    0.9536   -2.5509 C   0  0  0  0  0  0  0  0  0  0  0  0
   -0.1995    1.3587   -3.7643 N   0  0  0  0  0  0  0  0  0  0  0  0
    0.8022    1.4239   -4.6100 C   0  0  0  0  0  0  0  0  0  0  0  0
    0.7147    1.7145   -5.6530 H   0  0  0  0  0  0  0  0  0  0  0  0
    1.9806    1.0710   -3.9793 N   0  0  0  0  0  0  0  0  0  0  0  0
    2.9005    1.0506   -4.4158 H   0  0  0  0  0  0  0  0  0  0  0  0
    1.6920    0.7758   -2.6644 C   0  0  0  0  0  0  0  0  0  0  0  0
    2.3744    0.4767   -1.8709 H   0  0  0  0  0  0  0  0  0  0  0  0
    0.5472   -0.2145    0.7847 C   0  0  0  0  0  0  0  0  0  0  0  0
    1.7608   -0.0490    0.8112 O   0  0  0  0  0  0  0  0  0  0  0  0
   -0.2127    0.1720    1.8744 N   0  0  0  0  0  0  0  0  0  0  0  0
   -1.2001   -0.0597    1.8347 H   0  0  0  0  0  0  0  0  0  0  0  0
    0.3719    0.5234    3.1622 C   0  0  0  0  0  0  0  0  0  0  0  0
    1.0686    1.3612    3.0526 H   0  0  0  0  0  0  0  0  0  0  0  0
   -0.4128    0.8193    3.8649 H   0  0  0  0  0  0  0  0  0  0  0  0
    0.9118   -0.3317    3.5824 H   0  0  0  0  0  0  0  0  0  0  0  0
  1  2  1  0  0  0  0
  2  3  1  0  0  0  0
  2  4  1  0  0  0  0
  2  5  1  0  0  0  0
  5  6  2  0  0  0  0
  5  7  1  0  0  0  0
  7  8  1  0  0  0  0
  7  9  1  0  0  0  0
  9 10  1  0  0  0  0
  9 11  1  0  0  0  0
  9 22  1  0  0  0  0
 11 12  1  0  0  0  0
 11 13  1  0  0  0  0
 11 14  1  0  0  0  0
 14 15  1  0  0  0  0
 14 20  2  0  0  0  0
 15 16  2  0  0  0  0
 16 17  1  0  0  0  0
 16 18  1  0  0  0  0
 18 19  1  0  0  0  0
 18 20  1  0  0  0  0
 20 21  1  0  0  0  0
 22 23  2  0  0  0  0
 22 24  1  0  0  0  0
 24 25  1  0  0  0  0
 24 26  1  0  0  0  0
 26 27  1  0  0  0  0
 26 28  1  0  0  0  0
 26 29  1  0  0  0  0
M  END
$$$$

  -OEChem-04042215593D

 29 29  0     1  0  0  0  0  0999 V2000
   -2.4716   -4.4993    0.3587 H   0  0  0  0  0  0  0  0  0  0  0  0
   -2.6359   -3.5106   -0.0795 C   0  0  0  0  0  0  0  0  0  0  0  0
   -3.4703   -3.0310    0.4378 H   0  0  0  0  0  0  0  0  0  0  0  0
   -2.8908   -3.6334   -1.1349 H   0  0  0  0  0  0  0  0  0  0  0  0
   -1.3834   -2.6654    0.0581 C   0  0  0  0  0  0  0  0  0  0  0  0
   -0.4126   -3.1113    0.6421 O   0  0  0  0  0  0  0  0  0  0  0  0
   -1.3514   -1.3928   -0.4766 N   0  0  0  0  0  0  0  0  0  0  0  0
   -2.1456   -1.1264   -1.0511 H   0  0  0  0  0  0  0  0  0  0  0  0
   -0.1330   -0.5654   -0.5563 C   0  0  1  0  0  0  0  0  0  0  0  0
    0.5936   -1.1591   -1.1198 H   0  0  0  0  0  0  0  0  0  0  0  0
   -0.4550    0.7374   -1.3263 C   0  0  0  0  0  0  0  0  0  0  0  0
   -1.5074    0.7435   -1.6238 H   0  0  0  0  0  0  0  0  0  0  0  0
   -0.3021    1.6108   -0.6847 H   0  0  0  0  0  0  0  0  0  0  0  0
    0.3693    0.9201   -2.5701 C   0  0  0  0  0  0  0  0  0  0  0  0
   -0.1104    1.6048   -3.6790 N   0  0  0  0  0  0  0  0  0  0  0  0
    0.8642    1.6205   -4.5574 C   0  0  0  0  0  0  0  0  0  0  0  0
    0.8083    2.0856   -5.5375 H   0  0  0  0  0  0  0  0  0  0  0  0
    1.9696    0.9643   -4.0510 N   0  0  0  0  0  0  0  0  0  0  0  0
    2.8634    0.8598   -4.5280 H   0  0  0  0  0  0  0  0  0  0  0  0
    1.6630    0.5250   -2.7813 C   0  0  0  0  0  0  0  0  0  0  0  0
    2.3075    0.0049   -2.0756 H   0  0  0  0  0  0  0  0  0  0  0  0
    0.5457   -0.2349    0.7906 C   0  0  0  0  0  0  0  0  0  0  0  0
    1.7621   -0.0964    0.8289 O   0  0  0  0  0  0  0  0  0  0  0  0
   -0.2180    0.1706    1.8703 N   0  0  0  0  0  0  0  0  0  0  0  0
   -1.2103   -0.0367    1.8209 H   0  0  0  0  0  0  0  0  0  0  0  0
    0.3612    0.5241    3.1597 C   0  0  0  0  0  0  0  0  0  0  0  0
    1.0657    1.3553    3.0498 H   0  0  0  0  0  0  0  0  0  0  0  0
   -0.4250    0.8305    3.8562 H   0  0  0  0  0  0  0  0  0  0  0  0
    0.8909   -0.3334    3.5876 H   0  0  0  0  0  0  0  0  0  0  0  0
  1  2  1  0  0  0  0
  2  3  1  0  0  0  0
  2  4  1  0  0  0  0
  2  5  1  0  0  0  0
  5  6  2  0  0  0  0
  5  7  1  0  0  0  0
  7  8  1  0  0  0  0
  7  9  1  0  0  0  0
  9 10  1  0  0  0  0
  9 11  1  0  0  0  0
  9 22  1  0  0  0  0
 11 12  1  0  0  0  0
 11 13  1  0  0  0  0
 11 14  1  0  0  0  0
 14 15  1  0  0  0  0
 14 20  2  0  0  0  0
 15 16  2  0  0  0  0
 16 17  1  0  0  0  0
 16 18  1  0  0  0  0
 18 19  1  0  0  0  0
 18 20  1  0  0  0  0
 20 21  1  0  0  0  0
 22 23  2  0  0  0  0
 22 24  1  0  0  0  0
 24 25  1  0  0  0  0
 24 26  1  0  0  0  0
 26 27  1  0  0  0  0
 26 28  1  0  0  0  0
 26 29  1  0  0  0  0
M  END
$$$$

  -OEChem-04042215593D

 29 29  0     1  0  0  0  0  0999 V2000
   -2.5196   -4.4850    0.4227 H   0  0  0  0  0  0  0  0  0  0  0  0
   -2.6643   -3.5039   -0.0390 C   0  0  0  0  0  0  0  0  0  0  0  0
   -3.4877   -2.9949    0.4677 H   0  0  0  0  0  0  0  0  0  0  0  0
   -2.9233   -3.6467   -1.0909 H   0  0  0  0  0  0  0  0  0  0  0  0
   -1.3945   -2.6814    0.0766 C   0  0  0  0  0  0  0  0  0  0  0  0
   -0.4253   -3.1406    0.6527 O   0  0  0  0  0  0  0  0  0  0  0  0
   -1.3431   -1.4160   -0.4732 N   0  0  0  0  0  0  0  0  0  0  0  0
   -2.1435   -1.1316   -1.0298 H   0  0  0  0  0  0  0  0  0  0  0  0
   -0.1172   -0.5991   -0.5510 C   0  0  1  0  0  0  0  0  0  0  0  0
    0.6101   -1.2083   -1.0935 H   0  0  0  0  0  0  0  0  0  0  0  0
   -0.4252    0.6950   -1.3441 C   0  0  0  0  0  0  0  0  0  0  0  0
   -1.4762    0.7019   -1.6458 H   0  0  0  0  0  0  0  0  0  0  0  0
   -0.2752    1.5725   -0.7071 H   0  0  0  0  0  0  0  0  0  0  0  0
    0.3962    0.8869   -2.5913 C   0  0  0  0  0  0  0  0  0  0  0  0
    0.0228    1.8191   -3.5511 N   0  0  0  0  0  0  0  0  0  0  0  0
    0.9489    1.7966   -4.4795 C   0  0  0  0  0  0  0  0  0  0  0  0
    0.9495    2.4176   -5.3707 H   0  0  0  0  0  0  0  0  0  0  0  0
    1.9211    0.8717   -4.1534 N   0  0  0  0  0  0  0  0  0  0  0  0
    2.7620    0.6846   -4.6967 H   0  0  0  0  0  0  0  0  0  0  0  0
    1.5816    0.2982   -2.9471 C   0  0  0  0  0  0  0  0  0  0  0  0
    2.1486   -0.4337   -2.3773 H   0  0  0  0  0  0  0  0  0  0  0  0
    0.5471   -0.2584    0.8008 C   0  0  0  0  0  0  0  0  0  0  0  0
    1.7649   -0.1447    0.8585 O   0  0  0  0  0  0  0  0  0  0  0  0
   -0.2255    0.1659    1.8670 N   0  0  0  0  0  0  0  0  0  0  0  0
   -1.2221   -0.0129    1.8012 H   0  0  0  0  0  0  0  0  0  0  0  0
    0.3405    0.5270    3.1602 C   0  0  0  0  0  0  0  0  0  0  0  0
    1.0445    1.3588    3.0520 H   0  0  0  0  0  0  0  0  0  0  0  0
   -0.4528    0.8355    3.8476 H   0  0  0  0  0  0  0  0  0  0  0  0
    0.8678   -0.3272    3.5981 H   0  0  0  0  0  0  0  0  0  0  0  0
  1  2  1  0  0  0  0
  2  3  1  0  0  0  0
  2  4  1  0  0  0  0
  2  5  1  0  0  0  0
  5  6  2  0  0  0  0
  5  7  1  0  0  0  0
  7  8  1  0  0  0  0
  7  9  1  0  0  0  0
  9 10  1  0  0  0  0
  9 11  1  0  0  0  0
  9 22  1  0  0  0  0
 11 12  1  0  0  0  0
 11 13  1  0  0  0  0
 11 14  1  0  0  0  0
 14 15  1  0  0  0  0
 14 20  2  0  0  0  0
 15 16  2  0  0  0  0
 16 17  1  0  0  0  0
 16 18  1  0  0  0  0
 18 19  1  0  0  0  0
 18 20  1  0  0  0  0
 20 21  1  0  0  0  0
 22 23  2  0  0  0  0
 22 24  1  0  0  0  0
 24 25  1  0  0  0  0
 24 26  1  0  0  0  0
 26 27  1  0  0  0  0
 26 28  1  0  0  0  0
 26 29  1  0  0  0  0
M  END
$$$$

  -OEChem-04042215593D

 29 29  0     1  0  0  0  0  0999 V2000
   -2.5222   -4.4727    0.4893 H   0  0  0  0  0  0  0  0  0  0  0  0
   -2.6541   -3.4909    0.0252 C   0  0  0  0  0  0  0  0  0  0  0  0
   -3.4505   -2.9584    0.5505 H   0  0  0  0  0  0  0  0  0  0  0  0
   -2.9452   -3.6325   -1.0184 H   0  0  0  0  0  0  0  0  0  0  0  0
   -1.3615   -2.7002    0.1021 C   0  0  0  0  0  0  0  0  0  0  0  0
   -0.3924   -3.1764    0.6637 O   0  0  0  0  0  0  0  0  0  0  0  0
   -1.2859   -1.4502   -0.4798 N   0  0  0  0  0  0  0  0  0  0  0  0
   -2.0915   -1.1504   -1.0207 H   0  0  0  0  0  0  0  0  0  0  0  0
   -0.0538   -0.6424   -0.5594 C   0  0  1  0  0  0  0  0  0  0  0  0
    0.7113   -1.2302   -1.0721 H   0  0  0  0  0  0  0  0  0  0  0  0
   -0.3732    0.6540   -1.3428 C   0  0  0  0  0  0  0  0  0  0  0  0
   -1.4519    0.8321   -1.3613 H   0  0  0  0  0  0  0  0  0  0  0  0
    0.0761    1.5072   -0.8241 H   0  0  0  0  0  0  0  0  0  0  0  0
    0.1448    0.7005   -2.7571 C   0  0  0  0  0  0  0  0  0  0  0  0
   -0.0865    1.8180   -3.5491 N   0  0  0  0  0  0  0  0  0  0  0  0
    0.4794    1.5874   -4.7092 C   0  0  0  0  0  0  0  0  0  0  0  0
    0.4827    2.2783   -5.5476 H   0  0  0  0  0  0  0  0  0  0  0  0
    1.0648    0.3370   -4.7051 N   0  0  0  0  0  0  0  0  0  0  0  0
    1.5817   -0.0726   -5.4811 H   0  0  0  0  0  0  0  0  0  0  0  0
    0.8544   -0.2334   -3.4678 C   0  0  0  0  0  0  0  0  0  0  0  0
    1.1906   -1.2080   -3.1275 H   0  0  0  0  0  0  0  0  0  0  0  0
    0.5585   -0.2887    0.8161 C   0  0  0  0  0  0  0  0  0  0  0  0
    1.7731   -0.1881    0.9301 O   0  0  0  0  0  0  0  0  0  0  0  0
   -0.2551    0.1545    1.8442 N   0  0  0  0  0  0  0  0  0  0  0  0
   -1.2506   -0.0072    1.7361 H   0  0  0  0  0  0  0  0  0  0  0  0
    0.2577    0.5438    3.1515 C   0  0  0  0  0  0  0  0  0  0  0  0
    0.9709    1.3689    3.0533 H   0  0  0  0  0  0  0  0  0  0  0  0
   -0.5621    0.8733    3.7968 H   0  0  0  0  0  0  0  0  0  0  0  0
    0.7611   -0.3018    3.6319 H   0  0  0  0  0  0  0  0  0  0  0  0
  1  2  1  0  0  0  0
  2  3  1  0  0  0  0
  2  4  1  0  0  0  0
  2  5  1  0  0  0  0
  5  6  2  0  0  0  0
  5  7  1  0  0  0  0
  7  8  1  0  0  0  0
  7  9  1  0  0  0  0
  9 10  1  0  0  0  0
  9 11  1  0  0  0  0
  9 22  1  0  0  0  0
 11 12  1  0  0  0  0
 11 13  1  0  0  0  0
 11 14  1  0  0  0  0
 14 15  1  0  0  0  0
 14 20  2  0  0  0  0
 15 16  2  0  0  0  0
 16 17  1  0  0  0  0
 16 18  1  0  0  0  0
 18 19  1  0  0  0  0
 18 20  1  0  0  0  0
 20 21  1  0  0  0  0
 22 23  2  0  0  0  0
 22 24  1  0  0  0  0
 24 25  1  0  0  0  0
 24 26  1  0  0  0  0
 26 27  1  0  0  0  0
 26 28  1  0  0  0  0
 26 29  1  0  0  0  0
M  END
$$$$

  -OEChem-04042215593D

 29 29  0     1  0  0  0  0  0999 V2000
   -2.5118   -4.4701    0.5024 H   0  0  0  0  0  0  0  0  0  0  0  0
   -2.6510   -3.4821    0.0538 C   0  0  0  0  0  0  0  0  0  0  0  0
   -3.4199   -2.9463    0.6155 H   0  0  0  0  0  0  0  0  0  0  0  0
   -2.9845   -3.6101   -0.9789 H   0  0  0  0  0  0  0  0  0  0  0  0
   -1.3479   -2.7057    0.0873 C   0  0  0  0  0  0  0  0  0  0  0  0
   -0.3644   -3.1939    0.6122 O   0  0  0  0  0  0  0  0  0  0  0  0
   -1.2813   -1.4534   -0.4901 N   0  0  0  0  0  0  0  0  0  0  0  0
   -2.1088   -1.1332   -0.9839 H   0  0  0  0  0  0  0  0  0  0  0  0
   -0.0548   -0.6376   -0.5761 C   0  0  1  0  0  0  0  0  0  0  0  0
    0.7156   -1.2108   -1.0996 H   0  0  0  0  0  0  0  0  0  0  0  0
   -0.3932    0.6592   -1.3494 C   0  0  0  0  0  0  0  0  0  0  0  0
   -1.4709    0.8422   -1.3546 H   0  0  0  0  0  0  0  0  0  0  0  0
    0.0668    1.5092   -0.8339 H   0  0  0  0  0  0  0  0  0  0  0  0
    0.1166    0.6996   -2.7657 C   0  0  0  0  0  0  0  0  0  0  0  0
    0.1642    1.8929   -3.4740 N   0  0  0  0  0  0  0  0  0  0  0  0
    0.6616    1.6143   -4.6547 C   0  0  0  0  0  0  0  0  0  0  0  0
    0.8338    2.3410   -5.4436 H   0  0  0  0  0  0  0  0  0  0  0  0
    0.9291    0.2623   -4.7449 N   0  0  0  0  0  0  0  0  0  0  0  0
    1.3361   -0.2034   -5.5540 H   0  0  0  0  0  0  0  0  0  0  0  0
    0.5829   -0.3258   -3.5470 C   0  0  0  0  0  0  0  0  0  0  0  0
    0.6691   -1.3732   -3.2737 H   0  0  0  0  0  0  0  0  0  0  0  0
    0.5599   -0.2884    0.7996 C   0  0  0  0  0  0  0  0  0  0  0  0
    1.7742   -0.1916    0.9167 O   0  0  0  0  0  0  0  0  0  0  0  0
   -0.2546    0.1437    1.8317 N   0  0  0  0  0  0  0  0  0  0  0  0
   -1.2503   -0.0146    1.7211 H   0  0  0  0  0  0  0  0  0  0  0  0
    0.2569    0.5275    3.1410 C   0  0  0  0  0  0  0  0  0  0  0  0
    0.9848    1.3402    3.0463 H   0  0  0  0  0  0  0  0  0  0  0  0
   -0.5611    0.8729    3.7801 H   0  0  0  0  0  0  0  0  0  0  0  0
    0.7422   -0.3259    3.6259 H   0  0  0  0  0  0  0  0  0  0  0  0
  1  2  1  0  0  0  0
  2  3  1  0  0  0  0
  2  4  1  0  0  0  0
  2  5  1  0  0  0  0
  5  6  2  0  0  0  0
  5  7  1  0  0  0  0
  7  8  1  0  0  0  0
  7  9  1  0  0  0  0
  9 10  1  0  0  0  0
  9 11  1  0  0  0  0
  9 22  1  0  0  0  0
 11 12  1  0  0  0  0
 11 13  1  0  0  0  0
 11 14  1  0  0  0  0
 14 15  1  0  0  0  0
 14 20  2  0  0  0  0
 15 16  2  0  0  0  0
 16 17  1  0  0  0  0
 16 18  1  0  0  0  0
 18 19  1  0  0  0  0
 18 20  1  0  0  0  0
 20 21  1  0  0  0  0
 22 23  2  0  0  0  0
 22 24  1  0  0  0  0
 24 25  1  0  0  0  0
 24 26  1  0  0  0  0
 26 27  1  0  0  0  0
 26 28  1  0  0  0  0
 26 29  1  0  0  0  0
M  END
$$$$

  -OEChem-04042215593D

 29 29  0     1  0  0  0  0  0999 V2000
   -2.4905   -4.4665    0.5088 H   0  0  0  0  0  0  0  0  0  0  0  0
   -2.6439   -3.4787    0.0645 C   0  0  0  0  0  0  0  0  0  0  0  0
   -3.3977   -2.9445    0.6478 H   0  0  0  0  0  0  0  0  0  0  0  0
   -3.0057   -3.6071   -0.9585 H   0  0  0  0  0  0  0  0  0  0  0  0
   -1.3414   -2.7006    0.0625 C   0  0  0  0  0  0  0  0  0  0  0  0
   -0.3416   -3.1920    0.5519 O   0  0  0  0  0  0  0  0  0  0  0  0
   -1.2946   -1.4415   -0.5024 N   0  0  0  0  0  0  0  0  0  0  0  0
   -2.1415   -1.1084   -0.9525 H   0  0  0  0  0  0  0  0  0  0  0  0
   -0.0763   -0.6137   -0.5951 C   0  0  1  0  0  0  0  0  0  0  0  0
    0.6922   -1.1737   -1.1387 H   0  0  0  0  0  0  0  0  0  0  0  0
   -0.4328    0.6846   -1.3555 C   0  0  0  0  0  0  0  0  0  0  0  0
   -1.5110    0.8650   -1.3535 H   0  0  0  0  0  0  0  0  0  0  0  0
    0.0304    1.5336   -0.8415 H   0  0  0  0  0  0  0  0  0  0  0  0
    0.0742    0.7142   -2.7713 C   0  0  0  0  0  0  0  0  0  0  0  0
    0.4151    1.9007   -3.4056 N   0  0  0  0  0  0  0  0  0  0  0  0
    0.8500    1.5790   -4.6000 C   0  0  0  0  0  0  0  0  0  0  0  0
    1.2027    2.2879   -5.3438 H   0  0  0  0  0  0  0  0  0  0  0  0
    0.7914    0.2089   -4.7691 N   0  0  0  0  0  0  0  0  0  0  0  0
    1.0948   -0.2935   -5.6015 H   0  0  0  0  0  0  0  0  0  0  0  0
    0.3009   -0.3474   -3.6068 C   0  0  0  0  0  0  0  0  0  0  0  0
    0.1428   -1.3986   -3.3841 H   0  0  0  0  0  0  0  0  0  0  0  0
    0.5528   -0.2737    0.7765 C   0  0  0  0  0  0  0  0  0  0  0  0
    1.7680   -0.1759    0.8831 O   0  0  0  0  0  0  0  0  0  0  0  0
   -0.2515    0.1401    1.8243 N   0  0  0  0  0  0  0  0  0  0  0  0
   -1.2482   -0.0170    1.7225 H   0  0  0  0  0  0  0  0  0  0  0  0
    0.2751    0.4978    3.1352 C   0  0  0  0  0  0  0  0  0  0  0  0
    1.0060    1.3086    3.0472 H   0  0  0  0  0  0  0  0  0  0  0  0
   -0.5348    0.8350    3.7890 H   0  0  0  0  0  0  0  0  0  0  0  0
    0.7612   -0.3665    3.5997 H   0  0  0  0  0  0  0  0  0  0  0  0
  1  2  1  0  0  0  0
  2  3  1  0  0  0  0
  2  4  1  0  0  0  0
  2  5  1  0  0  0  0
  5  6  2  0  0  0  0
  5  7  1  0  0  0  0
  7  8  1  0  0  0  0
  7  9  1  0  0  0  0
  9 10  1  0  0  0  0
  9 11  1  0  0  0  0
  9 22  1  0  0  0  0
 11 12  1  0  0  0  0
 11 13  1  0  0  0  0
 11 14  1  0  0  0  0
 14 15  1  0  0  0  0
 14 20  2  0  0  0  0
 15 16  2  0  0  0  0
 16 17  1  0  0  0  0
 16 18  1  0  0  0  0
 18 19  1  0  0  0  0
 18 20  1  0  0  0  0
 20 21  1  0  0  0  0
 22 23  2  0  0  0  0
 22 24  1  0  0  0  0
 24 25  1  0  0  0  0
 24 26  1  0  0  0  0
 26 27  1  0  0  0  0
 26 28  1  0  0  0  0
 26 29  1  0  0  0  0
M  END
$$$$

  -OEChem-04042215593D

 29 29  0     1  0  0  0  0  0999 V2000
   -2.4767   -4.4662    0.4799 H   0  0  0  0  0  0  0  0  0  0  0  0
   -2.6392   -3.4761    0.0442 C   0  0  0  0  0  0  0  0  0  0  0  0
   -3.3903   -2.9499    0.6381 H   0  0  0  0  0  0  0  0  0  0  0  0
   -3.0095   -3.5989   -0.9765 H   0  0  0  0  0  0  0  0  0  0  0  0
   -1.3402   -2.6921    0.0358 C   0  0  0  0  0  0  0  0  0  0  0  0
   -0.3312   -3.1865    0.5024 O   0  0  0  0  0  0  0  0  0  0  0  0
   -1.3084   -1.4244   -0.5107 N   0  0  0  0  0  0  0  0  0  0  0  0
   -2.1681   -1.0827   -0.9285 H   0  0  0  0  0  0  0  0  0  0  0  0
   -0.0970   -0.5864   -0.6060 C   0  0  1  0  0  0  0  0  0  0  0  0
    0.6659   -1.1346   -1.1704 H   0  0  0  0  0  0  0  0  0  0  0  0
   -0.4682    0.7153   -1.3517 C   0  0  0  0  0  0  0  0  0  0  0  0
   -1.5476    0.8873   -1.3482 H   0  0  0  0  0  0  0  0  0  0  0  0
   -0.0086    1.5659   -0.8367 H   0  0  0  0  0  0  0  0  0  0  0  0
    0.0391    0.7351   -2.7659 C   0  0  0  0  0  0  0  0  0  0  0  0
    0.6637    1.8393   -3.3280 N   0  0  0  0  0  0  0  0  0  0  0  0
    1.0245    1.4910   -4.5394 C   0  0  0  0  0  0  0  0  0  0  0  0
    1.5471    2.1355   -5.2406 H   0  0  0  0  0  0  0  0  0  0  0  0
    0.6425    0.1861   -4.7882 N   0  0  0  0  0  0  0  0  0  0  0  0
    0.8334   -0.3278   -5.6464 H   0  0  0  0  0  0  0  0  0  0  0  0
    0.0201   -0.3024   -3.6589 C   0  0  0  0  0  0  0  0  0  0  0  0
   -0.3779   -1.2986   -3.4902 H   0  0  0  0  0  0  0  0  0  0  0  0
    0.5490   -0.2605    0.7612 C   0  0  0  0  0  0  0  0  0  0  0  0
    1.7648   -0.1583    0.8547 O   0  0  0  0  0  0  0  0  0  0  0  0
   -0.2434    0.1331    1.8259 N   0  0  0  0  0  0  0  0  0  0  0  0
   -1.2398   -0.0329    1.7377 H   0  0  0  0  0  0  0  0  0  0  0  0
    0.2997    0.4821    3.1324 C   0  0  0  0  0  0  0  0  0  0  0  0
    1.0032    1.3168    3.0447 H   0  0  0  0  0  0  0  0  0  0  0  0
   -0.5058    0.7808    3.8099 H   0  0  0  0  0  0  0  0  0  0  0  0
    0.8225   -0.3750    3.5695 H   0  0  0  0  0  0  0  0  0  0  0  0
  1  2  1  0  0  0  0
  2  3  1  0  0  0  0
  2  4  1  0  0  0  0
  2  5  1  0  0  0  0
  5  6  2  0  0  0  0
  5  7  1  0  0  0  0
  7  8  1  0  0  0  0
  7  9  1  0  0  0  0
  9 10  1  0  0  0  0
  9 11  1  0  0  0  0
  9 22  1  0  0  0  0
 11 12  1  0  0  0  0
 11 13  1  0  0  0  0
 11 14  1  0  0  0  0
 14 15  1  0  0  0  0
 14 20  2  0  0  0  0
 15 16  2  0  0  0  0
 16 17  1  0  0  0  0
 16 18  1  0  0  0  0
 18 19  1  0  0  0  0
 18 20  1  0  0  0  0
 20 21  1  0  0  0  0
 22 23  2  0  0  0  0
 22 24  1  0  0  0  0
 24 25  1  0  0  0  0
 24 26  1  0  0  0  0
 26 27  1  0  0  0  0
 26 28  1  0  0  0  0
 26 29  1  0  0  0  0
M  END
$$$$

  -OEChem-04042215593D

 29 29  0     1  0  0  0  0  0999 V2000
   -2.4582   -4.4650    0.4559 H   0  0  0  0  0  0  0  0  0  0  0  0
   -2.6277   -3.4727    0.0281 C   0  0  0  0  0  0  0  0  0  0  0  0
   -3.3792   -2.9554    0.6291 H   0  0  0  0  0  0  0  0  0  0  0  0
   -3.0019   -3.5897   -0.9916 H   0  0  0  0  0  0  0  0  0  0  0  0
   -1.3331   -2.6816    0.0194 C   0  0  0  0  0  0  0  0  0  0  0  0
   -0.3210   -3.1730    0.4822 O   0  0  0  0  0  0  0  0  0  0  0  0
   -1.3115   -1.4094   -0.5173 N   0  0  0  0  0  0  0  0  0  0  0  0
   -2.1753   -1.0699   -0.9273 H   0  0  0  0  0  0  0  0  0  0  0  0
   -0.1049   -0.5639   -0.6133 C   0  0  1  0  0  0  0  0  0  0  0  0
    0.6552   -1.1025   -1.1920 H   0  0  0  0  0  0  0  0  0  0  0  0
   -0.4852    0.7416   -1.3463 C   0  0  0  0  0  0  0  0  0  0  0  0
   -1.5666    0.9011   -1.3450 H   0  0  0  0  0  0  0  0  0  0  0  0
   -0.0354    1.5970   -0.8307 H   0  0  0  0  0  0  0  0  0  0  0  0
    0.0254    0.7507   -2.7576 C   0  0  0  0  0  0  0  0  0  0  0  0
    0.9064    1.7034   -3.2468 N   0  0  0  0  0  0  0  0  0  0  0  0
    1.1767    1.3637   -4.4838 C   0  0  0  0  0  0  0  0  0  0  0  0
    1.8464    1.9074   -5.1441 H   0  0  0  0  0  0  0  0  0  0  0  0
    0.4850    0.2144   -4.8189 N   0  0  0  0  0  0  0  0  0  0  0  0
    0.5480   -0.2680   -5.7136 H   0  0  0  0  0  0  0  0  0  0  0  0
   -0.2467   -0.1833   -3.7197 C   0  0  0  0  0  0  0  0  0  0  0  0
   -0.8791   -1.0591   -3.6159 H   0  0  0  0  0  0  0  0  0  0  0  0
    0.5479   -0.2451    0.7523 C   0  0  0  0  0  0  0  0  0  0  0  0
    1.7639   -0.1456    0.8437 O   0  0  0  0  0  0  0  0  0  0  0  0
   -0.2409    0.1359    1.8242 N   0  0  0  0  0  0  0  0  0  0  0  0
   -1.2366   -0.0356    1.7392 H   0  0  0  0  0  0  0  0  0  0  0  0
    0.3078    0.4655    3.1334 C   0  0  0  0  0  0  0  0  0  0  0  0
    1.0108    1.3014    3.0555 H   0  0  0  0  0  0  0  0  0  0  0  0
   -0.4948    0.7546    3.8182 H   0  0  0  0  0  0  0  0  0  0  0  0
    0.8324   -0.3978    3.5559 H   0  0  0  0  0  0  0  0  0  0  0  0
  1  2  1  0  0  0  0
  2  3  1  0  0  0  0
  2  4  1  0  0  0  0
  2  5  1  0  0  0  0
  5  6  2  0  0  0  0
  5  7  1  0  0  0  0
  7  8  1  0  0  0  0
  7  9  1  0  0  0  0
  9 10  1  0  0  0  0
  9 11  1  0  0  0  0
  9 22  1  0  0  0  0
 11 12  1  0  0  0  0
 11 13  1  0  0  0  0
 11 14  1  0  0  0  0
 14 15  1  0  0  0  0
 14 20  2  0  0  0  0
 15 16  2  0  0  0  0
 16 17  1  0  0  0  0
 16 18  1  0  0  0  0
 18 19  1  0  0  0  0
 18 20  1  0  0  0  0
 20 21  1  0  0  0  0
 22 23  2  0  0  0  0
 22 24  1  0  0  0  0
 24 25  1  0  0  0  0
 24 26  1  0  0  0  0
 26 27  1  0  0  0  0
 26 28  1  0  0  0  0
 26 29  1  0  0  0  0
M  END
$$$$

  -OEChem-04042215593D

 29 29  0     1  0  0  0  0  0999 V2000
   -2.4466   -4.4653    0.4599 H   0  0  0  0  0  0  0  0  0  0  0  0
   -2.6144   -3.4781    0.0196 C   0  0  0  0  0  0  0  0  0  0  0  0
   -3.3857   -2.9631    0.5971 H   0  0  0  0  0  0  0  0  0  0  0  0
   -2.9612   -3.6074   -1.0083 H   0  0  0  0  0  0  0  0  0  0  0  0
   -1.3276   -2.6744    0.0369 C   0  0  0  0  0  0  0  0  0  0  0  0
   -0.3241   -3.1525    0.5310 O   0  0  0  0  0  0  0  0  0  0  0  0
   -1.3058   -1.4053   -0.5078 N   0  0  0  0  0  0  0  0  0  0  0  0
   -2.1577   -1.0866   -0.9569 H   0  0  0  0  0  0  0  0  0  0  0  0
   -0.0983   -0.5608   -0.6081 C   0  0  1  0  0  0  0  0  0  0  0  0
    0.6613   -1.1018   -1.1855 H   0  0  0  0  0  0  0  0  0  0  0  0
   -0.4733    0.7431   -1.3453 C   0  0  0  0  0  0  0  0  0  0  0  0
   -1.5558    0.8946   -1.3504 H   0  0  0  0  0  0  0  0  0  0  0  0
   -0.0306    1.6060   -0.8360 H   0  0  0  0  0  0  0  0  0  0  0  0
    0.0431    0.7331   -2.7539 C   0  0  0  0  0  0  0  0  0  0  0  0
    1.1406    1.4670   -3.1769 N   0  0  0  0  0  0  0  0  0  0  0  0
    1.3003    1.2024   -4.4506 C   0  0  0  0  0  0  0  0  0  0  0  0
    2.0853    1.6171   -5.0768 H   0  0  0  0  0  0  0  0  0  0  0  0
    0.3212    0.3230   -4.8748 N   0  0  0  0  0  0  0  0  0  0  0  0
    0.2334   -0.0437   -5.8209 H   0  0  0  0  0  0  0  0  0  0  0  0
   -0.4849    0.0224   -3.7965 C   0  0  0  0  0  0  0  0  0  0  0  0
   -1.3428   -0.6411   -3.7653 H   0  0  0  0  0  0  0  0  0  0  0  0
    0.5507   -0.2366    0.7588 C   0  0  0  0  0  0  0  0  0  0  0  0
    1.7665   -0.1424    0.8588 O   0  0  0  0  0  0  0  0  0  0  0  0
   -0.2429    0.1494    1.8258 N   0  0  0  0  0  0  0  0  0  0  0  0
   -1.2366   -0.0310    1.7375 H   0  0  0  0  0  0  0  0  0  0  0  0
    0.2999    0.4612    3.1420 C   0  0  0  0  0  0  0  0  0  0  0  0
    1.0145    1.2885    3.0765 H   0  0  0  0  0  0  0  0  0  0  0  0
   -0.5044    0.7551    3.8228 H   0  0  0  0  0  0  0  0  0  0  0  0
    0.8096   -0.4126    3.5614 H   0  0  0  0  0  0  0  0  0  0  0  0
  1  2  1  0  0  0  0
  2  3  1  0  0  0  0
  2  4  1  0  0  0  0
  2  5  1  0  0  0  0
  5  6  2  0  0  0  0
  5  7  1  0  0  0  0
  7  8  1  0  0  0  0
  7  9  1  0  0  0  0
  9 10  1  0  0  0  0
  9 11  1  0  0  0  0
  9 22  1  0  0  0  0
 11 12  1  0  0  0  0
 11 13  1  0  0  0  0
 11 14  1  0  0  0  0
 14 15  1  0  0  0  0
 14 20  2  0  0  0  0
 15 16  2  0  0  0  0
 16 17  1  0  0  0  0
 16 18  1  0  0  0  0
 18 19  1  0  0  0  0
 18 20  1  0  0  0  0
 20 21  1  0  0  0  0
 22 23  2  0  0  0  0
 22 24  1  0  0  0  0
 24 25  1  0  0  0  0
 24 26  1  0  0  0  0
 26 27  1  0  0  0  0
 26 28  1  0  0  0  0
 26 29  1  0  0  0  0
M  END
$$$$

  -OEChem-04042215593D

 29 29  0     1  0  0  0  0  0999 V2000
   -2.4480   -4.4900    0.4125 H   0  0  0  0  0  0  0  0  0  0  0  0
   -2.6167   -3.4965   -0.0136 C   0  0  0  0  0  0  0  0  0  0  0  0
   -3.4196   -3.0074    0.5430 H   0  0  0  0  0  0  0  0  0  0  0  0
   -2.9208   -3.6109   -1.0568 H   0  0  0  0  0  0  0  0  0  0  0  0
   -1.3466   -2.6704    0.0714 C   0  0  0  0  0  0  0  0  0  0  0  0
   -0.3681   -3.1265    0.6322 O   0  0  0  0  0  0  0  0  0  0  0  0
   -1.3150   -1.4072   -0.4870 N   0  0  0  0  0  0  0  0  0  0  0  0
   -2.1333   -1.1306   -1.0182 H   0  0  0  0  0  0  0  0  0  0  0  0
   -0.0989   -0.5754   -0.5975 C   0  0  1  0  0  0  0  0  0  0  0  0
    0.6539   -1.1246   -1.1759 H   0  0  0  0  0  0  0  0  0  0  0  0
   -0.4674    0.7308   -1.3346 C   0  0  0  0  0  0  0  0  0  0  0  0
   -1.5489    0.8891   -1.3284 H   0  0  0  0  0  0  0  0  0  0  0  0
   -0.0130    1.5924   -0.8336 H   0  0  0  0  0  0  0  0  0  0  0  0
    0.0389    0.7091   -2.7461 C   0  0  0  0  0  0  0  0  0  0  0  0
    1.2893    1.1731   -3.1230 N   0  0  0  0  0  0  0  0  0  0  0  0
    1.3728    1.0170   -4.4214 C   0  0  0  0  0  0  0  0  0  0  0  0
    2.2374    1.2810   -5.0239 H   0  0  0  0  0  0  0  0  0  0  0  0
    0.1971    0.4739   -4.9058 N   0  0  0  0  0  0  0  0  0  0  0  0
    0.0112    0.2579   -5.8836 H   0  0  0  0  0  0  0  0  0  0  0  0
   -0.6606    0.2840   -3.8419 C   0  0  0  0  0  0  0  0  0  0  0  0
   -1.6696   -0.1147   -3.8579 H   0  0  0  0  0  0  0  0  0  0  0  0
    0.5565   -0.2427    0.7644 C   0  0  0  0  0  0  0  0  0  0  0  0
    1.7728   -0.1518    0.8610 O   0  0  0  0  0  0  0  0  0  0  0  0
   -0.2329    0.1624    1.8272 N   0  0  0  0  0  0  0  0  0  0  0  0
   -1.2259   -0.0264    1.7467 H   0  0  0  0  0  0  0  0  0  0  0  0
    0.3159    0.4915    3.1366 C   0  0  0  0  0  0  0  0  0  0  0  0
    1.0094    1.3355    3.0597 H   0  0  0  0  0  0  0  0  0  0  0  0
   -0.4877    0.7679    3.8256 H   0  0  0  0  0  0  0  0  0  0  0  0
    0.8517   -0.3682    3.5530 H   0  0  0  0  0  0  0  0  0  0  0  0
  1  2  1  0  0  0  0
  2  3  1  0  0  0  0
  2  4  1  0  0  0  0
  2  5  1  0  0  0  0
  5  6  2  0  0  0  0
  5  7  1  0  0  0  0
  7  8  1  0  0  0  0
  7  9  1  0  0  0  0
  9 10  1  0  0  0  0
  9 11  1  0  0  0  0
  9 22  1  0  0  0  0
 11 12  1  0  0  0  0
 11 13  1  0  0  0  0
 11 14  1  0  0  0  0
 14 15  1  0  0  0  0
 14 20  2  0  0  0  0
 15 16  2  0  0  0  0
 16 17  1  0  0  0  0
 16 18  1  0  0  0  0
 18 19  1  0  0  0  0
 18 20  1  0  0  0  0
 20 21  1  0  0  0  0
 22 23  2  0  0  0  0
 22 24  1  0  0  0  0
 24 25  1  0  0  0  0
 24 26  1  0  0  0  0
 26 27  1  0  0  0  0
 26 28  1  0  0  0  0
 26 29  1  0  0  0  0
M  END
$$$$

  -OEChem-04042215593D

 29 29  0     1  0  0  0  0  0999 V2000
   -2.4421   -4.4862    0.4227 H   0  0  0  0  0  0  0  0  0  0  0  0
   -2.6092   -3.4993   -0.0188 C   0  0  0  0  0  0  0  0  0  0  0  0
   -3.4281   -3.0098    0.5136 H   0  0  0  0  0  0  0  0  0  0  0  0
   -2.8883   -3.6278   -1.0674 H   0  0  0  0  0  0  0  0  0  0  0  0
   -1.3479   -2.6624    0.0855 C   0  0  0  0  0  0  0  0  0  0  0  0
   -0.3778   -3.1068    0.6699 O   0  0  0  0  0  0  0  0  0  0  0  0
   -1.3175   -1.4023   -0.4796 N   0  0  0  0  0  0  0  0  0  0  0  0
   -2.1199   -1.1493   -1.0459 H   0  0  0  0  0  0  0  0  0  0  0  0
   -0.0992   -0.5753   -0.5990 C   0  0  1  0  0  0  0  0  0  0  0  0
    0.6507   -1.1271   -1.1787 H   0  0  0  0  0  0  0  0  0  0  0  0
   -0.4704    0.7320   -1.3332 C   0  0  0  0  0  0  0  0  0  0  0  0
   -1.5505    0.8996   -1.3109 H   0  0  0  0  0  0  0  0  0  0  0  0
   -0.0000    1.5885   -0.8389 H   0  0  0  0  0  0  0  0  0  0  0  0
    0.0227    0.7096   -2.7494 C   0  0  0  0  0  0  0  0  0  0  0  0
    1.3495    0.8814   -3.1110 N   0  0  0  0  0  0  0  0  0  0  0  0
    1.3938    0.8292   -4.4194 C   0  0  0  0  0  0  0  0  0  0  0  0
    2.2976    0.9266   -5.0141 H   0  0  0  0  0  0  0  0  0  0  0  0
    0.1211    0.6377   -4.9245 N   0  0  0  0  0  0  0  0  0  0  0  0
   -0.1120    0.5709   -5.9135 H   0  0  0  0  0  0  0  0  0  0  0  0
   -0.7583    0.5697   -3.8635 C   0  0  0  0  0  0  0  0  0  0  0  0
   -1.8353    0.4397   -3.8932 H   0  0  0  0  0  0  0  0  0  0  0  0
    0.5585   -0.2420    0.7624 C   0  0  0  0  0  0  0  0  0  0  0  0
    1.7744   -0.1448    0.8595 O   0  0  0  0  0  0  0  0  0  0  0  0
   -0.2325    0.1677    1.8224 N   0  0  0  0  0  0  0  0  0  0  0  0
   -1.2226   -0.0367    1.7435 H   0  0  0  0  0  0  0  0  0  0  0  0
    0.3138    0.4862    3.1354 C   0  0  0  0  0  0  0  0  0  0  0  0
    1.0387    1.3037    3.0608 H   0  0  0  0  0  0  0  0  0  0  0  0
   -0.4867    0.7979    3.8129 H   0  0  0  0  0  0  0  0  0  0  0  0
    0.8126   -0.3894    3.5643 H   0  0  0  0  0  0  0  0  0  0  0  0
  1  2  1  0  0  0  0
  2  3  1  0  0  0  0
  2  4  1  0  0  0  0
  2  5  1  0  0  0  0
  5  6  2  0  0  0  0
  5  7  1  0  0  0  0
  7  8  1  0  0  0  0
  7  9  1  0  0  0  0
  9 10  1  0  0  0  0
  9 11  1  0  0  0  0
  9 22  1  0  0  0  0
 11 12  1  0  0  0  0
 11 13  1  0  0  0  0
 11 14  1  0  0  0  0
 14 15  1  0  0  0  0
 14 20  2  0  0  0  0
 15 16  2  0  0  0  0
 16 17  1  0  0  0  0
 16 18  1  0  0  0  0
 18 19  1  0  0  0  0
 18 20  1  0  0  0  0
 20 21  1  0  0  0  0
 22 23  2  0  0  0  0
 22 24  1  0  0  0  0
 24 25  1  0  0  0  0
 24 26  1  0  0  0  0
 26 27  1  0  0  0  0
 26 28  1  0  0  0  0
 26 29  1  0  0  0  0
M  END
$$$$

  -OEChem-04042215593D

 29 29  0     1  0  0  0  0  0999 V2000
   -2.4581   -4.4797    0.4310 H   0  0  0  0  0  0  0  0  0  0  0  0
   -2.6124   -3.5048   -0.0406 C   0  0  0  0  0  0  0  0  0  0  0  0
   -3.4552   -3.0086    0.4462 H   0  0  0  0  0  0  0  0  0  0  0  0
   -2.8471   -3.6602   -1.0963 H   0  0  0  0  0  0  0  0  0  0  0  0
   -1.3612   -2.6574    0.0951 C   0  0  0  0  0  0  0  0  0  0  0  0
   -0.4070   -3.0899    0.7137 O   0  0  0  0  0  0  0  0  0  0  0  0
   -1.3262   -1.3989   -0.4732 N   0  0  0  0  0  0  0  0  0  0  0  0
   -2.1077   -1.1674   -1.0769 H   0  0  0  0  0  0  0  0  0  0  0  0
   -0.1026   -0.5796   -0.5947 C   0  0  1  0  0  0  0  0  0  0  0  0
    0.6425   -1.1369   -1.1750 H   0  0  0  0  0  0  0  0  0  0  0  0
   -0.4717    0.7312   -1.3270 C   0  0  0  0  0  0  0  0  0  0  0  0
   -1.5496    0.9106   -1.2916 H   0  0  0  0  0  0  0  0  0  0  0  0
    0.0127    1.5796   -0.8326 H   0  0  0  0  0  0  0  0  0  0  0  0
    0.0101    0.7220   -2.7487 C   0  0  0  0  0  0  0  0  0  0  0  0
    1.3387    0.5971   -3.1244 N   0  0  0  0  0  0  0  0  0  0  0  0
    1.3690    0.6493   -4.4331 C   0  0  0  0  0  0  0  0  0  0  0  0
    2.2697    0.5791   -5.0363 H   0  0  0  0  0  0  0  0  0  0  0  0
    0.0868    0.8084   -4.9251 N   0  0  0  0  0  0  0  0  0  0  0  0
   -0.1565    0.8849   -5.9110 H   0  0  0  0  0  0  0  0  0  0  0  0
   -0.7824    0.8607   -3.8550 C   0  0  0  0  0  0  0  0  0  0  0  0
   -1.8597    0.9912   -3.8727 H   0  0  0  0  0  0  0  0  0  0  0  0
    0.5595   -0.2466    0.7652 C   0  0  0  0  0  0  0  0  0  0  0  0
    1.7755   -0.1424    0.8562 O   0  0  0  0  0  0  0  0  0  0  0  0
   -0.2267    0.1707    1.8259 N   0  0  0  0  0  0  0  0  0  0  0  0
   -1.2154   -0.0442    1.7556 H   0  0  0  0  0  0  0  0  0  0  0  0
    0.3262    0.4948    3.1350 C   0  0  0  0  0  0  0  0  0  0  0  0
    1.0462    1.3159    3.0542 H   0  0  0  0  0  0  0  0  0  0  0  0
   -0.4718    0.8030    3.8170 H   0  0  0  0  0  0  0  0  0  0  0  0
    0.8327   -0.3769    3.5627 H   0  0  0  0  0  0  0  0  0  0  0  0
  1  2  1  0  0  0  0
  2  3  1  0  0  0  0
  2  4  1  0  0  0  0
  2  5  1  0  0  0  0
  5  6  2  0  0  0  0
  5  7  1  0  0  0  0
  7  8  1  0  0  0  0
  7  9  1  0  0  0  0
  9 10  1  0  0  0  0
  9 11  1  0  0  0  0
  9 22  1  0  0  0  0
 11 12  1  0  0  0  0
 11 13  1  0  0  0  0
 11 14  1  0  0  0  0
 14 15  1  0  0  0  0
 14 20  2  0  0  0  0
 15 16  2  0  0  0  0
 16 17  1  0  0  0  0
 16 18  1  0  0  0  0
 18 19  1  0  0  0  0
 18 20  1  0  0  0  0
 20 21  1  0  0  0  0
 22 23  2  0  0  0  0
 22 24  1  0  0  0  0
 24 25  1  0  0  0  0
 24 26  1  0  0  0  0
 26 27  1  0  0  0  0
 26 28  1  0  0  0  0
 26 29  1  0  0  0  0
M  END
$$$$

  -OEChem-04042215593D

 29 29  0     1  0  0  0  0  0999 V2000
   -2.4713   -4.4815    0.4168 H   0  0  0  0  0  0  0  0  0  0  0  0
   -2.6171   -3.5075   -0.0593 C   0  0  0  0  0  0  0  0  0  0  0  0
   -3.4739   -3.0138    0.4052 H   0  0  0  0  0  0  0  0  0  0  0  0
   -2.8242   -3.6640   -1.1206 H   0  0  0  0  0  0  0  0  0  0  0  0
   -1.3728   -2.6555    0.1073 C   0  0  0  0  0  0  0  0  0  0  0  0
   -0.4366   -3.0798    0.7585 O   0  0  0  0  0  0  0  0  0  0  0  0
   -1.3273   -1.4001   -0.4672 N   0  0  0  0  0  0  0  0  0  0  0  0
   -2.0877   -1.1855   -1.1034 H   0  0  0  0  0  0  0  0  0  0  0  0
   -0.0972   -0.5901   -0.5866 C   0  0  1  0  0  0  0  0  0  0  0  0
    0.6454   -1.1569   -1.1599 H   0  0  0  0  0  0  0  0  0  0  0  0
   -0.4588    0.7227   -1.3224 C   0  0  0  0  0  0  0  0  0  0  0  0
   -1.5345    0.9136   -1.2785 H   0  0  0  0  0  0  0  0  0  0  0  0
    0.0362    1.5629   -0.8246 H   0  0  0  0  0  0  0  0  0  0  0  0
    0.0152    0.7332   -2.7491 C   0  0  0  0  0  0  0  0  0  0  0  0
    1.2709    0.3279   -3.1778 N   0  0  0  0  0  0  0  0  0  0  0  0
    1.3008    0.4902   -4.4775 C   0  0  0  0  0  0  0  0  0  0  0  0
    2.1528    0.2641   -5.1123 H   0  0  0  0  0  0  0  0  0  0  0  0
    0.0877    0.9878   -4.9145 N   0  0  0  0  0  0  0  0  0  0  0  0
   -0.1405    1.2088   -5.8820 H   0  0  0  0  0  0  0  0  0  0  0  0
   -0.7342    1.1438   -3.8174 C   0  0  0  0  0  0  0  0  0  0  0  0
   -1.7528    1.5186   -3.7922 H   0  0  0  0  0  0  0  0  0  0  0  0
    0.5626   -0.2540    0.7737 C   0  0  0  0  0  0  0  0  0  0  0  0
    1.7782   -0.1434    0.8642 O   0  0  0  0  0  0  0  0  0  0  0  0
   -0.2254    0.1747    1.8286 N   0  0  0  0  0  0  0  0  0  0  0  0
   -1.2119   -0.0515    1.7614 H   0  0  0  0  0  0  0  0  0  0  0  0
    0.3260    0.5074    3.1361 C   0  0  0  0  0  0  0  0  0  0  0  0
    1.0484    1.3259    3.0505 H   0  0  0  0  0  0  0  0  0  0  0  0
   -0.4721    0.8232    3.8144 H   0  0  0  0  0  0  0  0  0  0  0  0
    0.8290   -0.3628    3.5707 H   0  0  0  0  0  0  0  0  0  0  0  0
  1  2  1  0  0  0  0
  2  3  1  0  0  0  0
  2  4  1  0  0  0  0
  2  5  1  0  0  0  0
  5  6  2  0  0  0  0
  5  7  1  0  0  0  0
  7  8  1  0  0  0  0
  7  9  1  0  0  0  0
  9 10  1  0  0  0  0
  9 11  1  0  0  0  0
  9 22  1  0  0  0  0
 11 12  1  0  0  0  0
 11 13  1  0  0  0  0
 11 14  1  0  0  0  0
 14 15  1  0  0  0  0
 14 20  2  0  0  0  0
 15 16  2  0  0  0  0
 16 17  1  0  0  0  0
 16 18  1  0  0  0  0
 18 19  1  0  0  0  0
 18 20  1  0  0  0  0
 20 21  1  0  0  0  0
 22 23  2  0  0  0  0
 22 24  1  0  0  0  0
 24 25  1  0  0  0  0
 24 26  1  0  0  0  0
 26 27  1  0  0  0  0
 26 28  1  0  0  0  0
 26 29  1  0  0  0  0
M  END
$$$$

  -OEChem-04042215593D

 29 29  0     1  0  0  0  0  0999 V2000
   -2.4732   -4.4983    0.3814 H   0  0  0  0  0  0  0  0  0  0  0  0
   -2.6221   -3.5160   -0.0763 C   0  0  0  0  0  0  0  0  0  0  0  0
   -3.4902   -3.0404    0.3860 H   0  0  0  0  0  0  0  0  0  0  0  0
   -2.8131   -3.6533   -1.1433 H   0  0  0  0  0  0  0  0  0  0  0  0
   -1.3891   -2.6546    0.1248 C   0  0  0  0  0  0  0  0  0  0  0  0
   -0.4737   -3.0672    0.8125 O   0  0  0  0  0  0  0  0  0  0  0  0
   -1.3321   -1.4037   -0.4586 N   0  0  0  0  0  0  0  0  0  0  0  0
   -2.0713   -1.2056   -1.1246 H   0  0  0  0  0  0  0  0  0  0  0  0
   -0.0943   -0.6061   -0.5777 C   0  0  1  0  0  0  0  0  0  0  0  0
    0.6450   -1.1860   -1.1407 H   0  0  0  0  0  0  0  0  0  0  0  0
   -0.4423    0.7080   -1.3198 C   0  0  0  0  0  0  0  0  0  0  0  0
   -1.5152    0.9134   -1.2709 H   0  0  0  0  0  0  0  0  0  0  0  0
    0.0643    1.5407   -0.8210 H   0  0  0  0  0  0  0  0  0  0  0  0
    0.0258    0.7314   -2.7502 C   0  0  0  0  0  0  0  0  0  0  0  0
    1.1382    0.0748   -3.2595 N   0  0  0  0  0  0  0  0  0  0  0  0
    1.1942    0.3517   -4.5390 C   0  0  0  0  0  0  0  0  0  0  0  0
    1.9603   -0.0084   -5.2199 H   0  0  0  0  0  0  0  0  0  0  0  0
    0.1323    1.1643   -4.8875 N   0  0  0  0  0  0  0  0  0  0  0  0
   -0.0458    1.5277   -5.8220 H   0  0  0  0  0  0  0  0  0  0  0  0
   -0.6146    1.4064   -3.7532 C   0  0  0  0  0  0  0  0  0  0  0  0
   -1.5121    2.0101   -3.6589 H   0  0  0  0  0  0  0  0  0  0  0  0
    0.5641   -0.2655    0.7823 C   0  0  0  0  0  0  0  0  0  0  0  0
    1.7791   -0.1412    0.8674 O   0  0  0  0  0  0  0  0  0  0  0  0
   -0.2245    0.1781    1.8306 N   0  0  0  0  0  0  0  0  0  0  0  0
   -1.2087   -0.0595    1.7691 H   0  0  0  0  0  0  0  0  0  0  0  0
    0.3255    0.5308    3.1334 C   0  0  0  0  0  0  0  0  0  0  0  0
    1.0502    1.3461    3.0362 H   0  0  0  0  0  0  0  0  0  0  0  0
   -0.4732    0.8596    3.8050 H   0  0  0  0  0  0  0  0  0  0  0  0
    0.8253   -0.3335    3.5833 H   0  0  0  0  0  0  0  0  0  0  0  0
  1  2  1  0  0  0  0
  2  3  1  0  0  0  0
  2  4  1  0  0  0  0
  2  5  1  0  0  0  0
  5  6  2  0  0  0  0
  5  7  1  0  0  0  0
  7  8  1  0  0  0  0
  7  9  1  0  0  0  0
  9 10  1  0  0  0  0
  9 11  1  0  0  0  0
  9 22  1  0  0  0  0
 11 12  1  0  0  0  0
 11 13  1  0  0  0  0
 11 14  1  0  0  0  0
 14 15  1  0  0  0  0
 14 20  2  0  0  0  0
 15 16  2  0  0  0  0
 16 17  1  0  0  0  0
 16 18  1  0  0  0  0
 18 19  1  0  0  0  0
 18 20  1  0  0  0  0
 20 21  1  0  0  0  0
 22 23  2  0  0  0  0
 22 24  1  0  0  0  0
 24 25  1  0  0  0  0
 24 26  1  0  0  0  0
 26 27  1  0  0  0  0
 26 28  1  0  0  0  0
 26 29  1  0  0  0  0
M  END
$$$$

  -OEChem-04042215593D

 29 29  0     1  0  0  0  0  0999 V2000
   -2.5067   -4.4710    0.4646 H   0  0  0  0  0  0  0  0  0  0  0  0
   -2.6247   -3.5195   -0.0621 C   0  0  0  0  0  0  0  0  0  0  0  0
   -3.5087   -3.0093    0.3278 H   0  0  0  0  0  0  0  0  0  0  0  0
   -2.7677   -3.7237   -1.1260 H   0  0  0  0  0  0  0  0  0  0  0  0
   -1.3937   -2.6555    0.1396 C   0  0  0  0  0  0  0  0  0  0  0  0
   -0.4851   -3.0592    0.8417 O   0  0  0  0  0  0  0  0  0  0  0  0
   -1.3343   -1.4096   -0.4541 N   0  0  0  0  0  0  0  0  0  0  0  0
   -2.0613   -1.2275   -1.1382 H   0  0  0  0  0  0  0  0  0  0  0  0
   -0.0941   -0.6171   -0.5794 C   0  0  1  0  0  0  0  0  0  0  0  0
    0.6451   -1.2031   -1.1357 H   0  0  0  0  0  0  0  0  0  0  0  0
   -0.4363    0.6979   -1.3246 C   0  0  0  0  0  0  0  0  0  0  0  0
   -1.5094    0.9020   -1.2765 H   0  0  0  0  0  0  0  0  0  0  0  0
    0.0681    1.5312   -0.8244 H   0  0  0  0  0  0  0  0  0  0  0  0
    0.0233    0.7288   -2.7583 C   0  0  0  0  0  0  0  0  0  0  0  0
    0.9350   -0.1306   -3.3585 N   0  0  0  0  0  0  0  0  0  0  0  0
    1.0555    0.2495   -4.6068 C   0  0  0  0  0  0  0  0  0  0  0  0
    1.7055   -0.2203   -5.3396 H   0  0  0  0  0  0  0  0  0  0  0  0
    0.2301    1.3309   -4.8474 N   0  0  0  0  0  0  0  0  0  0  0  0
    0.1484    1.8204   -5.7367 H   0  0  0  0  0  0  0  0  0  0  0  0
   -0.4297    1.6370   -3.6755 C   0  0  0  0  0  0  0  0  0  0  0  0
   -1.1464    2.4333   -3.4988 H   0  0  0  0  0  0  0  0  0  0  0  0
    0.5637   -0.2693    0.7782 C   0  0  0  0  0  0  0  0  0  0  0  0
    1.7783   -0.1382    0.8603 O   0  0  0  0  0  0  0  0  0  0  0  0
   -0.2263    0.1838    1.8210 N   0  0  0  0  0  0  0  0  0  0  0  0
   -1.2091   -0.0603    1.7602 H   0  0  0  0  0  0  0  0  0  0  0  0
    0.3223    0.5319    3.1256 C   0  0  0  0  0  0  0  0  0  0  0  0
    1.0398    1.3540    3.0334 H   0  0  0  0  0  0  0  0  0  0  0  0
   -0.4788    0.8484    3.8001 H   0  0  0  0  0  0  0  0  0  0  0  0
    0.8297   -0.3314    3.5691 H   0  0  0  0  0  0  0  0  0  0  0  0
  1  2  1  0  0  0  0
  2  3  1  0  0  0  0
  2  4  1  0  0  0  0
  2  5  1  0  0  0  0
  5  6  2  0  0  0  0
  5  7  1  0  0  0  0
  7  8  1  0  0  0  0
  7  9  1  0  0  0  0
  9 10  1  0  0  0  0
  9 11  1  0  0  0  0
  9 22  1  0  0  0  0
 11 12  1  0  0  0  0
 11 13  1  0  0  0  0
 11 14  1  0  0  0  0
 14 15  1  0  0  0  0
 14 20  2  0  0  0  0
 15 16  2  0  0  0  0
 16 17  1  0  0  0  0
 16 18  1  0  0  0  0
 18 19  1  0  0  0  0
 18 20  1  0  0  0  0
 20 21  1  0  0  0  0
 22 23  2  0  0  0  0
 22 24  1  0  0  0  0
 24 25  1  0  0  0  0
 24 26  1  0  0  0  0
 26 27  1  0  0  0  0
 26 28  1  0  0  0  0
 26 29  1  0  0  0  0
M  END
$$$$

  -OEChem-04042215593D

 29 29  0     1  0  0  0  0  0999 V2000
   -2.4988   -4.4849    0.4556 H   0  0  0  0  0  0  0  0  0  0  0  0
   -2.6233   -3.5323   -0.0674 C   0  0  0  0  0  0  0  0  0  0  0  0
   -3.5161   -3.0340    0.3174 H   0  0  0  0  0  0  0  0  0  0  0  0
   -2.7549   -3.7328   -1.1334 H   0  0  0  0  0  0  0  0  0  0  0  0
   -1.4044   -2.6550    0.1485 C   0  0  0  0  0  0  0  0  0  0  0  0
   -0.5010   -3.0463    0.8647 O   0  0  0  0  0  0  0  0  0  0  0  0
   -1.3520   -1.4097   -0.4468 N   0  0  0  0  0  0  0  0  0  0  0  0
   -2.0707   -1.2426   -1.1436 H   0  0  0  0  0  0  0  0  0  0  0  0
   -0.1125   -0.6181   -0.5816 C   0  0  1  0  0  0  0  0  0  0  0  0
    0.6225   -1.2049   -1.1425 H   0  0  0  0  0  0  0  0  0  0  0  0
   -0.4554    0.6987   -1.3235 C   0  0  0  0  0  0  0  0  0  0  0  0
   -1.5307    0.8911   -1.2793 H   0  0  0  0  0  0  0  0  0  0  0  0
    0.0385    1.5370   -0.8212 H   0  0  0  0  0  0  0  0  0  0  0  0
   -0.0057    0.7298   -2.7600 C   0  0  0  0  0  0  0  0  0  0  0  0
    0.6598   -0.2792   -3.4463 N   0  0  0  0  0  0  0  0  0  0  0  0
    0.8922    0.1709   -4.6552 C   0  0  0  0  0  0  0  0  0  0  0  0
    1.4083   -0.3820   -5.4351 H   0  0  0  0  0  0  0  0  0  0  0  0
    0.3807    1.4476   -4.7856 N   0  0  0  0  0  0  0  0  0  0  0  0
    0.4461    2.0236   -5.6229 H   0  0  0  0  0  0  0  0  0  0  0  0
   -0.1886    1.8074   -3.5820 C   0  0  0  0  0  0  0  0  0  0  0  0
   -0.6669    2.7467   -3.3205 H   0  0  0  0  0  0  0  0  0  0  0  0
    0.5581   -0.2683    0.7691 C   0  0  0  0  0  0  0  0  0  0  0  0
    1.7727   -0.1254    0.8334 O   0  0  0  0  0  0  0  0  0  0  0  0
   -0.2216    0.1868    1.8186 N   0  0  0  0  0  0  0  0  0  0  0  0
   -1.2031   -0.0663    1.7714 H   0  0  0  0  0  0  0  0  0  0  0  0
    0.3409    0.5455    3.1143 C   0  0  0  0  0  0  0  0  0  0  0  0
    1.0513    1.3721    3.0089 H   0  0  0  0  0  0  0  0  0  0  0  0
   -0.4535    0.8602    3.7977 H   0  0  0  0  0  0  0  0  0  0  0  0
    0.8602   -0.3119    3.5551 H   0  0  0  0  0  0  0  0  0  0  0  0
  1  2  1  0  0  0  0
  2  3  1  0  0  0  0
  2  4  1  0  0  0  0
  2  5  1  0  0  0  0
  5  6  2  0  0  0  0
  5  7  1  0  0  0  0
  7  8  1  0  0  0  0
  7  9  1  0  0  0  0
  9 10  1  0  0  0  0
  9 11  1  0  0  0  0
  9 22  1  0  0  0  0
 11 12  1  0  0  0  0
 11 13  1  0  0  0  0
 11 14  1  0  0  0  0
 14 15  1  0  0  0  0
 14 20  2  0  0  0  0
 15 16  2  0  0  0  0
 16 17  1  0  0  0  0
 16 18  1  0  0  0  0
 18 19  1  0  0  0  0
 18 20  1  0  0  0  0
 20 21  1  0  0  0  0
 22 23  2  0  0  0  0
 22 24  1  0  0  0  0
 24 25  1  0  0  0  0
 24 26  1  0  0  0  0
 26 27  1  0  0  0  0
 26 28  1  0  0  0  0
 26 29  1  0  0  0  0
M  END
$$$$

  -OEChem-04042215593D

 29 29  0     1  0  0  0  0  0999 V2000
   -2.4725   -4.4957    0.4236 H   0  0  0  0  0  0  0  0  0  0  0  0
   -2.6111   -3.5396   -0.0892 C   0  0  0  0  0  0  0  0  0  0  0  0
   -3.5137   -3.0605    0.2973 H   0  0  0  0  0  0  0  0  0  0  0  0
   -2.7352   -3.7303   -1.1579 H   0  0  0  0  0  0  0  0  0  0  0  0
   -1.4077   -2.6448    0.1415 C   0  0  0  0  0  0  0  0  0  0  0  0
   -0.5024   -3.0284    0.8597 O   0  0  0  0  0  0  0  0  0  0  0  0
   -1.3701   -1.3945   -0.4440 N   0  0  0  0  0  0  0  0  0  0  0  0
   -2.0822   -1.2406   -1.1511 H   0  0  0  0  0  0  0  0  0  0  0  0
   -0.1354   -0.5977   -0.5859 C   0  0  1  0  0  0  0  0  0  0  0  0
    0.5954   -1.1758   -1.1617 H   0  0  0  0  0  0  0  0  0  0  0  0
   -0.4870    0.7245   -1.3127 C   0  0  0  0  0  0  0  0  0  0  0  0
   -1.5650    0.9016   -1.2696 H   0  0  0  0  0  0  0  0  0  0  0  0
   -0.0051    1.5671   -0.8059 H   0  0  0  0  0  0  0  0  0  0  0  0
   -0.0461    0.7538   -2.7512 C   0  0  0  0  0  0  0  0  0  0  0  0
    0.3421   -0.3435   -3.5120 N   0  0  0  0  0  0  0  0  0  0  0  0
    0.7065    0.1187   -4.6837 C   0  0  0  0  0  0  0  0  0  0  0  0
    1.0720   -0.4905   -5.5056 H   0  0  0  0  0  0  0  0  0  0  0  0
    0.5558    1.4916   -4.7148 N   0  0  0  0  0  0  0  0  0  0  0  0
    0.7937    2.0907   -5.5034 H   0  0  0  0  0  0  0  0  0  0  0  0
    0.0843    1.9001   -3.4850 C   0  0  0  0  0  0  0  0  0  0  0  0
   -0.1218    2.9117   -3.1480 H   0  0  0  0  0  0  0  0  0  0  0  0
    0.5515   -0.2559    0.7581 C   0  0  0  0  0  0  0  0  0  0  0  0
    1.7660   -0.1030    0.8026 O   0  0  0  0  0  0  0  0  0  0  0  0
   -0.2154    0.1882    1.8216 N   0  0  0  0  0  0  0  0  0  0  0  0
   -1.1955   -0.0736    1.7881 H   0  0  0  0  0  0  0  0  0  0  0  0
    0.3634    0.5449    3.1105 C   0  0  0  0  0  0  0  0  0  0  0  0
    1.0646    1.3785    2.9983 H   0  0  0  0  0  0  0  0  0  0  0  0
   -0.4235    0.8489    3.8072 H   0  0  0  0  0  0  0  0  0  0  0  0
    0.8970   -0.3098    3.5393 H   0  0  0  0  0  0  0  0  0  0  0  0
  1  2  1  0  0  0  0
  2  3  1  0  0  0  0
  2  4  1  0  0  0  0
  2  5  1  0  0  0  0
  5  6  2  0  0  0  0
  5  7  1  0  0  0  0
  7  8  1  0  0  0  0
  7  9  1  0  0  0  0
  9 10  1  0  0  0  0
  9 11  1  0  0  0  0
  9 22  1  0  0  0  0
 11 12  1  0  0  0  0
 11 13  1  0  0  0  0
 11 14  1  0  0  0  0
 14 15  1  0  0  0  0
 14 20  2  0  0  0  0
 15 16  2  0  0  0  0
 16 17  1  0  0  0  0
 16 18  1  0  0  0  0
 18 19  1  0  0  0  0
 18 20  1  0  0  0  0
 20 21  1  0  0  0  0
 22 23  2  0  0  0  0
 22 24  1  0  0  0  0
 24 25  1  0  0  0  0
 24 26  1  0  0  0  0
 26 27  1  0  0  0  0
 26 28  1  0  0  0  0
 26 29  1  0  0  0  0
M  END
$$$$

  -OEChem-04042215593D

 29 29  0     1  0  0  0  0  0999 V2000
   -2.4414   -4.4997    0.3580 H   0  0  0  0  0  0  0  0  0  0  0  0
   -2.5960   -3.5315   -0.1267 C   0  0  0  0  0  0  0  0  0  0  0  0
   -3.4973   -3.0714    0.2854 H   0  0  0  0  0  0  0  0  0  0  0  0
   -2.7335   -3.6940   -1.1986 H   0  0  0  0  0  0  0  0  0  0  0  0
   -1.3983   -2.6312    0.1122 C   0  0  0  0  0  0  0  0  0  0  0  0
   -0.4873   -3.0176    0.8219 O   0  0  0  0  0  0  0  0  0  0  0  0
   -1.3740   -1.3712   -0.4523 N   0  0  0  0  0  0  0  0  0  0  0  0
   -2.0854   -1.2154   -1.1602 H   0  0  0  0  0  0  0  0  0  0  0  0
   -0.1464   -0.5630   -0.5867 C   0  0  1  0  0  0  0  0  0  0  0  0
    0.5837   -1.1264   -1.1788 H   0  0  0  0  0  0  0  0  0  0  0  0
   -0.5098    0.7641   -1.2957 C   0  0  0  0  0  0  0  0  0  0  0  0
   -1.5903    0.9269   -1.2597 H   0  0  0  0  0  0  0  0  0  0  0  0
   -0.0407    1.6087   -0.7803 H   0  0  0  0  0  0  0  0  0  0  0  0
   -0.0623    0.7905   -2.7301 C   0  0  0  0  0  0  0  0  0  0  0  0
    0.0448   -0.3254   -3.5530 N   0  0  0  0  0  0  0  0  0  0  0  0
    0.5246    0.0993   -4.6975 C   0  0  0  0  0  0  0  0  0  0  0  0
    0.7338   -0.5327   -5.5560 H   0  0  0  0  0  0  0  0  0  0  0  0
    0.7236    1.4659   -4.6480 N   0  0  0  0  0  0  0  0  0  0  0  0
    1.1113    2.0310   -5.4014 H   0  0  0  0  0  0  0  0  0  0  0  0
    0.3577    1.9087   -3.3945 C   0  0  0  0  0  0  0  0  0  0  0  0
    0.4084    2.9182   -2.9972 H   0  0  0  0  0  0  0  0  0  0  0  0
    0.5489   -0.2356    0.7560 C   0  0  0  0  0  0  0  0  0  0  0  0
    1.7624   -0.0718    0.7888 O   0  0  0  0  0  0  0  0  0  0  0  0
   -0.2113    0.1869    1.8328 N   0  0  0  0  0  0  0  0  0  0  0  0
   -1.1898   -0.0814    1.8040 H   0  0  0  0  0  0  0  0  0  0  0  0
    0.3764    0.5290    3.1217 C   0  0  0  0  0  0  0  0  0  0  0  0
    1.0814    1.3600    3.0138 H   0  0  0  0  0  0  0  0  0  0  0  0
   -0.4051    0.8308    3.8254 H   0  0  0  0  0  0  0  0  0  0  0  0
    0.9078   -0.3327    3.5392 H   0  0  0  0  0  0  0  0  0  0  0  0
  1  2  1  0  0  0  0
  2  3  1  0  0  0  0
  2  4  1  0  0  0  0
  2  5  1  0  0  0  0
  5  6  2  0  0  0  0
  5  7  1  0  0  0  0
  7  8  1  0  0  0  0
  7  9  1  0  0  0  0
  9 10  1  0  0  0  0
  9 11  1  0  0  0  0
  9 22  1  0  0  0  0
 11 12  1  0  0  0  0
 11 13  1  0  0  0  0
 11 14  1  0  0  0  0
 14 15  1  0  0  0  0
 14 20  2  0  0  0  0
 15 16  2  0  0  0  0
 16 17  1  0  0  0  0
 16 18  1  0  0  0  0
 18 19  1  0  0  0  0
 18 20  1  0  0  0  0
 20 21  1  0  0  0  0
 22 23  2  0  0  0  0
 22 24  1  0  0  0  0
 24 25  1  0  0  0  0
 24 26  1  0  0  0  0
 26 27  1  0  0  0  0
 26 28  1  0  0  0  0
 26 29  1  0  0  0  0
M  END
$$$$

  -OEChem-04042215593D

 29 29  0     1  0  0  0  0  0999 V2000
   -2.3994   -4.5043    0.2667 H   0  0  0  0  0  0  0  0  0  0  0  0
   -2.5743   -3.5220   -0.1812 C   0  0  0  0  0  0  0  0  0  0  0  0
   -3.4822   -3.0943    0.2506 H   0  0  0  0  0  0  0  0  0  0  0  0
   -2.7133   -3.6474   -1.2579 H   0  0  0  0  0  0  0  0  0  0  0  0
   -1.3925   -2.6093    0.0858 C   0  0  0  0  0  0  0  0  0  0  0  0
   -0.4801   -2.9977    0.7929 O   0  0  0  0  0  0  0  0  0  0  0  0
   -1.3770   -1.3407   -0.4590 N   0  0  0  0  0  0  0  0  0  0  0  0
   -2.0835   -1.1821   -1.1720 H   0  0  0  0  0  0  0  0  0  0  0  0
   -0.1531   -0.5263   -0.5810 C   0  0  1  0  0  0  0  0  0  0  0  0
    0.5753   -1.0793   -1.1856 H   0  0  0  0  0  0  0  0  0  0  0  0
   -0.5191    0.8056   -1.2750 C   0  0  0  0  0  0  0  0  0  0  0  0
   -1.6001    0.9683   -1.2473 H   0  0  0  0  0  0  0  0  0  0  0  0
   -0.0526    1.6476   -0.7531 H   0  0  0  0  0  0  0  0  0  0  0  0
   -0.0565    0.8207   -2.7022 C   0  0  0  0  0  0  0  0  0  0  0  0
   -0.2291   -0.2411   -3.5832 N   0  0  0  0  0  0  0  0  0  0  0  0
    0.3420    0.1174   -4.7090 C   0  0  0  0  0  0  0  0  0  0  0  0
    0.3872   -0.4956   -5.6049 H   0  0  0  0  0  0  0  0  0  0  0  0
    0.8761    1.3865   -4.5862 N   0  0  0  0  0  0  0  0  0  0  0  0
    1.3932    1.8794   -5.3120 H   0  0  0  0  0  0  0  0  0  0  0  0
    0.6293    1.8361   -3.3064 C   0  0  0  0  0  0  0  0  0  0  0  0
    0.9275    2.7772   -2.8533 H   0  0  0  0  0  0  0  0  0  0  0  0
    0.5466   -0.2140    0.7625 C   0  0  0  0  0  0  0  0  0  0  0  0
    1.7598   -0.0455    0.7897 O   0  0  0  0  0  0  0  0  0  0  0  0
   -0.2094    0.1910    1.8487 N   0  0  0  0  0  0  0  0  0  0  0  0
   -1.1883   -0.0763    1.8195 H   0  0  0  0  0  0  0  0  0  0  0  0
    0.3833    0.5128    3.1406 C   0  0  0  0  0  0  0  0  0  0  0  0
    1.0970    1.3375    3.0414 H   0  0  0  0  0  0  0  0  0  0  0  0
   -0.3943    0.8150    3.8485 H   0  0  0  0  0  0  0  0  0  0  0  0
    0.9060   -0.3591    3.5480 H   0  0  0  0  0  0  0  0  0  0  0  0
  1  2  1  0  0  0  0
  2  3  1  0  0  0  0
  2  4  1  0  0  0  0
  2  5  1  0  0  0  0
  5  6  2  0  0  0  0
  5  7  1  0  0  0  0
  7  8  1  0  0  0  0
  7  9  1  0  0  0  0
  9 10  1  0  0  0  0
  9 11  1  0  0  0  0
  9 22  1  0  0  0  0
 11 12  1  0  0  0  0
 11 13  1  0  0  0  0
 11 14  1  0  0  0  0
 14 15  1  0  0  0  0
 14 20  2  0  0  0  0
 15 16  2  0  0  0  0
 16 17  1  0  0  0  0
 16 18  1  0  0  0  0
 18 19  1  0  0  0  0
 18 20  1  0  0  0  0
 20 21  1  0  0  0  0
 22 23  2  0  0  0  0
 22 24  1  0  0  0  0
 24 25  1  0  0  0  0
 24 26  1  0  0  0  0
 26 27  1  0  0  0  0
 26 28  1  0  0  0  0
 26 29  1  0  0  0  0
M  END
$$$$

  -OEChem-04042215593D

 29 29  0     1  0  0  0  0  0999 V2000
   -2.4125   -4.4895    0.2377 H   0  0  0  0  0  0  0  0  0  0  0  0
   -2.5739   -3.5078   -0.2171 C   0  0  0  0  0  0  0  0  0  0  0  0
   -3.4822   -3.0698    0.2038 H   0  0  0  0  0  0  0  0  0  0  0  0
   -2.7040   -3.6378   -1.2944 H   0  0  0  0  0  0  0  0  0  0  0  0
   -1.3863   -2.6038    0.0561 C   0  0  0  0  0  0  0  0  0  0  0  0
   -0.4701   -3.0057    0.7508 O   0  0  0  0  0  0  0  0  0  0  0  0
   -1.3672   -1.3282   -0.4717 N   0  0  0  0  0  0  0  0  0  0  0  0
   -2.0728   -1.1565   -1.1831 H   0  0  0  0  0  0  0  0  0  0  0  0
   -0.1449   -0.5098   -0.5741 C   0  0  1  0  0  0  0  0  0  0  0  0
    0.5864   -1.0551   -1.1829 H   0  0  0  0  0  0  0  0  0  0  0  0
   -0.5137    0.8232   -1.2607 C   0  0  0  0  0  0  0  0  0  0  0  0
   -1.5947    0.9885   -1.2438 H   0  0  0  0  0  0  0  0  0  0  0  0
   -0.0497    1.6630   -0.7331 H   0  0  0  0  0  0  0  0  0  0  0  0
   -0.0302    0.8298   -2.6782 C   0  0  0  0  0  0  0  0  0  0  0  0
   -0.4465   -0.0999   -3.6234 N   0  0  0  0  0  0  0  0  0  0  0  0
    0.1966    0.1921   -4.7296 C   0  0  0  0  0  0  0  0  0  0  0  0
    0.1003   -0.3524   -5.6647 H   0  0  0  0  0  0  0  0  0  0  0  0
    1.0115    1.2914   -4.5301 N   0  0  0  0  0  0  0  0  0  0  0  0
    1.6280    1.7011   -5.2296 H   0  0  0  0  0  0  0  0  0  0  0  0
    0.8710    1.7006   -3.2210 C   0  0  0  0  0  0  0  0  0  0  0  0
    1.3734    2.5178   -2.7110 H   0  0  0  0  0  0  0  0  0  0  0  0
    0.5505   -0.2086    0.7736 C   0  0  0  0  0  0  0  0  0  0  0  0
    1.7628   -0.0344    0.8012 O   0  0  0  0  0  0  0  0  0  0  0  0
   -0.2068    0.1840    1.8632 N   0  0  0  0  0  0  0  0  0  0  0  0
   -1.1864   -0.0805    1.8320 H   0  0  0  0  0  0  0  0  0  0  0  0
    0.3845    0.5113    3.1541 C   0  0  0  0  0  0  0  0  0  0  0  0
    1.0763    1.3547    3.0572 H   0  0  0  0  0  0  0  0  0  0  0  0
   -0.3965    0.7883    3.8684 H   0  0  0  0  0  0  0  0  0  0  0  0
    0.9315   -0.3495    3.5527 H   0  0  0  0  0  0  0  0  0  0  0  0
  1  2  1  0  0  0  0
  2  3  1  0  0  0  0
  2  4  1  0  0  0  0
  2  5  1  0  0  0  0
  5  6  2  0  0  0  0
  5  7  1  0  0  0  0
  7  8  1  0  0  0  0
  7  9  1  0  0  0  0
  9 10  1  0  0  0  0
  9 11  1  0  0  0  0
  9 22  1  0  0  0  0
 11 12  1  0  0  0  0
 11 13  1  0  0  0  0
 11 14  1  0  0  0  0
 14 15  1  0  0  0  0
 14 20  2  0  0  0  0
 15 16  2  0  0  0  0
 16 17  1  0  0  0  0
 16 18  1  0  0  0  0
 18 19  1  0  0  0  0
 18 20  1  0  0  0  0
 20 21  1  0  0  0  0
 22 23  2  0  0  0  0
 22 24  1  0  0  0  0
 24 25  1  0  0  0  0
 24 26  1  0  0  0  0
 26 27  1  0  0  0  0
 26 28  1  0  0  0  0
 26 29  1  0  0  0  0
M  END
$$$$

  -OEChem-04042215593D

 29 29  0     1  0  0  0  0  0999 V2000
   -2.4176   -4.4783    0.2399 H   0  0  0  0  0  0  0  0  0  0  0  0
   -2.5756   -3.4959   -0.2141 C   0  0  0  0  0  0  0  0  0  0  0  0
   -3.4746   -3.0491    0.2168 H   0  0  0  0  0  0  0  0  0  0  0  0
   -2.7198   -3.6255   -1.2895 H   0  0  0  0  0  0  0  0  0  0  0  0
   -1.3766   -2.6029    0.0444 C   0  0  0  0  0  0  0  0  0  0  0  0
   -0.4532   -3.0134    0.7243 O   0  0  0  0  0  0  0  0  0  0  0  0
   -1.3533   -1.3258   -0.4791 N   0  0  0  0  0  0  0  0  0  0  0  0
   -2.0704   -1.1364   -1.1748 H   0  0  0  0  0  0  0  0  0  0  0  0
   -0.1321   -0.5055   -0.5725 C   0  0  1  0  0  0  0  0  0  0  0  0
    0.6029   -1.0494   -1.1779 H   0  0  0  0  0  0  0  0  0  0  0  0
   -0.4996    0.8245   -1.2618 C   0  0  0  0  0  0  0  0  0  0  0  0
   -1.5794    0.9979   -1.2500 H   0  0  0  0  0  0  0  0  0  0  0  0
   -0.0322    1.6628   -0.7351 H   0  0  0  0  0  0  0  0  0  0  0  0
   -0.0022    0.8221   -2.6729 C   0  0  0  0  0  0  0  0  0  0  0  0
   -0.6148    0.0961   -3.6864 N   0  0  0  0  0  0  0  0  0  0  0  0
    0.0879    0.3243   -4.7716 C   0  0  0  0  0  0  0  0  0  0  0  0
   -0.1240   -0.1017   -5.7483 H   0  0  0  0  0  0  0  0  0  0  0  0
    1.1333    1.1847   -4.4901 N   0  0  0  0  0  0  0  0  0  0  0  0
    1.8302    1.5035   -5.1610 H   0  0  0  0  0  0  0  0  0  0  0  0
    1.0781    1.5066   -3.1508 C   0  0  0  0  0  0  0  0  0  0  0  0
    1.7459    2.1460   -2.5798 H   0  0  0  0  0  0  0  0  0  0  0  0
    0.5545   -0.2077    0.7801 C   0  0  0  0  0  0  0  0  0  0  0  0
    1.7662   -0.0293    0.8138 O   0  0  0  0  0  0  0  0  0  0  0  0
   -0.2107    0.1800    1.8656 N   0  0  0  0  0  0  0  0  0  0  0  0
   -1.1893   -0.0876    1.8271 H   0  0  0  0  0  0  0  0  0  0  0  0
    0.3711    0.5044    3.1615 C   0  0  0  0  0  0  0  0  0  0  0  0
    1.0666    1.3452    3.0702 H   0  0  0  0  0  0  0  0  0  0  0  0
   -0.4146    0.7843    3.8695 H   0  0  0  0  0  0  0  0  0  0  0  0
    0.9117   -0.3588    3.5639 H   0  0  0  0  0  0  0  0  0  0  0  0
  1  2  1  0  0  0  0
  2  3  1  0  0  0  0
  2  4  1  0  0  0  0
  2  5  1  0  0  0  0
  5  6  2  0  0  0  0
  5  7  1  0  0  0  0
  7  8  1  0  0  0  0
  7  9  1  0  0  0  0
  9 10  1  0  0  0  0
  9 11  1  0  0  0  0
  9 22  1  0  0  0  0
 11 12  1  0  0  0  0
 11 13  1  0  0  0  0
 11 14  1  0  0  0  0
 14 15  1  0  0  0  0
 14 20  2  0  0  0  0
 15 16  2  0  0  0  0
 16 17  1  0  0  0  0
 16 18  1  0  0  0  0
 18 19  1  0  0  0  0
 18 20  1  0  0  0  0
 20 21  1  0  0  0  0
 22 23  2  0  0  0  0
 22 24  1  0  0  0  0
 24 25  1  0  0  0  0
 24 26  1  0  0  0  0
 26 27  1  0  0  0  0
 26 28  1  0  0  0  0
 26 29  1  0  0  0  0
M  END
$$$$

  -OEChem-04042215593D

 29 29  0     1  0  0  0  0  0999 V2000
   -2.4255   -4.4799    0.2452 H   0  0  0  0  0  0  0  0  0  0  0  0
   -2.5854   -3.4935   -0.1995 C   0  0  0  0  0  0  0  0  0  0  0  0
   -3.4698   -3.0415    0.2558 H   0  0  0  0  0  0  0  0  0  0  0  0
   -2.7570   -3.6157   -1.2718 H   0  0  0  0  0  0  0  0  0  0  0  0
   -1.3725   -2.6126    0.0354 C   0  0  0  0  0  0  0  0  0  0  0  0
   -0.4359   -3.0344    0.6899 O   0  0  0  0  0  0  0  0  0  0  0  0
   -1.3473   -1.3345   -0.4856 N   0  0  0  0  0  0  0  0  0  0  0  0
   -2.0816   -1.1261   -1.1575 H   0  0  0  0  0  0  0  0  0  0  0  0
   -0.1283   -0.5107   -0.5721 C   0  0  1  0  0  0  0  0  0  0  0  0
    0.6102   -1.0558   -1.1719 H   0  0  0  0  0  0  0  0  0  0  0  0
   -0.4946    0.8146   -1.2691 C   0  0  0  0  0  0  0  0  0  0  0  0
   -1.5742    0.9896   -1.2644 H   0  0  0  0  0  0  0  0  0  0  0  0
   -0.0299    1.6553   -0.7439 H   0  0  0  0  0  0  0  0  0  0  0  0
    0.0149    0.8081   -2.6751 C   0  0  0  0  0  0  0  0  0  0  0  0
   -0.7284    0.3374   -3.7493 N   0  0  0  0  0  0  0  0  0  0  0  0
    0.0292    0.4951   -4.8099 C   0  0  0  0  0  0  0  0  0  0  0  0
   -0.2562    0.2206   -5.8216 H   0  0  0  0  0  0  0  0  0  0  0  0
    1.2398    1.0601   -4.4519 N   0  0  0  0  0  0  0  0  0  0  0  0
    2.0026    1.2738   -5.0921 H   0  0  0  0  0  0  0  0  0  0  0  0
    1.2334    1.2641   -3.0887 C   0  0  0  0  0  0  0  0  0  0  0  0
    2.0169    1.6807   -2.4607 H   0  0  0  0  0  0  0  0  0  0  0  0
    0.5547   -0.2096    0.7811 C   0  0  0  0  0  0  0  0  0  0  0  0
    1.7661   -0.0293    0.8137 O   0  0  0  0  0  0  0  0  0  0  0  0
   -0.2108    0.1768    1.8668 N   0  0  0  0  0  0  0  0  0  0  0  0
   -1.1923   -0.0796    1.8261 H   0  0  0  0  0  0  0  0  0  0  0  0
    0.3702    0.5091    3.1612 C   0  0  0  0  0  0  0  0  0  0  0  0
    1.0672    1.3482    3.0655 H   0  0  0  0  0  0  0  0  0  0  0  0
   -0.4162    0.7945    3.8664 H   0  0  0  0  0  0  0  0  0  0  0  0
    0.9091   -0.3521    3.5696 H   0  0  0  0  0  0  0  0  0  0  0  0
  1  2  1  0  0  0  0
  2  3  1  0  0  0  0
  2  4  1  0  0  0  0
  2  5  1  0  0  0  0
  5  6  2  0  0  0  0
  5  7  1  0  0  0  0
  7  8  1  0  0  0  0
  7  9  1  0  0  0  0
  9 10  1  0  0  0  0
  9 11  1  0  0  0  0
  9 22  1  0  0  0  0
 11 12  1  0  0  0  0
 11 13  1  0  0  0  0
 11 14  1  0  0  0  0
 14 15  1  0  0  0  0
 14 20  2  0  0  0  0
 15 16  2  0  0  0  0
 16 17  1  0  0  0  0
 16 18  1  0  0  0  0
 18 19  1  0  0  0  0
 18 20  1  0  0  0  0
 20 21  1  0  0  0  0
 22 23  2  0  0  0  0
 22 24  1  0  0  0  0
 24 25  1  0  0  0  0
 24 26  1  0  0  0  0
 26 27  1  0  0  0  0
 26 28  1  0  0  0  0
 26 29  1  0  0  0  0
M  END
$$$$

  -OEChem-04042215593D

 29 29  0     1  0  0  0  0  0999 V2000
   -2.4342   -4.4823    0.2660 H   0  0  0  0  0  0  0  0  0  0  0  0
   -2.5941   -3.4953   -0.1777 C   0  0  0  0  0  0  0  0  0  0  0  0
   -3.4668   -3.0354    0.2919 H   0  0  0  0  0  0  0  0  0  0  0  0
   -2.7849   -3.6179   -1.2467 H   0  0  0  0  0  0  0  0  0  0  0  0
   -1.3709   -2.6234    0.0338 C   0  0  0  0  0  0  0  0  0  0  0  0
   -0.4241   -3.0519    0.6687 O   0  0  0  0  0  0  0  0  0  0  0  0
   -1.3452   -1.3455   -0.4876 N   0  0  0  0  0  0  0  0  0  0  0  0
   -2.0977   -1.1208   -1.1333 H   0  0  0  0  0  0  0  0  0  0  0  0
   -0.1276   -0.5191   -0.5723 C   0  0  1  0  0  0  0  0  0  0  0  0
    0.6116   -1.0690   -1.1665 H   0  0  0  0  0  0  0  0  0  0  0  0
   -0.4892    0.8032   -1.2789 C   0  0  0  0  0  0  0  0  0  0  0  0
   -1.5693    0.9760   -1.2805 H   0  0  0  0  0  0  0  0  0  0  0  0
   -0.0301    1.6478   -0.7550 H   0  0  0  0  0  0  0  0  0  0  0  0
    0.0270    0.7997   -2.6830 C   0  0  0  0  0  0  0  0  0  0  0  0
   -0.7828    0.6202   -3.7959 N   0  0  0  0  0  0  0  0  0  0  0  0
    0.0125    0.6916   -4.8380 C   0  0  0  0  0  0  0  0  0  0  0  0
   -0.3090    0.5893   -5.8706 H   0  0  0  0  0  0  0  0  0  0  0  0
    1.3150    0.9152   -4.4298 N   0  0  0  0  0  0  0  0  0  0  0  0
    2.1198    1.0022   -5.0479 H   0  0  0  0  0  0  0  0  0  0  0  0
    1.3277    0.9891   -3.0536 C   0  0  0  0  0  0  0  0  0  0  0  0
    2.1731    1.1514   -2.3891 H   0  0  0  0  0  0  0  0  0  0  0  0
    0.5543   -0.2138    0.7800 C   0  0  0  0  0  0  0  0  0  0  0  0
    1.7664   -0.0371    0.8114 O   0  0  0  0  0  0  0  0  0  0  0  0
   -0.2107    0.1733    1.8656 N   0  0  0  0  0  0  0  0  0  0  0  0
   -1.1939   -0.0759    1.8243 H   0  0  0  0  0  0  0  0  0  0  0  0
    0.3702    0.5132    3.1580 C   0  0  0  0  0  0  0  0  0  0  0  0
    1.0617    1.3565    3.0586 H   0  0  0  0  0  0  0  0  0  0  0  0
   -0.4167    0.7960    3.8634 H   0  0  0  0  0  0  0  0  0  0  0  0
    0.9151   -0.3433    3.5687 H   0  0  0  0  0  0  0  0  0  0  0  0
  1  2  1  0  0  0  0
  2  3  1  0  0  0  0
  2  4  1  0  0  0  0
  2  5  1  0  0  0  0
  5  6  2  0  0  0  0
  5  7  1  0  0  0  0
  7  8  1  0  0  0  0
  7  9  1  0  0  0  0
  9 10  1  0  0  0  0
  9 11  1  0  0  0  0
  9 22  1  0  0  0  0
 11 12  1  0  0  0  0
 11 13  1  0  0  0  0
 11 14  1  0  0  0  0
 14 15  1  0  0  0  0
 14 20  2  0  0  0  0
 15 16  2  0  0  0  0
 16 17  1  0  0  0  0
 16 18  1  0  0  0  0
 18 19  1  0  0  0  0
 18 20  1  0  0  0  0
 20 21  1  0  0  0  0
 22 23  2  0  0  0  0
 22 24  1  0  0  0  0
 24 25  1  0  0  0  0
 24 26  1  0  0  0  0
 26 27  1  0  0  0  0
 26 28  1  0  0  0  0
 26 29  1  0  0  0  0
M  END
$$$$

  -OEChem-04042215593D

 29 29  0     1  0  0  0  0  0999 V2000
   -2.4345   -4.4918    0.2715 H   0  0  0  0  0  0  0  0  0  0  0  0
   -2.6026   -3.4979   -0.1530 C   0  0  0  0  0  0  0  0  0  0  0  0
   -3.4619   -3.0430    0.3454 H   0  0  0  0  0  0  0  0  0  0  0  0
   -2.8210   -3.6044   -1.2183 H   0  0  0  0  0  0  0  0  0  0  0  0
   -1.3710   -2.6334    0.0412 C   0  0  0  0  0  0  0  0  0  0  0  0
   -0.4184   -3.0678    0.6629 O   0  0  0  0  0  0  0  0  0  0  0  0
   -1.3390   -1.3583   -0.4867 N   0  0  0  0  0  0  0  0  0  0  0  0
   -2.1027   -1.1190   -1.1135 H   0  0  0  0  0  0  0  0  0  0  0  0
   -0.1200   -0.5334   -0.5683 C   0  0  1  0  0  0  0  0  0  0  0  0
    0.6214   -1.0929   -1.1501 H   0  0  0  0  0  0  0  0  0  0  0  0
   -0.4749    0.7832   -1.2911 C   0  0  0  0  0  0  0  0  0  0  0  0
   -1.5559    0.9501   -1.3002 H   0  0  0  0  0  0  0  0  0  0  0  0
   -0.0252    1.6342   -0.7695 H   0  0  0  0  0  0  0  0  0  0  0  0
    0.0469    0.7855   -2.6950 C   0  0  0  0  0  0  0  0  0  0  0  0
   -0.7682    0.9074   -3.8119 N   0  0  0  0  0  0  0  0  0  0  0  0
    0.0325    0.8946   -4.8520 C   0  0  0  0  0  0  0  0  0  0  0  0
   -0.2930    0.9735   -5.8854 H   0  0  0  0  0  0  0  0  0  0  0  0
    1.3462    0.7677   -4.4398 N   0  0  0  0  0  0  0  0  0  0  0  0
    2.1571    0.7374   -5.0554 H   0  0  0  0  0  0  0  0  0  0  0  0
    1.3605    0.7043   -3.0630 C   0  0  0  0  0  0  0  0  0  0  0  0
    2.2148    0.6138   -2.3958 H   0  0  0  0  0  0  0  0  0  0  0  0
    0.5539   -0.2208    0.7861 C   0  0  0  0  0  0  0  0  0  0  0  0
    1.7677   -0.0595    0.8248 O   0  0  0  0  0  0  0  0  0  0  0  0
   -0.2147    0.1738    1.8666 N   0  0  0  0  0  0  0  0  0  0  0  0
   -1.2017   -0.0583    1.8180 H   0  0  0  0  0  0  0  0  0  0  0  0
    0.3606    0.5139    3.1615 C   0  0  0  0  0  0  0  0  0  0  0  0
    1.0715    1.3408    3.0613 H   0  0  0  0  0  0  0  0  0  0  0  0
   -0.4270    0.8208    3.8560 H   0  0  0  0  0  0  0  0  0  0  0  0
    0.8823   -0.3502    3.5859 H   0  0  0  0  0  0  0  0  0  0  0  0
  1  2  1  0  0  0  0
  2  3  1  0  0  0  0
  2  4  1  0  0  0  0
  2  5  1  0  0  0  0
  5  6  2  0  0  0  0
  5  7  1  0  0  0  0
  7  8  1  0  0  0  0
  7  9  1  0  0  0  0
  9 10  1  0  0  0  0
  9 11  1  0  0  0  0
  9 22  1  0  0  0  0
 11 12  1  0  0  0  0
 11 13  1  0  0  0  0
 11 14  1  0  0  0  0
 14 15  1  0  0  0  0
 14 20  2  0  0  0  0
 15 16  2  0  0  0  0
 16 17  1  0  0  0  0
 16 18  1  0  0  0  0
 18 19  1  0  0  0  0
 18 20  1  0  0  0  0
 20 21  1  0  0  0  0
 22 23  2  0  0  0  0
 22 24  1  0  0  0  0
 24 25  1  0  0  0  0
 24 26  1  0  0  0  0
 26 27  1  0  0  0  0
 26 28  1  0  0  0  0
 26 29  1  0  0  0  0
M  END
$$$$

  -OEChem-04042215593D

 29 29  0     1  0  0  0  0  0999 V2000
   -2.4758   -4.4802    0.3544 H   0  0  0  0  0  0  0  0  0  0  0  0
   -2.6230   -3.4980   -0.1038 C   0  0  0  0  0  0  0  0  0  0  0  0
   -3.4687   -3.0059    0.3824 H   0  0  0  0  0  0  0  0  0  0  0  0
   -2.8500   -3.6364   -1.1636 H   0  0  0  0  0  0  0  0  0  0  0  0
   -1.3710   -2.6557    0.0542 C   0  0  0  0  0  0  0  0  0  0  0  0
   -0.4132   -3.1002    0.6606 O   0  0  0  0  0  0  0  0  0  0  0  0
   -1.3275   -1.3860   -0.4861 N   0  0  0  0  0  0  0  0  0  0  0  0
   -2.1040   -1.1308   -1.0900 H   0  0  0  0  0  0  0  0  0  0  0  0
   -0.1057   -0.5642   -0.5648 C   0  0  1  0  0  0  0  0  0  0  0  0
    0.6380   -1.1367   -1.1287 H   0  0  0  0  0  0  0  0  0  0  0  0
   -0.4488    0.7468   -1.3078 C   0  0  0  0  0  0  0  0  0  0  0  0
   -1.5310    0.9052   -1.3266 H   0  0  0  0  0  0  0  0  0  0  0  0
   -0.0127    1.6043   -0.7855 H   0  0  0  0  0  0  0  0  0  0  0  0
    0.0762    0.7652   -2.7135 C   0  0  0  0  0  0  0  0  0  0  0  0
   -0.6851    1.1908   -3.7937 N   0  0  0  0  0  0  0  0  0  0  0  0
    0.0923    1.1124   -4.8482 C   0  0  0  0  0  0  0  0  0  0  0  0
   -0.2044    1.3789   -5.8587 H   0  0  0  0  0  0  0  0  0  0  0  0
    1.3409    0.6450   -4.4835 N   0  0  0  0  0  0  0  0  0  0  0  0
    2.1275    0.5093   -5.1162 H   0  0  0  0  0  0  0  0  0  0  0  0
    1.3380    0.4302   -3.1220 C   0  0  0  0  0  0  0  0  0  0  0  0
    2.1550    0.0883   -2.4904 H   0  0  0  0  0  0  0  0  0  0  0  0
    0.5541   -0.2398    0.7934 C   0  0  0  0  0  0  0  0  0  0  0  0
    1.7691   -0.0950    0.8471 O   0  0  0  0  0  0  0  0  0  0  0  0
   -0.2234    0.1672    1.8625 N   0  0  0  0  0  0  0  0  0  0  0  0
   -1.2145   -0.0424    1.8002 H   0  0  0  0  0  0  0  0  0  0  0  0
    0.3397    0.5169    3.1602 C   0  0  0  0  0  0  0  0  0  0  0  0
    1.0389    1.3541    3.0626 H   0  0  0  0  0  0  0  0  0  0  0  0
   -0.4563    0.8126    3.8499 H   0  0  0  0  0  0  0  0  0  0  0  0
    0.8719   -0.3388    3.5888 H   0  0  0  0  0  0  0  0  0  0  0  0
  1  2  1  0  0  0  0
  2  3  1  0  0  0  0
  2  4  1  0  0  0  0
  2  5  1  0  0  0  0
  5  6  2  0  0  0  0
  5  7  1  0  0  0  0
  7  8  1  0  0  0  0
  7  9  1  0  0  0  0
  9 10  1  0  0  0  0
  9 11  1  0  0  0  0
  9 22  1  0  0  0  0
 11 12  1  0  0  0  0
 11 13  1  0  0  0  0
 11 14  1  0  0  0  0
 14 15  1  0  0  0  0
 14 20  2  0  0  0  0
 15 16  2  0  0  0  0
 16 17  1  0  0  0  0
 16 18  1  0  0  0  0
 18 19  1  0  0  0  0
 18 20  1  0  0  0  0
 20 21  1  0  0  0  0
 22 23  2  0  0  0  0
 22 24  1  0  0  0  0
 24 25  1  0  0  0  0
 24 26  1  0  0  0  0
 26 27  1  0  0  0  0
 26 28  1  0  0  0  0
 26 29  1  0  0  0  0
M  END
$$$$

  -OEChem-04042215593D

 29 29  0     1  0  0  0  0  0999 V2000
   -2.4924   -4.4831    0.3972 H   0  0  0  0  0  0  0  0  0  0  0  0
   -2.6374   -3.4986   -0.0569 C   0  0  0  0  0  0  0  0  0  0  0  0
   -3.4672   -2.9976    0.4473 H   0  0  0  0  0  0  0  0  0  0  0  0
   -2.8873   -3.6329   -1.1120 H   0  0  0  0  0  0  0  0  0  0  0  0
   -1.3719   -2.6723    0.0765 C   0  0  0  0  0  0  0  0  0  0  0  0
   -0.4120   -3.1258    0.6725 O   0  0  0  0  0  0  0  0  0  0  0  0
   -1.3141   -1.4108   -0.4818 N   0  0  0  0  0  0  0  0  0  0  0  0
   -2.0987   -1.1413   -1.0686 H   0  0  0  0  0  0  0  0  0  0  0  0
   -0.0865   -0.5967   -0.5582 C   0  0  1  0  0  0  0  0  0  0  0  0
    0.6609   -1.1843   -1.0984 H   0  0  0  0  0  0  0  0  0  0  0  0
   -0.4142    0.7076   -1.3231 C   0  0  0  0  0  0  0  0  0  0  0  0
   -1.4962    0.8651   -1.3497 H   0  0  0  0  0  0  0  0  0  0  0  0
    0.0156    1.5680   -0.8002 H   0  0  0  0  0  0  0  0  0  0  0  0
    0.1115    0.7416   -2.7318 C   0  0  0  0  0  0  0  0  0  0  0  0
   -0.5387    1.4527   -3.7321 N   0  0  0  0  0  0  0  0  0  0  0  0
    0.1824    1.3158   -4.8194 C   0  0  0  0  0  0  0  0  0  0  0  0
   -0.0560    1.7589   -5.7821 H   0  0  0  0  0  0  0  0  0  0  0  0
    1.2876    0.5294   -4.5575 N   0  0  0  0  0  0  0  0  0  0  0  0
    2.0148    0.2923   -5.2301 H   0  0  0  0  0  0  0  0  0  0  0  0
    1.2516    0.1672   -3.2282 C   0  0  0  0  0  0  0  0  0  0  0  0
    1.9809   -0.4211   -2.6771 H   0  0  0  0  0  0  0  0  0  0  0  0
    0.5543   -0.2588    0.8066 C   0  0  0  0  0  0  0  0  0  0  0  0
    1.7704   -0.1386    0.8849 O   0  0  0  0  0  0  0  0  0  0  0  0
   -0.2372    0.1663    1.8586 N   0  0  0  0  0  0  0  0  0  0  0  0
   -1.2306   -0.0249    1.7790 H   0  0  0  0  0  0  0  0  0  0  0  0
    0.3060    0.5269    3.1617 C   0  0  0  0  0  0  0  0  0  0  0  0
    1.0207    1.3510    3.0654 H   0  0  0  0  0  0  0  0  0  0  0  0
   -0.4983    0.8463    3.8310 H   0  0  0  0  0  0  0  0  0  0  0  0
    0.8152   -0.3309    3.6135 H   0  0  0  0  0  0  0  0  0  0  0  0
  1  2  1  0  0  0  0
  2  3  1  0  0  0  0
  2  4  1  0  0  0  0
  2  5  1  0  0  0  0
  5  6  2  0  0  0  0
  5  7  1  0  0  0  0
  7  8  1  0  0  0  0
  7  9  1  0  0  0  0
  9 10  1  0  0  0  0
  9 11  1  0  0  0  0
  9 22  1  0  0  0  0
 11 12  1  0  0  0  0
 11 13  1  0  0  0  0
 11 14  1  0  0  0  0
 14 15  1  0  0  0  0
 14 20  2  0  0  0  0
 15 16  2  0  0  0  0
 16 17  1  0  0  0  0
 16 18  1  0  0  0  0
 18 19  1  0  0  0  0
 18 20  1  0  0  0  0
 20 21  1  0  0  0  0
 22 23  2  0  0  0  0
 22 24  1  0  0  0  0
 24 25  1  0  0  0  0
 24 26  1  0  0  0  0
 26 27  1  0  0  0  0
 26 28  1  0  0  0  0
 26 29  1  0  0  0  0
M  END
$$$$

  -OEChem-04042215593D

 29 29  0     1  0  0  0  0  0999 V2000
   -2.5167   -4.4764    0.4515 H   0  0  0  0  0  0  0  0  0  0  0  0
   -2.6498   -3.4945   -0.0119 C   0  0  0  0  0  0  0  0  0  0  0  0
   -3.4646   -2.9732    0.4961 H   0  0  0  0  0  0  0  0  0  0  0  0
   -2.9144   -3.6361   -1.0626 H   0  0  0  0  0  0  0  0  0  0  0  0
   -1.3692   -2.6884    0.0975 C   0  0  0  0  0  0  0  0  0  0  0  0
   -0.4085   -3.1528    0.6834 O   0  0  0  0  0  0  0  0  0  0  0  0
   -1.2971   -1.4354   -0.4776 N   0  0  0  0  0  0  0  0  0  0  0  0
   -2.0907   -1.1505   -1.0442 H   0  0  0  0  0  0  0  0  0  0  0  0
   -0.0654   -0.6273   -0.5541 C   0  0  1  0  0  0  0  0  0  0  0  0
    0.6904   -1.2209   -1.0733 H   0  0  0  0  0  0  0  0  0  0  0  0
   -0.3830    0.6703   -1.3357 C   0  0  0  0  0  0  0  0  0  0  0  0
   -1.4636    0.8355   -1.3629 H   0  0  0  0  0  0  0  0  0  0  0  0
    0.0515    1.5295   -0.8143 H   0  0  0  0  0  0  0  0  0  0  0  0
    0.1405    0.7150   -2.7476 C   0  0  0  0  0  0  0  0  0  0  0  0
   -0.3341    1.6666   -3.6414 N   0  0  0  0  0  0  0  0  0  0  0  0
    0.3102    1.4838   -4.7689 C   0  0  0  0  0  0  0  0  0  0  0  0
    0.1696    2.0772   -5.6680 H   0  0  0  0  0  0  0  0  0  0  0  0
    1.1911    0.4283   -4.6410 N   0  0  0  0  0  0  0  0  0  0  0  0
    1.8257    0.1002   -5.3669 H   0  0  0  0  0  0  0  0  0  0  0  0
    1.0909   -0.0630   -3.3571 C   0  0  0  0  0  0  0  0  0  0  0  0
    1.6623   -0.8744   -2.9162 H   0  0  0  0  0  0  0  0  0  0  0  0
    0.5561   -0.2767    0.8173 C   0  0  0  0  0  0  0  0  0  0  0  0
    1.7716   -0.1722    0.9189 O   0  0  0  0  0  0  0  0  0  0  0  0
   -0.2493    0.1639    1.8526 N   0  0  0  0  0  0  0  0  0  0  0  0
   -1.2446   -0.0067    1.7541 H   0  0  0  0  0  0  0  0  0  0  0  0
    0.2740    0.5383    3.1601 C   0  0  0  0  0  0  0  0  0  0  0  0
    0.9913    1.3605    3.0658 H   0  0  0  0  0  0  0  0  0  0  0  0
   -0.5404    0.8658    3.8133 H   0  0  0  0  0  0  0  0  0  0  0  0
    0.7753   -0.3147    3.6294 H   0  0  0  0  0  0  0  0  0  0  0  0
  1  2  1  0  0  0  0
  2  3  1  0  0  0  0
  2  4  1  0  0  0  0
  2  5  1  0  0  0  0
  5  6  2  0  0  0  0
  5  7  1  0  0  0  0
  7  8  1  0  0  0  0
  7  9  1  0  0  0  0
  9 10  1  0  0  0  0
  9 11  1  0  0  0  0
  9 22  1  0  0  0  0
 11 12  1  0  0  0  0
 11 13  1  0  0  0  0
 11 14  1  0  0  0  0
 14 15  1  0  0  0  0
 14 20  2  0  0  0  0
 15 16  2  0  0  0  0
 16 17  1  0  0  0  0
 16 18  1  0  0  0  0
 18 19  1  0  0  0  0
 18 20  1  0  0  0  0
 20 21  1  0  0  0  0
 22 23  2  0  0  0  0
 22 24  1  0  0  0  0
 24 25  1  0  0  0  0
 24 26  1  0  0  0  0
 26 27  1  0  0  0  0
 26 28  1  0  0  0  0
 26 29  1  0  0  0  0
M  END
$$$$

  -OEChem-04042215593D

 29 29  0     1  0  0  0  0  0999 V2000
   -2.4940   -4.4757    0.4944 H   0  0  0  0  0  0  0  0  0  0  0  0
   -2.6314   -3.4929    0.0340 C   0  0  0  0  0  0  0  0  0  0  0  0
   -3.4172   -2.9585    0.5731 H   0  0  0  0  0  0  0  0  0  0  0  0
   -2.9406   -3.6326   -1.0046 H   0  0  0  0  0  0  0  0  0  0  0  0
   -1.3355   -2.7059    0.0899 C   0  0  0  0  0  0  0  0  0  0  0  0
   -0.3585   -3.1839    0.6358 O   0  0  0  0  0  0  0  0  0  0  0  0
   -1.2662   -1.4566   -0.4935 N   0  0  0  0  0  0  0  0  0  0  0  0
   -2.0820   -1.1489   -1.0148 H   0  0  0  0  0  0  0  0  0  0  0  0
   -0.0408   -0.6396   -0.5730 C   0  0  1  0  0  0  0  0  0  0  0  0
    0.7392   -1.2012   -1.0957 H   0  0  0  0  0  0  0  0  0  0  0  0
   -0.3822    0.6549   -1.3394 C   0  0  0  0  0  0  0  0  0  0  0  0
   -1.4067    0.9694   -1.1212 H   0  0  0  0  0  0  0  0  0  0  0  0
    0.2785    1.4568   -0.9932 H   0  0  0  0  0  0  0  0  0  0  0  0
   -0.1939    0.5657   -2.8306 C   0  0  0  0  0  0  0  0  0  0  0  0
   -0.4631    1.6548   -3.6483 N   0  0  0  0  0  0  0  0  0  0  0  0
   -0.2067    1.2797   -4.8783 C   0  0  0  0  0  0  0  0  0  0  0  0
   -0.3101    1.9124   -5.7552 H   0  0  0  0  0  0  0  0  0  0  0  0
    0.2085   -0.0375   -4.8906 N   0  0  0  0  0  0  0  0  0  0  0  0
    0.4817   -0.5597   -5.7213 H   0  0  0  0  0  0  0  0  0  0  0  0
    0.2148   -0.4992   -3.5915 C   0  0  0  0  0  0  0  0  0  0  0  0
    0.4925   -1.4894   -3.2420 H   0  0  0  0  0  0  0  0  0  0  0  0
    0.5602   -0.2825    0.8066 C   0  0  0  0  0  0  0  0  0  0  0  0
    1.7732   -0.1735    0.9293 O   0  0  0  0  0  0  0  0  0  0  0  0
   -0.2627    0.1534    1.8305 N   0  0  0  0  0  0  0  0  0  0  0  0
   -1.2564   -0.0149    1.7163 H   0  0  0  0  0  0  0  0  0  0  0  0
    0.2397    0.5430    3.1420 C   0  0  0  0  0  0  0  0  0  0  0  0
    0.9538    1.3681    3.0495 H   0  0  0  0  0  0  0  0  0  0  0  0
   -0.5852    0.8733    3.7803 H   0  0  0  0  0  0  0  0  0  0  0  0
    0.7385   -0.3029    3.6266 H   0  0  0  0  0  0  0  0  0  0  0  0
  1  2  1  0  0  0  0
  2  3  1  0  0  0  0
  2  4  1  0  0  0  0
  2  5  1  0  0  0  0
  5  6  2  0  0  0  0
  5  7  1  0  0  0  0
  7  8  1  0  0  0  0
  7  9  1  0  0  0  0
  9 10  1  0  0  0  0
  9 11  1  0  0  0  0
  9 22  1  0  0  0  0
 11 12  1  0  0  0  0
 11 13  1  0  0  0  0
 11 14  1  0  0  0  0
 14 15  1  0  0  0  0
 14 20  2  0  0  0  0
 15 16  2  0  0  0  0
 16 17  1  0  0  0  0
 16 18  1  0  0  0  0
 18 19  1  0  0  0  0
 18 20  1  0  0  0  0
 20 21  1  0  0  0  0
 22 23  2  0  0  0  0
 22 24  1  0  0  0  0
 24 25  1  0  0  0  0
 24 26  1  0  0  0  0
 26 27  1  0  0  0  0
 26 28  1  0  0  0  0
 26 29  1  0  0  0  0
M  END
$$$$

  -OEChem-04042215593D

 29 29  0     1  0  0  0  0  0999 V2000
   -2.4892   -4.4690    0.5246 H   0  0  0  0  0  0  0  0  0  0  0  0
   -2.6355   -3.4874    0.0646 C   0  0  0  0  0  0  0  0  0  0  0  0
   -3.4028   -2.9477    0.6246 H   0  0  0  0  0  0  0  0  0  0  0  0
   -2.9749   -3.6298   -0.9641 H   0  0  0  0  0  0  0  0  0  0  0  0
   -1.3353   -2.7057    0.0805 C   0  0  0  0  0  0  0  0  0  0  0  0
   -0.3430   -3.1899    0.5918 O   0  0  0  0  0  0  0  0  0  0  0  0
   -1.2808   -1.4529   -0.4975 N   0  0  0  0  0  0  0  0  0  0  0  0
   -2.1164   -1.1318   -0.9773 H   0  0  0  0  0  0  0  0  0  0  0  0
   -0.0609   -0.6275   -0.5875 C   0  0  1  0  0  0  0  0  0  0  0  0
    0.7154   -1.1814   -1.1263 H   0  0  0  0  0  0  0  0  0  0  0  0
   -0.4161    0.6656   -1.3492 C   0  0  0  0  0  0  0  0  0  0  0  0
   -1.4376    0.9838   -1.1237 H   0  0  0  0  0  0  0  0  0  0  0  0
    0.2509    1.4657   -1.0108 H   0  0  0  0  0  0  0  0  0  0  0  0
   -0.2353    0.5660   -2.8399 C   0  0  0  0  0  0  0  0  0  0  0  0
   -0.2089    1.6965   -3.6446 N   0  0  0  0  0  0  0  0  0  0  0  0
   -0.0116    1.2831   -4.8732 C   0  0  0  0  0  0  0  0  0  0  0  0
    0.0675    1.9312   -5.7414 H   0  0  0  0  0  0  0  0  0  0  0  0
    0.0786   -0.0953   -4.8966 N   0  0  0  0  0  0  0  0  0  0  0  0
    0.2516   -0.6584   -5.7276 H   0  0  0  0  0  0  0  0  0  0  0  0
   -0.0612   -0.5576   -3.6050 C   0  0  0  0  0  0  0  0  0  0  0  0
   -0.0250   -1.5862   -3.2579 H   0  0  0  0  0  0  0  0  0  0  0  0
    0.5536   -0.2744    0.7875 C   0  0  0  0  0  0  0  0  0  0  0  0
    1.7679   -0.1749    0.9036 O   0  0  0  0  0  0  0  0  0  0  0  0
   -0.2592    0.1511    1.8240 N   0  0  0  0  0  0  0  0  0  0  0  0
   -1.2555   -0.0036    1.7137 H   0  0  0  0  0  0  0  0  0  0  0  0
    0.2561    0.5146    3.1380 C   0  0  0  0  0  0  0  0  0  0  0  0
    0.9765    1.3352    3.0549 H   0  0  0  0  0  0  0  0  0  0  0  0
   -0.5613    0.8397    3.7883 H   0  0  0  0  0  0  0  0  0  0  0  0
    0.7514   -0.3434    3.6045 H   0  0  0  0  0  0  0  0  0  0  0  0
  1  2  1  0  0  0  0
  2  3  1  0  0  0  0
  2  4  1  0  0  0  0
  2  5  1  0  0  0  0
  5  6  2  0  0  0  0
  5  7  1  0  0  0  0
  7  8  1  0  0  0  0
  7  9  1  0  0  0  0
  9 10  1  0  0  0  0
  9 11  1  0  0  0  0
  9 22  1  0  0  0  0
 11 12  1  0  0  0  0
 11 13  1  0  0  0  0
 11 14  1  0  0  0  0
 14 15  1  0  0  0  0
 14 20  2  0  0  0  0
 15 16  2  0  0  0  0
 16 17  1  0  0  0  0
 16 18  1  0  0  0  0
 18 19  1  0  0  0  0
 18 20  1  0  0  0  0
 20 21  1  0  0  0  0
 22 23  2  0  0  0  0
 22 24  1  0  0  0  0
 24 25  1  0  0  0  0
 24 26  1  0  0  0  0
 26 27  1  0  0  0  0
 26 28  1  0  0  0  0
 26 29  1  0  0  0  0
M  END
$$$$

  -OEChem-04042215593D

 29 29  0     1  0  0  0  0  0999 V2000
   -2.4875   -4.4658    0.5240 H   0  0  0  0  0  0  0  0  0  0  0  0
   -2.6429   -3.4804    0.0751 C   0  0  0  0  0  0  0  0  0  0  0  0
   -3.3928   -2.9427    0.6602 H   0  0  0  0  0  0  0  0  0  0  0  0
   -3.0114   -3.6139   -0.9449 H   0  0  0  0  0  0  0  0  0  0  0  0
   -1.3394   -2.7042    0.0603 C   0  0  0  0  0  0  0  0  0  0  0  0
   -0.3347   -3.1980    0.5366 O   0  0  0  0  0  0  0  0  0  0  0  0
   -1.2970   -1.4447   -0.5037 N   0  0  0  0  0  0  0  0  0  0  0  0
   -2.1510   -1.1039   -0.9344 H   0  0  0  0  0  0  0  0  0  0  0  0
   -0.0812   -0.6134   -0.6018 C   0  0  1  0  0  0  0  0  0  0  0  0
    0.6875   -1.1582   -1.1621 H   0  0  0  0  0  0  0  0  0  0  0  0
   -0.4490    0.6844   -1.3481 C   0  0  0  0  0  0  0  0  0  0  0  0
   -1.4668    1.0048   -1.1105 H   0  0  0  0  0  0  0  0  0  0  0  0
    0.2247    1.4805   -1.0131 H   0  0  0  0  0  0  0  0  0  0  0  0
   -0.2789    0.5807   -2.8392 C   0  0  0  0  0  0  0  0  0  0  0  0
    0.0439    1.6777   -3.6256 N   0  0  0  0  0  0  0  0  0  0  0  0
    0.1754    1.2376   -4.8537 C   0  0  0  0  0  0  0  0  0  0  0  0
    0.4336    1.8544   -5.7100 H   0  0  0  0  0  0  0  0  0  0  0  0
   -0.0605   -0.1234   -4.8934 N   0  0  0  0  0  0  0  0  0  0  0  0
    0.0096   -0.7072   -5.7248 H   0  0  0  0  0  0  0  0  0  0  0  0
   -0.3413   -0.5486   -3.6123 C   0  0  0  0  0  0  0  0  0  0  0  0
   -0.5413   -1.5607   -3.2731 H   0  0  0  0  0  0  0  0  0  0  0  0
    0.5507   -0.2746    0.7684 C   0  0  0  0  0  0  0  0  0  0  0  0
    1.7654   -0.1673    0.8708 O   0  0  0  0  0  0  0  0  0  0  0  0
   -0.2528    0.1350    1.8186 N   0  0  0  0  0  0  0  0  0  0  0  0
   -1.2485   -0.0306    1.7203 H   0  0  0  0  0  0  0  0  0  0  0  0
    0.2747    0.4964    3.1282 C   0  0  0  0  0  0  0  0  0  0  0  0
    0.9850    1.3252    3.0403 H   0  0  0  0  0  0  0  0  0  0  0  0
   -0.5384    0.8093    3.7902 H   0  0  0  0  0  0  0  0  0  0  0  0
    0.7852   -0.3587    3.5836 H   0  0  0  0  0  0  0  0  0  0  0  0
  1  2  1  0  0  0  0
  2  3  1  0  0  0  0
  2  4  1  0  0  0  0
  2  5  1  0  0  0  0
  5  6  2  0  0  0  0
  5  7  1  0  0  0  0
  7  8  1  0  0  0  0
  7  9  1  0  0  0  0
  9 10  1  0  0  0  0
  9 11  1  0  0  0  0
  9 22  1  0  0  0  0
 11 12  1  0  0  0  0
 11 13  1  0  0  0  0
 11 14  1  0  0  0  0
 14 15  1  0  0  0  0
 14 20  2  0  0  0  0
 15 16  2  0  0  0  0
 16 17  1  0  0  0  0
 16 18  1  0  0  0  0
 18 19  1  0  0  0  0
 18 20  1  0  0  0  0
 20 21  1  0  0  0  0
 22 23  2  0  0  0  0
 22 24  1  0  0  0  0
 24 25  1  0  0  0  0
 24 26  1  0  0  0  0
 26 27  1  0  0  0  0
 26 28  1  0  0  0  0
 26 29  1  0  0  0  0
M  END
$$$$

  -OEChem-04042215593D

 29 29  0     1  0  0  0  0  0999 V2000
   -2.4861   -4.4666    0.5071 H   0  0  0  0  0  0  0  0  0  0  0  0
   -2.6487   -3.4776    0.0688 C   0  0  0  0  0  0  0  0  0  0  0  0
   -3.3864   -2.9435    0.6724 H   0  0  0  0  0  0  0  0  0  0  0  0
   -3.0374   -3.6032   -0.9445 H   0  0  0  0  0  0  0  0  0  0  0  0
   -1.3446   -2.7027    0.0338 C   0  0  0  0  0  0  0  0  0  0  0  0
   -0.3301   -3.2033    0.4811 O   0  0  0  0  0  0  0  0  0  0  0  0
   -1.3148   -1.4351   -0.5128 N   0  0  0  0  0  0  0  0  0  0  0  0
   -2.1839   -1.0790   -0.8979 H   0  0  0  0  0  0  0  0  0  0  0  0
   -0.1046   -0.5948   -0.6112 C   0  0  1  0  0  0  0  0  0  0  0  0
    0.6580   -1.1297   -1.1895 H   0  0  0  0  0  0  0  0  0  0  0  0
   -0.4804    0.7078   -1.3445 C   0  0  0  0  0  0  0  0  0  0  0  0
   -1.5002    1.0203   -1.1050 H   0  0  0  0  0  0  0  0  0  0  0  0
    0.1891    1.5061   -1.0057 H   0  0  0  0  0  0  0  0  0  0  0  0
   -0.3095    0.6012   -2.8344 C   0  0  0  0  0  0  0  0  0  0  0  0
    0.2954    1.5938   -3.5921 N   0  0  0  0  0  0  0  0  0  0  0  0
    0.3537    1.1478   -4.8234 C   0  0  0  0  0  0  0  0  0  0  0  0
    0.7788    1.6929   -5.6615 H   0  0  0  0  0  0  0  0  0  0  0  0
   -0.2010   -0.1160   -4.8922 N   0  0  0  0  0  0  0  0  0  0  0  0
   -0.2438   -0.6925   -5.7307 H   0  0  0  0  0  0  0  0  0  0  0  0
   -0.6136   -0.4740   -3.6261 C   0  0  0  0  0  0  0  0  0  0  0  0
   -1.0511   -1.4149   -3.3078 H   0  0  0  0  0  0  0  0  0  0  0  0
    0.5432   -0.2681    0.7546 C   0  0  0  0  0  0  0  0  0  0  0  0
    1.7582   -0.1535    0.8426 O   0  0  0  0  0  0  0  0  0  0  0  0
   -0.2472    0.1241    1.8215 N   0  0  0  0  0  0  0  0  0  0  0  0
   -1.2428   -0.0487    1.7387 H   0  0  0  0  0  0  0  0  0  0  0  0
    0.2991    0.4832    3.1242 C   0  0  0  0  0  0  0  0  0  0  0  0
    0.9952    1.3234    3.0297 H   0  0  0  0  0  0  0  0  0  0  0  0
   -0.5056    0.7789    3.8039 H   0  0  0  0  0  0  0  0  0  0  0  0
    0.8304   -0.3678    3.5634 H   0  0  0  0  0  0  0  0  0  0  0  0
  1  2  1  0  0  0  0
  2  3  1  0  0  0  0
  2  4  1  0  0  0  0
  2  5  1  0  0  0  0
  5  6  2  0  0  0  0
  5  7  1  0  0  0  0
  7  8  1  0  0  0  0
  7  9  1  0  0  0  0
  9 10  1  0  0  0  0
  9 11  1  0  0  0  0
  9 22  1  0  0  0  0
 11 12  1  0  0  0  0
 11 13  1  0  0  0  0
 11 14  1  0  0  0  0
 14 15  1  0  0  0  0
 14 20  2  0  0  0  0
 15 16  2  0  0  0  0
 16 17  1  0  0  0  0
 16 18  1  0  0  0  0
 18 19  1  0  0  0  0
 18 20  1  0  0  0  0
 20 21  1  0  0  0  0
 22 23  2  0  0  0  0
 22 24  1  0  0  0  0
 24 25  1  0  0  0  0
 24 26  1  0  0  0  0
 26 27  1  0  0  0  0
 26 28  1  0  0  0  0
 26 29  1  0  0  0  0
M  END
$$$$

  -OEChem-04042215593D

 29 29  0     1  0  0  0  0  0999 V2000
   -2.4618   -4.4639    0.4924 H   0  0  0  0  0  0  0  0  0  0  0  0
   -2.6316   -3.4737    0.0595 C   0  0  0  0  0  0  0  0  0  0  0  0
   -3.3671   -2.9451    0.6705 H   0  0  0  0  0  0  0  0  0  0  0  0
   -3.0260   -3.5964   -0.9520 H   0  0  0  0  0  0  0  0  0  0  0  0
   -1.3313   -2.6933    0.0200 C   0  0  0  0  0  0  0  0  0  0  0  0
   -0.3137   -3.1901    0.4646 O   0  0  0  0  0  0  0  0  0  0  0  0
   -1.3113   -1.4222   -0.5192 N   0  0  0  0  0  0  0  0  0  0  0  0
   -2.1852   -1.0653   -0.8913 H   0  0  0  0  0  0  0  0  0  0  0  0
   -0.1053   -0.5759   -0.6160 C   0  0  1  0  0  0  0  0  0  0  0  0
    0.6570   -1.1058   -1.1995 H   0  0  0  0  0  0  0  0  0  0  0  0
   -0.4820    0.7294   -1.3432 C   0  0  0  0  0  0  0  0  0  0  0  0
   -1.5066    1.0307   -1.1099 H   0  0  0  0  0  0  0  0  0  0  0  0
    0.1777    1.5347   -1.0017 H   0  0  0  0  0  0  0  0  0  0  0  0
   -0.3035    0.6099   -2.8299 C   0  0  0  0  0  0  0  0  0  0  0  0
    0.5538    1.4217   -3.5580 N   0  0  0  0  0  0  0  0  0  0  0  0
    0.5043    1.0053   -4.7999 C   0  0  0  0  0  0  0  0  0  0  0  0
    1.0716    1.4335   -5.6214 H   0  0  0  0  0  0  0  0  0  0  0  0
   -0.3728   -0.0579   -4.9041 N   0  0  0  0  0  0  0  0  0  0  0  0
   -0.5670   -0.5752   -5.7596 H   0  0  0  0  0  0  0  0  0  0  0  0
   -0.8849   -0.3187   -3.6503 C   0  0  0  0  0  0  0  0  0  0  0  0
   -1.5754   -1.1039   -3.3612 H   0  0  0  0  0  0  0  0  0  0  0  0
    0.5428   -0.2563    0.7516 C   0  0  0  0  0  0  0  0  0  0  0  0
    1.7577   -0.1441    0.8442 O   0  0  0  0  0  0  0  0  0  0  0  0
   -0.2497    0.1245    1.8210 N   0  0  0  0  0  0  0  0  0  0  0  0
   -1.2446   -0.0504    1.7350 H   0  0  0  0  0  0  0  0  0  0  0  0
    0.2944    0.4623    3.1302 C   0  0  0  0  0  0  0  0  0  0  0  0
    1.0164    1.2815    3.0459 H   0  0  0  0  0  0  0  0  0  0  0  0
   -0.5080    0.7802    3.8026 H   0  0  0  0  0  0  0  0  0  0  0  0
    0.7953   -0.4060    3.5712 H   0  0  0  0  0  0  0  0  0  0  0  0
  1  2  1  0  0  0  0
  2  3  1  0  0  0  0
  2  4  1  0  0  0  0
  2  5  1  0  0  0  0
  5  6  2  0  0  0  0
  5  7  1  0  0  0  0
  7  8  1  0  0  0  0
  7  9  1  0  0  0  0
  9 10  1  0  0  0  0
  9 11  1  0  0  0  0
  9 22  1  0  0  0  0
 11 12  1  0  0  0  0
 11 13  1  0  0  0  0
 11 14  1  0  0  0  0
 14 15  1  0  0  0  0
 14 20  2  0  0  0  0
 15 16  2  0  0  0  0
 16 17  1  0  0  0  0
 16 18  1  0  0  0  0
 18 19  1  0  0  0  0
 18 20  1  0  0  0  0
 20 21  1  0  0  0  0
 22 23  2  0  0  0  0
 22 24  1  0  0  0  0
 24 25  1  0  0  0  0
 24 26  1  0  0  0  0
 26 27  1  0  0  0  0
 26 28  1  0  0  0  0
 26 29  1  0  0  0  0
M  END
$$$$

  -OEChem-04042215593D

 29 29  0     1  0  0  0  0  0999 V2000
   -2.4548   -4.4794    0.4518 H   0  0  0  0  0  0  0  0  0  0  0  0
   -2.6204   -3.4873    0.0215 C   0  0  0  0  0  0  0  0  0  0  0  0
   -3.3924   -2.9767    0.6021 H   0  0  0  0  0  0  0  0  0  0  0  0
   -2.9644   -3.6056   -1.0088 H   0  0  0  0  0  0  0  0  0  0  0  0
   -1.3327   -2.6857    0.0518 C   0  0  0  0  0  0  0  0  0  0  0  0
   -0.3383   -3.1595    0.5680 O   0  0  0  0  0  0  0  0  0  0  0  0
   -1.3022   -1.4211   -0.5023 N   0  0  0  0  0  0  0  0  0  0  0  0
   -2.1454   -1.1085   -0.9706 H   0  0  0  0  0  0  0  0  0  0  0  0
   -0.0902   -0.5836   -0.6051 C   0  0  1  0  0  0  0  0  0  0  0  0
    0.6704   -1.1211   -1.1842 H   0  0  0  0  0  0  0  0  0  0  0  0
   -0.4575    0.7225   -1.3347 C   0  0  0  0  0  0  0  0  0  0  0  0
   -1.4832    1.0212   -1.1028 H   0  0  0  0  0  0  0  0  0  0  0  0
    0.1997    1.5326   -1.0001 H   0  0  0  0  0  0  0  0  0  0  0  0
   -0.2798    0.5813   -2.8182 C   0  0  0  0  0  0  0  0  0  0  0  0
    0.7772    1.1408   -3.5198 N   0  0  0  0  0  0  0  0  0  0  0  0
    0.6058    0.8199   -4.7788 C   0  0  0  0  0  0  0  0  0  0  0  0
    1.2725    1.1029   -5.5884 H   0  0  0  0  0  0  0  0  0  0  0  0
   -0.5490    0.0731   -4.9199 N   0  0  0  0  0  0  0  0  0  0  0  0
   -0.8997   -0.3016   -5.7996 H   0  0  0  0  0  0  0  0  0  0  0  0
   -1.1209   -0.0770   -3.6735 C   0  0  0  0  0  0  0  0  0  0  0  0
   -2.0329   -0.6047   -3.4169 H   0  0  0  0  0  0  0  0  0  0  0  0
    0.5533   -0.2542    0.7625 C   0  0  0  0  0  0  0  0  0  0  0  0
    1.7677   -0.1423    0.8616 O   0  0  0  0  0  0  0  0  0  0  0  0
   -0.2457    0.1424    1.8214 N   0  0  0  0  0  0  0  0  0  0  0  0
   -1.2375   -0.0489    1.7333 H   0  0  0  0  0  0  0  0  0  0  0  0
    0.2906    0.4789    3.1341 C   0  0  0  0  0  0  0  0  0  0  0  0
    0.9978    1.3116    3.0575 H   0  0  0  0  0  0  0  0  0  0  0  0
   -0.5185    0.7758    3.8082 H   0  0  0  0  0  0  0  0  0  0  0  0
    0.8072   -0.3836    3.5683 H   0  0  0  0  0  0  0  0  0  0  0  0
  1  2  1  0  0  0  0
  2  3  1  0  0  0  0
  2  4  1  0  0  0  0
  2  5  1  0  0  0  0
  5  6  2  0  0  0  0
  5  7  1  0  0  0  0
  7  8  1  0  0  0  0
  7  9  1  0  0  0  0
  9 10  1  0  0  0  0
  9 11  1  0  0  0  0
  9 22  1  0  0  0  0
 11 12  1  0  0  0  0
 11 13  1  0  0  0  0
 11 14  1  0  0  0  0
 14 15  1  0  0  0  0
 14 20  2  0  0  0  0
 15 16  2  0  0  0  0
 16 17  1  0  0  0  0
 16 18  1  0  0  0  0
 18 19  1  0  0  0  0
 18 20  1  0  0  0  0
 20 21  1  0  0  0  0
 22 23  2  0  0  0  0
 22 24  1  0  0  0  0
 24 25  1  0  0  0  0
 24 26  1  0  0  0  0
 26 27  1  0  0  0  0
 26 28  1  0  0  0  0
 26 29  1  0  0  0  0
M  END
$$$$

  -OEChem-04042215593D

 29 29  0     1  0  0  0  0  0999 V2000
   -2.4564   -4.4939    0.4260 H   0  0  0  0  0  0  0  0  0  0  0  0
   -2.6148   -3.5097   -0.0246 C   0  0  0  0  0  0  0  0  0  0  0  0
   -3.4398   -3.0148    0.4932 H   0  0  0  0  0  0  0  0  0  0  0  0
   -2.8799   -3.6449   -1.0759 H   0  0  0  0  0  0  0  0  0  0  0  0
   -1.3531   -2.6748    0.0907 C   0  0  0  0  0  0  0  0  0  0  0  0
   -0.3904   -3.1175    0.6884 O   0  0  0  0  0  0  0  0  0  0  0  0
   -1.3140   -1.4172   -0.4792 N   0  0  0  0  0  0  0  0  0  0  0  0
   -2.1095   -1.1647   -1.0549 H   0  0  0  0  0  0  0  0  0  0  0  0
   -0.0929   -0.5946   -0.5934 C   0  0  1  0  0  0  0  0  0  0  0  0
    0.6606   -1.1420   -1.1723 H   0  0  0  0  0  0  0  0  0  0  0  0
   -0.4529    0.7129   -1.3241 C   0  0  0  0  0  0  0  0  0  0  0  0
   -1.4738    1.0208   -1.0822 H   0  0  0  0  0  0  0  0  0  0  0  0
    0.2160    1.5187   -1.0028 H   0  0  0  0  0  0  0  0  0  0  0  0
   -0.2880    0.5560   -2.8065 C   0  0  0  0  0  0  0  0  0  0  0  0
    0.8916    0.8226   -3.4838 N   0  0  0  0  0  0  0  0  0  0  0  0
    0.6510    0.6162   -4.7555 C   0  0  0  0  0  0  0  0  0  0  0  0
    1.3795    0.7342   -5.5528 H   0  0  0  0  0  0  0  0  0  0  0  0
   -0.6668    0.2349   -4.9281 N   0  0  0  0  0  0  0  0  0  0  0  0
   -1.1042    0.0309   -5.8251 H   0  0  0  0  0  0  0  0  0  0  0  0
   -1.2736    0.2079   -3.6894 C   0  0  0  0  0  0  0  0  0  0  0  0
   -2.3071   -0.0258   -3.4570 H   0  0  0  0  0  0  0  0  0  0  0  0
    0.5577   -0.2563    0.7693 C   0  0  0  0  0  0  0  0  0  0  0  0
    1.7728   -0.1446    0.8618 O   0  0  0  0  0  0  0  0  0  0  0  0
   -0.2359    0.1612    1.8242 N   0  0  0  0  0  0  0  0  0  0  0  0
   -1.2250   -0.0497    1.7484 H   0  0  0  0  0  0  0  0  0  0  0  0
    0.3079    0.5066    3.1315 C   0  0  0  0  0  0  0  0  0  0  0  0
    1.0153    1.3380    3.0453 H   0  0  0  0  0  0  0  0  0  0  0  0
   -0.4972    0.8091    3.8076 H   0  0  0  0  0  0  0  0  0  0  0  0
    0.8264   -0.3529    3.5692 H   0  0  0  0  0  0  0  0  0  0  0  0
  1  2  1  0  0  0  0
  2  3  1  0  0  0  0
  2  4  1  0  0  0  0
  2  5  1  0  0  0  0
  5  6  2  0  0  0  0
  5  7  1  0  0  0  0
  7  8  1  0  0  0  0
  7  9  1  0  0  0  0
  9 10  1  0  0  0  0
  9 11  1  0  0  0  0
  9 22  1  0  0  0  0
 11 12  1  0  0  0  0
 11 13  1  0  0  0  0
 11 14  1  0  0  0  0
 14 15  1  0  0  0  0
 14 20  2  0  0  0  0
 15 16  2  0  0  0  0
 16 17  1  0  0  0  0
 16 18  1  0  0  0  0
 18 19  1  0  0  0  0
 18 20  1  0  0  0  0
 20 21  1  0  0  0  0
 22 23  2  0  0  0  0
 22 24  1  0  0  0  0
 24 25  1  0  0  0  0
 24 26  1  0  0  0  0
 26 27  1  0  0  0  0
 26 28  1  0  0  0  0
 26 29  1  0  0  0  0
M  END
$$$$

  -OEChem-04042215593D

 29 29  0     1  0  0  0  0  0999 V2000
   -2.4768   -4.4728    0.4668 H   0  0  0  0  0  0  0  0  0  0  0  0
   -2.6145   -3.5138   -0.0411 C   0  0  0  0  0  0  0  0  0  0  0  0
   -3.4675   -2.9987    0.4069 H   0  0  0  0  0  0  0  0  0  0  0  0
   -2.8227   -3.7031   -1.0968 H   0  0  0  0  0  0  0  0  0  0  0  0
   -1.3633   -2.6669    0.0983 C   0  0  0  0  0  0  0  0  0  0  0  0
   -0.4128   -3.0969    0.7245 O   0  0  0  0  0  0  0  0  0  0  0  0
   -1.3243   -1.4105   -0.4745 N   0  0  0  0  0  0  0  0  0  0  0  0
   -2.0998   -1.1831   -1.0872 H   0  0  0  0  0  0  0  0  0  0  0  0
   -0.0998   -0.5930   -0.5934 C   0  0  1  0  0  0  0  0  0  0  0  0
    0.6493   -1.1422   -1.1764 H   0  0  0  0  0  0  0  0  0  0  0  0
   -0.4639    0.7169   -1.3187 C   0  0  0  0  0  0  0  0  0  0  0  0
   -1.4795    1.0311   -1.0628 H   0  0  0  0  0  0  0  0  0  0  0  0
    0.2140    1.5171   -1.0036 H   0  0  0  0  0  0  0  0  0  0  0  0
   -0.3114    0.5654   -2.8029 C   0  0  0  0  0  0  0  0  0  0  0  0
    0.9097    0.5387   -3.4582 N   0  0  0  0  0  0  0  0  0  0  0  0
    0.6490    0.4337   -4.7382 C   0  0  0  0  0  0  0  0  0  0  0  0
    1.3989    0.3860   -5.5228 H   0  0  0  0  0  0  0  0  0  0  0  0
   -0.7190    0.3975   -4.9366 N   0  0  0  0  0  0  0  0  0  0  0  0
   -1.1772    0.3345   -5.8441 H   0  0  0  0  0  0  0  0  0  0  0  0
   -1.3361    0.4913   -3.7061 C   0  0  0  0  0  0  0  0  0  0  0  0
   -2.3996    0.5161   -3.4908 H   0  0  0  0  0  0  0  0  0  0  0  0
    0.5578   -0.2542    0.7661 C   0  0  0  0  0  0  0  0  0  0  0  0
    1.7736   -0.1423    0.8528 O   0  0  0  0  0  0  0  0  0  0  0  0
   -0.2301    0.1688    1.8232 N   0  0  0  0  0  0  0  0  0  0  0  0
   -1.2184   -0.0475    1.7536 H   0  0  0  0  0  0  0  0  0  0  0  0
    0.3212    0.5042    3.1299 C   0  0  0  0  0  0  0  0  0  0  0  0
    1.0357    1.3297    3.0441 H   0  0  0  0  0  0  0  0  0  0  0  0
   -0.4784    0.8112    3.8105 H   0  0  0  0  0  0  0  0  0  0  0  0
    0.8332   -0.3619    3.5624 H   0  0  0  0  0  0  0  0  0  0  0  0
  1  2  1  0  0  0  0
  2  3  1  0  0  0  0
  2  4  1  0  0  0  0
  2  5  1  0  0  0  0
  5  6  2  0  0  0  0
  5  7  1  0  0  0  0
  7  8  1  0  0  0  0
  7  9  1  0  0  0  0
  9 10  1  0  0  0  0
  9 11  1  0  0  0  0
  9 22  1  0  0  0  0
 11 12  1  0  0  0  0
 11 13  1  0  0  0  0
 11 14  1  0  0  0  0
 14 15  1  0  0  0  0
 14 20  2  0  0  0  0
 15 16  2  0  0  0  0
 16 17  1  0  0  0  0
 16 18  1  0  0  0  0
 18 19  1  0  0  0  0
 18 20  1  0  0  0  0
 20 21  1  0  0  0  0
 22 23  2  0  0  0  0
 22 24  1  0  0  0  0
 24 25  1  0  0  0  0
 24 26  1  0  0  0  0
 26 27  1  0  0  0  0
 26 28  1  0  0  0  0
 26 29  1  0  0  0  0
M  END
$$$$

  -OEChem-04042215593D

 29 29  0     1  0  0  0  0  0999 V2000
   -2.4699   -4.4907    0.4105 H   0  0  0  0  0  0  0  0  0  0  0  0
   -2.6162   -3.5171   -0.0658 C   0  0  0  0  0  0  0  0  0  0  0  0
   -3.4766   -3.0261    0.3949 H   0  0  0  0  0  0  0  0  0  0  0  0
   -2.8183   -3.6745   -1.1279 H   0  0  0  0  0  0  0  0  0  0  0  0
   -1.3752   -2.6613    0.1067 C   0  0  0  0  0  0  0  0  0  0  0  0
   -0.4402   -3.0825    0.7618 O   0  0  0  0  0  0  0  0  0  0  0  0
   -1.3300   -1.4068   -0.4695 N   0  0  0  0  0  0  0  0  0  0  0  0
   -2.0859   -1.1965   -1.1125 H   0  0  0  0  0  0  0  0  0  0  0  0
   -0.1003   -0.5976   -0.5889 C   0  0  1  0  0  0  0  0  0  0  0  0
    0.6458   -1.1525   -1.1704 H   0  0  0  0  0  0  0  0  0  0  0  0
   -0.4631    0.7151   -1.3114 C   0  0  0  0  0  0  0  0  0  0  0  0
   -1.4730    1.0391   -1.0447 H   0  0  0  0  0  0  0  0  0  0  0  0
    0.2269    1.5056   -0.9984 H   0  0  0  0  0  0  0  0  0  0  0  0
   -0.3211    0.5780   -2.7991 C   0  0  0  0  0  0  0  0  0  0  0  0
    0.8613    0.2579   -3.4492 N   0  0  0  0  0  0  0  0  0  0  0  0
    0.5984    0.2546   -4.7330 C   0  0  0  0  0  0  0  0  0  0  0  0
    1.3221    0.0404   -5.5145 H   0  0  0  0  0  0  0  0  0  0  0  0
   -0.7328    0.5658   -4.9391 N   0  0  0  0  0  0  0  0  0  0  0  0
   -1.1817    0.6427   -5.8500 H   0  0  0  0  0  0  0  0  0  0  0  0
   -1.3216    0.7790   -3.7097 C   0  0  0  0  0  0  0  0  0  0  0  0
   -2.3490    1.0590   -3.4982 H   0  0  0  0  0  0  0  0  0  0  0  0
    0.5597   -0.2586    0.7695 C   0  0  0  0  0  0  0  0  0  0  0  0
    1.7753   -0.1399    0.8526 O   0  0  0  0  0  0  0  0  0  0  0  0
   -0.2271    0.1725    1.8243 N   0  0  0  0  0  0  0  0  0  0  0  0
   -1.2137   -0.0542    1.7604 H   0  0  0  0  0  0  0  0  0  0  0  0
    0.3260    0.5174    3.1277 C   0  0  0  0  0  0  0  0  0  0  0  0
    1.0464    1.3370    3.0341 H   0  0  0  0  0  0  0  0  0  0  0  0
   -0.4717    0.8370    3.8048 H   0  0  0  0  0  0  0  0  0  0  0  0
    0.8320   -0.3478    3.5688 H   0  0  0  0  0  0  0  0  0  0  0  0
  1  2  1  0  0  0  0
  2  3  1  0  0  0  0
  2  4  1  0  0  0  0
  2  5  1  0  0  0  0
  5  6  2  0  0  0  0
  5  7  1  0  0  0  0
  7  8  1  0  0  0  0
  7  9  1  0  0  0  0
  9 10  1  0  0  0  0
  9 11  1  0  0  0  0
  9 22  1  0  0  0  0
 11 12  1  0  0  0  0
 11 13  1  0  0  0  0
 11 14  1  0  0  0  0
 14 15  1  0  0  0  0
 14 20  2  0  0  0  0
 15 16  2  0  0  0  0
 16 17  1  0  0  0  0
 16 18  1  0  0  0  0
 18 19  1  0  0  0  0
 18 20  1  0  0  0  0
 20 21  1  0  0  0  0
 22 23  2  0  0  0  0
 22 24  1  0  0  0  0
 24 25  1  0  0  0  0
 24 26  1  0  0  0  0
 26 27  1  0  0  0  0
 26 28  1  0  0  0  0
 26 29  1  0  0  0  0
M  END
$$$$

  -OEChem-04042215593D

 29 29  0     1  0  0  0  0  0999 V2000
   -2.4830   -4.4795    0.4385 H   0  0  0  0  0  0  0  0  0  0  0  0
   -2.6143   -3.5201   -0.0705 C   0  0  0  0  0  0  0  0  0  0  0  0
   -3.4924   -3.0193    0.3442 H   0  0  0  0  0  0  0  0  0  0  0  0
   -2.7766   -3.7074   -1.1347 H   0  0  0  0  0  0  0  0  0  0  0  0
   -1.3826   -2.6554    0.1222 C   0  0  0  0  0  0  0  0  0  0  0  0
   -0.4629   -3.0642    0.8066 O   0  0  0  0  0  0  0  0  0  0  0  0
   -1.3317   -1.4056   -0.4640 N   0  0  0  0  0  0  0  0  0  0  0  0
   -2.0706   -1.2126   -1.1320 H   0  0  0  0  0  0  0  0  0  0  0  0
   -0.0967   -0.6055   -0.5864 C   0  0  1  0  0  0  0  0  0  0  0  0
    0.6471   -1.1707   -1.1600 H   0  0  0  0  0  0  0  0  0  0  0  0
   -0.4505    0.7092   -1.3127 C   0  0  0  0  0  0  0  0  0  0  0  0
   -1.4529    1.0488   -1.0370 H   0  0  0  0  0  0  0  0  0  0  0  0
    0.2545    1.4868   -1.0005 H   0  0  0  0  0  0  0  0  0  0  0  0
   -0.3174    0.5905   -2.8043 C   0  0  0  0  0  0  0  0  0  0  0  0
    0.7467   -0.0034   -3.4681 N   0  0  0  0  0  0  0  0  0  0  0  0
    0.5011    0.1026   -4.7508 C   0  0  0  0  0  0  0  0  0  0  0  0
    1.1524   -0.2623   -5.5400 H   0  0  0  0  0  0  0  0  0  0  0  0
   -0.7072    0.7456   -4.9444 N   0  0  0  0  0  0  0  0  0  0  0  0
   -1.1166    0.9639   -5.8512 H   0  0  0  0  0  0  0  0  0  0  0  0
   -1.2317    1.0585   -3.7075 C   0  0  0  0  0  0  0  0  0  0  0  0
   -2.1596    1.5765   -3.4844 H   0  0  0  0  0  0  0  0  0  0  0  0
    0.5604   -0.2624    0.7722 C   0  0  0  0  0  0  0  0  0  0  0  0
    1.7758   -0.1401    0.8565 O   0  0  0  0  0  0  0  0  0  0  0  0
   -0.2294    0.1801    1.8197 N   0  0  0  0  0  0  0  0  0  0  0  0
   -1.2139   -0.0558    1.7551 H   0  0  0  0  0  0  0  0  0  0  0  0
    0.3193    0.5202    3.1261 C   0  0  0  0  0  0  0  0  0  0  0  0
    1.0406    1.3395    3.0380 H   0  0  0  0  0  0  0  0  0  0  0  0
   -0.4809    0.8378    3.8012 H   0  0  0  0  0  0  0  0  0  0  0  0
    0.8223   -0.3476    3.5660 H   0  0  0  0  0  0  0  0  0  0  0  0
  1  2  1  0  0  0  0
  2  3  1  0  0  0  0
  2  4  1  0  0  0  0
  2  5  1  0  0  0  0
  5  6  2  0  0  0  0
  5  7  1  0  0  0  0
  7  8  1  0  0  0  0
  7  9  1  0  0  0  0
  9 10  1  0  0  0  0
  9 11  1  0  0  0  0
  9 22  1  0  0  0  0
 11 12  1  0  0  0  0
 11 13  1  0  0  0  0
 11 14  1  0  0  0  0
 14 15  1  0  0  0  0
 14 20  2  0  0  0  0
 15 16  2  0  0  0  0
 16 17  1  0  0  0  0
 16 18  1  0  0  0  0
 18 19  1  0  0  0  0
 18 20  1  0  0  0  0
 20 21  1  0  0  0  0
 22 23  2  0  0  0  0
 22 24  1  0  0  0  0
 24 25  1  0  0  0  0
 24 26  1  0  0  0  0
 26 27  1  0  0  0  0
 26 28  1  0  0  0  0
 26 29  1  0  0  0  0
M  END
$$$$

  -OEChem-04042215593D

 29 29  0     1  0  0  0  0  0999 V2000
   -2.5000   -4.4750    0.4445 H   0  0  0  0  0  0  0  0  0  0  0  0
   -2.6172   -3.5229   -0.0811 C   0  0  0  0  0  0  0  0  0  0  0  0
   -3.5065   -3.0171    0.3023 H   0  0  0  0  0  0  0  0  0  0  0  0
   -2.7505   -3.7252   -1.1466 H   0  0  0  0  0  0  0  0  0  0  0  0
   -1.3916   -2.6545    0.1328 C   0  0  0  0  0  0  0  0  0  0  0  0
   -0.4876   -3.0555    0.8424 O   0  0  0  0  0  0  0  0  0  0  0  0
   -1.3318   -1.4083   -0.4597 N   0  0  0  0  0  0  0  0  0  0  0  0
   -2.0514   -1.2307   -1.1529 H   0  0  0  0  0  0  0  0  0  0  0  0
   -0.0917   -0.6164   -0.5808 C   0  0  1  0  0  0  0  0  0  0  0  0
    0.6522   -1.1885   -1.1464 H   0  0  0  0  0  0  0  0  0  0  0  0
   -0.4386    0.6987   -1.3116 C   0  0  0  0  0  0  0  0  0  0  0  0
   -1.4375    1.0461   -1.0335 H   0  0  0  0  0  0  0  0  0  0  0  0
    0.2720    1.4701   -0.9970 H   0  0  0  0  0  0  0  0  0  0  0  0
   -0.3099    0.5948   -2.8065 C   0  0  0  0  0  0  0  0  0  0  0  0
    0.5701   -0.2300   -3.4948 N   0  0  0  0  0  0  0  0  0  0  0  0
    0.3675   -0.0219   -4.7727 C   0  0  0  0  0  0  0  0  0  0  0  0
    0.9089   -0.5142   -5.5756 H   0  0  0  0  0  0  0  0  0  0  0  0
   -0.6382    0.9107   -4.9409 N   0  0  0  0  0  0  0  0  0  0  0  0
   -0.9758    1.2540   -5.8384 H   0  0  0  0  0  0  0  0  0  0  0  0
   -1.0737    1.3035   -3.6925 C   0  0  0  0  0  0  0  0  0  0  0  0
   -1.8451    2.0279   -3.4494 H   0  0  0  0  0  0  0  0  0  0  0  0
    0.5625   -0.2699    0.7783 C   0  0  0  0  0  0  0  0  0  0  0  0
    1.7772   -0.1385    0.8602 O   0  0  0  0  0  0  0  0  0  0  0  0
   -0.2291    0.1826    1.8200 N   0  0  0  0  0  0  0  0  0  0  0  0
   -1.2115   -0.0630    1.7582 H   0  0  0  0  0  0  0  0  0  0  0  0
    0.3171    0.5353    3.1241 C   0  0  0  0  0  0  0  0  0  0  0  0
    1.0356    1.3563    3.0297 H   0  0  0  0  0  0  0  0  0  0  0  0
   -0.4848    0.8559    3.7958 H   0  0  0  0  0  0  0  0  0  0  0  0
    0.8232   -0.3265    3.5719 H   0  0  0  0  0  0  0  0  0  0  0  0
  1  2  1  0  0  0  0
  2  3  1  0  0  0  0
  2  4  1  0  0  0  0
  2  5  1  0  0  0  0
  5  6  2  0  0  0  0
  5  7  1  0  0  0  0
  7  8  1  0  0  0  0
  7  9  1  0  0  0  0
  9 10  1  0  0  0  0
  9 11  1  0  0  0  0
  9 22  1  0  0  0  0
 11 12  1  0  0  0  0
 11 13  1  0  0  0  0
 11 14  1  0  0  0  0
 14 15  1  0  0  0  0
 14 20  2  0  0  0  0
 15 16  2  0  0  0  0
 16 17  1  0  0  0  0
 16 18  1  0  0  0  0
 18 19  1  0  0  0  0
 18 20  1  0  0  0  0
 20 21  1  0  0  0  0
 22 23  2  0  0  0  0
 22 24  1  0  0  0  0
 24 25  1  0  0  0  0
 24 26  1  0  0  0  0
 26 27  1  0  0  0  0
 26 28  1  0  0  0  0
 26 29  1  0  0  0  0
M  END
$$$$

  -OEChem-04042215593D

 29 29  0     1  0  0  0  0  0999 V2000
   -2.4980   -4.4837    0.4395 H   0  0  0  0  0  0  0  0  0  0  0  0
   -2.6163   -3.5316   -0.0859 C   0  0  0  0  0  0  0  0  0  0  0  0
   -3.5162   -3.0348    0.2842 H   0  0  0  0  0  0  0  0  0  0  0  0
   -2.7306   -3.7328   -1.1538 H   0  0  0  0  0  0  0  0  0  0  0  0
   -1.4025   -2.6519    0.1488 C   0  0  0  0  0  0  0  0  0  0  0  0
   -0.5116   -3.0398    0.8822 O   0  0  0  0  0  0  0  0  0  0  0  0
   -1.3406   -1.4097   -0.4514 N   0  0  0  0  0  0  0  0  0  0  0  0
   -2.0431   -1.2519   -1.1670 H   0  0  0  0  0  0  0  0  0  0  0  0
   -0.0974   -0.6240   -0.5780 C   0  0  1  0  0  0  0  0  0  0  0  0
    0.6443   -1.2012   -1.1412 H   0  0  0  0  0  0  0  0  0  0  0  0
   -0.4388    0.6915   -1.3118 C   0  0  0  0  0  0  0  0  0  0  0  0
   -1.4372    1.0407   -1.0337 H   0  0  0  0  0  0  0  0  0  0  0  0
    0.2731    1.4618   -0.9970 H   0  0  0  0  0  0  0  0  0  0  0  0
   -0.3176    0.5930   -2.8083 C   0  0  0  0  0  0  0  0  0  0  0  0
    0.3236   -0.4137   -3.5198 N   0  0  0  0  0  0  0  0  0  0  0  0
    0.2049   -0.1169   -4.7911 C   0  0  0  0  0  0  0  0  0  0  0  0
    0.6116   -0.7064   -5.6079 H   0  0  0  0  0  0  0  0  0  0  0  0
   -0.5172    1.0524   -4.9329 N   0  0  0  0  0  0  0  0  0  0  0  0
   -0.7361    1.5034   -5.8195 H   0  0  0  0  0  0  0  0  0  0  0  0
   -0.8526    1.5060   -3.6743 C   0  0  0  0  0  0  0  0  0  0  0  0
   -1.4081    2.4011   -3.4101 H   0  0  0  0  0  0  0  0  0  0  0  0
    0.5602   -0.2721    0.7779 C   0  0  0  0  0  0  0  0  0  0  0  0
    1.7751   -0.1371    0.8531 O   0  0  0  0  0  0  0  0  0  0  0  0
   -0.2278    0.1900    1.8180 N   0  0  0  0  0  0  0  0  0  0  0  0
   -1.2092   -0.0617    1.7628 H   0  0  0  0  0  0  0  0  0  0  0  0
    0.3230    0.5484    3.1186 C   0  0  0  0  0  0  0  0  0  0  0  0
    1.0420    1.3684    3.0188 H   0  0  0  0  0  0  0  0  0  0  0  0
   -0.4768    0.8726    3.7910 H   0  0  0  0  0  0  0  0  0  0  0  0
    0.8292   -0.3121    3.5687 H   0  0  0  0  0  0  0  0  0  0  0  0
  1  2  1  0  0  0  0
  2  3  1  0  0  0  0
  2  4  1  0  0  0  0
  2  5  1  0  0  0  0
  5  6  2  0  0  0  0
  5  7  1  0  0  0  0
  7  8  1  0  0  0  0
  7  9  1  0  0  0  0
  9 10  1  0  0  0  0
  9 11  1  0  0  0  0
  9 22  1  0  0  0  0
 11 12  1  0  0  0  0
 11 13  1  0  0  0  0
 11 14  1  0  0  0  0
 14 15  1  0  0  0  0
 14 20  2  0  0  0  0
 15 16  2  0  0  0  0
 16 17  1  0  0  0  0
 16 18  1  0  0  0  0
 18 19  1  0  0  0  0
 18 20  1  0  0  0  0
 20 21  1  0  0  0  0
 22 23  2  0  0  0  0
 22 24  1  0  0  0  0
 24 25  1  0  0  0  0
 24 26  1  0  0  0  0
 26 27  1  0  0  0  0
 26 28  1  0  0  0  0
 26 29  1  0  0  0  0
M  END
$$$$

  -OEChem-04042215593D

 29 29  0     1  0  0  0  0  0999 V2000
   -2.4841   -4.4950    0.4255 H   0  0  0  0  0  0  0  0  0  0  0  0
   -2.6115   -3.5415   -0.0950 C   0  0  0  0  0  0  0  0  0  0  0  0
   -3.5217   -3.0600    0.2699 H   0  0  0  0  0  0  0  0  0  0  0  0
   -2.7131   -3.7373   -1.1652 H   0  0  0  0  0  0  0  0  0  0  0  0
   -1.4129   -2.6457    0.1562 C   0  0  0  0  0  0  0  0  0  0  0  0
   -0.5284   -3.0212    0.9042 O   0  0  0  0  0  0  0  0  0  0  0  0
   -1.3587   -1.4031   -0.4439 N   0  0  0  0  0  0  0  0  0  0  0  0
   -2.0480   -1.2638   -1.1766 H   0  0  0  0  0  0  0  0  0  0  0  0
   -0.1159   -0.6187   -0.5791 C   0  0  1  0  0  0  0  0  0  0  0  0
    0.6207   -1.1943   -1.1509 H   0  0  0  0  0  0  0  0  0  0  0  0
   -0.4598    0.6997   -1.3069 C   0  0  0  0  0  0  0  0  0  0  0  0
   -1.4627    1.0364   -1.0300 H   0  0  0  0  0  0  0  0  0  0  0  0
    0.2429    1.4775   -0.9897 H   0  0  0  0  0  0  0  0  0  0  0  0
   -0.3493    0.6003   -2.8035 C   0  0  0  0  0  0  0  0  0  0  0  0
    0.0163   -0.5282   -3.5287 N   0  0  0  0  0  0  0  0  0  0  0  0
    0.0219   -0.1798   -4.7928 C   0  0  0  0  0  0  0  0  0  0  0  0
    0.2764   -0.8392   -5.6178 H   0  0  0  0  0  0  0  0  0  0  0  0
   -0.3467    1.1462   -4.9159 N   0  0  0  0  0  0  0  0  0  0  0  0
   -0.4028    1.6615   -5.7927 H   0  0  0  0  0  0  0  0  0  0  0  0
   -0.5813    1.6463   -3.6524 C   0  0  0  0  0  0  0  0  0  0  0  0
   -0.8699    2.6552   -3.3723 H   0  0  0  0  0  0  0  0  0  0  0  0
    0.5552   -0.2672    0.7698 C   0  0  0  0  0  0  0  0  0  0  0  0
    1.7708   -0.1292    0.8292 O   0  0  0  0  0  0  0  0  0  0  0  0
   -0.2222    0.1958    1.8173 N   0  0  0  0  0  0  0  0  0  0  0  0
   -1.2034   -0.0603    1.7725 H   0  0  0  0  0  0  0  0  0  0  0  0
    0.3418    0.5524    3.1126 C   0  0  0  0  0  0  0  0  0  0  0  0
    1.0585    1.3734    3.0063 H   0  0  0  0  0  0  0  0  0  0  0  0
   -0.4512    0.8744    3.7941 H   0  0  0  0  0  0  0  0  0  0  0  0
    0.8537   -0.3085    3.5554 H   0  0  0  0  0  0  0  0  0  0  0  0
  1  2  1  0  0  0  0
  2  3  1  0  0  0  0
  2  4  1  0  0  0  0
  2  5  1  0  0  0  0
  5  6  2  0  0  0  0
  5  7  1  0  0  0  0
  7  8  1  0  0  0  0
  7  9  1  0  0  0  0
  9 10  1  0  0  0  0
  9 11  1  0  0  0  0
  9 22  1  0  0  0  0
 11 12  1  0  0  0  0
 11 13  1  0  0  0  0
 11 14  1  0  0  0  0
 14 15  1  0  0  0  0
 14 20  2  0  0  0  0
 15 16  2  0  0  0  0
 16 17  1  0  0  0  0
 16 18  1  0  0  0  0
 18 19  1  0  0  0  0
 18 20  1  0  0  0  0
 20 21  1  0  0  0  0
 22 23  2  0  0  0  0
 22 24  1  0  0  0  0
 24 25  1  0  0  0  0
 24 26  1  0  0  0  0
 26 27  1  0  0  0  0
 26 28  1  0  0  0  0
 26 29  1  0  0  0  0
M  END
$$$$

  -OEChem-04042215593D

 29 29  0     1  0  0  0  0  0999 V2000
   -2.4761   -4.4913    0.3986 H   0  0  0  0  0  0  0  0  0  0  0  0
   -2.6057   -3.5378   -0.1213 C   0  0  0  0  0  0  0  0  0  0  0  0
   -3.5219   -3.0630    0.2377 H   0  0  0  0  0  0  0  0  0  0  0  0
   -2.6979   -3.7319   -1.1927 H   0  0  0  0  0  0  0  0  0  0  0  0
   -1.4151   -2.6344    0.1401 C   0  0  0  0  0  0  0  0  0  0  0  0
   -0.5268   -3.0106    0.8835 O   0  0  0  0  0  0  0  0  0  0  0  0
   -1.3715   -1.3846   -0.4452 N   0  0  0  0  0  0  0  0  0  0  0  0
   -2.0544   -1.2506   -1.1856 H   0  0  0  0  0  0  0  0  0  0  0  0
   -0.1331   -0.5948   -0.5813 C   0  0  1  0  0  0  0  0  0  0  0  0
    0.5988   -1.1610   -1.1689 H   0  0  0  0  0  0  0  0  0  0  0  0
   -0.4861    0.7284   -1.2941 C   0  0  0  0  0  0  0  0  0  0  0  0
   -1.4950    1.0469   -1.0171 H   0  0  0  0  0  0  0  0  0  0  0  0
    0.2042    1.5146   -0.9704 H   0  0  0  0  0  0  0  0  0  0  0  0
   -0.3812    0.6281   -2.7904 C   0  0  0  0  0  0  0  0  0  0  0  0
   -0.3056   -0.5546   -3.5189 N   0  0  0  0  0  0  0  0  0  0  0  0
   -0.1668   -0.2117   -4.7774 C   0  0  0  0  0  0  0  0  0  0  0  0
   -0.0703   -0.9097   -5.6043 H   0  0  0  0  0  0  0  0  0  0  0  0
   -0.1630    1.1653   -4.8927 N   0  0  0  0  0  0  0  0  0  0  0  0
   -0.0483    1.6816   -5.7632 H   0  0  0  0  0  0  0  0  0  0  0  0
   -0.2919    1.7033   -3.6296 C   0  0  0  0  0  0  0  0  0  0  0  0
   -0.3007    2.7510   -3.3429 H   0  0  0  0  0  0  0  0  0  0  0  0
    0.5513   -0.2558    0.7640 C   0  0  0  0  0  0  0  0  0  0  0  0
    1.7668   -0.1090    0.8080 O   0  0  0  0  0  0  0  0  0  0  0  0
   -0.2147    0.1929    1.8259 N   0  0  0  0  0  0  0  0  0  0  0  0
   -1.1948   -0.0692    1.7919 H   0  0  0  0  0  0  0  0  0  0  0  0
    0.3639    0.5421    3.1170 C   0  0  0  0  0  0  0  0  0  0  0  0
    1.0722    1.3703    3.0090 H   0  0  0  0  0  0  0  0  0  0  0  0
   -0.4225    0.8507    3.8123 H   0  0  0  0  0  0  0  0  0  0  0  0
    0.8894   -0.3181    3.5450 H   0  0  0  0  0  0  0  0  0  0  0  0
  1  2  1  0  0  0  0
  2  3  1  0  0  0  0
  2  4  1  0  0  0  0
  2  5  1  0  0  0  0
  5  6  2  0  0  0  0
  5  7  1  0  0  0  0
  7  8  1  0  0  0  0
  7  9  1  0  0  0  0
  9 10  1  0  0  0  0
  9 11  1  0  0  0  0
  9 22  1  0  0  0  0
 11 12  1  0  0  0  0
 11 13  1  0  0  0  0
 11 14  1  0  0  0  0
 14 15  1  0  0  0  0
 14 20  2  0  0  0  0
 15 16  2  0  0  0  0
 16 17  1  0  0  0  0
 16 18  1  0  0  0  0
 18 19  1  0  0  0  0
 18 20  1  0  0  0  0
 20 21  1  0  0  0  0
 22 23  2  0  0  0  0
 22 24  1  0  0  0  0
 24 25  1  0  0  0  0
 24 26  1  0  0  0  0
 26 27  1  0  0  0  0
 26 28  1  0  0  0  0
 26 29  1  0  0  0  0
M  END
$$$$

  -OEChem-04042215593D

 29 29  0     1  0  0  0  0  0999 V2000
   -2.4337   -4.5035    0.2866 H   0  0  0  0  0  0  0  0  0  0  0  0
   -2.5918   -3.5255   -0.1770 C   0  0  0  0  0  0  0  0  0  0  0  0
   -3.5108   -3.0897    0.2222 H   0  0  0  0  0  0  0  0  0  0  0  0
   -2.6990   -3.6626   -1.2559 H   0  0  0  0  0  0  0  0  0  0  0  0
   -1.4157   -2.6127    0.1148 C   0  0  0  0  0  0  0  0  0  0  0  0
   -0.5305   -2.9911    0.8612 O   0  0  0  0  0  0  0  0  0  0  0  0
   -1.3790   -1.3544   -0.4515 N   0  0  0  0  0  0  0  0  0  0  0  0
   -2.0522   -1.2199   -1.2017 H   0  0  0  0  0  0  0  0  0  0  0  0
   -0.1433   -0.5605   -0.5781 C   0  0  1  0  0  0  0  0  0  0  0  0
    0.5849   -1.1170   -1.1796 H   0  0  0  0  0  0  0  0  0  0  0  0
   -0.5027    0.7679   -1.2750 C   0  0  0  0  0  0  0  0  0  0  0  0
   -1.5172    1.0731   -1.0035 H   0  0  0  0  0  0  0  0  0  0  0  0
    0.1770    1.5595   -0.9426 H   0  0  0  0  0  0  0  0  0  0  0  0
   -0.3918    0.6614   -2.7686 C   0  0  0  0  0  0  0  0  0  0  0  0
   -0.6069   -0.5061   -3.4942 N   0  0  0  0  0  0  0  0  0  0  0  0
   -0.3551   -0.2145   -4.7484 C   0  0  0  0  0  0  0  0  0  0  0  0
   -0.4238   -0.9167   -5.5744 H   0  0  0  0  0  0  0  0  0  0  0  0
    0.0098    1.1139   -4.8613 N   0  0  0  0  0  0  0  0  0  0  0  0
    0.2773    1.5782   -5.7275 H   0  0  0  0  0  0  0  0  0  0  0  0
   -0.0039    1.6731   -3.6011 C   0  0  0  0  0  0  0  0  0  0  0  0
    0.2556    2.6874   -3.3116 H   0  0  0  0  0  0  0  0  0  0  0  0
    0.5492   -0.2372    0.7661 C   0  0  0  0  0  0  0  0  0  0  0  0
    1.7650   -0.0913    0.8009 O   0  0  0  0  0  0  0  0  0  0  0  0
   -0.2084    0.1963    1.8399 N   0  0  0  0  0  0  0  0  0  0  0  0
   -1.1894   -0.0630    1.8092 H   0  0  0  0  0  0  0  0  0  0  0  0
    0.3806    0.5263    3.1311 C   0  0  0  0  0  0  0  0  0  0  0  0
    1.1053    1.3406    3.0260 H   0  0  0  0  0  0  0  0  0  0  0  0
   -0.3973    0.8471    3.8302 H   0  0  0  0  0  0  0  0  0  0  0  0
    0.8898   -0.3469    3.5528 H   0  0  0  0  0  0  0  0  0  0  0  0
  1  2  1  0  0  0  0
  2  3  1  0  0  0  0
  2  4  1  0  0  0  0
  2  5  1  0  0  0  0
  5  6  2  0  0  0  0
  5  7  1  0  0  0  0
  7  8  1  0  0  0  0
  7  9  1  0  0  0  0
  9 10  1  0  0  0  0
  9 11  1  0  0  0  0
  9 22  1  0  0  0  0
 11 12  1  0  0  0  0
 11 13  1  0  0  0  0
 11 14  1  0  0  0  0
 14 15  1  0  0  0  0
 14 20  2  0  0  0  0
 15 16  2  0  0  0  0
 16 17  1  0  0  0  0
 16 18  1  0  0  0  0
 18 19  1  0  0  0  0
 18 20  1  0  0  0  0
 20 21  1  0  0  0  0
 22 23  2  0  0  0  0
 22 24  1  0  0  0  0
 24 25  1  0  0  0  0
 24 26  1  0  0  0  0
 26 27  1  0  0  0  0
 26 28  1  0  0  0  0
 26 29  1  0  0  0  0
M  END
$$$$

  -OEChem-04042215593D

 29 29  0     1  0  0  0  0  0999 V2000
   -2.4439   -4.4786    0.2613 H   0  0  0  0  0  0  0  0  0  0  0  0
   -2.5880   -3.5041   -0.2138 C   0  0  0  0  0  0  0  0  0  0  0  0
   -3.5061   -3.0554    0.1725 H   0  0  0  0  0  0  0  0  0  0  0  0
   -2.6866   -3.6510   -1.2921 H   0  0  0  0  0  0  0  0  0  0  0  0
   -1.4055   -2.6004    0.0797 C   0  0  0  0  0  0  0  0  0  0  0  0
   -0.5134   -2.9932    0.8104 O   0  0  0  0  0  0  0  0  0  0  0  0
   -1.3682   -1.3339   -0.4675 N   0  0  0  0  0  0  0  0  0  0  0  0
   -2.0409   -1.1857   -1.2169 H   0  0  0  0  0  0  0  0  0  0  0  0
   -0.1346   -0.5352   -0.5772 C   0  0  1  0  0  0  0  0  0  0  0  0
    0.5955   -1.0815   -1.1861 H   0  0  0  0  0  0  0  0  0  0  0  0
   -0.4976    0.7978   -1.2600 C   0  0  0  0  0  0  0  0  0  0  0  0
   -1.5153    1.0990   -0.9958 H   0  0  0  0  0  0  0  0  0  0  0  0
    0.1776    1.5893   -0.9186 H   0  0  0  0  0  0  0  0  0  0  0  0
   -0.3715    0.6847   -2.7499 C   0  0  0  0  0  0  0  0  0  0  0  0
   -0.8593   -0.3920   -3.4837 N   0  0  0  0  0  0  0  0  0  0  0  0
   -0.5235   -0.1660   -4.7323 C   0  0  0  0  0  0  0  0  0  0  0  0
   -0.7524   -0.8250   -5.5650 H   0  0  0  0  0  0  0  0  0  0  0  0
    0.1623    1.0304   -4.8310 N   0  0  0  0  0  0  0  0  0  0  0  0
    0.5459    1.4191   -5.6909 H   0  0  0  0  0  0  0  0  0  0  0  0
    0.2656    1.5737   -3.5681 C   0  0  0  0  0  0  0  0  0  0  0  0
    0.7589    2.4938   -3.2679 H   0  0  0  0  0  0  0  0  0  0  0  0
    0.5536   -0.2281    0.7725 C   0  0  0  0  0  0  0  0  0  0  0  0
    1.7687   -0.0762    0.8095 O   0  0  0  0  0  0  0  0  0  0  0  0
   -0.2074    0.1886    1.8503 N   0  0  0  0  0  0  0  0  0  0  0  0
   -1.1875   -0.0740    1.8153 H   0  0  0  0  0  0  0  0  0  0  0  0
    0.3783    0.5106    3.1449 C   0  0  0  0  0  0  0  0  0  0  0  0
    1.0902    1.3370    3.0487 H   0  0  0  0  0  0  0  0  0  0  0  0
   -0.4033    0.8102    3.8493 H   0  0  0  0  0  0  0  0  0  0  0  0
    0.9014   -0.3599    3.5547 H   0  0  0  0  0  0  0  0  0  0  0  0
  1  2  1  0  0  0  0
  2  3  1  0  0  0  0
  2  4  1  0  0  0  0
  2  5  1  0  0  0  0
  5  6  2  0  0  0  0
  5  7  1  0  0  0  0
  7  8  1  0  0  0  0
  7  9  1  0  0  0  0
  9 10  1  0  0  0  0
  9 11  1  0  0  0  0
  9 22  1  0  0  0  0
 11 12  1  0  0  0  0
 11 13  1  0  0  0  0
 11 14  1  0  0  0  0
 14 15  1  0  0  0  0
 14 20  2  0  0  0  0
 15 16  2  0  0  0  0
 16 17  1  0  0  0  0
 16 18  1  0  0  0  0
 18 19  1  0  0  0  0
 18 20  1  0  0  0  0
 20 21  1  0  0  0  0
 22 23  2  0  0  0  0
 22 24  1  0  0  0  0
 24 25  1  0  0  0  0
 24 26  1  0  0  0  0
 26 27  1  0  0  0  0
 26 28  1  0  0  0  0
 26 29  1  0  0  0  0
M  END
$$$$

  -OEChem-04042215593D

 29 29  0     1  0  0  0  0  0999 V2000
   -2.4511   -4.4628    0.2304 H   0  0  0  0  0  0  0  0  0  0  0  0
   -2.5874   -3.4848   -0.2402 C   0  0  0  0  0  0  0  0  0  0  0  0
   -3.5006   -3.0299    0.1508 H   0  0  0  0  0  0  0  0  0  0  0  0
   -2.6905   -3.6254   -1.3189 H   0  0  0  0  0  0  0  0  0  0  0  0
   -1.3959   -2.5931    0.0541 C   0  0  0  0  0  0  0  0  0  0  0  0
   -0.4998   -3.0006    0.7717 O   0  0  0  0  0  0  0  0  0  0  0  0
   -1.3504   -1.3221   -0.4815 N   0  0  0  0  0  0  0  0  0  0  0  0
   -2.0272   -1.1545   -1.2240 H   0  0  0  0  0  0  0  0  0  0  0  0
   -0.1169   -0.5219   -0.5731 C   0  0  1  0  0  0  0  0  0  0  0  0
    0.6179   -1.0635   -1.1800 H   0  0  0  0  0  0  0  0  0  0  0  0
   -0.4823    0.8107   -1.2524 C   0  0  0  0  0  0  0  0  0  0  0  0
   -1.5016    1.1145   -0.9979 H   0  0  0  0  0  0  0  0  0  0  0  0
    0.1914    1.6017   -0.9069 H   0  0  0  0  0  0  0  0  0  0  0  0
   -0.3370    0.6862   -2.7376 C   0  0  0  0  0  0  0  0  0  0  0  0
   -1.0606   -0.2313   -3.4921 N   0  0  0  0  0  0  0  0  0  0  0  0
   -0.6632   -0.0733   -4.7335 C   0  0  0  0  0  0  0  0  0  0  0  0
   -1.0323   -0.6454   -5.5801 H   0  0  0  0  0  0  0  0  0  0  0  0
    0.2910    0.9249   -4.8052 N   0  0  0  0  0  0  0  0  0  0  0  0
    0.7647    1.2259   -5.6552 H   0  0  0  0  0  0  0  0  0  0  0  0
    0.5030    1.4118   -3.5329 C   0  0  0  0  0  0  0  0  0  0  0  0
    1.1921    2.1883   -3.2125 H   0  0  0  0  0  0  0  0  0  0  0  0
    0.5611   -0.2233    0.7832 C   0  0  0  0  0  0  0  0  0  0  0  0
    1.7760   -0.0719    0.8289 O   0  0  0  0  0  0  0  0  0  0  0  0
   -0.2077    0.1855    1.8583 N   0  0  0  0  0  0  0  0  0  0  0  0
   -1.1891   -0.0705    1.8120 H   0  0  0  0  0  0  0  0  0  0  0  0
    0.3677    0.5017    3.1589 C   0  0  0  0  0  0  0  0  0  0  0  0
    1.0768    1.3316    3.0731 H   0  0  0  0  0  0  0  0  0  0  0  0
   -0.4201    0.7939    3.8596 H   0  0  0  0  0  0  0  0  0  0  0  0
    0.8913   -0.3696    3.5662 H   0  0  0  0  0  0  0  0  0  0  0  0
  1  2  1  0  0  0  0
  2  3  1  0  0  0  0
  2  4  1  0  0  0  0
  2  5  1  0  0  0  0
  5  6  2  0  0  0  0
  5  7  1  0  0  0  0
  7  8  1  0  0  0  0
  7  9  1  0  0  0  0
  9 10  1  0  0  0  0
  9 11  1  0  0  0  0
  9 22  1  0  0  0  0
 11 12  1  0  0  0  0
 11 13  1  0  0  0  0
 11 14  1  0  0  0  0
 14 15  1  0  0  0  0
 14 20  2  0  0  0  0
 15 16  2  0  0  0  0
 16 17  1  0  0  0  0
 16 18  1  0  0  0  0
 18 19  1  0  0  0  0
 18 20  1  0  0  0  0
 20 21  1  0  0  0  0
 22 23  2  0  0  0  0
 22 24  1  0  0  0  0
 24 25  1  0  0  0  0
 24 26  1  0  0  0  0
 26 27  1  0  0  0  0
 26 28  1  0  0  0  0
 26 29  1  0  0  0  0
M  END
$$$$

  -OEChem-04042215593D

 29 29  0     1  0  0  0  0  0999 V2000
   -2.4538   -4.4559    0.2168 H   0  0  0  0  0  0  0  0  0  0  0  0
   -2.5900   -3.4725   -0.2421 C   0  0  0  0  0  0  0  0  0  0  0  0
   -3.4930   -3.0140    0.1675 H   0  0  0  0  0  0  0  0  0  0  0  0
   -2.7115   -3.6019   -1.3203 H   0  0  0  0  0  0  0  0  0  0  0  0
   -1.3867   -2.5932    0.0421 C   0  0  0  0  0  0  0  0  0  0  0  0
   -0.4863   -3.0115    0.7478 O   0  0  0  0  0  0  0  0  0  0  0  0
   -1.3314   -1.3216   -0.4914 N   0  0  0  0  0  0  0  0  0  0  0  0
   -2.0204   -1.1330   -1.2177 H   0  0  0  0  0  0  0  0  0  0  0  0
   -0.0972   -0.5214   -0.5708 C   0  0  1  0  0  0  0  0  0  0  0  0
    0.6441   -1.0625   -1.1705 H   0  0  0  0  0  0  0  0  0  0  0  0
   -0.4630    0.8066   -1.2548 C   0  0  0  0  0  0  0  0  0  0  0  0
   -1.4829    1.1167   -1.0090 H   0  0  0  0  0  0  0  0  0  0  0  0
    0.2116    1.5970   -0.9099 H   0  0  0  0  0  0  0  0  0  0  0  0
   -0.3016    0.6699   -2.7354 C   0  0  0  0  0  0  0  0  0  0  0  0
   -1.2097   -0.0279   -3.5230 N   0  0  0  0  0  0  0  0  0  0  0  0
   -0.7648    0.0650   -4.7549 C   0  0  0  0  0  0  0  0  0  0  0  0
   -1.2454   -0.3783   -5.6224 H   0  0  0  0  0  0  0  0  0  0  0  0
    0.4015    0.8078   -4.7866 N   0  0  0  0  0  0  0  0  0  0  0  0
    0.9445    1.0154   -5.6231 H   0  0  0  0  0  0  0  0  0  0  0  0
    0.6986    1.1999   -3.4987 C   0  0  0  0  0  0  0  0  0  0  0  0
    1.5404    1.7908   -3.1479 H   0  0  0  0  0  0  0  0  0  0  0  0
    0.5670   -0.2238    0.7921 C   0  0  0  0  0  0  0  0  0  0  0  0
    1.7818   -0.0764    0.8492 O   0  0  0  0  0  0  0  0  0  0  0  0
   -0.2113    0.1843    1.8606 N   0  0  0  0  0  0  0  0  0  0  0  0
   -1.1952   -0.0596    1.8018 H   0  0  0  0  0  0  0  0  0  0  0  0
    0.3513    0.4978    3.1674 C   0  0  0  0  0  0  0  0  0  0  0  0
    1.0624    1.3269    3.0899 H   0  0  0  0  0  0  0  0  0  0  0  0
   -0.4433    0.7900    3.8604 H   0  0  0  0  0  0  0  0  0  0  0  0
    0.8697   -0.3746    3.5791 H   0  0  0  0  0  0  0  0  0  0  0  0
  1  2  1  0  0  0  0
  2  3  1  0  0  0  0
  2  4  1  0  0  0  0
  2  5  1  0  0  0  0
  5  6  2  0  0  0  0
  5  7  1  0  0  0  0
  7  8  1  0  0  0  0
  7  9  1  0  0  0  0
  9 10  1  0  0  0  0
  9 11  1  0  0  0  0
  9 22  1  0  0  0  0
 11 12  1  0  0  0  0
 11 13  1  0  0  0  0
 11 14  1  0  0  0  0
 14 15  1  0  0  0  0
 14 20  2  0  0  0  0
 15 16  2  0  0  0  0
 16 17  1  0  0  0  0
 16 18  1  0  0  0  0
 18 19  1  0  0  0  0
 18 20  1  0  0  0  0
 20 21  1  0  0  0  0
 22 23  2  0  0  0  0
 22 24  1  0  0  0  0
 24 25  1  0  0  0  0
 24 26  1  0  0  0  0
 26 27  1  0  0  0  0
 26 28  1  0  0  0  0
 26 29  1  0  0  0  0
M  END
$$$$

  -OEChem-04042215593D

 29 29  0     1  0  0  0  0  0999 V2000
   -2.4619   -4.4573    0.2374 H   0  0  0  0  0  0  0  0  0  0  0  0
   -2.6011   -3.4704   -0.2127 C   0  0  0  0  0  0  0  0  0  0  0  0
   -3.4824   -3.0015    0.2311 H   0  0  0  0  0  0  0  0  0  0  0  0
   -2.7636   -3.5940   -1.2862 H   0  0  0  0  0  0  0  0  0  0  0  0
   -1.3769   -2.6081    0.0314 C   0  0  0  0  0  0  0  0  0  0  0  0
   -0.4548   -3.0410    0.6991 O   0  0  0  0  0  0  0  0  0  0  0  0
   -1.3231   -1.3356   -0.4995 N   0  0  0  0  0  0  0  0  0  0  0  0
   -2.0399   -1.1217   -1.1905 H   0  0  0  0  0  0  0  0  0  0  0  0
   -0.0933   -0.5282   -0.5730 C   0  0  1  0  0  0  0  0  0  0  0  0
    0.6528   -1.0685   -1.1672 H   0  0  0  0  0  0  0  0  0  0  0  0
   -0.4614    0.7940   -1.2648 C   0  0  0  0  0  0  0  0  0  0  0  0
   -1.4830    1.1042   -1.0262 H   0  0  0  0  0  0  0  0  0  0  0  0
    0.2099    1.5877   -0.9202 H   0  0  0  0  0  0  0  0  0  0  0  0
   -0.2866    0.6516   -2.7431 C   0  0  0  0  0  0  0  0  0  0  0  0
   -1.3058    0.2198   -3.5824 N   0  0  0  0  0  0  0  0  0  0  0  0
   -0.8071    0.2418   -4.7970 C   0  0  0  0  0  0  0  0  0  0  0  0
   -1.3487   -0.0420   -5.6949 H   0  0  0  0  0  0  0  0  0  0  0  0
    0.5045    0.6795   -4.7665 N   0  0  0  0  0  0  0  0  0  0  0  0
    1.1099    0.7828   -5.5792 H   0  0  0  0  0  0  0  0  0  0  0  0
    0.8389    0.9486   -3.4565 C   0  0  0  0  0  0  0  0  0  0  0  0
    1.7828    1.3120   -3.0584 H   0  0  0  0  0  0  0  0  0  0  0  0
    0.5664   -0.2261    0.7910 C   0  0  0  0  0  0  0  0  0  0  0  0
    1.7806   -0.0742    0.8486 O   0  0  0  0  0  0  0  0  0  0  0  0
   -0.2139    0.1780    1.8596 N   0  0  0  0  0  0  0  0  0  0  0  0
   -1.1999   -0.0553    1.7973 H   0  0  0  0  0  0  0  0  0  0  0  0
    0.3459    0.5008    3.1656 C   0  0  0  0  0  0  0  0  0  0  0  0
    1.0615    1.3255    3.0837 H   0  0  0  0  0  0  0  0  0  0  0  0
   -0.4495    0.8034    3.8531 H   0  0  0  0  0  0  0  0  0  0  0  0
    0.8585   -0.3702    3.5870 H   0  0  0  0  0  0  0  0  0  0  0  0
  1  2  1  0  0  0  0
  2  3  1  0  0  0  0
  2  4  1  0  0  0  0
  2  5  1  0  0  0  0
  5  6  2  0  0  0  0
  5  7  1  0  0  0  0
  7  8  1  0  0  0  0
  7  9  1  0  0  0  0
  9 10  1  0  0  0  0
  9 11  1  0  0  0  0
  9 22  1  0  0  0  0
 11 12  1  0  0  0  0
 11 13  1  0  0  0  0
 11 14  1  0  0  0  0
 14 15  1  0  0  0  0
 14 20  2  0  0  0  0
 15 16  2  0  0  0  0
 16 17  1  0  0  0  0
 16 18  1  0  0  0  0
 18 19  1  0  0  0  0
 18 20  1  0  0  0  0
 20 21  1  0  0  0  0
 22 23  2  0  0  0  0
 22 24  1  0  0  0  0
 24 25  1  0  0  0  0
 24 26  1  0  0  0  0
 26 27  1  0  0  0  0
 26 28  1  0  0  0  0
 26 29  1  0  0  0  0
M  END
$$$$

  -OEChem-04042215593D

 29 29  0     1  0  0  0  0  0999 V2000
   -2.4672   -4.4621    0.2634 H   0  0  0  0  0  0  0  0  0  0  0  0
   -2.6091   -3.4729   -0.1812 C   0  0  0  0  0  0  0  0  0  0  0  0
   -3.4738   -2.9969    0.2869 H   0  0  0  0  0  0  0  0  0  0  0  0
   -2.8011   -3.5931   -1.2502 H   0  0  0  0  0  0  0  0  0  0  0  0
   -1.3711   -2.6225    0.0317 C   0  0  0  0  0  0  0  0  0  0  0  0
   -0.4352   -3.0642    0.6737 O   0  0  0  0  0  0  0  0  0  0  0  0
   -1.3174   -1.3508   -0.5011 N   0  0  0  0  0  0  0  0  0  0  0  0
   -2.0586   -1.1157   -1.1579 H   0  0  0  0  0  0  0  0  0  0  0  0
   -0.0902   -0.5393   -0.5745 C   0  0  1  0  0  0  0  0  0  0  0  0
    0.6590   -1.0829   -1.1617 H   0  0  0  0  0  0  0  0  0  0  0  0
   -0.4580    0.7780   -1.2768 C   0  0  0  0  0  0  0  0  0  0  0  0
   -1.4807    1.0877   -1.0416 H   0  0  0  0  0  0  0  0  0  0  0  0
    0.2098    1.5752   -0.9345 H   0  0  0  0  0  0  0  0  0  0  0  0
   -0.2779    0.6386   -2.7552 C   0  0  0  0  0  0  0  0  0  0  0  0
   -1.3396    0.5022   -3.6391 N   0  0  0  0  0  0  0  0  0  0  0  0
   -0.8085    0.4417   -4.8383 C   0  0  0  0  0  0  0  0  0  0  0  0
   -1.3716    0.3334   -5.7610 H   0  0  0  0  0  0  0  0  0  0  0  0
    0.5687    0.5364   -4.7547 N   0  0  0  0  0  0  0  0  0  0  0  0
    1.2096    0.5178   -5.5462 H   0  0  0  0  0  0  0  0  0  0  0  0
    0.9112    0.6698   -3.4262 C   0  0  0  0  0  0  0  0  0  0  0  0
    1.9002    0.7779   -2.9878 H   0  0  0  0  0  0  0  0  0  0  0  0
    0.5657   -0.2323    0.7900 C   0  0  0  0  0  0  0  0  0  0  0  0
    1.7802   -0.0840    0.8504 O   0  0  0  0  0  0  0  0  0  0  0  0
   -0.2166    0.1716    1.8571 N   0  0  0  0  0  0  0  0  0  0  0  0
   -1.2044   -0.0530    1.7923 H   0  0  0  0  0  0  0  0  0  0  0  0
    0.3403    0.5054    3.1615 C   0  0  0  0  0  0  0  0  0  0  0  0
    1.0538    1.3316    3.0743 H   0  0  0  0  0  0  0  0  0  0  0  0
   -0.4569    0.8109    3.8459 H   0  0  0  0  0  0  0  0  0  0  0  0
    0.8546   -0.3613    3.5902 H   0  0  0  0  0  0  0  0  0  0  0  0
  1  2  1  0  0  0  0
  2  3  1  0  0  0  0
  2  4  1  0  0  0  0
  2  5  1  0  0  0  0
  5  6  2  0  0  0  0
  5  7  1  0  0  0  0
  7  8  1  0  0  0  0
  7  9  1  0  0  0  0
  9 10  1  0  0  0  0
  9 11  1  0  0  0  0
  9 22  1  0  0  0  0
 11 12  1  0  0  0  0
 11 13  1  0  0  0  0
 11 14  1  0  0  0  0
 14 15  1  0  0  0  0
 14 20  2  0  0  0  0
 15 16  2  0  0  0  0
 16 17  1  0  0  0  0
 16 18  1  0  0  0  0
 18 19  1  0  0  0  0
 18 20  1  0  0  0  0
 20 21  1  0  0  0  0
 22 23  2  0  0  0  0
 22 24  1  0  0  0  0
 24 25  1  0  0  0  0
 24 26  1  0  0  0  0
 26 27  1  0  0  0  0
 26 28  1  0  0  0  0
 26 29  1  0  0  0  0
M  END
$$$$

  -OEChem-04042215593D

 29 29  0     1  0  0  0  0  0999 V2000
   -2.4764   -4.4660    0.3168 H   0  0  0  0  0  0  0  0  0  0  0  0
   -2.6173   -3.4805   -0.1364 C   0  0  0  0  0  0  0  0  0  0  0  0
   -3.4657   -2.9891    0.3459 H   0  0  0  0  0  0  0  0  0  0  0  0
   -2.8354   -3.6110   -1.1991 H   0  0  0  0  0  0  0  0  0  0  0  0
   -1.3648   -2.6422    0.0377 C   0  0  0  0  0  0  0  0  0  0  0  0
   -0.4147   -3.0922    0.6524 O   0  0  0  0  0  0  0  0  0  0  0  0
   -1.3110   -1.3730   -0.5019 N   0  0  0  0  0  0  0  0  0  0  0  0
   -2.0752   -1.1189   -1.1234 H   0  0  0  0  0  0  0  0  0  0  0  0
   -0.0858   -0.5574   -0.5747 C   0  0  1  0  0  0  0  0  0  0  0  0
    0.6674   -1.1084   -1.1487 H   0  0  0  0  0  0  0  0  0  0  0  0
   -0.4471    0.7560   -1.2919 C   0  0  0  0  0  0  0  0  0  0  0  0
   -1.4732    1.0592   -1.0631 H   0  0  0  0  0  0  0  0  0  0  0  0
    0.2119    1.5589   -0.9459 H   0  0  0  0  0  0  0  0  0  0  0  0
   -0.2617    0.6316   -2.7735 C   0  0  0  0  0  0  0  0  0  0  0  0
   -1.2955    0.8048   -3.6838 N   0  0  0  0  0  0  0  0  0  0  0  0
   -0.7637    0.6591   -4.8751 C   0  0  0  0  0  0  0  0  0  0  0  0
   -1.3086    0.7376   -5.8114 H   0  0  0  0  0  0  0  0  0  0  0  0
    0.5884    0.3931   -4.7627 N   0  0  0  0  0  0  0  0  0  0  0  0
    1.2275    0.2486   -5.5427 H   0  0  0  0  0  0  0  0  0  0  0  0
    0.9146    0.3826   -3.4235 C   0  0  0  0  0  0  0  0  0  0  0  0
    1.8873    0.2221   -2.9649 H   0  0  0  0  0  0  0  0  0  0  0  0
    0.5626   -0.2402    0.7914 C   0  0  0  0  0  0  0  0  0  0  0  0
    1.7774   -0.1001    0.8594 O   0  0  0  0  0  0  0  0  0  0  0  0
   -0.2241    0.1676    1.8540 N   0  0  0  0  0  0  0  0  0  0  0  0
   -1.2141   -0.0447    1.7828 H   0  0  0  0  0  0  0  0  0  0  0  0
    0.3267    0.5098    3.1591 C   0  0  0  0  0  0  0  0  0  0  0  0
    1.0357    1.3398    3.0716 H   0  0  0  0  0  0  0  0  0  0  0  0
   -0.4744    0.8130    3.8397 H   0  0  0  0  0  0  0  0  0  0  0  0
    0.8445   -0.3523    3.5926 H   0  0  0  0  0  0  0  0  0  0  0  0
  1  2  1  0  0  0  0
  2  3  1  0  0  0  0
  2  4  1  0  0  0  0
  2  5  1  0  0  0  0
  5  6  2  0  0  0  0
  5  7  1  0  0  0  0
  7  8  1  0  0  0  0
  7  9  1  0  0  0  0
  9 10  1  0  0  0  0
  9 11  1  0  0  0  0
  9 22  1  0  0  0  0
 11 12  1  0  0  0  0
 11 13  1  0  0  0  0
 11 14  1  0  0  0  0
 14 15  1  0  0  0  0
 14 20  2  0  0  0  0
 15 16  2  0  0  0  0
 16 17  1  0  0  0  0
 16 18  1  0  0  0  0
 18 19  1  0  0  0  0
 18 20  1  0  0  0  0
 20 21  1  0  0  0  0
 22 23  2  0  0  0  0
 22 24  1  0  0  0  0
 24 25  1  0  0  0  0
 24 26  1  0  0  0  0
 26 27  1  0  0  0  0
 26 28  1  0  0  0  0
 26 29  1  0  0  0  0
M  END
$$$$

  -OEChem-04042215593D

 29 29  0     1  0  0  0  0  0999 V2000
   -2.4849   -4.4709    0.3640 H   0  0  0  0  0  0  0  0  0  0  0  0
   -2.6229   -3.4867   -0.0926 C   0  0  0  0  0  0  0  0  0  0  0  0
   -3.4573   -2.9834    0.4016 H   0  0  0  0  0  0  0  0  0  0  0  0
   -2.8608   -3.6209   -1.1507 H   0  0  0  0  0  0  0  0  0  0  0  0
   -1.3586   -2.6614    0.0550 C   0  0  0  0  0  0  0  0  0  0  0  0
   -0.4043   -3.1166    0.6589 O   0  0  0  0  0  0  0  0  0  0  0  0
   -1.2967   -1.3987   -0.4989 N   0  0  0  0  0  0  0  0  0  0  0  0
   -2.0730   -1.1316   -1.0988 H   0  0  0  0  0  0  0  0  0  0  0  0
   -0.0705   -0.5842   -0.5704 C   0  0  1  0  0  0  0  0  0  0  0  0
    0.6884   -1.1458   -1.1242 H   0  0  0  0  0  0  0  0  0  0  0  0
   -0.4221    0.7237   -1.3061 C   0  0  0  0  0  0  0  0  0  0  0  0
   -1.4512    1.0213   -1.0839 H   0  0  0  0  0  0  0  0  0  0  0  0
    0.2277    1.5321   -0.9561 H   0  0  0  0  0  0  0  0  0  0  0  0
   -0.2333    0.6184   -2.7915 C   0  0  0  0  0  0  0  0  0  0  0  0
   -1.1731    1.0945   -3.6957 N   0  0  0  0  0  0  0  0  0  0  0  0
   -0.6831    0.8736   -4.8927 C   0  0  0  0  0  0  0  0  0  0  0  0
   -1.1773    1.1366   -5.8238 H   0  0  0  0  0  0  0  0  0  0  0  0
    0.5512    0.2600   -4.7928 N   0  0  0  0  0  0  0  0  0  0  0  0
    1.1438   -0.0023   -5.5785 H   0  0  0  0  0  0  0  0  0  0  0  0
    0.8452    0.1006   -3.4556 C   0  0  0  0  0  0  0  0  0  0  0  0
    1.7411   -0.3243   -3.0104 H   0  0  0  0  0  0  0  0  0  0  0  0
    0.5615   -0.2531    0.8001 C   0  0  0  0  0  0  0  0  0  0  0  0
    1.7762   -0.1231    0.8841 O   0  0  0  0  0  0  0  0  0  0  0  0
   -0.2366    0.1663    1.8498 N   0  0  0  0  0  0  0  0  0  0  0  0
   -1.2285   -0.0307    1.7653 H   0  0  0  0  0  0  0  0  0  0  0  0
    0.2994    0.5202    3.1579 C   0  0  0  0  0  0  0  0  0  0  0  0
    1.0103    1.3485    3.0700 H   0  0  0  0  0  0  0  0  0  0  0  0
   -0.5089    0.8308    3.8268 H   0  0  0  0  0  0  0  0  0  0  0  0
    0.8111   -0.3383    3.6057 H   0  0  0  0  0  0  0  0  0  0  0  0
  1  2  1  0  0  0  0
  2  3  1  0  0  0  0
  2  4  1  0  0  0  0
  2  5  1  0  0  0  0
  5  6  2  0  0  0  0
  5  7  1  0  0  0  0
  7  8  1  0  0  0  0
  7  9  1  0  0  0  0
  9 10  1  0  0  0  0
  9 11  1  0  0  0  0
  9 22  1  0  0  0  0
 11 12  1  0  0  0  0
 11 13  1  0  0  0  0
 11 14  1  0  0  0  0
 14 15  1  0  0  0  0
 14 20  2  0  0  0  0
 15 16  2  0  0  0  0
 16 17  1  0  0  0  0
 16 18  1  0  0  0  0
 18 19  1  0  0  0  0
 18 20  1  0  0  0  0
 20 21  1  0  0  0  0
 22 23  2  0  0  0  0
 22 24  1  0  0  0  0
 24 25  1  0  0  0  0
 24 26  1  0  0  0  0
 26 27  1  0  0  0  0
 26 28  1  0  0  0  0
 26 29  1  0  0  0  0
M  END
$$$$

  -OEChem-04042215593D

 29 29  0     1  0  0  0  0  0999 V2000
   -2.4937   -4.4719    0.4206 H   0  0  0  0  0  0  0  0  0  0  0  0
   -2.6259   -3.4902   -0.0432 C   0  0  0  0  0  0  0  0  0  0  0  0
   -3.4458   -2.9714    0.4591 H   0  0  0  0  0  0  0  0  0  0  0  0
   -2.8822   -3.6312   -1.0960 H   0  0  0  0  0  0  0  0  0  0  0  0
   -1.3485   -2.6805    0.0766 C   0  0  0  0  0  0  0  0  0  0  0  0
   -0.3909   -3.1423    0.6697 O   0  0  0  0  0  0  0  0  0  0  0  0
   -1.2774   -1.4261   -0.4948 N   0  0  0  0  0  0  0  0  0  0  0  0
   -2.0620   -1.1494   -1.0786 H   0  0  0  0  0  0  0  0  0  0  0  0
   -0.0494   -0.6133   -0.5653 C   0  0  1  0  0  0  0  0  0  0  0  0
    0.7186   -1.1825   -1.0962 H   0  0  0  0  0  0  0  0  0  0  0  0
   -0.3910    0.6881   -1.3200 C   0  0  0  0  0  0  0  0  0  0  0  0
   -1.4217    0.9846   -1.1051 H   0  0  0  0  0  0  0  0  0  0  0  0
    0.2543    1.4988   -0.9666 H   0  0  0  0  0  0  0  0  0  0  0  0
   -0.1991    0.5993   -2.8092 C   0  0  0  0  0  0  0  0  0  0  0  0
   -0.9769    1.3493   -3.6815 N   0  0  0  0  0  0  0  0  0  0  0  0
   -0.5623    1.0684   -4.8938 C   0  0  0  0  0  0  0  0  0  0  0  0
   -0.9679    1.4998   -5.8045 H   0  0  0  0  0  0  0  0  0  0  0  0
    0.4628    0.1443   -4.8384 N   0  0  0  0  0  0  0  0  0  0  0  0
    0.9662   -0.2252   -5.6431 H   0  0  0  0  0  0  0  0  0  0  0  0
    0.7001   -0.1565   -3.5143 C   0  0  0  0  0  0  0  0  0  0  0  0
    1.4515   -0.8289   -3.1101 H   0  0  0  0  0  0  0  0  0  0  0  0
    0.5619   -0.2662    0.8110 C   0  0  0  0  0  0  0  0  0  0  0  0
    1.7761   -0.1504    0.9178 O   0  0  0  0  0  0  0  0  0  0  0  0
   -0.2516    0.1669    1.8431 N   0  0  0  0  0  0  0  0  0  0  0  0
   -1.2448   -0.0128    1.7392 H   0  0  0  0  0  0  0  0  0  0  0  0
    0.2626    0.5333    3.1565 C   0  0  0  0  0  0  0  0  0  0  0  0
    0.9808    1.3558    3.0719 H   0  0  0  0  0  0  0  0  0  0  0  0
   -0.5558    0.8575    3.8063 H   0  0  0  0  0  0  0  0  0  0  0  0
    0.7603   -0.3228    3.6239 H   0  0  0  0  0  0  0  0  0  0  0  0
  1  2  1  0  0  0  0
  2  3  1  0  0  0  0
  2  4  1  0  0  0  0
  2  5  1  0  0  0  0
  5  6  2  0  0  0  0
  5  7  1  0  0  0  0
  7  8  1  0  0  0  0
  7  9  1  0  0  0  0
  9 10  1  0  0  0  0
  9 11  1  0  0  0  0
  9 22  1  0  0  0  0
 11 12  1  0  0  0  0
 11 13  1  0  0  0  0
 11 14  1  0  0  0  0
 14 15  1  0  0  0  0
 14 20  2  0  0  0  0
 15 16  2  0  0  0  0
 16 17  1  0  0  0  0
 16 18  1  0  0  0  0
 18 19  1  0  0  0  0
 18 20  1  0  0  0  0
 20 21  1  0  0  0  0
 22 23  2  0  0  0  0
 22 24  1  0  0  0  0
 24 25  1  0  0  0  0
 24 26  1  0  0  0  0
 26 27  1  0  0  0  0
 26 28  1  0  0  0  0
 26 29  1  0  0  0  0
M  END
$$$$

  -OEChem-04042215593D

 29 29  0     1  0  0  0  0  0999 V2000
   -2.4942   -4.4781    0.4538 H   0  0  0  0  0  0  0  0  0  0  0  0
   -2.6273   -3.4934   -0.0036 C   0  0  0  0  0  0  0  0  0  0  0  0
   -3.4309   -2.9686    0.5185 H   0  0  0  0  0  0  0  0  0  0  0  0
   -2.9080   -3.6286   -1.0509 H   0  0  0  0  0  0  0  0  0  0  0  0
   -1.3395   -2.6969    0.0906 C   0  0  0  0  0  0  0  0  0  0  0  0
   -0.3755   -3.1677    0.6656 O   0  0  0  0  0  0  0  0  0  0  0  0
   -1.2626   -1.4478   -0.4921 N   0  0  0  0  0  0  0  0  0  0  0  0
   -2.0619   -1.1530   -1.0458 H   0  0  0  0  0  0  0  0  0  0  0  0
   -0.0337   -0.6360   -0.5641 C   0  0  1  0  0  0  0  0  0  0  0  0
    0.7438   -1.2045   -1.0816 H   0  0  0  0  0  0  0  0  0  0  0  0
   -0.3697    0.6608   -1.3298 C   0  0  0  0  0  0  0  0  0  0  0  0
   -1.3982    0.9662   -1.1163 H   0  0  0  0  0  0  0  0  0  0  0  0
    0.2811    1.4678   -0.9776 H   0  0  0  0  0  0  0  0  0  0  0  0
   -0.1778    0.5787   -2.8211 C   0  0  0  0  0  0  0  0  0  0  0  0
   -0.7253    1.5423   -3.6578 N   0  0  0  0  0  0  0  0  0  0  0  0
   -0.3992    1.2117   -4.8841 C   0  0  0  0  0  0  0  0  0  0  0  0
   -0.6716    1.7739   -5.7730 H   0  0  0  0  0  0  0  0  0  0  0  0
    0.3372    0.0435   -4.8752 N   0  0  0  0  0  0  0  0  0  0  0  0
    0.7229   -0.4147   -5.6991 H   0  0  0  0  0  0  0  0  0  0  0  0
    0.4782   -0.3667   -3.5664 C   0  0  0  0  0  0  0  0  0  0  0  0
    1.0070   -1.2427   -3.2027 H   0  0  0  0  0  0  0  0  0  0  0  0
    0.5634   -0.2802    0.8170 C   0  0  0  0  0  0  0  0  0  0  0  0
    1.7763   -0.1695    0.9404 O   0  0  0  0  0  0  0  0  0  0  0  0
   -0.2615    0.1598    1.8373 N   0  0  0  0  0  0  0  0  0  0  0  0
   -1.2545   -0.0130    1.7219 H   0  0  0  0  0  0  0  0  0  0  0  0
    0.2373    0.5504    3.1498 C   0  0  0  0  0  0  0  0  0  0  0  0
    0.9532    1.3741    3.0584 H   0  0  0  0  0  0  0  0  0  0  0  0
   -0.5890    0.8826    3.7853 H   0  0  0  0  0  0  0  0  0  0  0  0
    0.7331   -0.2956    3.6372 H   0  0  0  0  0  0  0  0  0  0  0  0
  1  2  1  0  0  0  0
  2  3  1  0  0  0  0
  2  4  1  0  0  0  0
  2  5  1  0  0  0  0
  5  6  2  0  0  0  0
  5  7  1  0  0  0  0
  7  8  1  0  0  0  0
  7  9  1  0  0  0  0
  9 10  1  0  0  0  0
  9 11  1  0  0  0  0
  9 22  1  0  0  0  0
 11 12  1  0  0  0  0
 11 13  1  0  0  0  0
 11 14  1  0  0  0  0
 14 15  1  0  0  0  0
 14 20  2  0  0  0  0
 15 16  2  0  0  0  0
 16 17  1  0  0  0  0
 16 18  1  0  0  0  0
 18 19  1  0  0  0  0
 18 20  1  0  0  0  0
 20 21  1  0  0  0  0
 22 23  2  0  0  0  0
 22 24  1  0  0  0  0
 24 25  1  0  0  0  0
 24 26  1  0  0  0  0
 26 27  1  0  0  0  0
 26 28  1  0  0  0  0
 26 29  1  0  0  0  0
M  END
$$$$

  -OEChem-04042215593D

 29 29  0     1  0  0  0  0  0999 V2000
   -2.4816   -4.4919    0.4996 H   0  0  0  0  0  0  0  0  0  0  0  0
   -2.6297   -3.5068    0.0477 C   0  0  0  0  0  0  0  0  0  0  0  0
   -3.4051   -2.9771    0.6061 H   0  0  0  0  0  0  0  0  0  0  0  0
   -2.9597   -3.6409   -0.9853 H   0  0  0  0  0  0  0  0  0  0  0  0
   -1.3343   -2.7177    0.0820 C   0  0  0  0  0  0  0  0  0  0  0  0
   -0.3460   -3.1951    0.6074 O   0  0  0  0  0  0  0  0  0  0  0  0
   -1.2796   -1.4647   -0.4944 N   0  0  0  0  0  0  0  0  0  0  0  0
   -2.1106   -1.1485   -0.9862 H   0  0  0  0  0  0  0  0  0  0  0  0
   -0.0624   -0.6353   -0.5791 C   0  0  1  0  0  0  0  0  0  0  0  0
    0.7124   -1.1842   -1.1254 H   0  0  0  0  0  0  0  0  0  0  0  0
   -0.4155    0.6549   -1.3396 C   0  0  0  0  0  0  0  0  0  0  0  0
   -1.3309    1.0928   -0.9319 H   0  0  0  0  0  0  0  0  0  0  0  0
    0.3877    1.3843   -1.1916 H   0  0  0  0  0  0  0  0  0  0  0  0
   -0.5731    0.4681   -2.8247 C   0  0  0  0  0  0  0  0  0  0  0  0
   -0.8923    1.5322   -3.6565 N   0  0  0  0  0  0  0  0  0  0  0  0
   -0.9343    1.0594   -4.8788 C   0  0  0  0  0  0  0  0  0  0  0  0
   -1.1515    1.6485   -5.7655 H   0  0  0  0  0  0  0  0  0  0  0  0
   -0.6625   -0.2951   -4.8682 N   0  0  0  0  0  0  0  0  0  0  0  0
   -0.6116   -0.8903   -5.6932 H   0  0  0  0  0  0  0  0  0  0  0  0
   -0.4299   -0.6772   -3.5641 C   0  0  0  0  0  0  0  0  0  0  0  0
   -0.1688   -1.6652   -3.1957 H   0  0  0  0  0  0  0  0  0  0  0  0
    0.5531   -0.2756    0.7924 C   0  0  0  0  0  0  0  0  0  0  0  0
    1.7663   -0.1536    0.8990 O   0  0  0  0  0  0  0  0  0  0  0  0
   -0.2603    0.1500    1.8282 N   0  0  0  0  0  0  0  0  0  0  0  0
   -1.2542   -0.0254    1.7266 H   0  0  0  0  0  0  0  0  0  0  0  0
    0.2551    0.5435    3.1335 C   0  0  0  0  0  0  0  0  0  0  0  0
    0.9536    1.3809    3.0334 H   0  0  0  0  0  0  0  0  0  0  0  0
   -0.5656    0.8568    3.7856 H   0  0  0  0  0  0  0  0  0  0  0  0
    0.7753   -0.2954    3.6074 H   0  0  0  0  0  0  0  0  0  0  0  0
  1  2  1  0  0  0  0
  2  3  1  0  0  0  0
  2  4  1  0  0  0  0
  2  5  1  0  0  0  0
  5  6  2  0  0  0  0
  5  7  1  0  0  0  0
  7  8  1  0  0  0  0
  7  9  1  0  0  0  0
  9 10  1  0  0  0  0
  9 11  1  0  0  0  0
  9 22  1  0  0  0  0
 11 12  1  0  0  0  0
 11 13  1  0  0  0  0
 11 14  1  0  0  0  0
 14 15  1  0  0  0  0
 14 20  2  0  0  0  0
 15 16  2  0  0  0  0
 16 17  1  0  0  0  0
 16 18  1  0  0  0  0
 18 19  1  0  0  0  0
 18 20  1  0  0  0  0
 20 21  1  0  0  0  0
 22 23  2  0  0  0  0
 22 24  1  0  0  0  0
 24 25  1  0  0  0  0
 24 26  1  0  0  0  0
 26 27  1  0  0  0  0
 26 28  1  0  0  0  0
 26 29  1  0  0  0  0
M  END
$$$$

  -OEChem-04042215593D

 29 29  0     1  0  0  0  0  0999 V2000
   -2.4921   -4.4907    0.5442 H   0  0  0  0  0  0  0  0  0  0  0  0
   -2.6468   -3.5058    0.0940 C   0  0  0  0  0  0  0  0  0  0  0  0
   -3.3979   -2.9674    0.6771 H   0  0  0  0  0  0  0  0  0  0  0  0
   -3.0132   -3.6401   -0.9266 H   0  0  0  0  0  0  0  0  0  0  0  0
   -1.3441   -2.7284    0.0813 C   0  0  0  0  0  0  0  0  0  0  0  0
   -0.3409   -3.2156    0.5676 O   0  0  0  0  0  0  0  0  0  0  0  0
   -1.3012   -1.4727   -0.4901 N   0  0  0  0  0  0  0  0  0  0  0  0
   -2.1532   -1.1367   -0.9297 H   0  0  0  0  0  0  0  0  0  0  0  0
   -0.0878   -0.6380   -0.5878 C   0  0  1  0  0  0  0  0  0  0  0  0
    0.6795   -1.1828   -1.1499 H   0  0  0  0  0  0  0  0  0  0  0  0
   -0.4497    0.6525   -1.3436 C   0  0  0  0  0  0  0  0  0  0  0  0
   -1.3577    1.0972   -0.9272 H   0  0  0  0  0  0  0  0  0  0  0  0
    0.3604    1.3760   -1.2031 H   0  0  0  0  0  0  0  0  0  0  0  0
   -0.6195    0.4669   -2.8277 C   0  0  0  0  0  0  0  0  0  0  0  0
   -0.6430    1.5498   -3.6951 N   0  0  0  0  0  0  0  0  0  0  0  0
   -0.7390    1.0633   -4.9086 C   0  0  0  0  0  0  0  0  0  0  0  0
   -0.7764    1.6602   -5.8155 H   0  0  0  0  0  0  0  0  0  0  0  0
   -0.7814   -0.3168   -4.8595 N   0  0  0  0  0  0  0  0  0  0  0  0
   -0.8178   -0.9319   -5.6705 H   0  0  0  0  0  0  0  0  0  0  0  0
   -0.6938   -0.7027   -3.5387 C   0  0  0  0  0  0  0  0  0  0  0  0
   -0.6565   -1.7128   -3.1411 H   0  0  0  0  0  0  0  0  0  0  0  0
    0.5451   -0.2821    0.7765 C   0  0  0  0  0  0  0  0  0  0  0  0
    1.7589   -0.1560    0.8692 O   0  0  0  0  0  0  0  0  0  0  0  0
   -0.2570    0.1358    1.8241 N   0  0  0  0  0  0  0  0  0  0  0  0
   -1.2513   -0.0433    1.7357 H   0  0  0  0  0  0  0  0  0  0  0  0
    0.2744    0.5353    3.1209 C   0  0  0  0  0  0  0  0  0  0  0  0
    0.9658    1.3772    3.0089 H   0  0  0  0  0  0  0  0  0  0  0  0
   -0.5391    0.8444    3.7839 H   0  0  0  0  0  0  0  0  0  0  0  0
    0.8075   -0.2991    3.5888 H   0  0  0  0  0  0  0  0  0  0  0  0
  1  2  1  0  0  0  0
  2  3  1  0  0  0  0
  2  4  1  0  0  0  0
  2  5  1  0  0  0  0
  5  6  2  0  0  0  0
  5  7  1  0  0  0  0
  7  8  1  0  0  0  0
  7  9  1  0  0  0  0
  9 10  1  0  0  0  0
  9 11  1  0  0  0  0
  9 22  1  0  0  0  0
 11 12  1  0  0  0  0
 11 13  1  0  0  0  0
 11 14  1  0  0  0  0
 14 15  1  0  0  0  0
 14 20  2  0  0  0  0
 15 16  2  0  0  0  0
 16 17  1  0  0  0  0
 16 18  1  0  0  0  0
 18 19  1  0  0  0  0
 18 20  1  0  0  0  0
 20 21  1  0  0  0  0
 22 23  2  0  0  0  0
 22 24  1  0  0  0  0
 24 25  1  0  0  0  0
 24 26  1  0  0  0  0
 26 27  1  0  0  0  0
 26 28  1  0  0  0  0
 26 29  1  0  0  0  0
M  END
$$$$

  -OEChem-04042215593D

 29 29  0     1  0  0  0  0  0999 V2000
   -2.4854   -4.4862    0.5879 H   0  0  0  0  0  0  0  0  0  0  0  0
   -2.6525   -3.5042    0.1360 C   0  0  0  0  0  0  0  0  0  0  0  0
   -3.3842   -2.9608    0.7385 H   0  0  0  0  0  0  0  0  0  0  0  0
   -3.0507   -3.6452   -0.8716 H   0  0  0  0  0  0  0  0  0  0  0  0
   -1.3491   -2.7301    0.0771 C   0  0  0  0  0  0  0  0  0  0  0  0
   -0.3301   -3.2234    0.5221 O   0  0  0  0  0  0  0  0  0  0  0  0
   -1.3234   -1.4707   -0.4877 N   0  0  0  0  0  0  0  0  0  0  0  0
   -2.1963   -1.1154   -0.8661 H   0  0  0  0  0  0  0  0  0  0  0  0
   -0.1155   -0.6287   -0.5983 C   0  0  1  0  0  0  0  0  0  0  0  0
    0.6435   -1.1712   -1.1740 H   0  0  0  0  0  0  0  0  0  0  0  0
   -0.4813    0.6635   -1.3503 C   0  0  0  0  0  0  0  0  0  0  0  0
   -1.3820    1.1151   -0.9258 H   0  0  0  0  0  0  0  0  0  0  0  0
    0.3357    1.3801   -1.2139 H   0  0  0  0  0  0  0  0  0  0  0  0
   -0.6601    0.4826   -2.8348 C   0  0  0  0  0  0  0  0  0  0  0  0
   -0.3869    1.5096   -3.7277 N   0  0  0  0  0  0  0  0  0  0  0  0
   -0.5450    1.0212   -4.9336 C   0  0  0  0  0  0  0  0  0  0  0  0
   -0.4014    1.5802   -5.8540 H   0  0  0  0  0  0  0  0  0  0  0  0
   -0.9130   -0.3079   -4.8559 N   0  0  0  0  0  0  0  0  0  0  0  0
   -1.0562   -0.9239   -5.6543 H   0  0  0  0  0  0  0  0  0  0  0  0
   -0.9699   -0.6612   -3.5242 C   0  0  0  0  0  0  0  0  0  0  0  0
   -1.1723   -1.6428   -3.1077 H   0  0  0  0  0  0  0  0  0  0  0  0
    0.5343   -0.2785    0.7600 C   0  0  0  0  0  0  0  0  0  0  0  0
    1.7491   -0.1552    0.8417 O   0  0  0  0  0  0  0  0  0  0  0  0
   -0.2557    0.1283    1.8214 N   0  0  0  0  0  0  0  0  0  0  0  0
   -1.2513   -0.0454    1.7414 H   0  0  0  0  0  0  0  0  0  0  0  0
    0.2906    0.5115    3.1168 C   0  0  0  0  0  0  0  0  0  0  0  0
    0.9845    1.3516    3.0069 H   0  0  0  0  0  0  0  0  0  0  0  0
   -0.5144    0.8169    3.7916 H   0  0  0  0  0  0  0  0  0  0  0  0
    0.8242   -0.3304    3.5700 H   0  0  0  0  0  0  0  0  0  0  0  0
  1  2  1  0  0  0  0
  2  3  1  0  0  0  0
  2  4  1  0  0  0  0
  2  5  1  0  0  0  0
  5  6  2  0  0  0  0
  5  7  1  0  0  0  0
  7  8  1  0  0  0  0
  7  9  1  0  0  0  0
  9 10  1  0  0  0  0
  9 11  1  0  0  0  0
  9 22  1  0  0  0  0
 11 12  1  0  0  0  0
 11 13  1  0  0  0  0
 11 14  1  0  0  0  0
 14 15  1  0  0  0  0
 14 20  2  0  0  0  0
 15 16  2  0  0  0  0
 16 17  1  0  0  0  0
 16 18  1  0  0  0  0
 18 19  1  0  0  0  0
 18 20  1  0  0  0  0
 20 21  1  0  0  0  0
 22 23  2  0  0  0  0
 22 24  1  0  0  0  0
 24 25  1  0  0  0  0
 24 26  1  0  0  0  0
 26 27  1  0  0  0  0
 26 28  1  0  0  0  0
 26 29  1  0  0  0  0
M  END
$$$$

  -OEChem-04042215593D

 29 29  0     1  0  0  0  0  0999 V2000
   -2.4734   -4.4810    0.5993 H   0  0  0  0  0  0  0  0  0  0  0  0
   -2.6471   -3.4999    0.1478 C   0  0  0  0  0  0  0  0  0  0  0  0
   -3.3684   -2.9542    0.7607 H   0  0  0  0  0  0  0  0  0  0  0  0
   -3.0617   -3.6429   -0.8530 H   0  0  0  0  0  0  0  0  0  0  0  0
   -1.3441   -2.7273    0.0655 C   0  0  0  0  0  0  0  0  0  0  0  0
   -0.3178   -3.2233    0.4902 O   0  0  0  0  0  0  0  0  0  0  0  0
   -1.3301   -1.4639   -0.4911 N   0  0  0  0  0  0  0  0  0  0  0  0
   -2.2156   -1.0945   -0.8220 H   0  0  0  0  0  0  0  0  0  0  0  0
   -0.1271   -0.6160   -0.6056 C   0  0  1  0  0  0  0  0  0  0  0  0
    0.6280   -1.1554   -1.1895 H   0  0  0  0  0  0  0  0  0  0  0  0
   -0.4905    0.6802   -1.3526 C   0  0  0  0  0  0  0  0  0  0  0  0
   -1.3901    1.1323   -0.9266 H   0  0  0  0  0  0  0  0  0  0  0  0
    0.3281    1.3948   -1.2129 H   0  0  0  0  0  0  0  0  0  0  0  0
   -0.6690    0.4994   -2.8374 C   0  0  0  0  0  0  0  0  0  0  0  0
   -0.1170    1.3891   -3.7487 N   0  0  0  0  0  0  0  0  0  0  0  0
   -0.3692    0.9191   -4.9456 C   0  0  0  0  0  0  0  0  0  0  0  0
   -0.0628    1.3898   -5.8754 H   0  0  0  0  0  0  0  0  0  0  0  0
   -1.0750   -0.2638   -4.8439 N   0  0  0  0  0  0  0  0  0  0  0  0
   -1.3600   -0.8449   -5.6303 H   0  0  0  0  0  0  0  0  0  0  0  0
   -1.2543   -0.5447   -3.5056 C   0  0  0  0  0  0  0  0  0  0  0  0
   -1.7229   -1.4219   -3.0732 H   0  0  0  0  0  0  0  0  0  0  0  0
    0.5299   -0.2740    0.7514 C   0  0  0  0  0  0  0  0  0  0  0  0
    1.7445   -0.1484    0.8295 O   0  0  0  0  0  0  0  0  0  0  0  0
   -0.2561    0.1206    1.8205 N   0  0  0  0  0  0  0  0  0  0  0  0
   -1.2512   -0.0578    1.7452 H   0  0  0  0  0  0  0  0  0  0  0  0
    0.2963    0.4906    3.1174 C   0  0  0  0  0  0  0  0  0  0  0  0
    0.9810    1.3390    3.0145 H   0  0  0  0  0  0  0  0  0  0  0  0
   -0.5067    0.7780    3.8028 H   0  0  0  0  0  0  0  0  0  0  0  0
    0.8422   -0.3521    3.5545 H   0  0  0  0  0  0  0  0  0  0  0  0
  1  2  1  0  0  0  0
  2  3  1  0  0  0  0
  2  4  1  0  0  0  0
  2  5  1  0  0  0  0
  5  6  2  0  0  0  0
  5  7  1  0  0  0  0
  7  8  1  0  0  0  0
  7  9  1  0  0  0  0
  9 10  1  0  0  0  0
  9 11  1  0  0  0  0
  9 22  1  0  0  0  0
 11 12  1  0  0  0  0
 11 13  1  0  0  0  0
 11 14  1  0  0  0  0
 14 15  1  0  0  0  0
 14 20  2  0  0  0  0
 15 16  2  0  0  0  0
 16 17  1  0  0  0  0
 16 18  1  0  0  0  0
 18 19  1  0  0  0  0
 18 20  1  0  0  0  0
 20 21  1  0  0  0  0
 22 23  2  0  0  0  0
 22 24  1  0  0  0  0
 24 25  1  0  0  0  0
 24 26  1  0  0  0  0
 26 27  1  0  0  0  0
 26 28  1  0  0  0  0
 26 29  1  0  0  0  0
M  END
$$$$

  -OEChem-04042215593D

 29 29  0     1  0  0  0  0  0999 V2000
   -2.4571   -4.4897    0.5632 H   0  0  0  0  0  0  0  0  0  0  0  0
   -2.6319   -3.5067    0.1163 C   0  0  0  0  0  0  0  0  0  0  0  0
   -3.3660   -2.9711    0.7229 H   0  0  0  0  0  0  0  0  0  0  0  0
   -3.0306   -3.6463   -0.8912 H   0  0  0  0  0  0  0  0  0  0  0  0
   -1.3339   -2.7231    0.0582 C   0  0  0  0  0  0  0  0  0  0  0  0
   -0.3131   -3.2097    0.5065 O   0  0  0  0  0  0  0  0  0  0  0  0
   -1.3216   -1.4580   -0.4951 N   0  0  0  0  0  0  0  0  0  0  0  0
   -2.2020   -1.1003   -0.8487 H   0  0  0  0  0  0  0  0  0  0  0  0
   -0.1204   -0.6066   -0.6043 C   0  0  1  0  0  0  0  0  0  0  0  0
    0.6373   -1.1439   -1.1872 H   0  0  0  0  0  0  0  0  0  0  0  0
   -0.4753    0.6927   -1.3492 C   0  0  0  0  0  0  0  0  0  0  0  0
   -1.3839    1.1363   -0.9335 H   0  0  0  0  0  0  0  0  0  0  0  0
    0.3353    1.4151   -1.2038 H   0  0  0  0  0  0  0  0  0  0  0  0
   -0.6407    0.4917   -2.8309 C   0  0  0  0  0  0  0  0  0  0  0  0
    0.1468    1.1565   -3.7600 N   0  0  0  0  0  0  0  0  0  0  0  0
   -0.2320    0.7458   -4.9451 C   0  0  0  0  0  0  0  0  0  0  0  0
    0.1975    1.0807   -5.8851 H   0  0  0  0  0  0  0  0  0  0  0  0
   -1.2566   -0.1720   -4.8165 N   0  0  0  0  0  0  0  0  0  0  0  0
   -1.7144   -0.6500   -5.5906 H   0  0  0  0  0  0  0  0  0  0  0  0
   -1.5211   -0.3387   -3.4730 C   0  0  0  0  0  0  0  0  0  0  0  0
   -2.2552   -0.9952   -3.0205 H   0  0  0  0  0  0  0  0  0  0  0  0
    0.5322   -0.2667    0.7555 C   0  0  0  0  0  0  0  0  0  0  0  0
    1.7457   -0.1321    0.8361 O   0  0  0  0  0  0  0  0  0  0  0  0
   -0.2575    0.1231    1.8241 N   0  0  0  0  0  0  0  0  0  0  0  0
   -1.2493   -0.0743    1.7519 H   0  0  0  0  0  0  0  0  0  0  0  0
    0.2934    0.4866    3.1236 C   0  0  0  0  0  0  0  0  0  0  0  0
    0.9907    1.3253    3.0241 H   0  0  0  0  0  0  0  0  0  0  0  0
   -0.5090    0.7856    3.8047 H   0  0  0  0  0  0  0  0  0  0  0  0
    0.8255   -0.3633    3.5636 H   0  0  0  0  0  0  0  0  0  0  0  0
  1  2  1  0  0  0  0
  2  3  1  0  0  0  0
  2  4  1  0  0  0  0
  2  5  1  0  0  0  0
  5  6  2  0  0  0  0
  5  7  1  0  0  0  0
  7  8  1  0  0  0  0
  7  9  1  0  0  0  0
  9 10  1  0  0  0  0
  9 11  1  0  0  0  0
  9 22  1  0  0  0  0
 11 12  1  0  0  0  0
 11 13  1  0  0  0  0
 11 14  1  0  0  0  0
 14 15  1  0  0  0  0
 14 20  2  0  0  0  0
 15 16  2  0  0  0  0
 16 17  1  0  0  0  0
 16 18  1  0  0  0  0
 18 19  1  0  0  0  0
 18 20  1  0  0  0  0
 20 21  1  0  0  0  0
 22 23  2  0  0  0  0
 22 24  1  0  0  0  0
 24 25  1  0  0  0  0
 24 26  1  0  0  0  0
 26 27  1  0  0  0  0
 26 28  1  0  0  0  0
 26 29  1  0  0  0  0
M  END
$$$$

  -OEChem-04042215593D

 29 29  0     1  0  0  0  0  0999 V2000
   -2.4378   -4.5274    0.4606 H   0  0  0  0  0  0  0  0  0  0  0  0
   -2.6138   -3.5381    0.0281 C   0  0  0  0  0  0  0  0  0  0  0  0
   -3.4207   -3.0513    0.5809 H   0  0  0  0  0  0  0  0  0  0  0  0
   -2.9154   -3.6610   -1.0148 H   0  0  0  0  0  0  0  0  0  0  0  0
   -1.3502   -2.7025    0.1110 C   0  0  0  0  0  0  0  0  0  0  0  0
   -0.3775   -3.1375    0.6980 O   0  0  0  0  0  0  0  0  0  0  0  0
   -1.3213   -1.4487   -0.4675 N   0  0  0  0  0  0  0  0  0  0  0  0
   -2.1258   -1.1961   -1.0292 H   0  0  0  0  0  0  0  0  0  0  0  0
   -0.1065   -0.6178   -0.5864 C   0  0  1  0  0  0  0  0  0  0  0  0
    0.6459   -1.1706   -1.1613 H   0  0  0  0  0  0  0  0  0  0  0  0
   -0.4459    0.6826   -1.3360 C   0  0  0  0  0  0  0  0  0  0  0  0
   -1.3529    1.1298   -0.9202 H   0  0  0  0  0  0  0  0  0  0  0  0
    0.3663    1.4057   -1.2045 H   0  0  0  0  0  0  0  0  0  0  0  0
   -0.6193    0.4479   -2.8088 C   0  0  0  0  0  0  0  0  0  0  0  0
    0.3295    0.8130   -3.7519 N   0  0  0  0  0  0  0  0  0  0  0  0
   -0.1702    0.5177   -4.9267 C   0  0  0  0  0  0  0  0  0  0  0  0
    0.3353    0.6776   -5.8750 H   0  0  0  0  0  0  0  0  0  0  0  0
   -1.4359   -0.0170   -4.7766 N   0  0  0  0  0  0  0  0  0  0  0  0
   -2.0405   -0.3117   -5.5415 H   0  0  0  0  0  0  0  0  0  0  0  0
   -1.7348   -0.0473   -3.4301 C   0  0  0  0  0  0  0  0  0  0  0  0
   -2.6573   -0.3720   -2.9623 H   0  0  0  0  0  0  0  0  0  0  0  0
    0.5448   -0.2621    0.7705 C   0  0  0  0  0  0  0  0  0  0  0  0
    1.7590   -0.1328    0.8527 O   0  0  0  0  0  0  0  0  0  0  0  0
   -0.2473    0.1590    1.8249 N   0  0  0  0  0  0  0  0  0  0  0  0
   -1.2344   -0.0632    1.7574 H   0  0  0  0  0  0  0  0  0  0  0  0
    0.3006    0.5194    3.1266 C   0  0  0  0  0  0  0  0  0  0  0  0
    0.9962    1.3598    3.0307 H   0  0  0  0  0  0  0  0  0  0  0  0
   -0.5036    0.8148    3.8070 H   0  0  0  0  0  0  0  0  0  0  0  0
    0.8332   -0.3311    3.5652 H   0  0  0  0  0  0  0  0  0  0  0  0
  1  2  1  0  0  0  0
  2  3  1  0  0  0  0
  2  4  1  0  0  0  0
  2  5  1  0  0  0  0
  5  6  2  0  0  0  0
  5  7  1  0  0  0  0
  7  8  1  0  0  0  0
  7  9  1  0  0  0  0
  9 10  1  0  0  0  0
  9 11  1  0  0  0  0
  9 22  1  0  0  0  0
 11 12  1  0  0  0  0
 11 13  1  0  0  0  0
 11 14  1  0  0  0  0
 14 15  1  0  0  0  0
 14 20  2  0  0  0  0
 15 16  2  0  0  0  0
 16 17  1  0  0  0  0
 16 18  1  0  0  0  0
 18 19  1  0  0  0  0
 18 20  1  0  0  0  0
 20 21  1  0  0  0  0
 22 23  2  0  0  0  0
 22 24  1  0  0  0  0
 24 25  1  0  0  0  0
 24 26  1  0  0  0  0
 26 27  1  0  0  0  0
 26 28  1  0  0  0  0
 26 29  1  0  0  0  0
M  END
$$$$

  -OEChem-04042215593D

 29 29  0     1  0  0  0  0  0999 V2000
   -2.4534   -4.5202    0.4289 H   0  0  0  0  0  0  0  0  0  0  0  0
   -2.6114   -3.5446   -0.0399 C   0  0  0  0  0  0  0  0  0  0  0  0
   -3.4691   -3.0615    0.4341 H   0  0  0  0  0  0  0  0  0  0  0  0
   -2.8255   -3.6971   -1.1005 H   0  0  0  0  0  0  0  0  0  0  0  0
   -1.3734   -2.6825    0.1229 C   0  0  0  0  0  0  0  0  0  0  0  0
   -0.4328   -3.0966    0.7740 O   0  0  0  0  0  0  0  0  0  0  0  0
   -1.3350   -1.4306   -0.4593 N   0  0  0  0  0  0  0  0  0  0  0  0
   -2.0925   -1.2258   -1.1015 H   0  0  0  0  0  0  0  0  0  0  0  0
   -0.1095   -0.6158   -0.5793 C   0  0  1  0  0  0  0  0  0  0  0  0
    0.6354   -1.1720   -1.1607 H   0  0  0  0  0  0  0  0  0  0  0  0
   -0.4526    0.6888   -1.3178 C   0  0  0  0  0  0  0  0  0  0  0  0
   -1.3533    1.1375   -0.8892 H   0  0  0  0  0  0  0  0  0  0  0  0
    0.3636    1.4096   -1.1990 H   0  0  0  0  0  0  0  0  0  0  0  0
   -0.6412    0.4432   -2.7853 C   0  0  0  0  0  0  0  0  0  0  0  0
    0.3829    0.5094   -3.7172 N   0  0  0  0  0  0  0  0  0  0  0  0
   -0.1618    0.3072   -4.8919 C   0  0  0  0  0  0  0  0  0  0  0  0
    0.3796    0.2949   -5.8338 H   0  0  0  0  0  0  0  0  0  0  0  0
   -1.5248    0.1224   -4.7513 N   0  0  0  0  0  0  0  0  0  0  0  0
   -2.1766   -0.0292   -5.5192 H   0  0  0  0  0  0  0  0  0  0  0  0
   -1.8387    0.2269   -3.4119 C   0  0  0  0  0  0  0  0  0  0  0  0
   -2.8192    0.1765   -2.9496 H   0  0  0  0  0  0  0  0  0  0  0  0
    0.5508   -0.2633    0.7745 C   0  0  0  0  0  0  0  0  0  0  0  0
    1.7662   -0.1392    0.8499 O   0  0  0  0  0  0  0  0  0  0  0  0
   -0.2340    0.1716    1.8289 N   0  0  0  0  0  0  0  0  0  0  0  0
   -1.2208   -0.0558    1.7698 H   0  0  0  0  0  0  0  0  0  0  0  0
    0.3217    0.5355    3.1261 C   0  0  0  0  0  0  0  0  0  0  0  0
    1.0339    1.3605    3.0201 H   0  0  0  0  0  0  0  0  0  0  0  0
   -0.4760    0.8550    3.8033 H   0  0  0  0  0  0  0  0  0  0  0  0
    0.8375   -0.3201    3.5744 H   0  0  0  0  0  0  0  0  0  0  0  0
  1  2  1  0  0  0  0
  2  3  1  0  0  0  0
  2  4  1  0  0  0  0
  2  5  1  0  0  0  0
  5  6  2  0  0  0  0
  5  7  1  0  0  0  0
  7  8  1  0  0  0  0
  7  9  1  0  0  0  0
  9 10  1  0  0  0  0
  9 11  1  0  0  0  0
  9 22  1  0  0  0  0
 11 12  1  0  0  0  0
 11 13  1  0  0  0  0
 11 14  1  0  0  0  0
 14 15  1  0  0  0  0
 14 20  2  0  0  0  0
 15 16  2  0  0  0  0
 16 17  1  0  0  0  0
 16 18  1  0  0  0  0
 18 19  1  0  0  0  0
 18 20  1  0  0  0  0
 20 21  1  0  0  0  0
 22 23  2  0  0  0  0
 22 24  1  0  0  0  0
 24 25  1  0  0  0  0
 24 26  1  0  0  0  0
 26 27  1  0  0  0  0
 26 28  1  0  0  0  0
 26 29  1  0  0  0  0
M  END
$$$$

  -OEChem-04042215593D

 29 29  0     1  0  0  0  0  0999 V2000
   -2.4678   -4.5063    0.4242 H   0  0  0  0  0  0  0  0  0  0  0  0
   -2.6153   -3.5390   -0.0647 C   0  0  0  0  0  0  0  0  0  0  0  0
   -3.4879   -3.0516    0.3763 H   0  0  0  0  0  0  0  0  0  0  0  0
   -2.7976   -3.7091   -1.1285 H   0  0  0  0  0  0  0  0  0  0  0  0
   -1.3857   -2.6692    0.1194 C   0  0  0  0  0  0  0  0  0  0  0  0
   -0.4553   -3.0768    0.7894 O   0  0  0  0  0  0  0  0  0  0  0  0
   -1.3457   -1.4161   -0.4601 N   0  0  0  0  0  0  0  0  0  0  0  0
   -2.0899   -1.2220   -1.1218 H   0  0  0  0  0  0  0  0  0  0  0  0
   -0.1164   -0.6069   -0.5806 C   0  0  1  0  0  0  0  0  0  0  0  0
    0.6241   -1.1621   -1.1686 H   0  0  0  0  0  0  0  0  0  0  0  0
   -0.4653    0.7018   -1.3082 C   0  0  0  0  0  0  0  0  0  0  0  0
   -1.3584    1.1531   -0.8672 H   0  0  0  0  0  0  0  0  0  0  0  0
    0.3572    1.4161   -1.1955 H   0  0  0  0  0  0  0  0  0  0  0  0
   -0.6655    0.4629   -2.7751 C   0  0  0  0  0  0  0  0  0  0  0  0
    0.3663    0.2372   -3.6729 N   0  0  0  0  0  0  0  0  0  0  0  0
   -0.1830    0.1209   -4.8571 C   0  0  0  0  0  0  0  0  0  0  0  0
    0.3619   -0.0604   -5.7793 H   0  0  0  0  0  0  0  0  0  0  0  0
   -1.5540    0.2688   -4.7550 N   0  0  0  0  0  0  0  0  0  0  0  0
   -2.2047    0.2443   -5.5383 H   0  0  0  0  0  0  0  0  0  0  0  0
   -1.8657    0.4995   -3.4309 C   0  0  0  0  0  0  0  0  0  0  0  0
   -2.8415    0.6920   -2.9958 H   0  0  0  0  0  0  0  0  0  0  0  0
    0.5509   -0.2600    0.7714 C   0  0  0  0  0  0  0  0  0  0  0  0
    1.7667   -0.1342    0.8404 O   0  0  0  0  0  0  0  0  0  0  0  0
   -0.2281    0.1764    1.8296 N   0  0  0  0  0  0  0  0  0  0  0  0
   -1.2135   -0.0590    1.7773 H   0  0  0  0  0  0  0  0  0  0  0  0
    0.3356    0.5294    3.1265 C   0  0  0  0  0  0  0  0  0  0  0  0
    1.0508    1.3520    3.0227 H   0  0  0  0  0  0  0  0  0  0  0  0
   -0.4578    0.8478    3.8093 H   0  0  0  0  0  0  0  0  0  0  0  0
    0.8505   -0.3309    3.5669 H   0  0  0  0  0  0  0  0  0  0  0  0
  1  2  1  0  0  0  0
  2  3  1  0  0  0  0
  2  4  1  0  0  0  0
  2  5  1  0  0  0  0
  5  6  2  0  0  0  0
  5  7  1  0  0  0  0
  7  8  1  0  0  0  0
  7  9  1  0  0  0  0
  9 10  1  0  0  0  0
  9 11  1  0  0  0  0
  9 22  1  0  0  0  0
 11 12  1  0  0  0  0
 11 13  1  0  0  0  0
 11 14  1  0  0  0  0
 14 15  1  0  0  0  0
 14 20  2  0  0  0  0
 15 16  2  0  0  0  0
 16 17  1  0  0  0  0
 16 18  1  0  0  0  0
 18 19  1  0  0  0  0
 18 20  1  0  0  0  0
 20 21  1  0  0  0  0
 22 23  2  0  0  0  0
 22 24  1  0  0  0  0
 24 25  1  0  0  0  0
 24 26  1  0  0  0  0
 26 27  1  0  0  0  0
 26 28  1  0  0  0  0
 26 29  1  0  0  0  0
M  END
$$$$

  -OEChem-04042215593D

 29 29  0     1  0  0  0  0  0999 V2000
   -2.4921   -4.4851    0.4382 H   0  0  0  0  0  0  0  0  0  0  0  0
   -2.6179   -3.5324   -0.0841 C   0  0  0  0  0  0  0  0  0  0  0  0
   -3.5040   -3.0295    0.3101 H   0  0  0  0  0  0  0  0  0  0  0  0
   -2.7623   -3.7324   -1.1485 H   0  0  0  0  0  0  0  0  0  0  0  0
   -1.3923   -2.6613    0.1187 C   0  0  0  0  0  0  0  0  0  0  0  0
   -0.4721   -3.0667    0.8043 O   0  0  0  0  0  0  0  0  0  0  0  0
   -1.3480   -1.4082   -0.4602 N   0  0  0  0  0  0  0  0  0  0  0  0
   -2.0813   -1.2216   -1.1365 H   0  0  0  0  0  0  0  0  0  0  0  0
   -0.1158   -0.6040   -0.5801 C   0  0  1  0  0  0  0  0  0  0  0  0
    0.6232   -1.1611   -1.1684 H   0  0  0  0  0  0  0  0  0  0  0  0
   -0.4664    0.7077   -1.3026 C   0  0  0  0  0  0  0  0  0  0  0  0
   -1.3519    1.1658   -0.8526 H   0  0  0  0  0  0  0  0  0  0  0  0
    0.3640    1.4129   -1.1929 H   0  0  0  0  0  0  0  0  0  0  0  0
   -0.6746    0.4821   -2.7713 C   0  0  0  0  0  0  0  0  0  0  0  0
    0.2864   -0.0255   -3.6328 N   0  0  0  0  0  0  0  0  0  0  0  0
   -0.2521   -0.0493   -4.8276 C   0  0  0  0  0  0  0  0  0  0  0  0
    0.2495   -0.3920   -5.7284 H   0  0  0  0  0  0  0  0  0  0  0  0
   -1.5486    0.4274   -4.7668 N   0  0  0  0  0  0  0  0  0  0  0  0
   -2.1717    0.5325   -5.5658 H   0  0  0  0  0  0  0  0  0  0  0  0
   -1.8202    0.7731   -3.4592 C   0  0  0  0  0  0  0  0  0  0  0  0
   -2.7318    1.2019   -3.0543 H   0  0  0  0  0  0  0  0  0  0  0  0
    0.5527   -0.2605    0.7720 C   0  0  0  0  0  0  0  0  0  0  0  0
    1.7683   -0.1310    0.8396 O   0  0  0  0  0  0  0  0  0  0  0  0
   -0.2256    0.1782    1.8295 N   0  0  0  0  0  0  0  0  0  0  0  0
   -1.2096   -0.0637    1.7794 H   0  0  0  0  0  0  0  0  0  0  0  0
    0.3392    0.5278    3.1267 C   0  0  0  0  0  0  0  0  0  0  0  0
    1.0467    1.3576    3.0261 H   0  0  0  0  0  0  0  0  0  0  0  0
   -0.4542    0.8346    3.8147 H   0  0  0  0  0  0  0  0  0  0  0  0
    0.8624   -0.3316    3.5593 H   0  0  0  0  0  0  0  0  0  0  0  0
  1  2  1  0  0  0  0
  2  3  1  0  0  0  0
  2  4  1  0  0  0  0
  2  5  1  0  0  0  0
  5  6  2  0  0  0  0
  5  7  1  0  0  0  0
  7  8  1  0  0  0  0
  7  9  1  0  0  0  0
  9 10  1  0  0  0  0
  9 11  1  0  0  0  0
  9 22  1  0  0  0  0
 11 12  1  0  0  0  0
 11 13  1  0  0  0  0
 11 14  1  0  0  0  0
 14 15  1  0  0  0  0
 14 20  2  0  0  0  0
 15 16  2  0  0  0  0
 16 17  1  0  0  0  0
 16 18  1  0  0  0  0
 18 19  1  0  0  0  0
 18 20  1  0  0  0  0
 20 21  1  0  0  0  0
 22 23  2  0  0  0  0
 22 24  1  0  0  0  0
 24 25  1  0  0  0  0
 24 26  1  0  0  0  0
 26 27  1  0  0  0  0
 26 28  1  0  0  0  0
 26 29  1  0  0  0  0
M  END
$$$$

  -OEChem-04042215593D

 29 29  0     1  0  0  0  0  0999 V2000
   -2.4917   -4.4878    0.4242 H   0  0  0  0  0  0  0  0  0  0  0  0
   -2.6155   -3.5342   -0.0971 C   0  0  0  0  0  0  0  0  0  0  0  0
   -3.5132   -3.0400    0.2820 H   0  0  0  0  0  0  0  0  0  0  0  0
   -2.7379   -3.7320   -1.1648 H   0  0  0  0  0  0  0  0  0  0  0  0
   -1.4015   -2.6535    0.1314 C   0  0  0  0  0  0  0  0  0  0  0  0
   -0.4994   -3.0468    0.8479 O   0  0  0  0  0  0  0  0  0  0  0  0
   -1.3500   -1.4047   -0.4554 N   0  0  0  0  0  0  0  0  0  0  0  0
   -2.0638   -1.2349   -1.1567 H   0  0  0  0  0  0  0  0  0  0  0  0
   -0.1124   -0.6098   -0.5771 C   0  0  1  0  0  0  0  0  0  0  0  0
    0.6247   -1.1745   -1.1599 H   0  0  0  0  0  0  0  0  0  0  0  0
   -0.4570    0.7033   -1.3020 C   0  0  0  0  0  0  0  0  0  0  0  0
   -1.3332    1.1737   -0.8469 H   0  0  0  0  0  0  0  0  0  0  0  0
    0.3844    1.3958   -1.1946 H   0  0  0  0  0  0  0  0  0  0  0  0
   -0.6728    0.4944   -2.7734 C   0  0  0  0  0  0  0  0  0  0  0  0
    0.1398   -0.2695   -3.5994 N   0  0  0  0  0  0  0  0  0  0  0  0
   -0.3677   -0.1935   -4.8055 C   0  0  0  0  0  0  0  0  0  0  0  0
    0.0452   -0.6794   -5.6850 H   0  0  0  0  0  0  0  0  0  0  0  0
   -1.5039    0.5936   -4.7866 N   0  0  0  0  0  0  0  0  0  0  0  0
   -2.0714    0.8242   -5.6004 H   0  0  0  0  0  0  0  0  0  0  0  0
   -1.7011    1.0346   -3.4947 C   0  0  0  0  0  0  0  0  0  0  0  0
   -2.4866    1.6841   -3.1199 H   0  0  0  0  0  0  0  0  0  0  0  0
    0.5548   -0.2629    0.7745 C   0  0  0  0  0  0  0  0  0  0  0  0
    1.7702   -0.1294    0.8418 O   0  0  0  0  0  0  0  0  0  0  0  0
   -0.2262    0.1867    1.8253 N   0  0  0  0  0  0  0  0  0  0  0  0
   -1.2077   -0.0656    1.7756 H   0  0  0  0  0  0  0  0  0  0  0  0
    0.3347    0.5353    3.1243 C   0  0  0  0  0  0  0  0  0  0  0  0
    1.0479    1.3604    3.0260 H   0  0  0  0  0  0  0  0  0  0  0  0
   -0.4605    0.8479    3.8075 H   0  0  0  0  0  0  0  0  0  0  0  0
    0.8503   -0.3265    3.5612 H   0  0  0  0  0  0  0  0  0  0  0  0
  1  2  1  0  0  0  0
  2  3  1  0  0  0  0
  2  4  1  0  0  0  0
  2  5  1  0  0  0  0
  5  6  2  0  0  0  0
  5  7  1  0  0  0  0
  7  8  1  0  0  0  0
  7  9  1  0  0  0  0
  9 10  1  0  0  0  0
  9 11  1  0  0  0  0
  9 22  1  0  0  0  0
 11 12  1  0  0  0  0
 11 13  1  0  0  0  0
 11 14  1  0  0  0  0
 14 15  1  0  0  0  0
 14 20  2  0  0  0  0
 15 16  2  0  0  0  0
 16 17  1  0  0  0  0
 16 18  1  0  0  0  0
 18 19  1  0  0  0  0
 18 20  1  0  0  0  0
 20 21  1  0  0  0  0
 22 23  2  0  0  0  0
 22 24  1  0  0  0  0
 24 25  1  0  0  0  0
 24 26  1  0  0  0  0
 26 27  1  0  0  0  0
 26 28  1  0  0  0  0
 26 29  1  0  0  0  0
M  END
$$$$

  -OEChem-04042215593D

 29 29  0     1  0  0  0  0  0999 V2000
   -2.4815   -4.5042    0.3908 H   0  0  0  0  0  0  0  0  0  0  0  0
   -2.6121   -3.5438   -0.1160 C   0  0  0  0  0  0  0  0  0  0  0  0
   -3.5235   -3.0700    0.2559 H   0  0  0  0  0  0  0  0  0  0  0  0
   -2.7131   -3.7248   -1.1889 H   0  0  0  0  0  0  0  0  0  0  0  0
   -1.4162   -2.6485    0.1473 C   0  0  0  0  0  0  0  0  0  0  0  0
   -0.5338   -3.0282    0.8953 O   0  0  0  0  0  0  0  0  0  0  0  0
   -1.3586   -1.4039   -0.4477 N   0  0  0  0  0  0  0  0  0  0  0  0
   -2.0486   -1.2565   -1.1779 H   0  0  0  0  0  0  0  0  0  0  0  0
   -0.1148   -0.6194   -0.5708 C   0  0  1  0  0  0  0  0  0  0  0  0
    0.6198   -1.1926   -1.1485 H   0  0  0  0  0  0  0  0  0  0  0  0
   -0.4496    0.6948   -1.2999 C   0  0  0  0  0  0  0  0  0  0  0  0
   -1.3200    1.1753   -0.8437 H   0  0  0  0  0  0  0  0  0  0  0  0
    0.3995    1.3775   -1.1917 H   0  0  0  0  0  0  0  0  0  0  0  0
   -0.6703    0.4988   -2.7734 C   0  0  0  0  0  0  0  0  0  0  0  0
   -0.0705   -0.4757   -3.5605 N   0  0  0  0  0  0  0  0  0  0  0  0
   -0.5193   -0.3074   -4.7807 C   0  0  0  0  0  0  0  0  0  0  0  0
   -0.2306   -0.9096   -5.6378 H   0  0  0  0  0  0  0  0  0  0  0  0
   -1.4146    0.7450   -4.8089 N   0  0  0  0  0  0  0  0  0  0  0  0
   -1.8892    1.0892   -5.6418 H   0  0  0  0  0  0  0  0  0  0  0  0
   -1.5146    1.2597   -3.5332 C   0  0  0  0  0  0  0  0  0  0  0  0
   -2.1159    2.0977   -3.1925 H   0  0  0  0  0  0  0  0  0  0  0  0
    0.5531   -0.2689    0.7797 C   0  0  0  0  0  0  0  0  0  0  0  0
    1.7690   -0.1362    0.8435 O   0  0  0  0  0  0  0  0  0  0  0  0
   -0.2256    0.1935    1.8266 N   0  0  0  0  0  0  0  0  0  0  0  0
   -1.2076   -0.0585    1.7805 H   0  0  0  0  0  0  0  0  0  0  0  0
    0.3372    0.5551    3.1211 C   0  0  0  0  0  0  0  0  0  0  0  0
    1.0521    1.3773    3.0123 H   0  0  0  0  0  0  0  0  0  0  0  0
   -0.4567    0.8773    3.8013 H   0  0  0  0  0  0  0  0  0  0  0  0
    0.8517   -0.3024    3.5671 H   0  0  0  0  0  0  0  0  0  0  0  0
  1  2  1  0  0  0  0
  2  3  1  0  0  0  0
  2  4  1  0  0  0  0
  2  5  1  0  0  0  0
  5  6  2  0  0  0  0
  5  7  1  0  0  0  0
  7  8  1  0  0  0  0
  7  9  1  0  0  0  0
  9 10  1  0  0  0  0
  9 11  1  0  0  0  0
  9 22  1  0  0  0  0
 11 12  1  0  0  0  0
 11 13  1  0  0  0  0
 11 14  1  0  0  0  0
 14 15  1  0  0  0  0
 14 20  2  0  0  0  0
 15 16  2  0  0  0  0
 16 17  1  0  0  0  0
 16 18  1  0  0  0  0
 18 19  1  0  0  0  0
 18 20  1  0  0  0  0
 20 21  1  0  0  0  0
 22 23  2  0  0  0  0
 22 24  1  0  0  0  0
 24 25  1  0  0  0  0
 24 26  1  0  0  0  0
 26 27  1  0  0  0  0
 26 28  1  0  0  0  0
 26 29  1  0  0  0  0
M  END
$$$$

  -OEChem-04042215593D

 29 29  0     1  0  0  0  0  0999 V2000
   -2.4945   -4.4955    0.4128 H   0  0  0  0  0  0  0  0  0  0  0  0
   -2.6127   -3.5449   -0.1153 C   0  0  0  0  0  0  0  0  0  0  0  0
   -3.5297   -3.0616    0.2301 H   0  0  0  0  0  0  0  0  0  0  0  0
   -2.6943   -3.7463   -1.1862 H   0  0  0  0  0  0  0  0  0  0  0  0
   -1.4197   -2.6469    0.1535 C   0  0  0  0  0  0  0  0  0  0  0  0
   -0.5460   -3.0188    0.9159 O   0  0  0  0  0  0  0  0  0  0  0  0
   -1.3605   -1.4044   -0.4453 N   0  0  0  0  0  0  0  0  0  0  0  0
   -2.0322   -1.2740   -1.1961 H   0  0  0  0  0  0  0  0  0  0  0  0
   -0.1159   -0.6228   -0.5697 C   0  0  1  0  0  0  0  0  0  0  0  0
    0.6176   -1.1970   -1.1474 H   0  0  0  0  0  0  0  0  0  0  0  0
   -0.4524    0.6907   -1.2999 C   0  0  0  0  0  0  0  0  0  0  0  0
   -1.3252    1.1669   -0.8440 H   0  0  0  0  0  0  0  0  0  0  0  0
    0.3938    1.3766   -1.1896 H   0  0  0  0  0  0  0  0  0  0  0  0
   -0.6775    0.5023   -2.7743 C   0  0  0  0  0  0  0  0  0  0  0  0
   -0.3287   -0.6194   -3.5172 N   0  0  0  0  0  0  0  0  0  0  0  0
   -0.6857   -0.3786   -4.7557 C   0  0  0  0  0  0  0  0  0  0  0  0
   -0.5375   -1.0602   -5.5886 H   0  0  0  0  0  0  0  0  0  0  0  0
   -1.2820    0.8653   -4.8385 N   0  0  0  0  0  0  0  0  0  0  0  0
   -1.6352    1.2916   -5.6936 H   0  0  0  0  0  0  0  0  0  0  0  0
   -1.2806    1.4278   -3.5793 C   0  0  0  0  0  0  0  0  0  0  0  0
   -1.6585    2.4005   -3.2777 H   0  0  0  0  0  0  0  0  0  0  0  0
    0.5531   -0.2686    0.7788 C   0  0  0  0  0  0  0  0  0  0  0  0
    1.7692   -0.1338    0.8388 O   0  0  0  0  0  0  0  0  0  0  0  0
   -0.2238    0.1987    1.8247 N   0  0  0  0  0  0  0  0  0  0  0  0
   -1.2051   -0.0570    1.7814 H   0  0  0  0  0  0  0  0  0  0  0  0
    0.3410    0.5601    3.1183 C   0  0  0  0  0  0  0  0  0  0  0  0
    1.0576    1.3808    3.0085 H   0  0  0  0  0  0  0  0  0  0  0  0
   -0.4517    0.8843    3.7991 H   0  0  0  0  0  0  0  0  0  0  0  0
    0.8537   -0.2988    3.5641 H   0  0  0  0  0  0  0  0  0  0  0  0
  1  2  1  0  0  0  0
  2  3  1  0  0  0  0
  2  4  1  0  0  0  0
  2  5  1  0  0  0  0
  5  6  2  0  0  0  0
  5  7  1  0  0  0  0
  7  8  1  0  0  0  0
  7  9  1  0  0  0  0
  9 10  1  0  0  0  0
  9 11  1  0  0  0  0
  9 22  1  0  0  0  0
 11 12  1  0  0  0  0
 11 13  1  0  0  0  0
 11 14  1  0  0  0  0
 14 15  1  0  0  0  0
 14 20  2  0  0  0  0
 15 16  2  0  0  0  0
 16 17  1  0  0  0  0
 16 18  1  0  0  0  0
 18 19  1  0  0  0  0
 18 20  1  0  0  0  0
 20 21  1  0  0  0  0
 22 23  2  0  0  0  0
 22 24  1  0  0  0  0
 24 25  1  0  0  0  0
 24 26  1  0  0  0  0
 26 27  1  0  0  0  0
 26 28  1  0  0  0  0
 26 29  1  0  0  0  0
M  END
$$$$

  -OEChem-04042215593D

 29 29  0     1  0  0  0  0  0999 V2000
   -2.4862   -4.5021    0.3961 H   0  0  0  0  0  0  0  0  0  0  0  0
   -2.6080   -3.5520   -0.1315 C   0  0  0  0  0  0  0  0  0  0  0  0
   -3.5373   -3.0819    0.1986 H   0  0  0  0  0  0  0  0  0  0  0  0
   -2.6679   -3.7513   -1.2042 H   0  0  0  0  0  0  0  0  0  0  0  0
   -1.4322   -2.6385    0.1595 C   0  0  0  0  0  0  0  0  0  0  0  0
   -0.5648   -3.0017    0.9336 O   0  0  0  0  0  0  0  0  0  0  0  0
   -1.3792   -1.3943   -0.4357 N   0  0  0  0  0  0  0  0  0  0  0  0
   -2.0347   -1.2804   -1.2047 H   0  0  0  0  0  0  0  0  0  0  0  0
   -0.1345   -0.6151   -0.5670 C   0  0  1  0  0  0  0  0  0  0  0  0
    0.5918   -1.1882   -1.1550 H   0  0  0  0  0  0  0  0  0  0  0  0
   -0.4727    0.7010   -1.2914 C   0  0  0  0  0  0  0  0  0  0  0  0
   -1.3506    1.1656   -0.8333 H   0  0  0  0  0  0  0  0  0  0  0  0
    0.3662    1.3954   -1.1774 H   0  0  0  0  0  0  0  0  0  0  0  0
   -0.7085    0.5138   -2.7646 C   0  0  0  0  0  0  0  0  0  0  0  0
   -0.6442   -0.6935   -3.4524 N   0  0  0  0  0  0  0  0  0  0  0  0
   -0.8744   -0.4198   -4.7143 C   0  0  0  0  0  0  0  0  0  0  0  0
   -0.8844   -1.1521   -5.5167 H   0  0  0  0  0  0  0  0  0  0  0  0
   -1.1054    0.9339   -4.8674 N   0  0  0  0  0  0  0  0  0  0  0  0
   -1.2907    1.4018   -5.7530 H   0  0  0  0  0  0  0  0  0  0  0  0
   -0.9985    1.5317   -3.6293 C   0  0  0  0  0  0  0  0  0  0  0  0
   -1.1005    2.5840   -3.3803 H   0  0  0  0  0  0  0  0  0  0  0  0
    0.5487   -0.2657    0.7751 C   0  0  0  0  0  0  0  0  0  0  0  0
    1.7653   -0.1293    0.8199 O   0  0  0  0  0  0  0  0  0  0  0  0
   -0.2169    0.2004    1.8294 N   0  0  0  0  0  0  0  0  0  0  0  0
   -1.1971   -0.0617    1.7981 H   0  0  0  0  0  0  0  0  0  0  0  0
    0.3618    0.5630    3.1164 C   0  0  0  0  0  0  0  0  0  0  0  0
    1.0750    1.3855    2.9984 H   0  0  0  0  0  0  0  0  0  0  0  0
   -0.4242    0.8853    3.8058 H   0  0  0  0  0  0  0  0  0  0  0  0
    0.8819   -0.2941    3.5571 H   0  0  0  0  0  0  0  0  0  0  0  0
  1  2  1  0  0  0  0
  2  3  1  0  0  0  0
  2  4  1  0  0  0  0
  2  5  1  0  0  0  0
  5  6  2  0  0  0  0
  5  7  1  0  0  0  0
  7  8  1  0  0  0  0
  7  9  1  0  0  0  0
  9 10  1  0  0  0  0
  9 11  1  0  0  0  0
  9 22  1  0  0  0  0
 11 12  1  0  0  0  0
 11 13  1  0  0  0  0
 11 14  1  0  0  0  0
 14 15  1  0  0  0  0
 14 20  2  0  0  0  0
 15 16  2  0  0  0  0
 16 17  1  0  0  0  0
 16 18  1  0  0  0  0
 18 19  1  0  0  0  0
 18 20  1  0  0  0  0
 20 21  1  0  0  0  0
 22 23  2  0  0  0  0
 22 24  1  0  0  0  0
 24 25  1  0  0  0  0
 24 26  1  0  0  0  0
 26 27  1  0  0  0  0
 26 28  1  0  0  0  0
 26 29  1  0  0  0  0
M  END
$$$$

  -OEChem-04042215593D

 29 29  0     1  0  0  0  0  0999 V2000
   -2.4774   -4.4999    0.3682 H   0  0  0  0  0  0  0  0  0  0  0  0
   -2.6065   -3.5441   -0.1474 C   0  0  0  0  0  0  0  0  0  0  0  0
   -3.5358   -3.0819    0.1939 H   0  0  0  0  0  0  0  0  0  0  0  0
   -2.6726   -3.7308   -1.2221 H   0  0  0  0  0  0  0  0  0  0  0  0
   -1.4331   -2.6289    0.1474 C   0  0  0  0  0  0  0  0  0  0  0  0
   -0.5627   -2.9945    0.9174 O   0  0  0  0  0  0  0  0  0  0  0  0
   -1.3862   -1.3799   -0.4375 N   0  0  0  0  0  0  0  0  0  0  0  0
   -2.0334   -1.2703   -1.2159 H   0  0  0  0  0  0  0  0  0  0  0  0
   -0.1449   -0.5966   -0.5684 C   0  0  1  0  0  0  0  0  0  0  0  0
    0.5776   -1.1625   -1.1676 H   0  0  0  0  0  0  0  0  0  0  0  0
   -0.4911    0.7229   -1.2828 C   0  0  0  0  0  0  0  0  0  0  0  0
   -1.3775    1.1688   -0.8228 H   0  0  0  0  0  0  0  0  0  0  0  0
    0.3361    1.4299   -1.1613 H   0  0  0  0  0  0  0  0  0  0  0  0
   -0.7313    0.5383   -2.7558 C   0  0  0  0  0  0  0  0  0  0  0  0
   -0.9546   -0.6802   -3.3910 N   0  0  0  0  0  0  0  0  0  0  0  0
   -1.0572   -0.4195   -4.6729 C   0  0  0  0  0  0  0  0  0  0  0  0
   -1.2273   -1.1632   -5.4465 H   0  0  0  0  0  0  0  0  0  0  0  0
   -0.9192    0.9379   -4.8910 N   0  0  0  0  0  0  0  0  0  0  0  0
   -0.9424    1.3922   -5.8024 H   0  0  0  0  0  0  0  0  0  0  0  0
   -0.7050    1.5499   -3.6741 C   0  0  0  0  0  0  0  0  0  0  0  0
   -0.5310    2.6030   -3.4726 H   0  0  0  0  0  0  0  0  0  0  0  0
    0.5463   -0.2551    0.7715 C   0  0  0  0  0  0  0  0  0  0  0  0
    1.7630   -0.1163    0.8068 O   0  0  0  0  0  0  0  0  0  0  0  0
   -0.2115    0.2013    1.8357 N   0  0  0  0  0  0  0  0  0  0  0  0
   -1.1922   -0.0603    1.8088 H   0  0  0  0  0  0  0  0  0  0  0  0
    0.3763    0.5498    3.1228 C   0  0  0  0  0  0  0  0  0  0  0  0
    1.0916    1.3710    3.0090 H   0  0  0  0  0  0  0  0  0  0  0  0
   -0.4039    0.8683    3.8206 H   0  0  0  0  0  0  0  0  0  0  0  0
    0.8957   -0.3140    3.5512 H   0  0  0  0  0  0  0  0  0  0  0  0
  1  2  1  0  0  0  0
  2  3  1  0  0  0  0
  2  4  1  0  0  0  0
  2  5  1  0  0  0  0
  5  6  2  0  0  0  0
  5  7  1  0  0  0  0
  7  8  1  0  0  0  0
  7  9  1  0  0  0  0
  9 10  1  0  0  0  0
  9 11  1  0  0  0  0
  9 22  1  0  0  0  0
 11 12  1  0  0  0  0
 11 13  1  0  0  0  0
 11 14  1  0  0  0  0
 14 15  1  0  0  0  0
 14 20  2  0  0  0  0
 15 16  2  0  0  0  0
 16 17  1  0  0  0  0
 16 18  1  0  0  0  0
 18 19  1  0  0  0  0
 18 20  1  0  0  0  0
 20 21  1  0  0  0  0
 22 23  2  0  0  0  0
 22 24  1  0  0  0  0
 24 25  1  0  0  0  0
 24 26  1  0  0  0  0
 26 27  1  0  0  0  0
 26 28  1  0  0  0  0
 26 29  1  0  0  0  0
M  END
$$$$

  -OEChem-04042215593D

 29 29  0     1  0  0  0  0  0999 V2000
   -2.4668   -4.4996    0.2989 H   0  0  0  0  0  0  0  0  0  0  0  0
   -2.6068   -3.5290   -0.1852 C   0  0  0  0  0  0  0  0  0  0  0  0
   -3.5348   -3.0831    0.1804 H   0  0  0  0  0  0  0  0  0  0  0  0
   -2.6836   -3.6828   -1.2644 H   0  0  0  0  0  0  0  0  0  0  0  0
   -1.4353   -2.6163    0.1250 C   0  0  0  0  0  0  0  0  0  0  0  0
   -0.5612   -2.9929    0.8856 O   0  0  0  0  0  0  0  0  0  0  0  0
   -1.3879   -1.3603   -0.4440 N   0  0  0  0  0  0  0  0  0  0  0  0
   -2.0334   -1.2397   -1.2240 H   0  0  0  0  0  0  0  0  0  0  0  0
   -0.1482   -0.5739   -0.5659 C   0  0  1  0  0  0  0  0  0  0  0  0
    0.5729   -1.1339   -1.1724 H   0  0  0  0  0  0  0  0  0  0  0  0
   -0.4963    0.7496   -1.2710 C   0  0  0  0  0  0  0  0  0  0  0  0
   -1.3901    1.1852   -0.8150 H   0  0  0  0  0  0  0  0  0  0  0  0
    0.3240    1.4628   -1.1392 H   0  0  0  0  0  0  0  0  0  0  0  0
   -0.7301    0.5630   -2.7442 C   0  0  0  0  0  0  0  0  0  0  0  0
   -1.2330   -0.5960   -3.3314 N   0  0  0  0  0  0  0  0  0  0  0  0
   -1.2302   -0.3854   -4.6270 C   0  0  0  0  0  0  0  0  0  0  0  0
   -1.5597   -1.1024   -5.3738 H   0  0  0  0  0  0  0  0  0  0  0  0
   -0.7472    0.8803   -4.9000 N   0  0  0  0  0  0  0  0  0  0  0  0
   -0.6296    1.2767   -5.8311 H   0  0  0  0  0  0  0  0  0  0  0  0
   -0.4205    1.4841   -3.7044 C   0  0  0  0  0  0  0  0  0  0  0  0
    0.0090    2.4688   -3.5427 H   0  0  0  0  0  0  0  0  0  0  0  0
    0.5471   -0.2450    0.7745 C   0  0  0  0  0  0  0  0  0  0  0  0
    1.7638   -0.1040    0.8041 O   0  0  0  0  0  0  0  0  0  0  0  0
   -0.2063    0.1994    1.8467 N   0  0  0  0  0  0  0  0  0  0  0  0
   -1.1880   -0.0595    1.8213 H   0  0  0  0  0  0  0  0  0  0  0  0
    0.3873    0.5392    3.1334 C   0  0  0  0  0  0  0  0  0  0  0  0
    1.1047    1.3588    3.0212 H   0  0  0  0  0  0  0  0  0  0  0  0
   -0.3893    0.8557    3.8360 H   0  0  0  0  0  0  0  0  0  0  0  0
    0.9062   -0.3279    3.5553 H   0  0  0  0  0  0  0  0  0  0  0  0
  1  2  1  0  0  0  0
  2  3  1  0  0  0  0
  2  4  1  0  0  0  0
  2  5  1  0  0  0  0
  5  6  2  0  0  0  0
  5  7  1  0  0  0  0
  7  8  1  0  0  0  0
  7  9  1  0  0  0  0
  9 10  1  0  0  0  0
  9 11  1  0  0  0  0
  9 22  1  0  0  0  0
 11 12  1  0  0  0  0
 11 13  1  0  0  0  0
 11 14  1  0  0  0  0
 14 15  1  0  0  0  0
 14 20  2  0  0  0  0
 15 16  2  0  0  0  0
 16 17  1  0  0  0  0
 16 18  1  0  0  0  0
 18 19  1  0  0  0  0
 18 20  1  0  0  0  0
 20 21  1  0  0  0  0
 22 23  2  0  0  0  0
 22 24  1  0  0  0  0
 24 25  1  0  0  0  0
 24 26  1  0  0  0  0
 26 27  1  0  0  0  0
 26 28  1  0  0  0  0
 26 29  1  0  0  0  0
M  END
$$$$

  -OEChem-04042215593D

 29 29  0     1  0  0  0  0  0999 V2000
   -2.4629   -4.4860    0.2420 H   0  0  0  0  0  0  0  0  0  0  0  0
   -2.6063   -3.5034   -0.2161 C   0  0  0  0  0  0  0  0  0  0  0  0
   -3.5251   -3.0615    0.1764 H   0  0  0  0  0  0  0  0  0  0  0  0
   -2.7038   -3.6305   -1.2970 H   0  0  0  0  0  0  0  0  0  0  0  0
   -1.4245   -2.6043    0.0943 C   0  0  0  0  0  0  0  0  0  0  0  0
   -0.5437   -2.9986    0.8382 O   0  0  0  0  0  0  0  0  0  0  0  0
   -1.3697   -1.3427   -0.4609 N   0  0  0  0  0  0  0  0  0  0  0  0
   -2.0208   -1.2003   -1.2342 H   0  0  0  0  0  0  0  0  0  0  0  0
   -0.1310   -0.5536   -0.5663 C   0  0  1  0  0  0  0  0  0  0  0  0
    0.5947   -1.1068   -1.1733 H   0  0  0  0  0  0  0  0  0  0  0  0
   -0.4816    0.7721   -1.2639 C   0  0  0  0  0  0  0  0  0  0  0  0
   -1.3814    1.2026   -0.8148 H   0  0  0  0  0  0  0  0  0  0  0  0
    0.3343    1.4885   -1.1231 H   0  0  0  0  0  0  0  0  0  0  0  0
   -0.7012    0.5776   -2.7371 C   0  0  0  0  0  0  0  0  0  0  0  0
   -1.4572   -0.4571   -3.2844 N   0  0  0  0  0  0  0  0  0  0  0  0
   -1.3837   -0.3155   -4.5877 C   0  0  0  0  0  0  0  0  0  0  0  0
   -1.8648   -0.9682   -5.3109 H   0  0  0  0  0  0  0  0  0  0  0  0
   -0.6061    0.7828   -4.9030 N   0  0  0  0  0  0  0  0  0  0  0  0
   -0.3866    1.0964   -5.8471 H   0  0  0  0  0  0  0  0  0  0  0  0
   -0.1648    1.3512   -3.7270 C   0  0  0  0  0  0  0  0  0  0  0  0
    0.4810    2.2152   -3.5972 H   0  0  0  0  0  0  0  0  0  0  0  0
    0.5542   -0.2366    0.7819 C   0  0  0  0  0  0  0  0  0  0  0  0
    1.7712   -0.1013    0.8218 O   0  0  0  0  0  0  0  0  0  0  0  0
   -0.2064    0.1965    1.8535 N   0  0  0  0  0  0  0  0  0  0  0  0
   -1.1901   -0.0523    1.8147 H   0  0  0  0  0  0  0  0  0  0  0  0
    0.3769    0.5207    3.1488 C   0  0  0  0  0  0  0  0  0  0  0  0
    1.1051    1.3325    3.0502 H   0  0  0  0  0  0  0  0  0  0  0  0
   -0.4038    0.8421    3.8446 H   0  0  0  0  0  0  0  0  0  0  0  0
    0.8807   -0.3555    3.5704 H   0  0  0  0  0  0  0  0  0  0  0  0
  1  2  1  0  0  0  0
  2  3  1  0  0  0  0
  2  4  1  0  0  0  0
  2  5  1  0  0  0  0
  5  6  2  0  0  0  0
  5  7  1  0  0  0  0
  7  8  1  0  0  0  0
  7  9  1  0  0  0  0
  9 10  1  0  0  0  0
  9 11  1  0  0  0  0
  9 22  1  0  0  0  0
 11 12  1  0  0  0  0
 11 13  1  0  0  0  0
 11 14  1  0  0  0  0
 14 15  1  0  0  0  0
 14 20  2  0  0  0  0
 15 16  2  0  0  0  0
 16 17  1  0  0  0  0
 16 18  1  0  0  0  0
 18 19  1  0  0  0  0
 18 20  1  0  0  0  0
 20 21  1  0  0  0  0
 22 23  2  0  0  0  0
 22 24  1  0  0  0  0
 24 25  1  0  0  0  0
 24 26  1  0  0  0  0
 26 27  1  0  0  0  0
 26 28  1  0  0  0  0
 26 29  1  0  0  0  0
M  END
$$$$

  -OEChem-04042215593D

 29 29  0     1  0  0  0  0  0999 V2000
   -2.4710   -4.4699    0.2046 H   0  0  0  0  0  0  0  0  0  0  0  0
   -2.6108   -3.4794   -0.2377 C   0  0  0  0  0  0  0  0  0  0  0  0
   -3.5153   -3.0306    0.1796 H   0  0  0  0  0  0  0  0  0  0  0  0
   -2.7321   -3.5910   -1.3181 H   0  0  0  0  0  0  0  0  0  0  0  0
   -1.4115   -2.5996    0.0603 C   0  0  0  0  0  0  0  0  0  0  0  0
   -0.5184   -3.0157    0.7771 O   0  0  0  0  0  0  0  0  0  0  0  0
   -1.3502   -1.3323   -0.4805 N   0  0  0  0  0  0  0  0  0  0  0  0
   -2.0181   -1.1593   -1.2337 H   0  0  0  0  0  0  0  0  0  0  0  0
   -0.1131   -0.5392   -0.5664 C   0  0  1  0  0  0  0  0  0  0  0  0
    0.6197   -1.0856   -1.1709 H   0  0  0  0  0  0  0  0  0  0  0  0
   -0.4673    0.7859   -1.2593 C   0  0  0  0  0  0  0  0  0  0  0  0
   -1.3722    1.2177   -0.8213 H   0  0  0  0  0  0  0  0  0  0  0  0
    0.3469    1.5034   -1.1146 H   0  0  0  0  0  0  0  0  0  0  0  0
   -0.6662    0.5740   -2.7307 C   0  0  0  0  0  0  0  0  0  0  0  0
   -1.6328   -0.2789   -3.2581 N   0  0  0  0  0  0  0  0  0  0  0  0
   -1.5013   -0.2140   -4.5632 C   0  0  0  0  0  0  0  0  0  0  0  0
   -2.1084   -0.7651   -5.2758 H   0  0  0  0  0  0  0  0  0  0  0  0
   -0.4804    0.6566   -4.8966 N   0  0  0  0  0  0  0  0  0  0  0  0
   -0.1765    0.8717   -5.8450 H   0  0  0  0  0  0  0  0  0  0  0  0
    0.0546    1.1616   -3.7307 C   0  0  0  0  0  0  0  0  0  0  0  0
    0.8751    1.8641   -3.6132 H   0  0  0  0  0  0  0  0  0  0  0  0
    0.5606   -0.2320    0.7891 C   0  0  0  0  0  0  0  0  0  0  0  0
    1.7769   -0.0933    0.8377 O   0  0  0  0  0  0  0  0  0  0  0  0
   -0.2085    0.1897    1.8590 N   0  0  0  0  0  0  0  0  0  0  0  0
   -1.1942   -0.0494    1.8089 H   0  0  0  0  0  0  0  0  0  0  0  0
    0.3649    0.5092    3.1598 C   0  0  0  0  0  0  0  0  0  0  0  0
    1.0949    1.3204    3.0687 H   0  0  0  0  0  0  0  0  0  0  0  0
   -0.4203    0.8297    3.8509 H   0  0  0  0  0  0  0  0  0  0  0  0
    0.8642   -0.3691    3.5824 H   0  0  0  0  0  0  0  0  0  0  0  0
  1  2  1  0  0  0  0
  2  3  1  0  0  0  0
  2  4  1  0  0  0  0
  2  5  1  0  0  0  0
  5  6  2  0  0  0  0
  5  7  1  0  0  0  0
  7  8  1  0  0  0  0
  7  9  1  0  0  0  0
  9 10  1  0  0  0  0
  9 11  1  0  0  0  0
  9 22  1  0  0  0  0
 11 12  1  0  0  0  0
 11 13  1  0  0  0  0
 11 14  1  0  0  0  0
 14 15  1  0  0  0  0
 14 20  2  0  0  0  0
 15 16  2  0  0  0  0
 16 17  1  0  0  0  0
 16 18  1  0  0  0  0
 18 19  1  0  0  0  0
 18 20  1  0  0  0  0
 20 21  1  0  0  0  0
 22 23  2  0  0  0  0
 22 24  1  0  0  0  0
 24 25  1  0  0  0  0
 24 26  1  0  0  0  0
 26 27  1  0  0  0  0
 26 28  1  0  0  0  0
 26 29  1  0  0  0  0
M  END
$$$$

  -OEChem-04042215593D

 29 29  0     1  0  0  0  0  0999 V2000
   -2.4962   -4.4422    0.2174 H   0  0  0  0  0  0  0  0  0  0  0  0
   -2.6163   -3.4565   -0.2412 C   0  0  0  0  0  0  0  0  0  0  0  0
   -3.5094   -2.9814    0.1716 H   0  0  0  0  0  0  0  0  0  0  0  0
   -2.7443   -3.5838   -1.3190 H   0  0  0  0  0  0  0  0  0  0  0  0
   -1.3969   -2.5984    0.0375 C   0  0  0  0  0  0  0  0  0  0  0  0
   -0.4987   -3.0312    0.7374 O   0  0  0  0  0  0  0  0  0  0  0  0
   -1.3213   -1.3301   -0.4990 N   0  0  0  0  0  0  0  0  0  0  0  0
   -2.0105   -1.1241   -1.2242 H   0  0  0  0  0  0  0  0  0  0  0  0
   -0.0826   -0.5371   -0.5694 C   0  0  1  0  0  0  0  0  0  0  0  0
    0.6588   -1.0792   -1.1673 H   0  0  0  0  0  0  0  0  0  0  0  0
   -0.4443    0.7841   -1.2615 C   0  0  0  0  0  0  0  0  0  0  0  0
   -1.3518    1.2177   -0.8309 H   0  0  0  0  0  0  0  0  0  0  0  0
    0.3683    1.5040   -1.1188 H   0  0  0  0  0  0  0  0  0  0  0  0
   -0.6281    0.5525   -2.7295 C   0  0  0  0  0  0  0  0  0  0  0  0
   -1.7562   -0.0700   -3.2552 N   0  0  0  0  0  0  0  0  0  0  0  0
   -1.5890   -0.0795   -4.5577 C   0  0  0  0  0  0  0  0  0  0  0  0
   -2.2941   -0.4980   -5.2704 H   0  0  0  0  0  0  0  0  0  0  0  0
   -0.3878    0.5204   -4.8889 N   0  0  0  0  0  0  0  0  0  0  0  0
   -0.0290    0.6359   -5.8354 H   0  0  0  0  0  0  0  0  0  0  0  0
    0.2260    0.9311   -3.7248 C   0  0  0  0  0  0  0  0  0  0  0  0
    1.1773    1.4424   -3.6049 H   0  0  0  0  0  0  0  0  0  0  0  0
    0.5734   -0.2338    0.7951 C   0  0  0  0  0  0  0  0  0  0  0  0
    1.7893   -0.0996    0.8621 O   0  0  0  0  0  0  0  0  0  0  0  0
   -0.2106    0.1854    1.8549 N   0  0  0  0  0  0  0  0  0  0  0  0
   -1.1974   -0.0437    1.7861 H   0  0  0  0  0  0  0  0  0  0  0  0
    0.3418    0.4995    3.1659 C   0  0  0  0  0  0  0  0  0  0  0  0
    1.0581    1.3245    3.0926 H   0  0  0  0  0  0  0  0  0  0  0  0
   -0.4577    0.7978    3.8506 H   0  0  0  0  0  0  0  0  0  0  0  0
    0.8513   -0.3745    3.5848 H   0  0  0  0  0  0  0  0  0  0  0  0
  1  2  1  0  0  0  0
  2  3  1  0  0  0  0
  2  4  1  0  0  0  0
  2  5  1  0  0  0  0
  5  6  2  0  0  0  0
  5  7  1  0  0  0  0
  7  8  1  0  0  0  0
  7  9  1  0  0  0  0
  9 10  1  0  0  0  0
  9 11  1  0  0  0  0
  9 22  1  0  0  0  0
 11 12  1  0  0  0  0
 11 13  1  0  0  0  0
 11 14  1  0  0  0  0
 14 15  1  0  0  0  0
 14 20  2  0  0  0  0
 15 16  2  0  0  0  0
 16 17  1  0  0  0  0
 16 18  1  0  0  0  0
 18 19  1  0  0  0  0
 18 20  1  0  0  0  0
 20 21  1  0  0  0  0
 22 23  2  0  0  0  0
 22 24  1  0  0  0  0
 24 25  1  0  0  0  0
 24 26  1  0  0  0  0
 26 27  1  0  0  0  0
 26 28  1  0  0  0  0
 26 29  1  0  0  0  0
M  END
$$$$

  -OEChem-04042215593D

 29 29  0     1  0  0  0  0  0999 V2000
   -2.4983   -4.4433    0.2219 H   0  0  0  0  0  0  0  0  0  0  0  0
   -2.6236   -3.4517   -0.2222 C   0  0  0  0  0  0  0  0  0  0  0  0
   -3.4967   -2.9718    0.2266 H   0  0  0  0  0  0  0  0  0  0  0  0
   -2.7906   -3.5664   -1.2960 H   0  0  0  0  0  0  0  0  0  0  0  0
   -1.3861   -2.6092    0.0225 C   0  0  0  0  0  0  0  0  0  0  0  0
   -0.4709   -3.0551    0.6912 O   0  0  0  0  0  0  0  0  0  0  0  0
   -1.3107   -1.3391   -0.5099 N   0  0  0  0  0  0  0  0  0  0  0  0
   -2.0287   -1.1036   -1.1958 H   0  0  0  0  0  0  0  0  0  0  0  0
   -0.0759   -0.5391   -0.5717 C   0  0  1  0  0  0  0  0  0  0  0  0
    0.6718   -1.0778   -1.1653 H   0  0  0  0  0  0  0  0  0  0  0  0
   -0.4457    0.7754   -1.2687 C   0  0  0  0  0  0  0  0  0  0  0  0
   -1.3567    1.2087   -0.8451 H   0  0  0  0  0  0  0  0  0  0  0  0
    0.3626    1.5001   -1.1283 H   0  0  0  0  0  0  0  0  0  0  0  0
   -0.6153    0.5300   -2.7347 C   0  0  0  0  0  0  0  0  0  0  0  0
   -1.8351    0.1752   -3.2987 N   0  0  0  0  0  0  0  0  0  0  0  0
   -1.6229    0.0872   -4.5917 C   0  0  0  0  0  0  0  0  0  0  0  0
   -2.3782   -0.1746   -5.3272 H   0  0  0  0  0  0  0  0  0  0  0  0
   -0.3014    0.3767   -4.8793 N   0  0  0  0  0  0  0  0  0  0  0  0
    0.1108    0.3825   -5.8109 H   0  0  0  0  0  0  0  0  0  0  0  0
    0.3438    0.6684   -3.6963 C   0  0  0  0  0  0  0  0  0  0  0  0
    1.3817    0.9517   -3.5420 H   0  0  0  0  0  0  0  0  0  0  0  0
    0.5735   -0.2333    0.7956 C   0  0  0  0  0  0  0  0  0  0  0  0
    1.7890   -0.0993    0.8659 O   0  0  0  0  0  0  0  0  0  0  0  0
   -0.2129    0.1809    1.8557 N   0  0  0  0  0  0  0  0  0  0  0  0
   -1.2014   -0.0392    1.7827 H   0  0  0  0  0  0  0  0  0  0  0  0
    0.3364    0.5001    3.1671 C   0  0  0  0  0  0  0  0  0  0  0  0
    1.0560    1.3222    3.0931 H   0  0  0  0  0  0  0  0  0  0  0  0
   -0.4639    0.8047    3.8479 H   0  0  0  0  0  0  0  0  0  0  0  0
    0.8415   -0.3735    3.5925 H   0  0  0  0  0  0  0  0  0  0  0  0
  1  2  1  0  0  0  0
  2  3  1  0  0  0  0
  2  4  1  0  0  0  0
  2  5  1  0  0  0  0
  5  6  2  0  0  0  0
  5  7  1  0  0  0  0
  7  8  1  0  0  0  0
  7  9  1  0  0  0  0
  9 10  1  0  0  0  0
  9 11  1  0  0  0  0
  9 22  1  0  0  0  0
 11 12  1  0  0  0  0
 11 13  1  0  0  0  0
 11 14  1  0  0  0  0
 14 15  1  0  0  0  0
 14 20  2  0  0  0  0
 15 16  2  0  0  0  0
 16 17  1  0  0  0  0
 16 18  1  0  0  0  0
 18 19  1  0  0  0  0
 18 20  1  0  0  0  0
 20 21  1  0  0  0  0
 22 23  2  0  0  0  0
 22 24  1  0  0  0  0
 24 25  1  0  0  0  0
 24 26  1  0  0  0  0
 26 27  1  0  0  0  0
 26 28  1  0  0  0  0
 26 29  1  0  0  0  0
M  END
$$$$

  -OEChem-04042215593D

 29 29  0     1  0  0  0  0  0999 V2000
   -2.5031   -4.4460    0.2705 H   0  0  0  0  0  0  0  0  0  0  0  0
   -2.6298   -3.4569   -0.1786 C   0  0  0  0  0  0  0  0  0  0  0  0
   -3.4827   -2.9626    0.2926 H   0  0  0  0  0  0  0  0  0  0  0  0
   -2.8315   -3.5787   -1.2456 H   0  0  0  0  0  0  0  0  0  0  0  0
   -1.3750   -2.6280    0.0205 C   0  0  0  0  0  0  0  0  0  0  0  0
   -0.4383   -3.0851    0.6504 O   0  0  0  0  0  0  0  0  0  0  0  0
   -1.3060   -1.3575   -0.5122 N   0  0  0  0  0  0  0  0  0  0  0  0
   -2.0568   -1.0975   -1.1504 H   0  0  0  0  0  0  0  0  0  0  0  0
   -0.0767   -0.5485   -0.5752 C   0  0  1  0  0  0  0  0  0  0  0  0
    0.6752   -1.0879   -1.1623 H   0  0  0  0  0  0  0  0  0  0  0  0
   -0.4477    0.7617   -1.2812 C   0  0  0  0  0  0  0  0  0  0  0  0
   -1.3614    1.1935   -0.8616 H   0  0  0  0  0  0  0  0  0  0  0  0
    0.3572    1.4905   -1.1410 H   0  0  0  0  0  0  0  0  0  0  0  0
   -0.6111    0.5199   -2.7489 C   0  0  0  0  0  0  0  0  0  0  0  0
   -1.8515    0.4629   -3.3703 N   0  0  0  0  0  0  0  0  0  0  0  0
   -1.6100    0.2891   -4.6492 C   0  0  0  0  0  0  0  0  0  0  0  0
   -2.3730    0.2039   -5.4180 H   0  0  0  0  0  0  0  0  0  0  0  0
   -0.2465    0.2313   -4.8726 N   0  0  0  0  0  0  0  0  0  0  0  0
    0.1966    0.1110   -5.7820 H   0  0  0  0  0  0  0  0  0  0  0  0
    0.3953    0.3878   -3.6627 C   0  0  0  0  0  0  0  0  0  0  0  0
    1.4629    0.4122   -3.4606 H   0  0  0  0  0  0  0  0  0  0  0  0
    0.5697   -0.2378    0.7923 C   0  0  0  0  0  0  0  0  0  0  0  0
    1.7848   -0.1015    0.8644 O   0  0  0  0  0  0  0  0  0  0  0  0
   -0.2190    0.1713    1.8527 N   0  0  0  0  0  0  0  0  0  0  0  0
   -1.2085   -0.0429    1.7786 H   0  0  0  0  0  0  0  0  0  0  0  0
    0.3297    0.5015    3.1615 C   0  0  0  0  0  0  0  0  0  0  0  0
    1.0406    1.3307    3.0810 H   0  0  0  0  0  0  0  0  0  0  0  0
   -0.4718    0.8009    3.8434 H   0  0  0  0  0  0  0  0  0  0  0  0
    0.8453   -0.3650    3.5889 H   0  0  0  0  0  0  0  0  0  0  0  0
  1  2  1  0  0  0  0
  2  3  1  0  0  0  0
  2  4  1  0  0  0  0
  2  5  1  0  0  0  0
  5  6  2  0  0  0  0
  5  7  1  0  0  0  0
  7  8  1  0  0  0  0
  7  9  1  0  0  0  0
  9 10  1  0  0  0  0
  9 11  1  0  0  0  0
  9 22  1  0  0  0  0
 11 12  1  0  0  0  0
 11 13  1  0  0  0  0
 11 14  1  0  0  0  0
 14 15  1  0  0  0  0
 14 20  2  0  0  0  0
 15 16  2  0  0  0  0
 16 17  1  0  0  0  0
 16 18  1  0  0  0  0
 18 19  1  0  0  0  0
 18 20  1  0  0  0  0
 20 21  1  0  0  0  0
 22 23  2  0  0  0  0
 22 24  1  0  0  0  0
 24 25  1  0  0  0  0
 24 26  1  0  0  0  0
 26 27  1  0  0  0  0
 26 28  1  0  0  0  0
 26 29  1  0  0  0  0
M  END
$$$$

  -OEChem-04042215593D

 29 29  0     1  0  0  0  0  0999 V2000
   -2.5018   -4.4504    0.3314 H   0  0  0  0  0  0  0  0  0  0  0  0
   -2.6295   -3.4681   -0.1320 C   0  0  0  0  0  0  0  0  0  0  0  0
   -3.4688   -2.9589    0.3476 H   0  0  0  0  0  0  0  0  0  0  0  0
   -2.8528   -3.6062   -1.1927 H   0  0  0  0  0  0  0  0  0  0  0  0
   -1.3642   -2.6471    0.0289 C   0  0  0  0  0  0  0  0  0  0  0  0
   -0.4129   -3.1089    0.6327 O   0  0  0  0  0  0  0  0  0  0  0  0
   -1.2994   -1.3792   -0.5114 N   0  0  0  0  0  0  0  0  0  0  0  0
   -2.0742   -1.1026   -1.1110 H   0  0  0  0  0  0  0  0  0  0  0  0
   -0.0735   -0.5647   -0.5779 C   0  0  1  0  0  0  0  0  0  0  0  0
    0.6827   -1.1086   -1.1545 H   0  0  0  0  0  0  0  0  0  0  0  0
   -0.4393    0.7427   -1.2944 C   0  0  0  0  0  0  0  0  0  0  0  0
   -1.3551    1.1707   -0.8754 H   0  0  0  0  0  0  0  0  0  0  0  0
    0.3614    1.4749   -1.1501 H   0  0  0  0  0  0  0  0  0  0  0  0
   -0.6010    0.5192   -2.7674 C   0  0  0  0  0  0  0  0  0  0  0  0
   -1.7871    0.7701   -3.4433 N   0  0  0  0  0  0  0  0  0  0  0  0
   -1.5529    0.5073   -4.7078 C   0  0  0  0  0  0  0  0  0  0  0  0
   -2.2815    0.6076   -5.5074 H   0  0  0  0  0  0  0  0  0  0  0  0
   -0.2465    0.0853   -4.8705 N   0  0  0  0  0  0  0  0  0  0  0  0
    0.1847   -0.1655   -5.7587 H   0  0  0  0  0  0  0  0  0  0  0  0
    0.3667    0.0979   -3.6359 C   0  0  0  0  0  0  0  0  0  0  0  0
    1.3951   -0.1539   -3.3899 H   0  0  0  0  0  0  0  0  0  0  0  0
    0.5660   -0.2451    0.7911 C   0  0  0  0  0  0  0  0  0  0  0  0
    1.7809   -0.1135    0.8701 O   0  0  0  0  0  0  0  0  0  0  0  0
   -0.2276    0.1655    1.8474 N   0  0  0  0  0  0  0  0  0  0  0  0
   -1.2191   -0.0356    1.7656 H   0  0  0  0  0  0  0  0  0  0  0  0
    0.3135    0.5057    3.1569 C   0  0  0  0  0  0  0  0  0  0  0  0
    1.0093    1.3475    3.0775 H   0  0  0  0  0  0  0  0  0  0  0  0
   -0.4945    0.7904    3.8374 H   0  0  0  0  0  0  0  0  0  0  0  0
    0.8434   -0.3515    3.5855 H   0  0  0  0  0  0  0  0  0  0  0  0
  1  2  1  0  0  0  0
  2  3  1  0  0  0  0
  2  4  1  0  0  0  0
  2  5  1  0  0  0  0
  5  6  2  0  0  0  0
  5  7  1  0  0  0  0
  7  8  1  0  0  0  0
  7  9  1  0  0  0  0
  9 10  1  0  0  0  0
  9 11  1  0  0  0  0
  9 22  1  0  0  0  0
 11 12  1  0  0  0  0
 11 13  1  0  0  0  0
 11 14  1  0  0  0  0
 14 15  1  0  0  0  0
 14 20  2  0  0  0  0
 15 16  2  0  0  0  0
 16 17  1  0  0  0  0
 16 18  1  0  0  0  0
 18 19  1  0  0  0  0
 18 20  1  0  0  0  0
 20 21  1  0  0  0  0
 22 23  2  0  0  0  0
 22 24  1  0  0  0  0
 24 25  1  0  0  0  0
 24 26  1  0  0  0  0
 26 27  1  0  0  0  0
 26 28  1  0  0  0  0
 26 29  1  0  0  0  0
M  END
$$$$

  -OEChem-04042215593D

 29 29  0     1  0  0  0  0  0999 V2000
   -2.4957   -4.4597    0.3782 H   0  0  0  0  0  0  0  0  0  0  0  0
   -2.6253   -3.4790   -0.0885 C   0  0  0  0  0  0  0  0  0  0  0  0
   -3.4477   -2.9590    0.4085 H   0  0  0  0  0  0  0  0  0  0  0  0
   -2.8763   -3.6217   -1.1424 H   0  0  0  0  0  0  0  0  0  0  0  0
   -1.3483   -2.6694    0.0360 C   0  0  0  0  0  0  0  0  0  0  0  0
   -0.3856   -3.1382    0.6156 O   0  0  0  0  0  0  0  0  0  0  0  0
   -1.2838   -1.4051   -0.5131 N   0  0  0  0  0  0  0  0  0  0  0  0
   -2.0753   -1.1152   -1.0825 H   0  0  0  0  0  0  0  0  0  0  0  0
   -0.0608   -0.5850   -0.5764 C   0  0  1  0  0  0  0  0  0  0  0  0
    0.7055   -1.1318   -1.1355 H   0  0  0  0  0  0  0  0  0  0  0  0
   -0.4210    0.7192   -1.3059 C   0  0  0  0  0  0  0  0  0  0  0  0
   -1.3441    1.1372   -0.8928 H   0  0  0  0  0  0  0  0  0  0  0  0
    0.3697    1.4597   -1.1502 H   0  0  0  0  0  0  0  0  0  0  0  0
   -0.5758    0.5188   -2.7860 C   0  0  0  0  0  0  0  0  0  0  0  0
   -1.6338    1.0602   -3.5032 N   0  0  0  0  0  0  0  0  0  0  0  0
   -1.4518    0.7130   -4.7556 C   0  0  0  0  0  0  0  0  0  0  0  0
   -2.1078    0.9864   -5.5773 H   0  0  0  0  0  0  0  0  0  0  0  0
   -0.3066   -0.0516   -4.8726 N   0  0  0  0  0  0  0  0  0  0  0  0
    0.0612   -0.4321   -5.7431 H   0  0  0  0  0  0  0  0  0  0  0  0
    0.2569   -0.1757   -3.6207 C   0  0  0  0  0  0  0  0  0  0  0  0
    1.1715   -0.6940   -3.3453 H   0  0  0  0  0  0  0  0  0  0  0  0
    0.5636   -0.2538    0.7971 C   0  0  0  0  0  0  0  0  0  0  0  0
    1.7776   -0.1249    0.8904 O   0  0  0  0  0  0  0  0  0  0  0  0
   -0.2411    0.1599    1.8438 N   0  0  0  0  0  0  0  0  0  0  0  0
   -1.2337   -0.0291    1.7500 H   0  0  0  0  0  0  0  0  0  0  0  0
    0.2860    0.5175    3.1543 C   0  0  0  0  0  0  0  0  0  0  0  0
    0.9869    1.3546    3.0703 H   0  0  0  0  0  0  0  0  0  0  0  0
   -0.5286    0.8163    3.8207 H   0  0  0  0  0  0  0  0  0  0  0  0
    0.8077   -0.3350    3.6021 H   0  0  0  0  0  0  0  0  0  0  0  0
  1  2  1  0  0  0  0
  2  3  1  0  0  0  0
  2  4  1  0  0  0  0
  2  5  1  0  0  0  0
  5  6  2  0  0  0  0
  5  7  1  0  0  0  0
  7  8  1  0  0  0  0
  7  9  1  0  0  0  0
  9 10  1  0  0  0  0
  9 11  1  0  0  0  0
  9 22  1  0  0  0  0
 11 12  1  0  0  0  0
 11 13  1  0  0  0  0
 11 14  1  0  0  0  0
 14 15  1  0  0  0  0
 14 20  2  0  0  0  0
 15 16  2  0  0  0  0
 16 17  1  0  0  0  0
 16 18  1  0  0  0  0
 18 19  1  0  0  0  0
 18 20  1  0  0  0  0
 20 21  1  0  0  0  0
 22 23  2  0  0  0  0
 22 24  1  0  0  0  0
 24 25  1  0  0  0  0
 24 26  1  0  0  0  0
 26 27  1  0  0  0  0
 26 28  1  0  0  0  0
 26 29  1  0  0  0  0
M  END
$$$$

  -OEChem-04042215593D

 29 29  0     1  0  0  0  0  0999 V2000
   -2.4689   -4.4843    0.3881 H   0  0  0  0  0  0  0  0  0  0  0  0
   -2.6135   -3.4901   -0.0440 C   0  0  0  0  0  0  0  0  0  0  0  0
   -3.4159   -2.9842    0.4979 H   0  0  0  0  0  0  0  0  0  0  0  0
   -2.9031   -3.6020   -1.0915 H   0  0  0  0  0  0  0  0  0  0  0  0
   -1.3308   -2.6866    0.0583 C   0  0  0  0  0  0  0  0  0  0  0  0
   -0.3647   -3.1557    0.6313 O   0  0  0  0  0  0  0  0  0  0  0  0
   -1.2620   -1.4305   -0.5090 N   0  0  0  0  0  0  0  0  0  0  0  0
   -2.0617   -1.1352   -1.0630 H   0  0  0  0  0  0  0  0  0  0  0  0
   -0.0392   -0.6094   -0.5738 C   0  0  1  0  0  0  0  0  0  0  0  0
    0.7370   -1.1602   -1.1141 H   0  0  0  0  0  0  0  0  0  0  0  0
   -0.3914    0.6885   -1.3207 C   0  0  0  0  0  0  0  0  0  0  0  0
   -1.3169    1.1068   -0.9140 H   0  0  0  0  0  0  0  0  0  0  0  0
    0.3981    1.4298   -1.1608 H   0  0  0  0  0  0  0  0  0  0  0  0
   -0.5424    0.5039   -2.8056 C   0  0  0  0  0  0  0  0  0  0  0  0
   -1.4032    1.2985   -3.5504 N   0  0  0  0  0  0  0  0  0  0  0  0
   -1.3125    0.8912   -4.7938 C   0  0  0  0  0  0  0  0  0  0  0  0
   -1.8588    1.3200   -5.6293 H   0  0  0  0  0  0  0  0  0  0  0  0
   -0.4247   -0.1637   -4.8798 N   0  0  0  0  0  0  0  0  0  0  0  0
   -0.1680   -0.6480   -5.7385 H   0  0  0  0  0  0  0  0  0  0  0  0
    0.0662   -0.4170   -3.6166 C   0  0  0  0  0  0  0  0  0  0  0  0
    0.7901   -1.1718   -3.3231 H   0  0  0  0  0  0  0  0  0  0  0  0
    0.5654   -0.2613    0.8054 C   0  0  0  0  0  0  0  0  0  0  0  0
    1.7782   -0.1401    0.9206 O   0  0  0  0  0  0  0  0  0  0  0  0
   -0.2563    0.1638    1.8346 N   0  0  0  0  0  0  0  0  0  0  0  0
   -1.2484   -0.0174    1.7234 H   0  0  0  0  0  0  0  0  0  0  0  0
    0.2466    0.5351    3.1510 C   0  0  0  0  0  0  0  0  0  0  0  0
    0.9753    1.3485    3.0687 H   0  0  0  0  0  0  0  0  0  0  0  0
   -0.5760    0.8746    3.7874 H   0  0  0  0  0  0  0  0  0  0  0  0
    0.7278   -0.3228    3.6321 H   0  0  0  0  0  0  0  0  0  0  0  0
  1  2  1  0  0  0  0
  2  3  1  0  0  0  0
  2  4  1  0  0  0  0
  2  5  1  0  0  0  0
  5  6  2  0  0  0  0
  5  7  1  0  0  0  0
  7  8  1  0  0  0  0
  7  9  1  0  0  0  0
  9 10  1  0  0  0  0
  9 11  1  0  0  0  0
  9 22  1  0  0  0  0
 11 12  1  0  0  0  0
 11 13  1  0  0  0  0
 11 14  1  0  0  0  0
 14 15  1  0  0  0  0
 14 20  2  0  0  0  0
 15 16  2  0  0  0  0
 16 17  1  0  0  0  0
 16 18  1  0  0  0  0
 18 19  1  0  0  0  0
 18 20  1  0  0  0  0
 20 21  1  0  0  0  0
 22 23  2  0  0  0  0
 22 24  1  0  0  0  0
 24 25  1  0  0  0  0
 24 26  1  0  0  0  0
 26 27  1  0  0  0  0
 26 28  1  0  0  0  0
 26 29  1  0  0  0  0
M  END
$$$$

  -OEChem-04042215593D

 29 29  0     1  0  0  0  0  0999 V2000
   -2.4740   -4.4862    0.4537 H   0  0  0  0  0  0  0  0  0  0  0  0
   -2.6165   -3.4993    0.0040 C   0  0  0  0  0  0  0  0  0  0  0  0
   -3.4068   -2.9762    0.5476 H   0  0  0  0  0  0  0  0  0  0  0  0
   -2.9226   -3.6286   -1.0369 H   0  0  0  0  0  0  0  0  0  0  0  0
   -1.3260   -2.7047    0.0714 C   0  0  0  0  0  0  0  0  0  0  0  0
   -0.3482   -3.1789    0.6194 O   0  0  0  0  0  0  0  0  0  0  0  0
   -1.2632   -1.4511   -0.5025 N   0  0  0  0  0  0  0  0  0  0  0  0
   -2.0794   -1.1443   -1.0245 H   0  0  0  0  0  0  0  0  0  0  0  0
   -0.0441   -0.6248   -0.5744 C   0  0  1  0  0  0  0  0  0  0  0  0
    0.7356   -1.1746   -1.1112 H   0  0  0  0  0  0  0  0  0  0  0  0
   -0.3940    0.6674   -1.3324 C   0  0  0  0  0  0  0  0  0  0  0  0
   -1.3168    1.0942   -0.9288 H   0  0  0  0  0  0  0  0  0  0  0  0
    0.4005    1.4043   -1.1758 H   0  0  0  0  0  0  0  0  0  0  0  0
   -0.5433    0.4830   -2.8188 C   0  0  0  0  0  0  0  0  0  0  0  0
   -1.1488    1.4518   -3.6069 N   0  0  0  0  0  0  0  0  0  0  0  0
   -1.1301    1.0049   -4.8396 C   0  0  0  0  0  0  0  0  0  0  0  0
   -1.5227    1.5390   -5.7001 H   0  0  0  0  0  0  0  0  0  0  0  0
   -0.5423   -0.2445   -4.8776 N   0  0  0  0  0  0  0  0  0  0  0  0
   -0.3934   -0.7988   -5.7191 H   0  0  0  0  0  0  0  0  0  0  0  0
   -0.1706   -0.5843   -3.5941 C   0  0  0  0  0  0  0  0  0  0  0  0
    0.3233   -1.4941   -3.2646 H   0  0  0  0  0  0  0  0  0  0  0  0
    0.5597   -0.2681    0.8031 C   0  0  0  0  0  0  0  0  0  0  0  0
    1.7720   -0.1449    0.9186 O   0  0  0  0  0  0  0  0  0  0  0  0
   -0.2626    0.1579    1.8317 N   0  0  0  0  0  0  0  0  0  0  0  0
   -1.2549   -0.0219    1.7216 H   0  0  0  0  0  0  0  0  0  0  0  0
    0.2414    0.5428    3.1439 C   0  0  0  0  0  0  0  0  0  0  0  0
    0.9563    1.3673    3.0539 H   0  0  0  0  0  0  0  0  0  0  0  0
   -0.5825    0.8716    3.7845 H   0  0  0  0  0  0  0  0  0  0  0  0
    0.7397   -0.3053    3.6251 H   0  0  0  0  0  0  0  0  0  0  0  0
  1  2  1  0  0  0  0
  2  3  1  0  0  0  0
  2  4  1  0  0  0  0
  2  5  1  0  0  0  0
  5  6  2  0  0  0  0
  5  7  1  0  0  0  0
  7  8  1  0  0  0  0
  7  9  1  0  0  0  0
  9 10  1  0  0  0  0
  9 11  1  0  0  0  0
  9 22  1  0  0  0  0
 11 12  1  0  0  0  0
 11 13  1  0  0  0  0
 11 14  1  0  0  0  0
 14 15  1  0  0  0  0
 14 20  2  0  0  0  0
 15 16  2  0  0  0  0
 16 17  1  0  0  0  0
 16 18  1  0  0  0  0
 18 19  1  0  0  0  0
 18 20  1  0  0  0  0
 20 21  1  0  0  0  0
 22 23  2  0  0  0  0
 22 24  1  0  0  0  0
 24 25  1  0  0  0  0
 24 26  1  0  0  0  0
 26 27  1  0  0  0  0
 26 28  1  0  0  0  0
 26 29  1  0  0  0  0
M  END
$$$$

  -OEChem-04042215593D

 29 29  0     1  0  0  0  0  0999 V2000
   -2.4617   -4.5245    0.5710 H   0  0  0  0  0  0  0  0  0  0  0  0
   -2.6303   -3.5423    0.1201 C   0  0  0  0  0  0  0  0  0  0  0  0
   -3.3867   -3.0127    0.7043 H   0  0  0  0  0  0  0  0  0  0  0  0
   -2.9980   -3.6828   -0.8991 H   0  0  0  0  0  0  0  0  0  0  0  0
   -1.3376   -2.7485    0.1025 C   0  0  0  0  0  0  0  0  0  0  0  0
   -0.3251   -3.2239    0.5813 O   0  0  0  0  0  0  0  0  0  0  0  0
   -1.3123   -1.4927   -0.4690 N   0  0  0  0  0  0  0  0  0  0  0  0
   -2.1707   -1.1649   -0.9030 H   0  0  0  0  0  0  0  0  0  0  0  0
   -0.1095   -0.6433   -0.5731 C   0  0  1  0  0  0  0  0  0  0  0  0
    0.6518   -1.1920   -1.1391 H   0  0  0  0  0  0  0  0  0  0  0  0
   -0.4634    0.6400   -1.3452 C   0  0  0  0  0  0  0  0  0  0  0  0
   -1.2253    1.1973   -0.7925 H   0  0  0  0  0  0  0  0  0  0  0  0
    0.4272    1.2743   -1.4034 H   0  0  0  0  0  0  0  0  0  0  0  0
   -0.9622    0.4187   -2.7495 C   0  0  0  0  0  0  0  0  0  0  0  0
   -1.3219    1.4834   -3.5635 N   0  0  0  0  0  0  0  0  0  0  0  0
   -1.6428    0.9806   -4.7311 C   0  0  0  0  0  0  0  0  0  0  0  0
   -1.9647    1.5619   -5.5905 H   0  0  0  0  0  0  0  0  0  0  0  0
   -1.5051   -0.3936   -4.7040 N   0  0  0  0  0  0  0  0  0  0  0  0
   -1.6533   -1.0139   -5.4982 H   0  0  0  0  0  0  0  0  0  0  0  0
   -1.0597   -0.7558   -3.4504 C   0  0  0  0  0  0  0  0  0  0  0  0
   -0.8003   -1.7499   -3.0975 H   0  0  0  0  0  0  0  0  0  0  0  0
    0.5338   -0.2737    0.7822 C   0  0  0  0  0  0  0  0  0  0  0  0
    1.7468   -0.1308    0.8595 O   0  0  0  0  0  0  0  0  0  0  0  0
   -0.2620    0.1386    1.8368 N   0  0  0  0  0  0  0  0  0  0  0  0
   -1.2559   -0.0467    1.7571 H   0  0  0  0  0  0  0  0  0  0  0  0
    0.2771    0.5501    3.1264 C   0  0  0  0  0  0  0  0  0  0  0  0
    0.9586    1.3987    3.0041 H   0  0  0  0  0  0  0  0  0  0  0  0
   -0.5334    0.8540    3.7955 H   0  0  0  0  0  0  0  0  0  0  0  0
    0.8226   -0.2764    3.5936 H   0  0  0  0  0  0  0  0  0  0  0  0
  1  2  1  0  0  0  0
  2  3  1  0  0  0  0
  2  4  1  0  0  0  0
  2  5  1  0  0  0  0
  5  6  2  0  0  0  0
  5  7  1  0  0  0  0
  7  8  1  0  0  0  0
  7  9  1  0  0  0  0
  9 10  1  0  0  0  0
  9 11  1  0  0  0  0
  9 22  1  0  0  0  0
 11 12  1  0  0  0  0
 11 13  1  0  0  0  0
 11 14  1  0  0  0  0
 14 15  1  0  0  0  0
 14 20  2  0  0  0  0
 15 16  2  0  0  0  0
 16 17  1  0  0  0  0
 16 18  1  0  0  0  0
 18 19  1  0  0  0  0
 18 20  1  0  0  0  0
 20 21  1  0  0  0  0
 22 23  2  0  0  0  0
 22 24  1  0  0  0  0
 24 25  1  0  0  0  0
 24 26  1  0  0  0  0
 26 27  1  0  0  0  0
 26 28  1  0  0  0  0
 26 29  1  0  0  0  0
M  END
$$$$

  -OEChem-04042215593D

 29 29  0     1  0  0  0  0  0999 V2000
   -2.4506   -4.5293    0.6611 H   0  0  0  0  0  0  0  0  0  0  0  0
   -2.6324   -3.5542    0.1995 C   0  0  0  0  0  0  0  0  0  0  0  0
   -3.3677   -3.0132    0.7998 H   0  0  0  0  0  0  0  0  0  0  0  0
   -3.0342   -3.7111   -0.8045 H   0  0  0  0  0  0  0  0  0  0  0  0
   -1.3398   -2.7635    0.1259 C   0  0  0  0  0  0  0  0  0  0  0  0
   -0.3113   -3.2387    0.5692 O   0  0  0  0  0  0  0  0  0  0  0  0
   -1.3351   -1.5094   -0.4506 N   0  0  0  0  0  0  0  0  0  0  0  0
   -2.2160   -1.1679   -0.8240 H   0  0  0  0  0  0  0  0  0  0  0  0
   -0.1403   -0.6513   -0.5772 C   0  0  1  0  0  0  0  0  0  0  0  0
    0.6142   -1.2013   -1.1511 H   0  0  0  0  0  0  0  0  0  0  0  0
   -0.4962    0.6285   -1.3561 C   0  0  0  0  0  0  0  0  0  0  0  0
   -1.2440    1.2000   -0.7993 H   0  0  0  0  0  0  0  0  0  0  0  0
    0.4033    1.2493   -1.4229 H   0  0  0  0  0  0  0  0  0  0  0  0
   -1.0054    0.4212   -2.7605 C   0  0  0  0  0  0  0  0  0  0  0  0
   -1.0664    1.4813   -3.6546 N   0  0  0  0  0  0  0  0  0  0  0  0
   -1.4444    0.9910   -4.8098 C   0  0  0  0  0  0  0  0  0  0  0  0
   -1.5830    1.5725   -5.7168 H   0  0  0  0  0  0  0  0  0  0  0  0
   -1.6296   -0.3730   -4.7006 N   0  0  0  0  0  0  0  0  0  0  0  0
   -1.8754   -0.9943   -5.4694 H   0  0  0  0  0  0  0  0  0  0  0  0
   -1.3298   -0.7447   -3.4070 C   0  0  0  0  0  0  0  0  0  0  0  0
   -1.3040   -1.7503   -2.9994 H   0  0  0  0  0  0  0  0  0  0  0  0
    0.5195   -0.2744    0.7684 C   0  0  0  0  0  0  0  0  0  0  0  0
    1.7331   -0.1312    0.8326 O   0  0  0  0  0  0  0  0  0  0  0  0
   -0.2638    0.1343    1.8340 N   0  0  0  0  0  0  0  0  0  0  0  0
   -1.2592   -0.0469    1.7651 H   0  0  0  0  0  0  0  0  0  0  0  0
    0.2916    0.5406    3.1186 C   0  0  0  0  0  0  0  0  0  0  0  0
    0.9644    1.3956    2.9925 H   0  0  0  0  0  0  0  0  0  0  0  0
   -0.5112    0.8326    3.8021 H   0  0  0  0  0  0  0  0  0  0  0  0
    0.8512   -0.2850    3.5710 H   0  0  0  0  0  0  0  0  0  0  0  0
  1  2  1  0  0  0  0
  2  3  1  0  0  0  0
  2  4  1  0  0  0  0
  2  5  1  0  0  0  0
  5  6  2  0  0  0  0
  5  7  1  0  0  0  0
  7  8  1  0  0  0  0
  7  9  1  0  0  0  0
  9 10  1  0  0  0  0
  9 11  1  0  0  0  0
  9 22  1  0  0  0  0
 11 12  1  0  0  0  0
 11 13  1  0  0  0  0
 11 14  1  0  0  0  0
 14 15  1  0  0  0  0
 14 20  2  0  0  0  0
 15 16  2  0  0  0  0
 16 17  1  0  0  0  0
 16 18  1  0  0  0  0
 18 19  1  0  0  0  0
 18 20  1  0  0  0  0
 20 21  1  0  0  0  0
 22 23  2  0  0  0  0
 22 24  1  0  0  0  0
 24 25  1  0  0  0  0
 24 26  1  0  0  0  0
 26 27  1  0  0  0  0
 26 28  1  0  0  0  0
 26 29  1  0  0  0  0
M  END
$$$$

  -OEChem-04042215593D

 29 29  0     1  0  0  0  0  0999 V2000
   -2.4302   -4.5323    0.7267 H   0  0  0  0  0  0  0  0  0  0  0  0
   -2.6264   -3.5629    0.2592 C   0  0  0  0  0  0  0  0  0  0  0  0
   -3.3386   -3.0128    0.8786 H   0  0  0  0  0  0  0  0  0  0  0  0
   -3.0640   -3.7315   -0.7276 H   0  0  0  0  0  0  0  0  0  0  0  0
   -1.3353   -2.7771    0.1282 C   0  0  0  0  0  0  0  0  0  0  0  0
   -0.2909   -3.2558    0.5282 O   0  0  0  0  0  0  0  0  0  0  0  0
   -1.3518   -1.5207   -0.4441 N   0  0  0  0  0  0  0  0  0  0  0  0
   -2.2520   -1.1597   -0.7444 H   0  0  0  0  0  0  0  0  0  0  0  0
   -0.1660   -0.6528   -0.5830 C   0  0  1  0  0  0  0  0  0  0  0  0
    0.5841   -1.2019   -1.1643 H   0  0  0  0  0  0  0  0  0  0  0  0
   -0.5193    0.6283   -1.3632 C   0  0  0  0  0  0  0  0  0  0  0  0
   -1.2580    1.2089   -0.8037 H   0  0  0  0  0  0  0  0  0  0  0  0
    0.3882    1.2379   -1.4297 H   0  0  0  0  0  0  0  0  0  0  0  0
   -1.0314    0.4364   -2.7702 C   0  0  0  0  0  0  0  0  0  0  0  0
   -0.7997    1.4091   -3.7339 N   0  0  0  0  0  0  0  0  0  0  0  0
   -1.2528    0.9459   -4.8726 C   0  0  0  0  0  0  0  0  0  0  0  0
   -1.2154    1.4772   -5.8195 H   0  0  0  0  0  0  0  0  0  0  0  0
   -1.7726   -0.3191   -4.6861 N   0  0  0  0  0  0  0  0  0  0  0  0
   -2.1448   -0.9136   -5.4248 H   0  0  0  0  0  0  0  0  0  0  0  0
   -1.6124   -0.6588   -3.3591 C   0  0  0  0  0  0  0  0  0  0  0  0
   -1.8505   -1.6101   -2.8970 H   0  0  0  0  0  0  0  0  0  0  0  0
    0.5070   -0.2768    0.7565 C   0  0  0  0  0  0  0  0  0  0  0  0
    1.7202   -0.1260    0.8090 O   0  0  0  0  0  0  0  0  0  0  0  0
   -0.2658    0.1211    1.8340 N   0  0  0  0  0  0  0  0  0  0  0  0
   -1.2605   -0.0672    1.7786 H   0  0  0  0  0  0  0  0  0  0  0  0
    0.3038    0.5296    3.1121 C   0  0  0  0  0  0  0  0  0  0  0  0
    0.9745    1.3848    2.9776 H   0  0  0  0  0  0  0  0  0  0  0  0
   -0.4911    0.8224    3.8044 H   0  0  0  0  0  0  0  0  0  0  0  0
    0.8691   -0.2949    3.5594 H   0  0  0  0  0  0  0  0  0  0  0  0
  1  2  1  0  0  0  0
  2  3  1  0  0  0  0
  2  4  1  0  0  0  0
  2  5  1  0  0  0  0
  5  6  2  0  0  0  0
  5  7  1  0  0  0  0
  7  8  1  0  0  0  0
  7  9  1  0  0  0  0
  9 10  1  0  0  0  0
  9 11  1  0  0  0  0
  9 22  1  0  0  0  0
 11 12  1  0  0  0  0
 11 13  1  0  0  0  0
 11 14  1  0  0  0  0
 14 15  1  0  0  0  0
 14 20  2  0  0  0  0
 15 16  2  0  0  0  0
 16 17  1  0  0  0  0
 16 18  1  0  0  0  0
 18 19  1  0  0  0  0
 18 20  1  0  0  0  0
 20 21  1  0  0  0  0
 22 23  2  0  0  0  0
 22 24  1  0  0  0  0
 24 25  1  0  0  0  0
 24 26  1  0  0  0  0
 26 27  1  0  0  0  0
 26 28  1  0  0  0  0
 26 29  1  0  0  0  0
M  END
$$$$

  -OEChem-04042215593D

 29 29  0     1  0  0  0  0  0999 V2000
   -2.4096   -4.5320    0.7297 H   0  0  0  0  0  0  0  0  0  0  0  0
   -2.6123   -3.5636    0.2629 C   0  0  0  0  0  0  0  0  0  0  0  0
   -3.3204   -3.0147    0.8881 H   0  0  0  0  0  0  0  0  0  0  0  0
   -3.0578   -3.7350   -0.7198 H   0  0  0  0  0  0  0  0  0  0  0  0
   -1.3239   -2.7756    0.1186 C   0  0  0  0  0  0  0  0  0  0  0  0
   -0.2753   -3.2547    0.5070 O   0  0  0  0  0  0  0  0  0  0  0  0
   -1.3491   -1.5167   -0.4485 N   0  0  0  0  0  0  0  0  0  0  0  0
   -2.2568   -1.1432   -0.7047 H   0  0  0  0  0  0  0  0  0  0  0  0
   -0.1669   -0.6450   -0.5894 C   0  0  1  0  0  0  0  0  0  0  0  0
    0.5819   -1.1931   -1.1732 H   0  0  0  0  0  0  0  0  0  0  0  0
   -0.5115    0.6405   -1.3672 C   0  0  0  0  0  0  0  0  0  0  0  0
   -1.2490    1.2239   -0.8099 H   0  0  0  0  0  0  0  0  0  0  0  0
    0.3991    1.2465   -1.4291 H   0  0  0  0  0  0  0  0  0  0  0  0
   -1.0206    0.4464   -2.7751 C   0  0  0  0  0  0  0  0  0  0  0  0
   -0.5351    1.2341   -3.8107 N   0  0  0  0  0  0  0  0  0  0  0  0
   -1.0963    0.8131   -4.9168 C   0  0  0  0  0  0  0  0  0  0  0  0
   -0.9158    1.2296   -5.9038 H   0  0  0  0  0  0  0  0  0  0  0  0
   -1.9440   -0.2395   -4.6363 N   0  0  0  0  0  0  0  0  0  0  0  0
   -2.4767   -0.7617   -5.3296 H   0  0  0  0  0  0  0  0  0  0  0  0
   -1.8914   -0.4864   -3.2803 C   0  0  0  0  0  0  0  0  0  0  0  0
   -2.4082   -1.2713   -2.7422 H   0  0  0  0  0  0  0  0  0  0  0  0
    0.5077   -0.2760    0.7513 C   0  0  0  0  0  0  0  0  0  0  0  0
    1.7197   -0.1171    0.8035 O   0  0  0  0  0  0  0  0  0  0  0  0
   -0.2667    0.1124    1.8313 N   0  0  0  0  0  0  0  0  0  0  0  0
   -1.2587   -0.0892    1.7778 H   0  0  0  0  0  0  0  0  0  0  0  0
    0.3023    0.5104    3.1127 C   0  0  0  0  0  0  0  0  0  0  0  0
    0.9710    1.3686    2.9857 H   0  0  0  0  0  0  0  0  0  0  0  0
   -0.4934    0.7949    3.8077 H   0  0  0  0  0  0  0  0  0  0  0  0
    0.8694   -0.3173    3.5517 H   0  0  0  0  0  0  0  0  0  0  0  0
  1  2  1  0  0  0  0
  2  3  1  0  0  0  0
  2  4  1  0  0  0  0
  2  5  1  0  0  0  0
  5  6  2  0  0  0  0
  5  7  1  0  0  0  0
  7  8  1  0  0  0  0
  7  9  1  0  0  0  0
  9 10  1  0  0  0  0
  9 11  1  0  0  0  0
  9 22  1  0  0  0  0
 11 12  1  0  0  0  0
 11 13  1  0  0  0  0
 11 14  1  0  0  0  0
 14 15  1  0  0  0  0
 14 20  2  0  0  0  0
 15 16  2  0  0  0  0
 16 17  1  0  0  0  0
 16 18  1  0  0  0  0
 18 19  1  0  0  0  0
 18 20  1  0  0  0  0
 20 21  1  0  0  0  0
 22 23  2  0  0  0  0
 22 24  1  0  0  0  0
 24 25  1  0  0  0  0
 24 26  1  0  0  0  0
 26 27  1  0  0  0  0
 26 28  1  0  0  0  0
 26 29  1  0  0  0  0
M  END
$$$$

  -OEChem-04042215593D

 29 29  0     1  0  0  0  0  0999 V2000
   -2.4100   -4.5671    0.6038 H   0  0  0  0  0  0  0  0  0  0  0  0
   -2.5887   -3.6087    0.1077 C   0  0  0  0  0  0  0  0  0  0  0  0
   -3.4239   -3.1075    0.6026 H   0  0  0  0  0  0  0  0  0  0  0  0
   -2.8503   -3.7985   -0.9359 H   0  0  0  0  0  0  0  0  0  0  0  0
   -1.3446   -2.7436    0.1828 C   0  0  0  0  0  0  0  0  0  0  0  0
   -0.3634   -3.1477    0.7780 O   0  0  0  0  0  0  0  0  0  0  0  0
   -1.3425   -1.4988   -0.4156 N   0  0  0  0  0  0  0  0  0  0  0  0
   -2.1495   -1.2773   -0.9850 H   0  0  0  0  0  0  0  0  0  0  0  0
   -0.1423   -0.6536   -0.5645 C   0  0  1  0  0  0  0  0  0  0  0  0
    0.6013   -1.2247   -1.1323 H   0  0  0  0  0  0  0  0  0  0  0  0
   -0.4551    0.6309   -1.3574 C   0  0  0  0  0  0  0  0  0  0  0  0
   -1.1961    1.2233   -0.8135 H   0  0  0  0  0  0  0  0  0  0  0  0
    0.4563    1.2346   -1.4283 H   0  0  0  0  0  0  0  0  0  0  0  0
   -0.9641    0.3855   -2.7528 C   0  0  0  0  0  0  0  0  0  0  0  0
   -0.2944    0.8605   -3.8715 N   0  0  0  0  0  0  0  0  0  0  0  0
   -1.0214    0.5517   -4.9165 C   0  0  0  0  0  0  0  0  0  0  0  0
   -0.7596    0.7807   -5.9457 H   0  0  0  0  0  0  0  0  0  0  0  0
   -2.1718   -0.0954   -4.5087 N   0  0  0  0  0  0  0  0  0  0  0  0
   -2.9127   -0.4158   -5.1301 H   0  0  0  0  0  0  0  0  0  0  0  0
   -2.1541   -0.1823   -3.1320 C   0  0  0  0  0  0  0  0  0  0  0  0
   -2.9314   -0.5820   -2.4919 H   0  0  0  0  0  0  0  0  0  0  0  0
    0.5273   -0.2645    0.7736 C   0  0  0  0  0  0  0  0  0  0  0  0
    1.7404   -0.1111    0.8279 O   0  0  0  0  0  0  0  0  0  0  0  0
   -0.2520    0.1639    1.8343 N   0  0  0  0  0  0  0  0  0  0  0  0
   -1.2366   -0.0745    1.7882 H   0  0  0  0  0  0  0  0  0  0  0  0
    0.3139    0.5494    3.1206 C   0  0  0  0  0  0  0  0  0  0  0  0
    0.9745    1.4150    3.0050 H   0  0  0  0  0  0  0  0  0  0  0  0
   -0.4839    0.8158    3.8202 H   0  0  0  0  0  0  0  0  0  0  0  0
    0.8891   -0.2787    3.5482 H   0  0  0  0  0  0  0  0  0  0  0  0
  1  2  1  0  0  0  0
  2  3  1  0  0  0  0
  2  4  1  0  0  0  0
  2  5  1  0  0  0  0
  5  6  2  0  0  0  0
  5  7  1  0  0  0  0
  7  8  1  0  0  0  0
  7  9  1  0  0  0  0
  9 10  1  0  0  0  0
  9 11  1  0  0  0  0
  9 22  1  0  0  0  0
 11 12  1  0  0  0  0
 11 13  1  0  0  0  0
 11 14  1  0  0  0  0
 14 15  1  0  0  0  0
 14 20  2  0  0  0  0
 15 16  2  0  0  0  0
 16 17  1  0  0  0  0
 16 18  1  0  0  0  0
 18 19  1  0  0  0  0
 18 20  1  0  0  0  0
 20 21  1  0  0  0  0
 22 23  2  0  0  0  0
 22 24  1  0  0  0  0
 24 25  1  0  0  0  0
 24 26  1  0  0  0  0
 26 27  1  0  0  0  0
 26 28  1  0  0  0  0
 26 29  1  0  0  0  0
M  END
$$$$

  -OEChem-04042215593D

 29 29  0     1  0  0  0  0  0999 V2000
   -2.4290   -4.5626    0.5277 H   0  0  0  0  0  0  0  0  0  0  0  0
   -2.5866   -3.6117    0.0104 C   0  0  0  0  0  0  0  0  0  0  0  0
   -3.4704   -3.1256    0.4304 H   0  0  0  0  0  0  0  0  0  0  0  0
   -2.7573   -3.8140   -1.0497 H   0  0  0  0  0  0  0  0  0  0  0  0
   -1.3719   -2.7184    0.1799 C   0  0  0  0  0  0  0  0  0  0  0  0
   -0.4333   -3.0995    0.8541 O   0  0  0  0  0  0  0  0  0  0  0  0
   -1.3527   -1.4751   -0.4217 N   0  0  0  0  0  0  0  0  0  0  0  0
   -2.0951   -1.3110   -1.0924 H   0  0  0  0  0  0  0  0  0  0  0  0
   -0.1354   -0.6506   -0.5594 C   0  0  1  0  0  0  0  0  0  0  0  0
    0.6034   -1.2229   -1.1326 H   0  0  0  0  0  0  0  0  0  0  0  0
   -0.4531    0.6418   -1.3338 C   0  0  0  0  0  0  0  0  0  0  0  0
   -1.1922    1.2262   -0.7788 H   0  0  0  0  0  0  0  0  0  0  0  0
    0.4529    1.2518   -1.4163 H   0  0  0  0  0  0  0  0  0  0  0  0
   -0.9752    0.3742   -2.7164 C   0  0  0  0  0  0  0  0  0  0  0  0
   -0.2165    0.5487   -3.8638 N   0  0  0  0  0  0  0  0  0  0  0  0
   -1.0099    0.3267   -4.8828 C   0  0  0  0  0  0  0  0  0  0  0  0
   -0.7110    0.3806   -5.9259 H   0  0  0  0  0  0  0  0  0  0  0  0
   -2.2814    0.0283   -4.4299 N   0  0  0  0  0  0  0  0  0  0  0  0
   -3.0884   -0.1443   -5.0272 H   0  0  0  0  0  0  0  0  0  0  0  0
   -2.2720    0.0839   -3.0512 C   0  0  0  0  0  0  0  0  0  0  0  0
   -3.1135   -0.0320   -2.3759 H   0  0  0  0  0  0  0  0  0  0  0  0
    0.5350   -0.2675    0.7804 C   0  0  0  0  0  0  0  0  0  0  0  0
    1.7499   -0.1274    0.8360 O   0  0  0  0  0  0  0  0  0  0  0  0
   -0.2420    0.1787    1.8352 N   0  0  0  0  0  0  0  0  0  0  0  0
   -1.2250   -0.0688    1.7949 H   0  0  0  0  0  0  0  0  0  0  0  0
    0.3265    0.5659    3.1199 C   0  0  0  0  0  0  0  0  0  0  0  0
    1.0280    1.3972    2.9939 H   0  0  0  0  0  0  0  0  0  0  0  0
   -0.4660    0.8854    3.8032 H   0  0  0  0  0  0  0  0  0  0  0  0
    0.8584   -0.2778    3.5721 H   0  0  0  0  0  0  0  0  0  0  0  0
  1  2  1  0  0  0  0
  2  3  1  0  0  0  0
  2  4  1  0  0  0  0
  2  5  1  0  0  0  0
  5  6  2  0  0  0  0
  5  7  1  0  0  0  0
  7  8  1  0  0  0  0
  7  9  1  0  0  0  0
  9 10  1  0  0  0  0
  9 11  1  0  0  0  0
  9 22  1  0  0  0  0
 11 12  1  0  0  0  0
 11 13  1  0  0  0  0
 11 14  1  0  0  0  0
 14 15  1  0  0  0  0
 14 20  2  0  0  0  0
 15 16  2  0  0  0  0
 16 17  1  0  0  0  0
 16 18  1  0  0  0  0
 18 19  1  0  0  0  0
 18 20  1  0  0  0  0
 20 21  1  0  0  0  0
 22 23  2  0  0  0  0
 22 24  1  0  0  0  0
 24 25  1  0  0  0  0
 24 26  1  0  0  0  0
 26 27  1  0  0  0  0
 26 28  1  0  0  0  0
 26 29  1  0  0  0  0
M  END
$$$$

  -OEChem-04042215593D

 29 29  0     1  0  0  0  0  0999 V2000
   -2.4456   -4.5489    0.4568 H   0  0  0  0  0  0  0  0  0  0  0  0
   -2.6014   -3.5868   -0.0399 C   0  0  0  0  0  0  0  0  0  0  0  0
   -3.4879   -3.1109    0.3860 H   0  0  0  0  0  0  0  0  0  0  0  0
   -2.7660   -3.7656   -1.1052 H   0  0  0  0  0  0  0  0  0  0  0  0
   -1.3891   -2.6960    0.1561 C   0  0  0  0  0  0  0  0  0  0  0  0
   -0.4611   -3.0832    0.8414 O   0  0  0  0  0  0  0  0  0  0  0  0
   -1.3621   -1.4467   -0.4320 N   0  0  0  0  0  0  0  0  0  0  0  0
   -2.0949   -1.2786   -1.1137 H   0  0  0  0  0  0  0  0  0  0  0  0
   -0.1385   -0.6299   -0.5617 C   0  0  1  0  0  0  0  0  0  0  0  0
    0.5950   -1.1965   -1.1470 H   0  0  0  0  0  0  0  0  0  0  0  0
   -0.4660    0.6700   -1.3157 C   0  0  0  0  0  0  0  0  0  0  0  0
   -1.2015    1.2478   -0.7486 H   0  0  0  0  0  0  0  0  0  0  0  0
    0.4373    1.2822   -1.4068 H   0  0  0  0  0  0  0  0  0  0  0  0
   -0.9981    0.3936   -2.6907 C   0  0  0  0  0  0  0  0  0  0  0  0
   -0.2018    0.2747   -3.8189 N   0  0  0  0  0  0  0  0  0  0  0  0
   -1.0110    0.1156   -4.8375 C   0  0  0  0  0  0  0  0  0  0  0  0
   -0.6936   -0.0081   -5.8691 H   0  0  0  0  0  0  0  0  0  0  0  0
   -2.3234    0.1381   -4.4019 N   0  0  0  0  0  0  0  0  0  0  0  0
   -3.1409    0.0719   -5.0062 H   0  0  0  0  0  0  0  0  0  0  0  0
   -2.3214    0.3358   -3.0366 C   0  0  0  0  0  0  0  0  0  0  0  0
   -3.1746    0.4561   -2.3761 H   0  0  0  0  0  0  0  0  0  0  0  0
    0.5389   -0.2642    0.7790 C   0  0  0  0  0  0  0  0  0  0  0  0
    1.7538   -0.1228    0.8301 O   0  0  0  0  0  0  0  0  0  0  0  0
   -0.2332    0.1775    1.8394 N   0  0  0  0  0  0  0  0  0  0  0  0
   -1.2150   -0.0753    1.8027 H   0  0  0  0  0  0  0  0  0  0  0  0
    0.3406    0.5538    3.1250 C   0  0  0  0  0  0  0  0  0  0  0  0
    1.0450    1.3834    3.0027 H   0  0  0  0  0  0  0  0  0  0  0  0
   -0.4489    0.8720    3.8122 H   0  0  0  0  0  0  0  0  0  0  0  0
    0.8696   -0.2953    3.5705 H   0  0  0  0  0  0  0  0  0  0  0  0
  1  2  1  0  0  0  0
  2  3  1  0  0  0  0
  2  4  1  0  0  0  0
  2  5  1  0  0  0  0
  5  6  2  0  0  0  0
  5  7  1  0  0  0  0
  7  8  1  0  0  0  0
  7  9  1  0  0  0  0
  9 10  1  0  0  0  0
  9 11  1  0  0  0  0
  9 22  1  0  0  0  0
 11 12  1  0  0  0  0
 11 13  1  0  0  0  0
 11 14  1  0  0  0  0
 14 15  1  0  0  0  0
 14 20  2  0  0  0  0
 15 16  2  0  0  0  0
 16 17  1  0  0  0  0
 16 18  1  0  0  0  0
 18 19  1  0  0  0  0
 18 20  1  0  0  0  0
 20 21  1  0  0  0  0
 22 23  2  0  0  0  0
 22 24  1  0  0  0  0
 24 25  1  0  0  0  0
 24 26  1  0  0  0  0
 26 27  1  0  0  0  0
 26 28  1  0  0  0  0
 26 29  1  0  0  0  0
M  END
$$$$

  -OEChem-04042215593D

 29 29  0     1  0  0  0  0  0999 V2000
   -2.4501   -4.5415    0.4016 H   0  0  0  0  0  0  0  0  0  0  0  0
   -2.6133   -3.5679   -0.0695 C   0  0  0  0  0  0  0  0  0  0  0  0
   -3.4982   -3.1059    0.3746 H   0  0  0  0  0  0  0  0  0  0  0  0
   -2.7854   -3.7207   -1.1377 H   0  0  0  0  0  0  0  0  0  0  0  0
   -1.4023   -2.6780    0.1404 C   0  0  0  0  0  0  0  0  0  0  0  0
   -0.4815   -3.0682    0.8340 O   0  0  0  0  0  0  0  0  0  0  0  0
   -1.3706   -1.4248   -0.4387 N   0  0  0  0  0  0  0  0  0  0  0  0
   -2.0990   -1.2527   -1.1247 H   0  0  0  0  0  0  0  0  0  0  0  0
   -0.1427   -0.6139   -0.5642 C   0  0  1  0  0  0  0  0  0  0  0  0
    0.5866   -1.1778   -1.1577 H   0  0  0  0  0  0  0  0  0  0  0  0
   -0.4750    0.6917   -1.3044 C   0  0  0  0  0  0  0  0  0  0  0  0
   -1.2016    1.2706   -0.7269 H   0  0  0  0  0  0  0  0  0  0  0  0
    0.4316    1.2977   -1.4022 H   0  0  0  0  0  0  0  0  0  0  0  0
   -1.0154    0.4202   -2.6768 C   0  0  0  0  0  0  0  0  0  0  0  0
   -0.2402    0.0146   -3.7519 N   0  0  0  0  0  0  0  0  0  0  0  0
   -1.0436   -0.0722   -4.7838 C   0  0  0  0  0  0  0  0  0  0  0  0
   -0.7391   -0.3642   -5.7849 H   0  0  0  0  0  0  0  0  0  0  0  0
   -2.3303    0.2661   -4.4065 N   0  0  0  0  0  0  0  0  0  0  0  0
   -3.1324    0.3061   -5.0332 H   0  0  0  0  0  0  0  0  0  0  0  0
   -2.3152    0.5929   -3.0663 C   0  0  0  0  0  0  0  0  0  0  0  0
   -3.1398    0.9384   -2.4498 H   0  0  0  0  0  0  0  0  0  0  0  0
    0.5401   -0.2608    0.7773 C   0  0  0  0  0  0  0  0  0  0  0  0
    1.7553   -0.1198    0.8247 O   0  0  0  0  0  0  0  0  0  0  0  0
   -0.2274    0.1781    1.8424 N   0  0  0  0  0  0  0  0  0  0  0  0
   -1.2092   -0.0758    1.8083 H   0  0  0  0  0  0  0  0  0  0  0  0
    0.3516    0.5437    3.1290 C   0  0  0  0  0  0  0  0  0  0  0  0
    1.0670    1.3642    3.0096 H   0  0  0  0  0  0  0  0  0  0  0  0
   -0.4335    0.8706    3.8172 H   0  0  0  0  0  0  0  0  0  0  0  0
    0.8691   -0.3136    3.5723 H   0  0  0  0  0  0  0  0  0  0  0  0
  1  2  1  0  0  0  0
  2  3  1  0  0  0  0
  2  4  1  0  0  0  0
  2  5  1  0  0  0  0
  5  6  2  0  0  0  0
  5  7  1  0  0  0  0
  7  8  1  0  0  0  0
  7  9  1  0  0  0  0
  9 10  1  0  0  0  0
  9 11  1  0  0  0  0
  9 22  1  0  0  0  0
 11 12  1  0  0  0  0
 11 13  1  0  0  0  0
 11 14  1  0  0  0  0
 14 15  1  0  0  0  0
 14 20  2  0  0  0  0
 15 16  2  0  0  0  0
 16 17  1  0  0  0  0
 16 18  1  0  0  0  0
 18 19  1  0  0  0  0
 18 20  1  0  0  0  0
 20 21  1  0  0  0  0
 22 23  2  0  0  0  0
 22 24  1  0  0  0  0
 24 25  1  0  0  0  0
 24 26  1  0  0  0  0
 26 27  1  0  0  0  0
 26 28  1  0  0  0  0
 26 29  1  0  0  0  0
M  END
$$$$

  -OEChem-04042215593D

 29 29  0     1  0  0  0  0  0999 V2000
   -2.4804   -4.5136    0.4295 H   0  0  0  0  0  0  0  0  0  0  0  0
   -2.6158   -3.5604   -0.0896 C   0  0  0  0  0  0  0  0  0  0  0  0
   -3.5203   -3.0788    0.2890 H   0  0  0  0  0  0  0  0  0  0  0  0
   -2.7336   -3.7570   -1.1580 H   0  0  0  0  0  0  0  0  0  0  0  0
   -1.4137   -2.6645    0.1430 C   0  0  0  0  0  0  0  0  0  0  0  0
   -0.5051   -3.0485    0.8562 O   0  0  0  0  0  0  0  0  0  0  0  0
   -1.3784   -1.4118   -0.4365 N   0  0  0  0  0  0  0  0  0  0  0  0
   -2.0937   -1.2498   -1.1390 H   0  0  0  0  0  0  0  0  0  0  0  0
   -0.1462   -0.6081   -0.5634 C   0  0  1  0  0  0  0  0  0  0  0  0
    0.5788   -1.1763   -1.1579 H   0  0  0  0  0  0  0  0  0  0  0  0
   -0.4758    0.7004   -1.3000 C   0  0  0  0  0  0  0  0  0  0  0  0
   -1.1916    1.2872   -0.7172 H   0  0  0  0  0  0  0  0  0  0  0  0
    0.4380    1.2947   -1.4024 H   0  0  0  0  0  0  0  0  0  0  0  0
   -1.0235    0.4408   -2.6726 C   0  0  0  0  0  0  0  0  0  0  0  0
   -0.3440   -0.2363   -3.6742 N   0  0  0  0  0  0  0  0  0  0  0  0
   -1.1249   -0.2353   -4.7271 C   0  0  0  0  0  0  0  0  0  0  0  0
   -0.8766   -0.6829   -5.6852 H   0  0  0  0  0  0  0  0  0  0  0  0
   -2.3071    0.4191   -4.4335 N   0  0  0  0  0  0  0  0  0  0  0  0
   -3.0670    0.5803   -5.0927 H   0  0  0  0  0  0  0  0  0  0  0  0
   -2.2444    0.8566   -3.1267 C   0  0  0  0  0  0  0  0  0  0  0  0
   -2.9841    1.4270   -2.5725 H   0  0  0  0  0  0  0  0  0  0  0  0
    0.5404   -0.2593    0.7772 C   0  0  0  0  0  0  0  0  0  0  0  0
    1.7558   -0.1164    0.8209 O   0  0  0  0  0  0  0  0  0  0  0  0
   -0.2244    0.1834    1.8425 N   0  0  0  0  0  0  0  0  0  0  0  0
   -1.2040   -0.0792    1.8124 H   0  0  0  0  0  0  0  0  0  0  0  0
    0.3582    0.5379    3.1304 C   0  0  0  0  0  0  0  0  0  0  0  0
    1.0569    1.3737    3.0188 H   0  0  0  0  0  0  0  0  0  0  0  0
   -0.4271    0.8376    3.8307 H   0  0  0  0  0  0  0  0  0  0  0  0
    0.8954   -0.3169    3.5548 H   0  0  0  0  0  0  0  0  0  0  0  0
  1  2  1  0  0  0  0
  2  3  1  0  0  0  0
  2  4  1  0  0  0  0
  2  5  1  0  0  0  0
  5  6  2  0  0  0  0
  5  7  1  0  0  0  0
  7  8  1  0  0  0  0
  7  9  1  0  0  0  0
  9 10  1  0  0  0  0
  9 11  1  0  0  0  0
  9 22  1  0  0  0  0
 11 12  1  0  0  0  0
 11 13  1  0  0  0  0
 11 14  1  0  0  0  0
 14 15  1  0  0  0  0
 14 20  2  0  0  0  0
 15 16  2  0  0  0  0
 16 17  1  0  0  0  0
 16 18  1  0  0  0  0
 18 19  1  0  0  0  0
 18 20  1  0  0  0  0
 20 21  1  0  0  0  0
 22 23  2  0  0  0  0
 22 24  1  0  0  0  0
 24 25  1  0  0  0  0
 24 26  1  0  0  0  0
 26 27  1  0  0  0  0
 26 28  1  0  0  0  0
 26 29  1  0  0  0  0
M  END
$$$$

  -OEChem-04042215593D

 29 29  0     1  0  0  0  0  0999 V2000
   -2.4816   -4.5144    0.4061 H   0  0  0  0  0  0  0  0  0  0  0  0
   -2.6155   -3.5578   -0.1068 C   0  0  0  0  0  0  0  0  0  0  0  0
   -3.5276   -3.0840    0.2635 H   0  0  0  0  0  0  0  0  0  0  0  0
   -2.7176   -3.7462   -1.1784 H   0  0  0  0  0  0  0  0  0  0  0  0
   -1.4222   -2.6571    0.1498 C   0  0  0  0  0  0  0  0  0  0  0  0
   -0.5317   -3.0321    0.8907 O   0  0  0  0  0  0  0  0  0  0  0  0
   -1.3792   -1.4077   -0.4356 N   0  0  0  0  0  0  0  0  0  0  0  0
   -2.0700   -1.2650   -1.1663 H   0  0  0  0  0  0  0  0  0  0  0  0
   -0.1425   -0.6124   -0.5612 C   0  0  1  0  0  0  0  0  0  0  0  0
    0.5816   -1.1841   -1.1534 H   0  0  0  0  0  0  0  0  0  0  0  0
   -0.4701    0.6980   -1.2972 C   0  0  0  0  0  0  0  0  0  0  0  0
   -1.1773    1.2919   -0.7110 H   0  0  0  0  0  0  0  0  0  0  0  0
    0.4498    1.2822   -1.4010 H   0  0  0  0  0  0  0  0  0  0  0  0
   -1.0230    0.4542   -2.6720 C   0  0  0  0  0  0  0  0  0  0  0  0
   -0.5062   -0.4530   -3.5864 N   0  0  0  0  0  0  0  0  0  0  0  0
   -1.2452   -0.3639   -4.6658 C   0  0  0  0  0  0  0  0  0  0  0  0
   -1.0914   -0.9407   -5.5736 H   0  0  0  0  0  0  0  0  0  0  0  0
   -2.2480    0.5675   -4.4715 N   0  0  0  0  0  0  0  0  0  0  0  0
   -2.9409    0.8377   -5.1676 H   0  0  0  0  0  0  0  0  0  0  0  0
   -2.1097    1.0913   -3.2030 C   0  0  0  0  0  0  0  0  0  0  0  0
   -2.7124    1.8568   -2.7225 H   0  0  0  0  0  0  0  0  0  0  0  0
    0.5421   -0.2611    0.7795 C   0  0  0  0  0  0  0  0  0  0  0  0
    1.7578   -0.1197    0.8242 O   0  0  0  0  0  0  0  0  0  0  0  0
   -0.2242    0.1912    1.8396 N   0  0  0  0  0  0  0  0  0  0  0  0
   -1.2039   -0.0719    1.8082 H   0  0  0  0  0  0  0  0  0  0  0  0
    0.3557    0.5464    3.1283 C   0  0  0  0  0  0  0  0  0  0  0  0
    1.0642    1.3736    3.0159 H   0  0  0  0  0  0  0  0  0  0  0  0
   -0.4297    0.8588    3.8229 H   0  0  0  0  0  0  0  0  0  0  0  0
    0.8815   -0.3118    3.5598 H   0  0  0  0  0  0  0  0  0  0  0  0
  1  2  1  0  0  0  0
  2  3  1  0  0  0  0
  2  4  1  0  0  0  0
  2  5  1  0  0  0  0
  5  6  2  0  0  0  0
  5  7  1  0  0  0  0
  7  8  1  0  0  0  0
  7  9  1  0  0  0  0
  9 10  1  0  0  0  0
  9 11  1  0  0  0  0
  9 22  1  0  0  0  0
 11 12  1  0  0  0  0
 11 13  1  0  0  0  0
 11 14  1  0  0  0  0
 14 15  1  0  0  0  0
 14 20  2  0  0  0  0
 15 16  2  0  0  0  0
 16 17  1  0  0  0  0
 16 18  1  0  0  0  0
 18 19  1  0  0  0  0
 18 20  1  0  0  0  0
 20 21  1  0  0  0  0
 22 23  2  0  0  0  0
 22 24  1  0  0  0  0
 24 25  1  0  0  0  0
 24 26  1  0  0  0  0
 26 27  1  0  0  0  0
 26 28  1  0  0  0  0
 26 29  1  0  0  0  0
M  END
$$$$

  -OEChem-04042215593D

 29 29  0     1  0  0  0  0  0999 V2000
   -2.4774   -4.5206    0.4033 H   0  0  0  0  0  0  0  0  0  0  0  0
   -2.6082   -3.5690   -0.1199 C   0  0  0  0  0  0  0  0  0  0  0  0
   -3.5373   -3.1052    0.2197 H   0  0  0  0  0  0  0  0  0  0  0  0
   -2.6757   -3.7651   -1.1927 H   0  0  0  0  0  0  0  0  0  0  0  0
   -1.4342   -2.6512    0.1653 C   0  0  0  0  0  0  0  0  0  0  0  0
   -0.5612   -3.0117    0.9340 O   0  0  0  0  0  0  0  0  0  0  0  0
   -1.3885   -1.4053   -0.4275 N   0  0  0  0  0  0  0  0  0  0  0  0
   -2.0527   -1.2867   -1.1878 H   0  0  0  0  0  0  0  0  0  0  0  0
   -0.1471   -0.6186   -0.5557 C   0  0  1  0  0  0  0  0  0  0  0  0
    0.5740   -1.1971   -1.1448 H   0  0  0  0  0  0  0  0  0  0  0  0
   -0.4674    0.6916   -1.2968 C   0  0  0  0  0  0  0  0  0  0  0  0
   -1.1686    1.2935   -0.7113 H   0  0  0  0  0  0  0  0  0  0  0  0
    0.4587    1.2659   -1.4010 H   0  0  0  0  0  0  0  0  0  0  0  0
   -1.0244    0.4599   -2.6737 C   0  0  0  0  0  0  0  0  0  0  0  0
   -0.7302   -0.6260   -3.4892 N   0  0  0  0  0  0  0  0  0  0  0  0
   -1.4009   -0.4546   -4.6031 C   0  0  0  0  0  0  0  0  0  0  0  0
   -1.3754   -1.1295   -5.4542 H   0  0  0  0  0  0  0  0  0  0  0  0
   -2.1475    0.7059   -4.5269 N   0  0  0  0  0  0  0  0  0  0  0  0
   -2.7428    1.0709   -5.2688 H   0  0  0  0  0  0  0  0  0  0  0  0
   -1.9117    1.2899   -3.2999 C   0  0  0  0  0  0  0  0  0  0  0  0
   -2.3199    2.2167   -2.9071 H   0  0  0  0  0  0  0  0  0  0  0  0
    0.5396   -0.2637    0.7828 C   0  0  0  0  0  0  0  0  0  0  0  0
    1.7558   -0.1251    0.8243 O   0  0  0  0  0  0  0  0  0  0  0  0
   -0.2240    0.1992    1.8401 N   0  0  0  0  0  0  0  0  0  0  0  0
   -1.2047   -0.0615    1.8111 H   0  0  0  0  0  0  0  0  0  0  0  0
    0.3581    0.5603    3.1261 C   0  0  0  0  0  0  0  0  0  0  0  0
    1.0714    1.3826    3.0073 H   0  0  0  0  0  0  0  0  0  0  0  0
   -0.4259    0.8821    3.8180 H   0  0  0  0  0  0  0  0  0  0  0  0
    0.8786   -0.2979    3.5641 H   0  0  0  0  0  0  0  0  0  0  0  0
  1  2  1  0  0  0  0
  2  3  1  0  0  0  0
  2  4  1  0  0  0  0
  2  5  1  0  0  0  0
  5  6  2  0  0  0  0
  5  7  1  0  0  0  0
  7  8  1  0  0  0  0
  7  9  1  0  0  0  0
  9 10  1  0  0  0  0
  9 11  1  0  0  0  0
  9 22  1  0  0  0  0
 11 12  1  0  0  0  0
 11 13  1  0  0  0  0
 11 14  1  0  0  0  0
 14 15  1  0  0  0  0
 14 20  2  0  0  0  0
 15 16  2  0  0  0  0
 16 17  1  0  0  0  0
 16 18  1  0  0  0  0
 18 19  1  0  0  0  0
 18 20  1  0  0  0  0
 20 21  1  0  0  0  0
 22 23  2  0  0  0  0
 22 24  1  0  0  0  0
 24 25  1  0  0  0  0
 24 26  1  0  0  0  0
 26 27  1  0  0  0  0
 26 28  1  0  0  0  0
 26 29  1  0  0  0  0
M  END
$$$$

  -OEChem-04042215593D

 29 29  0     1  0  0  0  0  0999 V2000
   -2.4774   -4.5298    0.3888 H   0  0  0  0  0  0  0  0  0  0  0  0
   -2.6059   -3.5777   -0.1336 C   0  0  0  0  0  0  0  0  0  0  0  0
   -3.5460   -3.1231    0.1874 H   0  0  0  0  0  0  0  0  0  0  0  0
   -2.6494   -3.7703   -1.2085 H   0  0  0  0  0  0  0  0  0  0  0  0
   -1.4471   -2.6500    0.1793 C   0  0  0  0  0  0  0  0  0  0  0  0
   -0.5905   -3.0005    0.9713 O   0  0  0  0  0  0  0  0  0  0  0  0
   -1.3963   -1.4075   -0.4187 N   0  0  0  0  0  0  0  0  0  0  0  0
   -2.0342   -1.3102   -1.2057 H   0  0  0  0  0  0  0  0  0  0  0  0
   -0.1522   -0.6277   -0.5486 C   0  0  1  0  0  0  0  0  0  0  0  0
    0.5651   -1.2109   -1.1377 H   0  0  0  0  0  0  0  0  0  0  0  0
   -0.4721    0.6810   -1.2932 C   0  0  0  0  0  0  0  0  0  0  0  0
   -1.1758    1.2795   -0.7073 H   0  0  0  0  0  0  0  0  0  0  0  0
    0.4527    1.2578   -1.3938 H   0  0  0  0  0  0  0  0  0  0  0  0
   -1.0336    0.4598   -2.6713 C   0  0  0  0  0  0  0  0  0  0  0  0
   -0.9976   -0.7345   -3.3838 N   0  0  0  0  0  0  0  0  0  0  0  0
   -1.5745   -0.5015   -4.5388 C   0  0  0  0  0  0  0  0  0  0  0  0
   -1.6961   -1.2339   -5.3319 H   0  0  0  0  0  0  0  0  0  0  0  0
   -2.0092    0.8089   -4.5907 N   0  0  0  0  0  0  0  0  0  0  0  0
   -2.4764    1.2419   -5.3857 H   0  0  0  0  0  0  0  0  0  0  0  0
   -1.6684    1.4230   -3.4040 C   0  0  0  0  0  0  0  0  0  0  0  0
   -1.8434    2.4528   -3.1058 H   0  0  0  0  0  0  0  0  0  0  0  0
    0.5383   -0.2679    0.7866 C   0  0  0  0  0  0  0  0  0  0  0  0
    1.7548   -0.1273    0.8204 O   0  0  0  0  0  0  0  0  0  0  0  0
   -0.2205    0.2048    1.8429 N   0  0  0  0  0  0  0  0  0  0  0  0
   -1.2002   -0.0609    1.8222 H   0  0  0  0  0  0  0  0  0  0  0  0
    0.3674    0.5819    3.1216 C   0  0  0  0  0  0  0  0  0  0  0  0
    1.0713    1.4103    2.9906 H   0  0  0  0  0  0  0  0  0  0  0  0
   -0.4143    0.9016    3.8173 H   0  0  0  0  0  0  0  0  0  0  0  0
    0.8996   -0.2675    3.5624 H   0  0  0  0  0  0  0  0  0  0  0  0
  1  2  1  0  0  0  0
  2  3  1  0  0  0  0
  2  4  1  0  0  0  0
  2  5  1  0  0  0  0
  5  6  2  0  0  0  0
  5  7  1  0  0  0  0
  7  8  1  0  0  0  0
  7  9  1  0  0  0  0
  9 10  1  0  0  0  0
  9 11  1  0  0  0  0
  9 22  1  0  0  0  0
 11 12  1  0  0  0  0
 11 13  1  0  0  0  0
 11 14  1  0  0  0  0
 14 15  1  0  0  0  0
 14 20  2  0  0  0  0
 15 16  2  0  0  0  0
 16 17  1  0  0  0  0
 16 18  1  0  0  0  0
 18 19  1  0  0  0  0
 18 20  1  0  0  0  0
 20 21  1  0  0  0  0
 22 23  2  0  0  0  0
 22 24  1  0  0  0  0
 24 25  1  0  0  0  0
 24 26  1  0  0  0  0
 26 27  1  0  0  0  0
 26 28  1  0  0  0  0
 26 29  1  0  0  0  0
M  END
$$$$

  -OEChem-04042215593D

 29 29  0     1  0  0  0  0  0999 V2000
   -2.4489   -4.5465    0.3776 H   0  0  0  0  0  0  0  0  0  0  0  0
   -2.6022   -3.5823   -0.1153 C   0  0  0  0  0  0  0  0  0  0  0  0
   -3.5368   -3.1462    0.2450 H   0  0  0  0  0  0  0  0  0  0  0  0
   -2.6754   -3.7467   -1.1930 H   0  0  0  0  0  0  0  0  0  0  0  0
   -1.4442   -2.6506    0.1883 C   0  0  0  0  0  0  0  0  0  0  0  0
   -0.5807   -2.9973    0.9748 O   0  0  0  0  0  0  0  0  0  0  0  0
   -1.4023   -1.4081   -0.4097 N   0  0  0  0  0  0  0  0  0  0  0  0
   -2.0345   -1.3209   -1.2048 H   0  0  0  0  0  0  0  0  0  0  0  0
   -0.1637   -0.6223   -0.5481 C   0  0  1  0  0  0  0  0  0  0  0  0
    0.5516   -1.2033   -1.1411 H   0  0  0  0  0  0  0  0  0  0  0  0
   -0.4911    0.6841   -1.2950 C   0  0  0  0  0  0  0  0  0  0  0  0
   -1.2044    1.2692   -0.7074 H   0  0  0  0  0  0  0  0  0  0  0  0
    0.4252    1.2756   -1.3896 H   0  0  0  0  0  0  0  0  0  0  0  0
   -1.0582    0.4691   -2.6732 C   0  0  0  0  0  0  0  0  0  0  0  0
   -1.2954   -0.7607   -3.2829 N   0  0  0  0  0  0  0  0  0  0  0  0
   -1.7496   -0.5014   -4.4866 C   0  0  0  0  0  0  0  0  0  0  0  0
   -2.0221   -1.2519   -5.2232 H   0  0  0  0  0  0  0  0  0  0  0  0
   -1.8330    0.8648   -4.6739 N   0  0  0  0  0  0  0  0  0  0  0  0
   -2.1436    1.3230   -5.5292 H   0  0  0  0  0  0  0  0  0  0  0  0
   -1.3919    1.4849   -3.5242 C   0  0  0  0  0  0  0  0  0  0  0  0
   -1.3048    2.5494   -3.3261 H   0  0  0  0  0  0  0  0  0  0  0  0
    0.5339   -0.2589    0.7820 C   0  0  0  0  0  0  0  0  0  0  0  0
    1.7502   -0.1149    0.8073 O   0  0  0  0  0  0  0  0  0  0  0  0
   -0.2200    0.2100    1.8433 N   0  0  0  0  0  0  0  0  0  0  0  0
   -1.1992   -0.0584    1.8257 H   0  0  0  0  0  0  0  0  0  0  0  0
    0.3735    0.5770    3.1225 C   0  0  0  0  0  0  0  0  0  0  0  0
    1.0986    1.3870    2.9918 H   0  0  0  0  0  0  0  0  0  0  0  0
   -0.4022    0.9186    3.8141 H   0  0  0  0  0  0  0  0  0  0  0  0
    0.8826   -0.2842    3.5678 H   0  0  0  0  0  0  0  0  0  0  0  0
  1  2  1  0  0  0  0
  2  3  1  0  0  0  0
  2  4  1  0  0  0  0
  2  5  1  0  0  0  0
  5  6  2  0  0  0  0
  5  7  1  0  0  0  0
  7  8  1  0  0  0  0
  7  9  1  0  0  0  0
  9 10  1  0  0  0  0
  9 11  1  0  0  0  0
  9 22  1  0  0  0  0
 11 12  1  0  0  0  0
 11 13  1  0  0  0  0
 11 14  1  0  0  0  0
 14 15  1  0  0  0  0
 14 20  2  0  0  0  0
 15 16  2  0  0  0  0
 16 17  1  0  0  0  0
 16 18  1  0  0  0  0
 18 19  1  0  0  0  0
 18 20  1  0  0  0  0
 20 21  1  0  0  0  0
 22 23  2  0  0  0  0
 22 24  1  0  0  0  0
 24 25  1  0  0  0  0
 24 26  1  0  0  0  0
 26 27  1  0  0  0  0
 26 28  1  0  0  0  0
 26 29  1  0  0  0  0
M  END
$$$$

  -OEChem-04042215593D

 29 29  0     1  0  0  0  0  0999 V2000
   -2.4580   -4.5426    0.3880 H   0  0  0  0  0  0  0  0  0  0  0  0
   -2.6058   -3.5816   -0.1128 C   0  0  0  0  0  0  0  0  0  0  0  0
   -3.5382   -3.1373    0.2434 H   0  0  0  0  0  0  0  0  0  0  0  0
   -2.6794   -3.7537   -1.1894 H   0  0  0  0  0  0  0  0  0  0  0  0
   -1.4431   -2.6534    0.1838 C   0  0  0  0  0  0  0  0  0  0  0  0
   -0.5671   -3.0083    0.9527 O   0  0  0  0  0  0  0  0  0  0  0  0
   -1.4060   -1.4073   -0.4060 N   0  0  0  0  0  0  0  0  0  0  0  0
   -2.0494   -1.3083   -1.1930 H   0  0  0  0  0  0  0  0  0  0  0  0
   -0.1724   -0.6157   -0.5484 C   0  0  1  0  0  0  0  0  0  0  0  0
    0.5404   -1.1929   -1.1480 H   0  0  0  0  0  0  0  0  0  0  0  0
   -0.5041    0.6927   -1.2911 C   0  0  0  0  0  0  0  0  0  0  0  0
   -1.2271    1.2618   -0.6993 H   0  0  0  0  0  0  0  0  0  0  0  0
    0.4044    1.2975   -1.3747 H   0  0  0  0  0  0  0  0  0  0  0  0
   -1.0752    0.4897   -2.6710 C   0  0  0  0  0  0  0  0  0  0  0  0
   -1.5873   -0.7003   -3.1871 N   0  0  0  0  0  0  0  0  0  0  0  0
   -1.9215   -0.4551   -4.4326 C   0  0  0  0  0  0  0  0  0  0  0  0
   -2.3487   -1.1835   -5.1162 H   0  0  0  0  0  0  0  0  0  0  0  0
   -1.6512    0.8634   -4.7427 N   0  0  0  0  0  0  0  0  0  0  0  0
   -1.8062    1.2979   -5.6510 H   0  0  0  0  0  0  0  0  0  0  0  0
   -1.1066    1.4648   -3.6281 C   0  0  0  0  0  0  0  0  0  0  0  0
   -0.7556    2.4873   -3.5212 H   0  0  0  0  0  0  0  0  0  0  0  0
    0.5324   -0.2576    0.7790 C   0  0  0  0  0  0  0  0  0  0  0  0
    1.7479   -0.1047    0.7947 O   0  0  0  0  0  0  0  0  0  0  0  0
   -0.2162    0.2013    1.8481 N   0  0  0  0  0  0  0  0  0  0  0  0
   -1.1945   -0.0708    1.8364 H   0  0  0  0  0  0  0  0  0  0  0  0
    0.3837    0.5752    3.1224 C   0  0  0  0  0  0  0  0  0  0  0  0
    1.0840    1.4063    2.9886 H   0  0  0  0  0  0  0  0  0  0  0  0
   -0.3919    0.8899    3.8271 H   0  0  0  0  0  0  0  0  0  0  0  0
    0.9227   -0.2745    3.5545 H   0  0  0  0  0  0  0  0  0  0  0  0
  1  2  1  0  0  0  0
  2  3  1  0  0  0  0
  2  4  1  0  0  0  0
  2  5  1  0  0  0  0
  5  6  2  0  0  0  0
  5  7  1  0  0  0  0
  7  8  1  0  0  0  0
  7  9  1  0  0  0  0
  9 10  1  0  0  0  0
  9 11  1  0  0  0  0
  9 22  1  0  0  0  0
 11 12  1  0  0  0  0
 11 13  1  0  0  0  0
 11 14  1  0  0  0  0
 14 15  1  0  0  0  0
 14 20  2  0  0  0  0
 15 16  2  0  0  0  0
 16 17  1  0  0  0  0
 16 18  1  0  0  0  0
 18 19  1  0  0  0  0
 18 20  1  0  0  0  0
 20 21  1  0  0  0  0
 22 23  2  0  0  0  0
 22 24  1  0  0  0  0
 24 25  1  0  0  0  0
 24 26  1  0  0  0  0
 26 27  1  0  0  0  0
 26 28  1  0  0  0  0
 26 29  1  0  0  0  0
M  END
$$$$

  -OEChem-04042215593D

 29 29  0     1  0  0  0  0  0999 V2000
   -2.4538   -4.5393    0.3566 H   0  0  0  0  0  0  0  0  0  0  0  0
   -2.6131   -3.5658   -0.1153 C   0  0  0  0  0  0  0  0  0  0  0  0
   -3.5297   -3.1255    0.2838 H   0  0  0  0  0  0  0  0  0  0  0  0
   -2.7258   -3.7115   -1.1924 H   0  0  0  0  0  0  0  0  0  0  0  0
   -1.4349   -2.6512    0.1624 C   0  0  0  0  0  0  0  0  0  0  0  0
   -0.5413   -3.0233    0.9025 O   0  0  0  0  0  0  0  0  0  0  0  0
   -1.3986   -1.3993   -0.4149 N   0  0  0  0  0  0  0  0  0  0  0  0
   -2.0643   -1.2732   -1.1806 H   0  0  0  0  0  0  0  0  0  0  0  0
   -0.1702   -0.5996   -0.5517 C   0  0  1  0  0  0  0  0  0  0  0  0
    0.5453   -1.1711   -1.1532 H   0  0  0  0  0  0  0  0  0  0  0  0
   -0.5026    0.7110   -1.2907 C   0  0  0  0  0  0  0  0  0  0  0  0
   -1.2343    1.2716   -0.7017 H   0  0  0  0  0  0  0  0  0  0  0  0
    0.4023    1.3230   -1.3619 H   0  0  0  0  0  0  0  0  0  0  0  0
   -1.0664    0.5104   -2.6746 C   0  0  0  0  0  0  0  0  0  0  0  0
   -1.8300   -0.5757   -3.1038 N   0  0  0  0  0  0  0  0  0  0  0  0
   -2.0688   -0.3832   -4.3802 C   0  0  0  0  0  0  0  0  0  0  0  0
   -2.6393   -1.0565   -5.0138 H   0  0  0  0  0  0  0  0  0  0  0  0
   -1.4877    0.7987   -4.7965 N   0  0  0  0  0  0  0  0  0  0  0  0
   -1.5170    1.1668   -5.7459 H   0  0  0  0  0  0  0  0  0  0  0  0
   -0.8443    1.3656   -3.7173 C   0  0  0  0  0  0  0  0  0  0  0  0
   -0.2674    2.2857   -3.6874 H   0  0  0  0  0  0  0  0  0  0  0  0
    0.5331   -0.2498    0.7785 C   0  0  0  0  0  0  0  0  0  0  0  0
    1.7482   -0.0945    0.7945 O   0  0  0  0  0  0  0  0  0  0  0  0
   -0.2157    0.1952    1.8533 N   0  0  0  0  0  0  0  0  0  0  0  0
   -1.1956   -0.0709    1.8375 H   0  0  0  0  0  0  0  0  0  0  0  0
    0.3844    0.5585    3.1304 C   0  0  0  0  0  0  0  0  0  0  0  0
    1.0904    1.3856    3.0011 H   0  0  0  0  0  0  0  0  0  0  0  0
   -0.3903    0.8747    3.8353 H   0  0  0  0  0  0  0  0  0  0  0  0
    0.9174   -0.2967    3.5588 H   0  0  0  0  0  0  0  0  0  0  0  0
  1  2  1  0  0  0  0
  2  3  1  0  0  0  0
  2  4  1  0  0  0  0
  2  5  1  0  0  0  0
  5  6  2  0  0  0  0
  5  7  1  0  0  0  0
  7  8  1  0  0  0  0
  7  9  1  0  0  0  0
  9 10  1  0  0  0  0
  9 11  1  0  0  0  0
  9 22  1  0  0  0  0
 11 12  1  0  0  0  0
 11 13  1  0  0  0  0
 11 14  1  0  0  0  0
 14 15  1  0  0  0  0
 14 20  2  0  0  0  0
 15 16  2  0  0  0  0
 16 17  1  0  0  0  0
 16 18  1  0  0  0  0
 18 19  1  0  0  0  0
 18 20  1  0  0  0  0
 20 21  1  0  0  0  0
 22 23  2  0  0  0  0
 22 24  1  0  0  0  0
 24 25  1  0  0  0  0
 24 26  1  0  0  0  0
 26 27  1  0  0  0  0
 26 28  1  0  0  0  0
 26 29  1  0  0  0  0
M  END
$$$$

  -OEChem-04042215593D

 29 29  0     1  0  0  0  0  0999 V2000
   -2.4702   -4.5161    0.3399 H   0  0  0  0  0  0  0  0  0  0  0  0
   -2.6237   -3.5372   -0.1226 C   0  0  0  0  0  0  0  0  0  0  0  0
   -3.5192   -3.0807    0.3059 H   0  0  0  0  0  0  0  0  0  0  0  0
   -2.7714   -3.6748   -1.1965 H   0  0  0  0  0  0  0  0  0  0  0  0
   -1.4200   -2.6478    0.1252 C   0  0  0  0  0  0  0  0  0  0  0  0
   -0.5078   -3.0452    0.8286 O   0  0  0  0  0  0  0  0  0  0  0  0
   -1.3782   -1.3895   -0.4371 N   0  0  0  0  0  0  0  0  0  0  0  0
   -2.0691   -1.2263   -1.1737 H   0  0  0  0  0  0  0  0  0  0  0  0
   -0.1530   -0.5830   -0.5582 C   0  0  1  0  0  0  0  0  0  0  0  0
    0.5695   -1.1465   -1.1590 H   0  0  0  0  0  0  0  0  0  0  0  0
   -0.4871    0.7301   -1.2909 C   0  0  0  0  0  0  0  0  0  0  0  0
   -1.2270    1.2863   -0.7081 H   0  0  0  0  0  0  0  0  0  0  0  0
    0.4158    1.3461   -1.3533 H   0  0  0  0  0  0  0  0  0  0  0  0
   -1.0367    0.5200   -2.6779 C   0  0  0  0  0  0  0  0  0  0  0  0
   -2.0161   -0.4087   -3.0317 N   0  0  0  0  0  0  0  0  0  0  0  0
   -2.1889   -0.2899   -4.3279 C   0  0  0  0  0  0  0  0  0  0  0  0
   -2.8869   -0.8772   -4.9179 H   0  0  0  0  0  0  0  0  0  0  0  0
   -1.3532    0.6891   -4.8292 N   0  0  0  0  0  0  0  0  0  0  0  0
   -1.2902    0.9648   -5.8080 H   0  0  0  0  0  0  0  0  0  0  0  0
   -0.6169    1.2040   -3.7839 C   0  0  0  0  0  0  0  0  0  0  0  0
    0.1438    1.9792   -3.8155 H   0  0  0  0  0  0  0  0  0  0  0  0
    0.5396   -0.2447    0.7800 C   0  0  0  0  0  0  0  0  0  0  0  0
    1.7546   -0.0901    0.8069 O   0  0  0  0  0  0  0  0  0  0  0  0
   -0.2173    0.1854    1.8553 N   0  0  0  0  0  0  0  0  0  0  0  0
   -1.1996   -0.0705    1.8260 H   0  0  0  0  0  0  0  0  0  0  0  0
    0.3723    0.5360    3.1408 C   0  0  0  0  0  0  0  0  0  0  0  0
    1.0798    1.3640    3.0262 H   0  0  0  0  0  0  0  0  0  0  0  0
   -0.4081    0.8454    3.8422 H   0  0  0  0  0  0  0  0  0  0  0  0
    0.9013   -0.3236    3.5652 H   0  0  0  0  0  0  0  0  0  0  0  0
  1  2  1  0  0  0  0
  2  3  1  0  0  0  0
  2  4  1  0  0  0  0
  2  5  1  0  0  0  0
  5  6  2  0  0  0  0
  5  7  1  0  0  0  0
  7  8  1  0  0  0  0
  7  9  1  0  0  0  0
  9 10  1  0  0  0  0
  9 11  1  0  0  0  0
  9 22  1  0  0  0  0
 11 12  1  0  0  0  0
 11 13  1  0  0  0  0
 11 14  1  0  0  0  0
 14 15  1  0  0  0  0
 14 20  2  0  0  0  0
 15 16  2  0  0  0  0
 16 17  1  0  0  0  0
 16 18  1  0  0  0  0
 18 19  1  0  0  0  0
 18 20  1  0  0  0  0
 20 21  1  0  0  0  0
 22 23  2  0  0  0  0
 22 24  1  0  0  0  0
 24 25  1  0  0  0  0
 24 26  1  0  0  0  0
 26 27  1  0  0  0  0
 26 28  1  0  0  0  0
 26 29  1  0  0  0  0
M  END
$$$$

  -OEChem-04042215593D

 29 29  0     1  0  0  0  0  0999 V2000
   -2.4811   -4.4955    0.2852 H   0  0  0  0  0  0  0  0  0  0  0  0
   -2.6318   -3.5039   -0.1505 C   0  0  0  0  0  0  0  0  0  0  0  0
   -3.5085   -3.0441    0.3119 H   0  0  0  0  0  0  0  0  0  0  0  0
   -2.8096   -3.6143   -1.2231 H   0  0  0  0  0  0  0  0  0  0  0  0
   -1.4088   -2.6382    0.0851 C   0  0  0  0  0  0  0  0  0  0  0  0
   -0.4860   -3.0622    0.7584 O   0  0  0  0  0  0  0  0  0  0  0  0
   -1.3555   -1.3739   -0.4618 N   0  0  0  0  0  0  0  0  0  0  0  0
   -2.0700   -1.1691   -1.1652 H   0  0  0  0  0  0  0  0  0  0  0  0
   -0.1301   -0.5652   -0.5615 C   0  0  1  0  0  0  0  0  0  0  0  0
    0.5995   -1.1217   -1.1599 H   0  0  0  0  0  0  0  0  0  0  0  0
   -0.4676    0.7479   -1.2885 C   0  0  0  0  0  0  0  0  0  0  0  0
   -1.2148    1.3044   -0.7152 H   0  0  0  0  0  0  0  0  0  0  0  0
    0.4336    1.3665   -1.3482 H   0  0  0  0  0  0  0  0  0  0  0  0
   -0.9992    0.5127   -2.6759 C   0  0  0  0  0  0  0  0  0  0  0  0
   -2.1523   -0.2151   -2.9691 N   0  0  0  0  0  0  0  0  0  0  0  0
   -2.2816   -0.1874   -4.2758 C   0  0  0  0  0  0  0  0  0  0  0  0
   -3.0845   -0.6651   -4.8305 H   0  0  0  0  0  0  0  0  0  0  0  0
   -1.2485    0.5365   -4.8400 N   0  0  0  0  0  0  0  0  0  0  0  0
   -1.1216    0.7012   -5.8373 H   0  0  0  0  0  0  0  0  0  0  0  0
   -0.4308    0.9851   -3.8248 C   0  0  0  0  0  0  0  0  0  0  0  0
    0.4738    1.5821   -3.9024 H   0  0  0  0  0  0  0  0  0  0  0  0
    0.5490   -0.2393    0.7863 C   0  0  0  0  0  0  0  0  0  0  0  0
    1.7643   -0.0897    0.8273 O   0  0  0  0  0  0  0  0  0  0  0  0
   -0.2178    0.1798    1.8589 N   0  0  0  0  0  0  0  0  0  0  0  0
   -1.2041   -0.0570    1.8116 H   0  0  0  0  0  0  0  0  0  0  0  0
    0.3580    0.5165    3.1544 C   0  0  0  0  0  0  0  0  0  0  0  0
    1.0829    1.3310    3.0526 H   0  0  0  0  0  0  0  0  0  0  0  0
   -0.4271    0.8400    3.8443 H   0  0  0  0  0  0  0  0  0  0  0  0
    0.8636   -0.3541    3.5851 H   0  0  0  0  0  0  0  0  0  0  0  0
  1  2  1  0  0  0  0
  2  3  1  0  0  0  0
  2  4  1  0  0  0  0
  2  5  1  0  0  0  0
  5  6  2  0  0  0  0
  5  7  1  0  0  0  0
  7  8  1  0  0  0  0
  7  9  1  0  0  0  0
  9 10  1  0  0  0  0
  9 11  1  0  0  0  0
  9 22  1  0  0  0  0
 11 12  1  0  0  0  0
 11 13  1  0  0  0  0
 11 14  1  0  0  0  0
 14 15  1  0  0  0  0
 14 20  2  0  0  0  0
 15 16  2  0  0  0  0
 16 17  1  0  0  0  0
 16 18  1  0  0  0  0
 18 19  1  0  0  0  0
 18 20  1  0  0  0  0
 20 21  1  0  0  0  0
 22 23  2  0  0  0  0
 22 24  1  0  0  0  0
 24 25  1  0  0  0  0
 24 26  1  0  0  0  0
 26 27  1  0  0  0  0
 26 28  1  0  0  0  0
 26 29  1  0  0  0  0
M  END
$$$$

  -OEChem-04042215593D

 29 29  0     1  0  0  0  0  0999 V2000
   -2.5058   -4.4680    0.2545 H   0  0  0  0  0  0  0  0  0  0  0  0
   -2.6413   -3.4731   -0.1789 C   0  0  0  0  0  0  0  0  0  0  0  0
   -3.5053   -2.9976    0.2912 H   0  0  0  0  0  0  0  0  0  0  0  0
   -2.8302   -3.5786   -1.2500 H   0  0  0  0  0  0  0  0  0  0  0  0
   -1.4001   -2.6310    0.0476 C   0  0  0  0  0  0  0  0  0  0  0  0
   -0.4737   -3.0766    0.7015 O   0  0  0  0  0  0  0  0  0  0  0  0
   -1.3328   -1.3623   -0.4872 N   0  0  0  0  0  0  0  0  0  0  0  0
   -2.0663   -1.1200   -1.1579 H   0  0  0  0  0  0  0  0  0  0  0  0
   -0.1052   -0.5534   -0.5647 C   0  0  1  0  0  0  0  0  0  0  0  0
    0.6326   -1.1020   -1.1607 H   0  0  0  0  0  0  0  0  0  0  0  0
   -0.4524    0.7582   -1.2849 C   0  0  0  0  0  0  0  0  0  0  0  0
   -1.2062    1.3145   -0.7202 H   0  0  0  0  0  0  0  0  0  0  0  0
    0.4448    1.3819   -1.3472 H   0  0  0  0  0  0  0  0  0  0  0  0
   -0.9676    0.4913   -2.6692 C   0  0  0  0  0  0  0  0  0  0  0  0
   -2.2442    0.0010   -2.9347 N   0  0  0  0  0  0  0  0  0  0  0  0
   -2.3430   -0.0656   -4.2428 C   0  0  0  0  0  0  0  0  0  0  0  0
   -3.2218   -0.4084   -4.7819 H   0  0  0  0  0  0  0  0  0  0  0  0
   -1.1680    0.3633   -4.8315 N   0  0  0  0  0  0  0  0  0  0  0  0
   -0.9944    0.4078   -5.8343 H   0  0  0  0  0  0  0  0  0  0  0  0
   -0.2907    0.7255   -3.8316 C   0  0  0  0  0  0  0  0  0  0  0  0
    0.7187    1.1164   -3.9272 H   0  0  0  0  0  0  0  0  0  0  0  0
    0.5591   -0.2369    0.7921 C   0  0  0  0  0  0  0  0  0  0  0  0
    1.7743   -0.0927    0.8475 O   0  0  0  0  0  0  0  0  0  0  0  0
   -0.2179    0.1756    1.8597 N   0  0  0  0  0  0  0  0  0  0  0  0
   -1.2061   -0.0500    1.7987 H   0  0  0  0  0  0  0  0  0  0  0  0
    0.3448    0.5063    3.1624 C   0  0  0  0  0  0  0  0  0  0  0  0
    1.0602    1.3305    3.0731 H   0  0  0  0  0  0  0  0  0  0  0  0
   -0.4486    0.8129    3.8504 H   0  0  0  0  0  0  0  0  0  0  0  0
    0.8585   -0.3622    3.5879 H   0  0  0  0  0  0  0  0  0  0  0  0
  1  2  1  0  0  0  0
  2  3  1  0  0  0  0
  2  4  1  0  0  0  0
  2  5  1  0  0  0  0
  5  6  2  0  0  0  0
  5  7  1  0  0  0  0
  7  8  1  0  0  0  0
  7  9  1  0  0  0  0
  9 10  1  0  0  0  0
  9 11  1  0  0  0  0
  9 22  1  0  0  0  0
 11 12  1  0  0  0  0
 11 13  1  0  0  0  0
 11 14  1  0  0  0  0
 14 15  1  0  0  0  0
 14 20  2  0  0  0  0
 15 16  2  0  0  0  0
 16 17  1  0  0  0  0
 16 18  1  0  0  0  0
 18 19  1  0  0  0  0
 18 20  1  0  0  0  0
 20 21  1  0  0  0  0
 22 23  2  0  0  0  0
 22 24  1  0  0  0  0
 24 25  1  0  0  0  0
 24 26  1  0  0  0  0
 26 27  1  0  0  0  0
 26 28  1  0  0  0  0
 26 29  1  0  0  0  0
M  END
$$$$

  -OEChem-04042215593D

 29 29  0     1  0  0  0  0  0999 V2000
   -2.5209   -4.4501    0.2502 H   0  0  0  0  0  0  0  0  0  0  0  0
   -2.6487   -3.4525   -0.1795 C   0  0  0  0  0  0  0  0  0  0  0  0
   -3.4930   -2.9621    0.3110 H   0  0  0  0  0  0  0  0  0  0  0  0
   -2.8642   -3.5535   -1.2460 H   0  0  0  0  0  0  0  0  0  0  0  0
   -1.3877   -2.6328    0.0184 C   0  0  0  0  0  0  0  0  0  0  0  0
   -0.4484   -3.0988    0.6382 O   0  0  0  0  0  0  0  0  0  0  0  0
   -1.3152   -1.3606   -0.5071 N   0  0  0  0  0  0  0  0  0  0  0  0
   -2.0730   -1.0856   -1.1351 H   0  0  0  0  0  0  0  0  0  0  0  0
   -0.0885   -0.5477   -0.5694 C   0  0  1  0  0  0  0  0  0  0  0  0
    0.6564   -1.0889   -1.1635 H   0  0  0  0  0  0  0  0  0  0  0  0
   -0.4492    0.7601   -1.2847 C   0  0  0  0  0  0  0  0  0  0  0  0
   -1.2092    1.3126   -0.7243 H   0  0  0  0  0  0  0  0  0  0  0  0
    0.4421    1.3919   -1.3507 H   0  0  0  0  0  0  0  0  0  0  0  0
   -0.9523    0.4694   -2.6662 C   0  0  0  0  0  0  0  0  0  0  0  0
   -2.2948    0.2448   -2.9515 N   0  0  0  0  0  0  0  0  0  0  0  0
   -2.3665    0.0807   -4.2526 C   0  0  0  0  0  0  0  0  0  0  0  0
   -3.2824   -0.1124   -4.8042 H   0  0  0  0  0  0  0  0  0  0  0  0
   -1.1084    0.1895   -4.8160 N   0  0  0  0  0  0  0  0  0  0  0  0
   -0.8997    0.1090   -5.8099 H   0  0  0  0  0  0  0  0  0  0  0  0
   -0.2042    0.4479   -3.8079 C   0  0  0  0  0  0  0  0  0  0  0  0
    0.8676    0.6092   -3.8851 H   0  0  0  0  0  0  0  0  0  0  0  0
    0.5656   -0.2361    0.7932 C   0  0  0  0  0  0  0  0  0  0  0  0
    1.7807   -0.0977    0.8597 O   0  0  0  0  0  0  0  0  0  0  0  0
   -0.2189    0.1692    1.8580 N   0  0  0  0  0  0  0  0  0  0  0  0
   -1.2086   -0.0460    1.7869 H   0  0  0  0  0  0  0  0  0  0  0  0
    0.3342    0.5004    3.1646 C   0  0  0  0  0  0  0  0  0  0  0  0
    1.0510    1.3240    3.0806 H   0  0  0  0  0  0  0  0  0  0  0  0
   -0.4642    0.8081    3.8464 H   0  0  0  0  0  0  0  0  0  0  0  0
    0.8439   -0.3683    3.5943 H   0  0  0  0  0  0  0  0  0  0  0  0
  1  2  1  0  0  0  0
  2  3  1  0  0  0  0
  2  4  1  0  0  0  0
  2  5  1  0  0  0  0
  5  6  2  0  0  0  0
  5  7  1  0  0  0  0
  7  8  1  0  0  0  0
  7  9  1  0  0  0  0
  9 10  1  0  0  0  0
  9 11  1  0  0  0  0
  9 22  1  0  0  0  0
 11 12  1  0  0  0  0
 11 13  1  0  0  0  0
 11 14  1  0  0  0  0
 14 15  1  0  0  0  0
 14 20  2  0  0  0  0
 15 16  2  0  0  0  0
 16 17  1  0  0  0  0
 16 18  1  0  0  0  0
 18 19  1  0  0  0  0
 18 20  1  0  0  0  0
 20 21  1  0  0  0  0
 22 23  2  0  0  0  0
 22 24  1  0  0  0  0
 24 25  1  0  0  0  0
 24 26  1  0  0  0  0
 26 27  1  0  0  0  0
 26 28  1  0  0  0  0
 26 29  1  0  0  0  0
M  END
$$$$

  -OEChem-04042215593D

 29 29  0     1  0  0  0  0  0999 V2000
   -2.5111   -4.4530    0.2833 H   0  0  0  0  0  0  0  0  0  0  0  0
   -2.6460   -3.4547   -0.1425 C   0  0  0  0  0  0  0  0  0  0  0  0
   -3.4708   -2.9590    0.3750 H   0  0  0  0  0  0  0  0  0  0  0  0
   -2.8965   -3.5551   -1.2012 H   0  0  0  0  0  0  0  0  0  0  0  0
   -1.3740   -2.6433    0.0142 C   0  0  0  0  0  0  0  0  0  0  0  0
   -0.4186   -3.1158    0.6035 O   0  0  0  0  0  0  0  0  0  0  0  0
   -1.3079   -1.3712   -0.5137 N   0  0  0  0  0  0  0  0  0  0  0  0
   -2.0904   -1.0780   -1.0988 H   0  0  0  0  0  0  0  0  0  0  0  0
   -0.0846   -0.5520   -0.5763 C   0  0  1  0  0  0  0  0  0  0  0  0
    0.6649   -1.0908   -1.1667 H   0  0  0  0  0  0  0  0  0  0  0  0
   -0.4495    0.7533   -1.2941 C   0  0  0  0  0  0  0  0  0  0  0  0
   -1.2111    1.3041   -0.7335 H   0  0  0  0  0  0  0  0  0  0  0  0
    0.4389    1.3890   -1.3618 H   0  0  0  0  0  0  0  0  0  0  0  0
   -0.9498    0.4631   -2.6765 C   0  0  0  0  0  0  0  0  0  0  0  0
   -2.2919    0.5320   -3.0268 N   0  0  0  0  0  0  0  0  0  0  0  0
   -2.3478    0.2731   -4.3129 C   0  0  0  0  0  0  0  0  0  0  0  0
   -3.2602    0.2517   -4.9023 H   0  0  0  0  0  0  0  0  0  0  0  0
   -1.0783    0.0312   -4.8043 N   0  0  0  0  0  0  0  0  0  0  0  0
   -0.8534   -0.1812   -5.7751 H   0  0  0  0  0  0  0  0  0  0  0  0
   -0.1819    0.1608   -3.7648 C   0  0  0  0  0  0  0  0  0  0  0  0
    0.9000    0.0611   -3.7881 H   0  0  0  0  0  0  0  0  0  0  0  0
    0.5640   -0.2369    0.7885 C   0  0  0  0  0  0  0  0  0  0  0  0
    1.7789   -0.1013    0.8610 O   0  0  0  0  0  0  0  0  0  0  0  0
   -0.2246    0.1653    1.8516 N   0  0  0  0  0  0  0  0  0  0  0  0
   -1.2155   -0.0407    1.7736 H   0  0  0  0  0  0  0  0  0  0  0  0
    0.3217    0.4944    3.1618 C   0  0  0  0  0  0  0  0  0  0  0  0
    1.0444    1.3135    3.0829 H   0  0  0  0  0  0  0  0  0  0  0  0
   -0.4797    0.8078    3.8375 H   0  0  0  0  0  0  0  0  0  0  0  0
    0.8224   -0.3772    3.5962 H   0  0  0  0  0  0  0  0  0  0  0  0
  1  2  1  0  0  0  0
  2  3  1  0  0  0  0
  2  4  1  0  0  0  0
  2  5  1  0  0  0  0
  5  6  2  0  0  0  0
  5  7  1  0  0  0  0
  7  8  1  0  0  0  0
  7  9  1  0  0  0  0
  9 10  1  0  0  0  0
  9 11  1  0  0  0  0
  9 22  1  0  0  0  0
 11 12  1  0  0  0  0
 11 13  1  0  0  0  0
 11 14  1  0  0  0  0
 14 15  1  0  0  0  0
 14 20  2  0  0  0  0
 15 16  2  0  0  0  0
 16 17  1  0  0  0  0
 16 18  1  0  0  0  0
 18 19  1  0  0  0  0
 18 20  1  0  0  0  0
 20 21  1  0  0  0  0
 22 23  2  0  0  0  0
 22 24  1  0  0  0  0
 24 25  1  0  0  0  0
 24 26  1  0  0  0  0
 26 27  1  0  0  0  0
 26 28  1  0  0  0  0
 26 29  1  0  0  0  0
M  END
$$$$

  -OEChem-04042215593D

 29 29  0     1  0  0  0  0  0999 V2000
   -2.4893   -4.4684    0.3053 H   0  0  0  0  0  0  0  0  0  0  0  0
   -2.6369   -3.4670   -0.1090 C   0  0  0  0  0  0  0  0  0  0  0  0
   -3.4448   -2.9751    0.4375 H   0  0  0  0  0  0  0  0  0  0  0  0
   -2.9205   -3.5604   -1.1601 H   0  0  0  0  0  0  0  0  0  0  0  0
   -1.3601   -2.6573    0.0142 C   0  0  0  0  0  0  0  0  0  0  0  0
   -0.3902   -3.1321    0.5768 O   0  0  0  0  0  0  0  0  0  0  0  0
   -1.3038   -1.3849   -0.5150 N   0  0  0  0  0  0  0  0  0  0  0  0
   -2.1074   -1.0788   -1.0609 H   0  0  0  0  0  0  0  0  0  0  0  0
   -0.0851   -0.5583   -0.5794 C   0  0  1  0  0  0  0  0  0  0  0  0
    0.6689   -1.0979   -1.1632 H   0  0  0  0  0  0  0  0  0  0  0  0
   -0.4463    0.7462   -1.3032 C   0  0  0  0  0  0  0  0  0  0  0  0
   -1.2119    1.2908   -0.7421 H   0  0  0  0  0  0  0  0  0  0  0  0
    0.4383    1.3877   -1.3649 H   0  0  0  0  0  0  0  0  0  0  0  0
   -0.9434    0.4743   -2.6920 C   0  0  0  0  0  0  0  0  0  0  0  0
   -2.2088    0.8373   -3.1318 N   0  0  0  0  0  0  0  0  0  0  0  0
   -2.2802    0.4751   -4.3915 C   0  0  0  0  0  0  0  0  0  0  0  0
   -3.1447    0.6250   -5.0322 H   0  0  0  0  0  0  0  0  0  0  0  0
   -1.0973   -0.1266   -4.7787 N   0  0  0  0  0  0  0  0  0  0  0  0
   -0.8964   -0.4841   -5.7114 H   0  0  0  0  0  0  0  0  0  0  0  0
   -0.2400   -0.1244   -3.6992 C   0  0  0  0  0  0  0  0  0  0  0  0
    0.7784   -0.4995   -3.6451 H   0  0  0  0  0  0  0  0  0  0  0  0
    0.5596   -0.2408    0.7869 C   0  0  0  0  0  0  0  0  0  0  0  0
    1.7740   -0.1042    0.8632 O   0  0  0  0  0  0  0  0  0  0  0  0
   -0.2331    0.1559    1.8491 N   0  0  0  0  0  0  0  0  0  0  0  0
   -1.2246   -0.0451    1.7672 H   0  0  0  0  0  0  0  0  0  0  0  0
    0.3082    0.4963    3.1586 C   0  0  0  0  0  0  0  0  0  0  0  0
    1.0398    1.3066    3.0737 H   0  0  0  0  0  0  0  0  0  0  0  0
   -0.4942    0.8275    3.8245 H   0  0  0  0  0  0  0  0  0  0  0  0
    0.7973   -0.3744    3.6079 H   0  0  0  0  0  0  0  0  0  0  0  0
  1  2  1  0  0  0  0
  2  3  1  0  0  0  0
  2  4  1  0  0  0  0
  2  5  1  0  0  0  0
  5  6  2  0  0  0  0
  5  7  1  0  0  0  0
  7  8  1  0  0  0  0
  7  9  1  0  0  0  0
  9 10  1  0  0  0  0
  9 11  1  0  0  0  0
  9 22  1  0  0  0  0
 11 12  1  0  0  0  0
 11 13  1  0  0  0  0
 11 14  1  0  0  0  0
 14 15  1  0  0  0  0
 14 20  2  0  0  0  0
 15 16  2  0  0  0  0
 16 17  1  0  0  0  0
 16 18  1  0  0  0  0
 18 19  1  0  0  0  0
 18 20  1  0  0  0  0
 20 21  1  0  0  0  0
 22 23  2  0  0  0  0
 22 24  1  0  0  0  0
 24 25  1  0  0  0  0
 24 26  1  0  0  0  0
 26 27  1  0  0  0  0
 26 28  1  0  0  0  0
 26 29  1  0  0  0  0
M  END
$$$$

  -OEChem-04042215593D

 29 29  0     1  0  0  0  0  0999 V2000
   -2.4834   -4.4710    0.3807 H   0  0  0  0  0  0  0  0  0  0  0  0
   -2.6269   -3.4840   -0.0681 C   0  0  0  0  0  0  0  0  0  0  0  0
   -3.4305   -2.9692    0.4638 H   0  0  0  0  0  0  0  0  0  0  0  0
   -2.9138   -3.6116   -1.1146 H   0  0  0  0  0  0  0  0  0  0  0  0
   -1.3447   -2.6789    0.0238 C   0  0  0  0  0  0  0  0  0  0  0  0
   -0.3645   -3.1559    0.5660 O   0  0  0  0  0  0  0  0  0  0  0  0
   -1.2934   -1.4099   -0.5148 N   0  0  0  0  0  0  0  0  0  0  0  0
   -2.1096   -1.0979   -1.0362 H   0  0  0  0  0  0  0  0  0  0  0  0
   -0.0781   -0.5778   -0.5787 C   0  0  1  0  0  0  0  0  0  0  0  0
    0.6835   -1.1208   -1.1484 H   0  0  0  0  0  0  0  0  0  0  0  0
   -0.4294    0.7241   -1.3149 C   0  0  0  0  0  0  0  0  0  0  0  0
   -1.2034    1.2609   -0.7579 H   0  0  0  0  0  0  0  0  0  0  0  0
    0.4514    1.3719   -1.3617 H   0  0  0  0  0  0  0  0  0  0  0  0
   -0.9183    0.4762   -2.7138 C   0  0  0  0  0  0  0  0  0  0  0  0
   -2.0317    1.1128   -3.2443 N   0  0  0  0  0  0  0  0  0  0  0  0
   -2.1642    0.6723   -4.4732 C   0  0  0  0  0  0  0  0  0  0  0  0
   -2.9401    0.9869   -5.1656 H   0  0  0  0  0  0  0  0  0  0  0  0
   -1.1753   -0.2521   -4.7520 N   0  0  0  0  0  0  0  0  0  0  0  0
   -1.0513   -0.7307   -5.6427 H   0  0  0  0  0  0  0  0  0  0  0  0
   -0.3793   -0.3812   -3.6339 C   0  0  0  0  0  0  0  0  0  0  0  0
    0.4961   -1.0114   -3.5020 H   0  0  0  0  0  0  0  0  0  0  0  0
    0.5549   -0.2490    0.7907 C   0  0  0  0  0  0  0  0  0  0  0  0
    1.7685   -0.1134    0.8771 O   0  0  0  0  0  0  0  0  0  0  0  0
   -0.2461    0.1507    1.8458 N   0  0  0  0  0  0  0  0  0  0  0  0
   -1.2387   -0.0402    1.7560 H   0  0  0  0  0  0  0  0  0  0  0  0
    0.2856    0.5090    3.1543 C   0  0  0  0  0  0  0  0  0  0  0  0
    0.9806    1.3509    3.0684 H   0  0  0  0  0  0  0  0  0  0  0  0
   -0.5274    0.8013    3.8257 H   0  0  0  0  0  0  0  0  0  0  0  0
    0.8144   -0.3414    3.5975 H   0  0  0  0  0  0  0  0  0  0  0  0
  1  2  1  0  0  0  0
  2  3  1  0  0  0  0
  2  4  1  0  0  0  0
  2  5  1  0  0  0  0
  5  6  2  0  0  0  0
  5  7  1  0  0  0  0
  7  8  1  0  0  0  0
  7  9  1  0  0  0  0
  9 10  1  0  0  0  0
  9 11  1  0  0  0  0
  9 22  1  0  0  0  0
 11 12  1  0  0  0  0
 11 13  1  0  0  0  0
 11 14  1  0  0  0  0
 14 15  1  0  0  0  0
 14 20  2  0  0  0  0
 15 16  2  0  0  0  0
 16 17  1  0  0  0  0
 16 18  1  0  0  0  0
 18 19  1  0  0  0  0
 18 20  1  0  0  0  0
 20 21  1  0  0  0  0
 22 23  2  0  0  0  0
 22 24  1  0  0  0  0
 24 25  1  0  0  0  0
 24 26  1  0  0  0  0
 26 27  1  0  0  0  0
 26 28  1  0  0  0  0
 26 29  1  0  0  0  0
M  END
$$$$

  -OEChem-04042215593D

 29 29  0     1  0  0  0  0  0999 V2000
   -2.4609   -4.5039    0.3994 H   0  0  0  0  0  0  0  0  0  0  0  0
   -2.6180   -3.5077   -0.0243 C   0  0  0  0  0  0  0  0  0  0  0  0
   -3.4084   -3.0064    0.5393 H   0  0  0  0  0  0  0  0  0  0  0  0
   -2.9328   -3.6151   -1.0652 H   0  0  0  0  0  0  0  0  0  0  0  0
   -1.3353   -2.7009    0.0509 C   0  0  0  0  0  0  0  0  0  0  0  0
   -0.3514   -3.1721    0.5907 O   0  0  0  0  0  0  0  0  0  0  0  0
   -1.2862   -1.4385   -0.5039 N   0  0  0  0  0  0  0  0  0  0  0  0
   -2.1085   -1.1287   -1.0157 H   0  0  0  0  0  0  0  0  0  0  0  0
   -0.0731   -0.6022   -0.5743 C   0  0  1  0  0  0  0  0  0  0  0  0
    0.6945   -1.1475   -1.1338 H   0  0  0  0  0  0  0  0  0  0  0  0
   -0.4205    0.6925   -1.3268 C   0  0  0  0  0  0  0  0  0  0  0  0
   -1.1965    1.2313   -0.7752 H   0  0  0  0  0  0  0  0  0  0  0  0
    0.4605    1.3405   -1.3712 H   0  0  0  0  0  0  0  0  0  0  0  0
   -0.9060    0.4556   -2.7307 C   0  0  0  0  0  0  0  0  0  0  0  0
   -1.8059    1.3078   -3.3549 N   0  0  0  0  0  0  0  0  0  0  0  0
   -2.0144    0.8231   -4.5558 C   0  0  0  0  0  0  0  0  0  0  0  0
   -2.6670    1.2694   -5.3009 H   0  0  0  0  0  0  0  0  0  0  0  0
   -1.2858   -0.3385   -4.7269 N   0  0  0  0  0  0  0  0  0  0  0  0
   -1.2599   -0.8960   -5.5792 H   0  0  0  0  0  0  0  0  0  0  0  0
   -0.5793   -0.5781   -3.5674 C   0  0  0  0  0  0  0  0  0  0  0  0
    0.1036   -1.3966   -3.3565 H   0  0  0  0  0  0  0  0  0  0  0  0
    0.5523   -0.2546    0.7946 C   0  0  0  0  0  0  0  0  0  0  0  0
    1.7655   -0.1213    0.8880 O   0  0  0  0  0  0  0  0  0  0  0  0
   -0.2553    0.1551    1.8409 N   0  0  0  0  0  0  0  0  0  0  0  0
   -1.2476   -0.0341    1.7464 H   0  0  0  0  0  0  0  0  0  0  0  0
    0.2675    0.5315    3.1478 C   0  0  0  0  0  0  0  0  0  0  0  0
    0.9808    1.3570    3.0535 H   0  0  0  0  0  0  0  0  0  0  0  0
   -0.5479    0.8553    3.8013 H   0  0  0  0  0  0  0  0  0  0  0  0
    0.7728   -0.3196    3.6161 H   0  0  0  0  0  0  0  0  0  0  0  0
  1  2  1  0  0  0  0
  2  3  1  0  0  0  0
  2  4  1  0  0  0  0
  2  5  1  0  0  0  0
  5  6  2  0  0  0  0
  5  7  1  0  0  0  0
  7  8  1  0  0  0  0
  7  9  1  0  0  0  0
  9 10  1  0  0  0  0
  9 11  1  0  0  0  0
  9 22  1  0  0  0  0
 11 12  1  0  0  0  0
 11 13  1  0  0  0  0
 11 14  1  0  0  0  0
 14 15  1  0  0  0  0
 14 20  2  0  0  0  0
 15 16  2  0  0  0  0
 16 17  1  0  0  0  0
 16 18  1  0  0  0  0
 18 19  1  0  0  0  0
 18 20  1  0  0  0  0
 20 21  1  0  0  0  0
 22 23  2  0  0  0  0
 22 24  1  0  0  0  0
 24 25  1  0  0  0  0
 24 26  1  0  0  0  0
 26 27  1  0  0  0  0
 26 28  1  0  0  0  0
 26 29  1  0  0  0  0
M  END
$$$$

  -OEChem-04042215593D

 29 29  0     1  0  0  0  0  0999 V2000
   -2.4588   -4.5121    0.4890 H   0  0  0  0  0  0  0  0  0  0  0  0
   -2.6188   -3.5250    0.0460 C   0  0  0  0  0  0  0  0  0  0  0  0
   -3.3944   -3.0062    0.6142 H   0  0  0  0  0  0  0  0  0  0  0  0
   -2.9552   -3.6535   -0.9856 H   0  0  0  0  0  0  0  0  0  0  0  0
   -1.3303   -2.7249    0.0766 C   0  0  0  0  0  0  0  0  0  0  0  0
   -0.3317   -3.1986    0.5860 O   0  0  0  0  0  0  0  0  0  0  0  0
   -1.2925   -1.4666   -0.4882 N   0  0  0  0  0  0  0  0  0  0  0  0
   -2.1331   -1.1491   -0.9635 H   0  0  0  0  0  0  0  0  0  0  0  0
   -0.0852   -0.6223   -0.5731 C   0  0  1  0  0  0  0  0  0  0  0  0
    0.6826   -1.1690   -1.1316 H   0  0  0  0  0  0  0  0  0  0  0  0
   -0.4343    0.6645   -1.3399 C   0  0  0  0  0  0  0  0  0  0  0  0
   -1.2064    1.2121   -0.7916 H   0  0  0  0  0  0  0  0  0  0  0  0
    0.4503    1.3074   -1.3895 H   0  0  0  0  0  0  0  0  0  0  0  0
   -0.9214    0.4326   -2.7455 C   0  0  0  0  0  0  0  0  0  0  0  0
   -1.5638    1.4275   -3.4686 N   0  0  0  0  0  0  0  0  0  0  0  0
   -1.8342    0.9246   -4.6492 C   0  0  0  0  0  0  0  0  0  0  0  0
   -2.3305    1.4603   -5.4536 H   0  0  0  0  0  0  0  0  0  0  0  0
   -1.3957   -0.3840   -4.7140 N   0  0  0  0  0  0  0  0  0  0  0  0
   -1.4632   -0.9861   -5.5329 H   0  0  0  0  0  0  0  0  0  0  0  0
   -0.8110   -0.7017   -3.5064 C   0  0  0  0  0  0  0  0  0  0  0  0
   -0.3406   -1.6374   -3.2169 H   0  0  0  0  0  0  0  0  0  0  0  0
    0.5434   -0.2617    0.7913 C   0  0  0  0  0  0  0  0  0  0  0  0
    1.7563   -0.1252    0.8822 O   0  0  0  0  0  0  0  0  0  0  0  0
   -0.2619    0.1495    1.8392 N   0  0  0  0  0  0  0  0  0  0  0  0
   -1.2556   -0.0322    1.7473 H   0  0  0  0  0  0  0  0  0  0  0  0
    0.2646    0.5386    3.1412 C   0  0  0  0  0  0  0  0  0  0  0  0
    0.9648    1.3744    3.0382 H   0  0  0  0  0  0  0  0  0  0  0  0
   -0.5503    0.8526    3.8005 H   0  0  0  0  0  0  0  0  0  0  0  0
    0.7859   -0.3033    3.6088 H   0  0  0  0  0  0  0  0  0  0  0  0
  1  2  1  0  0  0  0
  2  3  1  0  0  0  0
  2  4  1  0  0  0  0
  2  5  1  0  0  0  0
  5  6  2  0  0  0  0
  5  7  1  0  0  0  0
  7  8  1  0  0  0  0
  7  9  1  0  0  0  0
  9 10  1  0  0  0  0
  9 11  1  0  0  0  0
  9 22  1  0  0  0  0
 11 12  1  0  0  0  0
 11 13  1  0  0  0  0
 11 14  1  0  0  0  0
 14 15  1  0  0  0  0
 14 20  2  0  0  0  0
 15 16  2  0  0  0  0
 16 17  1  0  0  0  0
 16 18  1  0  0  0  0
 18 19  1  0  0  0  0
 18 20  1  0  0  0  0
 20 21  1  0  0  0  0
 22 23  2  0  0  0  0
 22 24  1  0  0  0  0
 24 25  1  0  0  0  0
 24 26  1  0  0  0  0
 26 27  1  0  0  0  0
 26 28  1  0  0  0  0
 26 29  1  0  0  0  0
M  END
$$$$

  -OEChem-04042215593D

 29 29  0     1  0  0  0  0  0999 V2000
   -2.3753   -4.5843    0.7147 H   0  0  0  0  0  0  0  0  0  0  0  0
   -2.5858   -3.6142    0.2551 C   0  0  0  0  0  0  0  0  0  0  0  0
   -3.3206   -3.0869    0.8681 H   0  0  0  0  0  0  0  0  0  0  0  0
   -3.0029   -3.7811   -0.7408 H   0  0  0  0  0  0  0  0  0  0  0  0
   -1.3110   -2.7981    0.1550 C   0  0  0  0  0  0  0  0  0  0  0  0
   -0.2623   -3.2548    0.5698 O   0  0  0  0  0  0  0  0  0  0  0  0
   -1.3440   -1.5422   -0.4166 N   0  0  0  0  0  0  0  0  0  0  0  0
   -2.2416   -1.2110   -0.7590 H   0  0  0  0  0  0  0  0  0  0  0  0
   -0.1722   -0.6555   -0.5568 C   0  0  1  0  0  0  0  0  0  0  0  0
    0.5802   -1.2056   -1.1336 H   0  0  0  0  0  0  0  0  0  0  0  0
   -0.5254    0.6161   -1.3566 C   0  0  0  0  0  0  0  0  0  0  0  0
   -1.0942    1.2879   -0.7072 H   0  0  0  0  0  0  0  0  0  0  0  0
    0.4037    1.1314   -1.6201 H   0  0  0  0  0  0  0  0  0  0  0  0
   -1.3318    0.4315   -2.6185 C   0  0  0  0  0  0  0  0  0  0  0  0
   -1.6936    1.5262   -3.3916 N   0  0  0  0  0  0  0  0  0  0  0  0
   -2.2847    1.0637   -4.4661 C   0  0  0  0  0  0  0  0  0  0  0  0
   -2.6822    1.6773   -5.2698 H   0  0  0  0  0  0  0  0  0  0  0  0
   -2.3155   -0.3162   -4.4244 N   0  0  0  0  0  0  0  0  0  0  0  0
   -2.6723   -0.9167   -5.1659 H   0  0  0  0  0  0  0  0  0  0  0  0
   -1.6892   -0.7245   -3.2658 C   0  0  0  0  0  0  0  0  0  0  0  0
   -1.4697   -1.7423   -2.9573 H   0  0  0  0  0  0  0  0  0  0  0  0
    0.5013   -0.2645    0.7774 C   0  0  0  0  0  0  0  0  0  0  0  0
    1.7114   -0.0870    0.8180 O   0  0  0  0  0  0  0  0  0  0  0  0
   -0.2731    0.1239    1.8570 N   0  0  0  0  0  0  0  0  0  0  0  0
   -1.2650   -0.0811    1.8056 H   0  0  0  0  0  0  0  0  0  0  0  0
    0.2938    0.5503    3.1300 C   0  0  0  0  0  0  0  0  0  0  0  0
    0.9644    1.4039    2.9851 H   0  0  0  0  0  0  0  0  0  0  0  0
   -0.5028    0.8524    3.8165 H   0  0  0  0  0  0  0  0  0  0  0  0
    0.8588   -0.2675    3.5893 H   0  0  0  0  0  0  0  0  0  0  0  0
  1  2  1  0  0  0  0
  2  3  1  0  0  0  0
  2  4  1  0  0  0  0
  2  5  1  0  0  0  0
  5  6  2  0  0  0  0
  5  7  1  0  0  0  0
  7  8  1  0  0  0  0
  7  9  1  0  0  0  0
  9 10  1  0  0  0  0
  9 11  1  0  0  0  0
  9 22  1  0  0  0  0
 11 12  1  0  0  0  0
 11 13  1  0  0  0  0
 11 14  1  0  0  0  0
 14 15  1  0  0  0  0
 14 20  2  0  0  0  0
 15 16  2  0  0  0  0
 16 17  1  0  0  0  0
 16 18  1  0  0  0  0
 18 19  1  0  0  0  0
 18 20  1  0  0  0  0
 20 21  1  0  0  0  0
 22 23  2  0  0  0  0
 22 24  1  0  0  0  0
 24 25  1  0  0  0  0
 24 26  1  0  0  0  0
 26 27  1  0  0  0  0
 26 28  1  0  0  0  0
 26 29  1  0  0  0  0
M  END
$$$$

  -OEChem-04042215593D

 29 29  0     1  0  0  0  0  0999 V2000
   -2.3408   -4.5949    0.8162 H   0  0  0  0  0  0  0  0  0  0  0  0
   -2.5678   -3.6341    0.3449 C   0  0  0  0  0  0  0  0  0  0  0  0
   -3.2792   -3.0937    0.9741 H   0  0  0  0  0  0  0  0  0  0  0  0
   -3.0215   -3.8210   -0.6313 H   0  0  0  0  0  0  0  0  0  0  0  0
   -1.2971   -2.8220    0.1804 C   0  0  0  0  0  0  0  0  0  0  0  0
   -0.2330   -3.2759    0.5568 O   0  0  0  0  0  0  0  0  0  0  0  0
   -1.3549   -1.5691   -0.3968 N   0  0  0  0  0  0  0  0  0  0  0  0
   -2.2709   -1.2262   -0.6706 H   0  0  0  0  0  0  0  0  0  0  0  0
   -0.1957   -0.6712   -0.5584 C   0  0  1  0  0  0  0  0  0  0  0  0
    0.5533   -1.2205   -1.1405 H   0  0  0  0  0  0  0  0  0  0  0  0
   -0.5550    0.5966   -1.3637 C   0  0  0  0  0  0  0  0  0  0  0  0
   -1.1083    1.2796   -0.7125 H   0  0  0  0  0  0  0  0  0  0  0  0
    0.3806    1.0975   -1.6335 H   0  0  0  0  0  0  0  0  0  0  0  0
   -1.3689    0.4362   -2.6274 C   0  0  0  0  0  0  0  0  0  0  0  0
   -1.4458    1.4922   -3.5264 N   0  0  0  0  0  0  0  0  0  0  0  0
   -2.1025    1.0670   -4.5772 C   0  0  0  0  0  0  0  0  0  0  0  0
   -2.3260    1.6654   -5.4562 H   0  0  0  0  0  0  0  0  0  0  0  0
   -2.4529   -0.2561   -4.4016 N   0  0  0  0  0  0  0  0  0  0  0  0
   -2.9181   -0.8350   -5.0988 H   0  0  0  0  0  0  0  0  0  0  0  0
   -1.9644   -0.6713   -3.1806 C   0  0  0  0  0  0  0  0  0  0  0  0
   -1.9917   -1.6785   -2.7806 H   0  0  0  0  0  0  0  0  0  0  0  0
    0.4906   -0.2693    0.7663 C   0  0  0  0  0  0  0  0  0  0  0  0
    1.6995   -0.0824    0.7945 O   0  0  0  0  0  0  0  0  0  0  0  0
   -0.2746    0.1141    1.8542 N   0  0  0  0  0  0  0  0  0  0  0  0
   -1.2663   -0.0932    1.8134 H   0  0  0  0  0  0  0  0  0  0  0  0
    0.3033    0.5517    3.1185 C   0  0  0  0  0  0  0  0  0  0  0  0
    0.9432    1.4273    2.9653 H   0  0  0  0  0  0  0  0  0  0  0  0
   -0.4891    0.8239    3.8220 H   0  0  0  0  0  0  0  0  0  0  0  0
    0.9025   -0.2502    3.5626 H   0  0  0  0  0  0  0  0  0  0  0  0
  1  2  1  0  0  0  0
  2  3  1  0  0  0  0
  2  4  1  0  0  0  0
  2  5  1  0  0  0  0
  5  6  2  0  0  0  0
  5  7  1  0  0  0  0
  7  8  1  0  0  0  0
  7  9  1  0  0  0  0
  9 10  1  0  0  0  0
  9 11  1  0  0  0  0
  9 22  1  0  0  0  0
 11 12  1  0  0  0  0
 11 13  1  0  0  0  0
 11 14  1  0  0  0  0
 14 15  1  0  0  0  0
 14 20  2  0  0  0  0
 15 16  2  0  0  0  0
 16 17  1  0  0  0  0
 16 18  1  0  0  0  0
 18 19  1  0  0  0  0
 18 20  1  0  0  0  0
 20 21  1  0  0  0  0
 22 23  2  0  0  0  0
 22 24  1  0  0  0  0
 24 25  1  0  0  0  0
 24 26  1  0  0  0  0
 26 27  1  0  0  0  0
 26 28  1  0  0  0  0
 26 29  1  0  0  0  0
M  END
$$$$

  -OEChem-04042215593D

 29 29  0     1  0  0  0  0  0999 V2000
   -2.2998   -4.6013    0.8659 H   0  0  0  0  0  0  0  0  0  0  0  0
   -2.5444   -3.6469    0.3904 C   0  0  0  0  0  0  0  0  0  0  0  0
   -3.2395   -3.1026    1.0340 H   0  0  0  0  0  0  0  0  0  0  0  0
   -3.0252   -3.8472   -0.5701 H   0  0  0  0  0  0  0  0  0  0  0  0
   -1.2820   -2.8322    0.1801 C   0  0  0  0  0  0  0  0  0  0  0  0
   -0.2055   -3.2839    0.5223 O   0  0  0  0  0  0  0  0  0  0  0  0
   -1.3623   -1.5780   -0.3923 N   0  0  0  0  0  0  0  0  0  0  0  0
   -2.2909   -1.2191   -0.5877 H   0  0  0  0  0  0  0  0  0  0  0  0
   -0.2136   -0.6699   -0.5639 C   0  0  1  0  0  0  0  0  0  0  0  0
    0.5336   -1.2183   -1.1497 H   0  0  0  0  0  0  0  0  0  0  0  0
   -0.5680    0.5976   -1.3729 C   0  0  0  0  0  0  0  0  0  0  0  0
   -1.1108    1.2916   -0.7251 H   0  0  0  0  0  0  0  0  0  0  0  0
    0.3755    1.0842   -1.6422 H   0  0  0  0  0  0  0  0  0  0  0  0
   -1.3796    0.4485   -2.6408 C   0  0  0  0  0  0  0  0  0  0  0  0
   -1.1935    1.3670   -3.6665 N   0  0  0  0  0  0  0  0  0  0  0  0
   -1.9339    0.9865   -4.6774 C   0  0  0  0  0  0  0  0  0  0  0  0
   -2.0010    1.5037   -5.6304 H   0  0  0  0  0  0  0  0  0  0  0  0
   -2.6059   -0.1723   -4.3482 N   0  0  0  0  0  0  0  0  0  0  0  0
   -3.2178   -0.6914   -4.9756 H   0  0  0  0  0  0  0  0  0  0  0  0
   -2.2433   -0.5321   -3.0670 C   0  0  0  0  0  0  0  0  0  0  0  0
   -2.5518   -1.4264   -2.5406 H   0  0  0  0  0  0  0  0  0  0  0  0
    0.4824   -0.2686    0.7564 C   0  0  0  0  0  0  0  0  0  0  0  0
    1.6896   -0.0699    0.7748 O   0  0  0  0  0  0  0  0  0  0  0  0
   -0.2744    0.1029    1.8548 N   0  0  0  0  0  0  0  0  0  0  0  0
   -1.2638   -0.1158    1.8260 H   0  0  0  0  0  0  0  0  0  0  0  0
    0.3149    0.5345    3.1160 C   0  0  0  0  0  0  0  0  0  0  0  0
    0.9470    1.4155    2.9624 H   0  0  0  0  0  0  0  0  0  0  0  0
   -0.4708    0.7958    3.8310 H   0  0  0  0  0  0  0  0  0  0  0  0
    0.9248   -0.2665    3.5467 H   0  0  0  0  0  0  0  0  0  0  0  0
  1  2  1  0  0  0  0
  2  3  1  0  0  0  0
  2  4  1  0  0  0  0
  2  5  1  0  0  0  0
  5  6  2  0  0  0  0
  5  7  1  0  0  0  0
  7  8  1  0  0  0  0
  7  9  1  0  0  0  0
  9 10  1  0  0  0  0
  9 11  1  0  0  0  0
  9 22  1  0  0  0  0
 11 12  1  0  0  0  0
 11 13  1  0  0  0  0
 11 14  1  0  0  0  0
 14 15  1  0  0  0  0
 14 20  2  0  0  0  0
 15 16  2  0  0  0  0
 16 17  1  0  0  0  0
 16 18  1  0  0  0  0
 18 19  1  0  0  0  0
 18 20  1  0  0  0  0
 20 21  1  0  0  0  0
 22 23  2  0  0  0  0
 22 24  1  0  0  0  0
 24 25  1  0  0  0  0
 24 26  1  0  0  0  0
 26 27  1  0  0  0  0
 26 28  1  0  0  0  0
 26 29  1  0  0  0  0
M  END
$$$$

  -OEChem-04042215593D

 29 29  0     1  0  0  0  0  0999 V2000
   -2.2956   -4.6219    0.7961 H   0  0  0  0  0  0  0  0  0  0  0  0
   -2.5346   -3.6627    0.3275 C   0  0  0  0  0  0  0  0  0  0  0  0
   -3.2645   -3.1402    0.9503 H   0  0  0  0  0  0  0  0  0  0  0  0
   -2.9707   -3.8526   -0.6563 H   0  0  0  0  0  0  0  0  0  0  0  0
   -1.2770   -2.8261    0.1850 C   0  0  0  0  0  0  0  0  0  0  0  0
   -0.2139   -3.2569    0.5904 O   0  0  0  0  0  0  0  0  0  0  0  0
   -1.3502   -1.5730   -0.3903 N   0  0  0  0  0  0  0  0  0  0  0  0
   -2.2672   -1.2449   -0.6662 H   0  0  0  0  0  0  0  0  0  0  0  0
   -0.2001   -0.6677   -0.5623 C   0  0  1  0  0  0  0  0  0  0  0  0
    0.5464   -1.2218   -1.1435 H   0  0  0  0  0  0  0  0  0  0  0  0
   -0.5379    0.6019   -1.3761 C   0  0  0  0  0  0  0  0  0  0  0  0
   -1.0834    1.3009   -0.7356 H   0  0  0  0  0  0  0  0  0  0  0  0
    0.4081    1.0855   -1.6424 H   0  0  0  0  0  0  0  0  0  0  0  0
   -1.3445    0.4308   -2.6427 C   0  0  0  0  0  0  0  0  0  0  0  0
   -0.9615    1.1010   -3.7972 N   0  0  0  0  0  0  0  0  0  0  0  0
   -1.8235    0.7937   -4.7338 C   0  0  0  0  0  0  0  0  0  0  0  0
   -1.7894    1.1600   -5.7559 H   0  0  0  0  0  0  0  0  0  0  0  0
   -2.7793   -0.0599   -4.2221 N   0  0  0  0  0  0  0  0  0  0  0  0
   -3.5611   -0.4450   -4.7494 H   0  0  0  0  0  0  0  0  0  0  0  0
   -2.4870   -0.2901   -2.8938 C   0  0  0  0  0  0  0  0  0  0  0  0
   -3.0546   -0.9056   -2.2085 H   0  0  0  0  0  0  0  0  0  0  0  0
    0.4935   -0.2648    0.7590 C   0  0  0  0  0  0  0  0  0  0  0  0
    1.6991   -0.0557    0.7776 O   0  0  0  0  0  0  0  0  0  0  0  0
   -0.2683    0.1097    1.8528 N   0  0  0  0  0  0  0  0  0  0  0  0
   -1.2505   -0.1401    1.8291 H   0  0  0  0  0  0  0  0  0  0  0  0
    0.3173    0.5327    3.1188 C   0  0  0  0  0  0  0  0  0  0  0  0
    0.9608    1.4066    2.9719 H   0  0  0  0  0  0  0  0  0  0  0  0
   -0.4704    0.8022    3.8286 H   0  0  0  0  0  0  0  0  0  0  0  0
    0.9149   -0.2763    3.5522 H   0  0  0  0  0  0  0  0  0  0  0  0
  1  2  1  0  0  0  0
  2  3  1  0  0  0  0
  2  4  1  0  0  0  0
  2  5  1  0  0  0  0
  5  6  2  0  0  0  0
  5  7  1  0  0  0  0
  7  8  1  0  0  0  0
  7  9  1  0  0  0  0
  9 10  1  0  0  0  0
  9 11  1  0  0  0  0
  9 22  1  0  0  0  0
 11 12  1  0  0  0  0
 11 13  1  0  0  0  0
 11 14  1  0  0  0  0
 14 15  1  0  0  0  0
 14 20  2  0  0  0  0
 15 16  2  0  0  0  0
 16 17  1  0  0  0  0
 16 18  1  0  0  0  0
 18 19  1  0  0  0  0
 18 20  1  0  0  0  0
 20 21  1  0  0  0  0
 22 23  2  0  0  0  0
 22 24  1  0  0  0  0
 24 25  1  0  0  0  0
 24 26  1  0  0  0  0
 26 27  1  0  0  0  0
 26 28  1  0  0  0  0
 26 29  1  0  0  0  0
M  END
$$$$

  -OEChem-04042215593D

 29 29  0     1  0  0  0  0  0999 V2000
   -2.3304   -4.6571    0.6103 H   0  0  0  0  0  0  0  0  0  0  0  0
   -2.5281   -3.7132    0.0937 C   0  0  0  0  0  0  0  0  0  0  0  0
   -3.4247   -3.2593    0.5222 H   0  0  0  0  0  0  0  0  0  0  0  0
   -2.7025   -3.9230   -0.9643 H   0  0  0  0  0  0  0  0  0  0  0  0
   -1.3456   -2.7755    0.2506 C   0  0  0  0  0  0  0  0  0  0  0  0
   -0.3973   -3.1106    0.9353 O   0  0  0  0  0  0  0  0  0  0  0  0
   -1.3680   -1.5423   -0.3716 N   0  0  0  0  0  0  0  0  0  0  0  0
   -2.0994   -1.4334   -1.0655 H   0  0  0  0  0  0  0  0  0  0  0  0
   -0.1716   -0.6933   -0.5383 C   0  0  1  0  0  0  0  0  0  0  0  0
    0.5640   -1.2791   -1.1011 H   0  0  0  0  0  0  0  0  0  0  0  0
   -0.4742    0.5824   -1.3557 C   0  0  0  0  0  0  0  0  0  0  0  0
   -1.0120    1.2929   -0.7210 H   0  0  0  0  0  0  0  0  0  0  0  0
    0.4718    1.0550   -1.6399 H   0  0  0  0  0  0  0  0  0  0  0  0
   -1.2980    0.3654   -2.5961 C   0  0  0  0  0  0  0  0  0  0  0  0
   -0.8374    0.6818   -3.8656 N   0  0  0  0  0  0  0  0  0  0  0  0
   -1.8359    0.5022   -4.6947 C   0  0  0  0  0  0  0  0  0  0  0  0
   -1.7884    0.6624   -5.7682 H   0  0  0  0  0  0  0  0  0  0  0  0
   -2.9565    0.0977   -3.9948 N   0  0  0  0  0  0  0  0  0  0  0  0
   -3.8762   -0.0571   -4.4047 H   0  0  0  0  0  0  0  0  0  0  0  0
   -2.6309    0.0457   -2.6552 C   0  0  0  0  0  0  0  0  0  0  0  0
   -3.2966   -0.1452   -1.8197 H   0  0  0  0  0  0  0  0  0  0  0  0
    0.5124   -0.2706    0.7828 C   0  0  0  0  0  0  0  0  0  0  0  0
    1.7239   -0.0962    0.8097 O   0  0  0  0  0  0  0  0  0  0  0  0
   -0.2548    0.1777    1.8440 N   0  0  0  0  0  0  0  0  0  0  0  0
   -1.2324   -0.0932    1.8273 H   0  0  0  0  0  0  0  0  0  0  0  0
    0.3277    0.6053    3.1097 C   0  0  0  0  0  0  0  0  0  0  0  0
    1.0119    1.4459    2.9534 H   0  0  0  0  0  0  0  0  0  0  0  0
   -0.4594    0.9270    3.7980 H   0  0  0  0  0  0  0  0  0  0  0  0
    0.8812   -0.2181    3.5733 H   0  0  0  0  0  0  0  0  0  0  0  0
  1  2  1  0  0  0  0
  2  3  1  0  0  0  0
  2  4  1  0  0  0  0
  2  5  1  0  0  0  0
  5  6  2  0  0  0  0
  5  7  1  0  0  0  0
  7  8  1  0  0  0  0
  7  9  1  0  0  0  0
  9 10  1  0  0  0  0
  9 11  1  0  0  0  0
  9 22  1  0  0  0  0
 11 12  1  0  0  0  0
 11 13  1  0  0  0  0
 11 14  1  0  0  0  0
 14 15  1  0  0  0  0
 14 20  2  0  0  0  0
 15 16  2  0  0  0  0
 16 17  1  0  0  0  0
 16 18  1  0  0  0  0
 18 19  1  0  0  0  0
 18 20  1  0  0  0  0
 20 21  1  0  0  0  0
 22 23  2  0  0  0  0
 22 24  1  0  0  0  0
 24 25  1  0  0  0  0
 24 26  1  0  0  0  0
 26 27  1  0  0  0  0
 26 28  1  0  0  0  0
 26 29  1  0  0  0  0
M  END
$$$$

  -OEChem-04042215593D

 29 29  0     1  0  0  0  0  0999 V2000
   -2.3770   -4.6196    0.5358 H   0  0  0  0  0  0  0  0  0  0  0  0
   -2.5590   -3.6669    0.0300 C   0  0  0  0  0  0  0  0  0  0  0  0
   -3.4542   -3.2077    0.4561 H   0  0  0  0  0  0  0  0  0  0  0  0
   -2.7255   -3.8608   -1.0324 H   0  0  0  0  0  0  0  0  0  0  0  0
   -1.3673   -2.7451    0.2091 C   0  0  0  0  0  0  0  0  0  0  0  0
   -0.4252   -3.1015    0.8918 O   0  0  0  0  0  0  0  0  0  0  0  0
   -1.3747   -1.5013   -0.3904 N   0  0  0  0  0  0  0  0  0  0  0  0
   -2.1113   -1.3641   -1.0754 H   0  0  0  0  0  0  0  0  0  0  0  0
   -0.1695   -0.6612   -0.5411 C   0  0  1  0  0  0  0  0  0  0  0  0
    0.5617   -1.2394   -1.1178 H   0  0  0  0  0  0  0  0  0  0  0  0
   -0.4822    0.6245   -1.3339 C   0  0  0  0  0  0  0  0  0  0  0  0
   -1.0214    1.3217   -0.6857 H   0  0  0  0  0  0  0  0  0  0  0  0
    0.4549    1.1090   -1.6268 H   0  0  0  0  0  0  0  0  0  0  0  0
   -1.3155    0.3856   -2.5611 C   0  0  0  0  0  0  0  0  0  0  0  0
   -0.8086    0.4066   -3.8512 N   0  0  0  0  0  0  0  0  0  0  0  0
   -1.8287    0.2731   -4.6632 C   0  0  0  0  0  0  0  0  0  0  0  0
   -1.7612    0.2508   -5.7472 H   0  0  0  0  0  0  0  0  0  0  0  0
   -2.9993    0.1787   -3.9338 N   0  0  0  0  0  0  0  0  0  0  0  0
   -3.9342    0.1215   -4.3346 H   0  0  0  0  0  0  0  0  0  0  0  0
   -2.6811    0.2782   -2.5953 C   0  0  0  0  0  0  0  0  0  0  0  0
   -3.3592    0.3128   -1.7477 H   0  0  0  0  0  0  0  0  0  0  0  0
    0.5195   -0.2671    0.7856 C   0  0  0  0  0  0  0  0  0  0  0  0
    1.7310   -0.0931    0.8121 O   0  0  0  0  0  0  0  0  0  0  0  0
   -0.2449    0.1705    1.8532 N   0  0  0  0  0  0  0  0  0  0  0  0
   -1.2200   -0.1092    1.8383 H   0  0  0  0  0  0  0  0  0  0  0  0
    0.3418    0.5766    3.1240 C   0  0  0  0  0  0  0  0  0  0  0  0
    1.0259    1.4193    2.9792 H   0  0  0  0  0  0  0  0  0  0  0  0
   -0.4430    0.8867    3.8205 H   0  0  0  0  0  0  0  0  0  0  0  0
    0.8968   -0.2546    3.5716 H   0  0  0  0  0  0  0  0  0  0  0  0
  1  2  1  0  0  0  0
  2  3  1  0  0  0  0
  2  4  1  0  0  0  0
  2  5  1  0  0  0  0
  5  6  2  0  0  0  0
  5  7  1  0  0  0  0
  7  8  1  0  0  0  0
  7  9  1  0  0  0  0
  9 10  1  0  0  0  0
  9 11  1  0  0  0  0
  9 22  1  0  0  0  0
 11 12  1  0  0  0  0
 11 13  1  0  0  0  0
 11 14  1  0  0  0  0
 14 15  1  0  0  0  0
 14 20  2  0  0  0  0
 15 16  2  0  0  0  0
 16 17  1  0  0  0  0
 16 18  1  0  0  0  0
 18 19  1  0  0  0  0
 18 20  1  0  0  0  0
 20 21  1  0  0  0  0
 22 23  2  0  0  0  0
 22 24  1  0  0  0  0
 24 25  1  0  0  0  0
 24 26  1  0  0  0  0
 26 27  1  0  0  0  0
 26 28  1  0  0  0  0
 26 29  1  0  0  0  0
M  END
$$$$

  -OEChem-04042215593D

 29 29  0     1  0  0  0  0  0999 V2000
   -2.4067   -4.5944    0.4713 H   0  0  0  0  0  0  0  0  0  0  0  0
   -2.5853   -3.6310   -0.0149 C   0  0  0  0  0  0  0  0  0  0  0  0
   -3.4792   -3.1778    0.4198 H   0  0  0  0  0  0  0  0  0  0  0  0
   -2.7519   -3.8022   -1.0812 H   0  0  0  0  0  0  0  0  0  0  0  0
   -1.3904   -2.7173    0.1840 C   0  0  0  0  0  0  0  0  0  0  0  0
   -0.4574   -3.0856    0.8733 O   0  0  0  0  0  0  0  0  0  0  0  0
   -1.3857   -1.4669   -0.4013 N   0  0  0  0  0  0  0  0  0  0  0  0
   -2.1200   -1.3152   -1.0865 H   0  0  0  0  0  0  0  0  0  0  0  0
   -0.1721   -0.6362   -0.5437 C   0  0  1  0  0  0  0  0  0  0  0  0
    0.5526   -1.2104   -1.1325 H   0  0  0  0  0  0  0  0  0  0  0  0
   -0.4890    0.6586   -1.3166 C   0  0  0  0  0  0  0  0  0  0  0  0
   -1.0213    1.3508   -0.6575 H   0  0  0  0  0  0  0  0  0  0  0  0
    0.4445    1.1448   -1.6181 H   0  0  0  0  0  0  0  0  0  0  0  0
   -1.3319    0.4129   -2.5340 C   0  0  0  0  0  0  0  0  0  0  0  0
   -0.8180    0.1400   -3.7920 N   0  0  0  0  0  0  0  0  0  0  0  0
   -1.8401    0.0624   -4.6091 C   0  0  0  0  0  0  0  0  0  0  0  0
   -1.7697   -0.1381   -5.6745 H   0  0  0  0  0  0  0  0  0  0  0  0
   -3.0149    0.2806   -3.9130 N   0  0  0  0  0  0  0  0  0  0  0  0
   -3.9437    0.3160   -4.3302 H   0  0  0  0  0  0  0  0  0  0  0  0
   -2.6950    0.5239   -2.5934 C   0  0  0  0  0  0  0  0  0  0  0  0
   -3.3629    0.7822   -1.7767 H   0  0  0  0  0  0  0  0  0  0  0  0
    0.5235   -0.2624    0.7852 C   0  0  0  0  0  0  0  0  0  0  0  0
    1.7363   -0.0965    0.8105 O   0  0  0  0  0  0  0  0  0  0  0  0
   -0.2354    0.1713    1.8583 N   0  0  0  0  0  0  0  0  0  0  0  0
   -1.2118   -0.1042    1.8433 H   0  0  0  0  0  0  0  0  0  0  0  0
    0.3577    0.5569    3.1325 C   0  0  0  0  0  0  0  0  0  0  0  0
    1.0485    1.3958    2.9964 H   0  0  0  0  0  0  0  0  0  0  0  0
   -0.4225    0.8655    3.8346 H   0  0  0  0  0  0  0  0  0  0  0  0
    0.9067   -0.2844    3.5687 H   0  0  0  0  0  0  0  0  0  0  0  0
  1  2  1  0  0  0  0
  2  3  1  0  0  0  0
  2  4  1  0  0  0  0
  2  5  1  0  0  0  0
  5  6  2  0  0  0  0
  5  7  1  0  0  0  0
  7  8  1  0  0  0  0
  7  9  1  0  0  0  0
  9 10  1  0  0  0  0
  9 11  1  0  0  0  0
  9 22  1  0  0  0  0
 11 12  1  0  0  0  0
 11 13  1  0  0  0  0
 11 14  1  0  0  0  0
 14 15  1  0  0  0  0
 14 20  2  0  0  0  0
 15 16  2  0  0  0  0
 16 17  1  0  0  0  0
 16 18  1  0  0  0  0
 18 19  1  0  0  0  0
 18 20  1  0  0  0  0
 20 21  1  0  0  0  0
 22 23  2  0  0  0  0
 22 24  1  0  0  0  0
 24 25  1  0  0  0  0
 24 26  1  0  0  0  0
 26 27  1  0  0  0  0
 26 28  1  0  0  0  0
 26 29  1  0  0  0  0
M  END
$$$$

  -OEChem-04042215593D

 29 29  0     1  0  0  0  0  0999 V2000
   -2.4338   -4.5680    0.4601 H   0  0  0  0  0  0  0  0  0  0  0  0
   -2.5981   -3.6105   -0.0425 C   0  0  0  0  0  0  0  0  0  0  0  0
   -3.5029   -3.1512    0.3624 H   0  0  0  0  0  0  0  0  0  0  0  0
   -2.7359   -3.7945   -1.1108 H   0  0  0  0  0  0  0  0  0  0  0  0
   -1.4077   -2.6956    0.1766 C   0  0  0  0  0  0  0  0  0  0  0  0
   -0.4840   -3.0651    0.8780 O   0  0  0  0  0  0  0  0  0  0  0  0
   -1.3980   -1.4422   -0.4022 N   0  0  0  0  0  0  0  0  0  0  0  0
   -2.1231   -1.2915   -1.0978 H   0  0  0  0  0  0  0  0  0  0  0  0
   -0.1788   -0.6198   -0.5433 C   0  0  1  0  0  0  0  0  0  0  0  0
    0.5394   -1.1955   -1.1388 H   0  0  0  0  0  0  0  0  0  0  0  0
   -0.4952    0.6796   -1.3073 C   0  0  0  0  0  0  0  0  0  0  0  0
   -1.0169    1.3740   -0.6421 H   0  0  0  0  0  0  0  0  0  0  0  0
    0.4397    1.1573   -1.6169 H   0  0  0  0  0  0  0  0  0  0  0  0
   -1.3456    0.4366   -2.5195 C   0  0  0  0  0  0  0  0  0  0  0  0
   -0.8785   -0.1199   -3.7000 N   0  0  0  0  0  0  0  0  0  0  0  0
   -1.8852   -0.1225   -4.5400 C   0  0  0  0  0  0  0  0  0  0  0  0
   -1.8412   -0.4908   -5.5612 H   0  0  0  0  0  0  0  0  0  0  0  0
   -3.0052    0.4136   -3.9314 N   0  0  0  0  0  0  0  0  0  0  0  0
   -3.9063    0.5562   -4.3849 H   0  0  0  0  0  0  0  0  0  0  0  0
   -2.6627    0.7824   -2.6470 C   0  0  0  0  0  0  0  0  0  0  0  0
   -3.2827    1.2679   -1.8986 H   0  0  0  0  0  0  0  0  0  0  0  0
    0.5242   -0.2577    0.7846 C   0  0  0  0  0  0  0  0  0  0  0  0
    1.7374   -0.0935    0.8045 O   0  0  0  0  0  0  0  0  0  0  0  0
   -0.2288    0.1758    1.8619 N   0  0  0  0  0  0  0  0  0  0  0  0
   -1.2051   -0.1010    1.8494 H   0  0  0  0  0  0  0  0  0  0  0  0
    0.3712    0.5426    3.1384 C   0  0  0  0  0  0  0  0  0  0  0  0
    1.0598    1.3847    3.0115 H   0  0  0  0  0  0  0  0  0  0  0  0
   -0.4055    0.8381    3.8499 H   0  0  0  0  0  0  0  0  0  0  0  0
    0.9237   -0.3047    3.5581 H   0  0  0  0  0  0  0  0  0  0  0  0
  1  2  1  0  0  0  0
  2  3  1  0  0  0  0
  2  4  1  0  0  0  0
  2  5  1  0  0  0  0
  5  6  2  0  0  0  0
  5  7  1  0  0  0  0
  7  8  1  0  0  0  0
  7  9  1  0  0  0  0
  9 10  1  0  0  0  0
  9 11  1  0  0  0  0
  9 22  1  0  0  0  0
 11 12  1  0  0  0  0
 11 13  1  0  0  0  0
 11 14  1  0  0  0  0
 14 15  1  0  0  0  0
 14 20  2  0  0  0  0
 15 16  2  0  0  0  0
 16 17  1  0  0  0  0
 16 18  1  0  0  0  0
 18 19  1  0  0  0  0
 18 20  1  0  0  0  0
 20 21  1  0  0  0  0
 22 23  2  0  0  0  0
 22 24  1  0  0  0  0
 24 25  1  0  0  0  0
 24 26  1  0  0  0  0
 26 27  1  0  0  0  0
 26 28  1  0  0  0  0
 26 29  1  0  0  0  0
M  END
$$$$

  -OEChem-04042215593D

 29 29  0     1  0  0  0  0  0999 V2000
   -2.4454   -4.5590    0.4371 H   0  0  0  0  0  0  0  0  0  0  0  0
   -2.6030   -3.6025   -0.0698 C   0  0  0  0  0  0  0  0  0  0  0  0
   -3.5202   -3.1483    0.3120 H   0  0  0  0  0  0  0  0  0  0  0  0
   -2.7128   -3.7874   -1.1411 H   0  0  0  0  0  0  0  0  0  0  0  0
   -1.4239   -2.6806    0.1784 C   0  0  0  0  0  0  0  0  0  0  0  0
   -0.5163   -3.0446    0.9038 O   0  0  0  0  0  0  0  0  0  0  0  0
   -1.4073   -1.4280   -0.4015 N   0  0  0  0  0  0  0  0  0  0  0  0
   -2.1101   -1.2920   -1.1230 H   0  0  0  0  0  0  0  0  0  0  0  0
   -0.1815   -0.6162   -0.5418 C   0  0  1  0  0  0  0  0  0  0  0  0
    0.5315   -1.1959   -1.1396 H   0  0  0  0  0  0  0  0  0  0  0  0
   -0.4931    0.6878   -1.3001 C   0  0  0  0  0  0  0  0  0  0  0  0
   -1.0008    1.3890   -0.6312 H   0  0  0  0  0  0  0  0  0  0  0  0
    0.4471    1.1516   -1.6151 H   0  0  0  0  0  0  0  0  0  0  0  0
   -1.3503    0.4577   -2.5110 C   0  0  0  0  0  0  0  0  0  0  0  0
   -0.9950   -0.3510   -3.5806 N   0  0  0  0  0  0  0  0  0  0  0  0
   -1.9711   -0.2737   -4.4527 C   0  0  0  0  0  0  0  0  0  0  0  0
   -1.9915   -0.7873   -5.4099 H   0  0  0  0  0  0  0  0  0  0  0  0
   -2.9669    0.5545   -3.9692 N   0  0  0  0  0  0  0  0  0  0  0  0
   -3.8186    0.8023   -4.4706 H   0  0  0  0  0  0  0  0  0  0  0  0
   -2.5730    1.0270   -2.7346 C   0  0  0  0  0  0  0  0  0  0  0  0
   -3.0967    1.7186   -2.0804 H   0  0  0  0  0  0  0  0  0  0  0  0
    0.5247   -0.2590    0.7858 C   0  0  0  0  0  0  0  0  0  0  0  0
    1.7386   -0.0979    0.8038 O   0  0  0  0  0  0  0  0  0  0  0  0
   -0.2260    0.1814    1.8619 N   0  0  0  0  0  0  0  0  0  0  0  0
   -1.2024   -0.0958    1.8507 H   0  0  0  0  0  0  0  0  0  0  0  0
    0.3755    0.5458    3.1381 C   0  0  0  0  0  0  0  0  0  0  0  0
    1.0648    1.3871    3.0109 H   0  0  0  0  0  0  0  0  0  0  0  0
   -0.4001    0.8418    3.8508 H   0  0  0  0  0  0  0  0  0  0  0  0
    0.9273   -0.3028    3.5562 H   0  0  0  0  0  0  0  0  0  0  0  0
  1  2  1  0  0  0  0
  2  3  1  0  0  0  0
  2  4  1  0  0  0  0
  2  5  1  0  0  0  0
  5  6  2  0  0  0  0
  5  7  1  0  0  0  0
  7  8  1  0  0  0  0
  7  9  1  0  0  0  0
  9 10  1  0  0  0  0
  9 11  1  0  0  0  0
  9 22  1  0  0  0  0
 11 12  1  0  0  0  0
 11 13  1  0  0  0  0
 11 14  1  0  0  0  0
 14 15  1  0  0  0  0
 14 20  2  0  0  0  0
 15 16  2  0  0  0  0
 16 17  1  0  0  0  0
 16 18  1  0  0  0  0
 18 19  1  0  0  0  0
 18 20  1  0  0  0  0
 20 21  1  0  0  0  0
 22 23  2  0  0  0  0
 22 24  1  0  0  0  0
 24 25  1  0  0  0  0
 24 26  1  0  0  0  0
 26 27  1  0  0  0  0
 26 28  1  0  0  0  0
 26 29  1  0  0  0  0
M  END
$$$$

  -OEChem-04042215593D

 29 29  0     1  0  0  0  0  0999 V2000
   -2.4224   -4.5773    0.3663 H   0  0  0  0  0  0  0  0  0  0  0  0
   -2.6019   -3.6014   -0.0939 C   0  0  0  0  0  0  0  0  0  0  0  0
   -3.5219   -3.1802    0.3181 H   0  0  0  0  0  0  0  0  0  0  0  0
   -2.7208   -3.7388   -1.1716 H   0  0  0  0  0  0  0  0  0  0  0  0
   -1.4363   -2.6714    0.1850 C   0  0  0  0  0  0  0  0  0  0  0  0
   -0.5476   -3.0268    0.9379 O   0  0  0  0  0  0  0  0  0  0  0  0
   -1.4142   -1.4205   -0.3976 N   0  0  0  0  0  0  0  0  0  0  0  0
   -2.0884   -1.3054   -1.1504 H   0  0  0  0  0  0  0  0  0  0  0  0
   -0.1844   -0.6165   -0.5352 C   0  0  1  0  0  0  0  0  0  0  0  0
    0.5263   -1.1997   -1.1319 H   0  0  0  0  0  0  0  0  0  0  0  0
   -0.4947    0.6875   -1.2954 C   0  0  0  0  0  0  0  0  0  0  0  0
   -0.9946    1.3955   -0.6278 H   0  0  0  0  0  0  0  0  0  0  0  0
    0.4498    1.1406   -1.6125 H   0  0  0  0  0  0  0  0  0  0  0  0
   -1.3535    0.4690   -2.5094 C   0  0  0  0  0  0  0  0  0  0  0  0
   -1.1635   -0.5428   -3.4416 N   0  0  0  0  0  0  0  0  0  0  0  0
   -2.0876   -0.3893   -4.3594 C   0  0  0  0  0  0  0  0  0  0  0  0
   -2.2015   -1.0179   -5.2383 H   0  0  0  0  0  0  0  0  0  0  0  0
   -2.8952    0.6844   -4.0354 N   0  0  0  0  0  0  0  0  0  0  0  0
   -3.6744    1.0235   -4.5973 H   0  0  0  0  0  0  0  0  0  0  0  0
   -2.4312    1.2339   -2.8584 C   0  0  0  0  0  0  0  0  0  0  0  0
   -2.8145    2.0982   -2.3232 H   0  0  0  0  0  0  0  0  0  0  0  0
    0.5233   -0.2580    0.7911 C   0  0  0  0  0  0  0  0  0  0  0  0
    1.7379   -0.1004    0.8058 O   0  0  0  0  0  0  0  0  0  0  0  0
   -0.2242    0.1905    1.8660 N   0  0  0  0  0  0  0  0  0  0  0  0
   -1.2008   -0.0864    1.8580 H   0  0  0  0  0  0  0  0  0  0  0  0
    0.3798    0.5587    3.1401 C   0  0  0  0  0  0  0  0  0  0  0  0
    1.1038    1.3688    3.0035 H   0  0  0  0  0  0  0  0  0  0  0  0
   -0.3903    0.9011    3.8377 H   0  0  0  0  0  0  0  0  0  0  0  0
    0.8930   -0.3020    3.5817 H   0  0  0  0  0  0  0  0  0  0  0  0
  1  2  1  0  0  0  0
  2  3  1  0  0  0  0
  2  4  1  0  0  0  0
  2  5  1  0  0  0  0
  5  6  2  0  0  0  0
  5  7  1  0  0  0  0
  7  8  1  0  0  0  0
  7  9  1  0  0  0  0
  9 10  1  0  0  0  0
  9 11  1  0  0  0  0
  9 22  1  0  0  0  0
 11 12  1  0  0  0  0
 11 13  1  0  0  0  0
 11 14  1  0  0  0  0
 14 15  1  0  0  0  0
 14 20  2  0  0  0  0
 15 16  2  0  0  0  0
 16 17  1  0  0  0  0
 16 18  1  0  0  0  0
 18 19  1  0  0  0  0
 18 20  1  0  0  0  0
 20 21  1  0  0  0  0
 22 23  2  0  0  0  0
 22 24  1  0  0  0  0
 24 25  1  0  0  0  0
 24 26  1  0  0  0  0
 26 27  1  0  0  0  0
 26 28  1  0  0  0  0
 26 29  1  0  0  0  0
M  END
$$$$

  -OEChem-04042215593D

 29 29  0     1  0  0  0  0  0999 V2000
   -2.4326   -4.5732    0.4032 H   0  0  0  0  0  0  0  0  0  0  0  0
   -2.5916   -3.6130   -0.0958 C   0  0  0  0  0  0  0  0  0  0  0  0
   -3.5290   -3.1803    0.2616 H   0  0  0  0  0  0  0  0  0  0  0  0
   -2.6632   -3.7851   -1.1727 H   0  0  0  0  0  0  0  0  0  0  0  0
   -1.4393   -2.6724    0.2019 C   0  0  0  0  0  0  0  0  0  0  0  0
   -0.5637   -3.0162    0.9758 O   0  0  0  0  0  0  0  0  0  0  0  0
   -1.4136   -1.4267   -0.3906 N   0  0  0  0  0  0  0  0  0  0  0  0
   -2.0619   -1.3346   -1.1709 H   0  0  0  0  0  0  0  0  0  0  0  0
   -0.1826   -0.6276   -0.5318 C   0  0  1  0  0  0  0  0  0  0  0  0
    0.5280   -1.2157   -1.1238 H   0  0  0  0  0  0  0  0  0  0  0  0
   -0.4933    0.6738   -1.2988 C   0  0  0  0  0  0  0  0  0  0  0  0
   -0.9904    1.3846   -0.6319 H   0  0  0  0  0  0  0  0  0  0  0  0
    0.4536    1.1223   -1.6146 H   0  0  0  0  0  0  0  0  0  0  0  0
   -1.3548    0.4716   -2.5164 C   0  0  0  0  0  0  0  0  0  0  0  0
   -1.3870   -0.6752   -3.3031 N   0  0  0  0  0  0  0  0  0  0  0  0
   -2.2449   -0.4458   -4.2690 C   0  0  0  0  0  0  0  0  0  0  0  0
   -2.4896   -1.1463   -5.0626 H   0  0  0  0  0  0  0  0  0  0  0  0
   -2.7946    0.8129   -4.1194 N   0  0  0  0  0  0  0  0  0  0  0  0
   -3.4767    1.2350   -4.7477 H   0  0  0  0  0  0  0  0  0  0  0  0
   -2.2322    1.3988   -3.0048 C   0  0  0  0  0  0  0  0  0  0  0  0
   -2.4206    2.3889   -2.5990 H   0  0  0  0  0  0  0  0  0  0  0  0
    0.5227   -0.2607    0.7933 C   0  0  0  0  0  0  0  0  0  0  0  0
    1.7374   -0.1040    0.8095 O   0  0  0  0  0  0  0  0  0  0  0  0
   -0.2272    0.1979    1.8620 N   0  0  0  0  0  0  0  0  0  0  0  0
   -1.2042   -0.0782    1.8522 H   0  0  0  0  0  0  0  0  0  0  0  0
    0.3728    0.5758    3.1349 C   0  0  0  0  0  0  0  0  0  0  0  0
    1.0811    1.3994    2.9961 H   0  0  0  0  0  0  0  0  0  0  0  0
   -0.4016    0.9028    3.8351 H   0  0  0  0  0  0  0  0  0  0  0  0
    0.9033   -0.2753    3.5746 H   0  0  0  0  0  0  0  0  0  0  0  0
  1  2  1  0  0  0  0
  2  3  1  0  0  0  0
  2  4  1  0  0  0  0
  2  5  1  0  0  0  0
  5  6  2  0  0  0  0
  5  7  1  0  0  0  0
  7  8  1  0  0  0  0
  7  9  1  0  0  0  0
  9 10  1  0  0  0  0
  9 11  1  0  0  0  0
  9 22  1  0  0  0  0
 11 12  1  0  0  0  0
 11 13  1  0  0  0  0
 11 14  1  0  0  0  0
 14 15  1  0  0  0  0
 14 20  2  0  0  0  0
 15 16  2  0  0  0  0
 16 17  1  0  0  0  0
 16 18  1  0  0  0  0
 18 19  1  0  0  0  0
 18 20  1  0  0  0  0
 20 21  1  0  0  0  0
 22 23  2  0  0  0  0
 22 24  1  0  0  0  0
 24 25  1  0  0  0  0
 24 26  1  0  0  0  0
 26 27  1  0  0  0  0
 26 28  1  0  0  0  0
 26 29  1  0  0  0  0
M  END
$$$$

  -OEChem-04042215593D

 29 29  0     1  0  0  0  0  0999 V2000
   -2.4104   -4.5940    0.4199 H   0  0  0  0  0  0  0  0  0  0  0  0
   -2.5802   -3.6333   -0.0744 C   0  0  0  0  0  0  0  0  0  0  0  0
   -3.5204   -3.2105    0.2873 H   0  0  0  0  0  0  0  0  0  0  0  0
   -2.6539   -3.8008   -1.1517 H   0  0  0  0  0  0  0  0  0  0  0  0
   -1.4361   -2.6830    0.2235 C   0  0  0  0  0  0  0  0  0  0  0  0
   -0.5617   -3.0155    1.0040 O   0  0  0  0  0  0  0  0  0  0  0  0
   -1.4156   -1.4417   -0.3775 N   0  0  0  0  0  0  0  0  0  0  0  0
   -2.0571   -1.3623   -1.1677 H   0  0  0  0  0  0  0  0  0  0  0  0
   -0.1894   -0.6389   -0.5276 C   0  0  1  0  0  0  0  0  0  0  0  0
    0.5214   -1.2294   -1.1165 H   0  0  0  0  0  0  0  0  0  0  0  0
   -0.5036    0.6568   -1.3043 C   0  0  0  0  0  0  0  0  0  0  0  0
   -1.0042    1.3654   -0.6378 H   0  0  0  0  0  0  0  0  0  0  0  0
    0.4438    1.1087   -1.6143 H   0  0  0  0  0  0  0  0  0  0  0  0
   -1.3657    0.4708   -2.5274 C   0  0  0  0  0  0  0  0  0  0  0  0
   -1.6475   -0.7344   -3.1681 N   0  0  0  0  0  0  0  0  0  0  0  0
   -2.4109   -0.4454   -4.1958 C   0  0  0  0  0  0  0  0  0  0  0  0
   -2.7963   -1.1700   -4.9078 H   0  0  0  0  0  0  0  0  0  0  0  0
   -2.6560    0.9134   -4.2316 N   0  0  0  0  0  0  0  0  0  0  0  0
   -3.2133    1.3921   -4.9375 H   0  0  0  0  0  0  0  0  0  0  0  0
   -1.9941    1.4985   -3.1731 C   0  0  0  0  0  0  0  0  0  0  0  0
   -1.9560    2.5504   -2.9037 H   0  0  0  0  0  0  0  0  0  0  0  0
    0.5172   -0.2598    0.7931 C   0  0  0  0  0  0  0  0  0  0  0  0
    1.7309   -0.0941    0.8023 O   0  0  0  0  0  0  0  0  0  0  0  0
   -0.2318    0.2027    1.8606 N   0  0  0  0  0  0  0  0  0  0  0  0
   -1.2063   -0.0828    1.8573 H   0  0  0  0  0  0  0  0  0  0  0  0
    0.3703    0.5931    3.1287 C   0  0  0  0  0  0  0  0  0  0  0  0
    1.0670    1.4252    2.9828 H   0  0  0  0  0  0  0  0  0  0  0  0
   -0.4048    0.9129    3.8314 H   0  0  0  0  0  0  0  0  0  0  0  0
    0.9136   -0.2498    3.5690 H   0  0  0  0  0  0  0  0  0  0  0  0
  1  2  1  0  0  0  0
  2  3  1  0  0  0  0
  2  4  1  0  0  0  0
  2  5  1  0  0  0  0
  5  6  2  0  0  0  0
  5  7  1  0  0  0  0
  7  8  1  0  0  0  0
  7  9  1  0  0  0  0
  9 10  1  0  0  0  0
  9 11  1  0  0  0  0
  9 22  1  0  0  0  0
 11 12  1  0  0  0  0
 11 13  1  0  0  0  0
 11 14  1  0  0  0  0
 14 15  1  0  0  0  0
 14 20  2  0  0  0  0
 15 16  2  0  0  0  0
 16 17  1  0  0  0  0
 16 18  1  0  0  0  0
 18 19  1  0  0  0  0
 18 20  1  0  0  0  0
 20 21  1  0  0  0  0
 22 23  2  0  0  0  0
 22 24  1  0  0  0  0
 24 25  1  0  0  0  0
 24 26  1  0  0  0  0
 26 27  1  0  0  0  0
 26 28  1  0  0  0  0
 26 29  1  0  0  0  0
M  END
$$$$

  -OEChem-04042215593D

 29 29  0     1  0  0  0  0  0999 V2000
   -2.3845   -4.6132    0.4495 H   0  0  0  0  0  0  0  0  0  0  0  0
   -2.5737   -3.6477   -0.0282 C   0  0  0  0  0  0  0  0  0  0  0  0
   -3.4991   -3.2297    0.3747 H   0  0  0  0  0  0  0  0  0  0  0  0
   -2.6897   -3.8041   -1.1036 H   0  0  0  0  0  0  0  0  0  0  0  0
   -1.4190   -2.6996    0.2346 C   0  0  0  0  0  0  0  0  0  0  0  0
   -0.5191   -3.0353    0.9844 O   0  0  0  0  0  0  0  0  0  0  0  0
   -1.4136   -1.4577   -0.3649 N   0  0  0  0  0  0  0  0  0  0  0  0
   -2.0804   -1.3674   -1.1343 H   0  0  0  0  0  0  0  0  0  0  0  0
   -0.2006   -0.6388   -0.5278 C   0  0  1  0  0  0  0  0  0  0  0  0
    0.5120   -1.2248   -1.1186 H   0  0  0  0  0  0  0  0  0  0  0  0
   -0.5266    0.6516   -1.3111 C   0  0  0  0  0  0  0  0  0  0  0  0
   -1.0419    1.3472   -0.6421 H   0  0  0  0  0  0  0  0  0  0  0  0
    0.4151    1.1222   -1.6105 H   0  0  0  0  0  0  0  0  0  0  0  0
   -1.3890    0.4792   -2.5388 C   0  0  0  0  0  0  0  0  0  0  0  0
   -1.9221   -0.7085   -3.0408 N   0  0  0  0  0  0  0  0  0  0  0  0
   -2.5701   -0.3974   -4.1392 C   0  0  0  0  0  0  0  0  0  0  0  0
   -3.0936   -1.1062   -4.7748 H   0  0  0  0  0  0  0  0  0  0  0  0
   -2.4904    0.9627   -4.3629 N   0  0  0  0  0  0  0  0  0  0  0  0
   -2.9023    1.4540   -5.1547 H   0  0  0  0  0  0  0  0  0  0  0  0
   -1.7388    1.5214   -3.3513 C   0  0  0  0  0  0  0  0  0  0  0  0
   -1.4607    2.5633   -3.2198 H   0  0  0  0  0  0  0  0  0  0  0  0
    0.5123   -0.2517    0.7868 C   0  0  0  0  0  0  0  0  0  0  0  0
    1.7242   -0.0724    0.7865 O   0  0  0  0  0  0  0  0  0  0  0  0
   -0.2340    0.1998    1.8608 N   0  0  0  0  0  0  0  0  0  0  0  0
   -1.2081   -0.0874    1.8592 H   0  0  0  0  0  0  0  0  0  0  0  0
    0.3715    0.5898    3.1273 C   0  0  0  0  0  0  0  0  0  0  0  0
    1.0704    1.4199    2.9797 H   0  0  0  0  0  0  0  0  0  0  0  0
   -0.4012    0.9126    3.8312 H   0  0  0  0  0  0  0  0  0  0  0  0
    0.9134   -0.2538    3.5676 H   0  0  0  0  0  0  0  0  0  0  0  0
  1  2  1  0  0  0  0
  2  3  1  0  0  0  0
  2  4  1  0  0  0  0
  2  5  1  0  0  0  0
  5  6  2  0  0  0  0
  5  7  1  0  0  0  0
  7  8  1  0  0  0  0
  7  9  1  0  0  0  0
  9 10  1  0  0  0  0
  9 11  1  0  0  0  0
  9 22  1  0  0  0  0
 11 12  1  0  0  0  0
 11 13  1  0  0  0  0
 11 14  1  0  0  0  0
 14 15  1  0  0  0  0
 14 20  2  0  0  0  0
 15 16  2  0  0  0  0
 16 17  1  0  0  0  0
 16 18  1  0  0  0  0
 18 19  1  0  0  0  0
 18 20  1  0  0  0  0
 20 21  1  0  0  0  0
 22 23  2  0  0  0  0
 22 24  1  0  0  0  0
 24 25  1  0  0  0  0
 24 26  1  0  0  0  0
 26 27  1  0  0  0  0
 26 28  1  0  0  0  0
 26 29  1  0  0  0  0
M  END
$$$$

  -OEChem-04042215593D

 29 29  0     1  0  0  0  0  0999 V2000
   -2.3877   -4.6075    0.4799 H   0  0  0  0  0  0  0  0  0  0  0  0
   -2.5788   -3.6406    0.0062 C   0  0  0  0  0  0  0  0  0  0  0  0
   -3.4822   -3.2064    0.4405 H   0  0  0  0  0  0  0  0  0  0  0  0
   -2.7368   -3.7980   -1.0635 H   0  0  0  0  0  0  0  0  0  0  0  0
   -1.4008   -2.7100    0.2240 C   0  0  0  0  0  0  0  0  0  0  0  0
   -0.4708   -3.0637    0.9275 O   0  0  0  0  0  0  0  0  0  0  0  0
   -1.4050   -1.4636   -0.3649 N   0  0  0  0  0  0  0  0  0  0  0  0
   -2.1100   -1.3433   -1.0962 H   0  0  0  0  0  0  0  0  0  0  0  0
   -0.2042   -0.6299   -0.5347 C   0  0  1  0  0  0  0  0  0  0  0  0
    0.5104   -1.2084   -1.1305 H   0  0  0  0  0  0  0  0  0  0  0  0
   -0.5385    0.6611   -1.3152 C   0  0  0  0  0  0  0  0  0  0  0  0
   -1.0678    1.3397   -0.6398 H   0  0  0  0  0  0  0  0  0  0  0  0
    0.3982    1.1498   -1.6013 H   0  0  0  0  0  0  0  0  0  0  0  0
   -1.4020    0.4999   -2.5454 C   0  0  0  0  0  0  0  0  0  0  0  0
   -2.1720   -0.6059   -2.9120 N   0  0  0  0  0  0  0  0  0  0  0  0
   -2.7141   -0.3220   -4.0732 C   0  0  0  0  0  0  0  0  0  0  0  0
   -3.3708   -0.9838   -4.6311 H   0  0  0  0  0  0  0  0  0  0  0  0
   -2.3267    0.9399   -4.4769 N   0  0  0  0  0  0  0  0  0  0  0  0
   -2.6031    1.3897   -5.3482 H   0  0  0  0  0  0  0  0  0  0  0  0
   -1.4901    1.4616   -3.5136 C   0  0  0  0  0  0  0  0  0  0  0  0
   -0.9883    2.4253   -3.5128 H   0  0  0  0  0  0  0  0  0  0  0  0
    0.5121   -0.2474    0.7790 C   0  0  0  0  0  0  0  0  0  0  0  0
    1.7219   -0.0541    0.7732 O   0  0  0  0  0  0  0  0  0  0  0  0
   -0.2336    0.1851    1.8612 N   0  0  0  0  0  0  0  0  0  0  0  0
   -1.2065   -0.1064    1.8601 H   0  0  0  0  0  0  0  0  0  0  0  0
    0.3725    0.5755    3.1272 C   0  0  0  0  0  0  0  0  0  0  0  0
    1.0584    1.4166    2.9815 H   0  0  0  0  0  0  0  0  0  0  0  0
   -0.4014    0.8822    3.8372 H   0  0  0  0  0  0  0  0  0  0  0  0
    0.9289   -0.2632    3.5588 H   0  0  0  0  0  0  0  0  0  0  0  0
  1  2  1  0  0  0  0
  2  3  1  0  0  0  0
  2  4  1  0  0  0  0
  2  5  1  0  0  0  0
  5  6  2  0  0  0  0
  5  7  1  0  0  0  0
  7  8  1  0  0  0  0
  7  9  1  0  0  0  0
  9 10  1  0  0  0  0
  9 11  1  0  0  0  0
  9 22  1  0  0  0  0
 11 12  1  0  0  0  0
 11 13  1  0  0  0  0
 11 14  1  0  0  0  0
 14 15  1  0  0  0  0
 14 20  2  0  0  0  0
 15 16  2  0  0  0  0
 16 17  1  0  0  0  0
 16 18  1  0  0  0  0
 18 19  1  0  0  0  0
 18 20  1  0  0  0  0
 20 21  1  0  0  0  0
 22 23  2  0  0  0  0
 22 24  1  0  0  0  0
 24 25  1  0  0  0  0
 24 26  1  0  0  0  0
 26 27  1  0  0  0  0
 26 28  1  0  0  0  0
 26 29  1  0  0  0  0
M  END
$$$$

  -OEChem-04042215593D

 29 29  0     1  0  0  0  0  0999 V2000
   -2.3958   -4.5969    0.4681 H   0  0  0  0  0  0  0  0  0  0  0  0
   -2.5897   -3.6216    0.0131 C   0  0  0  0  0  0  0  0  0  0  0  0
   -3.4706   -3.1805    0.4850 H   0  0  0  0  0  0  0  0  0  0  0  0
   -2.7876   -3.7627   -1.0522 H   0  0  0  0  0  0  0  0  0  0  0  0
   -1.3920   -2.7098    0.1994 C   0  0  0  0  0  0  0  0  0  0  0  0
   -0.4420   -3.0840    0.8645 O   0  0  0  0  0  0  0  0  0  0  0  0
   -1.3976   -1.4576   -0.3770 N   0  0  0  0  0  0  0  0  0  0  0  0
   -2.1363   -1.3002   -1.0675 H   0  0  0  0  0  0  0  0  0  0  0  0
   -0.2023   -0.6157   -0.5413 C   0  0  1  0  0  0  0  0  0  0  0  0
    0.5151   -1.1881   -1.1396 H   0  0  0  0  0  0  0  0  0  0  0  0
   -0.5359    0.6784   -1.3171 C   0  0  0  0  0  0  0  0  0  0  0  0
   -1.0745    1.3491   -0.6414 H   0  0  0  0  0  0  0  0  0  0  0  0
    0.4006    1.1746   -1.5909 H   0  0  0  0  0  0  0  0  0  0  0  0
   -1.3933    0.5198   -2.5521 C   0  0  0  0  0  0  0  0  0  0  0  0
   -2.3722   -0.4474   -2.7912 N   0  0  0  0  0  0  0  0  0  0  0  0
   -2.8326   -0.2278   -4.0010 C   0  0  0  0  0  0  0  0  0  0  0  0
   -3.6077   -0.8135   -4.4874 H   0  0  0  0  0  0  0  0  0  0  0  0
   -2.1852    0.8544   -4.5622 N   0  0  0  0  0  0  0  0  0  0  0  0
   -2.3529    1.2202   -5.4982 H   0  0  0  0  0  0  0  0  0  0  0  0
   -1.2679    1.3272   -3.6486 C   0  0  0  0  0  0  0  0  0  0  0  0
   -0.5775    2.1585   -3.7625 H   0  0  0  0  0  0  0  0  0  0  0  0
    0.5132   -0.2415    0.7752 C   0  0  0  0  0  0  0  0  0  0  0  0
    1.7227   -0.0462    0.7704 O   0  0  0  0  0  0  0  0  0  0  0  0
   -0.2316    0.1768    1.8636 N   0  0  0  0  0  0  0  0  0  0  0  0
   -1.2067   -0.1068    1.8574 H   0  0  0  0  0  0  0  0  0  0  0  0
    0.3750    0.5541    3.1336 C   0  0  0  0  0  0  0  0  0  0  0  0
    1.0690    1.3896    2.9949 H   0  0  0  0  0  0  0  0  0  0  0  0
   -0.3974    0.8637    3.8439 H   0  0  0  0  0  0  0  0  0  0  0  0
    0.9229   -0.2923    3.5609 H   0  0  0  0  0  0  0  0  0  0  0  0
  1  2  1  0  0  0  0
  2  3  1  0  0  0  0
  2  4  1  0  0  0  0
  2  5  1  0  0  0  0
  5  6  2  0  0  0  0
  5  7  1  0  0  0  0
  7  8  1  0  0  0  0
  7  9  1  0  0  0  0
  9 10  1  0  0  0  0
  9 11  1  0  0  0  0
  9 22  1  0  0  0  0
 11 12  1  0  0  0  0
 11 13  1  0  0  0  0
 11 14  1  0  0  0  0
 14 15  1  0  0  0  0
 14 20  2  0  0  0  0
 15 16  2  0  0  0  0
 16 17  1  0  0  0  0
 16 18  1  0  0  0  0
 18 19  1  0  0  0  0
 18 20  1  0  0  0  0
 20 21  1  0  0  0  0
 22 23  2  0  0  0  0
 22 24  1  0  0  0  0
 24 25  1  0  0  0  0
 24 26  1  0  0  0  0
 26 27  1  0  0  0  0
 26 28  1  0  0  0  0
 26 29  1  0  0  0  0
M  END
$$$$

  -OEChem-04042215593D

 29 29  0     1  0  0  0  0  0999 V2000
   -2.4286   -4.5680    0.4319 H   0  0  0  0  0  0  0  0  0  0  0  0
   -2.6110   -3.5837   -0.0080 C   0  0  0  0  0  0  0  0  0  0  0  0
   -3.4685   -3.1265    0.4912 H   0  0  0  0  0  0  0  0  0  0  0  0
   -2.8400   -3.7093   -1.0689 H   0  0  0  0  0  0  0  0  0  0  0  0
   -1.3873   -2.7027    0.1557 C   0  0  0  0  0  0  0  0  0  0  0  0
   -0.4243   -3.1092    0.7819 O   0  0  0  0  0  0  0  0  0  0  0  0
   -1.3788   -1.4432   -0.4037 N   0  0  0  0  0  0  0  0  0  0  0  0
   -2.1443   -1.2390   -1.0517 H   0  0  0  0  0  0  0  0  0  0  0  0
   -0.1825   -0.5999   -0.5488 C   0  0  1  0  0  0  0  0  0  0  0  0
    0.5394   -1.1656   -1.1479 H   0  0  0  0  0  0  0  0  0  0  0  0
   -0.5154    0.6993   -1.3144 C   0  0  0  0  0  0  0  0  0  0  0  0
   -1.0621    1.3659   -0.6408 H   0  0  0  0  0  0  0  0  0  0  0  0
    0.4206    1.2002   -1.5809 H   0  0  0  0  0  0  0  0  0  0  0  0
   -1.3632    0.5267   -2.5522 C   0  0  0  0  0  0  0  0  0  0  0  0
   -2.5110   -0.2588   -2.6771 N   0  0  0  0  0  0  0  0  0  0  0  0
   -2.9193   -0.1317   -3.9185 C   0  0  0  0  0  0  0  0  0  0  0  0
   -3.7939   -0.6208   -4.3384 H   0  0  0  0  0  0  0  0  0  0  0  0
   -2.0729    0.7124   -4.6093 N   0  0  0  0  0  0  0  0  0  0  0  0
   -2.1689    0.9687   -5.5906 H   0  0  0  0  0  0  0  0  0  0  0  0
   -1.0833    1.1308   -3.7461 C   0  0  0  0  0  0  0  0  0  0  0  0
   -0.2488    1.7945   -3.9550 H   0  0  0  0  0  0  0  0  0  0  0  0
    0.5235   -0.2413    0.7764 C   0  0  0  0  0  0  0  0  0  0  0  0
    1.7338   -0.0522    0.7839 O   0  0  0  0  0  0  0  0  0  0  0  0
   -0.2285    0.1647    1.8642 N   0  0  0  0  0  0  0  0  0  0  0  0
   -1.2088   -0.0996    1.8421 H   0  0  0  0  0  0  0  0  0  0  0  0
    0.3670    0.5339    3.1417 C   0  0  0  0  0  0  0  0  0  0  0  0
    1.0626    1.3700    3.0144 H   0  0  0  0  0  0  0  0  0  0  0  0
   -0.4115    0.8393    3.8471 H   0  0  0  0  0  0  0  0  0  0  0  0
    0.9104   -0.3154    3.5690 H   0  0  0  0  0  0  0  0  0  0  0  0
  1  2  1  0  0  0  0
  2  3  1  0  0  0  0
  2  4  1  0  0  0  0
  2  5  1  0  0  0  0
  5  6  2  0  0  0  0
  5  7  1  0  0  0  0
  7  8  1  0  0  0  0
  7  9  1  0  0  0  0
  9 10  1  0  0  0  0
  9 11  1  0  0  0  0
  9 22  1  0  0  0  0
 11 12  1  0  0  0  0
 11 13  1  0  0  0  0
 11 14  1  0  0  0  0
 14 15  1  0  0  0  0
 14 20  2  0  0  0  0
 15 16  2  0  0  0  0
 16 17  1  0  0  0  0
 16 18  1  0  0  0  0
 18 19  1  0  0  0  0
 18 20  1  0  0  0  0
 20 21  1  0  0  0  0
 22 23  2  0  0  0  0
 22 24  1  0  0  0  0
 24 25  1  0  0  0  0
 24 26  1  0  0  0  0
 26 27  1  0  0  0  0
 26 28  1  0  0  0  0
 26 29  1  0  0  0  0
M  END
$$$$

  -OEChem-04042215593D

 29 29  0     1  0  0  0  0  0999 V2000
   -2.4694   -4.5316    0.3931 H   0  0  0  0  0  0  0  0  0  0  0  0
   -2.6327   -3.5432   -0.0455 C   0  0  0  0  0  0  0  0  0  0  0  0
   -3.4734   -3.0654    0.4631 H   0  0  0  0  0  0  0  0  0  0  0  0
   -2.8773   -3.6638   -1.1036 H   0  0  0  0  0  0  0  0  0  0  0  0
   -1.3859   -2.6920    0.1033 C   0  0  0  0  0  0  0  0  0  0  0  0
   -0.4164   -3.1300    0.6972 O   0  0  0  0  0  0  0  0  0  0  0  0
   -1.3596   -1.4249   -0.4377 N   0  0  0  0  0  0  0  0  0  0  0  0
   -2.1473   -1.1705   -1.0398 H   0  0  0  0  0  0  0  0  0  0  0  0
   -0.1579   -0.5843   -0.5554 C   0  0  1  0  0  0  0  0  0  0  0  0
    0.5701   -1.1432   -1.1536 H   0  0  0  0  0  0  0  0  0  0  0  0
   -0.4885    0.7198   -1.3096 C   0  0  0  0  0  0  0  0  0  0  0  0
   -1.0426    1.3870   -0.6427 H   0  0  0  0  0  0  0  0  0  0  0  0
    0.4476    1.2222   -1.5735 H   0  0  0  0  0  0  0  0  0  0  0  0
   -1.3226    0.5196   -2.5489 C   0  0  0  0  0  0  0  0  0  0  0  0
   -2.5981   -0.0455   -2.5843 N   0  0  0  0  0  0  0  0  0  0  0  0
   -2.9786   -0.0237   -3.8411 C   0  0  0  0  0  0  0  0  0  0  0  0
   -3.9329   -0.3918   -4.2077 H   0  0  0  0  0  0  0  0  0  0  0  0
   -1.9875    0.5331   -4.6259 N   0  0  0  0  0  0  0  0  0  0  0  0
   -2.0379    0.6606   -5.6355 H   0  0  0  0  0  0  0  0  0  0  0  0
   -0.9346    0.8825   -3.8076 C   0  0  0  0  0  0  0  0  0  0  0  0
    0.0075    1.3470   -4.0854 H   0  0  0  0  0  0  0  0  0  0  0  0
    0.5336   -0.2446    0.7821 C   0  0  0  0  0  0  0  0  0  0  0  0
    1.7451   -0.0660    0.8068 O   0  0  0  0  0  0  0  0  0  0  0  0
   -0.2278    0.1514    1.8672 N   0  0  0  0  0  0  0  0  0  0  0  0
   -1.2132   -0.0907    1.8285 H   0  0  0  0  0  0  0  0  0  0  0  0
    0.3543    0.5203    3.1509 C   0  0  0  0  0  0  0  0  0  0  0  0
    1.0338    1.3710    3.0342 H   0  0  0  0  0  0  0  0  0  0  0  0
   -0.4336    0.8040    3.8548 H   0  0  0  0  0  0  0  0  0  0  0  0
    0.9121   -0.3219    3.5732 H   0  0  0  0  0  0  0  0  0  0  0  0
  1  2  1  0  0  0  0
  2  3  1  0  0  0  0
  2  4  1  0  0  0  0
  2  5  1  0  0  0  0
  5  6  2  0  0  0  0
  5  7  1  0  0  0  0
  7  8  1  0  0  0  0
  7  9  1  0  0  0  0
  9 10  1  0  0  0  0
  9 11  1  0  0  0  0
  9 22  1  0  0  0  0
 11 12  1  0  0  0  0
 11 13  1  0  0  0  0
 11 14  1  0  0  0  0
 14 15  1  0  0  0  0
 14 20  2  0  0  0  0
 15 16  2  0  0  0  0
 16 17  1  0  0  0  0
 16 18  1  0  0  0  0
 18 19  1  0  0  0  0
 18 20  1  0  0  0  0
 20 21  1  0  0  0  0
 22 23  2  0  0  0  0
 22 24  1  0  0  0  0
 24 25  1  0  0  0  0
 24 26  1  0  0  0  0
 26 27  1  0  0  0  0
 26 28  1  0  0  0  0
 26 29  1  0  0  0  0
M  END
$$$$

  -OEChem-04042215593D

 29 29  0     1  0  0  0  0  0999 V2000
   -2.5002   -4.4902    0.3669 H   0  0  0  0  0  0  0  0  0  0  0  0
   -2.6475   -3.4983   -0.0695 C   0  0  0  0  0  0  0  0  0  0  0  0
   -3.4654   -2.9991    0.4555 H   0  0  0  0  0  0  0  0  0  0  0  0
   -2.9157   -3.6134   -1.1224 H   0  0  0  0  0  0  0  0  0  0  0  0
   -1.3773   -2.6787    0.0545 C   0  0  0  0  0  0  0  0  0  0  0  0
   -0.4041   -3.1438    0.6209 O   0  0  0  0  0  0  0  0  0  0  0  0
   -1.3335   -1.4072   -0.4745 N   0  0  0  0  0  0  0  0  0  0  0  0
   -2.1378   -1.1109   -1.0335 H   0  0  0  0  0  0  0  0  0  0  0  0
   -0.1262   -0.5696   -0.5655 C   0  0  1  0  0  0  0  0  0  0  0  0
    0.6104   -1.1201   -1.1610 H   0  0  0  0  0  0  0  0  0  0  0  0
   -0.4646    0.7356   -1.3092 C   0  0  0  0  0  0  0  0  0  0  0  0
   -1.0267    1.4033   -0.6491 H   0  0  0  0  0  0  0  0  0  0  0  0
    0.4671    1.2431   -1.5777 H   0  0  0  0  0  0  0  0  0  0  0  0
   -1.2861    0.4959   -2.5452 C   0  0  0  0  0  0  0  0  0  0  0  0
   -2.6426    0.1768   -2.5332 N   0  0  0  0  0  0  0  0  0  0  0  0
   -3.0094    0.0906   -3.7913 C   0  0  0  0  0  0  0  0  0  0  0  0
   -4.0151   -0.1421   -4.1299 H   0  0  0  0  0  0  0  0  0  0  0  0
   -1.9302    0.3376   -4.6187 N   0  0  0  0  0  0  0  0  0  0  0  0
   -1.9567    0.3352   -5.6373 H   0  0  0  0  0  0  0  0  0  0  0  0
   -0.8325    0.6041   -3.8286 C   0  0  0  0  0  0  0  0  0  0  0  0
    0.1783    0.8536   -4.1395 H   0  0  0  0  0  0  0  0  0  0  0  0
    0.5452   -0.2429    0.7848 C   0  0  0  0  0  0  0  0  0  0  0  0
    1.7577   -0.0770    0.8319 O   0  0  0  0  0  0  0  0  0  0  0  0
   -0.2317    0.1476    1.8608 N   0  0  0  0  0  0  0  0  0  0  0  0
   -1.2203   -0.0761    1.8001 H   0  0  0  0  0  0  0  0  0  0  0  0
    0.3303    0.5004    3.1578 C   0  0  0  0  0  0  0  0  0  0  0  0
    1.0217    1.3441    3.0604 H   0  0  0  0  0  0  0  0  0  0  0  0
   -0.4670    0.7880    3.8496 H   0  0  0  0  0  0  0  0  0  0  0  0
    0.8701   -0.3518    3.5836 H   0  0  0  0  0  0  0  0  0  0  0  0
  1  2  1  0  0  0  0
  2  3  1  0  0  0  0
  2  4  1  0  0  0  0
  2  5  1  0  0  0  0
  5  6  2  0  0  0  0
  5  7  1  0  0  0  0
  7  8  1  0  0  0  0
  7  9  1  0  0  0  0
  9 10  1  0  0  0  0
  9 11  1  0  0  0  0
  9 22  1  0  0  0  0
 11 12  1  0  0  0  0
 11 13  1  0  0  0  0
 11 14  1  0  0  0  0
 14 15  1  0  0  0  0
 14 20  2  0  0  0  0
 15 16  2  0  0  0  0
 16 17  1  0  0  0  0
 16 18  1  0  0  0  0
 18 19  1  0  0  0  0
 18 20  1  0  0  0  0
 20 21  1  0  0  0  0
 22 23  2  0  0  0  0
 22 24  1  0  0  0  0
 24 25  1  0  0  0  0
 24 26  1  0  0  0  0
 26 27  1  0  0  0  0
 26 28  1  0  0  0  0
 26 29  1  0  0  0  0
M  END
$$$$

  -OEChem-04042215593D

 29 29  0     1  0  0  0  0  0999 V2000
   -2.5185   -4.4687    0.3483 H   0  0  0  0  0  0  0  0  0  0  0  0
   -2.6573   -3.4737   -0.0839 C   0  0  0  0  0  0  0  0  0  0  0  0
   -3.4595   -2.9638    0.4549 H   0  0  0  0  0  0  0  0  0  0  0  0
   -2.9436   -3.5819   -1.1328 H   0  0  0  0  0  0  0  0  0  0  0  0
   -1.3729   -2.6738    0.0221 C   0  0  0  0  0  0  0  0  0  0  0  0
   -0.3952   -3.1574    0.5643 O   0  0  0  0  0  0  0  0  0  0  0  0
   -1.3213   -1.3981   -0.4965 N   0  0  0  0  0  0  0  0  0  0  0  0
   -2.1399   -1.0731   -1.0154 H   0  0  0  0  0  0  0  0  0  0  0  0
   -0.1106   -0.5614   -0.5700 C   0  0  1  0  0  0  0  0  0  0  0  0
    0.6314   -1.1055   -1.1650 H   0  0  0  0  0  0  0  0  0  0  0  0
   -0.4571    0.7436   -1.3065 C   0  0  0  0  0  0  0  0  0  0  0  0
   -1.0243    1.4107   -0.6501 H   0  0  0  0  0  0  0  0  0  0  0  0
    0.4701    1.2567   -1.5796 H   0  0  0  0  0  0  0  0  0  0  0  0
   -1.2700    0.4753   -2.5397 C   0  0  0  0  0  0  0  0  0  0  0  0
   -2.6602    0.4276   -2.5460 N   0  0  0  0  0  0  0  0  0  0  0  0
   -3.0135    0.2337   -3.7961 C   0  0  0  0  0  0  0  0  0  0  0  0
   -4.0389    0.1534   -4.1465 H   0  0  0  0  0  0  0  0  0  0  0  0
   -1.8910    0.1446   -4.5982 N   0  0  0  0  0  0  0  0  0  0  0  0
   -1.8982    0.0046   -5.6073 H   0  0  0  0  0  0  0  0  0  0  0  0
   -0.7773    0.3086   -3.8022 C   0  0  0  0  0  0  0  0  0  0  0  0
    0.2687    0.3174   -4.0964 H   0  0  0  0  0  0  0  0  0  0  0  0
    0.5514   -0.2445    0.7872 C   0  0  0  0  0  0  0  0  0  0  0  0
    1.7644   -0.0864    0.8456 O   0  0  0  0  0  0  0  0  0  0  0  0
   -0.2319    0.1404    1.8605 N   0  0  0  0  0  0  0  0  0  0  0  0
   -1.2225   -0.0706    1.7898 H   0  0  0  0  0  0  0  0  0  0  0  0
    0.3212    0.4952    3.1610 C   0  0  0  0  0  0  0  0  0  0  0  0
    1.0078    1.3433    3.0677 H   0  0  0  0  0  0  0  0  0  0  0  0
   -0.4819    0.7772    3.8485 H   0  0  0  0  0  0  0  0  0  0  0  0
    0.8649   -0.3536    3.5893 H   0  0  0  0  0  0  0  0  0  0  0  0
  1  2  1  0  0  0  0
  2  3  1  0  0  0  0
  2  4  1  0  0  0  0
  2  5  1  0  0  0  0
  5  6  2  0  0  0  0
  5  7  1  0  0  0  0
  7  8  1  0  0  0  0
  7  9  1  0  0  0  0
  9 10  1  0  0  0  0
  9 11  1  0  0  0  0
  9 22  1  0  0  0  0
 11 12  1  0  0  0  0
 11 13  1  0  0  0  0
 11 14  1  0  0  0  0
 14 15  1  0  0  0  0
 14 20  2  0  0  0  0
 15 16  2  0  0  0  0
 16 17  1  0  0  0  0
 16 18  1  0  0  0  0
 18 19  1  0  0  0  0
 18 20  1  0  0  0  0
 20 21  1  0  0  0  0
 22 23  2  0  0  0  0
 22 24  1  0  0  0  0
 24 25  1  0  0  0  0
 24 26  1  0  0  0  0
 26 27  1  0  0  0  0
 26 28  1  0  0  0  0
 26 29  1  0  0  0  0
M  END
$$$$

  -OEChem-04042215593D

 29 29  0     1  0  0  0  0  0999 V2000
   -2.5032   -4.4737    0.3602 H   0  0  0  0  0  0  0  0  0  0  0  0
   -2.6527   -3.4769   -0.0645 C   0  0  0  0  0  0  0  0  0  0  0  0
   -3.4418   -2.9701    0.4960 H   0  0  0  0  0  0  0  0  0  0  0  0
   -2.9643   -3.5814   -1.1065 H   0  0  0  0  0  0  0  0  0  0  0  0
   -1.3657   -2.6777    0.0139 C   0  0  0  0  0  0  0  0  0  0  0  0
   -0.3752   -3.1658    0.5273 O   0  0  0  0  0  0  0  0  0  0  0  0
   -1.3223   -1.4006   -0.5034 N   0  0  0  0  0  0  0  0  0  0  0  0
   -2.1555   -1.0658   -0.9875 H   0  0  0  0  0  0  0  0  0  0  0  0
   -0.1133   -0.5593   -0.5744 C   0  0  1  0  0  0  0  0  0  0  0  0
    0.6313   -1.1012   -1.1678 H   0  0  0  0  0  0  0  0  0  0  0  0
   -0.4601    0.7448   -1.3105 C   0  0  0  0  0  0  0  0  0  0  0  0
   -1.0288    1.4109   -0.6543 H   0  0  0  0  0  0  0  0  0  0  0  0
    0.4653    1.2609   -1.5842 H   0  0  0  0  0  0  0  0  0  0  0  0
   -1.2689    0.4751   -2.5449 C   0  0  0  0  0  0  0  0  0  0  0  0
   -2.6337    0.7152   -2.6339 N   0  0  0  0  0  0  0  0  0  0  0  0
   -2.9805    0.4142   -3.8638 C   0  0  0  0  0  0  0  0  0  0  0  0
   -3.9873    0.4989   -4.2633 H   0  0  0  0  0  0  0  0  0  0  0  0
   -1.8785   -0.0278   -4.5719 N   0  0  0  0  0  0  0  0  0  0  0  0
   -1.8818   -0.3075   -5.5516 H   0  0  0  0  0  0  0  0  0  0  0  0
   -0.7826    0.0171   -3.7362 C   0  0  0  0  0  0  0  0  0  0  0  0
    0.2497   -0.2384   -3.9601 H   0  0  0  0  0  0  0  0  0  0  0  0
    0.5467   -0.2427    0.7842 C   0  0  0  0  0  0  0  0  0  0  0  0
    1.7602   -0.0907    0.8452 O   0  0  0  0  0  0  0  0  0  0  0  0
   -0.2364    0.1384    1.8593 N   0  0  0  0  0  0  0  0  0  0  0  0
   -1.2297   -0.0570    1.7845 H   0  0  0  0  0  0  0  0  0  0  0  0
    0.3166    0.4895    3.1609 C   0  0  0  0  0  0  0  0  0  0  0  0
    1.0147    1.3281    3.0688 H   0  0  0  0  0  0  0  0  0  0  0  0
   -0.4851    0.7836    3.8449 H   0  0  0  0  0  0  0  0  0  0  0  0
    0.8477   -0.3652    3.5929 H   0  0  0  0  0  0  0  0  0  0  0  0
  1  2  1  0  0  0  0
  2  3  1  0  0  0  0
  2  4  1  0  0  0  0
  2  5  1  0  0  0  0
  5  6  2  0  0  0  0
  5  7  1  0  0  0  0
  7  8  1  0  0  0  0
  7  9  1  0  0  0  0
  9 10  1  0  0  0  0
  9 11  1  0  0  0  0
  9 22  1  0  0  0  0
 11 12  1  0  0  0  0
 11 13  1  0  0  0  0
 11 14  1  0  0  0  0
 14 15  1  0  0  0  0
 14 20  2  0  0  0  0
 15 16  2  0  0  0  0
 16 17  1  0  0  0  0
 16 18  1  0  0  0  0
 18 19  1  0  0  0  0
 18 20  1  0  0  0  0
 20 21  1  0  0  0  0
 22 23  2  0  0  0  0
 22 24  1  0  0  0  0
 24 25  1  0  0  0  0
 24 26  1  0  0  0  0
 26 27  1  0  0  0  0
 26 28  1  0  0  0  0
 26 29  1  0  0  0  0
M  END
$$$$

  -OEChem-04042215593D

 29 29  0     1  0  0  0  0  0999 V2000
   -2.4844   -4.4871    0.3775 H   0  0  0  0  0  0  0  0  0  0  0  0
   -2.6425   -3.4905   -0.0445 C   0  0  0  0  0  0  0  0  0  0  0  0
   -3.4257   -2.9862    0.5265 H   0  0  0  0  0  0  0  0  0  0  0  0
   -2.9669   -3.5957   -1.0826 H   0  0  0  0  0  0  0  0  0  0  0  0
   -1.3568   -2.6879    0.0174 C   0  0  0  0  0  0  0  0  0  0  0  0
   -0.3588   -3.1732    0.5183 O   0  0  0  0  0  0  0  0  0  0  0  0
   -1.3229   -1.4110   -0.5022 N   0  0  0  0  0  0  0  0  0  0  0  0
   -2.1640   -1.0781   -0.9702 H   0  0  0  0  0  0  0  0  0  0  0  0
   -0.1173   -0.5644   -0.5743 C   0  0  1  0  0  0  0  0  0  0  0  0
    0.6308   -1.1070   -1.1627 H   0  0  0  0  0  0  0  0  0  0  0  0
   -0.4590    0.7387   -1.3165 C   0  0  0  0  0  0  0  0  0  0  0  0
   -1.0334    1.3982   -0.6589 H   0  0  0  0  0  0  0  0  0  0  0  0
    0.4649    1.2613   -1.5821 H   0  0  0  0  0  0  0  0  0  0  0  0
   -1.2630    0.4865   -2.5592 C   0  0  0  0  0  0  0  0  0  0  0  0
   -2.5334    1.0036   -2.7706 N   0  0  0  0  0  0  0  0  0  0  0  0
   -2.9043    0.6009   -3.9634 C   0  0  0  0  0  0  0  0  0  0  0  0
   -3.8525    0.8449   -4.4342 H   0  0  0  0  0  0  0  0  0  0  0  0
   -1.9140   -0.1820   -4.5268 N   0  0  0  0  0  0  0  0  0  0  0  0
   -1.9518   -0.6015   -5.4545 H   0  0  0  0  0  0  0  0  0  0  0  0
   -0.8643   -0.2551   -3.6360 C   0  0  0  0  0  0  0  0  0  0  0  0
    0.0846   -0.7720   -3.7511 H   0  0  0  0  0  0  0  0  0  0  0  0
    0.5410   -0.2440    0.7848 C   0  0  0  0  0  0  0  0  0  0  0  0
    1.7544   -0.0942    0.8475 O   0  0  0  0  0  0  0  0  0  0  0  0
   -0.2421    0.1347    1.8607 N   0  0  0  0  0  0  0  0  0  0  0  0
   -1.2362   -0.0554    1.7853 H   0  0  0  0  0  0  0  0  0  0  0  0
    0.3114    0.4923    3.1605 C   0  0  0  0  0  0  0  0  0  0  0  0
    1.0033    1.3359    3.0644 H   0  0  0  0  0  0  0  0  0  0  0  0
   -0.4905    0.7823    3.8458 H   0  0  0  0  0  0  0  0  0  0  0  0
    0.8494   -0.3574    3.5938 H   0  0  0  0  0  0  0  0  0  0  0  0
  1  2  1  0  0  0  0
  2  3  1  0  0  0  0
  2  4  1  0  0  0  0
  2  5  1  0  0  0  0
  5  6  2  0  0  0  0
  5  7  1  0  0  0  0
  7  8  1  0  0  0  0
  7  9  1  0  0  0  0
  9 10  1  0  0  0  0
  9 11  1  0  0  0  0
  9 22  1  0  0  0  0
 11 12  1  0  0  0  0
 11 13  1  0  0  0  0
 11 14  1  0  0  0  0
 14 15  1  0  0  0  0
 14 20  2  0  0  0  0
 15 16  2  0  0  0  0
 16 17  1  0  0  0  0
 16 18  1  0  0  0  0
 18 19  1  0  0  0  0
 18 20  1  0  0  0  0
 20 21  1  0  0  0  0
 22 23  2  0  0  0  0
 22 24  1  0  0  0  0
 24 25  1  0  0  0  0
 24 26  1  0  0  0  0
 26 27  1  0  0  0  0
 26 28  1  0  0  0  0
 26 29  1  0  0  0  0
M  END
$$$$

  -OEChem-04042215593D

 29 29  0     1  0  0  0  0  0999 V2000
   -2.4594   -4.5102    0.4154 H   0  0  0  0  0  0  0  0  0  0  0  0
   -2.6266   -3.5152   -0.0067 C   0  0  0  0  0  0  0  0  0  0  0  0
   -3.4049   -3.0133    0.5731 H   0  0  0  0  0  0  0  0  0  0  0  0
   -2.9635   -3.6238   -1.0404 H   0  0  0  0  0  0  0  0  0  0  0  0
   -1.3434   -2.7075    0.0387 C   0  0  0  0  0  0  0  0  0  0  0  0
   -0.3395   -3.1863    0.5334 O   0  0  0  0  0  0  0  0  0  0  0  0
   -1.3176   -1.4349   -0.4926 N   0  0  0  0  0  0  0  0  0  0  0  0
   -2.1641   -1.1085   -0.9533 H   0  0  0  0  0  0  0  0  0  0  0  0
   -0.1166   -0.5816   -0.5709 C   0  0  1  0  0  0  0  0  0  0  0  0
    0.6366   -1.1271   -1.1504 H   0  0  0  0  0  0  0  0  0  0  0  0
   -0.4546    0.7158   -1.3277 C   0  0  0  0  0  0  0  0  0  0  0  0
   -1.0367    1.3707   -0.6722 H   0  0  0  0  0  0  0  0  0  0  0  0
    0.4683    1.2452   -1.5834 H   0  0  0  0  0  0  0  0  0  0  0  0
   -1.2527    0.4809   -2.5798 C   0  0  0  0  0  0  0  0  0  0  0  0
   -2.3621    1.2375   -2.9293 N   0  0  0  0  0  0  0  0  0  0  0  0
   -2.7882    0.7701   -4.0788 C   0  0  0  0  0  0  0  0  0  0  0  0
   -3.6411    1.1575   -4.6292 H   0  0  0  0  0  0  0  0  0  0  0  0
   -1.9948   -0.2883   -4.4801 N   0  0  0  0  0  0  0  0  0  0  0  0
   -2.1041   -0.8093   -5.3489 H   0  0  0  0  0  0  0  0  0  0  0  0
   -1.0146   -0.4756   -3.5288 C   0  0  0  0  0  0  0  0  0  0  0  0
   -0.2106   -1.2069   -3.5248 H   0  0  0  0  0  0  0  0  0  0  0  0
    0.5361   -0.2467    0.7878 C   0  0  0  0  0  0  0  0  0  0  0  0
    1.7489   -0.0941    0.8538 O   0  0  0  0  0  0  0  0  0  0  0  0
   -0.2518    0.1362    1.8592 N   0  0  0  0  0  0  0  0  0  0  0  0
   -1.2452   -0.0565    1.7833 H   0  0  0  0  0  0  0  0  0  0  0  0
    0.2968    0.5054    3.1577 C   0  0  0  0  0  0  0  0  0  0  0  0
    0.9929    1.3443    3.0552 H   0  0  0  0  0  0  0  0  0  0  0  0
   -0.5071    0.8068    3.8361 H   0  0  0  0  0  0  0  0  0  0  0  0
    0.8286   -0.3422    3.6023 H   0  0  0  0  0  0  0  0  0  0  0  0
  1  2  1  0  0  0  0
  2  3  1  0  0  0  0
  2  4  1  0  0  0  0
  2  5  1  0  0  0  0
  5  6  2  0  0  0  0
  5  7  1  0  0  0  0
  7  8  1  0  0  0  0
  7  9  1  0  0  0  0
  9 10  1  0  0  0  0
  9 11  1  0  0  0  0
  9 22  1  0  0  0  0
 11 12  1  0  0  0  0
 11 13  1  0  0  0  0
 11 14  1  0  0  0  0
 14 15  1  0  0  0  0
 14 20  2  0  0  0  0
 15 16  2  0  0  0  0
 16 17  1  0  0  0  0
 16 18  1  0  0  0  0
 18 19  1  0  0  0  0
 18 20  1  0  0  0  0
 20 21  1  0  0  0  0
 22 23  2  0  0  0  0
 22 24  1  0  0  0  0
 24 25  1  0  0  0  0
 24 26  1  0  0  0  0
 26 27  1  0  0  0  0
 26 28  1  0  0  0  0
 26 29  1  0  0  0  0
M  END
$$$$

  -OEChem-04042215593D

 29 29  0     1  0  0  0  0  0999 V2000
   -2.4323   -4.5396    0.4952 H   0  0  0  0  0  0  0  0  0  0  0  0
   -2.6106   -3.5512    0.0620 C   0  0  0  0  0  0  0  0  0  0  0  0
   -3.3830   -3.0454    0.6464 H   0  0  0  0  0  0  0  0  0  0  0  0
   -2.9617   -3.6754   -0.9652 H   0  0  0  0  0  0  0  0  0  0  0  0
   -1.3308   -2.7369    0.0776 C   0  0  0  0  0  0  0  0  0  0  0  0
   -0.3169   -3.2058    0.5608 O   0  0  0  0  0  0  0  0  0  0  0  0
   -1.3183   -1.4712   -0.4713 N   0  0  0  0  0  0  0  0  0  0  0  0
   -2.1751   -1.1514   -0.9162 H   0  0  0  0  0  0  0  0  0  0  0  0
   -0.1239   -0.6096   -0.5651 C   0  0  1  0  0  0  0  0  0  0  0  0
    0.6319   -1.1587   -1.1375 H   0  0  0  0  0  0  0  0  0  0  0  0
   -0.4616    0.6788   -1.3397 C   0  0  0  0  0  0  0  0  0  0  0  0
   -1.0444    1.3369   -0.6878 H   0  0  0  0  0  0  0  0  0  0  0  0
    0.4628    1.2069   -1.5931 H   0  0  0  0  0  0  0  0  0  0  0  0
   -1.2581    0.4598   -2.5981 C   0  0  0  0  0  0  0  0  0  0  0  0
   -2.1507    1.4004   -3.0915 N   0  0  0  0  0  0  0  0  0  0  0  0
   -2.6383    0.9118   -4.2068 C   0  0  0  0  0  0  0  0  0  0  0  0
   -3.3616    1.4155   -4.8420 H   0  0  0  0  0  0  0  0  0  0  0  0
   -2.0962   -0.3362   -4.4496 N   0  0  0  0  0  0  0  0  0  0  0  0
   -2.2889   -0.9116   -5.2680 H   0  0  0  0  0  0  0  0  0  0  0  0
   -1.2127   -0.6261   -3.4316 C   0  0  0  0  0  0  0  0  0  0  0  0
   -0.5893   -1.5085   -3.3134 H   0  0  0  0  0  0  0  0  0  0  0  0
    0.5278   -0.2534    0.7889 C   0  0  0  0  0  0  0  0  0  0  0  0
    1.7398   -0.0962    0.8544 O   0  0  0  0  0  0  0  0  0  0  0  0
   -0.2618    0.1363    1.8565 N   0  0  0  0  0  0  0  0  0  0  0  0
   -1.2551   -0.0562    1.7817 H   0  0  0  0  0  0  0  0  0  0  0  0
    0.2851    0.5260    3.1498 C   0  0  0  0  0  0  0  0  0  0  0  0
    0.9708    1.3723    3.0372 H   0  0  0  0  0  0  0  0  0  0  0  0
   -0.5208    0.8245    3.8269 H   0  0  0  0  0  0  0  0  0  0  0  0
    0.8286   -0.3101    3.6020 H   0  0  0  0  0  0  0  0  0  0  0  0
  1  2  1  0  0  0  0
  2  3  1  0  0  0  0
  2  4  1  0  0  0  0
  2  5  1  0  0  0  0
  5  6  2  0  0  0  0
  5  7  1  0  0  0  0
  7  8  1  0  0  0  0
  7  9  1  0  0  0  0
  9 10  1  0  0  0  0
  9 11  1  0  0  0  0
  9 22  1  0  0  0  0
 11 12  1  0  0  0  0
 11 13  1  0  0  0  0
 11 14  1  0  0  0  0
 14 15  1  0  0  0  0
 14 20  2  0  0  0  0
 15 16  2  0  0  0  0
 16 17  1  0  0  0  0
 16 18  1  0  0  0  0
 18 19  1  0  0  0  0
 18 20  1  0  0  0  0
 20 21  1  0  0  0  0
 22 23  2  0  0  0  0
 22 24  1  0  0  0  0
 24 25  1  0  0  0  0
 24 26  1  0  0  0  0
 26 27  1  0  0  0  0
 26 28  1  0  0  0  0
 26 29  1  0  0  0  0
M  END
$$$$

  -OEChem-04042215593D

 29 29  0     1  0  0  0  0  0999 V2000
   -2.4060   -4.5645    0.6000 H   0  0  0  0  0  0  0  0  0  0  0  0
   -2.5986   -3.5846    0.1537 C   0  0  0  0  0  0  0  0  0  0  0  0
   -3.3569   -3.0702    0.7489 H   0  0  0  0  0  0  0  0  0  0  0  0
   -2.9767   -3.7293   -0.8611 H   0  0  0  0  0  0  0  0  0  0  0  0
   -1.3211   -2.7675    0.1205 C   0  0  0  0  0  0  0  0  0  0  0  0
   -0.2925   -3.2283    0.5792 O   0  0  0  0  0  0  0  0  0  0  0  0
   -1.3277   -1.5083   -0.4436 N   0  0  0  0  0  0  0  0  0  0  0  0
   -2.2016   -1.1886   -0.8527 H   0  0  0  0  0  0  0  0  0  0  0  0
   -0.1428   -0.6355   -0.5599 C   0  0  1  0  0  0  0  0  0  0  0  0
    0.6125   -1.1861   -1.1320 H   0  0  0  0  0  0  0  0  0  0  0  0
   -0.4878    0.6435   -1.3490 C   0  0  0  0  0  0  0  0  0  0  0  0
   -1.0666    1.3069   -0.6995 H   0  0  0  0  0  0  0  0  0  0  0  0
    0.4379    1.1676   -1.6066 H   0  0  0  0  0  0  0  0  0  0  0  0
   -1.2888    0.4393   -2.6093 C   0  0  0  0  0  0  0  0  0  0  0  0
   -1.9288    1.4931   -3.2463 N   0  0  0  0  0  0  0  0  0  0  0  0
   -2.4690    1.0088   -4.3385 C   0  0  0  0  0  0  0  0  0  0  0  0
   -3.0377    1.5884   -5.0603 H   0  0  0  0  0  0  0  0  0  0  0  0
   -2.2015   -0.3432   -4.4342 N   0  0  0  0  0  0  0  0  0  0  0  0
   -2.4729   -0.9410   -5.2132 H   0  0  0  0  0  0  0  0  0  0  0  0
   -1.4390   -0.7078   -3.3448 C   0  0  0  0  0  0  0  0  0  0  0  0
   -1.0083   -1.6811   -3.1257 H   0  0  0  0  0  0  0  0  0  0  0  0
    0.5169   -0.2586    0.7849 C   0  0  0  0  0  0  0  0  0  0  0  0
    1.7285   -0.0956    0.8418 O   0  0  0  0  0  0  0  0  0  0  0  0
   -0.2680    0.1346    1.8548 N   0  0  0  0  0  0  0  0  0  0  0  0
   -1.2610   -0.0613    1.7877 H   0  0  0  0  0  0  0  0  0  0  0  0
    0.2851    0.5408    3.1405 C   0  0  0  0  0  0  0  0  0  0  0  0
    0.9617    1.3928    3.0160 H   0  0  0  0  0  0  0  0  0  0  0  0
   -0.5189    0.8371    3.8206 H   0  0  0  0  0  0  0  0  0  0  0  0
    0.8394   -0.2865    3.5957 H   0  0  0  0  0  0  0  0  0  0  0  0
  1  2  1  0  0  0  0
  2  3  1  0  0  0  0
  2  4  1  0  0  0  0
  2  5  1  0  0  0  0
  5  6  2  0  0  0  0
  5  7  1  0  0  0  0
  7  8  1  0  0  0  0
  7  9  1  0  0  0  0
  9 10  1  0  0  0  0
  9 11  1  0  0  0  0
  9 22  1  0  0  0  0
 11 12  1  0  0  0  0
 11 13  1  0  0  0  0
 11 14  1  0  0  0  0
 14 15  1  0  0  0  0
 14 20  2  0  0  0  0
 15 16  2  0  0  0  0
 16 17  1  0  0  0  0
 16 18  1  0  0  0  0
 18 19  1  0  0  0  0
 18 20  1  0  0  0  0
 20 21  1  0  0  0  0
 22 23  2  0  0  0  0
 22 24  1  0  0  0  0
 24 25  1  0  0  0  0
 24 26  1  0  0  0  0
 26 27  1  0  0  0  0
 26 28  1  0  0  0  0
 26 29  1  0  0  0  0
M  END
$$$$

  -OEChem-04042215593D

 29 29  0     1  0  0  0  0  0999 V2000
   -2.2207   -4.6599    0.8445 H   0  0  0  0  0  0  0  0  0  0  0  0
   -2.4862   -3.7036    0.3845 C   0  0  0  0  0  0  0  0  0  0  0  0
   -3.1976   -3.1877    1.0335 H   0  0  0  0  0  0  0  0  0  0  0  0
   -2.9567   -3.8979   -0.5822 H   0  0  0  0  0  0  0  0  0  0  0  0
   -1.2436   -2.8542    0.1964 C   0  0  0  0  0  0  0  0  0  0  0  0
   -0.1577   -3.2822    0.5400 O   0  0  0  0  0  0  0  0  0  0  0  0
   -1.3510   -1.5979   -0.3658 N   0  0  0  0  0  0  0  0  0  0  0  0
   -2.2850   -1.2719   -0.5969 H   0  0  0  0  0  0  0  0  0  0  0  0
   -0.2238   -0.6622   -0.5371 C   0  0  1  0  0  0  0  0  0  0  0  0
    0.5291   -1.2003   -1.1245 H   0  0  0  0  0  0  0  0  0  0  0  0
   -0.5961    0.5999   -1.3535 C   0  0  0  0  0  0  0  0  0  0  0  0
   -0.9431    1.3639   -0.6510 H   0  0  0  0  0  0  0  0  0  0  0  0
    0.3159    0.9878   -1.8179 H   0  0  0  0  0  0  0  0  0  0  0  0
   -1.6619    0.5066   -2.4218 C   0  0  0  0  0  0  0  0  0  0  0  0
   -1.9995    1.6398   -3.1504 N   0  0  0  0  0  0  0  0  0  0  0  0
   -2.8475    1.2730   -4.0792 C   0  0  0  0  0  0  0  0  0  0  0  0
   -3.2960    1.9392   -4.8112 H   0  0  0  0  0  0  0  0  0  0  0  0
   -3.0708   -0.0861   -3.9927 N   0  0  0  0  0  0  0  0  0  0  0  0
   -3.6450   -0.6265   -4.6377 H   0  0  0  0  0  0  0  0  0  0  0  0
   -2.2962   -0.5837   -2.9662 C   0  0  0  0  0  0  0  0  0  0  0  0
   -2.1635   -1.6265   -2.6985 H   0  0  0  0  0  0  0  0  0  0  0  0
    0.4739   -0.2514    0.7792 C   0  0  0  0  0  0  0  0  0  0  0  0
    1.6769   -0.0280    0.7871 O   0  0  0  0  0  0  0  0  0  0  0  0
   -0.2819    0.0972    1.8854 N   0  0  0  0  0  0  0  0  0  0  0  0
   -1.2688   -0.1340    1.8588 H   0  0  0  0  0  0  0  0  0  0  0  0
    0.3059    0.5360    3.1449 C   0  0  0  0  0  0  0  0  0  0  0  0
    0.9252    1.4260    2.9905 H   0  0  0  0  0  0  0  0  0  0  0  0
   -0.4812    0.7854    3.8628 H   0  0  0  0  0  0  0  0  0  0  0  0
    0.9284   -0.2571    3.5723 H   0  0  0  0  0  0  0  0  0  0  0  0
  1  2  1  0  0  0  0
  2  3  1  0  0  0  0
  2  4  1  0  0  0  0
  2  5  1  0  0  0  0
  5  6  2  0  0  0  0
  5  7  1  0  0  0  0
  7  8  1  0  0  0  0
  7  9  1  0  0  0  0
  9 10  1  0  0  0  0
  9 11  1  0  0  0  0
  9 22  1  0  0  0  0
 11 12  1  0  0  0  0
 11 13  1  0  0  0  0
 11 14  1  0  0  0  0
 14 15  1  0  0  0  0
 14 20  2  0  0  0  0
 15 16  2  0  0  0  0
 16 17  1  0  0  0  0
 16 18  1  0  0  0  0
 18 19  1  0  0  0  0
 18 20  1  0  0  0  0
 20 21  1  0  0  0  0
 22 23  2  0  0  0  0
 22 24  1  0  0  0  0
 24 25  1  0  0  0  0
 24 26  1  0  0  0  0
 26 27  1  0  0  0  0
 26 28  1  0  0  0  0
 26 29  1  0  0  0  0
M  END
$$$$

  -OEChem-04042215593D

 29 29  0     1  0  0  0  0  0999 V2000
   -2.1506   -4.6754    0.9330 H   0  0  0  0  0  0  0  0  0  0  0  0
   -2.4423   -3.7319    0.4623 C   0  0  0  0  0  0  0  0  0  0  0  0
   -3.1340   -3.2080    1.1260 H   0  0  0  0  0  0  0  0  0  0  0  0
   -2.9468   -3.9527   -0.4813 H   0  0  0  0  0  0  0  0  0  0  0  0
   -1.2153   -2.8767    0.2080 C   0  0  0  0  0  0  0  0  0  0  0  0
   -0.1124   -3.2969    0.5031 O   0  0  0  0  0  0  0  0  0  0  0  0
   -1.3566   -1.6222   -0.3517 N   0  0  0  0  0  0  0  0  0  0  0  0
   -2.3033   -1.2855   -0.4934 H   0  0  0  0  0  0  0  0  0  0  0  0
   -0.2470   -0.6711   -0.5398 C   0  0  1  0  0  0  0  0  0  0  0  0
    0.5045   -1.2043   -1.1338 H   0  0  0  0  0  0  0  0  0  0  0  0
   -0.6272    0.5877   -1.3587 C   0  0  0  0  0  0  0  0  0  0  0  0
   -0.9584    1.3612   -0.6598 H   0  0  0  0  0  0  0  0  0  0  0  0
    0.2889    0.9601   -1.8288 H   0  0  0  0  0  0  0  0  0  0  0  0
   -1.6942    0.5153   -2.4306 C   0  0  0  0  0  0  0  0  0  0  0  0
   -1.7827    1.5635   -3.3384 N   0  0  0  0  0  0  0  0  0  0  0  0
   -2.6941    1.2479   -4.2241 C   0  0  0  0  0  0  0  0  0  0  0  0
   -2.9907    1.8711   -5.0631 H   0  0  0  0  0  0  0  0  0  0  0  0
   -3.2073    0.0014   -3.9338 N   0  0  0  0  0  0  0  0  0  0  0  0
   -3.8938   -0.4936   -4.5006 H   0  0  0  0  0  0  0  0  0  0  0  0
   -2.5593   -0.4820   -2.8163 C   0  0  0  0  0  0  0  0  0  0  0  0
   -2.6782   -1.4691   -2.3877 H   0  0  0  0  0  0  0  0  0  0  0  0
    0.4634   -0.2536    0.7681 C   0  0  0  0  0  0  0  0  0  0  0  0
    1.6629   -0.0127    0.7614 O   0  0  0  0  0  0  0  0  0  0  0  0
   -0.2817    0.0816    1.8858 N   0  0  0  0  0  0  0  0  0  0  0  0
   -1.2660   -0.1602    1.8724 H   0  0  0  0  0  0  0  0  0  0  0  0
    0.3175    0.5316    3.1361 C   0  0  0  0  0  0  0  0  0  0  0  0
    0.9196    1.4315    2.9711 H   0  0  0  0  0  0  0  0  0  0  0  0
   -0.4626    0.7693    3.8655 H   0  0  0  0  0  0  0  0  0  0  0  0
    0.9594   -0.2503    3.5555 H   0  0  0  0  0  0  0  0  0  0  0  0
  1  2  1  0  0  0  0
  2  3  1  0  0  0  0
  2  4  1  0  0  0  0
  2  5  1  0  0  0  0
  5  6  2  0  0  0  0
  5  7  1  0  0  0  0
  7  8  1  0  0  0  0
  7  9  1  0  0  0  0
  9 10  1  0  0  0  0
  9 11  1  0  0  0  0
  9 22  1  0  0  0  0
 11 12  1  0  0  0  0
 11 13  1  0  0  0  0
 11 14  1  0  0  0  0
 14 15  1  0  0  0  0
 14 20  2  0  0  0  0
 15 16  2  0  0  0  0
 16 17  1  0  0  0  0
 16 18  1  0  0  0  0
 18 19  1  0  0  0  0
 18 20  1  0  0  0  0
 20 21  1  0  0  0  0
 22 23  2  0  0  0  0
 22 24  1  0  0  0  0
 24 25  1  0  0  0  0
 24 26  1  0  0  0  0
 26 27  1  0  0  0  0
 26 28  1  0  0  0  0
 26 29  1  0  0  0  0
M  END
$$$$

  -OEChem-04042215593D

 29 29  0     1  0  0  0  0  0999 V2000
   -2.1275   -4.6905    0.9217 H   0  0  0  0  0  0  0  0  0  0  0  0
   -2.4270   -3.7455    0.4593 C   0  0  0  0  0  0  0  0  0  0  0  0
   -3.1193   -3.2308    1.1295 H   0  0  0  0  0  0  0  0  0  0  0  0
   -2.9336   -3.9626   -0.4841 H   0  0  0  0  0  0  0  0  0  0  0  0
   -1.2060   -2.8813    0.2059 C   0  0  0  0  0  0  0  0  0  0  0  0
   -0.1007   -3.2932    0.5041 O   0  0  0  0  0  0  0  0  0  0  0  0
   -1.3578   -1.6257   -0.3492 N   0  0  0  0  0  0  0  0  0  0  0  0
   -2.3059   -1.2918   -0.4712 H   0  0  0  0  0  0  0  0  0  0  0  0
   -0.2534   -0.6708   -0.5434 C   0  0  1  0  0  0  0  0  0  0  0  0
    0.4946   -1.2066   -1.1397 H   0  0  0  0  0  0  0  0  0  0  0  0
   -0.6248    0.5888   -1.3658 C   0  0  0  0  0  0  0  0  0  0  0  0
   -0.9450    1.3729   -0.6734 H   0  0  0  0  0  0  0  0  0  0  0  0
    0.2971    0.9444   -1.8379 H   0  0  0  0  0  0  0  0  0  0  0  0
   -1.6903    0.5179   -2.4400 C   0  0  0  0  0  0  0  0  0  0  0  0
   -1.5790    1.3748   -3.5282 N   0  0  0  0  0  0  0  0  0  0  0  0
   -2.5735    1.1189   -4.3400 C   0  0  0  0  0  0  0  0  0  0  0  0
   -2.7546    1.6264   -5.2834 H   0  0  0  0  0  0  0  0  0  0  0  0
   -3.3495    0.1077   -3.8137 N   0  0  0  0  0  0  0  0  0  0  0  0
   -4.1740   -0.2888   -4.2613 H   0  0  0  0  0  0  0  0  0  0  0  0
   -2.7935   -0.2853   -2.6139 C   0  0  0  0  0  0  0  0  0  0  0  0
   -3.1612   -1.0752   -1.9734 H   0  0  0  0  0  0  0  0  0  0  0  0
    0.4665   -0.2543    0.7598 C   0  0  0  0  0  0  0  0  0  0  0  0
    1.6639   -0.0037    0.7429 O   0  0  0  0  0  0  0  0  0  0  0  0
   -0.2713    0.0751    1.8843 N   0  0  0  0  0  0  0  0  0  0  0  0
   -1.2506   -0.1864    1.8831 H   0  0  0  0  0  0  0  0  0  0  0  0
    0.3376    0.5166    3.1328 C   0  0  0  0  0  0  0  0  0  0  0  0
    0.9525    1.4075    2.9667 H   0  0  0  0  0  0  0  0  0  0  0  0
   -0.4373    0.7659    3.8637 H   0  0  0  0  0  0  0  0  0  0  0  0
    0.9687   -0.2749    3.5502 H   0  0  0  0  0  0  0  0  0  0  0  0
  1  2  1  0  0  0  0
  2  3  1  0  0  0  0
  2  4  1  0  0  0  0
  2  5  1  0  0  0  0
  5  6  2  0  0  0  0
  5  7  1  0  0  0  0
  7  8  1  0  0  0  0
  7  9  1  0  0  0  0
  9 10  1  0  0  0  0
  9 11  1  0  0  0  0
  9 22  1  0  0  0  0
 11 12  1  0  0  0  0
 11 13  1  0  0  0  0
 11 14  1  0  0  0  0
 14 15  1  0  0  0  0
 14 20  2  0  0  0  0
 15 16  2  0  0  0  0
 16 17  1  0  0  0  0
 16 18  1  0  0  0  0
 18 19  1  0  0  0  0
 18 20  1  0  0  0  0
 20 21  1  0  0  0  0
 22 23  2  0  0  0  0
 22 24  1  0  0  0  0
 24 25  1  0  0  0  0
 24 26  1  0  0  0  0
 26 27  1  0  0  0  0
 26 28  1  0  0  0  0
 26 29  1  0  0  0  0
M  END
$$$$

  -OEChem-04042215593D

 29 29  0     1  0  0  0  0  0999 V2000
   -2.1789   -4.7588    0.6800 H   0  0  0  0  0  0  0  0  0  0  0  0
   -2.4279   -3.8259    0.1658 C   0  0  0  0  0  0  0  0  0  0  0  0
   -3.3396   -3.4146    0.6056 H   0  0  0  0  0  0  0  0  0  0  0  0
   -2.6049   -4.0451   -0.8899 H   0  0  0  0  0  0  0  0  0  0  0  0
   -1.2887   -2.8337    0.3073 C   0  0  0  0  0  0  0  0  0  0  0  0
   -0.3203   -3.1221    0.9852 O   0  0  0  0  0  0  0  0  0  0  0  0
   -1.3705   -1.6076   -0.3242 N   0  0  0  0  0  0  0  0  0  0  0  0
   -2.1055   -1.5459   -1.0207 H   0  0  0  0  0  0  0  0  0  0  0  0
   -0.2075   -0.7203   -0.5234 C   0  0  1  0  0  0  0  0  0  0  0  0
    0.5324   -1.3037   -1.0833 H   0  0  0  0  0  0  0  0  0  0  0  0
   -0.5241    0.5410   -1.3690 C   0  0  0  0  0  0  0  0  0  0  0  0
   -0.8239    1.3513   -0.6977 H   0  0  0  0  0  0  0  0  0  0  0  0
    0.4002    0.8639   -1.8595 H   0  0  0  0  0  0  0  0  0  0  0  0
   -1.6060    0.4299   -2.4136 C   0  0  0  0  0  0  0  0  0  0  0  0
   -1.4372    0.9346   -3.6955 N   0  0  0  0  0  0  0  0  0  0  0  0
   -2.5873    0.8267   -4.3131 C   0  0  0  0  0  0  0  0  0  0  0  0
   -2.7734    1.1314   -5.3392 H   0  0  0  0  0  0  0  0  0  0  0  0
   -3.5259    0.2859   -3.4566 N   0  0  0  0  0  0  0  0  0  0  0  0
   -4.5123    0.1589   -3.6778 H   0  0  0  0  0  0  0  0  0  0  0  0
   -2.9199    0.0719   -2.2361 C   0  0  0  0  0  0  0  0  0  0  0  0
   -3.3965   -0.2392   -1.3120 H   0  0  0  0  0  0  0  0  0  0  0  0
    0.4885   -0.2654    0.7810 C   0  0  0  0  0  0  0  0  0  0  0  0
    1.6936   -0.0495    0.7797 O   0  0  0  0  0  0  0  0  0  0  0  0
   -0.2712    0.1644    1.8551 N   0  0  0  0  0  0  0  0  0  0  0  0
   -1.2389   -0.1403    1.8621 H   0  0  0  0  0  0  0  0  0  0  0  0
    0.3233    0.6248    3.1035 C   0  0  0  0  0  0  0  0  0  0  0  0
    0.9700    1.4901    2.9242 H   0  0  0  0  0  0  0  0  0  0  0  0
   -0.4597    0.9211    3.8079 H   0  0  0  0  0  0  0  0  0  0  0  0
    0.9194   -0.1724    3.5598 H   0  0  0  0  0  0  0  0  0  0  0  0
  1  2  1  0  0  0  0
  2  3  1  0  0  0  0
  2  4  1  0  0  0  0
  2  5  1  0  0  0  0
  5  6  2  0  0  0  0
  5  7  1  0  0  0  0
  7  8  1  0  0  0  0
  7  9  1  0  0  0  0
  9 10  1  0  0  0  0
  9 11  1  0  0  0  0
  9 22  1  0  0  0  0
 11 12  1  0  0  0  0
 11 13  1  0  0  0  0
 11 14  1  0  0  0  0
 14 15  1  0  0  0  0
 14 20  2  0  0  0  0
 15 16  2  0  0  0  0
 16 17  1  0  0  0  0
 16 18  1  0  0  0  0
 18 19  1  0  0  0  0
 18 20  1  0  0  0  0
 20 21  1  0  0  0  0
 22 23  2  0  0  0  0
 22 24  1  0  0  0  0
 24 25  1  0  0  0  0
 24 26  1  0  0  0  0
 26 27  1  0  0  0  0
 26 28  1  0  0  0  0
 26 29  1  0  0  0  0
M  END
$$$$

  -OEChem-04042215593D

 29 29  0     1  0  0  0  0  0999 V2000
   -2.2705   -4.7023    0.6125 H   0  0  0  0  0  0  0  0  0  0  0  0
   -2.4853   -3.7623    0.0961 C   0  0  0  0  0  0  0  0  0  0  0  0
   -3.3897   -3.3243    0.5251 H   0  0  0  0  0  0  0  0  0  0  0  0
   -2.6556   -3.9754   -0.9620 H   0  0  0  0  0  0  0  0  0  0  0  0
   -1.3196   -2.8039    0.2525 C   0  0  0  0  0  0  0  0  0  0  0  0
   -0.3570   -3.1275    0.9229 O   0  0  0  0  0  0  0  0  0  0  0  0
   -1.3743   -1.5631   -0.3513 N   0  0  0  0  0  0  0  0  0  0  0  0
   -2.1222   -1.4554   -1.0301 H   0  0  0  0  0  0  0  0  0  0  0  0
   -0.1977   -0.6875   -0.5265 C   0  0  1  0  0  0  0  0  0  0  0  0
    0.5361   -1.2643   -1.1006 H   0  0  0  0  0  0  0  0  0  0  0  0
   -0.5178    0.5872   -1.3456 C   0  0  0  0  0  0  0  0  0  0  0  0
   -0.8253    1.3827   -0.6601 H   0  0  0  0  0  0  0  0  0  0  0  0
    0.3969    0.9287   -1.8410 H   0  0  0  0  0  0  0  0  0  0  0  0
   -1.6087    0.4466   -2.3725 C   0  0  0  0  0  0  0  0  0  0  0  0
   -1.4087    0.6567   -3.7286 N   0  0  0  0  0  0  0  0  0  0  0  0
   -2.5831    0.5859   -4.3060 C   0  0  0  0  0  0  0  0  0  0  0  0
   -2.7601    0.7059   -5.3711 H   0  0  0  0  0  0  0  0  0  0  0  0
   -3.5582    0.3506   -3.3554 N   0  0  0  0  0  0  0  0  0  0  0  0
   -4.5587    0.3078   -3.5429 H   0  0  0  0  0  0  0  0  0  0  0  0
   -2.9482    0.2968   -2.1198 C   0  0  0  0  0  0  0  0  0  0  0  0
   -3.4205    0.2113   -1.1455 H   0  0  0  0  0  0  0  0  0  0  0  0
    0.5017   -0.2681    0.7873 C   0  0  0  0  0  0  0  0  0  0  0  0
    1.7072   -0.0557    0.7895 O   0  0  0  0  0  0  0  0  0  0  0  0
   -0.2563    0.1503    1.8670 N   0  0  0  0  0  0  0  0  0  0  0  0
   -1.2233   -0.1565    1.8709 H   0  0  0  0  0  0  0  0  0  0  0  0
    0.3396    0.5880    3.1229 C   0  0  0  0  0  0  0  0  0  0  0  0
    0.9793    1.4617    2.9603 H   0  0  0  0  0  0  0  0  0  0  0  0
   -0.4425    0.8629    3.8370 H   0  0  0  0  0  0  0  0  0  0  0  0
    0.9433   -0.2144    3.5595 H   0  0  0  0  0  0  0  0  0  0  0  0
  1  2  1  0  0  0  0
  2  3  1  0  0  0  0
  2  4  1  0  0  0  0
  2  5  1  0  0  0  0
  5  6  2  0  0  0  0
  5  7  1  0  0  0  0
  7  8  1  0  0  0  0
  7  9  1  0  0  0  0
  9 10  1  0  0  0  0
  9 11  1  0  0  0  0
  9 22  1  0  0  0  0
 11 12  1  0  0  0  0
 11 13  1  0  0  0  0
 11 14  1  0  0  0  0
 14 15  1  0  0  0  0
 14 20  2  0  0  0  0
 15 16  2  0  0  0  0
 16 17  1  0  0  0  0
 16 18  1  0  0  0  0
 18 19  1  0  0  0  0
 18 20  1  0  0  0  0
 20 21  1  0  0  0  0
 22 23  2  0  0  0  0
 22 24  1  0  0  0  0
 24 25  1  0  0  0  0
 24 26  1  0  0  0  0
 26 27  1  0  0  0  0
 26 28  1  0  0  0  0
 26 29  1  0  0  0  0
M  END
$$$$

  -OEChem-04042215593D

 29 29  0     1  0  0  0  0  0999 V2000
   -2.3236   -4.6609    0.5430 H   0  0  0  0  0  0  0  0  0  0  0  0
   -2.5286   -3.7053    0.0518 C   0  0  0  0  0  0  0  0  0  0  0  0
   -3.4227   -3.2644    0.4989 H   0  0  0  0  0  0  0  0  0  0  0  0
   -2.7110   -3.8891   -1.0097 H   0  0  0  0  0  0  0  0  0  0  0  0
   -1.3478   -2.7678    0.2206 C   0  0  0  0  0  0  0  0  0  0  0  0
   -0.3914   -3.1137    0.8892 O   0  0  0  0  0  0  0  0  0  0  0  0
   -1.3840   -1.5183   -0.3654 N   0  0  0  0  0  0  0  0  0  0  0  0
   -2.1385   -1.3814   -1.0325 H   0  0  0  0  0  0  0  0  0  0  0  0
   -0.1958   -0.6550   -0.5285 C   0  0  1  0  0  0  0  0  0  0  0  0
    0.5311   -1.2293   -1.1141 H   0  0  0  0  0  0  0  0  0  0  0  0
   -0.5165    0.6288   -1.3292 C   0  0  0  0  0  0  0  0  0  0  0  0
   -0.8233    1.4152   -0.6332 H   0  0  0  0  0  0  0  0  0  0  0  0
    0.3901    0.9797   -1.8323 H   0  0  0  0  0  0  0  0  0  0  0  0
   -1.6160    0.4686   -2.3403 C   0  0  0  0  0  0  0  0  0  0  0  0
   -1.4033    0.3762   -3.7069 N   0  0  0  0  0  0  0  0  0  0  0  0
   -2.5846    0.3513   -4.2745 C   0  0  0  0  0  0  0  0  0  0  0  0
   -2.7578    0.2841   -5.3449 H   0  0  0  0  0  0  0  0  0  0  0  0
   -3.5705    0.4321   -3.3085 N   0  0  0  0  0  0  0  0  0  0  0  0
   -4.5706    0.4818   -3.4968 H   0  0  0  0  0  0  0  0  0  0  0  0
   -2.9585    0.5325   -2.0765 C   0  0  0  0  0  0  0  0  0  0  0  0
   -3.4231    0.6727   -1.1045 H   0  0  0  0  0  0  0  0  0  0  0  0
    0.5092   -0.2620    0.7897 C   0  0  0  0  0  0  0  0  0  0  0  0
    1.7165   -0.0590    0.7938 O   0  0  0  0  0  0  0  0  0  0  0  0
   -0.2456    0.1510    1.8737 N   0  0  0  0  0  0  0  0  0  0  0  0
   -1.2125   -0.1567    1.8748 H   0  0  0  0  0  0  0  0  0  0  0  0
    0.3549    0.5557    3.1383 C   0  0  0  0  0  0  0  0  0  0  0  0
    1.0177    1.4151    2.9914 H   0  0  0  0  0  0  0  0  0  0  0  0
   -0.4239    0.8408    3.8516 H   0  0  0  0  0  0  0  0  0  0  0  0
    0.9350   -0.2684    3.5670 H   0  0  0  0  0  0  0  0  0  0  0  0
  1  2  1  0  0  0  0
  2  3  1  0  0  0  0
  2  4  1  0  0  0  0
  2  5  1  0  0  0  0
  5  6  2  0  0  0  0
  5  7  1  0  0  0  0
  7  8  1  0  0  0  0
  7  9  1  0  0  0  0
  9 10  1  0  0  0  0
  9 11  1  0  0  0  0
  9 22  1  0  0  0  0
 11 12  1  0  0  0  0
 11 13  1  0  0  0  0
 11 14  1  0  0  0  0
 14 15  1  0  0  0  0
 14 20  2  0  0  0  0
 15 16  2  0  0  0  0
 16 17  1  0  0  0  0
 16 18  1  0  0  0  0
 18 19  1  0  0  0  0
 18 20  1  0  0  0  0
 20 21  1  0  0  0  0
 22 23  2  0  0  0  0
 22 24  1  0  0  0  0
 24 25  1  0  0  0  0
 24 26  1  0  0  0  0
 26 27  1  0  0  0  0
 26 28  1  0  0  0  0
 26 29  1  0  0  0  0
M  END
$$$$

  -OEChem-04042215593D

 29 29  0     1  0  0  0  0  0999 V2000
   -2.3596   -4.6288    0.5067 H   0  0  0  0  0  0  0  0  0  0  0  0
   -2.5563   -3.6701    0.0183 C   0  0  0  0  0  0  0  0  0  0  0  0
   -3.4533   -3.2281    0.4583 H   0  0  0  0  0  0  0  0  0  0  0  0
   -2.7283   -3.8478   -1.0459 H   0  0  0  0  0  0  0  0  0  0  0  0
   -1.3736   -2.7387    0.2045 C   0  0  0  0  0  0  0  0  0  0  0  0
   -0.4252   -3.0944    0.8796 O   0  0  0  0  0  0  0  0  0  0  0  0
   -1.3971   -1.4849   -0.3727 N   0  0  0  0  0  0  0  0  0  0  0  0
   -2.1446   -1.3390   -1.0461 H   0  0  0  0  0  0  0  0  0  0  0  0
   -0.1983   -0.6345   -0.5291 C   0  0  1  0  0  0  0  0  0  0  0  0
    0.5217   -1.2103   -1.1221 H   0  0  0  0  0  0  0  0  0  0  0  0
   -0.5159    0.6569   -1.3158 C   0  0  0  0  0  0  0  0  0  0  0  0
   -0.8130    1.4403   -0.6119 H   0  0  0  0  0  0  0  0  0  0  0  0
    0.3873    1.0055   -1.8264 H   0  0  0  0  0  0  0  0  0  0  0  0
   -1.6233    0.4935   -2.3164 C   0  0  0  0  0  0  0  0  0  0  0  0
   -1.4325    0.1076   -3.6341 N   0  0  0  0  0  0  0  0  0  0  0  0
   -2.6081    0.1467   -4.2135 C   0  0  0  0  0  0  0  0  0  0  0  0
   -2.7956   -0.0958   -5.2559 H   0  0  0  0  0  0  0  0  0  0  0  0
   -3.5676    0.5447   -3.3008 N   0  0  0  0  0  0  0  0  0  0  0  0
   -4.5528    0.6932   -3.5144 H   0  0  0  0  0  0  0  0  0  0  0  0
   -2.9420    0.7832   -2.0949 C   0  0  0  0  0  0  0  0  0  0  0  0
   -3.3797    1.1499   -1.1705 H   0  0  0  0  0  0  0  0  0  0  0  0
    0.5125   -0.2582    0.7908 C   0  0  0  0  0  0  0  0  0  0  0  0
    1.7215   -0.0655    0.7952 O   0  0  0  0  0  0  0  0  0  0  0  0
   -0.2376    0.1565    1.8773 N   0  0  0  0  0  0  0  0  0  0  0  0
   -1.2072   -0.1429    1.8763 H   0  0  0  0  0  0  0  0  0  0  0  0
    0.3685    0.5380    3.1465 C   0  0  0  0  0  0  0  0  0  0  0  0
    1.0420    1.3907    3.0097 H   0  0  0  0  0  0  0  0  0  0  0  0
   -0.4059    0.8234    3.8648 H   0  0  0  0  0  0  0  0  0  0  0  0
    0.9393   -0.2984    3.5634 H   0  0  0  0  0  0  0  0  0  0  0  0
  1  2  1  0  0  0  0
  2  3  1  0  0  0  0
  2  4  1  0  0  0  0
  2  5  1  0  0  0  0
  5  6  2  0  0  0  0
  5  7  1  0  0  0  0
  7  8  1  0  0  0  0
  7  9  1  0  0  0  0
  9 10  1  0  0  0  0
  9 11  1  0  0  0  0
  9 22  1  0  0  0  0
 11 12  1  0  0  0  0
 11 13  1  0  0  0  0
 11 14  1  0  0  0  0
 14 15  1  0  0  0  0
 14 20  2  0  0  0  0
 15 16  2  0  0  0  0
 16 17  1  0  0  0  0
 16 18  1  0  0  0  0
 18 19  1  0  0  0  0
 18 20  1  0  0  0  0
 20 21  1  0  0  0  0
 22 23  2  0  0  0  0
 22 24  1  0  0  0  0
 24 25  1  0  0  0  0
 24 26  1  0  0  0  0
 26 27  1  0  0  0  0
 26 28  1  0  0  0  0
 26 29  1  0  0  0  0
M  END
$$$$

  -OEChem-04042215593D

 29 29  0     1  0  0  0  0  0999 V2000
   -2.3890   -4.6160    0.4635 H   0  0  0  0  0  0  0  0  0  0  0  0
   -2.5748   -3.6531   -0.0208 C   0  0  0  0  0  0  0  0  0  0  0  0
   -3.4829   -3.2158    0.4008 H   0  0  0  0  0  0  0  0  0  0  0  0
   -2.7205   -3.8212   -1.0907 H   0  0  0  0  0  0  0  0  0  0  0  0
   -1.3982   -2.7215    0.2018 C   0  0  0  0  0  0  0  0  0  0  0  0
   -0.4671   -3.0794    0.8999 O   0  0  0  0  0  0  0  0  0  0  0  0
   -1.4097   -1.4658   -0.3707 N   0  0  0  0  0  0  0  0  0  0  0  0
   -2.1354   -1.3289   -1.0699 H   0  0  0  0  0  0  0  0  0  0  0  0
   -0.2024   -0.6276   -0.5233 C   0  0  1  0  0  0  0  0  0  0  0  0
    0.5110   -1.2057   -1.1218 H   0  0  0  0  0  0  0  0  0  0  0  0
   -0.5176    0.6695   -1.3012 C   0  0  0  0  0  0  0  0  0  0  0  0
   -0.8013    1.4544   -0.5936 H   0  0  0  0  0  0  0  0  0  0  0  0
    0.3843    1.0086   -1.8202 H   0  0  0  0  0  0  0  0  0  0  0  0
   -1.6318    0.5115   -2.2955 C   0  0  0  0  0  0  0  0  0  0  0  0
   -1.5061   -0.1454   -3.5103 N   0  0  0  0  0  0  0  0  0  0  0  0
   -2.6593   -0.0288   -4.1238 C   0  0  0  0  0  0  0  0  0  0  0  0
   -2.8833   -0.4299   -5.1084 H   0  0  0  0  0  0  0  0  0  0  0  0
   -3.5432    0.6774   -3.3292 N   0  0  0  0  0  0  0  0  0  0  0  0
   -4.4938    0.9323   -3.5931 H   0  0  0  0  0  0  0  0  0  0  0  0
   -2.8895    1.0323   -2.1676 C   0  0  0  0  0  0  0  0  0  0  0  0
   -3.2676    1.6186   -1.3346 H   0  0  0  0  0  0  0  0  0  0  0  0
    0.5148   -0.2612    0.7957 C   0  0  0  0  0  0  0  0  0  0  0  0
    1.7244   -0.0703    0.7944 O   0  0  0  0  0  0  0  0  0  0  0  0
   -0.2291    0.1588    1.8844 N   0  0  0  0  0  0  0  0  0  0  0  0
   -1.1989   -0.1406    1.8892 H   0  0  0  0  0  0  0  0  0  0  0  0
    0.3831    0.5457    3.1491 C   0  0  0  0  0  0  0  0  0  0  0  0
    1.0538    1.3995    3.0054 H   0  0  0  0  0  0  0  0  0  0  0  0
   -0.3879    0.8322    3.8706 H   0  0  0  0  0  0  0  0  0  0  0  0
    0.9577   -0.2882    3.5660 H   0  0  0  0  0  0  0  0  0  0  0  0
  1  2  1  0  0  0  0
  2  3  1  0  0  0  0
  2  4  1  0  0  0  0
  2  5  1  0  0  0  0
  5  6  2  0  0  0  0
  5  7  1  0  0  0  0
  7  8  1  0  0  0  0
  7  9  1  0  0  0  0
  9 10  1  0  0  0  0
  9 11  1  0  0  0  0
  9 22  1  0  0  0  0
 11 12  1  0  0  0  0
 11 13  1  0  0  0  0
 11 14  1  0  0  0  0
 14 15  1  0  0  0  0
 14 20  2  0  0  0  0
 15 16  2  0  0  0  0
 16 17  1  0  0  0  0
 16 18  1  0  0  0  0
 18 19  1  0  0  0  0
 18 20  1  0  0  0  0
 20 21  1  0  0  0  0
 22 23  2  0  0  0  0
 22 24  1  0  0  0  0
 24 25  1  0  0  0  0
 24 26  1  0  0  0  0
 26 27  1  0  0  0  0
 26 28  1  0  0  0  0
 26 29  1  0  0  0  0
M  END
$$$$

  -OEChem-04042215593D

 29 29  0     1  0  0  0  0  0999 V2000
   -2.3936   -4.6049    0.4559 H   0  0  0  0  0  0  0  0  0  0  0  0
   -2.5730   -3.6467   -0.0398 C   0  0  0  0  0  0  0  0  0  0  0  0
   -3.4966   -3.2144    0.3522 H   0  0  0  0  0  0  0  0  0  0  0  0
   -2.6856   -3.8222   -1.1125 H   0  0  0  0  0  0  0  0  0  0  0  0
   -1.4111   -2.7042    0.2110 C   0  0  0  0  0  0  0  0  0  0  0  0
   -0.4961   -3.0525    0.9353 O   0  0  0  0  0  0  0  0  0  0  0  0
   -1.4183   -1.4510   -0.3666 N   0  0  0  0  0  0  0  0  0  0  0  0
   -2.1145   -1.3377   -1.1006 H   0  0  0  0  0  0  0  0  0  0  0  0
   -0.2059   -0.6225   -0.5212 C   0  0  1  0  0  0  0  0  0  0  0  0
    0.5035   -1.2052   -1.1196 H   0  0  0  0  0  0  0  0  0  0  0  0
   -0.5190    0.6766   -1.2977 C   0  0  0  0  0  0  0  0  0  0  0  0
   -0.7878    1.4680   -0.5914 H   0  0  0  0  0  0  0  0  0  0  0  0
    0.3833    1.0015   -1.8245 H   0  0  0  0  0  0  0  0  0  0  0  0
   -1.6391    0.5287   -2.2888 C   0  0  0  0  0  0  0  0  0  0  0  0
   -1.6319   -0.3602   -3.3552 N   0  0  0  0  0  0  0  0  0  0  0  0
   -2.7486   -0.1655   -4.0156 C   0  0  0  0  0  0  0  0  0  0  0  0
   -3.0407   -0.7001   -4.9152 H   0  0  0  0  0  0  0  0  0  0  0  0
   -3.4970    0.8149   -3.3921 N   0  0  0  0  0  0  0  0  0  0  0  0
   -4.3938    1.1680   -3.7226 H   0  0  0  0  0  0  0  0  0  0  0  0
   -2.7914    1.2638   -2.2954 C   0  0  0  0  0  0  0  0  0  0  0  0
   -3.0655    2.0461   -1.5931 H   0  0  0  0  0  0  0  0  0  0  0  0
    0.5133   -0.2569    0.7966 C   0  0  0  0  0  0  0  0  0  0  0  0
    1.7247   -0.0769    0.7954 O   0  0  0  0  0  0  0  0  0  0  0  0
   -0.2287    0.1720    1.8831 N   0  0  0  0  0  0  0  0  0  0  0  0
   -1.2011   -0.1197    1.8845 H   0  0  0  0  0  0  0  0  0  0  0  0
    0.3850    0.5428    3.1517 C   0  0  0  0  0  0  0  0  0  0  0  0
    1.0703    1.3859    3.0147 H   0  0  0  0  0  0  0  0  0  0  0  0
   -0.3843    0.8381    3.8716 H   0  0  0  0  0  0  0  0  0  0  0  0
    0.9446   -0.3022    3.5666 H   0  0  0  0  0  0  0  0  0  0  0  0
  1  2  1  0  0  0  0
  2  3  1  0  0  0  0
  2  4  1  0  0  0  0
  2  5  1  0  0  0  0
  5  6  2  0  0  0  0
  5  7  1  0  0  0  0
  7  8  1  0  0  0  0
  7  9  1  0  0  0  0
  9 10  1  0  0  0  0
  9 11  1  0  0  0  0
  9 22  1  0  0  0  0
 11 12  1  0  0  0  0
 11 13  1  0  0  0  0
 11 14  1  0  0  0  0
 14 15  1  0  0  0  0
 14 20  2  0  0  0  0
 15 16  2  0  0  0  0
 16 17  1  0  0  0  0
 16 18  1  0  0  0  0
 18 19  1  0  0  0  0
 18 20  1  0  0  0  0
 20 21  1  0  0  0  0
 22 23  2  0  0  0  0
 22 24  1  0  0  0  0
 24 25  1  0  0  0  0
 24 26  1  0  0  0  0
 26 27  1  0  0  0  0
 26 28  1  0  0  0  0
 26 29  1  0  0  0  0
M  END
$$$$

  -OEChem-04042215593D

 29 29  0     1  0  0  0  0  0999 V2000
   -2.3877   -4.6118    0.4336 H   0  0  0  0  0  0  0  0  0  0  0  0
   -2.5689   -3.6493   -0.0535 C   0  0  0  0  0  0  0  0  0  0  0  0
   -3.4993   -3.2273    0.3334 H   0  0  0  0  0  0  0  0  0  0  0  0
   -2.6697   -3.8137   -1.1291 H   0  0  0  0  0  0  0  0  0  0  0  0
   -1.4172   -2.7007    0.2196 C   0  0  0  0  0  0  0  0  0  0  0  0
   -0.5179   -3.0401    0.9679 O   0  0  0  0  0  0  0  0  0  0  0  0
   -1.4189   -1.4508   -0.3636 N   0  0  0  0  0  0  0  0  0  0  0  0
   -2.0905   -1.3541   -1.1249 H   0  0  0  0  0  0  0  0  0  0  0  0
   -0.2048   -0.6273   -0.5177 C   0  0  1  0  0  0  0  0  0  0  0  0
    0.5039   -1.2134   -1.1136 H   0  0  0  0  0  0  0  0  0  0  0  0
   -0.5181    0.6710   -1.2971 C   0  0  0  0  0  0  0  0  0  0  0  0
   -0.7786    1.4670   -0.5929 H   0  0  0  0  0  0  0  0  0  0  0  0
    0.3874    0.9851   -1.8250 H   0  0  0  0  0  0  0  0  0  0  0  0
   -1.6386    0.5392   -2.2936 C   0  0  0  0  0  0  0  0  0  0  0  0
   -1.7959   -0.5174   -3.1844 N   0  0  0  0  0  0  0  0  0  0  0  0
   -2.8641   -0.2518   -3.8987 C   0  0  0  0  0  0  0  0  0  0  0  0
   -3.2511   -0.8804   -4.6961 H   0  0  0  0  0  0  0  0  0  0  0  0
   -3.4250    0.9390   -3.4784 N   0  0  0  0  0  0  0  0  0  0  0  0
   -4.2520    1.3746   -3.8839 H   0  0  0  0  0  0  0  0  0  0  0  0
   -2.6477    1.4460   -2.4584 C   0  0  0  0  0  0  0  0  0  0  0  0
   -2.7820    2.3730   -1.9078 H   0  0  0  0  0  0  0  0  0  0  0  0
    0.5120   -0.2571    0.7999 C   0  0  0  0  0  0  0  0  0  0  0  0
    1.7229   -0.0734    0.7975 O   0  0  0  0  0  0  0  0  0  0  0  0
   -0.2316    0.1793    1.8823 N   0  0  0  0  0  0  0  0  0  0  0  0
   -1.2026   -0.1176    1.8850 H   0  0  0  0  0  0  0  0  0  0  0  0
    0.3795    0.5586    3.1495 C   0  0  0  0  0  0  0  0  0  0  0  0
    1.0666    1.3993    3.0081 H   0  0  0  0  0  0  0  0  0  0  0  0
   -0.3912    0.8610    3.8647 H   0  0  0  0  0  0  0  0  0  0  0  0
    0.9359   -0.2843    3.5725 H   0  0  0  0  0  0  0  0  0  0  0  0
  1  2  1  0  0  0  0
  2  3  1  0  0  0  0
  2  4  1  0  0  0  0
  2  5  1  0  0  0  0
  5  6  2  0  0  0  0
  5  7  1  0  0  0  0
  7  8  1  0  0  0  0
  7  9  1  0  0  0  0
  9 10  1  0  0  0  0
  9 11  1  0  0  0  0
  9 22  1  0  0  0  0
 11 12  1  0  0  0  0
 11 13  1  0  0  0  0
 11 14  1  0  0  0  0
 14 15  1  0  0  0  0
 14 20  2  0  0  0  0
 15 16  2  0  0  0  0
 16 17  1  0  0  0  0
 16 18  1  0  0  0  0
 18 19  1  0  0  0  0
 18 20  1  0  0  0  0
 20 21  1  0  0  0  0
 22 23  2  0  0  0  0
 22 24  1  0  0  0  0
 24 25  1  0  0  0  0
 24 26  1  0  0  0  0
 26 27  1  0  0  0  0
 26 28  1  0  0  0  0
 26 29  1  0  0  0  0
M  END
$$$$

  -OEChem-04042215593D

 29 29  0     1  0  0  0  0  0999 V2000
   -2.3625   -4.6358    0.4469 H   0  0  0  0  0  0  0  0  0  0  0  0
   -2.5540   -3.6723   -0.0338 C   0  0  0  0  0  0  0  0  0  0  0  0
   -3.4850   -3.2590    0.3614 H   0  0  0  0  0  0  0  0  0  0  0  0
   -2.6609   -3.8313   -1.1097 H   0  0  0  0  0  0  0  0  0  0  0  0
   -1.4070   -2.7169    0.2359 C   0  0  0  0  0  0  0  0  0  0  0  0
   -0.5033   -3.0499    0.9821 O   0  0  0  0  0  0  0  0  0  0  0  0
   -1.4147   -1.4693   -0.3515 N   0  0  0  0  0  0  0  0  0  0  0  0
   -2.0874   -1.3766   -1.1147 H   0  0  0  0  0  0  0  0  0  0  0  0
   -0.2091   -0.6370   -0.5108 C   0  0  1  0  0  0  0  0  0  0  0  0
    0.5037   -1.2224   -1.1024 H   0  0  0  0  0  0  0  0  0  0  0  0
   -0.5303    0.6536   -1.3023 C   0  0  0  0  0  0  0  0  0  0  0  0
   -0.7947    1.4511   -0.6011 H   0  0  0  0  0  0  0  0  0  0  0  0
    0.3795    0.9672   -1.8231 H   0  0  0  0  0  0  0  0  0  0  0  0
   -1.6449    0.5404   -2.3133 C   0  0  0  0  0  0  0  0  0  0  0  0
   -2.0036   -0.6058   -3.0206 N   0  0  0  0  0  0  0  0  0  0  0  0
   -3.0011   -0.2694   -3.8045 C   0  0  0  0  0  0  0  0  0  0  0  0
   -3.5020   -0.9402   -4.4971 H   0  0  0  0  0  0  0  0  0  0  0  0
   -3.3236    1.0592   -3.6095 N   0  0  0  0  0  0  0  0  0  0  0  0
   -4.0571    1.5651   -4.1037 H   0  0  0  0  0  0  0  0  0  0  0  0
   -2.4657    1.5763   -2.6620 C   0  0  0  0  0  0  0  0  0  0  0  0
   -2.4258    2.5908   -2.2755 H   0  0  0  0  0  0  0  0  0  0  0  0
    0.5069   -0.2545    0.8037 C   0  0  0  0  0  0  0  0  0  0  0  0
    1.7157   -0.0568    0.7963 O   0  0  0  0  0  0  0  0  0  0  0  0
   -0.2378    0.1804    1.8855 N   0  0  0  0  0  0  0  0  0  0  0  0
   -1.2062   -0.1251    1.8919 H   0  0  0  0  0  0  0  0  0  0  0  0
    0.3725    0.5778    3.1476 C   0  0  0  0  0  0  0  0  0  0  0  0
    1.0484    1.4259    2.9962 H   0  0  0  0  0  0  0  0  0  0  0  0
   -0.3994    0.8767    3.8630 H   0  0  0  0  0  0  0  0  0  0  0  0
    0.9411   -0.2543    3.5759 H   0  0  0  0  0  0  0  0  0  0  0  0
  1  2  1  0  0  0  0
  2  3  1  0  0  0  0
  2  4  1  0  0  0  0
  2  5  1  0  0  0  0
  5  6  2  0  0  0  0
  5  7  1  0  0  0  0
  7  8  1  0  0  0  0
  7  9  1  0  0  0  0
  9 10  1  0  0  0  0
  9 11  1  0  0  0  0
  9 22  1  0  0  0  0
 11 12  1  0  0  0  0
 11 13  1  0  0  0  0
 11 14  1  0  0  0  0
 14 15  1  0  0  0  0
 14 20  2  0  0  0  0
 15 16  2  0  0  0  0
 16 17  1  0  0  0  0
 16 18  1  0  0  0  0
 18 19  1  0  0  0  0
 18 20  1  0  0  0  0
 20 21  1  0  0  0  0
 22 23  2  0  0  0  0
 22 24  1  0  0  0  0
 24 25  1  0  0  0  0
 24 26  1  0  0  0  0
 26 27  1  0  0  0  0
 26 28  1  0  0  0  0
 26 29  1  0  0  0  0
M  END
$$$$

  -OEChem-04042215593D

 29 29  0     1  0  0  0  0  0999 V2000
   -2.3101   -4.6682    0.4986 H   0  0  0  0  0  0  0  0  0  0  0  0
   -2.5264   -3.7052    0.0277 C   0  0  0  0  0  0  0  0  0  0  0  0
   -3.4439   -3.2988    0.4598 H   0  0  0  0  0  0  0  0  0  0  0  0
   -2.6741   -3.8629   -1.0436 H   0  0  0  0  0  0  0  0  0  0  0  0
   -1.3762   -2.7425    0.2550 C   0  0  0  0  0  0  0  0  0  0  0  0
   -0.4437   -3.0708    0.9671 O   0  0  0  0  0  0  0  0  0  0  0  0
   -1.4082   -1.4971   -0.3359 N   0  0  0  0  0  0  0  0  0  0  0  0
   -2.1117   -1.3985   -1.0715 H   0  0  0  0  0  0  0  0  0  0  0  0
   -0.2217   -0.6427   -0.5108 C   0  0  1  0  0  0  0  0  0  0  0  0
    0.4965   -1.2234   -1.1002 H   0  0  0  0  0  0  0  0  0  0  0  0
   -0.5561    0.6385   -1.3148 C   0  0  0  0  0  0  0  0  0  0  0  0
   -0.8331    1.4317   -0.6134 H   0  0  0  0  0  0  0  0  0  0  0  0
    0.3560    0.9627   -1.8249 H   0  0  0  0  0  0  0  0  0  0  0  0
   -1.6649    0.5424   -2.3380 C   0  0  0  0  0  0  0  0  0  0  0  0
   -2.2439   -0.6139   -2.8640 N   0  0  0  0  0  0  0  0  0  0  0  0
   -3.1502   -0.2244   -3.7301 C   0  0  0  0  0  0  0  0  0  0  0  0
   -3.7742   -0.8903   -4.3201 H   0  0  0  0  0  0  0  0  0  0  0  0
   -3.1960    1.1547   -3.7732 N   0  0  0  0  0  0  0  0  0  0  0  0
   -3.8096    1.7047   -4.3724 H   0  0  0  0  0  0  0  0  0  0  0  0
   -2.2561    1.6441   -2.8916 C   0  0  0  0  0  0  0  0  0  0  0  0
   -2.0137    2.6815   -2.6787 H   0  0  0  0  0  0  0  0  0  0  0  0
    0.4968   -0.2437    0.7975 C   0  0  0  0  0  0  0  0  0  0  0  0
    1.7028   -0.0294    0.7829 O   0  0  0  0  0  0  0  0  0  0  0  0
   -0.2478    0.1795    1.8842 N   0  0  0  0  0  0  0  0  0  0  0  0
   -1.2154   -0.1285    1.8909 H   0  0  0  0  0  0  0  0  0  0  0  0
    0.3619    0.5796    3.1456 C   0  0  0  0  0  0  0  0  0  0  0  0
    1.0370    1.4283    2.9944 H   0  0  0  0  0  0  0  0  0  0  0  0
   -0.4107    0.8788    3.8601 H   0  0  0  0  0  0  0  0  0  0  0  0
    0.9308   -0.2517    3.5750 H   0  0  0  0  0  0  0  0  0  0  0  0
  1  2  1  0  0  0  0
  2  3  1  0  0  0  0
  2  4  1  0  0  0  0
  2  5  1  0  0  0  0
  5  6  2  0  0  0  0
  5  7  1  0  0  0  0
  7  8  1  0  0  0  0
  7  9  1  0  0  0  0
  9 10  1  0  0  0  0
  9 11  1  0  0  0  0
  9 22  1  0  0  0  0
 11 12  1  0  0  0  0
 11 13  1  0  0  0  0
 11 14  1  0  0  0  0
 14 15  1  0  0  0  0
 14 20  2  0  0  0  0
 15 16  2  0  0  0  0
 16 17  1  0  0  0  0
 16 18  1  0  0  0  0
 18 19  1  0  0  0  0
 18 20  1  0  0  0  0
 20 21  1  0  0  0  0
 22 23  2  0  0  0  0
 22 24  1  0  0  0  0
 24 25  1  0  0  0  0
 24 26  1  0  0  0  0
 26 27  1  0  0  0  0
 26 28  1  0  0  0  0
 26 29  1  0  0  0  0
M  END
$$$$

  -OEChem-04042215593D

 29 29  0     1  0  0  0  0  0999 V2000
   -2.2842   -4.6841    0.5496 H   0  0  0  0  0  0  0  0  0  0  0  0
   -2.5133   -3.7221    0.0828 C   0  0  0  0  0  0  0  0  0  0  0  0
   -3.4127   -3.3096    0.5457 H   0  0  0  0  0  0  0  0  0  0  0  0
   -2.7011   -3.8832   -0.9815 H   0  0  0  0  0  0  0  0  0  0  0  0
   -1.3518   -2.7630    0.2628 C   0  0  0  0  0  0  0  0  0  0  0  0
   -0.3887   -3.0957    0.9312 O   0  0  0  0  0  0  0  0  0  0  0  0
   -1.4039   -1.5167   -0.3245 N   0  0  0  0  0  0  0  0  0  0  0  0
   -2.1497   -1.3964   -1.0143 H   0  0  0  0  0  0  0  0  0  0  0  0
   -0.2350   -0.6431   -0.5148 C   0  0  1  0  0  0  0  0  0  0  0  0
    0.4850   -1.2166   -1.1089 H   0  0  0  0  0  0  0  0  0  0  0  0
   -0.5818    0.6344   -1.3211 C   0  0  0  0  0  0  0  0  0  0  0  0
   -0.8740    1.4157   -0.6128 H   0  0  0  0  0  0  0  0  0  0  0  0
    0.3293    0.9780   -1.8205 H   0  0  0  0  0  0  0  0  0  0  0  0
   -1.6908    0.5531   -2.3478 C   0  0  0  0  0  0  0  0  0  0  0  0
   -2.4830   -0.5440   -2.6938 N   0  0  0  0  0  0  0  0  0  0  0  0
   -3.2881   -0.1461   -3.6513 C   0  0  0  0  0  0  0  0  0  0  0  0
   -4.0295   -0.7712   -4.1413 H   0  0  0  0  0  0  0  0  0  0  0  0
   -3.0543    1.1834   -3.9388 N   0  0  0  0  0  0  0  0  0  0  0  0
   -3.5427    1.7274   -4.6484 H   0  0  0  0  0  0  0  0  0  0  0  0
   -2.0417    1.6285   -3.1165 C   0  0  0  0  0  0  0  0  0  0  0  0
   -1.5964    2.6188   -3.0798 H   0  0  0  0  0  0  0  0  0  0  0  0
    0.4903   -0.2373    0.7874 C   0  0  0  0  0  0  0  0  0  0  0  0
    1.6927   -0.0040    0.7616 O   0  0  0  0  0  0  0  0  0  0  0  0
   -0.2498    0.1695    1.8833 N   0  0  0  0  0  0  0  0  0  0  0  0
   -1.2155   -0.1446    1.8947 H   0  0  0  0  0  0  0  0  0  0  0  0
    0.3645    0.5737    3.1412 C   0  0  0  0  0  0  0  0  0  0  0  0
    1.0139    1.4424    2.9903 H   0  0  0  0  0  0  0  0  0  0  0  0
   -0.4071    0.8437    3.8684 H   0  0  0  0  0  0  0  0  0  0  0  0
    0.9616   -0.2458    3.5550 H   0  0  0  0  0  0  0  0  0  0  0  0
  1  2  1  0  0  0  0
  2  3  1  0  0  0  0
  2  4  1  0  0  0  0
  2  5  1  0  0  0  0
  5  6  2  0  0  0  0
  5  7  1  0  0  0  0
  7  8  1  0  0  0  0
  7  9  1  0  0  0  0
  9 10  1  0  0  0  0
  9 11  1  0  0  0  0
  9 22  1  0  0  0  0
 11 12  1  0  0  0  0
 11 13  1  0  0  0  0
 11 14  1  0  0  0  0
 14 15  1  0  0  0  0
 14 20  2  0  0  0  0
 15 16  2  0  0  0  0
 16 17  1  0  0  0  0
 16 18  1  0  0  0  0
 18 19  1  0  0  0  0
 18 20  1  0  0  0  0
 20 21  1  0  0  0  0
 22 23  2  0  0  0  0
 22 24  1  0  0  0  0
 24 25  1  0  0  0  0
 24 26  1  0  0  0  0
 26 27  1  0  0  0  0
 26 28  1  0  0  0  0
 26 29  1  0  0  0  0
M  END
$$$$

  -OEChem-04042215593D

 29 29  0     1  0  0  0  0  0999 V2000
   -2.2928   -4.6770    0.5576 H   0  0  0  0  0  0  0  0  0  0  0  0
   -2.5249   -3.7077    0.1074 C   0  0  0  0  0  0  0  0  0  0  0  0
   -3.3968   -3.2837    0.6108 H   0  0  0  0  0  0  0  0  0  0  0  0
   -2.7598   -3.8572   -0.9493 H   0  0  0  0  0  0  0  0  0  0  0  0
   -1.3408   -2.7696    0.2448 C   0  0  0  0  0  0  0  0  0  0  0  0
   -0.3519   -3.1247    0.8621 O   0  0  0  0  0  0  0  0  0  0  0  0
   -1.3985   -1.5171   -0.3273 N   0  0  0  0  0  0  0  0  0  0  0  0
   -2.1852   -1.3578   -0.9618 H   0  0  0  0  0  0  0  0  0  0  0  0
   -0.2400   -0.6321   -0.5190 C   0  0  1  0  0  0  0  0  0  0  0  0
    0.4805   -1.1982   -1.1193 H   0  0  0  0  0  0  0  0  0  0  0  0
   -0.5938    0.6477   -1.3200 C   0  0  0  0  0  0  0  0  0  0  0  0
   -0.9030    1.4139   -0.6025 H   0  0  0  0  0  0  0  0  0  0  0  0
    0.3174    1.0118   -1.8048 H   0  0  0  0  0  0  0  0  0  0  0  0
   -1.7021    0.5738   -2.3495 C   0  0  0  0  0  0  0  0  0  0  0  0
   -2.6784   -0.4113   -2.5194 N   0  0  0  0  0  0  0  0  0  0  0  0
   -3.3970   -0.0618   -3.5608 C   0  0  0  0  0  0  0  0  0  0  0  0
   -4.2384   -0.6257   -3.9537 H   0  0  0  0  0  0  0  0  0  0  0  0
   -2.9240    1.1256   -4.0801 N   0  0  0  0  0  0  0  0  0  0  0  0
   -3.3056    1.6056   -4.8937 H   0  0  0  0  0  0  0  0  0  0  0  0
   -1.8473    1.5276   -3.3193 C   0  0  0  0  0  0  0  0  0  0  0  0
   -1.2276    2.4102   -3.4516 H   0  0  0  0  0  0  0  0  0  0  0  0
    0.4917   -0.2347    0.7815 C   0  0  0  0  0  0  0  0  0  0  0  0
    1.6924    0.0064    0.7494 O   0  0  0  0  0  0  0  0  0  0  0  0
   -0.2430    0.1537    1.8875 N   0  0  0  0  0  0  0  0  0  0  0  0
   -1.2087   -0.1601    1.9018 H   0  0  0  0  0  0  0  0  0  0  0  0
    0.3774    0.5588    3.1419 C   0  0  0  0  0  0  0  0  0  0  0  0
    1.0193    1.4325    2.9881 H   0  0  0  0  0  0  0  0  0  0  0  0
   -0.3908    0.8214    3.8755 H   0  0  0  0  0  0  0  0  0  0  0  0
    0.9836   -0.2575    3.5486 H   0  0  0  0  0  0  0  0  0  0  0  0
  1  2  1  0  0  0  0
  2  3  1  0  0  0  0
  2  4  1  0  0  0  0
  2  5  1  0  0  0  0
  5  6  2  0  0  0  0
  5  7  1  0  0  0  0
  7  8  1  0  0  0  0
  7  9  1  0  0  0  0
  9 10  1  0  0  0  0
  9 11  1  0  0  0  0
  9 22  1  0  0  0  0
 11 12  1  0  0  0  0
 11 13  1  0  0  0  0
 11 14  1  0  0  0  0
 14 15  1  0  0  0  0
 14 20  2  0  0  0  0
 15 16  2  0  0  0  0
 16 17  1  0  0  0  0
 16 18  1  0  0  0  0
 18 19  1  0  0  0  0
 18 20  1  0  0  0  0
 20 21  1  0  0  0  0
 22 23  2  0  0  0  0
 22 24  1  0  0  0  0
 24 25  1  0  0  0  0
 24 26  1  0  0  0  0
 26 27  1  0  0  0  0
 26 28  1  0  0  0  0
 26 29  1  0  0  0  0
M  END
$$$$

  -OEChem-04042215593D

 29 29  0     1  0  0  0  0  0999 V2000
   -2.3222   -4.6493    0.5570 H   0  0  0  0  0  0  0  0  0  0  0  0
   -2.5480   -3.6750    0.1145 C   0  0  0  0  0  0  0  0  0  0  0  0
   -3.3909   -3.2308    0.6492 H   0  0  0  0  0  0  0  0  0  0  0  0
   -2.8252   -3.8195   -0.9325 H   0  0  0  0  0  0  0  0  0  0  0  0
   -1.3377   -2.7649    0.2072 C   0  0  0  0  0  0  0  0  0  0  0  0
   -0.3298   -3.1493    0.7739 O   0  0  0  0  0  0  0  0  0  0  0  0
   -1.3890   -1.5052   -0.3495 N   0  0  0  0  0  0  0  0  0  0  0  0
   -2.2095   -1.2978   -0.9246 H   0  0  0  0  0  0  0  0  0  0  0  0
   -0.2313   -0.6168   -0.5308 C   0  0  1  0  0  0  0  0  0  0  0  0
    0.4909   -1.1772   -1.1346 H   0  0  0  0  0  0  0  0  0  0  0  0
   -0.5815    0.6696   -1.3217 C   0  0  0  0  0  0  0  0  0  0  0  0
   -0.8994    1.4271   -0.5990 H   0  0  0  0  0  0  0  0  0  0  0  0
    0.3312    1.0428   -1.7964 H   0  0  0  0  0  0  0  0  0  0  0  0
   -1.6873    0.5944   -2.3533 C   0  0  0  0  0  0  0  0  0  0  0  0
   -2.8163   -0.2290   -2.3571 N   0  0  0  0  0  0  0  0  0  0  0  0
   -3.4777    0.0366   -3.4595 C   0  0  0  0  0  0  0  0  0  0  0  0
   -4.4080   -0.4394   -3.7570 H   0  0  0  0  0  0  0  0  0  0  0  0
   -2.8148    1.0068   -4.1829 N   0  0  0  0  0  0  0  0  0  0  0  0
   -3.1192    1.3848   -5.0788 H   0  0  0  0  0  0  0  0  0  0  0  0
   -1.6782    1.3588   -3.4876 C   0  0  0  0  0  0  0  0  0  0  0  0
   -0.9215    2.0861   -3.7686 H   0  0  0  0  0  0  0  0  0  0  0  0
    0.4980   -0.2347    0.7756 C   0  0  0  0  0  0  0  0  0  0  0  0
    1.6993    0.0033    0.7498 O   0  0  0  0  0  0  0  0  0  0  0  0
   -0.2379    0.1398    1.8856 N   0  0  0  0  0  0  0  0  0  0  0  0
   -1.2082   -0.1596    1.8900 H   0  0  0  0  0  0  0  0  0  0  0  0
    0.3789    0.5320    3.1462 C   0  0  0  0  0  0  0  0  0  0  0  0
    1.0311    1.3995    3.0020 H   0  0  0  0  0  0  0  0  0  0  0  0
   -0.3912    0.7989    3.8759 H   0  0  0  0  0  0  0  0  0  0  0  0
    0.9737   -0.2924    3.5528 H   0  0  0  0  0  0  0  0  0  0  0  0
  1  2  1  0  0  0  0
  2  3  1  0  0  0  0
  2  4  1  0  0  0  0
  2  5  1  0  0  0  0
  5  6  2  0  0  0  0
  5  7  1  0  0  0  0
  7  8  1  0  0  0  0
  7  9  1  0  0  0  0
  9 10  1  0  0  0  0
  9 11  1  0  0  0  0
  9 22  1  0  0  0  0
 11 12  1  0  0  0  0
 11 13  1  0  0  0  0
 11 14  1  0  0  0  0
 14 15  1  0  0  0  0
 14 20  2  0  0  0  0
 15 16  2  0  0  0  0
 16 17  1  0  0  0  0
 16 18  1  0  0  0  0
 18 19  1  0  0  0  0
 18 20  1  0  0  0  0
 20 21  1  0  0  0  0
 22 23  2  0  0  0  0
 22 24  1  0  0  0  0
 24 25  1  0  0  0  0
 24 26  1  0  0  0  0
 26 27  1  0  0  0  0
 26 28  1  0  0  0  0
 26 29  1  0  0  0  0
M  END
$$$$

  -OEChem-04042215593D

 29 29  0     1  0  0  0  0  0999 V2000
   -2.3701   -4.6056    0.5379 H   0  0  0  0  0  0  0  0  0  0  0  0
   -2.5780   -3.6260    0.0984 C   0  0  0  0  0  0  0  0  0  0  0  0
   -3.3924   -3.1548    0.6541 H   0  0  0  0  0  0  0  0  0  0  0  0
   -2.8877   -3.7647   -0.9403 H   0  0  0  0  0  0  0  0  0  0  0  0
   -1.3383   -2.7534    0.1572 C   0  0  0  0  0  0  0  0  0  0  0  0
   -0.3244   -3.1709    0.6885 O   0  0  0  0  0  0  0  0  0  0  0  0
   -1.3697   -1.4878   -0.3870 N   0  0  0  0  0  0  0  0  0  0  0  0
   -2.2121   -1.2305   -0.9077 H   0  0  0  0  0  0  0  0  0  0  0  0
   -0.2055   -0.6035   -0.5443 C   0  0  1  0  0  0  0  0  0  0  0  0
    0.5219   -1.1591   -1.1462 H   0  0  0  0  0  0  0  0  0  0  0  0
   -0.5500    0.6892   -1.3247 C   0  0  0  0  0  0  0  0  0  0  0  0
   -0.8768    1.4437   -0.6028 H   0  0  0  0  0  0  0  0  0  0  0  0
    0.3642    1.0669   -1.7933 H   0  0  0  0  0  0  0  0  0  0  0  0
   -1.6486    0.5953   -2.3587 C   0  0  0  0  0  0  0  0  0  0  0  0
   -2.8906   -0.0281   -2.2190 N   0  0  0  0  0  0  0  0  0  0  0  0
   -3.5251    0.1367   -3.3566 C   0  0  0  0  0  0  0  0  0  0  0  0
   -4.5247   -0.2314   -3.5697 H   0  0  0  0  0  0  0  0  0  0  0  0
   -2.7335    0.8430   -4.2398 N   0  0  0  0  0  0  0  0  0  0  0  0
   -2.9957    1.0996   -5.1903 H   0  0  0  0  0  0  0  0  0  0  0  0
   -1.5423    1.1344   -3.6107 C   0  0  0  0  0  0  0  0  0  0  0  0
   -0.6897    1.6776   -4.0089 H   0  0  0  0  0  0  0  0  0  0  0  0
    0.5083   -0.2369    0.7744 C   0  0  0  0  0  0  0  0  0  0  0  0
    1.7129   -0.0151    0.7682 O   0  0  0  0  0  0  0  0  0  0  0  0
   -0.2386    0.1315    1.8791 N   0  0  0  0  0  0  0  0  0  0  0  0
   -1.2182   -0.1354    1.8605 H   0  0  0  0  0  0  0  0  0  0  0  0
    0.3637    0.5066    3.1516 C   0  0  0  0  0  0  0  0  0  0  0  0
    1.0213    1.3731    3.0251 H   0  0  0  0  0  0  0  0  0  0  0  0
   -0.4142    0.7679    3.8750 H   0  0  0  0  0  0  0  0  0  0  0  0
    0.9499   -0.3252    3.5559 H   0  0  0  0  0  0  0  0  0  0  0  0
  1  2  1  0  0  0  0
  2  3  1  0  0  0  0
  2  4  1  0  0  0  0
  2  5  1  0  0  0  0
  5  6  2  0  0  0  0
  5  7  1  0  0  0  0
  7  8  1  0  0  0  0
  7  9  1  0  0  0  0
  9 10  1  0  0  0  0
  9 11  1  0  0  0  0
  9 22  1  0  0  0  0
 11 12  1  0  0  0  0
 11 13  1  0  0  0  0
 11 14  1  0  0  0  0
 14 15  1  0  0  0  0
 14 20  2  0  0  0  0
 15 16  2  0  0  0  0
 16 17  1  0  0  0  0
 16 18  1  0  0  0  0
 18 19  1  0  0  0  0
 18 20  1  0  0  0  0
 20 21  1  0  0  0  0
 22 23  2  0  0  0  0
 22 24  1  0  0  0  0
 24 25  1  0  0  0  0
 24 26  1  0  0  0  0
 26 27  1  0  0  0  0
 26 28  1  0  0  0  0
 26 29  1  0  0  0  0
M  END
$$$$

  -OEChem-04042215593D

 29 29  0     1  0  0  0  0  0999 V2000
   -2.4266   -4.5556    0.4957 H   0  0  0  0  0  0  0  0  0  0  0  0
   -2.6100   -3.5695    0.0598 C   0  0  0  0  0  0  0  0  0  0  0  0
   -3.4014   -3.0742    0.6274 H   0  0  0  0  0  0  0  0  0  0  0  0
   -2.9381   -3.6968   -0.9747 H   0  0  0  0  0  0  0  0  0  0  0  0
   -1.3433   -2.7362    0.1010 C   0  0  0  0  0  0  0  0  0  0  0  0
   -0.3296   -3.1916    0.6006 O   0  0  0  0  0  0  0  0  0  0  0  0
   -1.3478   -1.4645   -0.4294 N   0  0  0  0  0  0  0  0  0  0  0  0
   -2.2053   -1.1538   -0.8932 H   0  0  0  0  0  0  0  0  0  0  0  0
   -0.1713   -0.5904   -0.5564 C   0  0  1  0  0  0  0  0  0  0  0  0
    0.5615   -1.1422   -1.1554 H   0  0  0  0  0  0  0  0  0  0  0  0
   -0.5096    0.7090   -1.3244 C   0  0  0  0  0  0  0  0  0  0  0  0
   -0.8406    1.4664   -0.6075 H   0  0  0  0  0  0  0  0  0  0  0  0
    0.4034    1.0861   -1.7950 H   0  0  0  0  0  0  0  0  0  0  0  0
   -1.6012    0.5818   -2.3570 C   0  0  0  0  0  0  0  0  0  0  0  0
   -2.9176    0.1920   -2.1058 N   0  0  0  0  0  0  0  0  0  0  0  0
   -3.5456    0.2394   -3.2580 C   0  0  0  0  0  0  0  0  0  0  0  0
   -4.5943   -0.0034   -3.4046 H   0  0  0  0  0  0  0  0  0  0  0  0
   -2.6762    0.6393   -4.2539 N   0  0  0  0  0  0  0  0  0  0  0  0
   -2.9204    0.7565   -5.2359 H   0  0  0  0  0  0  0  0  0  0  0  0
   -1.4404    0.8610   -3.6849 C   0  0  0  0  0  0  0  0  0  0  0  0
   -0.5265    1.1926   -4.1702 H   0  0  0  0  0  0  0  0  0  0  0  0
    0.5227   -0.2445    0.7776 C   0  0  0  0  0  0  0  0  0  0  0  0
    1.7304   -0.0421    0.7981 O   0  0  0  0  0  0  0  0  0  0  0  0
   -0.2407    0.1207    1.8718 N   0  0  0  0  0  0  0  0  0  0  0  0
   -1.2269   -0.1169    1.8272 H   0  0  0  0  0  0  0  0  0  0  0  0
    0.3377    0.4924    3.1560 C   0  0  0  0  0  0  0  0  0  0  0  0
    0.9885    1.3661    3.0454 H   0  0  0  0  0  0  0  0  0  0  0  0
   -0.4540    0.7413    3.8689 H   0  0  0  0  0  0  0  0  0  0  0  0
    0.9258   -0.3365    3.5637 H   0  0  0  0  0  0  0  0  0  0  0  0
  1  2  1  0  0  0  0
  2  3  1  0  0  0  0
  2  4  1  0  0  0  0
  2  5  1  0  0  0  0
  5  6  2  0  0  0  0
  5  7  1  0  0  0  0
  7  8  1  0  0  0  0
  7  9  1  0  0  0  0
  9 10  1  0  0  0  0
  9 11  1  0  0  0  0
  9 22  1  0  0  0  0
 11 12  1  0  0  0  0
 11 13  1  0  0  0  0
 11 14  1  0  0  0  0
 14 15  1  0  0  0  0
 14 20  2  0  0  0  0
 15 16  2  0  0  0  0
 16 17  1  0  0  0  0
 16 18  1  0  0  0  0
 18 19  1  0  0  0  0
 18 20  1  0  0  0  0
 20 21  1  0  0  0  0
 22 23  2  0  0  0  0
 22 24  1  0  0  0  0
 24 25  1  0  0  0  0
 24 26  1  0  0  0  0
 26 27  1  0  0  0  0
 26 28  1  0  0  0  0
 26 29  1  0  0  0  0
M  END
$$$$

  -OEChem-04042215593D

 29 29  0     1  0  0  0  0  0999 V2000
   -2.4622   -4.5205    0.4511 H   0  0  0  0  0  0  0  0  0  0  0  0
   -2.6323   -3.5275    0.0256 C   0  0  0  0  0  0  0  0  0  0  0  0
   -3.4033   -3.0203    0.6102 H   0  0  0  0  0  0  0  0  0  0  0  0
   -2.9808   -3.6408   -1.0037 H   0  0  0  0  0  0  0  0  0  0  0  0
   -1.3476   -2.7212    0.0511 C   0  0  0  0  0  0  0  0  0  0  0  0
   -0.3339   -3.2035    0.5242 O   0  0  0  0  0  0  0  0  0  0  0  0
   -1.3331   -1.4444   -0.4669 N   0  0  0  0  0  0  0  0  0  0  0  0
   -2.1995   -1.0940   -0.8825 H   0  0  0  0  0  0  0  0  0  0  0  0
   -0.1461   -0.5777   -0.5642 C   0  0  1  0  0  0  0  0  0  0  0  0
    0.5935   -1.1247   -1.1594 H   0  0  0  0  0  0  0  0  0  0  0  0
   -0.4821    0.7250   -1.3228 C   0  0  0  0  0  0  0  0  0  0  0  0
   -0.8205    1.4858   -0.6128 H   0  0  0  0  0  0  0  0  0  0  0  0
    0.4289    1.1033   -1.7962 H   0  0  0  0  0  0  0  0  0  0  0  0
   -1.5642    0.5569   -2.3544 C   0  0  0  0  0  0  0  0  0  0  0  0
   -2.9186    0.4266   -2.0543 N   0  0  0  0  0  0  0  0  0  0  0  0
   -3.5455    0.3573   -3.2063 C   0  0  0  0  0  0  0  0  0  0  0  0
   -4.6211    0.2584   -3.3231 H   0  0  0  0  0  0  0  0  0  0  0  0
   -2.6368    0.4253   -4.2453 N   0  0  0  0  0  0  0  0  0  0  0  0
   -2.8728    0.3996   -5.2361 H   0  0  0  0  0  0  0  0  0  0  0  0
   -1.3749    0.5615   -3.7071 C   0  0  0  0  0  0  0  0  0  0  0  0
   -0.4268    0.6624   -4.2283 H   0  0  0  0  0  0  0  0  0  0  0  0
    0.5300   -0.2474    0.7828 C   0  0  0  0  0  0  0  0  0  0  0  0
    1.7397   -0.0617    0.8240 O   0  0  0  0  0  0  0  0  0  0  0  0
   -0.2448    0.1158    1.8699 N   0  0  0  0  0  0  0  0  0  0  0  0
   -1.2364   -0.0929    1.8060 H   0  0  0  0  0  0  0  0  0  0  0  0
    0.3184    0.4853    3.1619 C   0  0  0  0  0  0  0  0  0  0  0  0
    0.9859    1.3472    3.0576 H   0  0  0  0  0  0  0  0  0  0  0  0
   -0.4804    0.7519    3.8604 H   0  0  0  0  0  0  0  0  0  0  0  0
    0.8857   -0.3509    3.5840 H   0  0  0  0  0  0  0  0  0  0  0  0
  1  2  1  0  0  0  0
  2  3  1  0  0  0  0
  2  4  1  0  0  0  0
  2  5  1  0  0  0  0
  5  6  2  0  0  0  0
  5  7  1  0  0  0  0
  7  8  1  0  0  0  0
  7  9  1  0  0  0  0
  9 10  1  0  0  0  0
  9 11  1  0  0  0  0
  9 22  1  0  0  0  0
 11 12  1  0  0  0  0
 11 13  1  0  0  0  0
 11 14  1  0  0  0  0
 14 15  1  0  0  0  0
 14 20  2  0  0  0  0
 15 16  2  0  0  0  0
 16 17  1  0  0  0  0
 16 18  1  0  0  0  0
 18 19  1  0  0  0  0
 18 20  1  0  0  0  0
 20 21  1  0  0  0  0
 22 23  2  0  0  0  0
 22 24  1  0  0  0  0
 24 25  1  0  0  0  0
 24 26  1  0  0  0  0
 26 27  1  0  0  0  0
 26 28  1  0  0  0  0
 26 29  1  0  0  0  0
M  END
$$$$

  -OEChem-04042215593D

 29 29  0     1  0  0  0  0  0999 V2000
   -2.4706   -4.5070    0.4467 H   0  0  0  0  0  0  0  0  0  0  0  0
   -2.6395   -3.5129    0.0232 C   0  0  0  0  0  0  0  0  0  0  0  0
   -3.3972   -2.9996    0.6199 H   0  0  0  0  0  0  0  0  0  0  0  0
   -3.0045   -3.6240   -1.0007 H   0  0  0  0  0  0  0  0  0  0  0  0
   -1.3480   -2.7174    0.0289 C   0  0  0  0  0  0  0  0  0  0  0  0
   -0.3300   -3.2107    0.4802 O   0  0  0  0  0  0  0  0  0  0  0  0
   -1.3308   -1.4383   -0.4845 N   0  0  0  0  0  0  0  0  0  0  0  0
   -2.2035   -1.0726   -0.8692 H   0  0  0  0  0  0  0  0  0  0  0  0
   -0.1389   -0.5740   -0.5680 C   0  0  1  0  0  0  0  0  0  0  0  0
    0.6040   -1.1182   -1.1615 H   0  0  0  0  0  0  0  0  0  0  0  0
   -0.4753    0.7290   -1.3225 C   0  0  0  0  0  0  0  0  0  0  0  0
   -0.8157    1.4938   -0.6175 H   0  0  0  0  0  0  0  0  0  0  0  0
    0.4339    1.1064   -1.8003 H   0  0  0  0  0  0  0  0  0  0  0  0
   -1.5517    0.5375   -2.3523 C   0  0  0  0  0  0  0  0  0  0  0  0
   -2.9080    0.6875   -2.0866 N   0  0  0  0  0  0  0  0  0  0  0  0
   -3.5285    0.5124   -3.2306 C   0  0  0  0  0  0  0  0  0  0  0  0
   -4.6044    0.5727   -3.3692 H   0  0  0  0  0  0  0  0  0  0  0  0
   -2.6126    0.2378   -4.2289 N   0  0  0  0  0  0  0  0  0  0  0  0
   -2.8407    0.0775   -5.2089 H   0  0  0  0  0  0  0  0  0  0  0  0
   -1.3503    0.2643   -3.6751 C   0  0  0  0  0  0  0  0  0  0  0  0
   -0.3934    0.1178   -4.1684 H   0  0  0  0  0  0  0  0  0  0  0  0
    0.5299   -0.2493    0.7841 C   0  0  0  0  0  0  0  0  0  0  0  0
    1.7415   -0.0801    0.8357 O   0  0  0  0  0  0  0  0  0  0  0  0
   -0.2481    0.1138    1.8691 N   0  0  0  0  0  0  0  0  0  0  0  0
   -1.2435   -0.0713    1.7958 H   0  0  0  0  0  0  0  0  0  0  0  0
    0.3106    0.4825    3.1633 C   0  0  0  0  0  0  0  0  0  0  0  0
    0.9709    1.3502    3.0633 H   0  0  0  0  0  0  0  0  0  0  0  0
   -0.4911    0.7390    3.8623 H   0  0  0  0  0  0  0  0  0  0  0  0
    0.8842   -0.3508    3.5823 H   0  0  0  0  0  0  0  0  0  0  0  0
  1  2  1  0  0  0  0
  2  3  1  0  0  0  0
  2  4  1  0  0  0  0
  2  5  1  0  0  0  0
  5  6  2  0  0  0  0
  5  7  1  0  0  0  0
  7  8  1  0  0  0  0
  7  9  1  0  0  0  0
  9 10  1  0  0  0  0
  9 11  1  0  0  0  0
  9 22  1  0  0  0  0
 11 12  1  0  0  0  0
 11 13  1  0  0  0  0
 11 14  1  0  0  0  0
 14 15  1  0  0  0  0
 14 20  2  0  0  0  0
 15 16  2  0  0  0  0
 16 17  1  0  0  0  0
 16 18  1  0  0  0  0
 18 19  1  0  0  0  0
 18 20  1  0  0  0  0
 20 21  1  0  0  0  0
 22 23  2  0  0  0  0
 22 24  1  0  0  0  0
 24 25  1  0  0  0  0
 24 26  1  0  0  0  0
 26 27  1  0  0  0  0
 26 28  1  0  0  0  0
 26 29  1  0  0  0  0
M  END
$$$$

  -OEChem-04042215593D

 29 29  0     1  0  0  0  0  0999 V2000
   -2.4599   -4.5149    0.4541 H   0  0  0  0  0  0  0  0  0  0  0  0
   -2.6356   -3.5201    0.0347 C   0  0  0  0  0  0  0  0  0  0  0  0
   -3.3881   -3.0100    0.6406 H   0  0  0  0  0  0  0  0  0  0  0  0
   -3.0111   -3.6295   -0.9855 H   0  0  0  0  0  0  0  0  0  0  0  0
   -1.3460   -2.7217    0.0286 C   0  0  0  0  0  0  0  0  0  0  0  0
   -0.3218   -3.2141    0.4661 O   0  0  0  0  0  0  0  0  0  0  0  0
   -1.3378   -1.4412   -0.4824 N   0  0  0  0  0  0  0  0  0  0  0  0
   -2.2162   -1.0776   -0.8503 H   0  0  0  0  0  0  0  0  0  0  0  0
   -0.1474   -0.5736   -0.5669 C   0  0  1  0  0  0  0  0  0  0  0  0
    0.5953   -1.1182   -1.1606 H   0  0  0  0  0  0  0  0  0  0  0  0
   -0.4811    0.7285   -1.3230 C   0  0  0  0  0  0  0  0  0  0  0  0
   -0.8212    1.4931   -0.6176 H   0  0  0  0  0  0  0  0  0  0  0  0
    0.4277    1.1070   -1.8006 H   0  0  0  0  0  0  0  0  0  0  0  0
   -1.5545    0.5401   -2.3555 C   0  0  0  0  0  0  0  0  0  0  0  0
   -2.8645    0.9720   -2.1980 N   0  0  0  0  0  0  0  0  0  0  0  0
   -3.4847    0.6904   -3.3201 C   0  0  0  0  0  0  0  0  0  0  0  0
   -4.5288    0.9103   -3.5247 H   0  0  0  0  0  0  0  0  0  0  0  0
   -2.6149    0.0706   -4.1979 N   0  0  0  0  0  0  0  0  0  0  0  0
   -2.8479   -0.2294   -5.1434 H   0  0  0  0  0  0  0  0  0  0  0  0
   -1.3806   -0.0189   -3.5898 C   0  0  0  0  0  0  0  0  0  0  0  0
   -0.4566   -0.4257   -3.9919 H   0  0  0  0  0  0  0  0  0  0  0  0
    0.5249   -0.2509    0.7847 C   0  0  0  0  0  0  0  0  0  0  0  0
    1.7366   -0.0822    0.8327 O   0  0  0  0  0  0  0  0  0  0  0  0
   -0.2490    0.1078    1.8743 N   0  0  0  0  0  0  0  0  0  0  0  0
   -1.2458   -0.0705    1.8041 H   0  0  0  0  0  0  0  0  0  0  0  0
    0.3144    0.4823    3.1648 C   0  0  0  0  0  0  0  0  0  0  0  0
    0.9699    1.3530    3.0587 H   0  0  0  0  0  0  0  0  0  0  0  0
   -0.4855    0.7371    3.8664 H   0  0  0  0  0  0  0  0  0  0  0  0
    0.8941   -0.3467    3.5839 H   0  0  0  0  0  0  0  0  0  0  0  0
  1  2  1  0  0  0  0
  2  3  1  0  0  0  0
  2  4  1  0  0  0  0
  2  5  1  0  0  0  0
  5  6  2  0  0  0  0
  5  7  1  0  0  0  0
  7  8  1  0  0  0  0
  7  9  1  0  0  0  0
  9 10  1  0  0  0  0
  9 11  1  0  0  0  0
  9 22  1  0  0  0  0
 11 12  1  0  0  0  0
 11 13  1  0  0  0  0
 11 14  1  0  0  0  0
 14 15  1  0  0  0  0
 14 20  2  0  0  0  0
 15 16  2  0  0  0  0
 16 17  1  0  0  0  0
 16 18  1  0  0  0  0
 18 19  1  0  0  0  0
 18 20  1  0  0  0  0
 20 21  1  0  0  0  0
 22 23  2  0  0  0  0
 22 24  1  0  0  0  0
 24 25  1  0  0  0  0
 24 26  1  0  0  0  0
 26 27  1  0  0  0  0
 26 28  1  0  0  0  0
 26 29  1  0  0  0  0
M  END
$$$$

  -OEChem-04042215593D

 29 29  0     1  0  0  0  0  0999 V2000
   -2.4369   -4.5288    0.4764 H   0  0  0  0  0  0  0  0  0  0  0  0
   -2.6206   -3.5363    0.0548 C   0  0  0  0  0  0  0  0  0  0  0  0
   -3.3727   -3.0291    0.6637 H   0  0  0  0  0  0  0  0  0  0  0  0
   -3.0015   -3.6516   -0.9627 H   0  0  0  0  0  0  0  0  0  0  0  0
   -1.3356   -2.7305    0.0393 C   0  0  0  0  0  0  0  0  0  0  0  0
   -0.3063   -3.2163    0.4716 O   0  0  0  0  0  0  0  0  0  0  0  0
   -1.3367   -1.4516   -0.4766 N   0  0  0  0  0  0  0  0  0  0  0  0
   -2.2163   -1.1004   -0.8498 H   0  0  0  0  0  0  0  0  0  0  0  0
   -0.1501   -0.5784   -0.5656 C   0  0  1  0  0  0  0  0  0  0  0  0
    0.5957   -1.1230   -1.1554 H   0  0  0  0  0  0  0  0  0  0  0  0
   -0.4819    0.7213   -1.3289 C   0  0  0  0  0  0  0  0  0  0  0  0
   -0.8273    1.4807   -0.6204 H   0  0  0  0  0  0  0  0  0  0  0  0
    0.4273    1.1070   -1.7999 H   0  0  0  0  0  0  0  0  0  0  0  0
   -1.5517    0.5484   -2.3696 C   0  0  0  0  0  0  0  0  0  0  0  0
   -2.7568    1.2359   -2.3628 N   0  0  0  0  0  0  0  0  0  0  0  0
   -3.4076    0.8603   -3.4386 C   0  0  0  0  0  0  0  0  0  0  0  0
   -4.3877    1.2265   -3.7311 H   0  0  0  0  0  0  0  0  0  0  0  0
   -2.6633   -0.0707   -4.1385 N   0  0  0  0  0  0  0  0  0  0  0  0
   -2.9368   -0.4981   -5.0221 H   0  0  0  0  0  0  0  0  0  0  0  0
   -1.4768   -0.2675   -3.4641 C   0  0  0  0  0  0  0  0  0  0  0  0
   -0.6447   -0.9122   -3.7345 H   0  0  0  0  0  0  0  0  0  0  0  0
    0.5206   -0.2492    0.7856 C   0  0  0  0  0  0  0  0  0  0  0  0
    1.7323   -0.0824    0.8354 O   0  0  0  0  0  0  0  0  0  0  0  0
   -0.2544    0.1088    1.8746 N   0  0  0  0  0  0  0  0  0  0  0  0
   -1.2513   -0.0674    1.8032 H   0  0  0  0  0  0  0  0  0  0  0  0
    0.3074    0.4835    3.1660 C   0  0  0  0  0  0  0  0  0  0  0  0
    0.9739    1.3457    3.0597 H   0  0  0  0  0  0  0  0  0  0  0  0
   -0.4926    0.7515    3.8629 H   0  0  0  0  0  0  0  0  0  0  0  0
    0.8750   -0.3505    3.5921 H   0  0  0  0  0  0  0  0  0  0  0  0
  1  2  1  0  0  0  0
  2  3  1  0  0  0  0
  2  4  1  0  0  0  0
  2  5  1  0  0  0  0
  5  6  2  0  0  0  0
  5  7  1  0  0  0  0
  7  8  1  0  0  0  0
  7  9  1  0  0  0  0
  9 10  1  0  0  0  0
  9 11  1  0  0  0  0
  9 22  1  0  0  0  0
 11 12  1  0  0  0  0
 11 13  1  0  0  0  0
 11 14  1  0  0  0  0
 14 15  1  0  0  0  0
 14 20  2  0  0  0  0
 15 16  2  0  0  0  0
 16 17  1  0  0  0  0
 16 18  1  0  0  0  0
 18 19  1  0  0  0  0
 18 20  1  0  0  0  0
 20 21  1  0  0  0  0
 22 23  2  0  0  0  0
 22 24  1  0  0  0  0
 24 25  1  0  0  0  0
 24 26  1  0  0  0  0
 26 27  1  0  0  0  0
 26 28  1  0  0  0  0
 26 29  1  0  0  0  0
M  END
$$$$

  -OEChem-04042215593D

 29 29  0     1  0  0  0  0  0999 V2000
   -2.4015   -4.5656    0.5225 H   0  0  0  0  0  0  0  0  0  0  0  0
   -2.5983   -3.5781    0.0956 C   0  0  0  0  0  0  0  0  0  0  0  0
   -3.3565   -3.0775    0.7024 H   0  0  0  0  0  0  0  0  0  0  0  0
   -2.9783   -3.7041   -0.9211 H   0  0  0  0  0  0  0  0  0  0  0  0
   -1.3236   -2.7560    0.0750 C   0  0  0  0  0  0  0  0  0  0  0  0
   -0.2891   -3.2253    0.5124 O   0  0  0  0  0  0  0  0  0  0  0  0
   -1.3397   -1.4821   -0.4535 N   0  0  0  0  0  0  0  0  0  0  0  0
   -2.2211   -1.1493   -0.8372 H   0  0  0  0  0  0  0  0  0  0  0  0
   -0.1606   -0.5999   -0.5560 C   0  0  1  0  0  0  0  0  0  0  0  0
    0.5874   -1.1469   -1.1410 H   0  0  0  0  0  0  0  0  0  0  0  0
   -0.4924    0.6923   -1.3346 C   0  0  0  0  0  0  0  0  0  0  0  0
   -0.8432    1.4495   -0.6264 H   0  0  0  0  0  0  0  0  0  0  0  0
    0.4180    1.0831   -1.7985 H   0  0  0  0  0  0  0  0  0  0  0  0
   -1.5578    0.5392   -2.3854 C   0  0  0  0  0  0  0  0  0  0  0  0
   -2.6002    1.4386   -2.5562 N   0  0  0  0  0  0  0  0  0  0  0  0
   -3.2957    1.0189   -3.5864 C   0  0  0  0  0  0  0  0  0  0  0  0
   -4.1766    1.5144   -3.9848 H   0  0  0  0  0  0  0  0  0  0  0  0
   -2.7412   -0.1447   -4.0856 N   0  0  0  0  0  0  0  0  0  0  0  0
   -3.0751   -0.6503   -4.9047 H   0  0  0  0  0  0  0  0  0  0  0  0
   -1.6295   -0.4496   -3.3289 C   0  0  0  0  0  0  0  0  0  0  0  0
   -0.9343   -1.2760   -3.4521 H   0  0  0  0  0  0  0  0  0  0  0  0
    0.5128   -0.2529    0.7900 C   0  0  0  0  0  0  0  0  0  0  0  0
    1.7234   -0.0764    0.8331 O   0  0  0  0  0  0  0  0  0  0  0  0
   -0.2603    0.1089    1.8793 N   0  0  0  0  0  0  0  0  0  0  0  0
   -1.2549   -0.0820    1.8173 H   0  0  0  0  0  0  0  0  0  0  0  0
    0.3048    0.5059    3.1627 C   0  0  0  0  0  0  0  0  0  0  0  0
    0.9553    1.3788    3.0419 H   0  0  0  0  0  0  0  0  0  0  0  0
   -0.4942    0.7668    3.8633 H   0  0  0  0  0  0  0  0  0  0  0  0
    0.8906   -0.3135    3.5926 H   0  0  0  0  0  0  0  0  0  0  0  0
  1  2  1  0  0  0  0
  2  3  1  0  0  0  0
  2  4  1  0  0  0  0
  2  5  1  0  0  0  0
  5  6  2  0  0  0  0
  5  7  1  0  0  0  0
  7  8  1  0  0  0  0
  7  9  1  0  0  0  0
  9 10  1  0  0  0  0
  9 11  1  0  0  0  0
  9 22  1  0  0  0  0
 11 12  1  0  0  0  0
 11 13  1  0  0  0  0
 11 14  1  0  0  0  0
 14 15  1  0  0  0  0
 14 20  2  0  0  0  0
 15 16  2  0  0  0  0
 16 17  1  0  0  0  0
 16 18  1  0  0  0  0
 18 19  1  0  0  0  0
 18 20  1  0  0  0  0
 20 21  1  0  0  0  0
 22 23  2  0  0  0  0
 22 24  1  0  0  0  0
 24 25  1  0  0  0  0
 24 26  1  0  0  0  0
 26 27  1  0  0  0  0
 26 28  1  0  0  0  0
 26 29  1  0  0  0  0
M  END
$$$$

  -OEChem-04042215593D

 29 29  0     1  0  0  0  0  0999 V2000
   -2.3523   -4.6017    0.6171 H   0  0  0  0  0  0  0  0  0  0  0  0
   -2.5669   -3.6229    0.1786 C   0  0  0  0  0  0  0  0  0  0  0  0
   -3.3182   -3.1203    0.7925 H   0  0  0  0  0  0  0  0  0  0  0  0
   -2.9654   -3.7690   -0.8282 H   0  0  0  0  0  0  0  0  0  0  0  0
   -1.3006   -2.7895    0.1205 C   0  0  0  0  0  0  0  0  0  0  0  0
   -0.2541   -3.2419    0.5462 O   0  0  0  0  0  0  0  0  0  0  0  0
   -1.3390   -1.5226   -0.4248 N   0  0  0  0  0  0  0  0  0  0  0  0
   -2.2303   -1.2046   -0.7968 H   0  0  0  0  0  0  0  0  0  0  0  0
   -0.1728   -0.6254   -0.5480 C   0  0  1  0  0  0  0  0  0  0  0  0
    0.5781   -1.1717   -1.1300 H   0  0  0  0  0  0  0  0  0  0  0  0
   -0.5159    0.6567   -1.3416 C   0  0  0  0  0  0  0  0  0  0  0  0
   -0.8711    1.4125   -0.6341 H   0  0  0  0  0  0  0  0  0  0  0  0
    0.3942    1.0526   -1.8021 H   0  0  0  0  0  0  0  0  0  0  0  0
   -1.5811    0.5207   -2.3988 C   0  0  0  0  0  0  0  0  0  0  0  0
   -2.4175    1.5694   -2.7543 N   0  0  0  0  0  0  0  0  0  0  0  0
   -3.1619    1.1449   -3.7470 C   0  0  0  0  0  0  0  0  0  0  0  0
   -3.9172    1.7379   -4.2553 H   0  0  0  0  0  0  0  0  0  0  0  0
   -2.8379   -0.1638   -4.0499 N   0  0  0  0  0  0  0  0  0  0  0  0
   -3.2396   -0.7060   -4.8132 H   0  0  0  0  0  0  0  0  0  0  0  0
   -1.8225   -0.5603   -3.2057 C   0  0  0  0  0  0  0  0  0  0  0  0
   -1.2890   -1.5071   -3.1950 H   0  0  0  0  0  0  0  0  0  0  0  0
    0.5037   -0.2536    0.7900 C   0  0  0  0  0  0  0  0  0  0  0  0
    1.7125   -0.0649    0.8270 O   0  0  0  0  0  0  0  0  0  0  0  0
   -0.2691    0.1100    1.8788 N   0  0  0  0  0  0  0  0  0  0  0  0
   -1.2616   -0.0920    1.8227 H   0  0  0  0  0  0  0  0  0  0  0  0
    0.2973    0.5220    3.1567 C   0  0  0  0  0  0  0  0  0  0  0  0
    0.9414    1.3982    3.0265 H   0  0  0  0  0  0  0  0  0  0  0  0
   -0.5013    0.7828    3.8578 H   0  0  0  0  0  0  0  0  0  0  0  0
    0.8902   -0.2898    3.5908 H   0  0  0  0  0  0  0  0  0  0  0  0
  1  2  1  0  0  0  0
  2  3  1  0  0  0  0
  2  4  1  0  0  0  0
  2  5  1  0  0  0  0
  5  6  2  0  0  0  0
  5  7  1  0  0  0  0
  7  8  1  0  0  0  0
  7  9  1  0  0  0  0
  9 10  1  0  0  0  0
  9 11  1  0  0  0  0
  9 22  1  0  0  0  0
 11 12  1  0  0  0  0
 11 13  1  0  0  0  0
 11 14  1  0  0  0  0
 14 15  1  0  0  0  0
 14 20  2  0  0  0  0
 15 16  2  0  0  0  0
 16 17  1  0  0  0  0
 16 18  1  0  0  0  0
 18 19  1  0  0  0  0
 18 20  1  0  0  0  0
 20 21  1  0  0  0  0
 22 23  2  0  0  0  0
 22 24  1  0  0  0  0
 24 25  1  0  0  0  0
 24 26  1  0  0  0  0
 26 27  1  0  0  0  0
 26 28  1  0  0  0  0
 26 29  1  0  0  0  0
M  END
$$$$

  -OEChem-04042215593D

 29 29  0     1  0  0  0  0  0999 V2000
   -2.2918   -4.6347    0.7330 H   0  0  0  0  0  0  0  0  0  0  0  0
   -2.5304   -3.6671    0.2818 C   0  0  0  0  0  0  0  0  0  0  0  0
   -3.2635   -3.1574    0.9115 H   0  0  0  0  0  0  0  0  0  0  0  0
   -2.9632   -3.8382   -0.7067 H   0  0  0  0  0  0  0  0  0  0  0  0
   -1.2744   -2.8247    0.1612 C   0  0  0  0  0  0  0  0  0  0  0  0
   -0.2083   -3.2645    0.5491 O   0  0  0  0  0  0  0  0  0  0  0  0
   -1.3455   -1.5629   -0.3937 N   0  0  0  0  0  0  0  0  0  0  0  0
   -2.2594   -1.2419   -0.7021 H   0  0  0  0  0  0  0  0  0  0  0  0
   -0.1974   -0.6468   -0.5410 C   0  0  1  0  0  0  0  0  0  0  0  0
    0.5549   -1.1895   -1.1246 H   0  0  0  0  0  0  0  0  0  0  0  0
   -0.5544    0.6251   -1.3473 C   0  0  0  0  0  0  0  0  0  0  0  0
   -0.9074    1.3845   -0.6425 H   0  0  0  0  0  0  0  0  0  0  0  0
    0.3560    1.0190   -1.8091 H   0  0  0  0  0  0  0  0  0  0  0  0
   -1.6195    0.5088   -2.4099 C   0  0  0  0  0  0  0  0  0  0  0  0
   -2.2160    1.6380   -2.9537 N   0  0  0  0  0  0  0  0  0  0  0  0
   -3.0096    1.2324   -3.9148 C   0  0  0  0  0  0  0  0  0  0  0  0
   -3.6180    1.8844   -4.5352 H   0  0  0  0  0  0  0  0  0  0  0  0
   -2.9453   -0.1428   -4.0244 N   0  0  0  0  0  0  0  0  0  0  0  0
   -3.4230   -0.6968   -4.7334 H   0  0  0  0  0  0  0  0  0  0  0  0
   -2.0436   -0.6052   -3.0893 C   0  0  0  0  0  0  0  0  0  0  0  0
   -1.6914   -1.6239   -2.9534 H   0  0  0  0  0  0  0  0  0  0  0  0
    0.4888   -0.2557    0.7869 C   0  0  0  0  0  0  0  0  0  0  0  0
    1.6950   -0.0501    0.8103 O   0  0  0  0  0  0  0  0  0  0  0  0
   -0.2766    0.1012    1.8834 N   0  0  0  0  0  0  0  0  0  0  0  0
   -1.2671   -0.1129    1.8404 H   0  0  0  0  0  0  0  0  0  0  0  0
    0.2988    0.5335    3.1505 C   0  0  0  0  0  0  0  0  0  0  0  0
    0.9317    1.4151    3.0038 H   0  0  0  0  0  0  0  0  0  0  0  0
   -0.4949    0.7942    3.8568 H   0  0  0  0  0  0  0  0  0  0  0  0
    0.9049   -0.2667    3.5879 H   0  0  0  0  0  0  0  0  0  0  0  0
  1  2  1  0  0  0  0
  2  3  1  0  0  0  0
  2  4  1  0  0  0  0
  2  5  1  0  0  0  0
  5  6  2  0  0  0  0
  5  7  1  0  0  0  0
  7  8  1  0  0  0  0
  7  9  1  0  0  0  0
  9 10  1  0  0  0  0
  9 11  1  0  0  0  0
  9 22  1  0  0  0  0
 11 12  1  0  0  0  0
 11 13  1  0  0  0  0
 11 14  1  0  0  0  0
 14 15  1  0  0  0  0
 14 20  2  0  0  0  0
 15 16  2  0  0  0  0
 16 17  1  0  0  0  0
 16 18  1  0  0  0  0
 18 19  1  0  0  0  0
 18 20  1  0  0  0  0
 20 21  1  0  0  0  0
 22 23  2  0  0  0  0
 22 24  1  0  0  0  0
 24 25  1  0  0  0  0
 24 26  1  0  0  0  0
 26 27  1  0  0  0  0
 26 28  1  0  0  0  0
 26 29  1  0  0  0  0
M  END
$$$$

  -OEChem-04042215593D

 29 29  0     1  0  0  0  0  0999 V2000
   -2.0233   -4.7345    0.9173 H   0  0  0  0  0  0  0  0  0  0  0  0
   -2.3495   -3.7902    0.4715 C   0  0  0  0  0  0  0  0  0  0  0  0
   -3.0264   -3.2897    1.1678 H   0  0  0  0  0  0  0  0  0  0  0  0
   -2.8839   -4.0067   -0.4564 H   0  0  0  0  0  0  0  0  0  0  0  0
   -1.1490   -2.9075    0.1854 C   0  0  0  0  0  0  0  0  0  0  0  0
   -0.0281   -3.3110    0.4328 O   0  0  0  0  0  0  0  0  0  0  0  0
   -1.3360   -1.6462   -0.3454 N   0  0  0  0  0  0  0  0  0  0  0  0
   -2.2945   -1.3244   -0.4334 H   0  0  0  0  0  0  0  0  0  0  0  0
   -0.2573   -0.6591   -0.5270 C   0  0  1  0  0  0  0  0  0  0  0  0
    0.5035   -1.1655   -1.1324 H   0  0  0  0  0  0  0  0  0  0  0  0
   -0.6640    0.6080   -1.3288 C   0  0  0  0  0  0  0  0  0  0  0  0
   -0.7583    1.4362   -0.6193 H   0  0  0  0  0  0  0  0  0  0  0  0
    0.1680    0.8627   -1.9926 H   0  0  0  0  0  0  0  0  0  0  0  0
   -1.9329    0.6426   -2.1546 C   0  0  0  0  0  0  0  0  0  0  0  0
   -2.2387    1.8105   -2.8425 N   0  0  0  0  0  0  0  0  0  0  0  0
   -3.3034    1.5791   -3.5688 C   0  0  0  0  0  0  0  0  0  0  0  0
   -3.7847    2.3049   -4.2183 H   0  0  0  0  0  0  0  0  0  0  0  0
   -3.7058    0.2717   -3.3937 N   0  0  0  0  0  0  0  0  0  0  0  0
   -4.4699   -0.1760   -3.8970 H   0  0  0  0  0  0  0  0  0  0  0  0
   -2.8235   -0.3376   -2.5262 C   0  0  0  0  0  0  0  0  0  0  0  0
   -2.8053   -1.3895   -2.2676 H   0  0  0  0  0  0  0  0  0  0  0  0
    0.4551   -0.2517    0.7834 C   0  0  0  0  0  0  0  0  0  0  0  0
    1.6467    0.0253    0.7694 O   0  0  0  0  0  0  0  0  0  0  0  0
   -0.2861    0.0357    1.9169 N   0  0  0  0  0  0  0  0  0  0  0  0
   -1.2694   -0.2106    1.9022 H   0  0  0  0  0  0  0  0  0  0  0  0
    0.3103    0.4952    3.1651 C   0  0  0  0  0  0  0  0  0  0  0  0
    0.8376    1.4429    3.0125 H   0  0  0  0  0  0  0  0  0  0  0  0
   -0.4660    0.6504    3.9204 H   0  0  0  0  0  0  0  0  0  0  0  0
    1.0211   -0.2465    3.5449 H   0  0  0  0  0  0  0  0  0  0  0  0
  1  2  1  0  0  0  0
  2  3  1  0  0  0  0
  2  4  1  0  0  0  0
  2  5  1  0  0  0  0
  5  6  2  0  0  0  0
  5  7  1  0  0  0  0
  7  8  1  0  0  0  0
  7  9  1  0  0  0  0
  9 10  1  0  0  0  0
  9 11  1  0  0  0  0
  9 22  1  0  0  0  0
 11 12  1  0  0  0  0
 11 13  1  0  0  0  0
 11 14  1  0  0  0  0
 14 15  1  0  0  0  0
 14 20  2  0  0  0  0
 15 16  2  0  0  0  0
 16 17  1  0  0  0  0
 16 18  1  0  0  0  0
 18 19  1  0  0  0  0
 18 20  1  0  0  0  0
 20 21  1  0  0  0  0
 22 23  2  0  0  0  0
 22 24  1  0  0  0  0
 24 25  1  0  0  0  0
 24 26  1  0  0  0  0
 26 27  1  0  0  0  0
 26 28  1  0  0  0  0
 26 29  1  0  0  0  0
M  END
$$$$

  -OEChem-04042215593D

 29 29  0     1  0  0  0  0  0999 V2000
   -1.9488   -4.7515    0.9549 H   0  0  0  0  0  0  0  0  0  0  0  0
   -2.2971   -3.8116    0.5167 C   0  0  0  0  0  0  0  0  0  0  0  0
   -2.9607   -3.3172    1.2299 H   0  0  0  0  0  0  0  0  0  0  0  0
   -2.8533   -4.0359   -0.3968 H   0  0  0  0  0  0  0  0  0  0  0  0
   -1.1143   -2.9168    0.1968 C   0  0  0  0  0  0  0  0  0  0  0  0
    0.0169   -3.3061    0.4185 O   0  0  0  0  0  0  0  0  0  0  0  0
   -1.3309   -1.6599   -0.3336 N   0  0  0  0  0  0  0  0  0  0  0  0
   -2.2915   -1.3407   -0.3595 H   0  0  0  0  0  0  0  0  0  0  0  0
   -0.2698   -0.6603   -0.5387 C   0  0  1  0  0  0  0  0  0  0  0  0
    0.4861   -1.1649   -1.1520 H   0  0  0  0  0  0  0  0  0  0  0  0
   -0.6893    0.5988   -1.3467 C   0  0  0  0  0  0  0  0  0  0  0  0
   -0.7649    1.4409   -0.6517 H   0  0  0  0  0  0  0  0  0  0  0  0
    0.1382    0.8321   -2.0244 H   0  0  0  0  0  0  0  0  0  0  0  0
   -1.9633    0.6379   -2.1669 C   0  0  0  0  0  0  0  0  0  0  0  0
   -2.0939    1.6670   -3.0918 N   0  0  0  0  0  0  0  0  0  0  0  0
   -3.2236    1.4918   -3.7295 C   0  0  0  0  0  0  0  0  0  0  0  0
   -3.6031    2.1389   -4.5153 H   0  0  0  0  0  0  0  0  0  0  0  0
   -3.8493    0.3589   -3.2544 N   0  0  0  0  0  0  0  0  0  0  0  0
   -4.7286   -0.0142   -3.6083 H   0  0  0  0  0  0  0  0  0  0  0  0
   -3.0507   -0.1990   -2.2780 C   0  0  0  0  0  0  0  0  0  0  0  0
   -3.2503   -1.1246   -1.7562 H   0  0  0  0  0  0  0  0  0  0  0  0
    0.4607   -0.2420    0.7583 C   0  0  0  0  0  0  0  0  0  0  0  0
    1.6471    0.0546    0.7232 O   0  0  0  0  0  0  0  0  0  0  0  0
   -0.2654    0.0372    1.9039 N   0  0  0  0  0  0  0  0  0  0  0  0
   -1.2414   -0.2357    1.9106 H   0  0  0  0  0  0  0  0  0  0  0  0
    0.3475    0.4955    3.1445 C   0  0  0  0  0  0  0  0  0  0  0  0
    0.8692    1.4453    2.9866 H   0  0  0  0  0  0  0  0  0  0  0  0
   -0.4183    0.6466    3.9113 H   0  0  0  0  0  0  0  0  0  0  0  0
    1.0658   -0.2449    3.5121 H   0  0  0  0  0  0  0  0  0  0  0  0
  1  2  1  0  0  0  0
  2  3  1  0  0  0  0
  2  4  1  0  0  0  0
  2  5  1  0  0  0  0
  5  6  2  0  0  0  0
  5  7  1  0  0  0  0
  7  8  1  0  0  0  0
  7  9  1  0  0  0  0
  9 10  1  0  0  0  0
  9 11  1  0  0  0  0
  9 22  1  0  0  0  0
 11 12  1  0  0  0  0
 11 13  1  0  0  0  0
 11 14  1  0  0  0  0
 14 15  1  0  0  0  0
 14 20  2  0  0  0  0
 15 16  2  0  0  0  0
 16 17  1  0  0  0  0
 16 18  1  0  0  0  0
 18 19  1  0  0  0  0
 18 20  1  0  0  0  0
 20 21  1  0  0  0  0
 22 23  2  0  0  0  0
 22 24  1  0  0  0  0
 24 25  1  0  0  0  0
 24 26  1  0  0  0  0
 26 27  1  0  0  0  0
 26 28  1  0  0  0  0
 26 29  1  0  0  0  0
M  END
$$$$

  -OEChem-04042215593D

 29 29  0     1  0  0  0  0  0999 V2000
   -1.9176   -4.8467    0.7055 H   0  0  0  0  0  0  0  0  0  0  0  0
   -2.2208   -3.9354    0.1816 C   0  0  0  0  0  0  0  0  0  0  0  0
   -3.1560   -3.5750    0.6164 H   0  0  0  0  0  0  0  0  0  0  0  0
   -2.3824   -4.1746   -0.8723 H   0  0  0  0  0  0  0  0  0  0  0  0
   -1.1431   -2.8755    0.3147 C   0  0  0  0  0  0  0  0  0  0  0  0
   -0.1465   -3.1089    0.9725 O   0  0  0  0  0  0  0  0  0  0  0  0
   -1.3123   -1.6523   -0.3051 N   0  0  0  0  0  0  0  0  0  0  0  0
   -2.0591   -1.6324   -0.9918 H   0  0  0  0  0  0  0  0  0  0  0  0
   -0.2175   -0.6843   -0.5086 C   0  0  1  0  0  0  0  0  0  0  0  0
    0.5588   -1.2153   -1.0715 H   0  0  0  0  0  0  0  0  0  0  0  0
   -0.6140    0.5636   -1.3500 C   0  0  0  0  0  0  0  0  0  0  0  0
   -0.6822    1.4353   -0.6916 H   0  0  0  0  0  0  0  0  0  0  0  0
    0.2117    0.7628   -2.0405 H   0  0  0  0  0  0  0  0  0  0  0  0
   -1.8922    0.5522   -2.1568 C   0  0  0  0  0  0  0  0  0  0  0  0
   -1.9853    1.2850   -3.3327 N   0  0  0  0  0  0  0  0  0  0  0  0
   -3.2239    1.2056   -3.7516 C   0  0  0  0  0  0  0  0  0  0  0  0
   -3.6078    1.6726   -4.6544 H   0  0  0  0  0  0  0  0  0  0  0  0
   -3.9660    0.4551   -2.8623 N   0  0  0  0  0  0  0  0  0  0  0  0
   -4.9700    0.2957   -2.9294 H   0  0  0  0  0  0  0  0  0  0  0  0
   -3.1378    0.0720   -1.8281 C   0  0  0  0  0  0  0  0  0  0  0  0
   -3.4326   -0.4300   -0.9127 H   0  0  0  0  0  0  0  0  0  0  0  0
    0.4528   -0.1967    0.7981 C   0  0  0  0  0  0  0  0  0  0  0  0
    1.6402    0.1013    0.7941 O   0  0  0  0  0  0  0  0  0  0  0  0
   -0.3288    0.1664    1.8809 N   0  0  0  0  0  0  0  0  0  0  0  0
   -1.2789   -0.1892    1.8825 H   0  0  0  0  0  0  0  0  0  0  0  0
    0.2367    0.6556    3.1317 C   0  0  0  0  0  0  0  0  0  0  0  0
    0.8060    1.5752    2.9602 H   0  0  0  0  0  0  0  0  0  0  0  0
   -0.5611    0.8736    3.8480 H   0  0  0  0  0  0  0  0  0  0  0  0
    0.9024   -0.0955    3.5699 H   0  0  0  0  0  0  0  0  0  0  0  0
  1  2  1  0  0  0  0
  2  3  1  0  0  0  0
  2  4  1  0  0  0  0
  2  5  1  0  0  0  0
  5  6  2  0  0  0  0
  5  7  1  0  0  0  0
  7  8  1  0  0  0  0
  7  9  1  0  0  0  0
  9 10  1  0  0  0  0
  9 11  1  0  0  0  0
  9 22  1  0  0  0  0
 11 12  1  0  0  0  0
 11 13  1  0  0  0  0
 11 14  1  0  0  0  0
 14 15  1  0  0  0  0
 14 20  2  0  0  0  0
 15 16  2  0  0  0  0
 16 17  1  0  0  0  0
 16 18  1  0  0  0  0
 18 19  1  0  0  0  0
 18 20  1  0  0  0  0
 20 21  1  0  0  0  0
 22 23  2  0  0  0  0
 22 24  1  0  0  0  0
 24 25  1  0  0  0  0
 24 26  1  0  0  0  0
 26 27  1  0  0  0  0
 26 28  1  0  0  0  0
 26 29  1  0  0  0  0
M  END
$$$$

  -OEChem-04042215593D

 29 29  0     1  0  0  0  0  0999 V2000
   -2.1173   -4.7893    0.6062 H   0  0  0  0  0  0  0  0  0  0  0  0
   -2.3881   -3.8429    0.1288 C   0  0  0  0  0  0  0  0  0  0  0  0
   -3.2895   -3.4525    0.6071 H   0  0  0  0  0  0  0  0  0  0  0  0
   -2.5943   -4.0300   -0.9279 H   0  0  0  0  0  0  0  0  0  0  0  0
   -1.2529   -2.8465    0.2684 C   0  0  0  0  0  0  0  0  0  0  0  0
   -0.2670   -3.1416    0.9176 O   0  0  0  0  0  0  0  0  0  0  0  0
   -1.3590   -1.6061   -0.3293 N   0  0  0  0  0  0  0  0  0  0  0  0
   -2.1260   -1.5169   -0.9900 H   0  0  0  0  0  0  0  0  0  0  0  0
   -0.2165   -0.6908   -0.5234 C   0  0  1  0  0  0  0  0  0  0  0  0
    0.5285   -1.2490   -1.1018 H   0  0  0  0  0  0  0  0  0  0  0  0
   -0.5692    0.5795   -1.3464 C   0  0  0  0  0  0  0  0  0  0  0  0
   -0.6113    1.4448   -0.6776 H   0  0  0  0  0  0  0  0  0  0  0  0
    0.2508    0.7669   -2.0470 H   0  0  0  0  0  0  0  0  0  0  0  0
   -1.8621    0.5747   -2.1217 C   0  0  0  0  0  0  0  0  0  0  0  0
   -1.9426    1.0183   -3.4339 N   0  0  0  0  0  0  0  0  0  0  0  0
   -3.2103    1.0200   -3.7662 C   0  0  0  0  0  0  0  0  0  0  0  0
   -3.5983    1.3169   -4.7367 H   0  0  0  0  0  0  0  0  0  0  0  0
   -3.9742    0.6045   -2.6927 N   0  0  0  0  0  0  0  0  0  0  0  0
   -4.9925    0.5774   -2.6764 H   0  0  0  0  0  0  0  0  0  0  0  0
   -3.1262    0.3558   -1.6341 C   0  0  0  0  0  0  0  0  0  0  0  0
   -3.3945    0.1025   -0.6126 H   0  0  0  0  0  0  0  0  0  0  0  0
    0.4866   -0.2575    0.7844 C   0  0  0  0  0  0  0  0  0  0  0  0
    1.6851   -0.0085    0.7723 O   0  0  0  0  0  0  0  0  0  0  0  0
   -0.2700    0.1276    1.8775 N   0  0  0  0  0  0  0  0  0  0  0  0
   -1.2271   -0.2083    1.8900 H   0  0  0  0  0  0  0  0  0  0  0  0
    0.3311    0.5578    3.1334 C   0  0  0  0  0  0  0  0  0  0  0  0
    0.9626    1.4381    2.9749 H   0  0  0  0  0  0  0  0  0  0  0  0
   -0.4480    0.8198    3.8554 H   0  0  0  0  0  0  0  0  0  0  0  0
    0.9439   -0.2444    3.5580 H   0  0  0  0  0  0  0  0  0  0  0  0
  1  2  1  0  0  0  0
  2  3  1  0  0  0  0
  2  4  1  0  0  0  0
  2  5  1  0  0  0  0
  5  6  2  0  0  0  0
  5  7  1  0  0  0  0
  7  8  1  0  0  0  0
  7  9  1  0  0  0  0
  9 10  1  0  0  0  0
  9 11  1  0  0  0  0
  9 22  1  0  0  0  0
 11 12  1  0  0  0  0
 11 13  1  0  0  0  0
 11 14  1  0  0  0  0
 14 15  1  0  0  0  0
 14 20  2  0  0  0  0
 15 16  2  0  0  0  0
 16 17  1  0  0  0  0
 16 18  1  0  0  0  0
 18 19  1  0  0  0  0
 18 20  1  0  0  0  0
 20 21  1  0  0  0  0
 22 23  2  0  0  0  0
 22 24  1  0  0  0  0
 24 25  1  0  0  0  0
 24 26  1  0  0  0  0
 26 27  1  0  0  0  0
 26 28  1  0  0  0  0
 26 29  1  0  0  0  0
M  END
$$$$

  -OEChem-04042215593D

 29 29  0     1  0  0  0  0  0999 V2000
   -2.1950   -4.7508    0.5189 H   0  0  0  0  0  0  0  0  0  0  0  0
   -2.4552   -3.7848    0.0768 C   0  0  0  0  0  0  0  0  0  0  0  0
   -3.3464   -3.3975    0.5761 H   0  0  0  0  0  0  0  0  0  0  0  0
   -2.6739   -3.9330   -0.9835 H   0  0  0  0  0  0  0  0  0  0  0  0
   -1.3027   -2.8115    0.2387 C   0  0  0  0  0  0  0  0  0  0  0  0
   -0.3245   -3.1355    0.8863 O   0  0  0  0  0  0  0  0  0  0  0  0
   -1.3803   -1.5600   -0.3394 N   0  0  0  0  0  0  0  0  0  0  0  0
   -2.1549   -1.4326   -0.9857 H   0  0  0  0  0  0  0  0  0  0  0  0
   -0.2179   -0.6639   -0.5158 C   0  0  1  0  0  0  0  0  0  0  0  0
    0.5165   -1.2279   -1.1017 H   0  0  0  0  0  0  0  0  0  0  0  0
   -0.5561    0.6153   -1.3271 C   0  0  0  0  0  0  0  0  0  0  0  0
   -0.6048    1.4719   -0.6476 H   0  0  0  0  0  0  0  0  0  0  0  0
    0.2615    0.8152   -2.0270 H   0  0  0  0  0  0  0  0  0  0  0  0
   -1.8534    0.5874   -2.0883 C   0  0  0  0  0  0  0  0  0  0  0  0
   -1.9374    0.7251   -3.4656 N   0  0  0  0  0  0  0  0  0  0  0  0
   -3.2121    0.7705   -3.7683 C   0  0  0  0  0  0  0  0  0  0  0  0
   -3.6085    0.8750   -4.7743 H   0  0  0  0  0  0  0  0  0  0  0  0
   -3.9707    0.6743   -2.6168 N   0  0  0  0  0  0  0  0  0  0  0  0
   -4.9870    0.7373   -2.5790 H   0  0  0  0  0  0  0  0  0  0  0  0
   -3.1103    0.5868   -1.5425 C   0  0  0  0  0  0  0  0  0  0  0  0
   -3.3564    0.5658   -0.4846 H   0  0  0  0  0  0  0  0  0  0  0  0
    0.4952   -0.2600    0.7955 C   0  0  0  0  0  0  0  0  0  0  0  0
    1.6966   -0.0255    0.7818 O   0  0  0  0  0  0  0  0  0  0  0  0
   -0.2519    0.1268    1.8944 N   0  0  0  0  0  0  0  0  0  0  0  0
   -1.2111   -0.2031    1.9104 H   0  0  0  0  0  0  0  0  0  0  0  0
    0.3602    0.5451    3.1494 C   0  0  0  0  0  0  0  0  0  0  0  0
    1.0189    1.4051    2.9881 H   0  0  0  0  0  0  0  0  0  0  0  0
   -0.4115    0.8349    3.8685 H   0  0  0  0  0  0  0  0  0  0  0  0
    0.9482   -0.2726    3.5794 H   0  0  0  0  0  0  0  0  0  0  0  0
  1  2  1  0  0  0  0
  2  3  1  0  0  0  0
  2  4  1  0  0  0  0
  2  5  1  0  0  0  0
  5  6  2  0  0  0  0
  5  7  1  0  0  0  0
  7  8  1  0  0  0  0
  7  9  1  0  0  0  0
  9 10  1  0  0  0  0
  9 11  1  0  0  0  0
  9 22  1  0  0  0  0
 11 12  1  0  0  0  0
 11 13  1  0  0  0  0
 11 14  1  0  0  0  0
 14 15  1  0  0  0  0
 14 20  2  0  0  0  0
 15 16  2  0  0  0  0
 16 17  1  0  0  0  0
 16 18  1  0  0  0  0
 18 19  1  0  0  0  0
 18 20  1  0  0  0  0
 20 21  1  0  0  0  0
 22 23  2  0  0  0  0
 22 24  1  0  0  0  0
 24 25  1  0  0  0  0
 24 26  1  0  0  0  0
 26 27  1  0  0  0  0
 26 28  1  0  0  0  0
 26 29  1  0  0  0  0
M  END
$$$$

  -OEChem-04042215593D

 29 29  0     1  0  0  0  0  0999 V2000
   -2.2810   -4.6883    0.5202 H   0  0  0  0  0  0  0  0  0  0  0  0
   -2.5047   -3.7258    0.0513 C   0  0  0  0  0  0  0  0  0  0  0  0
   -3.3937   -3.3017    0.5242 H   0  0  0  0  0  0  0  0  0  0  0  0
   -2.7072   -3.8915   -1.0098 H   0  0  0  0  0  0  0  0  0  0  0  0
   -1.3289   -2.7811    0.2138 C   0  0  0  0  0  0  0  0  0  0  0  0
   -0.3574   -3.1285    0.8597 O   0  0  0  0  0  0  0  0  0  0  0  0
   -1.3825   -1.5248   -0.3554 N   0  0  0  0  0  0  0  0  0  0  0  0
   -2.1546   -1.3764   -1.0008 H   0  0  0  0  0  0  0  0  0  0  0  0
   -0.2065   -0.6448   -0.5210 C   0  0  1  0  0  0  0  0  0  0  0  0
    0.5221   -1.2098   -1.1132 H   0  0  0  0  0  0  0  0  0  0  0  0
   -0.5412    0.6433   -1.3160 C   0  0  0  0  0  0  0  0  0  0  0  0
   -0.5861    1.4923   -0.6265 H   0  0  0  0  0  0  0  0  0  0  0  0
    0.2681    0.8507   -2.0231 H   0  0  0  0  0  0  0  0  0  0  0  0
   -1.8463    0.6030   -2.0590 C   0  0  0  0  0  0  0  0  0  0  0  0
   -1.9558    0.4409   -3.4313 N   0  0  0  0  0  0  0  0  0  0  0  0
   -3.2292    0.5473   -3.7251 C   0  0  0  0  0  0  0  0  0  0  0  0
   -3.6437    0.4733   -4.7267 H   0  0  0  0  0  0  0  0  0  0  0  0
   -3.9594    0.7711   -2.5725 N   0  0  0  0  0  0  0  0  0  0  0  0
   -4.9648    0.9333   -2.5383 H   0  0  0  0  0  0  0  0  0  0  0  0
   -3.0804    0.8270   -1.5112 C   0  0  0  0  0  0  0  0  0  0  0  0
   -3.2971    1.0348   -0.4670 H   0  0  0  0  0  0  0  0  0  0  0  0
    0.5056   -0.2611    0.7960 C   0  0  0  0  0  0  0  0  0  0  0  0
    1.7083   -0.0327    0.7890 O   0  0  0  0  0  0  0  0  0  0  0  0
   -0.2451    0.1278    1.8916 N   0  0  0  0  0  0  0  0  0  0  0  0
   -1.2053   -0.2001    1.9004 H   0  0  0  0  0  0  0  0  0  0  0  0
    0.3628    0.5266    3.1548 C   0  0  0  0  0  0  0  0  0  0  0  0
    1.0096    1.3985    3.0117 H   0  0  0  0  0  0  0  0  0  0  0  0
   -0.4123    0.7896    3.8807 H   0  0  0  0  0  0  0  0  0  0  0  0
    0.9616   -0.2930    3.5656 H   0  0  0  0  0  0  0  0  0  0  0  0
  1  2  1  0  0  0  0
  2  3  1  0  0  0  0
  2  4  1  0  0  0  0
  2  5  1  0  0  0  0
  5  6  2  0  0  0  0
  5  7  1  0  0  0  0
  7  8  1  0  0  0  0
  7  9  1  0  0  0  0
  9 10  1  0  0  0  0
  9 11  1  0  0  0  0
  9 22  1  0  0  0  0
 11 12  1  0  0  0  0
 11 13  1  0  0  0  0
 11 14  1  0  0  0  0
 14 15  1  0  0  0  0
 14 20  2  0  0  0  0
 15 16  2  0  0  0  0
 16 17  1  0  0  0  0
 16 18  1  0  0  0  0
 18 19  1  0  0  0  0
 18 20  1  0  0  0  0
 20 21  1  0  0  0  0
 22 23  2  0  0  0  0
 22 24  1  0  0  0  0
 24 25  1  0  0  0  0
 24 26  1  0  0  0  0
 26 27  1  0  0  0  0
 26 28  1  0  0  0  0
 26 29  1  0  0  0  0
M  END
$$$$

  -OEChem-04042215593D

 29 29  0     1  0  0  0  0  0999 V2000
   -2.3113   -4.6666    0.4881 H   0  0  0  0  0  0  0  0  0  0  0  0
   -2.5274   -3.7014    0.0210 C   0  0  0  0  0  0  0  0  0  0  0  0
   -3.4256   -3.2810    0.4793 H   0  0  0  0  0  0  0  0  0  0  0  0
   -2.7092   -3.8607   -1.0448 H   0  0  0  0  0  0  0  0  0  0  0  0
   -1.3557   -2.7566    0.2114 C   0  0  0  0  0  0  0  0  0  0  0  0
   -0.3966   -3.1085    0.8736 O   0  0  0  0  0  0  0  0  0  0  0  0
   -1.3965   -1.4986   -0.3547 N   0  0  0  0  0  0  0  0  0  0  0  0
   -2.1516   -1.3537   -1.0212 H   0  0  0  0  0  0  0  0  0  0  0  0
   -0.2095   -0.6329   -0.5177 C   0  0  1  0  0  0  0  0  0  0  0  0
    0.5115   -1.2027   -1.1148 H   0  0  0  0  0  0  0  0  0  0  0  0
   -0.5381    0.6610   -1.3044 C   0  0  0  0  0  0  0  0  0  0  0  0
   -0.5704    1.5086   -0.6124 H   0  0  0  0  0  0  0  0  0  0  0  0
    0.2647    0.8636   -2.0200 H   0  0  0  0  0  0  0  0  0  0  0  0
   -1.8498    0.6188   -2.0343 C   0  0  0  0  0  0  0  0  0  0  0  0
   -2.0044    0.1666   -3.3360 N   0  0  0  0  0  0  0  0  0  0  0  0
   -3.2636    0.3514   -3.6527 C   0  0  0  0  0  0  0  0  0  0  0  0
   -3.7048    0.1062   -4.6149 H   0  0  0  0  0  0  0  0  0  0  0  0
   -3.9405    0.9024   -2.5805 N   0  0  0  0  0  0  0  0  0  0  0  0
   -4.9219    1.1767   -2.5847 H   0  0  0  0  0  0  0  0  0  0  0  0
   -3.0403    1.0877   -1.5520 C   0  0  0  0  0  0  0  0  0  0  0  0
   -3.2139    1.5321   -0.5758 H   0  0  0  0  0  0  0  0  0  0  0  0
    0.5083   -0.2614    0.7997 C   0  0  0  0  0  0  0  0  0  0  0  0
    1.7133   -0.0449    0.7916 O   0  0  0  0  0  0  0  0  0  0  0  0
   -0.2377    0.1341    1.8962 N   0  0  0  0  0  0  0  0  0  0  0  0
   -1.2012   -0.1845    1.9039 H   0  0  0  0  0  0  0  0  0  0  0  0
    0.3745    0.5224    3.1604 C   0  0  0  0  0  0  0  0  0  0  0  0
    1.0311    1.3874    3.0195 H   0  0  0  0  0  0  0  0  0  0  0  0
   -0.3977    0.7919    3.8871 H   0  0  0  0  0  0  0  0  0  0  0  0
    0.9641   -0.3052    3.5690 H   0  0  0  0  0  0  0  0  0  0  0  0
  1  2  1  0  0  0  0
  2  3  1  0  0  0  0
  2  4  1  0  0  0  0
  2  5  1  0  0  0  0
  5  6  2  0  0  0  0
  5  7  1  0  0  0  0
  7  8  1  0  0  0  0
  7  9  1  0  0  0  0
  9 10  1  0  0  0  0
  9 11  1  0  0  0  0
  9 22  1  0  0  0  0
 11 12  1  0  0  0  0
 11 13  1  0  0  0  0
 11 14  1  0  0  0  0
 14 15  1  0  0  0  0
 14 20  2  0  0  0  0
 15 16  2  0  0  0  0
 16 17  1  0  0  0  0
 16 18  1  0  0  0  0
 18 19  1  0  0  0  0
 18 20  1  0  0  0  0
 20 21  1  0  0  0  0
 22 23  2  0  0  0  0
 22 24  1  0  0  0  0
 24 25  1  0  0  0  0
 24 26  1  0  0  0  0
 26 27  1  0  0  0  0
 26 28  1  0  0  0  0
 26 29  1  0  0  0  0
M  END
$$$$

  -OEChem-04042215593D

 29 29  0     1  0  0  0  0  0999 V2000
   -2.3327   -4.6496    0.4643 H   0  0  0  0  0  0  0  0  0  0  0  0
   -2.5395   -3.6825   -0.0028 C   0  0  0  0  0  0  0  0  0  0  0  0
   -3.4452   -3.2627    0.4411 H   0  0  0  0  0  0  0  0  0  0  0  0
   -2.7025   -3.8372   -1.0722 H   0  0  0  0  0  0  0  0  0  0  0  0
   -1.3714   -2.7388    0.2120 C   0  0  0  0  0  0  0  0  0  0  0  0
   -0.4287   -3.0889    0.8986 O   0  0  0  0  0  0  0  0  0  0  0  0
   -1.4024   -1.4810   -0.3544 N   0  0  0  0  0  0  0  0  0  0  0  0
   -2.1318   -1.3506   -1.0534 H   0  0  0  0  0  0  0  0  0  0  0  0
   -0.2088   -0.6252   -0.5153 C   0  0  1  0  0  0  0  0  0  0  0  0
    0.5088   -1.1956   -1.1156 H   0  0  0  0  0  0  0  0  0  0  0  0
   -0.5392    0.6732   -1.2940 C   0  0  0  0  0  0  0  0  0  0  0  0
   -0.5582    1.5198   -0.6008 H   0  0  0  0  0  0  0  0  0  0  0  0
    0.2571    0.8694   -2.0179 H   0  0  0  0  0  0  0  0  0  0  0  0
   -1.8572    0.6346   -2.0145 C   0  0  0  0  0  0  0  0  0  0  0  0
   -2.0859   -0.0746   -3.1852 N   0  0  0  0  0  0  0  0  0  0  0  0
   -3.3191    0.1865   -3.5487 C   0  0  0  0  0  0  0  0  0  0  0  0
   -3.8019   -0.2085   -4.4382 H   0  0  0  0  0  0  0  0  0  0  0  0
   -3.9094    1.0340   -2.6301 N   0  0  0  0  0  0  0  0  0  0  0  0
   -4.8542    1.4093   -2.6996 H   0  0  0  0  0  0  0  0  0  0  0  0
   -2.9781    1.3305   -1.6570 C   0  0  0  0  0  0  0  0  0  0  0  0
   -3.0857    1.9900   -0.8002 H   0  0  0  0  0  0  0  0  0  0  0  0
    0.5108   -0.2585    0.8026 C   0  0  0  0  0  0  0  0  0  0  0  0
    1.7173   -0.0494    0.7947 O   0  0  0  0  0  0  0  0  0  0  0  0
   -0.2329    0.1434    1.8981 N   0  0  0  0  0  0  0  0  0  0  0  0
   -1.1976   -0.1725    1.9048 H   0  0  0  0  0  0  0  0  0  0  0  0
    0.3813    0.5206    3.1646 C   0  0  0  0  0  0  0  0  0  0  0  0
    1.0555    1.3724    3.0266 H   0  0  0  0  0  0  0  0  0  0  0  0
   -0.3885    0.8059    3.8876 H   0  0  0  0  0  0  0  0  0  0  0  0
    0.9531   -0.3177    3.5762 H   0  0  0  0  0  0  0  0  0  0  0  0
  1  2  1  0  0  0  0
  2  3  1  0  0  0  0
  2  4  1  0  0  0  0
  2  5  1  0  0  0  0
  5  6  2  0  0  0  0
  5  7  1  0  0  0  0
  7  8  1  0  0  0  0
  7  9  1  0  0  0  0
  9 10  1  0  0  0  0
  9 11  1  0  0  0  0
  9 22  1  0  0  0  0
 11 12  1  0  0  0  0
 11 13  1  0  0  0  0
 11 14  1  0  0  0  0
 14 15  1  0  0  0  0
 14 20  2  0  0  0  0
 15 16  2  0  0  0  0
 16 17  1  0  0  0  0
 16 18  1  0  0  0  0
 18 19  1  0  0  0  0
 18 20  1  0  0  0  0
 20 21  1  0  0  0  0
 22 23  2  0  0  0  0
 22 24  1  0  0  0  0
 24 25  1  0  0  0  0
 24 26  1  0  0  0  0
 26 27  1  0  0  0  0
 26 28  1  0  0  0  0
 26 29  1  0  0  0  0
M  END
$$$$

  -OEChem-04042215593D

 29 29  0     1  0  0  0  0  0999 V2000
   -2.3399   -4.6426    0.4482 H   0  0  0  0  0  0  0  0  0  0  0  0
   -2.5413   -3.6750   -0.0201 C   0  0  0  0  0  0  0  0  0  0  0  0
   -3.4575   -3.2598    0.4062 H   0  0  0  0  0  0  0  0  0  0  0  0
   -2.6822   -3.8268   -1.0932 H   0  0  0  0  0  0  0  0  0  0  0  0
   -1.3818   -2.7271    0.2201 C   0  0  0  0  0  0  0  0  0  0  0  0
   -0.4499   -3.0755    0.9226 O   0  0  0  0  0  0  0  0  0  0  0  0
   -1.4062   -1.4711   -0.3493 N   0  0  0  0  0  0  0  0  0  0  0  0
   -2.1165   -1.3515   -1.0724 H   0  0  0  0  0  0  0  0  0  0  0  0
   -0.2095   -0.6226   -0.5118 C   0  0  1  0  0  0  0  0  0  0  0  0
    0.5049   -1.1968   -1.1123 H   0  0  0  0  0  0  0  0  0  0  0  0
   -0.5389    0.6769   -1.2905 C   0  0  0  0  0  0  0  0  0  0  0  0
   -0.5433    1.5276   -0.6020 H   0  0  0  0  0  0  0  0  0  0  0  0
    0.2558    0.8583   -2.0201 H   0  0  0  0  0  0  0  0  0  0  0  0
   -1.8594    0.6514   -2.0113 C   0  0  0  0  0  0  0  0  0  0  0  0
   -2.1998   -0.2641   -3.0007 N   0  0  0  0  0  0  0  0  0  0  0  0
   -3.3984    0.0660   -3.4209 C   0  0  0  0  0  0  0  0  0  0  0  0
   -3.9460   -0.4497   -4.2050 H   0  0  0  0  0  0  0  0  0  0  0  0
   -3.8599    1.1595   -2.7130 N   0  0  0  0  0  0  0  0  0  0  0  0
   -4.7551    1.6221   -2.8641 H   0  0  0  0  0  0  0  0  0  0  0  0
   -2.8811    1.5384   -1.8184 C   0  0  0  0  0  0  0  0  0  0  0  0
   -2.8936    2.3707   -1.1201 H   0  0  0  0  0  0  0  0  0  0  0  0
    0.5109   -0.2564    0.8056 C   0  0  0  0  0  0  0  0  0  0  0  0
    1.7186   -0.0529    0.7982 O   0  0  0  0  0  0  0  0  0  0  0  0
   -0.2325    0.1517    1.8991 N   0  0  0  0  0  0  0  0  0  0  0  0
   -1.2003   -0.1551    1.9026 H   0  0  0  0  0  0  0  0  0  0  0  0
    0.3805    0.5260    3.1669 C   0  0  0  0  0  0  0  0  0  0  0  0
    1.0510    1.3810    3.0315 H   0  0  0  0  0  0  0  0  0  0  0  0
   -0.3902    0.8050    3.8915 H   0  0  0  0  0  0  0  0  0  0  0  0
    0.9555   -0.3121    3.5748 H   0  0  0  0  0  0  0  0  0  0  0  0
  1  2  1  0  0  0  0
  2  3  1  0  0  0  0
  2  4  1  0  0  0  0
  2  5  1  0  0  0  0
  5  6  2  0  0  0  0
  5  7  1  0  0  0  0
  7  8  1  0  0  0  0
  7  9  1  0  0  0  0
  9 10  1  0  0  0  0
  9 11  1  0  0  0  0
  9 22  1  0  0  0  0
 11 12  1  0  0  0  0
 11 13  1  0  0  0  0
 11 14  1  0  0  0  0
 14 15  1  0  0  0  0
 14 20  2  0  0  0  0
 15 16  2  0  0  0  0
 16 17  1  0  0  0  0
 16 18  1  0  0  0  0
 18 19  1  0  0  0  0
 18 20  1  0  0  0  0
 20 21  1  0  0  0  0
 22 23  2  0  0  0  0
 22 24  1  0  0  0  0
 24 25  1  0  0  0  0
 24 26  1  0  0  0  0
 26 27  1  0  0  0  0
 26 28  1  0  0  0  0
 26 29  1  0  0  0  0
M  END
$$$$

  -OEChem-04042215593D

 29 29  0     1  0  0  0  0  0999 V2000
   -2.3148   -4.6610    0.4588 H   0  0  0  0  0  0  0  0  0  0  0  0
   -2.5250   -3.6921   -0.0028 C   0  0  0  0  0  0  0  0  0  0  0  0
   -3.4388   -3.2831    0.4343 H   0  0  0  0  0  0  0  0  0  0  0  0
   -2.6756   -3.8391   -1.0752 H   0  0  0  0  0  0  0  0  0  0  0  0
   -1.3676   -2.7395    0.2302 C   0  0  0  0  0  0  0  0  0  0  0  0
   -0.4303   -3.0835    0.9282 O   0  0  0  0  0  0  0  0  0  0  0  0
   -1.3993   -1.4849   -0.3411 N   0  0  0  0  0  0  0  0  0  0  0  0
   -2.1133   -1.3675   -1.0630 H   0  0  0  0  0  0  0  0  0  0  0  0
   -0.2127   -0.6260   -0.5074 C   0  0  1  0  0  0  0  0  0  0  0  0
    0.5064   -1.1980   -1.1043 H   0  0  0  0  0  0  0  0  0  0  0  0
   -0.5495    0.6684   -1.2942 C   0  0  0  0  0  0  0  0  0  0  0  0
   -0.5507    1.5227   -0.6102 H   0  0  0  0  0  0  0  0  0  0  0  0
    0.2511    0.8416   -2.0194 H   0  0  0  0  0  0  0  0  0  0  0  0
   -1.8646    0.6633   -2.0335 C   0  0  0  0  0  0  0  0  0  0  0  0
   -2.3523   -0.3810   -2.8170 N   0  0  0  0  0  0  0  0  0  0  0  0
   -3.5022    0.0204   -3.3062 C   0  0  0  0  0  0  0  0  0  0  0  0
   -4.1331   -0.5636   -3.9706 H   0  0  0  0  0  0  0  0  0  0  0  0
   -3.7921    1.2893   -2.8437 N   0  0  0  0  0  0  0  0  0  0  0  0
   -4.6209    1.8292   -3.0882 H   0  0  0  0  0  0  0  0  0  0  0  0
   -2.7538    1.7015   -2.0356 C   0  0  0  0  0  0  0  0  0  0  0  0
   -2.6421    2.6503   -1.5180 H   0  0  0  0  0  0  0  0  0  0  0  0
    0.5051   -0.2504    0.8084 C   0  0  0  0  0  0  0  0  0  0  0  0
    1.7103   -0.0329    0.7983 O   0  0  0  0  0  0  0  0  0  0  0  0
   -0.2407    0.1527    1.9019 N   0  0  0  0  0  0  0  0  0  0  0  0
   -1.2074   -0.1584    1.9046 H   0  0  0  0  0  0  0  0  0  0  0  0
    0.3695    0.5338    3.1692 C   0  0  0  0  0  0  0  0  0  0  0  0
    1.0351    1.3923    3.0320 H   0  0  0  0  0  0  0  0  0  0  0  0
   -0.4032    0.8106    3.8926 H   0  0  0  0  0  0  0  0  0  0  0  0
    0.9487   -0.2998    3.5801 H   0  0  0  0  0  0  0  0  0  0  0  0
  1  2  1  0  0  0  0
  2  3  1  0  0  0  0
  2  4  1  0  0  0  0
  2  5  1  0  0  0  0
  5  6  2  0  0  0  0
  5  7  1  0  0  0  0
  7  8  1  0  0  0  0
  7  9  1  0  0  0  0
  9 10  1  0  0  0  0
  9 11  1  0  0  0  0
  9 22  1  0  0  0  0
 11 12  1  0  0  0  0
 11 13  1  0  0  0  0
 11 14  1  0  0  0  0
 14 15  1  0  0  0  0
 14 20  2  0  0  0  0
 15 16  2  0  0  0  0
 16 17  1  0  0  0  0
 16 18  1  0  0  0  0
 18 19  1  0  0  0  0
 18 20  1  0  0  0  0
 20 21  1  0  0  0  0
 22 23  2  0  0  0  0
 22 24  1  0  0  0  0
 24 25  1  0  0  0  0
 24 26  1  0  0  0  0
 26 27  1  0  0  0  0
 26 28  1  0  0  0  0
 26 29  1  0  0  0  0
M  END
$$$$

  -OEChem-04042215593D

 29 29  0     1  0  0  0  0  0999 V2000
   -2.2484   -4.7012    0.5014 H   0  0  0  0  0  0  0  0  0  0  0  0
   -2.4852   -3.7331    0.0512 C   0  0  0  0  0  0  0  0  0  0  0  0
   -3.3871   -3.3353    0.5223 H   0  0  0  0  0  0  0  0  0  0  0  0
   -2.6725   -3.8777   -1.0157 H   0  0  0  0  0  0  0  0  0  0  0  0
   -1.3305   -2.7693    0.2469 C   0  0  0  0  0  0  0  0  0  0  0  0
   -0.3694   -3.1026    0.9175 O   0  0  0  0  0  0  0  0  0  0  0  0
   -1.3886   -1.5171   -0.3270 N   0  0  0  0  0  0  0  0  0  0  0  0
   -2.1315   -1.3956   -1.0194 H   0  0  0  0  0  0  0  0  0  0  0  0
   -0.2244   -0.6334   -0.5058 C   0  0  1  0  0  0  0  0  0  0  0  0
    0.5030   -1.1977   -1.0996 H   0  0  0  0  0  0  0  0  0  0  0  0
   -0.5758    0.6517   -1.3046 C   0  0  0  0  0  0  0  0  0  0  0  0
   -0.5830    1.5082   -0.6229 H   0  0  0  0  0  0  0  0  0  0  0  0
    0.2319    0.8248   -2.0217 H   0  0  0  0  0  0  0  0  0  0  0  0
   -1.8821    0.6683   -2.0665 C   0  0  0  0  0  0  0  0  0  0  0  0
   -2.5449   -0.4206   -2.6355 N   0  0  0  0  0  0  0  0  0  0  0  0
   -3.6266    0.0519   -3.2099 C   0  0  0  0  0  0  0  0  0  0  0  0
   -4.3540   -0.5455   -3.7524 H   0  0  0  0  0  0  0  0  0  0  0  0
   -3.7044    1.4164   -3.0157 N   0  0  0  0  0  0  0  0  0  0  0  0
   -4.4457    2.0201   -3.3682 H   0  0  0  0  0  0  0  0  0  0  0  0
   -2.6006    1.8104   -2.2900 C   0  0  0  0  0  0  0  0  0  0  0  0
   -2.3355    2.8132   -1.9667 H   0  0  0  0  0  0  0  0  0  0  0  0
    0.4920   -0.2400    0.8055 C   0  0  0  0  0  0  0  0  0  0  0  0
    1.6929    0.0010    0.7891 O   0  0  0  0  0  0  0  0  0  0  0  0
   -0.2561    0.1482    1.9028 N   0  0  0  0  0  0  0  0  0  0  0  0
   -1.2185   -0.1755    1.9069 H   0  0  0  0  0  0  0  0  0  0  0  0
    0.3516    0.5376    3.1688 C   0  0  0  0  0  0  0  0  0  0  0  0
    1.0131    1.3990    3.0290 H   0  0  0  0  0  0  0  0  0  0  0  0
   -0.4232    0.8132    3.8906 H   0  0  0  0  0  0  0  0  0  0  0  0
    0.9353   -0.2913    3.5828 H   0  0  0  0  0  0  0  0  0  0  0  0
  1  2  1  0  0  0  0
  2  3  1  0  0  0  0
  2  4  1  0  0  0  0
  2  5  1  0  0  0  0
  5  6  2  0  0  0  0
  5  7  1  0  0  0  0
  7  8  1  0  0  0  0
  7  9  1  0  0  0  0
  9 10  1  0  0  0  0
  9 11  1  0  0  0  0
  9 22  1  0  0  0  0
 11 12  1  0  0  0  0
 11 13  1  0  0  0  0
 11 14  1  0  0  0  0
 14 15  1  0  0  0  0
 14 20  2  0  0  0  0
 15 16  2  0  0  0  0
 16 17  1  0  0  0  0
 16 18  1  0  0  0  0
 18 19  1  0  0  0  0
 18 20  1  0  0  0  0
 20 21  1  0  0  0  0
 22 23  2  0  0  0  0
 22 24  1  0  0  0  0
 24 25  1  0  0  0  0
 24 26  1  0  0  0  0
 26 27  1  0  0  0  0
 26 28  1  0  0  0  0
 26 29  1  0  0  0  0
M  END
$$$$

  -OEChem-04042215593D

 29 29  0     1  0  0  0  0  0999 V2000
   -2.2029   -4.7262    0.5542 H   0  0  0  0  0  0  0  0  0  0  0  0
   -2.4559   -3.7597    0.1094 C   0  0  0  0  0  0  0  0  0  0  0  0
   -3.3367   -3.3572    0.6150 H   0  0  0  0  0  0  0  0  0  0  0  0
   -2.6875   -3.9087   -0.9482 H   0  0  0  0  0  0  0  0  0  0  0  0
   -1.2924   -2.7974    0.2527 C   0  0  0  0  0  0  0  0  0  0  0  0
   -0.3003   -3.1317    0.8761 O   0  0  0  0  0  0  0  0  0  0  0  0
   -1.3761   -1.5451   -0.3170 N   0  0  0  0  0  0  0  0  0  0  0  0
   -2.1625   -1.4053   -0.9558 H   0  0  0  0  0  0  0  0  0  0  0  0
   -0.2355   -0.6358   -0.5077 C   0  0  1  0  0  0  0  0  0  0  0  0
    0.4979   -1.1895   -1.1044 H   0  0  0  0  0  0  0  0  0  0  0  0
   -0.6060    0.6415   -1.3122 C   0  0  0  0  0  0  0  0  0  0  0  0
   -0.6306    1.4935   -0.6254 H   0  0  0  0  0  0  0  0  0  0  0  0
    0.2076    0.8305   -2.0188 H   0  0  0  0  0  0  0  0  0  0  0  0
   -1.9067    0.6700   -2.0877 C   0  0  0  0  0  0  0  0  0  0  0  0
   -2.7406   -0.3943   -2.4395 N   0  0  0  0  0  0  0  0  0  0  0  0
   -3.7459    0.1144   -3.1131 C   0  0  0  0  0  0  0  0  0  0  0  0
   -4.5665   -0.4596   -3.5342 H   0  0  0  0  0  0  0  0  0  0  0  0
   -3.6064    1.4844   -3.2011 N   0  0  0  0  0  0  0  0  0  0  0  0
   -4.2532    2.1133   -3.6748 H   0  0  0  0  0  0  0  0  0  0  0  0
   -2.4434    1.8395   -2.5523 C   0  0  0  0  0  0  0  0  0  0  0  0
   -2.0218    2.8336   -2.4323 H   0  0  0  0  0  0  0  0  0  0  0  0
    0.4842   -0.2302    0.7979 C   0  0  0  0  0  0  0  0  0  0  0  0
    1.6801    0.0339    0.7726 O   0  0  0  0  0  0  0  0  0  0  0  0
   -0.2627    0.1379    1.9029 N   0  0  0  0  0  0  0  0  0  0  0  0
   -1.2219   -0.1953    1.9098 H   0  0  0  0  0  0  0  0  0  0  0  0
    0.3453    0.5353    3.1661 C   0  0  0  0  0  0  0  0  0  0  0  0
    0.9871    1.4112    3.0253 H   0  0  0  0  0  0  0  0  0  0  0  0
   -0.4299    0.7914    3.8945 H   0  0  0  0  0  0  0  0  0  0  0  0
    0.9491   -0.2829    3.5727 H   0  0  0  0  0  0  0  0  0  0  0  0
  1  2  1  0  0  0  0
  2  3  1  0  0  0  0
  2  4  1  0  0  0  0
  2  5  1  0  0  0  0
  5  6  2  0  0  0  0
  5  7  1  0  0  0  0
  7  8  1  0  0  0  0
  7  9  1  0  0  0  0
  9 10  1  0  0  0  0
  9 11  1  0  0  0  0
  9 22  1  0  0  0  0
 11 12  1  0  0  0  0
 11 13  1  0  0  0  0
 11 14  1  0  0  0  0
 14 15  1  0  0  0  0
 14 20  2  0  0  0  0
 15 16  2  0  0  0  0
 16 17  1  0  0  0  0
 16 18  1  0  0  0  0
 18 19  1  0  0  0  0
 18 20  1  0  0  0  0
 20 21  1  0  0  0  0
 22 23  2  0  0  0  0
 22 24  1  0  0  0  0
 24 25  1  0  0  0  0
 24 26  1  0  0  0  0
 26 27  1  0  0  0  0
 26 28  1  0  0  0  0
 26 29  1  0  0  0  0
M  END
$$$$

  -OEChem-04042215593D

 29 29  0     1  0  0  0  0  0999 V2000
   -2.1833   -4.7326    0.5936 H   0  0  0  0  0  0  0  0  0  0  0  0
   -2.4476   -3.7656    0.1567 C   0  0  0  0  0  0  0  0  0  0  0  0
   -3.3010   -3.3533    0.6999 H   0  0  0  0  0  0  0  0  0  0  0  0
   -2.7282   -3.9167   -0.8886 H   0  0  0  0  0  0  0  0  0  0  0  0
   -1.2698   -2.8135    0.2426 C   0  0  0  0  0  0  0  0  0  0  0  0
   -0.2457   -3.1610    0.8044 O   0  0  0  0  0  0  0  0  0  0  0  0
   -1.3718   -1.5565   -0.3131 N   0  0  0  0  0  0  0  0  0  0  0  0
   -2.2038   -1.3828   -0.8822 H   0  0  0  0  0  0  0  0  0  0  0  0
   -0.2483   -0.6291   -0.5115 C   0  0  1  0  0  0  0  0  0  0  0  0
    0.4856   -1.1728   -1.1168 H   0  0  0  0  0  0  0  0  0  0  0  0
   -0.6326    0.6482   -1.3106 C   0  0  0  0  0  0  0  0  0  0  0  0
   -0.6776    1.4875   -0.6094 H   0  0  0  0  0  0  0  0  0  0  0  0
    0.1845    0.8626   -2.0060 H   0  0  0  0  0  0  0  0  0  0  0  0
   -1.9336    0.6849   -2.0874 C   0  0  0  0  0  0  0  0  0  0  0  0
   -2.9192   -0.2968   -2.2219 N   0  0  0  0  0  0  0  0  0  0  0  0
   -3.8472    0.1957   -3.0090 C   0  0  0  0  0  0  0  0  0  0  0  0
   -4.7503   -0.3279   -3.3104 H   0  0  0  0  0  0  0  0  0  0  0  0
   -3.5048    1.4759   -3.3926 N   0  0  0  0  0  0  0  0  0  0  0  0
   -4.0557    2.0745   -4.0060 H   0  0  0  0  0  0  0  0  0  0  0  0
   -2.2938    1.7873   -2.8130 C   0  0  0  0  0  0  0  0  0  0  0  0
   -1.7258    2.7087   -2.9067 H   0  0  0  0  0  0  0  0  0  0  0  0
    0.4812   -0.2267    0.7895 C   0  0  0  0  0  0  0  0  0  0  0  0
    1.6727    0.0549    0.7524 O   0  0  0  0  0  0  0  0  0  0  0  0
   -0.2565    0.1189    1.9078 N   0  0  0  0  0  0  0  0  0  0  0  0
   -1.2142   -0.2184    1.9206 H   0  0  0  0  0  0  0  0  0  0  0  0
    0.3587    0.5224    3.1656 C   0  0  0  0  0  0  0  0  0  0  0  0
    0.9910    1.4045    3.0197 H   0  0  0  0  0  0  0  0  0  0  0  0
   -0.4131    0.7709    3.9001 H   0  0  0  0  0  0  0  0  0  0  0  0
    0.9738   -0.2898    3.5668 H   0  0  0  0  0  0  0  0  0  0  0  0
  1  2  1  0  0  0  0
  2  3  1  0  0  0  0
  2  4  1  0  0  0  0
  2  5  1  0  0  0  0
  5  6  2  0  0  0  0
  5  7  1  0  0  0  0
  7  8  1  0  0  0  0
  7  9  1  0  0  0  0
  9 10  1  0  0  0  0
  9 11  1  0  0  0  0
  9 22  1  0  0  0  0
 11 12  1  0  0  0  0
 11 13  1  0  0  0  0
 11 14  1  0  0  0  0
 14 15  1  0  0  0  0
 14 20  2  0  0  0  0
 15 16  2  0  0  0  0
 16 17  1  0  0  0  0
 16 18  1  0  0  0  0
 18 19  1  0  0  0  0
 18 20  1  0  0  0  0
 20 21  1  0  0  0  0
 22 23  2  0  0  0  0
 22 24  1  0  0  0  0
 24 25  1  0  0  0  0
 24 26  1  0  0  0  0
 26 27  1  0  0  0  0
 26 28  1  0  0  0  0
 26 29  1  0  0  0  0
M  END
$$$$

  -OEChem-04042215593D

 29 29  0     1  0  0  0  0  0999 V2000
   -2.2031   -4.7102    0.6201 H   0  0  0  0  0  0  0  0  0  0  0  0
   -2.4646   -3.7415    0.1849 C   0  0  0  0  0  0  0  0  0  0  0  0
   -3.2877   -3.3078    0.7576 H   0  0  0  0  0  0  0  0  0  0  0  0
   -2.7891   -3.8951   -0.8471 H   0  0  0  0  0  0  0  0  0  0  0  0
   -1.2652   -2.8134    0.2162 C   0  0  0  0  0  0  0  0  0  0  0  0
   -0.2202   -3.1861    0.7201 O   0  0  0  0  0  0  0  0  0  0  0  0
   -1.3674   -1.5507   -0.3265 N   0  0  0  0  0  0  0  0  0  0  0  0
   -2.2351   -1.3331   -0.8226 H   0  0  0  0  0  0  0  0  0  0  0  0
   -0.2479   -0.6187   -0.5221 C   0  0  1  0  0  0  0  0  0  0  0  0
    0.4844   -1.1565   -1.1343 H   0  0  0  0  0  0  0  0  0  0  0  0
   -0.6336    0.6645   -1.3109 C   0  0  0  0  0  0  0  0  0  0  0  0
   -0.6937    1.4910   -0.5959 H   0  0  0  0  0  0  0  0  0  0  0  0
    0.1878    0.8996   -1.9947 H   0  0  0  0  0  0  0  0  0  0  0  0
   -1.9358    0.7068   -2.0854 C   0  0  0  0  0  0  0  0  0  0  0  0
   -3.0442   -0.1413   -2.0086 N   0  0  0  0  0  0  0  0  0  0  0  0
   -3.9170    0.2868   -2.8908 C   0  0  0  0  0  0  0  0  0  0  0  0
   -4.8886   -0.1632   -3.0747 H   0  0  0  0  0  0  0  0  0  0  0  0
   -3.4153    1.3908   -3.5486 N   0  0  0  0  0  0  0  0  0  0  0  0
   -3.8960    1.9082   -4.2828 H   0  0  0  0  0  0  0  0  0  0  0  0
   -2.1605    1.6563   -3.0445 C   0  0  0  0  0  0  0  0  0  0  0  0
   -1.4769    2.4484   -3.3379 H   0  0  0  0  0  0  0  0  0  0  0  0
    0.4854   -0.2280    0.7799 C   0  0  0  0  0  0  0  0  0  0  0  0
    1.6779    0.0496    0.7434 O   0  0  0  0  0  0  0  0  0  0  0  0
   -0.2486    0.1043    1.9045 N   0  0  0  0  0  0  0  0  0  0  0  0
   -1.2131   -0.2132    1.9111 H   0  0  0  0  0  0  0  0  0  0  0  0
    0.3691    0.4983    3.1637 C   0  0  0  0  0  0  0  0  0  0  0  0
    0.9829    1.3947    3.0270 H   0  0  0  0  0  0  0  0  0  0  0  0
   -0.4008    0.7192    3.9089 H   0  0  0  0  0  0  0  0  0  0  0  0
    1.0032   -0.3083    3.5462 H   0  0  0  0  0  0  0  0  0  0  0  0
  1  2  1  0  0  0  0
  2  3  1  0  0  0  0
  2  4  1  0  0  0  0
  2  5  1  0  0  0  0
  5  6  2  0  0  0  0
  5  7  1  0  0  0  0
  7  8  1  0  0  0  0
  7  9  1  0  0  0  0
  9 10  1  0  0  0  0
  9 11  1  0  0  0  0
  9 22  1  0  0  0  0
 11 12  1  0  0  0  0
 11 13  1  0  0  0  0
 11 14  1  0  0  0  0
 14 15  1  0  0  0  0
 14 20  2  0  0  0  0
 15 16  2  0  0  0  0
 16 17  1  0  0  0  0
 16 18  1  0  0  0  0
 18 19  1  0  0  0  0
 18 20  1  0  0  0  0
 20 21  1  0  0  0  0
 22 23  2  0  0  0  0
 22 24  1  0  0  0  0
 24 25  1  0  0  0  0
 24 26  1  0  0  0  0
 26 27  1  0  0  0  0
 26 28  1  0  0  0  0
 26 29  1  0  0  0  0
M  END
$$$$

  -OEChem-04042215593D

 29 29  0     1  0  0  0  0  0999 V2000
   -2.2594   -4.6648    0.6164 H   0  0  0  0  0  0  0  0  0  0  0  0
   -2.5038   -3.6904    0.1842 C   0  0  0  0  0  0  0  0  0  0  0  0
   -3.2918   -3.2263    0.7819 H   0  0  0  0  0  0  0  0  0  0  0  0
   -2.8685   -3.8387   -0.8351 H   0  0  0  0  0  0  0  0  0  0  0  0
   -1.2741   -2.8023    0.1690 C   0  0  0  0  0  0  0  0  0  0  0  0
   -0.2213   -3.2120    0.6258 O   0  0  0  0  0  0  0  0  0  0  0  0
   -1.3571   -1.5325   -0.3594 N   0  0  0  0  0  0  0  0  0  0  0  0
   -2.2491   -1.2594   -0.7789 H   0  0  0  0  0  0  0  0  0  0  0  0
   -0.2294   -0.6067   -0.5370 C   0  0  1  0  0  0  0  0  0  0  0  0
    0.5039   -1.1413   -1.1508 H   0  0  0  0  0  0  0  0  0  0  0  0
   -0.6066    0.6856   -1.3138 C   0  0  0  0  0  0  0  0  0  0  0  0
   -0.6753    1.5034   -0.5899 H   0  0  0  0  0  0  0  0  0  0  0  0
    0.2190    0.9314   -1.9886 H   0  0  0  0  0  0  0  0  0  0  0  0
   -1.9082    0.7225   -2.0876 C   0  0  0  0  0  0  0  0  0  0  0  0
   -3.1025    0.0496   -1.8159 N   0  0  0  0  0  0  0  0  0  0  0  0
   -3.9496    0.3779   -2.7635 C   0  0  0  0  0  0  0  0  0  0  0  0
   -4.9728    0.0196   -2.8347 H   0  0  0  0  0  0  0  0  0  0  0  0
   -3.3456    1.2406   -3.6549 N   0  0  0  0  0  0  0  0  0  0  0  0
   -3.7892    1.6407   -4.4802 H   0  0  0  0  0  0  0  0  0  0  0  0
   -2.0520    1.4578   -3.2322 C   0  0  0  0  0  0  0  0  0  0  0  0
   -1.2929    2.0804   -3.6976 H   0  0  0  0  0  0  0  0  0  0  0  0
    0.4966   -0.2368    0.7746 C   0  0  0  0  0  0  0  0  0  0  0  0
    1.6922    0.0288    0.7519 O   0  0  0  0  0  0  0  0  0  0  0  0
   -0.2428    0.0881    1.8976 N   0  0  0  0  0  0  0  0  0  0  0  0
   -1.2151   -0.2047    1.8891 H   0  0  0  0  0  0  0  0  0  0  0  0
    0.3655    0.4741    3.1640 C   0  0  0  0  0  0  0  0  0  0  0  0
    0.9791    1.3723    3.0373 H   0  0  0  0  0  0  0  0  0  0  0  0
   -0.4101    0.6888    3.9052 H   0  0  0  0  0  0  0  0  0  0  0  0
    0.9978   -0.3343    3.5458 H   0  0  0  0  0  0  0  0  0  0  0  0
  1  2  1  0  0  0  0
  2  3  1  0  0  0  0
  2  4  1  0  0  0  0
  2  5  1  0  0  0  0
  5  6  2  0  0  0  0
  5  7  1  0  0  0  0
  7  8  1  0  0  0  0
  7  9  1  0  0  0  0
  9 10  1  0  0  0  0
  9 11  1  0  0  0  0
  9 22  1  0  0  0  0
 11 12  1  0  0  0  0
 11 13  1  0  0  0  0
 11 14  1  0  0  0  0
 14 15  1  0  0  0  0
 14 20  2  0  0  0  0
 15 16  2  0  0  0  0
 16 17  1  0  0  0  0
 16 18  1  0  0  0  0
 18 19  1  0  0  0  0
 18 20  1  0  0  0  0
 20 21  1  0  0  0  0
 22 23  2  0  0  0  0
 22 24  1  0  0  0  0
 24 25  1  0  0  0  0
 24 26  1  0  0  0  0
 26 27  1  0  0  0  0
 26 28  1  0  0  0  0
 26 29  1  0  0  0  0
M  END
$$$$

  -OEChem-04042215593D

 29 29  0     1  0  0  0  0  0999 V2000
   -2.3199   -4.6115    0.5919 H   0  0  0  0  0  0  0  0  0  0  0  0
   -2.5427   -3.6298    0.1647 C   0  0  0  0  0  0  0  0  0  0  0  0
   -3.2968   -3.1384    0.7838 H   0  0  0  0  0  0  0  0  0  0  0  0
   -2.9411   -3.7665   -0.8434 H   0  0  0  0  0  0  0  0  0  0  0  0
   -1.2843   -2.7845    0.1124 C   0  0  0  0  0  0  0  0  0  0  0  0
   -0.2303   -3.2328    0.5282 O   0  0  0  0  0  0  0  0  0  0  0  0
   -1.3416   -1.5092   -0.4060 N   0  0  0  0  0  0  0  0  0  0  0  0
   -2.2460   -1.1827   -0.7547 H   0  0  0  0  0  0  0  0  0  0  0  0
   -0.1993   -0.5952   -0.5548 C   0  0  1  0  0  0  0  0  0  0  0  0
    0.5387   -1.1282   -1.1642 H   0  0  0  0  0  0  0  0  0  0  0  0
   -0.5626    0.7060   -1.3199 C   0  0  0  0  0  0  0  0  0  0  0  0
   -0.6374    1.5221   -0.5946 H   0  0  0  0  0  0  0  0  0  0  0  0
    0.2650    0.9545   -1.9910 H   0  0  0  0  0  0  0  0  0  0  0  0
   -1.8611    0.7200   -2.0938 C   0  0  0  0  0  0  0  0  0  0  0  0
   -3.1054    0.2584   -1.6579 N   0  0  0  0  0  0  0  0  0  0  0  0
   -3.9513    0.4715   -2.6393 C   0  0  0  0  0  0  0  0  0  0  0  0
   -5.0097    0.2270   -2.6126 H   0  0  0  0  0  0  0  0  0  0  0  0
   -3.2957    1.0467   -3.7094 N   0  0  0  0  0  0  0  0  0  0  0  0
   -3.7293    1.3110   -4.5925 H   0  0  0  0  0  0  0  0  0  0  0  0
   -1.9700    1.2053   -3.3673 C   0  0  0  0  0  0  0  0  0  0  0  0
   -1.1695    1.6285   -3.9680 H   0  0  0  0  0  0  0  0  0  0  0  0
    0.5069   -0.2447    0.7726 C   0  0  0  0  0  0  0  0  0  0  0  0
    1.7085   -0.0074    0.7772 O   0  0  0  0  0  0  0  0  0  0  0  0
   -0.2477    0.0805    1.8857 N   0  0  0  0  0  0  0  0  0  0  0  0
   -1.2329   -0.1626    1.8474 H   0  0  0  0  0  0  0  0  0  0  0  0
    0.3397    0.4545    3.1655 C   0  0  0  0  0  0  0  0  0  0  0  0
    0.9812    1.3347    3.0514 H   0  0  0  0  0  0  0  0  0  0  0  0
   -0.4472    0.6936    3.8868 H   0  0  0  0  0  0  0  0  0  0  0  0
    0.9396   -0.3698    3.5652 H   0  0  0  0  0  0  0  0  0  0  0  0
  1  2  1  0  0  0  0
  2  3  1  0  0  0  0
  2  4  1  0  0  0  0
  2  5  1  0  0  0  0
  5  6  2  0  0  0  0
  5  7  1  0  0  0  0
  7  8  1  0  0  0  0
  7  9  1  0  0  0  0
  9 10  1  0  0  0  0
  9 11  1  0  0  0  0
  9 22  1  0  0  0  0
 11 12  1  0  0  0  0
 11 13  1  0  0  0  0
 11 14  1  0  0  0  0
 14 15  1  0  0  0  0
 14 20  2  0  0  0  0
 15 16  2  0  0  0  0
 16 17  1  0  0  0  0
 16 18  1  0  0  0  0
 18 19  1  0  0  0  0
 18 20  1  0  0  0  0
 20 21  1  0  0  0  0
 22 23  2  0  0  0  0
 22 24  1  0  0  0  0
 24 25  1  0  0  0  0
 24 26  1  0  0  0  0
 26 27  1  0  0  0  0
 26 28  1  0  0  0  0
 26 29  1  0  0  0  0
M  END
$$$$

  -OEChem-04042215593D

 29 29  0     1  0  0  0  0  0999 V2000
   -2.3733   -4.5607    0.5637 H   0  0  0  0  0  0  0  0  0  0  0  0
   -2.5774   -3.5744    0.1377 C   0  0  0  0  0  0  0  0  0  0  0  0
   -3.3044   -3.0604    0.7708 H   0  0  0  0  0  0  0  0  0  0  0  0
   -3.0002   -3.7025   -0.8616 H   0  0  0  0  0  0  0  0  0  0  0  0
   -1.2966   -2.7659    0.0571 C   0  0  0  0  0  0  0  0  0  0  0  0
   -0.2463   -3.2488    0.4417 O   0  0  0  0  0  0  0  0  0  0  0  0
   -1.3271   -1.4866   -0.4539 N   0  0  0  0  0  0  0  0  0  0  0  0
   -2.2346   -1.1132   -0.7421 H   0  0  0  0  0  0  0  0  0  0  0  0
   -0.1670   -0.5880   -0.5690 C   0  0  1  0  0  0  0  0  0  0  0  0
    0.5776   -1.1213   -1.1703 H   0  0  0  0  0  0  0  0  0  0  0  0
   -0.5166    0.7190   -1.3265 C   0  0  0  0  0  0  0  0  0  0  0  0
   -0.5982    1.5392   -0.6063 H   0  0  0  0  0  0  0  0  0  0  0  0
    0.3111    0.9647   -1.9984 H   0  0  0  0  0  0  0  0  0  0  0  0
   -1.8099    0.6965   -2.1012 C   0  0  0  0  0  0  0  0  0  0  0  0
   -3.0740    0.4798   -1.5520 N   0  0  0  0  0  0  0  0  0  0  0  0
   -3.9308    0.5775   -2.5425 C   0  0  0  0  0  0  0  0  0  0  0  0
   -5.0073    0.4673   -2.4462 H   0  0  0  0  0  0  0  0  0  0  0  0
   -3.2614    0.8353   -3.7229 N   0  0  0  0  0  0  0  0  0  0  0  0
   -3.7010    0.9586   -4.6337 H   0  0  0  0  0  0  0  0  0  0  0  0
   -1.9133    0.9158   -3.4458 C   0  0  0  0  0  0  0  0  0  0  0  0
   -1.0967    1.1182   -4.1333 H   0  0  0  0  0  0  0  0  0  0  0  0
    0.5145   -0.2562    0.7756 C   0  0  0  0  0  0  0  0  0  0  0  0
    1.7212   -0.0509    0.8116 O   0  0  0  0  0  0  0  0  0  0  0  0
   -0.2584    0.0741    1.8745 N   0  0  0  0  0  0  0  0  0  0  0  0
   -1.2528   -0.1194    1.8055 H   0  0  0  0  0  0  0  0  0  0  0  0
    0.3053    0.4501    3.1641 C   0  0  0  0  0  0  0  0  0  0  0  0
    0.9395    1.3367    3.0616 H   0  0  0  0  0  0  0  0  0  0  0  0
   -0.4948    0.6790    3.8743 H   0  0  0  0  0  0  0  0  0  0  0  0
    0.9074   -0.3694    3.5700 H   0  0  0  0  0  0  0  0  0  0  0  0
  1  2  1  0  0  0  0
  2  3  1  0  0  0  0
  2  4  1  0  0  0  0
  2  5  1  0  0  0  0
  5  6  2  0  0  0  0
  5  7  1  0  0  0  0
  7  8  1  0  0  0  0
  7  9  1  0  0  0  0
  9 10  1  0  0  0  0
  9 11  1  0  0  0  0
  9 22  1  0  0  0  0
 11 12  1  0  0  0  0
 11 13  1  0  0  0  0
 11 14  1  0  0  0  0
 14 15  1  0  0  0  0
 14 20  2  0  0  0  0
 15 16  2  0  0  0  0
 16 17  1  0  0  0  0
 16 18  1  0  0  0  0
 18 19  1  0  0  0  0
 18 20  1  0  0  0  0
 20 21  1  0  0  0  0
 22 23  2  0  0  0  0
 22 24  1  0  0  0  0
 24 25  1  0  0  0  0
 24 26  1  0  0  0  0
 26 27  1  0  0  0  0
 26 28  1  0  0  0  0
 26 29  1  0  0  0  0
M  END
$$$$

  -OEChem-04042215593D

 29 29  0     1  0  0  0  0  0999 V2000
   -2.4100   -4.5259    0.5515 H   0  0  0  0  0  0  0  0  0  0  0  0
   -2.5981   -3.5359    0.1263 C   0  0  0  0  0  0  0  0  0  0  0  0
   -3.3009   -3.0031    0.7711 H   0  0  0  0  0  0  0  0  0  0  0  0
   -3.0421   -3.6570   -0.8647 H   0  0  0  0  0  0  0  0  0  0  0  0
   -1.3004   -2.7577    0.0197 C   0  0  0  0  0  0  0  0  0  0  0  0
   -0.2538   -3.2639    0.3833 O   0  0  0  0  0  0  0  0  0  0  0  0
   -1.3130   -1.4771   -0.4897 N   0  0  0  0  0  0  0  0  0  0  0  0
   -2.2202   -1.0777   -0.7380 H   0  0  0  0  0  0  0  0  0  0  0  0
   -0.1408   -0.5882   -0.5814 C   0  0  1  0  0  0  0  0  0  0  0  0
    0.6104   -1.1206   -1.1752 H   0  0  0  0  0  0  0  0  0  0  0  0
   -0.4841    0.7216   -1.3331 C   0  0  0  0  0  0  0  0  0  0  0  0
   -0.5687    1.5479   -0.6204 H   0  0  0  0  0  0  0  0  0  0  0  0
    0.3406    0.9638   -2.0098 H   0  0  0  0  0  0  0  0  0  0  0  0
   -1.7734    0.6630   -2.1048 C   0  0  0  0  0  0  0  0  0  0  0  0
   -3.0335    0.7174   -1.5154 N   0  0  0  0  0  0  0  0  0  0  0  0
   -3.9019    0.7089   -2.5003 C   0  0  0  0  0  0  0  0  0  0  0  0
   -4.9804    0.7513   -2.3771 H   0  0  0  0  0  0  0  0  0  0  0  0
   -3.2420    0.6341   -3.7122 N   0  0  0  0  0  0  0  0  0  0  0  0
   -3.6908    0.6281   -4.6270 H   0  0  0  0  0  0  0  0  0  0  0  0
   -1.8856    0.6140   -3.4651 C   0  0  0  0  0  0  0  0  0  0  0  0
   -1.0700    0.5829   -4.1825 H   0  0  0  0  0  0  0  0  0  0  0  0
    0.5197   -0.2648    0.7761 C   0  0  0  0  0  0  0  0  0  0  0  0
    1.7284   -0.0790    0.8372 O   0  0  0  0  0  0  0  0  0  0  0  0
   -0.2695    0.0713    1.8617 N   0  0  0  0  0  0  0  0  0  0  0  0
   -1.2681   -0.0847    1.7667 H   0  0  0  0  0  0  0  0  0  0  0  0
    0.2713    0.4511    3.1599 C   0  0  0  0  0  0  0  0  0  0  0  0
    0.8817    1.3558    3.0714 H   0  0  0  0  0  0  0  0  0  0  0  0
   -0.5419    0.6510    3.8641 H   0  0  0  0  0  0  0  0  0  0  0  0
    0.8915   -0.3550    3.5658 H   0  0  0  0  0  0  0  0  0  0  0  0
  1  2  1  0  0  0  0
  2  3  1  0  0  0  0
  2  4  1  0  0  0  0
  2  5  1  0  0  0  0
  5  6  2  0  0  0  0
  5  7  1  0  0  0  0
  7  8  1  0  0  0  0
  7  9  1  0  0  0  0
  9 10  1  0  0  0  0
  9 11  1  0  0  0  0
  9 22  1  0  0  0  0
 11 12  1  0  0  0  0
 11 13  1  0  0  0  0
 11 14  1  0  0  0  0
 14 15  1  0  0  0  0
 14 20  2  0  0  0  0
 15 16  2  0  0  0  0
 16 17  1  0  0  0  0
 16 18  1  0  0  0  0
 18 19  1  0  0  0  0
 18 20  1  0  0  0  0
 20 21  1  0  0  0  0
 22 23  2  0  0  0  0
 22 24  1  0  0  0  0
 24 25  1  0  0  0  0
 24 26  1  0  0  0  0
 26 27  1  0  0  0  0
 26 28  1  0  0  0  0
 26 29  1  0  0  0  0
M  END
$$$$

  -OEChem-04042215593D

 29 29  0     1  0  0  0  0  0999 V2000
   -2.3985   -4.5303    0.5507 H   0  0  0  0  0  0  0  0  0  0  0  0
   -2.5942   -3.5396    0.1306 C   0  0  0  0  0  0  0  0  0  0  0  0
   -3.2943   -3.0126    0.7831 H   0  0  0  0  0  0  0  0  0  0  0  0
   -3.0451   -3.6589   -0.8575 H   0  0  0  0  0  0  0  0  0  0  0  0
   -1.3000   -2.7564    0.0177 C   0  0  0  0  0  0  0  0  0  0  0  0
   -0.2503   -3.2589    0.3763 O   0  0  0  0  0  0  0  0  0  0  0  0
   -1.3183   -1.4757   -0.4924 N   0  0  0  0  0  0  0  0  0  0  0  0
   -2.2270   -1.0809   -0.7347 H   0  0  0  0  0  0  0  0  0  0  0  0
   -0.1436   -0.5869   -0.5809 C   0  0  1  0  0  0  0  0  0  0  0  0
    0.6088   -1.1193   -1.1735 H   0  0  0  0  0  0  0  0  0  0  0  0
   -0.4846    0.7220   -1.3329 C   0  0  0  0  0  0  0  0  0  0  0  0
   -0.5652    1.5545   -0.6267 H   0  0  0  0  0  0  0  0  0  0  0  0
    0.3370    0.9584   -2.0151 H   0  0  0  0  0  0  0  0  0  0  0  0
   -1.7724    0.6505   -2.1027 C   0  0  0  0  0  0  0  0  0  0  0  0
   -3.0096    0.9921   -1.5713 N   0  0  0  0  0  0  0  0  0  0  0  0
   -3.8765    0.8804   -2.5509 C   0  0  0  0  0  0  0  0  0  0  0  0
   -4.9399    1.0866   -2.4658 H   0  0  0  0  0  0  0  0  0  0  0  0
   -3.2372    0.4595   -3.7019 N   0  0  0  0  0  0  0  0  0  0  0  0
   -3.6852    0.3200   -4.6064 H   0  0  0  0  0  0  0  0  0  0  0  0
   -1.8938    0.3227   -3.4231 C   0  0  0  0  0  0  0  0  0  0  0  0
   -1.0898    0.0370   -4.0959 H   0  0  0  0  0  0  0  0  0  0  0  0
    0.5157   -0.2642    0.7773 C   0  0  0  0  0  0  0  0  0  0  0  0
    1.7262   -0.0932    0.8422 O   0  0  0  0  0  0  0  0  0  0  0  0
   -0.2728    0.0729    1.8631 N   0  0  0  0  0  0  0  0  0  0  0  0
   -1.2742   -0.0592    1.7625 H   0  0  0  0  0  0  0  0  0  0  0  0
    0.2690    0.4505    3.1616 C   0  0  0  0  0  0  0  0  0  0  0  0
    0.9044    1.3375    3.0688 H   0  0  0  0  0  0  0  0  0  0  0  0
   -0.5435    0.6793    3.8577 H   0  0  0  0  0  0  0  0  0  0  0  0
    0.8643   -0.3681    3.5795 H   0  0  0  0  0  0  0  0  0  0  0  0
  1  2  1  0  0  0  0
  2  3  1  0  0  0  0
  2  4  1  0  0  0  0
  2  5  1  0  0  0  0
  5  6  2  0  0  0  0
  5  7  1  0  0  0  0
  7  8  1  0  0  0  0
  7  9  1  0  0  0  0
  9 10  1  0  0  0  0
  9 11  1  0  0  0  0
  9 22  1  0  0  0  0
 11 12  1  0  0  0  0
 11 13  1  0  0  0  0
 11 14  1  0  0  0  0
 14 15  1  0  0  0  0
 14 20  2  0  0  0  0
 15 16  2  0  0  0  0
 16 17  1  0  0  0  0
 16 18  1  0  0  0  0
 18 19  1  0  0  0  0
 18 20  1  0  0  0  0
 20 21  1  0  0  0  0
 22 23  2  0  0  0  0
 22 24  1  0  0  0  0
 24 25  1  0  0  0  0
 24 26  1  0  0  0  0
 26 27  1  0  0  0  0
 26 28  1  0  0  0  0
 26 29  1  0  0  0  0
M  END
$$$$

  -OEChem-04042215593D

 29 29  0     1  0  0  0  0  0999 V2000
   -2.3880   -4.5506    0.5513 H   0  0  0  0  0  0  0  0  0  0  0  0
   -2.5913   -3.5613    0.1317 C   0  0  0  0  0  0  0  0  0  0  0  0
   -3.3014   -3.0430    0.7805 H   0  0  0  0  0  0  0  0  0  0  0  0
   -3.0345   -3.6837   -0.8594 H   0  0  0  0  0  0  0  0  0  0  0  0
   -1.3045   -2.7648    0.0284 C   0  0  0  0  0  0  0  0  0  0  0  0
   -0.2510   -3.2600    0.3853 O   0  0  0  0  0  0  0  0  0  0  0  0
   -1.3334   -1.4815   -0.4756 N   0  0  0  0  0  0  0  0  0  0  0  0
   -2.2428   -1.1019   -0.7321 H   0  0  0  0  0  0  0  0  0  0  0  0
   -0.1624   -0.5876   -0.5679 C   0  0  1  0  0  0  0  0  0  0  0  0
    0.5874   -1.1212   -1.1631 H   0  0  0  0  0  0  0  0  0  0  0  0
   -0.4995    0.7191   -1.3253 C   0  0  0  0  0  0  0  0  0  0  0  0
   -0.5808    1.5515   -0.6187 H   0  0  0  0  0  0  0  0  0  0  0  0
    0.3247    0.9553   -2.0045 H   0  0  0  0  0  0  0  0  0  0  0  0
   -1.7830    0.6558   -2.1025 C   0  0  0  0  0  0  0  0  0  0  0  0
   -2.9633    1.2702   -1.7089 N   0  0  0  0  0  0  0  0  0  0  0  0
   -3.8325    1.0570   -2.6689 C   0  0  0  0  0  0  0  0  0  0  0  0
   -4.8570    1.4191   -2.6714 H   0  0  0  0  0  0  0  0  0  0  0  0
   -3.2516    0.3035   -3.6719 N   0  0  0  0  0  0  0  0  0  0  0  0
   -3.7083    0.0281   -4.5402 H   0  0  0  0  0  0  0  0  0  0  0  0
   -1.9417    0.0556   -3.3199 C   0  0  0  0  0  0  0  0  0  0  0  0
   -1.1809   -0.4789   -3.8825 H   0  0  0  0  0  0  0  0  0  0  0  0
    0.5095   -0.2653    0.7845 C   0  0  0  0  0  0  0  0  0  0  0  0
    1.7192   -0.0846    0.8340 O   0  0  0  0  0  0  0  0  0  0  0  0
   -0.2661    0.0661    1.8814 N   0  0  0  0  0  0  0  0  0  0  0  0
   -1.2669   -0.0801    1.7985 H   0  0  0  0  0  0  0  0  0  0  0  0
    0.2914    0.4616    3.1684 C   0  0  0  0  0  0  0  0  0  0  0  0
    0.9173    1.3533    3.0569 H   0  0  0  0  0  0  0  0  0  0  0  0
   -0.5121    0.6909    3.8746 H   0  0  0  0  0  0  0  0  0  0  0  0
    0.9001   -0.3472    3.5861 H   0  0  0  0  0  0  0  0  0  0  0  0
  1  2  1  0  0  0  0
  2  3  1  0  0  0  0
  2  4  1  0  0  0  0
  2  5  1  0  0  0  0
  5  6  2  0  0  0  0
  5  7  1  0  0  0  0
  7  8  1  0  0  0  0
  7  9  1  0  0  0  0
  9 10  1  0  0  0  0
  9 11  1  0  0  0  0
  9 22  1  0  0  0  0
 11 12  1  0  0  0  0
 11 13  1  0  0  0  0
 11 14  1  0  0  0  0
 14 15  1  0  0  0  0
 14 20  2  0  0  0  0
 15 16  2  0  0  0  0
 16 17  1  0  0  0  0
 16 18  1  0  0  0  0
 18 19  1  0  0  0  0
 18 20  1  0  0  0  0
 20 21  1  0  0  0  0
 22 23  2  0  0  0  0
 22 24  1  0  0  0  0
 24 25  1  0  0  0  0
 24 26  1  0  0  0  0
 26 27  1  0  0  0  0
 26 28  1  0  0  0  0
 26 29  1  0  0  0  0
M  END
$$$$

  -OEChem-04042215593D

 29 29  0     1  0  0  0  0  0999 V2000
   -2.3566   -4.5759    0.5696 H   0  0  0  0  0  0  0  0  0  0  0  0
   -2.5691   -3.5896    0.1471 C   0  0  0  0  0  0  0  0  0  0  0  0
   -3.2944   -3.0818    0.7873 H   0  0  0  0  0  0  0  0  0  0  0  0
   -2.9989   -3.7191   -0.8489 H   0  0  0  0  0  0  0  0  0  0  0  0
   -1.2932   -2.7736    0.0594 C   0  0  0  0  0  0  0  0  0  0  0  0
   -0.2380   -3.2504    0.4351 O   0  0  0  0  0  0  0  0  0  0  0  0
   -1.3338   -1.4950   -0.4563 N   0  0  0  0  0  0  0  0  0  0  0  0
   -2.2410   -1.1414   -0.7512 H   0  0  0  0  0  0  0  0  0  0  0  0
   -0.1690   -0.5940   -0.5612 C   0  0  1  0  0  0  0  0  0  0  0  0
    0.5826   -1.1293   -1.1524 H   0  0  0  0  0  0  0  0  0  0  0  0
   -0.5083    0.7071   -1.3292 C   0  0  0  0  0  0  0  0  0  0  0  0
   -0.5914    1.5383   -0.6213 H   0  0  0  0  0  0  0  0  0  0  0  0
    0.3175    0.9468   -2.0053 H   0  0  0  0  0  0  0  0  0  0  0  0
   -1.7898    0.6588   -2.1131 C   0  0  0  0  0  0  0  0  0  0  0  0
   -2.8635    1.5106   -1.8988 N   0  0  0  0  0  0  0  0  0  0  0  0
   -3.7628    1.2189   -2.8083 C   0  0  0  0  0  0  0  0  0  0  0  0
   -4.7218    1.7177   -2.9163 H   0  0  0  0  0  0  0  0  0  0  0  0
   -3.3079    0.1842   -3.6046 N   0  0  0  0  0  0  0  0  0  0  0  0
   -3.8046   -0.2027   -4.4059 H   0  0  0  0  0  0  0  0  0  0  0  0
   -2.0466   -0.1676   -3.1724 C   0  0  0  0  0  0  0  0  0  0  0  0
   -1.3762   -0.9177   -3.5839 H   0  0  0  0  0  0  0  0  0  0  0  0
    0.5050   -0.2560    0.7867 C   0  0  0  0  0  0  0  0  0  0  0  0
    1.7150   -0.0767    0.8332 O   0  0  0  0  0  0  0  0  0  0  0  0
   -0.2694    0.0796    1.8831 N   0  0  0  0  0  0  0  0  0  0  0  0
   -1.2688   -0.0787    1.8063 H   0  0  0  0  0  0  0  0  0  0  0  0
    0.2917    0.4651    3.1714 C   0  0  0  0  0  0  0  0  0  0  0  0
    0.9334    1.3459    3.0634 H   0  0  0  0  0  0  0  0  0  0  0  0
   -0.5098    0.7076    3.8755 H   0  0  0  0  0  0  0  0  0  0  0  0
    0.8853   -0.3550    3.5887 H   0  0  0  0  0  0  0  0  0  0  0  0
  1  2  1  0  0  0  0
  2  3  1  0  0  0  0
  2  4  1  0  0  0  0
  2  5  1  0  0  0  0
  5  6  2  0  0  0  0
  5  7  1  0  0  0  0
  7  8  1  0  0  0  0
  7  9  1  0  0  0  0
  9 10  1  0  0  0  0
  9 11  1  0  0  0  0
  9 22  1  0  0  0  0
 11 12  1  0  0  0  0
 11 13  1  0  0  0  0
 11 14  1  0  0  0  0
 14 15  1  0  0  0  0
 14 20  2  0  0  0  0
 15 16  2  0  0  0  0
 16 17  1  0  0  0  0
 16 18  1  0  0  0  0
 18 19  1  0  0  0  0
 18 20  1  0  0  0  0
 20 21  1  0  0  0  0
 22 23  2  0  0  0  0
 22 24  1  0  0  0  0
 24 25  1  0  0  0  0
 24 26  1  0  0  0  0
 26 27  1  0  0  0  0
 26 28  1  0  0  0  0
 26 29  1  0  0  0  0
M  END
$$$$

  -OEChem-04042215593D

 29 29  0     1  0  0  0  0  0999 V2000
   -2.3081   -4.6193    0.6213 H   0  0  0  0  0  0  0  0  0  0  0  0
   -2.5371   -3.6389    0.1936 C   0  0  0  0  0  0  0  0  0  0  0  0
   -3.2697   -3.1394    0.8322 H   0  0  0  0  0  0  0  0  0  0  0  0
   -2.9659   -3.7806   -0.8013 H   0  0  0  0  0  0  0  0  0  0  0  0
   -1.2746   -2.8033    0.1007 C   0  0  0  0  0  0  0  0  0  0  0  0
   -0.2126   -3.2598    0.4817 O   0  0  0  0  0  0  0  0  0  0  0  0
   -1.3363   -1.5286   -0.4234 N   0  0  0  0  0  0  0  0  0  0  0  0
   -2.2471   -1.1974   -0.7315 H   0  0  0  0  0  0  0  0  0  0  0  0
   -0.1843   -0.6134   -0.5466 C   0  0  1  0  0  0  0  0  0  0  0  0
    0.5681   -1.1478   -1.1375 H   0  0  0  0  0  0  0  0  0  0  0  0
   -0.5324    0.6790   -1.3290 C   0  0  0  0  0  0  0  0  0  0  0  0
   -0.6223    1.5076   -0.6188 H   0  0  0  0  0  0  0  0  0  0  0  0
    0.2962    0.9264   -1.9989 H   0  0  0  0  0  0  0  0  0  0  0  0
   -1.8106    0.6496   -2.1243 C   0  0  0  0  0  0  0  0  0  0  0  0
   -2.7338    1.6853   -2.1228 N   0  0  0  0  0  0  0  0  0  0  0  0
   -3.6682    1.3642   -2.9854 C   0  0  0  0  0  0  0  0  0  0  0  0
   -4.5337    1.9771   -3.2213 H   0  0  0  0  0  0  0  0  0  0  0  0
   -3.3833    0.1352   -3.5499 N   0  0  0  0  0  0  0  0  0  0  0  0
   -3.9300   -0.3148   -4.2828 H   0  0  0  0  0  0  0  0  0  0  0  0
   -2.1931   -0.3149   -3.0185 C   0  0  0  0  0  0  0  0  0  0  0  0
   -1.6420   -1.2179   -3.2682 H   0  0  0  0  0  0  0  0  0  0  0  0
    0.4982   -0.2586    0.7934 C   0  0  0  0  0  0  0  0  0  0  0  0
    1.7050   -0.0569    0.8260 O   0  0  0  0  0  0  0  0  0  0  0  0
   -0.2705    0.0734    1.8950 N   0  0  0  0  0  0  0  0  0  0  0  0
   -1.2660   -0.1124    1.8337 H   0  0  0  0  0  0  0  0  0  0  0  0
    0.2971    0.4846    3.1724 C   0  0  0  0  0  0  0  0  0  0  0  0
    0.8938    1.3945    3.0511 H   0  0  0  0  0  0  0  0  0  0  0  0
   -0.5014    0.6889    3.8921 H   0  0  0  0  0  0  0  0  0  0  0  0
    0.9373   -0.3056    3.5782 H   0  0  0  0  0  0  0  0  0  0  0  0
  1  2  1  0  0  0  0
  2  3  1  0  0  0  0
  2  4  1  0  0  0  0
  2  5  1  0  0  0  0
  5  6  2  0  0  0  0
  5  7  1  0  0  0  0
  7  8  1  0  0  0  0
  7  9  1  0  0  0  0
  9 10  1  0  0  0  0
  9 11  1  0  0  0  0
  9 22  1  0  0  0  0
 11 12  1  0  0  0  0
 11 13  1  0  0  0  0
 11 14  1  0  0  0  0
 14 15  1  0  0  0  0
 14 20  2  0  0  0  0
 15 16  2  0  0  0  0
 16 17  1  0  0  0  0
 16 18  1  0  0  0  0
 18 19  1  0  0  0  0
 18 20  1  0  0  0  0
 20 21  1  0  0  0  0
 22 23  2  0  0  0  0
 22 24  1  0  0  0  0
 24 25  1  0  0  0  0
 24 26  1  0  0  0  0
 26 27  1  0  0  0  0
 26 28  1  0  0  0  0
 26 29  1  0  0  0  0
M  END
$$$$

  -OEChem-04042215593D

 29 29  0     1  0  0  0  0  0999 V2000
   -2.2310   -4.6653    0.7177 H   0  0  0  0  0  0  0  0  0  0  0  0
   -2.4881   -3.6953    0.2821 C   0  0  0  0  0  0  0  0  0  0  0  0
   -3.2078   -3.1965    0.9354 H   0  0  0  0  0  0  0  0  0  0  0  0
   -2.9462   -3.8604   -0.6959 H   0  0  0  0  0  0  0  0  0  0  0  0
   -1.2414   -2.8431    0.1353 C   0  0  0  0  0  0  0  0  0  0  0  0
   -0.1603   -3.2821    0.4808 O   0  0  0  0  0  0  0  0  0  0  0  0
   -1.3391   -1.5721   -0.3933 N   0  0  0  0  0  0  0  0  0  0  0  0
   -2.2674   -1.2467   -0.6498 H   0  0  0  0  0  0  0  0  0  0  0  0
   -0.2082   -0.6343   -0.5353 C   0  0  1  0  0  0  0  0  0  0  0  0
    0.5469   -1.1607   -1.1301 H   0  0  0  0  0  0  0  0  0  0  0  0
   -0.5740    0.6502   -1.3253 C   0  0  0  0  0  0  0  0  0  0  0  0
   -0.6713    1.4750   -0.6120 H   0  0  0  0  0  0  0  0  0  0  0  0
    0.2561    0.9081   -1.9894 H   0  0  0  0  0  0  0  0  0  0  0  0
   -1.8487    0.6410   -2.1313 C   0  0  0  0  0  0  0  0  0  0  0  0
   -2.5874    1.7945   -2.3549 N   0  0  0  0  0  0  0  0  0  0  0  0
   -3.5560    1.4790   -3.1800 C   0  0  0  0  0  0  0  0  0  0  0  0
   -4.3065    2.1712   -3.5512 H   0  0  0  0  0  0  0  0  0  0  0  0
   -3.4701    0.1408   -3.5122 N   0  0  0  0  0  0  0  0  0  0  0  0
   -4.0689   -0.3349   -4.1853 H   0  0  0  0  0  0  0  0  0  0  0  0
   -2.3716   -0.3898   -2.8694 C   0  0  0  0  0  0  0  0  0  0  0  0
   -1.9601   -1.3910   -2.9650 H   0  0  0  0  0  0  0  0  0  0  0  0
    0.4837   -0.2608    0.7953 C   0  0  0  0  0  0  0  0  0  0  0  0
    1.6866   -0.0359    0.8121 O   0  0  0  0  0  0  0  0  0  0  0  0
   -0.2759    0.0599    1.9070 N   0  0  0  0  0  0  0  0  0  0  0  0
   -1.2689   -0.1412    1.8615 H   0  0  0  0  0  0  0  0  0  0  0  0
    0.3016    0.4975    3.1712 C   0  0  0  0  0  0  0  0  0  0  0  0
    0.8658    1.4258    3.0335 H   0  0  0  0  0  0  0  0  0  0  0  0
   -0.4891    0.6800    3.9051 H   0  0  0  0  0  0  0  0  0  0  0  0
    0.9749   -0.2688    3.5697 H   0  0  0  0  0  0  0  0  0  0  0  0
  1  2  1  0  0  0  0
  2  3  1  0  0  0  0
  2  4  1  0  0  0  0
  2  5  1  0  0  0  0
  5  6  2  0  0  0  0
  5  7  1  0  0  0  0
  7  8  1  0  0  0  0
  7  9  1  0  0  0  0
  9 10  1  0  0  0  0
  9 11  1  0  0  0  0
  9 22  1  0  0  0  0
 11 12  1  0  0  0  0
 11 13  1  0  0  0  0
 11 14  1  0  0  0  0
 14 15  1  0  0  0  0
 14 20  2  0  0  0  0
 15 16  2  0  0  0  0
 16 17  1  0  0  0  0
 16 18  1  0  0  0  0
 18 19  1  0  0  0  0
 18 20  1  0  0  0  0
 20 21  1  0  0  0  0
 22 23  2  0  0  0  0
 22 24  1  0  0  0  0
 24 25  1  0  0  0  0
 24 26  1  0  0  0  0
 26 27  1  0  0  0  0
 26 28  1  0  0  0  0
 26 29  1  0  0  0  0
M  END
$$$$

  -OEChem-04042215593D

 29 29  0     1  0  0  0  0  0999 V2000
   -2.1256   -4.7034    0.8286 H   0  0  0  0  0  0  0  0  0  0  0  0
   -2.4188   -3.7470    0.3861 C   0  0  0  0  0  0  0  0  0  0  0  0
   -3.1178   -3.2478    1.0613 H   0  0  0  0  0  0  0  0  0  0  0  0
   -2.9157   -3.9390   -0.5678 H   0  0  0  0  0  0  0  0  0  0  0  0
   -1.1950   -2.8774    0.1684 C   0  0  0  0  0  0  0  0  0  0  0  0
   -0.0920   -3.2962    0.4656 O   0  0  0  0  0  0  0  0  0  0  0  0
   -1.3394   -1.6118   -0.3641 N   0  0  0  0  0  0  0  0  0  0  0  0
   -2.2870   -1.2897   -0.5396 H   0  0  0  0  0  0  0  0  0  0  0  0
   -0.2354   -0.6475   -0.5286 C   0  0  1  0  0  0  0  0  0  0  0  0
    0.5233   -1.1646   -1.1275 H   0  0  0  0  0  0  0  0  0  0  0  0
   -0.6217    0.6266   -1.3279 C   0  0  0  0  0  0  0  0  0  0  0  0
   -0.7229    1.4507   -0.6145 H   0  0  0  0  0  0  0  0  0  0  0  0
    0.2105    0.8877   -1.9885 H   0  0  0  0  0  0  0  0  0  0  0  0
   -1.8921    0.6398   -2.1458 C   0  0  0  0  0  0  0  0  0  0  0  0
   -2.4158    1.8419   -2.6026 N   0  0  0  0  0  0  0  0  0  0  0  0
   -3.4298    1.5579   -3.3822 C   0  0  0  0  0  0  0  0  0  0  0  0
   -4.0473    2.2917   -3.8926 H   0  0  0  0  0  0  0  0  0  0  0  0
   -3.5819    0.1886   -3.4660 N   0  0  0  0  0  0  0  0  0  0  0  0
   -4.2568   -0.2894   -4.0608 H   0  0  0  0  0  0  0  0  0  0  0  0
   -2.5882   -0.3998   -2.7125 C   0  0  0  0  0  0  0  0  0  0  0  0
   -2.3562   -1.4581   -2.6456 H   0  0  0  0  0  0  0  0  0  0  0  0
    0.4666   -0.2544    0.7913 C   0  0  0  0  0  0  0  0  0  0  0  0
    1.6641   -0.0024    0.7921 O   0  0  0  0  0  0  0  0  0  0  0  0
   -0.2841    0.0502    1.9136 N   0  0  0  0  0  0  0  0  0  0  0  0
   -1.2715   -0.1786    1.8856 H   0  0  0  0  0  0  0  0  0  0  0  0
    0.3045    0.4953    3.1702 C   0  0  0  0  0  0  0  0  0  0  0  0
    0.8675    1.4227    3.0220 H   0  0  0  0  0  0  0  0  0  0  0  0
   -0.4794    0.6827    3.9099 H   0  0  0  0  0  0  0  0  0  0  0  0
    0.9814   -0.2683    3.5671 H   0  0  0  0  0  0  0  0  0  0  0  0
  1  2  1  0  0  0  0
  2  3  1  0  0  0  0
  2  4  1  0  0  0  0
  2  5  1  0  0  0  0
  5  6  2  0  0  0  0
  5  7  1  0  0  0  0
  7  8  1  0  0  0  0
  7  9  1  0  0  0  0
  9 10  1  0  0  0  0
  9 11  1  0  0  0  0
  9 22  1  0  0  0  0
 11 12  1  0  0  0  0
 11 13  1  0  0  0  0
 11 14  1  0  0  0  0
 14 15  1  0  0  0  0
 14 20  2  0  0  0  0
 15 16  2  0  0  0  0
 16 17  1  0  0  0  0
 16 18  1  0  0  0  0
 18 19  1  0  0  0  0
 18 20  1  0  0  0  0
 20 21  1  0  0  0  0
 22 23  2  0  0  0  0
 22 24  1  0  0  0  0
 24 25  1  0  0  0  0
 24 26  1  0  0  0  0
 26 27  1  0  0  0  0
 26 28  1  0  0  0  0
 26 29  1  0  0  0  0
M  END
$$$$

  -OEChem-04042215593D

 29 29  0     1  0  0  0  0  0999 V2000
   -1.8268   -4.7868    0.9071 H   0  0  0  0  0  0  0  0  0  0  0  0
   -2.2047   -3.8478    0.4919 C   0  0  0  0  0  0  0  0  0  0  0  0
   -2.8512   -3.3722    1.2332 H   0  0  0  0  0  0  0  0  0  0  0  0
   -2.7880   -4.0707   -0.4048 H   0  0  0  0  0  0  0  0  0  0  0  0
   -1.0476   -2.9307    0.1431 C   0  0  0  0  0  0  0  0  0  0  0  0
    0.0963   -3.3074    0.3165 O   0  0  0  0  0  0  0  0  0  0  0  0
   -1.3015   -1.6681   -0.3569 N   0  0  0  0  0  0  0  0  0  0  0  0
   -2.2662   -1.3629   -0.3288 H   0  0  0  0  0  0  0  0  0  0  0  0
   -0.2646   -0.6395   -0.5420 C   0  0  1  0  0  0  0  0  0  0  0  0
    0.5073   -1.1075   -1.1640 H   0  0  0  0  0  0  0  0  0  0  0  0
   -0.7133    0.6347   -1.3149 C   0  0  0  0  0  0  0  0  0  0  0  0
   -0.5336    1.5024   -0.6720 H   0  0  0  0  0  0  0  0  0  0  0  0
   -0.0397    0.7455   -2.1702 H   0  0  0  0  0  0  0  0  0  0  0  0
   -2.1213    0.8085   -1.8485 C   0  0  0  0  0  0  0  0  0  0  0  0
   -2.4042    1.9922   -2.5195 N   0  0  0  0  0  0  0  0  0  0  0  0
   -3.6358    1.9220   -2.9569 C   0  0  0  0  0  0  0  0  0  0  0  0
   -4.1435    2.6998   -3.5205 H   0  0  0  0  0  0  0  0  0  0  0  0
   -4.1810    0.7069   -2.6010 N   0  0  0  0  0  0  0  0  0  0  0  0
   -5.1139    0.3889   -2.8580 H   0  0  0  0  0  0  0  0  0  0  0  0
   -3.2227   -0.0150   -1.9201 C   0  0  0  0  0  0  0  0  0  0  0  0
   -3.3304   -1.0360   -1.5800 H   0  0  0  0  0  0  0  0  0  0  0  0
    0.4545   -0.2436    0.7694 C   0  0  0  0  0  0  0  0  0  0  0  0
    1.6371    0.0691    0.7478 O   0  0  0  0  0  0  0  0  0  0  0  0
   -0.2768   -0.0133    1.9225 N   0  0  0  0  0  0  0  0  0  0  0  0
   -1.2555   -0.2756    1.9132 H   0  0  0  0  0  0  0  0  0  0  0  0
    0.3258    0.4286    3.1739 C   0  0  0  0  0  0  0  0  0  0  0  0
    0.8255    1.3937    3.0395 H   0  0  0  0  0  0  0  0  0  0  0  0
   -0.4423    0.5430    3.9446 H   0  0  0  0  0  0  0  0  0  0  0  0
    1.0614   -0.3036    3.5232 H   0  0  0  0  0  0  0  0  0  0  0  0
  1  2  1  0  0  0  0
  2  3  1  0  0  0  0
  2  4  1  0  0  0  0
  2  5  1  0  0  0  0
  5  6  2  0  0  0  0
  5  7  1  0  0  0  0
  7  8  1  0  0  0  0
  7  9  1  0  0  0  0
  9 10  1  0  0  0  0
  9 11  1  0  0  0  0
  9 22  1  0  0  0  0
 11 12  1  0  0  0  0
 11 13  1  0  0  0  0
 11 14  1  0  0  0  0
 14 15  1  0  0  0  0
 14 20  2  0  0  0  0
 15 16  2  0  0  0  0
 16 17  1  0  0  0  0
 16 18  1  0  0  0  0
 18 19  1  0  0  0  0
 18 20  1  0  0  0  0
 20 21  1  0  0  0  0
 22 23  2  0  0  0  0
 22 24  1  0  0  0  0
 24 25  1  0  0  0  0
 24 26  1  0  0  0  0
 26 27  1  0  0  0  0
 26 28  1  0  0  0  0
 26 29  1  0  0  0  0
M  END
$$$$

  -OEChem-04042215593D

 29 29  0     1  0  0  0  0  0999 V2000
   -1.5147   -4.9162    0.6157 H   0  0  0  0  0  0  0  0  0  0  0  0
   -1.9181   -4.0157    0.1435 C   0  0  0  0  0  0  0  0  0  0  0  0
   -2.8546   -3.7487    0.6387 H   0  0  0  0  0  0  0  0  0  0  0  0
   -2.1174   -4.2320   -0.9088 H   0  0  0  0  0  0  0  0  0  0  0  0
   -0.9242   -2.8755    0.2621 C   0  0  0  0  0  0  0  0  0  0  0  0
    0.1097   -3.0401    0.8816 O   0  0  0  0  0  0  0  0  0  0  0  0
   -1.2118   -1.6587   -0.3262 N   0  0  0  0  0  0  0  0  0  0  0  0
   -1.9852   -1.6800   -0.9833 H   0  0  0  0  0  0  0  0  0  0  0  0
   -0.2130   -0.5934   -0.5325 C   0  0  1  0  0  0  0  0  0  0  0  0
    0.6006   -1.0330   -1.1208 H   0  0  0  0  0  0  0  0  0  0  0  0
   -0.7434    0.6380   -1.3266 C   0  0  0  0  0  0  0  0  0  0  0  0
   -0.5835    1.5480   -0.7390 H   0  0  0  0  0  0  0  0  0  0  0  0
   -0.1056    0.7334   -2.2107 H   0  0  0  0  0  0  0  0  0  0  0  0
   -2.1731    0.6976   -1.8220 C   0  0  0  0  0  0  0  0  0  0  0  0
   -2.5110    1.6431   -2.7820 N   0  0  0  0  0  0  0  0  0  0  0  0
   -3.8054    1.5767   -2.9687 C   0  0  0  0  0  0  0  0  0  0  0  0
   -4.3677    2.1941   -3.6635 H   0  0  0  0  0  0  0  0  0  0  0  0
   -4.3433    0.6171   -2.1366 N   0  0  0  0  0  0  0  0  0  0  0  0
   -5.3372    0.4115   -2.0495 H   0  0  0  0  0  0  0  0  0  0  0  0
   -3.3215    0.0808   -1.3813 C   0  0  0  0  0  0  0  0  0  0  0  0
   -3.4299   -0.6218   -0.5633 H   0  0  0  0  0  0  0  0  0  0  0  0
    0.4341   -0.0836    0.7782 C   0  0  0  0  0  0  0  0  0  0  0  0
    1.5929    0.3114    0.7662 O   0  0  0  0  0  0  0  0  0  0  0  0
   -0.3565    0.1801    1.8830 N   0  0  0  0  0  0  0  0  0  0  0  0
   -1.2750   -0.2501    1.8863 H   0  0  0  0  0  0  0  0  0  0  0  0
    0.1856    0.6840    3.1384 C   0  0  0  0  0  0  0  0  0  0  0  0
    0.6790    1.6493    2.9830 H   0  0  0  0  0  0  0  0  0  0  0  0
   -0.6173    0.8214    3.8687 H   0  0  0  0  0  0  0  0  0  0  0  0
    0.9142   -0.0220    3.5505 H   0  0  0  0  0  0  0  0  0  0  0  0
  1  2  1  0  0  0  0
  2  3  1  0  0  0  0
  2  4  1  0  0  0  0
  2  5  1  0  0  0  0
  5  6  2  0  0  0  0
  5  7  1  0  0  0  0
  7  8  1  0  0  0  0
  7  9  1  0  0  0  0
  9 10  1  0  0  0  0
  9 11  1  0  0  0  0
  9 22  1  0  0  0  0
 11 12  1  0  0  0  0
 11 13  1  0  0  0  0
 11 14  1  0  0  0  0
 14 15  1  0  0  0  0
 14 20  2  0  0  0  0
 15 16  2  0  0  0  0
 16 17  1  0  0  0  0
 16 18  1  0  0  0  0
 18 19  1  0  0  0  0
 18 20  1  0  0  0  0
 20 21  1  0  0  0  0
 22 23  2  0  0  0  0
 22 24  1  0  0  0  0
 24 25  1  0  0  0  0
 24 26  1  0  0  0  0
 26 27  1  0  0  0  0
 26 28  1  0  0  0  0
 26 29  1  0  0  0  0
M  END
$$$$

  -OEChem-04042215593D

 29 29  0     1  0  0  0  0  0999 V2000
   -2.0193   -4.8342    0.5829 H   0  0  0  0  0  0  0  0  0  0  0  0
   -2.3108   -3.8894    0.1149 C   0  0  0  0  0  0  0  0  0  0  0  0
   -3.2084   -3.5137    0.6117 H   0  0  0  0  0  0  0  0  0  0  0  0
   -2.5342   -4.0754   -0.9384 H   0  0  0  0  0  0  0  0  0  0  0  0
   -1.1872   -2.8773    0.2369 C   0  0  0  0  0  0  0  0  0  0  0  0
   -0.1784   -3.1658    0.8528 O   0  0  0  0  0  0  0  0  0  0  0  0
   -1.3295   -1.6307   -0.3405 N   0  0  0  0  0  0  0  0  0  0  0  0
   -2.1215   -1.5364   -0.9707 H   0  0  0  0  0  0  0  0  0  0  0  0
   -0.2165   -0.6797   -0.5336 C   0  0  1  0  0  0  0  0  0  0  0  0
    0.5456   -1.2021   -1.1231 H   0  0  0  0  0  0  0  0  0  0  0  0
   -0.6143    0.6004   -1.3260 C   0  0  0  0  0  0  0  0  0  0  0  0
   -0.3753    1.4925   -0.7381 H   0  0  0  0  0  0  0  0  0  0  0  0
    0.0271    0.6385   -2.2121 H   0  0  0  0  0  0  0  0  0  0  0  0
   -2.0382    0.7589   -1.8048 C   0  0  0  0  0  0  0  0  0  0  0  0
   -2.3307    1.4682   -2.9618 N   0  0  0  0  0  0  0  0  0  0  0  0
   -3.6355    1.5415   -3.0572 C   0  0  0  0  0  0  0  0  0  0  0  0
   -4.1744    2.0366   -3.8602 H   0  0  0  0  0  0  0  0  0  0  0  0
   -4.2170    0.9086   -1.9766 N   0  0  0  0  0  0  0  0  0  0  0  0
   -5.2177    0.8762   -1.7877 H   0  0  0  0  0  0  0  0  0  0  0  0
   -3.2086    0.4407   -1.1607 C   0  0  0  0  0  0  0  0  0  0  0  0
   -3.3125   -0.0220   -0.1844 H   0  0  0  0  0  0  0  0  0  0  0  0
    0.4792   -0.2532    0.7813 C   0  0  0  0  0  0  0  0  0  0  0  0
    1.6722    0.0214    0.7723 O   0  0  0  0  0  0  0  0  0  0  0  0
   -0.2817    0.0885    1.8857 N   0  0  0  0  0  0  0  0  0  0  0  0
   -1.2329   -0.2628    1.8920 H   0  0  0  0  0  0  0  0  0  0  0  0
    0.3122    0.5113    3.1476 C   0  0  0  0  0  0  0  0  0  0  0  0
    0.9306    1.4032    3.0012 H   0  0  0  0  0  0  0  0  0  0  0  0
   -0.4712    0.7519    3.8724 H   0  0  0  0  0  0  0  0  0  0  0  0
    0.9371   -0.2871    3.5616 H   0  0  0  0  0  0  0  0  0  0  0  0
  1  2  1  0  0  0  0
  2  3  1  0  0  0  0
  2  4  1  0  0  0  0
  2  5  1  0  0  0  0
  5  6  2  0  0  0  0
  5  7  1  0  0  0  0
  7  8  1  0  0  0  0
  7  9  1  0  0  0  0
  9 10  1  0  0  0  0
  9 11  1  0  0  0  0
  9 22  1  0  0  0  0
 11 12  1  0  0  0  0
 11 13  1  0  0  0  0
 11 14  1  0  0  0  0
 14 15  1  0  0  0  0
 14 20  2  0  0  0  0
 15 16  2  0  0  0  0
 16 17  1  0  0  0  0
 16 18  1  0  0  0  0
 18 19  1  0  0  0  0
 18 20  1  0  0  0  0
 20 21  1  0  0  0  0
 22 23  2  0  0  0  0
 22 24  1  0  0  0  0
 24 25  1  0  0  0  0
 24 26  1  0  0  0  0
 26 27  1  0  0  0  0
 26 28  1  0  0  0  0
 26 29  1  0  0  0  0
M  END
$$$$

  -OEChem-04042215593D

 29 29  0     1  0  0  0  0  0999 V2000
   -2.1309   -4.7770    0.5374 H   0  0  0  0  0  0  0  0  0  0  0  0
   -2.3973   -3.8184    0.0831 C   0  0  0  0  0  0  0  0  0  0  0  0
   -3.2807   -3.4221    0.5894 H   0  0  0  0  0  0  0  0  0  0  0  0
   -2.6316   -3.9834   -0.9715 H   0  0  0  0  0  0  0  0  0  0  0  0
   -1.2431   -2.8424    0.2122 C   0  0  0  0  0  0  0  0  0  0  0  0
   -0.2428   -3.1648    0.8257 O   0  0  0  0  0  0  0  0  0  0  0  0
   -1.3470   -1.5869   -0.3526 N   0  0  0  0  0  0  0  0  0  0  0  0
   -2.1470   -1.4500   -0.9654 H   0  0  0  0  0  0  0  0  0  0  0  0
   -0.2089   -0.6618   -0.5297 C   0  0  1  0  0  0  0  0  0  0  0  0
    0.5424   -1.1967   -1.1217 H   0  0  0  0  0  0  0  0  0  0  0  0
   -0.5847    0.6250   -1.3178 C   0  0  0  0  0  0  0  0  0  0  0  0
   -0.3513    1.5116   -0.7195 H   0  0  0  0  0  0  0  0  0  0  0  0
    0.0575    0.6719   -2.2028 H   0  0  0  0  0  0  0  0  0  0  0  0
   -2.0126    0.7604   -1.7808 C   0  0  0  0  0  0  0  0  0  0  0  0
   -2.3510    1.1774   -3.0601 N   0  0  0  0  0  0  0  0  0  0  0  0
   -3.6564    1.2922   -3.0956 C   0  0  0  0  0  0  0  0  0  0  0  0
   -4.2298    1.6050   -3.9639 H   0  0  0  0  0  0  0  0  0  0  0  0
   -4.1878    0.9661   -1.8625 N   0  0  0  0  0  0  0  0  0  0  0  0
   -5.1747    1.0261   -1.6165 H   0  0  0  0  0  0  0  0  0  0  0  0
   -3.1451    0.6553   -1.0151 C   0  0  0  0  0  0  0  0  0  0  0  0
   -3.1907    0.4215    0.0446 H   0  0  0  0  0  0  0  0  0  0  0  0
    0.4925   -0.2627    0.7900 C   0  0  0  0  0  0  0  0  0  0  0  0
    1.6888   -0.0031    0.7828 O   0  0  0  0  0  0  0  0  0  0  0  0
   -0.2643    0.0889    1.8944 N   0  0  0  0  0  0  0  0  0  0  0  0
   -1.2157   -0.2621    1.9046 H   0  0  0  0  0  0  0  0  0  0  0  0
    0.3358    0.5038    3.1563 C   0  0  0  0  0  0  0  0  0  0  0  0
    0.9581    1.3931    3.0110 H   0  0  0  0  0  0  0  0  0  0  0  0
   -0.4442    0.7457    3.8844 H   0  0  0  0  0  0  0  0  0  0  0  0
    0.9584   -0.2991    3.5656 H   0  0  0  0  0  0  0  0  0  0  0  0
  1  2  1  0  0  0  0
  2  3  1  0  0  0  0
  2  4  1  0  0  0  0
  2  5  1  0  0  0  0
  5  6  2  0  0  0  0
  5  7  1  0  0  0  0
  7  8  1  0  0  0  0
  7  9  1  0  0  0  0
  9 10  1  0  0  0  0
  9 11  1  0  0  0  0
  9 22  1  0  0  0  0
 11 12  1  0  0  0  0
 11 13  1  0  0  0  0
 11 14  1  0  0  0  0
 14 15  1  0  0  0  0
 14 20  2  0  0  0  0
 15 16  2  0  0  0  0
 16 17  1  0  0  0  0
 16 18  1  0  0  0  0
 18 19  1  0  0  0  0
 18 20  1  0  0  0  0
 20 21  1  0  0  0  0
 22 23  2  0  0  0  0
 22 24  1  0  0  0  0
 24 25  1  0  0  0  0
 24 26  1  0  0  0  0
 26 27  1  0  0  0  0
 26 28  1  0  0  0  0
 26 29  1  0  0  0  0
M  END
$$$$

  -OEChem-04042215593D

 29 29  0     1  0  0  0  0  0999 V2000
   -2.2110   -4.7236    0.5126 H   0  0  0  0  0  0  0  0  0  0  0  0
   -2.4550   -3.7583    0.0600 C   0  0  0  0  0  0  0  0  0  0  0  0
   -3.3309   -3.3442    0.5649 H   0  0  0  0  0  0  0  0  0  0  0  0
   -2.6904   -3.9154   -0.9954 H   0  0  0  0  0  0  0  0  0  0  0  0
   -1.2795   -2.8085    0.1930 C   0  0  0  0  0  0  0  0  0  0  0  0
   -0.2874   -3.1544    0.8075 O   0  0  0  0  0  0  0  0  0  0  0  0
   -1.3546   -1.5492   -0.3670 N   0  0  0  0  0  0  0  0  0  0  0  0
   -2.1539   -1.3878   -0.9756 H   0  0  0  0  0  0  0  0  0  0  0  0
   -0.1978   -0.6439   -0.5327 C   0  0  1  0  0  0  0  0  0  0  0  0
    0.5475   -1.1858   -1.1261 H   0  0  0  0  0  0  0  0  0  0  0  0
   -0.5595    0.6491   -1.3136 C   0  0  0  0  0  0  0  0  0  0  0  0
   -0.3304    1.5295   -0.7046 H   0  0  0  0  0  0  0  0  0  0  0  0
    0.0797    0.7084   -2.1997 H   0  0  0  0  0  0  0  0  0  0  0  0
   -1.9919    0.7635   -1.7580 C   0  0  0  0  0  0  0  0  0  0  0  0
   -2.3836    0.8761   -3.0836 N   0  0  0  0  0  0  0  0  0  0  0  0
   -3.6830    1.0523   -3.0824 C   0  0  0  0  0  0  0  0  0  0  0  0
   -4.2934    1.1804   -3.9719 H   0  0  0  0  0  0  0  0  0  0  0  0
   -4.1548    1.0555   -1.7829 N   0  0  0  0  0  0  0  0  0  0  0  0
   -5.1227    1.2224   -1.5115 H   0  0  0  0  0  0  0  0  0  0  0  0
   -3.0788    0.8938   -0.9356 C   0  0  0  0  0  0  0  0  0  0  0  0
   -3.0704    0.9019    0.1506 H   0  0  0  0  0  0  0  0  0  0  0  0
    0.5016   -0.2630    0.7930 C   0  0  0  0  0  0  0  0  0  0  0  0
    1.7006   -0.0155    0.7949 O   0  0  0  0  0  0  0  0  0  0  0  0
   -0.2604    0.0972    1.8906 N   0  0  0  0  0  0  0  0  0  0  0  0
   -1.2117   -0.2546    1.8938 H   0  0  0  0  0  0  0  0  0  0  0  0
    0.3364    0.4912    3.1605 C   0  0  0  0  0  0  0  0  0  0  0  0
    0.9798    1.3673    3.0268 H   0  0  0  0  0  0  0  0  0  0  0  0
   -0.4447    0.7462    3.8828 H   0  0  0  0  0  0  0  0  0  0  0  0
    0.9365   -0.3280    3.5704 H   0  0  0  0  0  0  0  0  0  0  0  0
  1  2  1  0  0  0  0
  2  3  1  0  0  0  0
  2  4  1  0  0  0  0
  2  5  1  0  0  0  0
  5  6  2  0  0  0  0
  5  7  1  0  0  0  0
  7  8  1  0  0  0  0
  7  9  1  0  0  0  0
  9 10  1  0  0  0  0
  9 11  1  0  0  0  0
  9 22  1  0  0  0  0
 11 12  1  0  0  0  0
 11 13  1  0  0  0  0
 11 14  1  0  0  0  0
 14 15  1  0  0  0  0
 14 20  2  0  0  0  0
 15 16  2  0  0  0  0
 16 17  1  0  0  0  0
 16 18  1  0  0  0  0
 18 19  1  0  0  0  0
 18 20  1  0  0  0  0
 20 21  1  0  0  0  0
 22 23  2  0  0  0  0
 22 24  1  0  0  0  0
 24 25  1  0  0  0  0
 24 26  1  0  0  0  0
 26 27  1  0  0  0  0
 26 28  1  0  0  0  0
 26 29  1  0  0  0  0
M  END
$$$$

  -OEChem-04042215593D

 29 29  0     1  0  0  0  0  0999 V2000
   -2.2656   -4.6862    0.5121 H   0  0  0  0  0  0  0  0  0  0  0  0
   -2.4872   -3.7255    0.0383 C   0  0  0  0  0  0  0  0  0  0  0  0
   -3.3712   -3.2939    0.5134 H   0  0  0  0  0  0  0  0  0  0  0  0
   -2.6968   -3.8969   -1.0204 H   0  0  0  0  0  0  0  0  0  0  0  0
   -1.3058   -2.7852    0.1881 C   0  0  0  0  0  0  0  0  0  0  0  0
   -0.3261   -3.1392    0.8182 O   0  0  0  0  0  0  0  0  0  0  0  0
   -1.3622   -1.5255   -0.3730 N   0  0  0  0  0  0  0  0  0  0  0  0
   -2.1468   -1.3622   -1.0005 H   0  0  0  0  0  0  0  0  0  0  0  0
   -0.1925   -0.6363   -0.5345 C   0  0  1  0  0  0  0  0  0  0  0  0
    0.5475   -1.1833   -1.1296 H   0  0  0  0  0  0  0  0  0  0  0  0
   -0.5462    0.6629   -1.3060 C   0  0  0  0  0  0  0  0  0  0  0  0
   -0.3124    1.5373   -0.6900 H   0  0  0  0  0  0  0  0  0  0  0  0
    0.0852    0.7287   -2.1972 H   0  0  0  0  0  0  0  0  0  0  0  0
   -1.9829    0.7692   -1.7311 C   0  0  0  0  0  0  0  0  0  0  0  0
   -2.4284    0.5842   -3.0312 N   0  0  0  0  0  0  0  0  0  0  0  0
   -3.7139    0.8445   -3.0297 C   0  0  0  0  0  0  0  0  0  0  0  0
   -4.3577    0.8001   -3.9037 H   0  0  0  0  0  0  0  0  0  0  0  0
   -4.1230    1.1838   -1.7534 N   0  0  0  0  0  0  0  0  0  0  0  0
   -5.0670    1.4692   -1.4966 H   0  0  0  0  0  0  0  0  0  0  0  0
   -3.0197    1.1533   -0.9263 C   0  0  0  0  0  0  0  0  0  0  0  0
   -2.9597    1.4059    0.1286 H   0  0  0  0  0  0  0  0  0  0  0  0
    0.5057   -0.2654    0.7940 C   0  0  0  0  0  0  0  0  0  0  0  0
    1.7063   -0.0251    0.7997 O   0  0  0  0  0  0  0  0  0  0  0  0
   -0.2586    0.1048    1.8870 N   0  0  0  0  0  0  0  0  0  0  0  0
   -1.2127   -0.2408    1.8854 H   0  0  0  0  0  0  0  0  0  0  0  0
    0.3361    0.4900    3.1606 C   0  0  0  0  0  0  0  0  0  0  0  0
    0.9733    1.3719    3.0358 H   0  0  0  0  0  0  0  0  0  0  0  0
   -0.4467    0.7318    3.8855 H   0  0  0  0  0  0  0  0  0  0  0  0
    0.9421   -0.3290    3.5623 H   0  0  0  0  0  0  0  0  0  0  0  0
  1  2  1  0  0  0  0
  2  3  1  0  0  0  0
  2  4  1  0  0  0  0
  2  5  1  0  0  0  0
  5  6  2  0  0  0  0
  5  7  1  0  0  0  0
  7  8  1  0  0  0  0
  7  9  1  0  0  0  0
  9 10  1  0  0  0  0
  9 11  1  0  0  0  0
  9 22  1  0  0  0  0
 11 12  1  0  0  0  0
 11 13  1  0  0  0  0
 11 14  1  0  0  0  0
 14 15  1  0  0  0  0
 14 20  2  0  0  0  0
 15 16  2  0  0  0  0
 16 17  1  0  0  0  0
 16 18  1  0  0  0  0
 18 19  1  0  0  0  0
 18 20  1  0  0  0  0
 20 21  1  0  0  0  0
 22 23  2  0  0  0  0
 22 24  1  0  0  0  0
 24 25  1  0  0  0  0
 24 26  1  0  0  0  0
 26 27  1  0  0  0  0
 26 28  1  0  0  0  0
 26 29  1  0  0  0  0
M  END
$$$$

  -OEChem-04042215593D

 29 29  0     1  0  0  0  0  0999 V2000
   -2.2916   -4.6661    0.4779 H   0  0  0  0  0  0  0  0  0  0  0  0
   -2.5067   -3.6996    0.0134 C   0  0  0  0  0  0  0  0  0  0  0  0
   -3.3979   -3.2741    0.4807 H   0  0  0  0  0  0  0  0  0  0  0  0
   -2.7001   -3.8568   -1.0506 H   0  0  0  0  0  0  0  0  0  0  0  0
   -1.3279   -2.7614    0.1920 C   0  0  0  0  0  0  0  0  0  0  0  0
   -0.3609   -3.1201    0.8393 O   0  0  0  0  0  0  0  0  0  0  0  0
   -1.3700   -1.5019   -0.3702 N   0  0  0  0  0  0  0  0  0  0  0  0
   -2.1350   -1.3453   -1.0251 H   0  0  0  0  0  0  0  0  0  0  0  0
   -0.1902   -0.6266   -0.5311 C   0  0  1  0  0  0  0  0  0  0  0  0
    0.5437   -1.1782   -1.1292 H   0  0  0  0  0  0  0  0  0  0  0  0
   -0.5411    0.6762   -1.2975 C   0  0  0  0  0  0  0  0  0  0  0  0
   -0.2968    1.5479   -0.6820 H   0  0  0  0  0  0  0  0  0  0  0  0
    0.0803    0.7403   -2.1957 H   0  0  0  0  0  0  0  0  0  0  0  0
   -1.9827    0.7777   -1.7068 C   0  0  0  0  0  0  0  0  0  0  0  0
   -2.4892    0.3096   -2.9107 N   0  0  0  0  0  0  0  0  0  0  0  0
   -3.7559    0.6500   -2.9422 C   0  0  0  0  0  0  0  0  0  0  0  0
   -4.4360    0.4377   -3.7624 H   0  0  0  0  0  0  0  0  0  0  0  0
   -4.0931    1.3151   -1.7781 N   0  0  0  0  0  0  0  0  0  0  0  0
   -5.0091    1.7113   -1.5721 H   0  0  0  0  0  0  0  0  0  0  0  0
   -2.9623    1.4109   -0.9944 C   0  0  0  0  0  0  0  0  0  0  0  0
   -2.8481    1.9015   -0.0316 H   0  0  0  0  0  0  0  0  0  0  0  0
    0.5105   -0.2628    0.7981 C   0  0  0  0  0  0  0  0  0  0  0  0
    1.7140   -0.0373    0.8060 O   0  0  0  0  0  0  0  0  0  0  0  0
   -0.2513    0.1169    1.8893 N   0  0  0  0  0  0  0  0  0  0  0  0
   -1.2118   -0.2110    1.8810 H   0  0  0  0  0  0  0  0  0  0  0  0
    0.3441    0.4876    3.1669 C   0  0  0  0  0  0  0  0  0  0  0  0
    0.9996    1.3568    3.0479 H   0  0  0  0  0  0  0  0  0  0  0  0
   -0.4378    0.7434    3.8882 H   0  0  0  0  0  0  0  0  0  0  0  0
    0.9315   -0.3440    3.5702 H   0  0  0  0  0  0  0  0  0  0  0  0
  1  2  1  0  0  0  0
  2  3  1  0  0  0  0
  2  4  1  0  0  0  0
  2  5  1  0  0  0  0
  5  6  2  0  0  0  0
  5  7  1  0  0  0  0
  7  8  1  0  0  0  0
  7  9  1  0  0  0  0
  9 10  1  0  0  0  0
  9 11  1  0  0  0  0
  9 22  1  0  0  0  0
 11 12  1  0  0  0  0
 11 13  1  0  0  0  0
 11 14  1  0  0  0  0
 14 15  1  0  0  0  0
 14 20  2  0  0  0  0
 15 16  2  0  0  0  0
 16 17  1  0  0  0  0
 16 18  1  0  0  0  0
 18 19  1  0  0  0  0
 18 20  1  0  0  0  0
 20 21  1  0  0  0  0
 22 23  2  0  0  0  0
 22 24  1  0  0  0  0
 24 25  1  0  0  0  0
 24 26  1  0  0  0  0
 26 27  1  0  0  0  0
 26 28  1  0  0  0  0
 26 29  1  0  0  0  0
M  END
$$$$

  -OEChem-04042215593D

 29 29  0     1  0  0  0  0  0999 V2000
   -2.3136   -4.6485    0.4586 H   0  0  0  0  0  0  0  0  0  0  0  0
   -2.5211   -3.6779   -0.0008 C   0  0  0  0  0  0  0  0  0  0  0  0
   -3.4140   -3.2513    0.4622 H   0  0  0  0  0  0  0  0  0  0  0  0
   -2.7071   -3.8267   -1.0673 H   0  0  0  0  0  0  0  0  0  0  0  0
   -1.3402   -2.7456    0.1930 C   0  0  0  0  0  0  0  0  0  0  0  0
   -0.3831   -3.1086    0.8529 O   0  0  0  0  0  0  0  0  0  0  0  0
   -1.3716   -1.4856   -0.3673 N   0  0  0  0  0  0  0  0  0  0  0  0
   -2.1230   -1.3307   -1.0409 H   0  0  0  0  0  0  0  0  0  0  0  0
   -0.1874   -0.6176   -0.5271 C   0  0  1  0  0  0  0  0  0  0  0  0
    0.5433   -1.1700   -1.1282 H   0  0  0  0  0  0  0  0  0  0  0  0
   -0.5405    0.6882   -1.2883 C   0  0  0  0  0  0  0  0  0  0  0  0
   -0.2855    1.5590   -0.6756 H   0  0  0  0  0  0  0  0  0  0  0  0
    0.0735    0.7462   -2.1918 H   0  0  0  0  0  0  0  0  0  0  0  0
   -1.9852    0.7946   -1.6913 C   0  0  0  0  0  0  0  0  0  0  0  0
   -2.5595    0.0839   -2.7382 N   0  0  0  0  0  0  0  0  0  0  0  0
   -3.8035    0.4926   -2.8287 C   0  0  0  0  0  0  0  0  0  0  0  0
   -4.5231    0.1366   -3.5608 H   0  0  0  0  0  0  0  0  0  0  0  0
   -4.0604    1.4374   -1.8532 N   0  0  0  0  0  0  0  0  0  0  0  0
   -4.9454    1.9262   -1.7273 H   0  0  0  0  0  0  0  0  0  0  0  0
   -2.9018    1.6404   -1.1334 C   0  0  0  0  0  0  0  0  0  0  0  0
   -2.7294    2.3332   -0.3143 H   0  0  0  0  0  0  0  0  0  0  0  0
    0.5158   -0.2588    0.8019 C   0  0  0  0  0  0  0  0  0  0  0  0
    1.7210   -0.0418    0.8100 O   0  0  0  0  0  0  0  0  0  0  0  0
   -0.2437    0.1245    1.8932 N   0  0  0  0  0  0  0  0  0  0  0  0
   -1.2074   -0.1943    1.8818 H   0  0  0  0  0  0  0  0  0  0  0  0
    0.3527    0.4847    3.1731 C   0  0  0  0  0  0  0  0  0  0  0  0
    1.0189    1.3462    3.0578 H   0  0  0  0  0  0  0  0  0  0  0  0
   -0.4275    0.7479    3.8934 H   0  0  0  0  0  0  0  0  0  0  0  0
    0.9292   -0.3551    3.5753 H   0  0  0  0  0  0  0  0  0  0  0  0
  1  2  1  0  0  0  0
  2  3  1  0  0  0  0
  2  4  1  0  0  0  0
  2  5  1  0  0  0  0
  5  6  2  0  0  0  0
  5  7  1  0  0  0  0
  7  8  1  0  0  0  0
  7  9  1  0  0  0  0
  9 10  1  0  0  0  0
  9 11  1  0  0  0  0
  9 22  1  0  0  0  0
 11 12  1  0  0  0  0
 11 13  1  0  0  0  0
 11 14  1  0  0  0  0
 14 15  1  0  0  0  0
 14 20  2  0  0  0  0
 15 16  2  0  0  0  0
 16 17  1  0  0  0  0
 16 18  1  0  0  0  0
 18 19  1  0  0  0  0
 18 20  1  0  0  0  0
 20 21  1  0  0  0  0
 22 23  2  0  0  0  0
 22 24  1  0  0  0  0
 24 25  1  0  0  0  0
 24 26  1  0  0  0  0
 26 27  1  0  0  0  0
 26 28  1  0  0  0  0
 26 29  1  0  0  0  0
M  END
$$$$

  -OEChem-04042215593D

 29 29  0     1  0  0  0  0  0999 V2000
   -2.3049   -4.6540    0.4617 H   0  0  0  0  0  0  0  0  0  0  0  0
   -2.5150   -3.6812    0.0083 C   0  0  0  0  0  0  0  0  0  0  0  0
   -3.4029   -3.2553    0.4811 H   0  0  0  0  0  0  0  0  0  0  0  0
   -2.7103   -3.8245   -1.0572 H   0  0  0  0  0  0  0  0  0  0  0  0
   -1.3318   -2.7507    0.1962 C   0  0  0  0  0  0  0  0  0  0  0  0
   -0.3693   -3.1157    0.8476 O   0  0  0  0  0  0  0  0  0  0  0  0
   -1.3671   -1.4899   -0.3607 N   0  0  0  0  0  0  0  0  0  0  0  0
   -2.1242   -1.3290   -1.0288 H   0  0  0  0  0  0  0  0  0  0  0  0
   -0.1906   -0.6155   -0.5222 C   0  0  1  0  0  0  0  0  0  0  0  0
    0.5420   -1.1655   -1.1229 H   0  0  0  0  0  0  0  0  0  0  0  0
   -0.5480    0.6894   -1.2849 C   0  0  0  0  0  0  0  0  0  0  0  0
   -0.2838    1.5611   -0.6776 H   0  0  0  0  0  0  0  0  0  0  0  0
    0.0672    0.7358   -2.1883 H   0  0  0  0  0  0  0  0  0  0  0  0
   -1.9903    0.8148   -1.7027 C   0  0  0  0  0  0  0  0  0  0  0  0
   -2.6570   -0.0713   -2.5455 N   0  0  0  0  0  0  0  0  0  0  0  0
   -3.8687    0.4073   -2.7070 C   0  0  0  0  0  0  0  0  0  0  0  0
   -4.6397   -0.0487   -3.3218 H   0  0  0  0  0  0  0  0  0  0  0  0
   -4.0178    1.5697   -1.9752 N   0  0  0  0  0  0  0  0  0  0  0  0
   -4.8602    2.1422   -1.9462 H   0  0  0  0  0  0  0  0  0  0  0  0
   -2.8238    1.8348   -1.3385 C   0  0  0  0  0  0  0  0  0  0  0  0
   -2.5751    2.6762   -0.6975 H   0  0  0  0  0  0  0  0  0  0  0  0
    0.5134   -0.2547    0.8053 C   0  0  0  0  0  0  0  0  0  0  0  0
    1.7168   -0.0273    0.8097 O   0  0  0  0  0  0  0  0  0  0  0  0
   -0.2455    0.1220    1.8993 N   0  0  0  0  0  0  0  0  0  0  0  0
   -1.2107   -0.1931    1.8863 H   0  0  0  0  0  0  0  0  0  0  0  0
    0.3506    0.4843    3.1785 C   0  0  0  0  0  0  0  0  0  0  0  0
    1.0123    1.3493    3.0629 H   0  0  0  0  0  0  0  0  0  0  0  0
   -0.4305    0.7430    3.8995 H   0  0  0  0  0  0  0  0  0  0  0  0
    0.9312   -0.3534    3.5791 H   0  0  0  0  0  0  0  0  0  0  0  0
  1  2  1  0  0  0  0
  2  3  1  0  0  0  0
  2  4  1  0  0  0  0
  2  5  1  0  0  0  0
  5  6  2  0  0  0  0
  5  7  1  0  0  0  0
  7  8  1  0  0  0  0
  7  9  1  0  0  0  0
  9 10  1  0  0  0  0
  9 11  1  0  0  0  0
  9 22  1  0  0  0  0
 11 12  1  0  0  0  0
 11 13  1  0  0  0  0
 11 14  1  0  0  0  0
 14 15  1  0  0  0  0
 14 20  2  0  0  0  0
 15 16  2  0  0  0  0
 16 17  1  0  0  0  0
 16 18  1  0  0  0  0
 18 19  1  0  0  0  0
 18 20  1  0  0  0  0
 20 21  1  0  0  0  0
 22 23  2  0  0  0  0
 22 24  1  0  0  0  0
 24 25  1  0  0  0  0
 24 26  1  0  0  0  0
 26 27  1  0  0  0  0
 26 28  1  0  0  0  0
 26 29  1  0  0  0  0
M  END
$$$$

  -OEChem-04042215593D

 29 29  0     1  0  0  0  0  0999 V2000
   -2.2468   -4.6918    0.4875 H   0  0  0  0  0  0  0  0  0  0  0  0
   -2.4779   -3.7182    0.0459 C   0  0  0  0  0  0  0  0  0  0  0  0
   -3.3551   -3.3014    0.5462 H   0  0  0  0  0  0  0  0  0  0  0  0
   -2.7041   -3.8573   -1.0141 H   0  0  0  0  0  0  0  0  0  0  0  0
   -1.2974   -2.7789    0.2037 C   0  0  0  0  0  0  0  0  0  0  0  0
   -0.3131   -3.1393    0.8245 O   0  0  0  0  0  0  0  0  0  0  0  0
   -1.3559   -1.5180   -0.3503 N   0  0  0  0  0  0  0  0  0  0  0  0
   -2.1414   -1.3485   -0.9835 H   0  0  0  0  0  0  0  0  0  0  0  0
   -0.2006   -0.6199   -0.5182 C   0  0  1  0  0  0  0  0  0  0  0  0
    0.5397   -1.1607   -1.1178 H   0  0  0  0  0  0  0  0  0  0  0  0
   -0.5703    0.6797   -1.2876 C   0  0  0  0  0  0  0  0  0  0  0  0
   -0.3036    1.5541   -0.6853 H   0  0  0  0  0  0  0  0  0  0  0  0
    0.0532    0.7165   -2.1856 H   0  0  0  0  0  0  0  0  0  0  0  0
   -2.0059    0.8307   -1.7348 C   0  0  0  0  0  0  0  0  0  0  0  0
   -2.7926   -0.1462   -2.3471 N   0  0  0  0  0  0  0  0  0  0  0  0
   -3.9581    0.4065   -2.5920 C   0  0  0  0  0  0  0  0  0  0  0  0
   -4.7941   -0.0931   -3.0737 H   0  0  0  0  0  0  0  0  0  0  0  0
   -3.9641    1.7113   -2.1402 N   0  0  0  0  0  0  0  0  0  0  0  0
   -4.7473    2.3582   -2.2202 H   0  0  0  0  0  0  0  0  0  0  0  0
   -2.7272    1.9841   -1.5959 C   0  0  0  0  0  0  0  0  0  0  0  0
   -2.3786    2.9152   -1.1575 H   0  0  0  0  0  0  0  0  0  0  0  0
    0.5020   -0.2474    0.8067 C   0  0  0  0  0  0  0  0  0  0  0  0
    1.7011    0.0026    0.8065 O   0  0  0  0  0  0  0  0  0  0  0  0
   -0.2583    0.1114    1.9054 N   0  0  0  0  0  0  0  0  0  0  0  0
   -1.2208   -0.2120    1.8928 H   0  0  0  0  0  0  0  0  0  0  0  0
    0.3344    0.4865    3.1825 C   0  0  0  0  0  0  0  0  0  0  0  0
    0.9852    1.3589    3.0625 H   0  0  0  0  0  0  0  0  0  0  0  0
   -0.4490    0.7389    3.9031 H   0  0  0  0  0  0  0  0  0  0  0  0
    0.9260   -0.3418    3.5863 H   0  0  0  0  0  0  0  0  0  0  0  0
  1  2  1  0  0  0  0
  2  3  1  0  0  0  0
  2  4  1  0  0  0  0
  2  5  1  0  0  0  0
  5  6  2  0  0  0  0
  5  7  1  0  0  0  0
  7  8  1  0  0  0  0
  7  9  1  0  0  0  0
  9 10  1  0  0  0  0
  9 11  1  0  0  0  0
  9 22  1  0  0  0  0
 11 12  1  0  0  0  0
 11 13  1  0  0  0  0
 11 14  1  0  0  0  0
 14 15  1  0  0  0  0
 14 20  2  0  0  0  0
 15 16  2  0  0  0  0
 16 17  1  0  0  0  0
 16 18  1  0  0  0  0
 18 19  1  0  0  0  0
 18 20  1  0  0  0  0
 20 21  1  0  0  0  0
 22 23  2  0  0  0  0
 22 24  1  0  0  0  0
 24 25  1  0  0  0  0
 24 26  1  0  0  0  0
 26 27  1  0  0  0  0
 26 28  1  0  0  0  0
 26 29  1  0  0  0  0
M  END
$$$$

  -OEChem-04042215593D

 29 29  0     1  0  0  0  0  0999 V2000
   -2.1714   -4.7270    0.5468 H   0  0  0  0  0  0  0  0  0  0  0  0
   -2.4273   -3.7586    0.1082 C   0  0  0  0  0  0  0  0  0  0  0  0
   -3.2851   -3.3439    0.6425 H   0  0  0  0  0  0  0  0  0  0  0  0
   -2.6964   -3.9072   -0.9402 H   0  0  0  0  0  0  0  0  0  0  0  0
   -1.2472   -2.8110    0.2088 C   0  0  0  0  0  0  0  0  0  0  0  0
   -0.2319   -3.1636    0.7829 O   0  0  0  0  0  0  0  0  0  0  0  0
   -1.3385   -1.5521   -0.3455 N   0  0  0  0  0  0  0  0  0  0  0  0
   -2.1642   -1.3725   -0.9221 H   0  0  0  0  0  0  0  0  0  0  0  0
   -0.2104   -0.6249   -0.5257 C   0  0  1  0  0  0  0  0  0  0  0  0
    0.5393   -1.1523   -1.1259 H   0  0  0  0  0  0  0  0  0  0  0  0
   -0.5996    0.6694   -1.2972 C   0  0  0  0  0  0  0  0  0  0  0  0
   -0.3357    1.5455   -0.6959 H   0  0  0  0  0  0  0  0  0  0  0  0
    0.0289    0.7063   -2.1915 H   0  0  0  0  0  0  0  0  0  0  0  0
   -2.0304    0.8391   -1.7632 C   0  0  0  0  0  0  0  0  0  0  0  0
   -2.9450   -0.1517   -2.1289 N   0  0  0  0  0  0  0  0  0  0  0  0
   -4.0543    0.4613   -2.4709 C   0  0  0  0  0  0  0  0  0  0  0  0
   -4.9583   -0.0336   -2.8150 H   0  0  0  0  0  0  0  0  0  0  0  0
   -3.9016    1.8248   -2.3236 N   0  0  0  0  0  0  0  0  0  0  0  0
   -4.6145    2.5230   -2.5291 H   0  0  0  0  0  0  0  0  0  0  0  0
   -2.6219    2.0675   -1.8731 C   0  0  0  0  0  0  0  0  0  0  0  0
   -2.1604    3.0269   -1.6554 H   0  0  0  0  0  0  0  0  0  0  0  0
    0.4884   -0.2376    0.7969 C   0  0  0  0  0  0  0  0  0  0  0  0
    1.6817    0.0391    0.7945 O   0  0  0  0  0  0  0  0  0  0  0  0
   -0.2772    0.0984    1.8991 N   0  0  0  0  0  0  0  0  0  0  0  0
   -1.2374   -0.2313    1.8811 H   0  0  0  0  0  0  0  0  0  0  0  0
    0.3077    0.4772    3.1786 C   0  0  0  0  0  0  0  0  0  0  0  0
    0.9438    1.3611    3.0634 H   0  0  0  0  0  0  0  0  0  0  0  0
   -0.4808    0.7126    3.8997 H   0  0  0  0  0  0  0  0  0  0  0  0
    0.9127   -0.3431    3.5792 H   0  0  0  0  0  0  0  0  0  0  0  0
  1  2  1  0  0  0  0
  2  3  1  0  0  0  0
  2  4  1  0  0  0  0
  2  5  1  0  0  0  0
  5  6  2  0  0  0  0
  5  7  1  0  0  0  0
  7  8  1  0  0  0  0
  7  9  1  0  0  0  0
  9 10  1  0  0  0  0
  9 11  1  0  0  0  0
  9 22  1  0  0  0  0
 11 12  1  0  0  0  0
 11 13  1  0  0  0  0
 11 14  1  0  0  0  0
 14 15  1  0  0  0  0
 14 20  2  0  0  0  0
 15 16  2  0  0  0  0
 16 17  1  0  0  0  0
 16 18  1  0  0  0  0
 18 19  1  0  0  0  0
 18 20  1  0  0  0  0
 20 21  1  0  0  0  0
 22 23  2  0  0  0  0
 22 24  1  0  0  0  0
 24 25  1  0  0  0  0
 24 26  1  0  0  0  0
 26 27  1  0  0  0  0
 26 28  1  0  0  0  0
 26 29  1  0  0  0  0
M  END
$$$$

  -OEChem-04042215593D

 29 29  0     1  0  0  0  0  0999 V2000
   -2.1283   -4.7468    0.5883 H   0  0  0  0  0  0  0  0  0  0  0  0
   -2.4006   -3.7802    0.1553 C   0  0  0  0  0  0  0  0  0  0  0  0
   -3.2335   -3.3600    0.7241 H   0  0  0  0  0  0  0  0  0  0  0  0
   -2.7163   -3.9343   -0.8794 H   0  0  0  0  0  0  0  0  0  0  0  0
   -1.2142   -2.8357    0.1987 C   0  0  0  0  0  0  0  0  0  0  0  0
   -0.1703   -3.1946    0.7147 O   0  0  0  0  0  0  0  0  0  0  0  0
   -1.3289   -1.5737   -0.3434 N   0  0  0  0  0  0  0  0  0  0  0  0
   -2.1967   -1.3666   -0.8436 H   0  0  0  0  0  0  0  0  0  0  0  0
   -0.2220   -0.6237   -0.5284 C   0  0  1  0  0  0  0  0  0  0  0  0
    0.5319   -1.1379   -1.1347 H   0  0  0  0  0  0  0  0  0  0  0  0
   -0.6283    0.6684   -1.2976 C   0  0  0  0  0  0  0  0  0  0  0  0
   -0.3792    1.5424   -0.6866 H   0  0  0  0  0  0  0  0  0  0  0  0
    0.0083    0.7203   -2.1856 H   0  0  0  0  0  0  0  0  0  0  0  0
   -2.0562    0.8457   -1.7749 C   0  0  0  0  0  0  0  0  0  0  0  0
   -3.0778   -0.1006   -1.8927 N   0  0  0  0  0  0  0  0  0  0  0  0
   -4.1345    0.5300   -2.3501 C   0  0  0  0  0  0  0  0  0  0  0  0
   -5.0956    0.0672   -2.5559 H   0  0  0  0  0  0  0  0  0  0  0  0
   -3.8426    1.8668   -2.5260 N   0  0  0  0  0  0  0  0  0  0  0  0
   -4.4920    2.5712   -2.8725 H   0  0  0  0  0  0  0  0  0  0  0  0
   -2.5298    2.0701   -2.1603 C   0  0  0  0  0  0  0  0  0  0  0  0
   -1.9699    3.0011   -2.1738 H   0  0  0  0  0  0  0  0  0  0  0  0
    0.4814   -0.2343    0.7910 C   0  0  0  0  0  0  0  0  0  0  0  0
    1.6699    0.0617    0.7798 O   0  0  0  0  0  0  0  0  0  0  0  0
   -0.2781    0.0776    1.9046 N   0  0  0  0  0  0  0  0  0  0  0  0
   -1.2374   -0.2552    1.8909 H   0  0  0  0  0  0  0  0  0  0  0  0
    0.3106    0.4698    3.1783 C   0  0  0  0  0  0  0  0  0  0  0  0
    0.9230    1.3697    3.0581 H   0  0  0  0  0  0  0  0  0  0  0  0
   -0.4760    0.6847    3.9080 H   0  0  0  0  0  0  0  0  0  0  0  0
    0.9405   -0.3353    3.5714 H   0  0  0  0  0  0  0  0  0  0  0  0
  1  2  1  0  0  0  0
  2  3  1  0  0  0  0
  2  4  1  0  0  0  0
  2  5  1  0  0  0  0
  5  6  2  0  0  0  0
  5  7  1  0  0  0  0
  7  8  1  0  0  0  0
  7  9  1  0  0  0  0
  9 10  1  0  0  0  0
  9 11  1  0  0  0  0
  9 22  1  0  0  0  0
 11 12  1  0  0  0  0
 11 13  1  0  0  0  0
 11 14  1  0  0  0  0
 14 15  1  0  0  0  0
 14 20  2  0  0  0  0
 15 16  2  0  0  0  0
 16 17  1  0  0  0  0
 16 18  1  0  0  0  0
 18 19  1  0  0  0  0
 18 20  1  0  0  0  0
 20 21  1  0  0  0  0
 22 23  2  0  0  0  0
 22 24  1  0  0  0  0
 24 25  1  0  0  0  0
 24 26  1  0  0  0  0
 26 27  1  0  0  0  0
 26 28  1  0  0  0  0
 26 29  1  0  0  0  0
M  END
$$$$

  -OEChem-04042215593D

 29 29  0     1  0  0  0  0  0999 V2000
   -2.1290   -4.7306    0.6276 H   0  0  0  0  0  0  0  0  0  0  0  0
   -2.4021   -3.7629    0.1973 C   0  0  0  0  0  0  0  0  0  0  0  0
   -3.1984   -3.3198    0.8000 H   0  0  0  0  0  0  0  0  0  0  0  0
   -2.7697   -3.9204   -0.8196 H   0  0  0  0  0  0  0  0  0  0  0  0
   -1.1964   -2.8426    0.1740 C   0  0  0  0  0  0  0  0  0  0  0  0
   -0.1299   -3.2239    0.6234 O   0  0  0  0  0  0  0  0  0  0  0  0
   -1.3187   -1.5761   -0.3548 N   0  0  0  0  0  0  0  0  0  0  0  0
   -2.2218   -1.3303   -0.7668 H   0  0  0  0  0  0  0  0  0  0  0  0
   -0.2216   -0.6159   -0.5390 C   0  0  1  0  0  0  0  0  0  0  0  0
    0.5325   -1.1201   -1.1532 H   0  0  0  0  0  0  0  0  0  0  0  0
   -0.6400    0.6789   -1.2970 C   0  0  0  0  0  0  0  0  0  0  0  0
   -0.4084    1.5451   -0.6685 H   0  0  0  0  0  0  0  0  0  0  0  0
    0.0030    0.7556   -2.1787 H   0  0  0  0  0  0  0  0  0  0  0  0
   -2.0697    0.8577   -1.7699 C   0  0  0  0  0  0  0  0  0  0  0  0
   -3.1707    0.0064   -1.6407 N   0  0  0  0  0  0  0  0  0  0  0  0
   -4.1886    0.6035   -2.2155 C   0  0  0  0  0  0  0  0  0  0  0  0
   -5.1927    0.1947   -2.2844 H   0  0  0  0  0  0  0  0  0  0  0  0
   -3.7921    1.8254   -2.7176 N   0  0  0  0  0  0  0  0  0  0  0  0
   -4.3939    2.4841   -3.2097 H   0  0  0  0  0  0  0  0  0  0  0  0
   -2.4529    1.9889   -2.4376 C   0  0  0  0  0  0  0  0  0  0  0  0
   -1.8170    2.8335   -2.6881 H   0  0  0  0  0  0  0  0  0  0  0  0
    0.4857   -0.2353    0.7808 C   0  0  0  0  0  0  0  0  0  0  0  0
    1.6732    0.0651    0.7692 O   0  0  0  0  0  0  0  0  0  0  0  0
   -0.2708    0.0587    1.9011 N   0  0  0  0  0  0  0  0  0  0  0  0
   -1.2337   -0.2631    1.8828 H   0  0  0  0  0  0  0  0  0  0  0  0
    0.3178    0.4471    3.1760 C   0  0  0  0  0  0  0  0  0  0  0  0
    0.9142    1.3585    3.0621 H   0  0  0  0  0  0  0  0  0  0  0  0
   -0.4681    0.6400    3.9123 H   0  0  0  0  0  0  0  0  0  0  0  0
    0.9628   -0.3518    3.5569 H   0  0  0  0  0  0  0  0  0  0  0  0
  1  2  1  0  0  0  0
  2  3  1  0  0  0  0
  2  4  1  0  0  0  0
  2  5  1  0  0  0  0
  5  6  2  0  0  0  0
  5  7  1  0  0  0  0
  7  8  1  0  0  0  0
  7  9  1  0  0  0  0
  9 10  1  0  0  0  0
  9 11  1  0  0  0  0
  9 22  1  0  0  0  0
 11 12  1  0  0  0  0
 11 13  1  0  0  0  0
 11 14  1  0  0  0  0
 14 15  1  0  0  0  0
 14 20  2  0  0  0  0
 15 16  2  0  0  0  0
 16 17  1  0  0  0  0
 16 18  1  0  0  0  0
 18 19  1  0  0  0  0
 18 20  1  0  0  0  0
 20 21  1  0  0  0  0
 22 23  2  0  0  0  0
 22 24  1  0  0  0  0
 24 25  1  0  0  0  0
 24 26  1  0  0  0  0
 26 27  1  0  0  0  0
 26 28  1  0  0  0  0
 26 29  1  0  0  0  0
M  END
$$$$

  -OEChem-04042215593D

 29 29  0     1  0  0  0  0  0999 V2000
   -2.1673   -4.6926    0.6397 H   0  0  0  0  0  0  0  0  0  0  0  0
   -2.4324   -3.7202    0.2155 C   0  0  0  0  0  0  0  0  0  0  0  0
   -3.1899   -3.2530    0.8493 H   0  0  0  0  0  0  0  0  0  0  0  0
   -2.8470   -3.8727   -0.7839 H   0  0  0  0  0  0  0  0  0  0  0  0
   -1.2043   -2.8333    0.1352 C   0  0  0  0  0  0  0  0  0  0  0  0
   -0.1264   -3.2474    0.5242 O   0  0  0  0  0  0  0  0  0  0  0  0
   -1.3177   -1.5596   -0.3779 N   0  0  0  0  0  0  0  0  0  0  0  0
   -2.2428   -1.2644   -0.6985 H   0  0  0  0  0  0  0  0  0  0  0  0
   -0.2147   -0.6041   -0.5511 C   0  0  1  0  0  0  0  0  0  0  0  0
    0.5360   -1.1047   -1.1725 H   0  0  0  0  0  0  0  0  0  0  0  0
   -0.6281    0.7006   -1.2946 C   0  0  0  0  0  0  0  0  0  0  0  0
   -0.4099    1.5542   -0.6447 H   0  0  0  0  0  0  0  0  0  0  0  0
    0.0231    0.8016   -2.1678 H   0  0  0  0  0  0  0  0  0  0  0  0
   -2.0597    0.8811   -1.7599 C   0  0  0  0  0  0  0  0  0  0  0  0
   -3.2074    0.1711   -1.3959 N   0  0  0  0  0  0  0  0  0  0  0  0
   -4.2073    0.6838   -2.0744 C   0  0  0  0  0  0  0  0  0  0  0  0
   -5.2392    0.3499   -2.0106 H   0  0  0  0  0  0  0  0  0  0  0  0
   -3.7512    1.7057   -2.8809 N   0  0  0  0  0  0  0  0  0  0  0  0
   -4.3279    2.2625   -3.5097 H   0  0  0  0  0  0  0  0  0  0  0  0
   -2.3928    1.8310   -2.6863 C   0  0  0  0  0  0  0  0  0  0  0  0
   -1.7125    2.5322   -3.1616 H   0  0  0  0  0  0  0  0  0  0  0  0
    0.4947   -0.2448    0.7734 C   0  0  0  0  0  0  0  0  0  0  0  0
    1.6865    0.0381    0.7680 O   0  0  0  0  0  0  0  0  0  0  0  0
   -0.2591    0.0402    1.8980 N   0  0  0  0  0  0  0  0  0  0  0  0
   -1.2330   -0.2459    1.8687 H   0  0  0  0  0  0  0  0  0  0  0  0
    0.3288    0.4201    3.1756 C   0  0  0  0  0  0  0  0  0  0  0  0
    0.9268    1.3310    3.0673 H   0  0  0  0  0  0  0  0  0  0  0  0
   -0.4580    0.6106    3.9117 H   0  0  0  0  0  0  0  0  0  0  0  0
    0.9722   -0.3817    3.5528 H   0  0  0  0  0  0  0  0  0  0  0  0
  1  2  1  0  0  0  0
  2  3  1  0  0  0  0
  2  4  1  0  0  0  0
  2  5  1  0  0  0  0
  5  6  2  0  0  0  0
  5  7  1  0  0  0  0
  7  8  1  0  0  0  0
  7  9  1  0  0  0  0
  9 10  1  0  0  0  0
  9 11  1  0  0  0  0
  9 22  1  0  0  0  0
 11 12  1  0  0  0  0
 11 13  1  0  0  0  0
 11 14  1  0  0  0  0
 14 15  1  0  0  0  0
 14 20  2  0  0  0  0
 15 16  2  0  0  0  0
 16 17  1  0  0  0  0
 16 18  1  0  0  0  0
 18 19  1  0  0  0  0
 18 20  1  0  0  0  0
 20 21  1  0  0  0  0
 22 23  2  0  0  0  0
 22 24  1  0  0  0  0
 24 25  1  0  0  0  0
 24 26  1  0  0  0  0
 26 27  1  0  0  0  0
 26 28  1  0  0  0  0
 26 29  1  0  0  0  0
M  END
$$$$

  -OEChem-04042215593D

 29 29  0     1  0  0  0  0  0999 V2000
   -2.2260   -4.6311    0.6508 H   0  0  0  0  0  0  0  0  0  0  0  0
   -2.4734   -3.6550    0.2240 C   0  0  0  0  0  0  0  0  0  0  0  0
   -3.1863   -3.1524    0.8819 H   0  0  0  0  0  0  0  0  0  0  0  0
   -2.9344   -3.8048   -0.7551 H   0  0  0  0  0  0  0  0  0  0  0  0
   -1.2189   -2.8145    0.0810 C   0  0  0  0  0  0  0  0  0  0  0  0
   -0.1385   -3.2707    0.4110 O   0  0  0  0  0  0  0  0  0  0  0  0
   -1.3096   -1.5354   -0.4232 N   0  0  0  0  0  0  0  0  0  0  0  0
   -2.2428   -1.1855   -0.6510 H   0  0  0  0  0  0  0  0  0  0  0  0
   -0.1894   -0.5952   -0.5725 C   0  0  1  0  0  0  0  0  0  0  0  0
    0.5630   -1.0965   -1.1911 H   0  0  0  0  0  0  0  0  0  0  0  0
   -0.5873    0.7195   -1.3042 C   0  0  0  0  0  0  0  0  0  0  0  0
   -0.3785    1.5648   -0.6407 H   0  0  0  0  0  0  0  0  0  0  0  0
    0.0713    0.8335   -2.1702 H   0  0  0  0  0  0  0  0  0  0  0  0
   -2.0192    0.8904   -1.7659 C   0  0  0  0  0  0  0  0  0  0  0  0
   -3.1791    0.3611   -1.1933 N   0  0  0  0  0  0  0  0  0  0  0  0
   -4.1865    0.7657   -1.9319 C   0  0  0  0  0  0  0  0  0  0  0  0
   -5.2301    0.5272   -1.7461 H   0  0  0  0  0  0  0  0  0  0  0  0
   -3.7214    1.5321   -2.9811 N   0  0  0  0  0  0  0  0  0  0  0  0
   -4.3021    1.9597   -3.7007 H   0  0  0  0  0  0  0  0  0  0  0  0
   -2.3492    1.6107   -2.8808 C   0  0  0  0  0  0  0  0  0  0  0  0
   -1.6597    2.1327   -3.5384 H   0  0  0  0  0  0  0  0  0  0  0  0
    0.5047   -0.2591    0.7658 C   0  0  0  0  0  0  0  0  0  0  0  0
    1.7038   -0.0111    0.7871 O   0  0  0  0  0  0  0  0  0  0  0  0
   -0.2623    0.0276    1.8809 N   0  0  0  0  0  0  0  0  0  0  0  0
   -1.2511   -0.1957    1.8198 H   0  0  0  0  0  0  0  0  0  0  0  0
    0.3056    0.3970    3.1705 C   0  0  0  0  0  0  0  0  0  0  0  0
    0.9197    1.2986    3.0754 H   0  0  0  0  0  0  0  0  0  0  0  0
   -0.4927    0.5983    3.8910 H   0  0  0  0  0  0  0  0  0  0  0  0
    0.9286   -0.4152    3.5596 H   0  0  0  0  0  0  0  0  0  0  0  0
  1  2  1  0  0  0  0
  2  3  1  0  0  0  0
  2  4  1  0  0  0  0
  2  5  1  0  0  0  0
  5  6  2  0  0  0  0
  5  7  1  0  0  0  0
  7  8  1  0  0  0  0
  7  9  1  0  0  0  0
  9 10  1  0  0  0  0
  9 11  1  0  0  0  0
  9 22  1  0  0  0  0
 11 12  1  0  0  0  0
 11 13  1  0  0  0  0
 11 14  1  0  0  0  0
 14 15  1  0  0  0  0
 14 20  2  0  0  0  0
 15 16  2  0  0  0  0
 16 17  1  0  0  0  0
 16 18  1  0  0  0  0
 18 19  1  0  0  0  0
 18 20  1  0  0  0  0
 20 21  1  0  0  0  0
 22 23  2  0  0  0  0
 22 24  1  0  0  0  0
 24 25  1  0  0  0  0
 24 26  1  0  0  0  0
 26 27  1  0  0  0  0
 26 28  1  0  0  0  0
 26 29  1  0  0  0  0
M  END
$$$$

  -OEChem-04042215593D

 29 29  0     1  0  0  0  0  0999 V2000
   -2.2884   -4.5735    0.6421 H   0  0  0  0  0  0  0  0  0  0  0  0
   -2.5152   -3.5916    0.2173 C   0  0  0  0  0  0  0  0  0  0  0  0
   -3.1868   -3.0601    0.8955 H   0  0  0  0  0  0  0  0  0  0  0  0
   -3.0140   -3.7301   -0.7448 H   0  0  0  0  0  0  0  0  0  0  0  0
   -1.2369   -2.7974    0.0269 C   0  0  0  0  0  0  0  0  0  0  0  0
   -0.1627   -3.2909    0.3214 O   0  0  0  0  0  0  0  0  0  0  0  0
   -1.2991   -1.5165   -0.4774 N   0  0  0  0  0  0  0  0  0  0  0  0
   -2.2285   -1.1203   -0.6334 H   0  0  0  0  0  0  0  0  0  0  0  0
   -0.1566   -0.5964   -0.5948 C   0  0  1  0  0  0  0  0  0  0  0  0
    0.6022   -1.1024   -1.2022 H   0  0  0  0  0  0  0  0  0  0  0  0
   -0.5314    0.7268   -1.3191 C   0  0  0  0  0  0  0  0  0  0  0  0
   -0.3303    1.5703   -0.6510 H   0  0  0  0  0  0  0  0  0  0  0  0
    0.1324    0.8434   -2.1807 H   0  0  0  0  0  0  0  0  0  0  0  0
   -1.9623    0.8719   -1.7811 C   0  0  0  0  0  0  0  0  0  0  0  0
   -3.1054    0.5596   -1.0419 N   0  0  0  0  0  0  0  0  0  0  0  0
   -4.1353    0.8516   -1.8028 C   0  0  0  0  0  0  0  0  0  0  0  0
   -5.1761    0.7295   -1.5151 H   0  0  0  0  0  0  0  0  0  0  0  0
   -3.6995    1.3297   -3.0228 N   0  0  0  0  0  0  0  0  0  0  0  0
   -4.3028    1.6311   -3.7868 H   0  0  0  0  0  0  0  0  0  0  0  0
   -2.3211    1.3436   -3.0128 C   0  0  0  0  0  0  0  0  0  0  0  0
   -1.6484    1.6663   -3.8026 H   0  0  0  0  0  0  0  0  0  0  0  0
    0.5087   -0.2764    0.7617 C   0  0  0  0  0  0  0  0  0  0  0  0
    1.7140   -0.0683    0.8190 O   0  0  0  0  0  0  0  0  0  0  0  0
   -0.2799    0.0229    1.8583 N   0  0  0  0  0  0  0  0  0  0  0  0
   -1.2804   -0.1187    1.7553 H   0  0  0  0  0  0  0  0  0  0  0  0
    0.2594    0.3983    3.1584 C   0  0  0  0  0  0  0  0  0  0  0  0
    0.8574    1.3120    3.0762 H   0  0  0  0  0  0  0  0  0  0  0  0
   -0.5542    0.5804    3.8668 H   0  0  0  0  0  0  0  0  0  0  0  0
    0.8916   -0.4031    3.5547 H   0  0  0  0  0  0  0  0  0  0  0  0
  1  2  1  0  0  0  0
  2  3  1  0  0  0  0
  2  4  1  0  0  0  0
  2  5  1  0  0  0  0
  5  6  2  0  0  0  0
  5  7  1  0  0  0  0
  7  8  1  0  0  0  0
  7  9  1  0  0  0  0
  9 10  1  0  0  0  0
  9 11  1  0  0  0  0
  9 22  1  0  0  0  0
 11 12  1  0  0  0  0
 11 13  1  0  0  0  0
 11 14  1  0  0  0  0
 14 15  1  0  0  0  0
 14 20  2  0  0  0  0
 15 16  2  0  0  0  0
 16 17  1  0  0  0  0
 16 18  1  0  0  0  0
 18 19  1  0  0  0  0
 18 20  1  0  0  0  0
 20 21  1  0  0  0  0
 22 23  2  0  0  0  0
 22 24  1  0  0  0  0
 24 25  1  0  0  0  0
 24 26  1  0  0  0  0
 26 27  1  0  0  0  0
 26 28  1  0  0  0  0
 26 29  1  0  0  0  0
M  END
$$$$

  -OEChem-04042215593D

 29 29  0     1  0  0  0  0  0999 V2000
   -2.3350   -4.5299    0.6211 H   0  0  0  0  0  0  0  0  0  0  0  0
   -2.5440   -3.5427    0.1992 C   0  0  0  0  0  0  0  0  0  0  0  0
   -3.1869   -2.9933    0.8911 H   0  0  0  0  0  0  0  0  0  0  0  0
   -3.0663   -3.6690   -0.7522 H   0  0  0  0  0  0  0  0  0  0  0  0
   -1.2491   -2.7835   -0.0188 C   0  0  0  0  0  0  0  0  0  0  0  0
   -0.1828   -3.3070    0.2514 O   0  0  0  0  0  0  0  0  0  0  0  0
   -1.2874   -1.5017   -0.5242 N   0  0  0  0  0  0  0  0  0  0  0  0
   -2.2086   -1.0736   -0.6318 H   0  0  0  0  0  0  0  0  0  0  0  0
   -0.1254   -0.5997   -0.6118 C   0  0  1  0  0  0  0  0  0  0  0  0
    0.6404   -1.1091   -1.2071 H   0  0  0  0  0  0  0  0  0  0  0  0
   -0.4819    0.7291   -1.3309 C   0  0  0  0  0  0  0  0  0  0  0  0
   -0.2849    1.5761   -0.6660 H   0  0  0  0  0  0  0  0  0  0  0  0
    0.1810    0.8419   -2.1935 H   0  0  0  0  0  0  0  0  0  0  0  0
   -1.9117    0.8409   -1.7918 C   0  0  0  0  0  0  0  0  0  0  0  0
   -3.0179    0.7809   -0.9457 N   0  0  0  0  0  0  0  0  0  0  0  0
   -4.0743    0.9630   -1.7043 C   0  0  0  0  0  0  0  0  0  0  0  0
   -5.1000    0.9827   -1.3467 H   0  0  0  0  0  0  0  0  0  0  0  0
   -3.6889    1.1182   -3.0220 N   0  0  0  0  0  0  0  0  0  0  0  0
   -4.3211    1.2804   -3.8046 H   0  0  0  0  0  0  0  0  0  0  0  0
   -2.3133    1.0458   -3.0815 C   0  0  0  0  0  0  0  0  0  0  0  0
   -1.6714    1.1428   -3.9527 H   0  0  0  0  0  0  0  0  0  0  0  0
    0.5106   -0.2932    0.7617 C   0  0  0  0  0  0  0  0  0  0  0  0
    1.7191   -0.1211    0.8553 O   0  0  0  0  0  0  0  0  0  0  0  0
   -0.3019    0.0181    1.8375 N   0  0  0  0  0  0  0  0  0  0  0  0
   -1.3048   -0.0503    1.6918 H   0  0  0  0  0  0  0  0  0  0  0  0
    0.2062    0.4123    3.1444 C   0  0  0  0  0  0  0  0  0  0  0  0
    0.8011    1.3280    3.0642 H   0  0  0  0  0  0  0  0  0  0  0  0
   -0.6241    0.5975    3.8324 H   0  0  0  0  0  0  0  0  0  0  0  0
    0.8336   -0.3809    3.5644 H   0  0  0  0  0  0  0  0  0  0  0  0
  1  2  1  0  0  0  0
  2  3  1  0  0  0  0
  2  4  1  0  0  0  0
  2  5  1  0  0  0  0
  5  6  2  0  0  0  0
  5  7  1  0  0  0  0
  7  8  1  0  0  0  0
  7  9  1  0  0  0  0
  9 10  1  0  0  0  0
  9 11  1  0  0  0  0
  9 22  1  0  0  0  0
 11 12  1  0  0  0  0
 11 13  1  0  0  0  0
 11 14  1  0  0  0  0
 14 15  1  0  0  0  0
 14 20  2  0  0  0  0
 15 16  2  0  0  0  0
 16 17  1  0  0  0  0
 16 18  1  0  0  0  0
 18 19  1  0  0  0  0
 18 20  1  0  0  0  0
 20 21  1  0  0  0  0
 22 23  2  0  0  0  0
 22 24  1  0  0  0  0
 24 25  1  0  0  0  0
 24 26  1  0  0  0  0
 26 27  1  0  0  0  0
 26 28  1  0  0  0  0
 26 29  1  0  0  0  0
M  END
$$$$

  -OEChem-04042215593D

 29 29  0     1  0  0  0  0  0999 V2000
   -2.3474   -4.5295    0.6011 H   0  0  0  0  0  0  0  0  0  0  0  0
   -2.5544   -3.5384    0.1877 C   0  0  0  0  0  0  0  0  0  0  0  0
   -3.1887   -2.9904    0.8886 H   0  0  0  0  0  0  0  0  0  0  0  0
   -3.0850   -3.6555   -0.7602 H   0  0  0  0  0  0  0  0  0  0  0  0
   -1.2565   -2.7860   -0.0358 C   0  0  0  0  0  0  0  0  0  0  0  0
   -0.1918   -3.3176    0.2240 O   0  0  0  0  0  0  0  0  0  0  0  0
   -1.2896   -1.5031   -0.5401 N   0  0  0  0  0  0  0  0  0  0  0  0
   -2.2086   -1.0712   -0.6368 H   0  0  0  0  0  0  0  0  0  0  0  0
   -0.1188   -0.6079   -0.6135 C   0  0  1  0  0  0  0  0  0  0  0  0
    0.6506   -1.1189   -1.2032 H   0  0  0  0  0  0  0  0  0  0  0  0
   -0.4627    0.7234   -1.3305 C   0  0  0  0  0  0  0  0  0  0  0  0
   -0.2649    1.5752   -0.6718 H   0  0  0  0  0  0  0  0  0  0  0  0
    0.1985    0.8297   -2.1954 H   0  0  0  0  0  0  0  0  0  0  0  0
   -1.8905    0.8144   -1.7911 C   0  0  0  0  0  0  0  0  0  0  0  0
   -2.9621    1.0387   -0.9334 N   0  0  0  0  0  0  0  0  0  0  0  0
   -4.0309    1.1232   -1.6917 C   0  0  0  0  0  0  0  0  0  0  0  0
   -5.0380    1.3087   -1.3283 H   0  0  0  0  0  0  0  0  0  0  0  0
   -3.6857    0.9361   -3.0170 N   0  0  0  0  0  0  0  0  0  0  0  0
   -4.3321    0.9712   -3.8040 H   0  0  0  0  0  0  0  0  0  0  0  0
   -2.3214    0.7479   -3.0856 C   0  0  0  0  0  0  0  0  0  0  0  0
   -1.7054    0.5960   -3.9680 H   0  0  0  0  0  0  0  0  0  0  0  0
    0.5059   -0.3086    0.7670 C   0  0  0  0  0  0  0  0  0  0  0  0
    1.7153   -0.1515    0.8735 O   0  0  0  0  0  0  0  0  0  0  0  0
   -0.3142    0.0066    1.8362 N   0  0  0  0  0  0  0  0  0  0  0  0
   -1.3157   -0.0047    1.6669 H   0  0  0  0  0  0  0  0  0  0  0  0
    0.1855    0.4350    3.1357 C   0  0  0  0  0  0  0  0  0  0  0  0
    0.7292    1.3810    3.0440 H   0  0  0  0  0  0  0  0  0  0  0  0
   -0.6462    0.5786    3.8320 H   0  0  0  0  0  0  0  0  0  0  0  0
    0.8590   -0.3205    3.5541 H   0  0  0  0  0  0  0  0  0  0  0  0
  1  2  1  0  0  0  0
  2  3  1  0  0  0  0
  2  4  1  0  0  0  0
  2  5  1  0  0  0  0
  5  6  2  0  0  0  0
  5  7  1  0  0  0  0
  7  8  1  0  0  0  0
  7  9  1  0  0  0  0
  9 10  1  0  0  0  0
  9 11  1  0  0  0  0
  9 22  1  0  0  0  0
 11 12  1  0  0  0  0
 11 13  1  0  0  0  0
 11 14  1  0  0  0  0
 14 15  1  0  0  0  0
 14 20  2  0  0  0  0
 15 16  2  0  0  0  0
 16 17  1  0  0  0  0
 16 18  1  0  0  0  0
 18 19  1  0  0  0  0
 18 20  1  0  0  0  0
 20 21  1  0  0  0  0
 22 23  2  0  0  0  0
 22 24  1  0  0  0  0
 24 25  1  0  0  0  0
 24 26  1  0  0  0  0
 26 27  1  0  0  0  0
 26 28  1  0  0  0  0
 26 29  1  0  0  0  0
M  END
$$$$

  -OEChem-04042215593D

 29 29  0     1  0  0  0  0  0999 V2000
   -2.3369   -4.5555    0.5919 H   0  0  0  0  0  0  0  0  0  0  0  0
   -2.5509   -3.5641    0.1821 C   0  0  0  0  0  0  0  0  0  0  0  0
   -3.2004   -3.0284    0.8785 H   0  0  0  0  0  0  0  0  0  0  0  0
   -3.0684   -3.6821   -0.7729 H   0  0  0  0  0  0  0  0  0  0  0  0
   -1.2595   -2.7943   -0.0199 C   0  0  0  0  0  0  0  0  0  0  0  0
   -0.1928   -3.3133    0.2553 O   0  0  0  0  0  0  0  0  0  0  0  0
   -1.2999   -1.5114   -0.5249 N   0  0  0  0  0  0  0  0  0  0  0  0
   -2.2211   -1.0982   -0.6563 H   0  0  0  0  0  0  0  0  0  0  0  0
   -0.1313   -0.6119   -0.6018 C   0  0  1  0  0  0  0  0  0  0  0  0
    0.6368   -1.1243   -1.1921 H   0  0  0  0  0  0  0  0  0  0  0  0
   -0.4728    0.7169   -1.3231 C   0  0  0  0  0  0  0  0  0  0  0  0
   -0.2714    1.5736   -0.6716 H   0  0  0  0  0  0  0  0  0  0  0  0
    0.1867    0.8154   -2.1902 H   0  0  0  0  0  0  0  0  0  0  0  0
   -1.8983    0.8055   -1.7860 C   0  0  0  0  0  0  0  0  0  0  0  0
   -2.9299    1.3191   -1.0120 N   0  0  0  0  0  0  0  0  0  0  0  0
   -4.0030    1.3075   -1.7678 C   0  0  0  0  0  0  0  0  0  0  0  0
   -4.9839    1.6588   -1.4597 H   0  0  0  0  0  0  0  0  0  0  0  0
   -3.6995    0.7794   -3.0089 N   0  0  0  0  0  0  0  0  0  0  0  0
   -4.3541    0.6867   -3.7843 H   0  0  0  0  0  0  0  0  0  0  0  0
   -2.3561    0.4695   -3.0286 C   0  0  0  0  0  0  0  0  0  0  0  0
   -1.7682    0.0651   -3.8482 H   0  0  0  0  0  0  0  0  0  0  0  0
    0.5014   -0.3060    0.7737 C   0  0  0  0  0  0  0  0  0  0  0  0
    1.7117   -0.1495    0.8704 O   0  0  0  0  0  0  0  0  0  0  0  0
   -0.3101    0.0099    1.8492 N   0  0  0  0  0  0  0  0  0  0  0  0
   -1.3128    0.0015    1.6889 H   0  0  0  0  0  0  0  0  0  0  0  0
    0.2019    0.4489    3.1404 C   0  0  0  0  0  0  0  0  0  0  0  0
    0.7414    1.3959    3.0362 H   0  0  0  0  0  0  0  0  0  0  0  0
   -0.6227    0.5943    3.8446 H   0  0  0  0  0  0  0  0  0  0  0  0
    0.8828   -0.3015    3.5560 H   0  0  0  0  0  0  0  0  0  0  0  0
  1  2  1  0  0  0  0
  2  3  1  0  0  0  0
  2  4  1  0  0  0  0
  2  5  1  0  0  0  0
  5  6  2  0  0  0  0
  5  7  1  0  0  0  0
  7  8  1  0  0  0  0
  7  9  1  0  0  0  0
  9 10  1  0  0  0  0
  9 11  1  0  0  0  0
  9 22  1  0  0  0  0
 11 12  1  0  0  0  0
 11 13  1  0  0  0  0
 11 14  1  0  0  0  0
 14 15  1  0  0  0  0
 14 20  2  0  0  0  0
 15 16  2  0  0  0  0
 16 17  1  0  0  0  0
 16 18  1  0  0  0  0
 18 19  1  0  0  0  0
 18 20  1  0  0  0  0
 20 21  1  0  0  0  0
 22 23  2  0  0  0  0
 22 24  1  0  0  0  0
 24 25  1  0  0  0  0
 24 26  1  0  0  0  0
 26 27  1  0  0  0  0
 26 28  1  0  0  0  0
 26 29  1  0  0  0  0
M  END
$$$$

  -OEChem-04042215593D

 29 29  0     1  0  0  0  0  0999 V2000
   -2.3198   -4.5780    0.5988 H   0  0  0  0  0  0  0  0  0  0  0  0
   -2.5401   -3.5911    0.1818 C   0  0  0  0  0  0  0  0  0  0  0  0
   -3.2179   -3.0667    0.8597 H   0  0  0  0  0  0  0  0  0  0  0  0
   -3.0295   -3.7196   -0.7866 H   0  0  0  0  0  0  0  0  0  0  0  0
   -1.2578   -2.7984    0.0138 C   0  0  0  0  0  0  0  0  0  0  0  0
   -0.1903   -3.2965    0.3211 O   0  0  0  0  0  0  0  0  0  0  0  0
   -1.3082   -1.5169   -0.4944 N   0  0  0  0  0  0  0  0  0  0  0  0
   -2.2304   -1.1332   -0.6871 H   0  0  0  0  0  0  0  0  0  0  0  0
   -0.1472   -0.6082   -0.5859 C   0  0  1  0  0  0  0  0  0  0  0  0
    0.6184   -1.1226   -1.1778 H   0  0  0  0  0  0  0  0  0  0  0  0
   -0.4944    0.7134   -1.3190 C   0  0  0  0  0  0  0  0  0  0  0  0
   -0.2902    1.5751   -0.6746 H   0  0  0  0  0  0  0  0  0  0  0  0
    0.1633    0.8065   -2.1879 H   0  0  0  0  0  0  0  0  0  0  0  0
   -1.9187    0.8069   -1.7867 C   0  0  0  0  0  0  0  0  0  0  0  0
   -2.8901    1.5832   -1.1721 N   0  0  0  0  0  0  0  0  0  0  0  0
   -3.9735    1.4781   -1.9049 C   0  0  0  0  0  0  0  0  0  0  0  0
   -4.9153    1.9785   -1.6971 H   0  0  0  0  0  0  0  0  0  0  0  0
   -3.7362    0.6375   -2.9768 N   0  0  0  0  0  0  0  0  0  0  0  0
   -4.4059    0.4215   -3.7139 H   0  0  0  0  0  0  0  0  0  0  0  0
   -2.4236    0.2201   -2.9136 C   0  0  0  0  0  0  0  0  0  0  0  0
   -1.8820   -0.4150   -3.6097 H   0  0  0  0  0  0  0  0  0  0  0  0
    0.5003   -0.2895    0.7802 C   0  0  0  0  0  0  0  0  0  0  0  0
    1.7104   -0.1224    0.8587 O   0  0  0  0  0  0  0  0  0  0  0  0
   -0.2966    0.0258    1.8668 N   0  0  0  0  0  0  0  0  0  0  0  0
   -1.3017   -0.0300    1.7367 H   0  0  0  0  0  0  0  0  0  0  0  0
    0.2334    0.4471    3.1568 C   0  0  0  0  0  0  0  0  0  0  0  0
    0.8074    1.3737    3.0513 H   0  0  0  0  0  0  0  0  0  0  0  0
   -0.5841    0.6246    3.8620 H   0  0  0  0  0  0  0  0  0  0  0  0
    0.8865   -0.3279    3.5719 H   0  0  0  0  0  0  0  0  0  0  0  0
  1  2  1  0  0  0  0
  2  3  1  0  0  0  0
  2  4  1  0  0  0  0
  2  5  1  0  0  0  0
  5  6  2  0  0  0  0
  5  7  1  0  0  0  0
  7  8  1  0  0  0  0
  7  9  1  0  0  0  0
  9 10  1  0  0  0  0
  9 11  1  0  0  0  0
  9 22  1  0  0  0  0
 11 12  1  0  0  0  0
 11 13  1  0  0  0  0
 11 14  1  0  0  0  0
 14 15  1  0  0  0  0
 14 20  2  0  0  0  0
 15 16  2  0  0  0  0
 16 17  1  0  0  0  0
 16 18  1  0  0  0  0
 18 19  1  0  0  0  0
 18 20  1  0  0  0  0
 20 21  1  0  0  0  0
 22 23  2  0  0  0  0
 22 24  1  0  0  0  0
 24 25  1  0  0  0  0
 24 26  1  0  0  0  0
 26 27  1  0  0  0  0
 26 28  1  0  0  0  0
 26 29  1  0  0  0  0
M  END
$$$$

  -OEChem-04042215593D

 29 29  0     1  0  0  0  0  0999 V2000
   -2.2708   -4.6158    0.6270 H   0  0  0  0  0  0  0  0  0  0  0  0
   -2.5088   -3.6347    0.2060 C   0  0  0  0  0  0  0  0  0  0  0  0
   -3.2077   -3.1263    0.8744 H   0  0  0  0  0  0  0  0  0  0  0  0
   -2.9821   -3.7758   -0.7686 H   0  0  0  0  0  0  0  0  0  0  0  0
   -1.2431   -2.8123    0.0539 C   0  0  0  0  0  0  0  0  0  0  0  0
   -0.1687   -3.2848    0.3764 O   0  0  0  0  0  0  0  0  0  0  0  0
   -1.3152   -1.5333   -0.4588 N   0  0  0  0  0  0  0  0  0  0  0  0
   -2.2403   -1.1769   -0.6847 H   0  0  0  0  0  0  0  0  0  0  0  0
   -0.1671   -0.6106   -0.5683 C   0  0  1  0  0  0  0  0  0  0  0  0
    0.5976   -1.1248   -1.1616 H   0  0  0  0  0  0  0  0  0  0  0  0
   -0.5242    0.7015   -1.3165 C   0  0  0  0  0  0  0  0  0  0  0  0
   -0.3237    1.5649   -0.6734 H   0  0  0  0  0  0  0  0  0  0  0  0
    0.1373    0.7963   -2.1823 H   0  0  0  0  0  0  0  0  0  0  0  0
   -1.9458    0.8075   -1.7955 C   0  0  0  0  0  0  0  0  0  0  0  0
   -2.8246    1.8025   -1.3939 N   0  0  0  0  0  0  0  0  0  0  0  0
   -3.9264    1.6374   -2.0862 C   0  0  0  0  0  0  0  0  0  0  0  0
   -4.8094    2.2655   -2.0081 H   0  0  0  0  0  0  0  0  0  0  0  0
   -3.7926    0.5499   -2.9291 N   0  0  0  0  0  0  0  0  0  0  0  0
   -4.4912    0.2416   -3.6040 H   0  0  0  0  0  0  0  0  0  0  0  0
   -2.5258    0.0311   -2.7623 C   0  0  0  0  0  0  0  0  0  0  0  0
   -2.0577   -0.7919   -3.2962 H   0  0  0  0  0  0  0  0  0  0  0  0
    0.4952   -0.2768    0.7878 C   0  0  0  0  0  0  0  0  0  0  0  0
    1.7037   -0.0919    0.8468 O   0  0  0  0  0  0  0  0  0  0  0  0
   -0.2886    0.0340    1.8851 N   0  0  0  0  0  0  0  0  0  0  0  0
   -1.2923   -0.0736    1.7837 H   0  0  0  0  0  0  0  0  0  0  0  0
    0.2577    0.4449    3.1718 C   0  0  0  0  0  0  0  0  0  0  0  0
    0.8505    1.3591    3.0630 H   0  0  0  0  0  0  0  0  0  0  0  0
   -0.5518    0.6409    3.8812 H   0  0  0  0  0  0  0  0  0  0  0  0
    0.8966   -0.3432    3.5840 H   0  0  0  0  0  0  0  0  0  0  0  0
  1  2  1  0  0  0  0
  2  3  1  0  0  0  0
  2  4  1  0  0  0  0
  2  5  1  0  0  0  0
  5  6  2  0  0  0  0
  5  7  1  0  0  0  0
  7  8  1  0  0  0  0
  7  9  1  0  0  0  0
  9 10  1  0  0  0  0
  9 11  1  0  0  0  0
  9 22  1  0  0  0  0
 11 12  1  0  0  0  0
 11 13  1  0  0  0  0
 11 14  1  0  0  0  0
 14 15  1  0  0  0  0
 14 20  2  0  0  0  0
 15 16  2  0  0  0  0
 16 17  1  0  0  0  0
 16 18  1  0  0  0  0
 18 19  1  0  0  0  0
 18 20  1  0  0  0  0
 20 21  1  0  0  0  0
 22 23  2  0  0  0  0
 22 24  1  0  0  0  0
 24 25  1  0  0  0  0
 24 26  1  0  0  0  0
 26 27  1  0  0  0  0
 26 28  1  0  0  0  0
 26 29  1  0  0  0  0
M  END
$$$$

  -OEChem-04042215593D

 29 29  0     1  0  0  0  0  0999 V2000
   -2.1970   -4.6620    0.6862 H   0  0  0  0  0  0  0  0  0  0  0  0
   -2.4607   -3.6872    0.2659 C   0  0  0  0  0  0  0  0  0  0  0  0
   -3.1566   -3.1888    0.9449 H   0  0  0  0  0  0  0  0  0  0  0  0
   -2.9490   -3.8409   -0.6993 H   0  0  0  0  0  0  0  0  0  0  0  0
   -1.2135   -2.8423    0.0875 C   0  0  0  0  0  0  0  0  0  0  0  0
   -0.1244   -3.2954    0.3870 O   0  0  0  0  0  0  0  0  0  0  0  0
   -1.3201   -1.5645   -0.4231 N   0  0  0  0  0  0  0  0  0  0  0  0
   -2.2572   -1.2229   -0.6191 H   0  0  0  0  0  0  0  0  0  0  0  0
   -0.1930   -0.6194   -0.5504 C   0  0  1  0  0  0  0  0  0  0  0  0
    0.5720   -1.1268   -1.1496 H   0  0  0  0  0  0  0  0  0  0  0  0
   -0.5658    0.6848   -1.3083 C   0  0  0  0  0  0  0  0  0  0  0  0
   -0.3736    1.5467   -0.6606 H   0  0  0  0  0  0  0  0  0  0  0  0
    0.1018    0.7887   -2.1684 H   0  0  0  0  0  0  0  0  0  0  0  0
   -1.9839    0.8072   -1.8026 C   0  0  0  0  0  0  0  0  0  0  0  0
   -2.7413    1.9594   -1.6482 N   0  0  0  0  0  0  0  0  0  0  0  0
   -3.8636    1.7717   -2.2997 C   0  0  0  0  0  0  0  0  0  0  0  0
   -4.6691    2.4972   -2.3725 H   0  0  0  0  0  0  0  0  0  0  0  0
   -3.8611    0.5202   -2.8857 N   0  0  0  0  0  0  0  0  0  0  0  0
   -4.5925    0.1574   -3.4954 H   0  0  0  0  0  0  0  0  0  0  0  0
   -2.6565   -0.0850   -2.5969 C   0  0  0  0  0  0  0  0  0  0  0  0
   -2.2816   -1.0397   -2.9567 H   0  0  0  0  0  0  0  0  0  0  0  0
    0.4850   -0.2724    0.7951 C   0  0  0  0  0  0  0  0  0  0  0  0
    1.6902   -0.0626    0.8333 O   0  0  0  0  0  0  0  0  0  0  0  0
   -0.2847    0.0228    1.9069 N   0  0  0  0  0  0  0  0  0  0  0  0
   -1.2860   -0.1191    1.8297 H   0  0  0  0  0  0  0  0  0  0  0  0
    0.2784    0.4423    3.1839 C   0  0  0  0  0  0  0  0  0  0  0  0
    0.8249    1.3847    3.0708 H   0  0  0  0  0  0  0  0  0  0  0  0
   -0.5189    0.5906    3.9185 H   0  0  0  0  0  0  0  0  0  0  0  0
    0.9648   -0.3199    3.5675 H   0  0  0  0  0  0  0  0  0  0  0  0
  1  2  1  0  0  0  0
  2  3  1  0  0  0  0
  2  4  1  0  0  0  0
  2  5  1  0  0  0  0
  5  6  2  0  0  0  0
  5  7  1  0  0  0  0
  7  8  1  0  0  0  0
  7  9  1  0  0  0  0
  9 10  1  0  0  0  0
  9 11  1  0  0  0  0
  9 22  1  0  0  0  0
 11 12  1  0  0  0  0
 11 13  1  0  0  0  0
 11 14  1  0  0  0  0
 14 15  1  0  0  0  0
 14 20  2  0  0  0  0
 15 16  2  0  0  0  0
 16 17  1  0  0  0  0
 16 18  1  0  0  0  0
 18 19  1  0  0  0  0
 18 20  1  0  0  0  0
 20 21  1  0  0  0  0
 22 23  2  0  0  0  0
 22 24  1  0  0  0  0
 24 25  1  0  0  0  0
 24 26  1  0  0  0  0
 26 27  1  0  0  0  0
 26 28  1  0  0  0  0
 26 29  1  0  0  0  0
M  END
$$$$

  -OEChem-04042215593D

 29 29  0     1  0  0  0  0  0999 V2000
   -2.0808   -4.7066    0.7737 H   0  0  0  0  0  0  0  0  0  0  0  0
   -2.3823   -3.7430    0.3527 C   0  0  0  0  0  0  0  0  0  0  0  0
   -3.0620   -3.2518    1.0528 H   0  0  0  0  0  0  0  0  0  0  0  0
   -2.9038   -3.9198   -0.5909 H   0  0  0  0  0  0  0  0  0  0  0  0
   -1.1619   -2.8738    0.1153 C   0  0  0  0  0  0  0  0  0  0  0  0
   -0.0524   -3.3028    0.3717 O   0  0  0  0  0  0  0  0  0  0  0  0
   -1.3173   -1.5997   -0.3934 N   0  0  0  0  0  0  0  0  0  0  0  0
   -2.2697   -1.2678   -0.5159 H   0  0  0  0  0  0  0  0  0  0  0  0
   -0.2192   -0.6252   -0.5402 C   0  0  1  0  0  0  0  0  0  0  0  0
    0.5495   -1.1195   -1.1459 H   0  0  0  0  0  0  0  0  0  0  0  0
   -0.6160    0.6701   -1.3045 C   0  0  0  0  0  0  0  0  0  0  0  0
   -0.4338    1.5297   -0.6506 H   0  0  0  0  0  0  0  0  0  0  0  0
    0.0579    0.7856   -2.1583 H   0  0  0  0  0  0  0  0  0  0  0  0
   -2.0298    0.8128   -1.8157 C   0  0  0  0  0  0  0  0  0  0  0  0
   -2.6351    2.0571   -1.9278 N   0  0  0  0  0  0  0  0  0  0  0  0
   -3.7869    1.8797   -2.5272 C   0  0  0  0  0  0  0  0  0  0  0  0
   -4.4956    2.6696   -2.7596 H   0  0  0  0  0  0  0  0  0  0  0  0
   -3.9527    0.5429   -2.8304 N   0  0  0  0  0  0  0  0  0  0  0  0
   -4.7342    0.1553   -3.3567 H   0  0  0  0  0  0  0  0  0  0  0  0
   -2.8247   -0.1327   -2.4149 C   0  0  0  0  0  0  0  0  0  0  0  0
   -2.5767   -1.1757   -2.5904 H   0  0  0  0  0  0  0  0  0  0  0  0
    0.4707   -0.2628    0.7956 C   0  0  0  0  0  0  0  0  0  0  0  0
    1.6703   -0.0218    0.8167 O   0  0  0  0  0  0  0  0  0  0  0  0
   -0.2892    0.0096    1.9200 N   0  0  0  0  0  0  0  0  0  0  0  0
   -1.2844   -0.1763    1.8648 H   0  0  0  0  0  0  0  0  0  0  0  0
    0.2867    0.4257    3.1923 C   0  0  0  0  0  0  0  0  0  0  0  0
    0.8437    1.3610    3.0734 H   0  0  0  0  0  0  0  0  0  0  0  0
   -0.5036    0.5866    3.9314 H   0  0  0  0  0  0  0  0  0  0  0  0
    0.9667   -0.3434    3.5733 H   0  0  0  0  0  0  0  0  0  0  0  0
  1  2  1  0  0  0  0
  2  3  1  0  0  0  0
  2  4  1  0  0  0  0
  2  5  1  0  0  0  0
  5  6  2  0  0  0  0
  5  7  1  0  0  0  0
  7  8  1  0  0  0  0
  7  9  1  0  0  0  0
  9 10  1  0  0  0  0
  9 11  1  0  0  0  0
  9 22  1  0  0  0  0
 11 12  1  0  0  0  0
 11 13  1  0  0  0  0
 11 14  1  0  0  0  0
 14 15  1  0  0  0  0
 14 20  2  0  0  0  0
 15 16  2  0  0  0  0
 16 17  1  0  0  0  0
 16 18  1  0  0  0  0
 18 19  1  0  0  0  0
 18 20  1  0  0  0  0
 20 21  1  0  0  0  0
 22 23  2  0  0  0  0
 22 24  1  0  0  0  0
 24 25  1  0  0  0  0
 24 26  1  0  0  0  0
 26 27  1  0  0  0  0
 26 28  1  0  0  0  0
 26 29  1  0  0  0  0
M  END
$$$$

  -OEChem-04042215593D

 29 29  0     1  0  0  0  0  0999 V2000
   -1.9484   -4.7500    0.8508 H   0  0  0  0  0  0  0  0  0  0  0  0
   -2.2911   -3.7987    0.4331 C   0  0  0  0  0  0  0  0  0  0  0  0
   -2.9486   -3.3138    1.1583 H   0  0  0  0  0  0  0  0  0  0  0  0
   -2.8518   -3.9994   -0.4828 H   0  0  0  0  0  0  0  0  0  0  0  0
   -1.1027   -2.9059    0.1294 C   0  0  0  0  0  0  0  0  0  0  0  0
    0.0267   -3.3097    0.3335 O   0  0  0  0  0  0  0  0  0  0  0  0
   -1.3107   -1.6361   -0.3722 N   0  0  0  0  0  0  0  0  0  0  0  0
   -2.2726   -1.3142   -0.4057 H   0  0  0  0  0  0  0  0  0  0  0  0
   -0.2449   -0.6315   -0.5333 C   0  0  1  0  0  0  0  0  0  0  0  0
    0.5281   -1.1101   -1.1460 H   0  0  0  0  0  0  0  0  0  0  0  0
   -0.6662    0.6546   -1.3020 C   0  0  0  0  0  0  0  0  0  0  0  0
   -0.4935    1.5137   -0.6453 H   0  0  0  0  0  0  0  0  0  0  0  0
    0.0143    0.7771   -2.1500 H   0  0  0  0  0  0  0  0  0  0  0  0
   -2.0740    0.8173   -1.8332 C   0  0  0  0  0  0  0  0  0  0  0  0
   -2.5072    2.0783   -2.2225 N   0  0  0  0  0  0  0  0  0  0  0  0
   -3.6956    1.9440   -2.7560 C   0  0  0  0  0  0  0  0  0  0  0  0
   -4.2948    2.7575   -3.1554 H   0  0  0  0  0  0  0  0  0  0  0  0
   -4.0579    0.6129   -2.7481 N   0  0  0  0  0  0  0  0  0  0  0  0
   -4.9051    0.2368   -3.1707 H   0  0  0  0  0  0  0  0  0  0  0  0
   -3.0200   -0.1112   -2.1998 C   0  0  0  0  0  0  0  0  0  0  0  0
   -2.9419   -1.1917   -2.1559 H   0  0  0  0  0  0  0  0  0  0  0  0
    0.4557   -0.2558    0.7939 C   0  0  0  0  0  0  0  0  0  0  0  0
    1.6475    0.0206    0.7984 O   0  0  0  0  0  0  0  0  0  0  0  0
   -0.2932   -0.0103    1.9321 N   0  0  0  0  0  0  0  0  0  0  0  0
   -1.2817   -0.2309    1.8953 H   0  0  0  0  0  0  0  0  0  0  0  0
    0.2916    0.4149    3.1976 C   0  0  0  0  0  0  0  0  0  0  0  0
    0.8101    1.3720    3.0779 H   0  0  0  0  0  0  0  0  0  0  0  0
   -0.4899    0.5380    3.9533 H   0  0  0  0  0  0  0  0  0  0  0  0
    1.0071   -0.3320    3.5576 H   0  0  0  0  0  0  0  0  0  0  0  0
  1  2  1  0  0  0  0
  2  3  1  0  0  0  0
  2  4  1  0  0  0  0
  2  5  1  0  0  0  0
  5  6  2  0  0  0  0
  5  7  1  0  0  0  0
  7  8  1  0  0  0  0
  7  9  1  0  0  0  0
  9 10  1  0  0  0  0
  9 11  1  0  0  0  0
  9 22  1  0  0  0  0
 11 12  1  0  0  0  0
 11 13  1  0  0  0  0
 11 14  1  0  0  0  0
 14 15  1  0  0  0  0
 14 20  2  0  0  0  0
 15 16  2  0  0  0  0
 16 17  1  0  0  0  0
 16 18  1  0  0  0  0
 18 19  1  0  0  0  0
 18 20  1  0  0  0  0
 20 21  1  0  0  0  0
 22 23  2  0  0  0  0
 22 24  1  0  0  0  0
 24 25  1  0  0  0  0
 24 26  1  0  0  0  0
 26 27  1  0  0  0  0
 26 28  1  0  0  0  0
 26 29  1  0  0  0  0
M  END
$$$$

  -OEChem-04042215593D

 29 29  0     1  0  0  0  0  0999 V2000
   -1.7550   -4.9074    0.4854 H   0  0  0  0  0  0  0  0  0  0  0  0
   -2.0980   -3.9748    0.0281 C   0  0  0  0  0  0  0  0  0  0  0  0
   -3.0167   -3.6573    0.5266 H   0  0  0  0  0  0  0  0  0  0  0  0
   -2.3077   -4.1590   -1.0285 H   0  0  0  0  0  0  0  0  0  0  0  0
   -1.0335   -2.9028    0.1683 C   0  0  0  0  0  0  0  0  0  0  0  0
   -0.0033   -3.1514    0.7653 O   0  0  0  0  0  0  0  0  0  0  0  0
   -1.2493   -1.6546   -0.3835 N   0  0  0  0  0  0  0  0  0  0  0  0
   -2.0338   -1.6009   -1.0256 H   0  0  0  0  0  0  0  0  0  0  0  0
   -0.1979   -0.6332   -0.5454 C   0  0  1  0  0  0  0  0  0  0  0  0
    0.6064   -1.0779   -1.1422 H   0  0  0  0  0  0  0  0  0  0  0  0
   -0.6806    0.6502   -1.2826 C   0  0  0  0  0  0  0  0  0  0  0  0
   -0.2302    1.5302   -0.8108 H   0  0  0  0  0  0  0  0  0  0  0  0
   -0.2616    0.6007   -2.2917 H   0  0  0  0  0  0  0  0  0  0  0  0
   -2.1541    0.9516   -1.4673 C   0  0  0  0  0  0  0  0  0  0  0  0
   -2.5025    2.1156   -2.1409 N   0  0  0  0  0  0  0  0  0  0  0  0
   -3.8067    2.2245   -2.1041 C   0  0  0  0  0  0  0  0  0  0  0  0
   -4.3778    3.0337   -2.5506 H   0  0  0  0  0  0  0  0  0  0  0  0
   -4.3378    1.1639   -1.4006 N   0  0  0  0  0  0  0  0  0  0  0  0
   -5.3268    1.0401   -1.1898 H   0  0  0  0  0  0  0  0  0  0  0  0
   -3.2967    0.3700   -0.9663 C   0  0  0  0  0  0  0  0  0  0  0  0
   -3.3822   -0.4910   -0.3145 H   0  0  0  0  0  0  0  0  0  0  0  0
    0.4499   -0.2030    0.7938 C   0  0  0  0  0  0  0  0  0  0  0  0
    1.6308    0.1193    0.8194 O   0  0  0  0  0  0  0  0  0  0  0  0
   -0.3442    0.0607    1.8961 N   0  0  0  0  0  0  0  0  0  0  0  0
   -1.2934   -0.2942    1.8618 H   0  0  0  0  0  0  0  0  0  0  0  0
    0.1963    0.5017    3.1754 C   0  0  0  0  0  0  0  0  0  0  0  0
    0.7423    1.4436    3.0568 H   0  0  0  0  0  0  0  0  0  0  0  0
   -0.6138    0.6617    3.8931 H   0  0  0  0  0  0  0  0  0  0  0  0
    0.8778   -0.2527    3.5822 H   0  0  0  0  0  0  0  0  0  0  0  0
  1  2  1  0  0  0  0
  2  3  1  0  0  0  0
  2  4  1  0  0  0  0
  2  5  1  0  0  0  0
  5  6  2  0  0  0  0
  5  7  1  0  0  0  0
  7  8  1  0  0  0  0
  7  9  1  0  0  0  0
  9 10  1  0  0  0  0
  9 11  1  0  0  0  0
  9 22  1  0  0  0  0
 11 12  1  0  0  0  0
 11 13  1  0  0  0  0
 11 14  1  0  0  0  0
 14 15  1  0  0  0  0
 14 20  2  0  0  0  0
 15 16  2  0  0  0  0
 16 17  1  0  0  0  0
 16 18  1  0  0  0  0
 18 19  1  0  0  0  0
 18 20  1  0  0  0  0
 20 21  1  0  0  0  0
 22 23  2  0  0  0  0
 22 24  1  0  0  0  0
 24 25  1  0  0  0  0
 24 26  1  0  0  0  0
 26 27  1  0  0  0  0
 26 28  1  0  0  0  0
 26 29  1  0  0  0  0
M  END
$$$$

  -OEChem-04042215593D

 29 29  0     1  0  0  0  0  0999 V2000
   -1.9875   -4.8438    0.5298 H   0  0  0  0  0  0  0  0  0  0  0  0
   -2.2830   -3.8978    0.0671 C   0  0  0  0  0  0  0  0  0  0  0  0
   -3.1754   -3.5224    0.5732 H   0  0  0  0  0  0  0  0  0  0  0  0
   -2.5165   -4.0806   -0.9846 H   0  0  0  0  0  0  0  0  0  0  0  0
   -1.1570   -2.8877    0.1810 C   0  0  0  0  0  0  0  0  0  0  0  0
   -0.1353   -3.1861    0.7701 O   0  0  0  0  0  0  0  0  0  0  0  0
   -1.3095   -1.6327   -0.3755 N   0  0  0  0  0  0  0  0  0  0  0  0
   -2.1172   -1.5208   -0.9823 H   0  0  0  0  0  0  0  0  0  0  0  0
   -0.2076   -0.6664   -0.5526 C   0  0  1  0  0  0  0  0  0  0  0  0
    0.5668   -1.1561   -1.1540 H   0  0  0  0  0  0  0  0  0  0  0  0
   -0.6379    0.6277   -1.3007 C   0  0  0  0  0  0  0  0  0  0  0  0
   -0.1486    1.4986   -0.8520 H   0  0  0  0  0  0  0  0  0  0  0  0
   -0.2385    0.5434   -2.3156 H   0  0  0  0  0  0  0  0  0  0  0  0
   -2.1053    0.9587   -1.4587 C   0  0  0  0  0  0  0  0  0  0  0  0
   -2.5023    1.9199   -2.3787 N   0  0  0  0  0  0  0  0  0  0  0  0
   -3.7942    2.0881   -2.2412 C   0  0  0  0  0  0  0  0  0  0  0  0
   -4.3977    2.7777   -2.8246 H   0  0  0  0  0  0  0  0  0  0  0  0
   -4.2643    1.2665   -1.2366 N   0  0  0  0  0  0  0  0  0  0  0  0
   -5.2251    1.2474   -0.8986 H   0  0  0  0  0  0  0  0  0  0  0  0
   -3.1940    0.5698   -0.7161 C   0  0  0  0  0  0  0  0  0  0  0  0
   -3.2031   -0.0954    0.1406 H   0  0  0  0  0  0  0  0  0  0  0  0
    0.4767   -0.2595    0.7750 C   0  0  0  0  0  0  0  0  0  0  0  0
    1.6701    0.0134    0.7811 O   0  0  0  0  0  0  0  0  0  0  0  0
   -0.2901    0.0526    1.8841 N   0  0  0  0  0  0  0  0  0  0  0  0
   -1.2456   -0.2854    1.8744 H   0  0  0  0  0  0  0  0  0  0  0  0
    0.2928    0.4641    3.1549 C   0  0  0  0  0  0  0  0  0  0  0  0
    0.8857    1.3761    3.0278 H   0  0  0  0  0  0  0  0  0  0  0  0
   -0.4965    0.6665    3.8850 H   0  0  0  0  0  0  0  0  0  0  0  0
    0.9402   -0.3249    3.5519 H   0  0  0  0  0  0  0  0  0  0  0  0
  1  2  1  0  0  0  0
  2  3  1  0  0  0  0
  2  4  1  0  0  0  0
  2  5  1  0  0  0  0
  5  6  2  0  0  0  0
  5  7  1  0  0  0  0
  7  8  1  0  0  0  0
  7  9  1  0  0  0  0
  9 10  1  0  0  0  0
  9 11  1  0  0  0  0
  9 22  1  0  0  0  0
 11 12  1  0  0  0  0
 11 13  1  0  0  0  0
 11 14  1  0  0  0  0
 14 15  1  0  0  0  0
 14 20  2  0  0  0  0
 15 16  2  0  0  0  0
 16 17  1  0  0  0  0
 16 18  1  0  0  0  0
 18 19  1  0  0  0  0
 18 20  1  0  0  0  0
 20 21  1  0  0  0  0
 22 23  2  0  0  0  0
 22 24  1  0  0  0  0
 24 25  1  0  0  0  0
 24 26  1  0  0  0  0
 26 27  1  0  0  0  0
 26 28  1  0  0  0  0
 26 29  1  0  0  0  0
M  END
$$$$

  -OEChem-04042215593D

 29 29  0     1  0  0  0  0  0999 V2000
   -2.0923   -4.7916    0.4999 H   0  0  0  0  0  0  0  0  0  0  0  0
   -2.3652   -3.8313    0.0527 C   0  0  0  0  0  0  0  0  0  0  0  0
   -3.2412   -3.4373    0.5734 H   0  0  0  0  0  0  0  0  0  0  0  0
   -2.6154   -3.9939   -0.9985 H   0  0  0  0  0  0  0  0  0  0  0  0
   -1.2093   -2.8552    0.1666 C   0  0  0  0  0  0  0  0  0  0  0  0
   -0.1924   -3.1854    0.7477 O   0  0  0  0  0  0  0  0  0  0  0  0
   -1.3280   -1.5916   -0.3771 N   0  0  0  0  0  0  0  0  0  0  0  0
   -2.1489   -1.4359   -0.9569 H   0  0  0  0  0  0  0  0  0  0  0  0
   -0.2031   -0.6484   -0.5417 C   0  0  1  0  0  0  0  0  0  0  0  0
    0.5612   -1.1526   -1.1441 H   0  0  0  0  0  0  0  0  0  0  0  0
   -0.6095    0.6493   -1.2933 C   0  0  0  0  0  0  0  0  0  0  0  0
   -0.1224    1.5186   -0.8398 H   0  0  0  0  0  0  0  0  0  0  0  0
   -0.2072    0.5660   -2.3075 H   0  0  0  0  0  0  0  0  0  0  0  0
   -2.0787    0.9616   -1.4406 C   0  0  0  0  0  0  0  0  0  0  0  0
   -2.5654    1.6673   -2.5321 N   0  0  0  0  0  0  0  0  0  0  0  0
   -3.8457    1.8611   -2.3295 C   0  0  0  0  0  0  0  0  0  0  0  0
   -4.5096    2.3894   -3.0079 H   0  0  0  0  0  0  0  0  0  0  0  0
   -4.2171    1.3015   -1.1225 N   0  0  0  0  0  0  0  0  0  0  0  0
   -5.1482    1.3582   -0.7128 H   0  0  0  0  0  0  0  0  0  0  0  0
   -3.0940    0.7502   -0.5425 C   0  0  0  0  0  0  0  0  0  0  0  0
   -3.0102    0.2889    0.4363 H   0  0  0  0  0  0  0  0  0  0  0  0
    0.4914   -0.2652    0.7872 C   0  0  0  0  0  0  0  0  0  0  0  0
    1.6858    0.0030    0.7878 O   0  0  0  0  0  0  0  0  0  0  0  0
   -0.2680    0.0561    1.8989 N   0  0  0  0  0  0  0  0  0  0  0  0
   -1.2157   -0.3031    1.9034 H   0  0  0  0  0  0  0  0  0  0  0  0
    0.3274    0.4601    3.1665 C   0  0  0  0  0  0  0  0  0  0  0  0
    0.9390    1.3589    3.0343 H   0  0  0  0  0  0  0  0  0  0  0  0
   -0.4557    0.6826    3.8975 H   0  0  0  0  0  0  0  0  0  0  0  0
    0.9592   -0.3407    3.5651 H   0  0  0  0  0  0  0  0  0  0  0  0
  1  2  1  0  0  0  0
  2  3  1  0  0  0  0
  2  4  1  0  0  0  0
  2  5  1  0  0  0  0
  5  6  2  0  0  0  0
  5  7  1  0  0  0  0
  7  8  1  0  0  0  0
  7  9  1  0  0  0  0
  9 10  1  0  0  0  0
  9 11  1  0  0  0  0
  9 22  1  0  0  0  0
 11 12  1  0  0  0  0
 11 13  1  0  0  0  0
 11 14  1  0  0  0  0
 14 15  1  0  0  0  0
 14 20  2  0  0  0  0
 15 16  2  0  0  0  0
 16 17  1  0  0  0  0
 16 18  1  0  0  0  0
 18 19  1  0  0  0  0
 18 20  1  0  0  0  0
 20 21  1  0  0  0  0
 22 23  2  0  0  0  0
 22 24  1  0  0  0  0
 24 25  1  0  0  0  0
 24 26  1  0  0  0  0
 26 27  1  0  0  0  0
 26 28  1  0  0  0  0
 26 29  1  0  0  0  0
M  END
$$$$

  -OEChem-04042215593D

 29 29  0     1  0  0  0  0  0999 V2000
   -2.1769   -4.7336    0.4843 H   0  0  0  0  0  0  0  0  0  0  0  0
   -2.4301   -3.7648    0.0439 C   0  0  0  0  0  0  0  0  0  0  0  0
   -3.2933   -3.3528    0.5716 H   0  0  0  0  0  0  0  0  0  0  0  0
   -2.6905   -3.9147   -1.0068 H   0  0  0  0  0  0  0  0  0  0  0  0
   -1.2506   -2.8173    0.1565 C   0  0  0  0  0  0  0  0  0  0  0  0
   -0.2445   -3.1686    0.7445 O   0  0  0  0  0  0  0  0  0  0  0  0
   -1.3370   -1.5512   -0.3863 N   0  0  0  0  0  0  0  0  0  0  0  0
   -2.1594   -1.3675   -0.9562 H   0  0  0  0  0  0  0  0  0  0  0  0
   -0.1916   -0.6307   -0.5431 C   0  0  1  0  0  0  0  0  0  0  0  0
    0.5662   -1.1476   -1.1427 H   0  0  0  0  0  0  0  0  0  0  0  0
   -0.5774    0.6696   -1.2979 C   0  0  0  0  0  0  0  0  0  0  0  0
   -0.0924    1.5366   -0.8381 H   0  0  0  0  0  0  0  0  0  0  0  0
   -0.1746    0.5908   -2.3123 H   0  0  0  0  0  0  0  0  0  0  0  0
   -2.0491    0.9614   -1.4284 C   0  0  0  0  0  0  0  0  0  0  0  0
   -2.6333    1.3783   -2.6156 N   0  0  0  0  0  0  0  0  0  0  0  0
   -3.8952    1.6215   -2.3562 C   0  0  0  0  0  0  0  0  0  0  0  0
   -4.6228    1.9718   -3.0831 H   0  0  0  0  0  0  0  0  0  0  0  0
   -4.1562    1.3706   -1.0225 N   0  0  0  0  0  0  0  0  0  0  0  0
   -5.0510    1.5275   -0.5610 H   0  0  0  0  0  0  0  0  0  0  0  0
   -2.9807    0.9686   -0.4240 C   0  0  0  0  0  0  0  0  0  0  0  0
   -2.8047    0.7424    0.6231 H   0  0  0  0  0  0  0  0  0  0  0  0
    0.5000   -0.2650    0.7914 C   0  0  0  0  0  0  0  0  0  0  0  0
    1.6957   -0.0023    0.7982 O   0  0  0  0  0  0  0  0  0  0  0  0
   -0.2663    0.0679    1.8951 N   0  0  0  0  0  0  0  0  0  0  0  0
   -1.2033   -0.3197    1.9020 H   0  0  0  0  0  0  0  0  0  0  0  0
    0.3294    0.4498    3.1693 C   0  0  0  0  0  0  0  0  0  0  0  0
    0.9708    1.3289    3.0460 H   0  0  0  0  0  0  0  0  0  0  0  0
   -0.4526    0.6952    3.8940 H   0  0  0  0  0  0  0  0  0  0  0  0
    0.9315   -0.3722    3.5706 H   0  0  0  0  0  0  0  0  0  0  0  0
  1  2  1  0  0  0  0
  2  3  1  0  0  0  0
  2  4  1  0  0  0  0
  2  5  1  0  0  0  0
  5  6  2  0  0  0  0
  5  7  1  0  0  0  0
  7  8  1  0  0  0  0
  7  9  1  0  0  0  0
  9 10  1  0  0  0  0
  9 11  1  0  0  0  0
  9 22  1  0  0  0  0
 11 12  1  0  0  0  0
 11 13  1  0  0  0  0
 11 14  1  0  0  0  0
 14 15  1  0  0  0  0
 14 20  2  0  0  0  0
 15 16  2  0  0  0  0
 16 17  1  0  0  0  0
 16 18  1  0  0  0  0
 18 19  1  0  0  0  0
 18 20  1  0  0  0  0
 20 21  1  0  0  0  0
 22 23  2  0  0  0  0
 22 24  1  0  0  0  0
 24 25  1  0  0  0  0
 24 26  1  0  0  0  0
 26 27  1  0  0  0  0
 26 28  1  0  0  0  0
 26 29  1  0  0  0  0
M  END
$$$$

  -OEChem-04042215593D

 29 29  0     1  0  0  0  0  0999 V2000
   -2.2432   -4.6890    0.4683 H   0  0  0  0  0  0  0  0  0  0  0  0
   -2.4736   -3.7150    0.0270 C   0  0  0  0  0  0  0  0  0  0  0  0
   -3.3331   -3.2863    0.5478 H   0  0  0  0  0  0  0  0  0  0  0  0
   -2.7271   -3.8582   -1.0262 H   0  0  0  0  0  0  0  0  0  0  0  0
   -1.2778   -2.7900    0.1506 C   0  0  0  0  0  0  0  0  0  0  0  0
   -0.2852   -3.1578    0.7517 O   0  0  0  0  0  0  0  0  0  0  0  0
   -1.3362   -1.5257   -0.3990 N   0  0  0  0  0  0  0  0  0  0  0  0
   -2.1476   -1.3324   -0.9824 H   0  0  0  0  0  0  0  0  0  0  0  0
   -0.1749   -0.6244   -0.5499 C   0  0  1  0  0  0  0  0  0  0  0  0
    0.5802   -1.1498   -1.1451 H   0  0  0  0  0  0  0  0  0  0  0  0
   -0.5506    0.6785   -1.3026 C   0  0  0  0  0  0  0  0  0  0  0  0
   -0.0699    1.5420   -0.8316 H   0  0  0  0  0  0  0  0  0  0  0  0
   -0.1499    0.6131   -2.3186 H   0  0  0  0  0  0  0  0  0  0  0  0
   -2.0257    0.9488   -1.4104 C   0  0  0  0  0  0  0  0  0  0  0  0
   -2.7063    1.0653   -2.6135 N   0  0  0  0  0  0  0  0  0  0  0  0
   -3.9429    1.3881   -2.3182 C   0  0  0  0  0  0  0  0  0  0  0  0
   -4.7306    1.5604   -3.0465 H   0  0  0  0  0  0  0  0  0  0  0  0
   -4.0902    1.4782   -0.9467 N   0  0  0  0  0  0  0  0  0  0  0  0
   -4.9431    1.7595   -0.4655 H   0  0  0  0  0  0  0  0  0  0  0  0
   -2.8674    1.2166   -0.3655 C   0  0  0  0  0  0  0  0  0  0  0  0
   -2.6011    1.2499    0.6869 H   0  0  0  0  0  0  0  0  0  0  0  0
    0.5064   -0.2655    0.7908 C   0  0  0  0  0  0  0  0  0  0  0  0
    1.7042   -0.0135    0.8116 O   0  0  0  0  0  0  0  0  0  0  0  0
   -0.2722    0.0828    1.8809 N   0  0  0  0  0  0  0  0  0  0  0  0
   -1.2130   -0.2968    1.8724 H   0  0  0  0  0  0  0  0  0  0  0  0
    0.3092    0.4518    3.1654 C   0  0  0  0  0  0  0  0  0  0  0  0
    0.9654    1.3216    3.0553 H   0  0  0  0  0  0  0  0  0  0  0  0
   -0.4804    0.7062    3.8786 H   0  0  0  0  0  0  0  0  0  0  0  0
    0.8928   -0.3804    3.5730 H   0  0  0  0  0  0  0  0  0  0  0  0
  1  2  1  0  0  0  0
  2  3  1  0  0  0  0
  2  4  1  0  0  0  0
  2  5  1  0  0  0  0
  5  6  2  0  0  0  0
  5  7  1  0  0  0  0
  7  8  1  0  0  0  0
  7  9  1  0  0  0  0
  9 10  1  0  0  0  0
  9 11  1  0  0  0  0
  9 22  1  0  0  0  0
 11 12  1  0  0  0  0
 11 13  1  0  0  0  0
 11 14  1  0  0  0  0
 14 15  1  0  0  0  0
 14 20  2  0  0  0  0
 15 16  2  0  0  0  0
 16 17  1  0  0  0  0
 16 18  1  0  0  0  0
 18 19  1  0  0  0  0
 18 20  1  0  0  0  0
 20 21  1  0  0  0  0
 22 23  2  0  0  0  0
 22 24  1  0  0  0  0
 24 25  1  0  0  0  0
 24 26  1  0  0  0  0
 26 27  1  0  0  0  0
 26 28  1  0  0  0  0
 26 29  1  0  0  0  0
M  END
$$$$

  -OEChem-04042215593D

 29 29  0     1  0  0  0  0  0999 V2000
   -2.2824   -4.6622    0.4567 H   0  0  0  0  0  0  0  0  0  0  0  0
   -2.4984   -3.6881    0.0085 C   0  0  0  0  0  0  0  0  0  0  0  0
   -3.3642   -3.2523    0.5125 H   0  0  0  0  0  0  0  0  0  0  0  0
   -2.7348   -3.8333   -1.0485 H   0  0  0  0  0  0  0  0  0  0  0  0
   -1.2984   -2.7707    0.1494 C   0  0  0  0  0  0  0  0  0  0  0  0
   -0.3167   -3.1456    0.7642 O   0  0  0  0  0  0  0  0  0  0  0  0
   -1.3368   -1.5089   -0.4076 N   0  0  0  0  0  0  0  0  0  0  0  0
   -2.1339   -1.3146   -1.0117 H   0  0  0  0  0  0  0  0  0  0  0  0
   -0.1634   -0.6224   -0.5557 C   0  0  1  0  0  0  0  0  0  0  0  0
    0.5894   -1.1514   -1.1507 H   0  0  0  0  0  0  0  0  0  0  0  0
   -0.5344    0.6860   -1.2996 C   0  0  0  0  0  0  0  0  0  0  0  0
   -0.0495    1.5439   -0.8225 H   0  0  0  0  0  0  0  0  0  0  0  0
   -0.1444    0.6322   -2.3206 H   0  0  0  0  0  0  0  0  0  0  0  0
   -2.0119    0.9442   -1.3831 C   0  0  0  0  0  0  0  0  0  0  0  0
   -2.7739    0.7709   -2.5294 N   0  0  0  0  0  0  0  0  0  0  0  0
   -3.9852    1.1836   -2.2392 C   0  0  0  0  0  0  0  0  0  0  0  0
   -4.8223    1.1890   -2.9318 H   0  0  0  0  0  0  0  0  0  0  0  0
   -4.0353    1.6099   -0.9251 N   0  0  0  0  0  0  0  0  0  0  0  0
   -4.8524    2.0137   -0.4695 H   0  0  0  0  0  0  0  0  0  0  0  0
   -2.7755    1.4741   -0.3809 C   0  0  0  0  0  0  0  0  0  0  0  0
   -2.4345    1.7528    0.6124 H   0  0  0  0  0  0  0  0  0  0  0  0
    0.5103   -0.2662    0.7899 C   0  0  0  0  0  0  0  0  0  0  0  0
    1.7113   -0.0307    0.8229 O   0  0  0  0  0  0  0  0  0  0  0  0
   -0.2749    0.0966    1.8707 N   0  0  0  0  0  0  0  0  0  0  0  0
   -1.2276   -0.2525    1.8458 H   0  0  0  0  0  0  0  0  0  0  0  0
    0.2956    0.4594    3.1621 C   0  0  0  0  0  0  0  0  0  0  0  0
    0.9569    1.3264    3.0603 H   0  0  0  0  0  0  0  0  0  0  0  0
   -0.4995    0.7156    3.8685 H   0  0  0  0  0  0  0  0  0  0  0  0
    0.8712   -0.3763    3.5739 H   0  0  0  0  0  0  0  0  0  0  0  0
  1  2  1  0  0  0  0
  2  3  1  0  0  0  0
  2  4  1  0  0  0  0
  2  5  1  0  0  0  0
  5  6  2  0  0  0  0
  5  7  1  0  0  0  0
  7  8  1  0  0  0  0
  7  9  1  0  0  0  0
  9 10  1  0  0  0  0
  9 11  1  0  0  0  0
  9 22  1  0  0  0  0
 11 12  1  0  0  0  0
 11 13  1  0  0  0  0
 11 14  1  0  0  0  0
 14 15  1  0  0  0  0
 14 20  2  0  0  0  0
 15 16  2  0  0  0  0
 16 17  1  0  0  0  0
 16 18  1  0  0  0  0
 18 19  1  0  0  0  0
 18 20  1  0  0  0  0
 20 21  1  0  0  0  0
 22 23  2  0  0  0  0
 22 24  1  0  0  0  0
 24 25  1  0  0  0  0
 24 26  1  0  0  0  0
 26 27  1  0  0  0  0
 26 28  1  0  0  0  0
 26 29  1  0  0  0  0
M  END
$$$$

  -OEChem-04042215593D

 29 29  0     1  0  0  0  0  0999 V2000
   -2.3270   -4.6259    0.4552 H   0  0  0  0  0  0  0  0  0  0  0  0
   -2.5243   -3.6520   -0.0016 C   0  0  0  0  0  0  0  0  0  0  0  0
   -3.3880   -3.1995    0.4914 H   0  0  0  0  0  0  0  0  0  0  0  0
   -2.7528   -3.8009   -1.0597 H   0  0  0  0  0  0  0  0  0  0  0  0
   -1.3124   -2.7512    0.1444 C   0  0  0  0  0  0  0  0  0  0  0  0
   -0.3373   -3.1401    0.7616 O   0  0  0  0  0  0  0  0  0  0  0  0
   -1.3327   -1.4893   -0.4120 N   0  0  0  0  0  0  0  0  0  0  0  0
   -2.1234   -1.2843   -1.0238 H   0  0  0  0  0  0  0  0  0  0  0  0
   -0.1515   -0.6139   -0.5568 C   0  0  1  0  0  0  0  0  0  0  0  0
    0.5985   -1.1440   -1.1544 H   0  0  0  0  0  0  0  0  0  0  0  0
   -0.5235    0.6989   -1.2919 C   0  0  0  0  0  0  0  0  0  0  0  0
   -0.0332    1.5530   -0.8131 H   0  0  0  0  0  0  0  0  0  0  0  0
   -0.1436    0.6491   -2.3164 H   0  0  0  0  0  0  0  0  0  0  0  0
   -2.0030    0.9519   -1.3594 C   0  0  0  0  0  0  0  0  0  0  0  0
   -2.8264    0.5088   -2.3864 N   0  0  0  0  0  0  0  0  0  0  0  0
   -4.0213    0.9928   -2.1396 C   0  0  0  0  0  0  0  0  0  0  0  0
   -4.8963    0.8366   -2.7647 H   0  0  0  0  0  0  0  0  0  0  0  0
   -4.0000    1.7265   -0.9680 N   0  0  0  0  0  0  0  0  0  0  0  0
   -4.7952    2.2273   -0.5740 H   0  0  0  0  0  0  0  0  0  0  0  0
   -2.7121    1.7144   -0.4750 C   0  0  0  0  0  0  0  0  0  0  0  0
   -2.3203    2.2159    0.4059 H   0  0  0  0  0  0  0  0  0  0  0  0
    0.5209   -0.2637    0.7905 C   0  0  0  0  0  0  0  0  0  0  0  0
    1.7251   -0.0456    0.8304 O   0  0  0  0  0  0  0  0  0  0  0  0
   -0.2650    0.1067    1.8679 N   0  0  0  0  0  0  0  0  0  0  0  0
   -1.2291   -0.2090    1.8291 H   0  0  0  0  0  0  0  0  0  0  0  0
    0.2994    0.4575    3.1650 C   0  0  0  0  0  0  0  0  0  0  0  0
    0.9644    1.3228    3.0735 H   0  0  0  0  0  0  0  0  0  0  0  0
   -0.4992    0.7101    3.8689 H   0  0  0  0  0  0  0  0  0  0  0  0
    0.8696   -0.3835    3.5734 H   0  0  0  0  0  0  0  0  0  0  0  0
  1  2  1  0  0  0  0
  2  3  1  0  0  0  0
  2  4  1  0  0  0  0
  2  5  1  0  0  0  0
  5  6  2  0  0  0  0
  5  7  1  0  0  0  0
  7  8  1  0  0  0  0
  7  9  1  0  0  0  0
  9 10  1  0  0  0  0
  9 11  1  0  0  0  0
  9 22  1  0  0  0  0
 11 12  1  0  0  0  0
 11 13  1  0  0  0  0
 11 14  1  0  0  0  0
 14 15  1  0  0  0  0
 14 20  2  0  0  0  0
 15 16  2  0  0  0  0
 16 17  1  0  0  0  0
 16 18  1  0  0  0  0
 18 19  1  0  0  0  0
 18 20  1  0  0  0  0
 20 21  1  0  0  0  0
 22 23  2  0  0  0  0
 22 24  1  0  0  0  0
 24 25  1  0  0  0  0
 24 26  1  0  0  0  0
 26 27  1  0  0  0  0
 26 28  1  0  0  0  0
 26 29  1  0  0  0  0
M  END
$$$$

  -OEChem-04042215593D

 29 29  0     1  0  0  0  0  0999 V2000
   -2.3360   -4.6171    0.4500 H   0  0  0  0  0  0  0  0  0  0  0  0
   -2.5317   -3.6377    0.0046 C   0  0  0  0  0  0  0  0  0  0  0  0
   -3.3849   -3.1824    0.5127 H   0  0  0  0  0  0  0  0  0  0  0  0
   -2.7757   -3.7744   -1.0518 H   0  0  0  0  0  0  0  0  0  0  0  0
   -1.3112   -2.7477    0.1422 C   0  0  0  0  0  0  0  0  0  0  0  0
   -0.3315   -3.1467    0.7459 O   0  0  0  0  0  0  0  0  0  0  0  0
   -1.3281   -1.4840   -0.4085 N   0  0  0  0  0  0  0  0  0  0  0  0
   -2.1272   -1.2639   -1.0074 H   0  0  0  0  0  0  0  0  0  0  0  0
   -0.1497   -0.6074   -0.5528 C   0  0  1  0  0  0  0  0  0  0  0  0
    0.5990   -1.1350   -1.1538 H   0  0  0  0  0  0  0  0  0  0  0  0
   -0.5237    0.7085   -1.2827 C   0  0  0  0  0  0  0  0  0  0  0  0
   -0.0248    1.5596   -0.8076 H   0  0  0  0  0  0  0  0  0  0  0  0
   -0.1478    0.6540   -2.3084 H   0  0  0  0  0  0  0  0  0  0  0  0
   -2.0031    0.9730   -1.3542 C   0  0  0  0  0  0  0  0  0  0  0  0
   -2.8798    0.3075   -2.2055 N   0  0  0  0  0  0  0  0  0  0  0  0
   -4.0578    0.8596   -2.0290 C   0  0  0  0  0  0  0  0  0  0  0  0
   -4.9634    0.5735   -2.5567 H   0  0  0  0  0  0  0  0  0  0  0  0
   -3.9750    1.8537   -1.0723 N   0  0  0  0  0  0  0  0  0  0  0  0
   -4.7469    2.4481   -0.7740 H   0  0  0  0  0  0  0  0  0  0  0  0
   -2.6661    1.9349   -0.6463 C   0  0  0  0  0  0  0  0  0  0  0  0
   -2.2327    2.6206    0.0770 H   0  0  0  0  0  0  0  0  0  0  0  0
    0.5251   -0.2605    0.7935 C   0  0  0  0  0  0  0  0  0  0  0  0
    1.7294   -0.0415    0.8310 O   0  0  0  0  0  0  0  0  0  0  0  0
   -0.2583    0.1055    1.8740 N   0  0  0  0  0  0  0  0  0  0  0  0
   -1.2267   -0.1967    1.8312 H   0  0  0  0  0  0  0  0  0  0  0  0
    0.3075    0.4510    3.1717 C   0  0  0  0  0  0  0  0  0  0  0  0
    0.9842    1.3071    3.0802 H   0  0  0  0  0  0  0  0  0  0  0  0
   -0.4894    0.7161    3.8729 H   0  0  0  0  0  0  0  0  0  0  0  0
    0.8655   -0.3971    3.5823 H   0  0  0  0  0  0  0  0  0  0  0  0
  1  2  1  0  0  0  0
  2  3  1  0  0  0  0
  2  4  1  0  0  0  0
  2  5  1  0  0  0  0
  5  6  2  0  0  0  0
  5  7  1  0  0  0  0
  7  8  1  0  0  0  0
  7  9  1  0  0  0  0
  9 10  1  0  0  0  0
  9 11  1  0  0  0  0
  9 22  1  0  0  0  0
 11 12  1  0  0  0  0
 11 13  1  0  0  0  0
 11 14  1  0  0  0  0
 14 15  1  0  0  0  0
 14 20  2  0  0  0  0
 15 16  2  0  0  0  0
 16 17  1  0  0  0  0
 16 18  1  0  0  0  0
 18 19  1  0  0  0  0
 18 20  1  0  0  0  0
 20 21  1  0  0  0  0
 22 23  2  0  0  0  0
 22 24  1  0  0  0  0
 24 25  1  0  0  0  0
 24 26  1  0  0  0  0
 26 27  1  0  0  0  0
 26 28  1  0  0  0  0
 26 29  1  0  0  0  0
M  END
$$$$

  -OEChem-04042215593D

 29 29  0     1  0  0  0  0  0999 V2000
   -2.2992   -4.6367    0.4789 H   0  0  0  0  0  0  0  0  0  0  0  0
   -2.5072   -3.6586    0.0360 C   0  0  0  0  0  0  0  0  0  0  0  0
   -3.3485   -3.2029    0.5634 H   0  0  0  0  0  0  0  0  0  0  0  0
   -2.7766   -3.7980   -1.0140 H   0  0  0  0  0  0  0  0  0  0  0  0
   -1.2848   -2.7667    0.1419 C   0  0  0  0  0  0  0  0  0  0  0  0
   -0.2881   -3.1664    0.7171 O   0  0  0  0  0  0  0  0  0  0  0  0
   -1.3181   -1.5015   -0.4040 N   0  0  0  0  0  0  0  0  0  0  0  0
   -2.1407   -1.2690   -0.9665 H   0  0  0  0  0  0  0  0  0  0  0  0
   -0.1564   -0.6073   -0.5512 C   0  0  1  0  0  0  0  0  0  0  0  0
    0.5976   -1.1278   -1.1518 H   0  0  0  0  0  0  0  0  0  0  0  0
   -0.5365    0.7086   -1.2813 C   0  0  0  0  0  0  0  0  0  0  0  0
   -0.0305    1.5585   -0.8117 H   0  0  0  0  0  0  0  0  0  0  0  0
   -0.1556    0.6431   -2.3045 H   0  0  0  0  0  0  0  0  0  0  0  0
   -2.0131    0.9998   -1.3794 C   0  0  0  0  0  0  0  0  0  0  0  0
   -2.9595    0.1905   -2.0074 N   0  0  0  0  0  0  0  0  0  0  0  0
   -4.1094    0.8167   -1.9099 C   0  0  0  0  0  0  0  0  0  0  0  0
   -5.0513    0.4525   -2.3105 H   0  0  0  0  0  0  0  0  0  0  0  0
   -3.9440    2.0018   -1.2197 N   0  0  0  0  0  0  0  0  0  0  0  0
   -4.6819    2.6764   -1.0236 H   0  0  0  0  0  0  0  0  0  0  0  0
   -2.6124    2.1231   -0.8837 C   0  0  0  0  0  0  0  0  0  0  0  0
   -2.1240    2.9358   -0.3530 H   0  0  0  0  0  0  0  0  0  0  0  0
    0.5171   -0.2552    0.7942 C   0  0  0  0  0  0  0  0  0  0  0  0
    1.7187   -0.0208    0.8291 O   0  0  0  0  0  0  0  0  0  0  0  0
   -0.2672    0.0944    1.8792 N   0  0  0  0  0  0  0  0  0  0  0  0
   -1.2360   -0.2060    1.8333 H   0  0  0  0  0  0  0  0  0  0  0  0
    0.2966    0.4409    3.1771 C   0  0  0  0  0  0  0  0  0  0  0  0
    0.9535    1.3125    3.0899 H   0  0  0  0  0  0  0  0  0  0  0  0
   -0.5026    0.6816    3.8843 H   0  0  0  0  0  0  0  0  0  0  0  0
    0.8753   -0.3981    3.5775 H   0  0  0  0  0  0  0  0  0  0  0  0
  1  2  1  0  0  0  0
  2  3  1  0  0  0  0
  2  4  1  0  0  0  0
  2  5  1  0  0  0  0
  5  6  2  0  0  0  0
  5  7  1  0  0  0  0
  7  8  1  0  0  0  0
  7  9  1  0  0  0  0
  9 10  1  0  0  0  0
  9 11  1  0  0  0  0
  9 22  1  0  0  0  0
 11 12  1  0  0  0  0
 11 13  1  0  0  0  0
 11 14  1  0  0  0  0
 14 15  1  0  0  0  0
 14 20  2  0  0  0  0
 15 16  2  0  0  0  0
 16 17  1  0  0  0  0
 16 18  1  0  0  0  0
 18 19  1  0  0  0  0
 18 20  1  0  0  0  0
 20 21  1  0  0  0  0
 22 23  2  0  0  0  0
 22 24  1  0  0  0  0
 24 25  1  0  0  0  0
 24 26  1  0  0  0  0
 26 27  1  0  0  0  0
 26 28  1  0  0  0  0
 26 29  1  0  0  0  0
M  END
$$$$

  -OEChem-04042215593D

 29 29  0     1  0  0  0  0  0999 V2000
   -2.2241   -4.6715    0.5325 H   0  0  0  0  0  0  0  0  0  0  0  0
   -2.4554   -3.6986    0.0896 C   0  0  0  0  0  0  0  0  0  0  0  0
   -3.2759   -3.2421    0.6478 H   0  0  0  0  0  0  0  0  0  0  0  0
   -2.7681   -3.8492   -0.9466 H   0  0  0  0  0  0  0  0  0  0  0  0
   -1.2347   -2.7995    0.1360 C   0  0  0  0  0  0  0  0  0  0  0  0
   -0.2079   -3.1949    0.6594 O   0  0  0  0  0  0  0  0  0  0  0  0
   -1.3010   -1.5335   -0.4051 N   0  0  0  0  0  0  0  0  0  0  0  0
   -2.1609   -1.2873   -0.9019 H   0  0  0  0  0  0  0  0  0  0  0  0
   -0.1653   -0.6103   -0.5590 C   0  0  1  0  0  0  0  0  0  0  0  0
    0.5986   -1.1152   -1.1603 H   0  0  0  0  0  0  0  0  0  0  0  0
   -0.5602    0.7047   -1.2867 C   0  0  0  0  0  0  0  0  0  0  0  0
   -0.0483    1.5549   -0.8240 H   0  0  0  0  0  0  0  0  0  0  0  0
   -0.1766    0.6294   -2.3082 H   0  0  0  0  0  0  0  0  0  0  0  0
   -2.0334    1.0215   -1.4112 C   0  0  0  0  0  0  0  0  0  0  0  0
   -3.0566    0.1480   -1.7851 N   0  0  0  0  0  0  0  0  0  0  0  0
   -4.1694    0.8444   -1.7771 C   0  0  0  0  0  0  0  0  0  0  0  0
   -5.1501    0.4521   -2.0311 H   0  0  0  0  0  0  0  0  0  0  0  0
   -3.9086    2.1443   -1.3924 N   0  0  0  0  0  0  0  0  0  0  0  0
   -4.6031    2.8856   -1.3127 H   0  0  0  0  0  0  0  0  0  0  0  0
   -2.5552    2.2600   -1.1586 C   0  0  0  0  0  0  0  0  0  0  0  0
   -2.0024    3.1421   -0.8469 H   0  0  0  0  0  0  0  0  0  0  0  0
    0.5022   -0.2514    0.7875 C   0  0  0  0  0  0  0  0  0  0  0  0
    1.6983    0.0102    0.8234 O   0  0  0  0  0  0  0  0  0  0  0  0
   -0.2887    0.0705    1.8762 N   0  0  0  0  0  0  0  0  0  0  0  0
   -1.2554   -0.2351    1.8229 H   0  0  0  0  0  0  0  0  0  0  0  0
    0.2645    0.4256    3.1764 C   0  0  0  0  0  0  0  0  0  0  0  0
    0.9026    1.3115    3.0935 H   0  0  0  0  0  0  0  0  0  0  0  0
   -0.5416    0.6475    3.8820 H   0  0  0  0  0  0  0  0  0  0  0  0
    0.8599   -0.4019    3.5761 H   0  0  0  0  0  0  0  0  0  0  0  0
  1  2  1  0  0  0  0
  2  3  1  0  0  0  0
  2  4  1  0  0  0  0
  2  5  1  0  0  0  0
  5  6  2  0  0  0  0
  5  7  1  0  0  0  0
  7  8  1  0  0  0  0
  7  9  1  0  0  0  0
  9 10  1  0  0  0  0
  9 11  1  0  0  0  0
  9 22  1  0  0  0  0
 11 12  1  0  0  0  0
 11 13  1  0  0  0  0
 11 14  1  0  0  0  0
 14 15  1  0  0  0  0
 14 20  2  0  0  0  0
 15 16  2  0  0  0  0
 16 17  1  0  0  0  0
 16 18  1  0  0  0  0
 18 19  1  0  0  0  0
 18 20  1  0  0  0  0
 20 21  1  0  0  0  0
 22 23  2  0  0  0  0
 22 24  1  0  0  0  0
 24 25  1  0  0  0  0
 24 26  1  0  0  0  0
 26 27  1  0  0  0  0
 26 28  1  0  0  0  0
 26 29  1  0  0  0  0
M  END
$$$$

  -OEChem-04042215593D

 29 29  0     1  0  0  0  0  0999 V2000
   -2.1691   -4.6982    0.5626 H   0  0  0  0  0  0  0  0  0  0  0  0
   -2.4179   -3.7256    0.1291 C   0  0  0  0  0  0  0  0  0  0  0  0
   -3.2144   -3.2681    0.7205 H   0  0  0  0  0  0  0  0  0  0  0  0
   -2.7735   -3.8764   -0.8931 H   0  0  0  0  0  0  0  0  0  0  0  0
   -1.1955   -2.8275    0.1237 C   0  0  0  0  0  0  0  0  0  0  0  0
   -0.1439   -3.2262    0.5927 O   0  0  0  0  0  0  0  0  0  0  0  0
   -1.2865   -1.5596   -0.4080 N   0  0  0  0  0  0  0  0  0  0  0  0
   -2.1808   -1.2935   -0.8270 H   0  0  0  0  0  0  0  0  0  0  0  0
   -0.1730   -0.6121   -0.5630 C   0  0  1  0  0  0  0  0  0  0  0  0
    0.5984   -1.1020   -1.1675 H   0  0  0  0  0  0  0  0  0  0  0  0
   -0.5859    0.7010   -1.2876 C   0  0  0  0  0  0  0  0  0  0  0  0
   -0.0789    1.5534   -0.8236 H   0  0  0  0  0  0  0  0  0  0  0  0
   -0.1956    0.6261   -2.3066 H   0  0  0  0  0  0  0  0  0  0  0  0
   -2.0580    1.0290   -1.4319 C   0  0  0  0  0  0  0  0  0  0  0  0
   -3.1414    0.1530   -1.5393 N   0  0  0  0  0  0  0  0  0  0  0  0
   -4.2221    0.8915   -1.6379 C   0  0  0  0  0  0  0  0  0  0  0  0
   -5.2323    0.5055   -1.7428 H   0  0  0  0  0  0  0  0  0  0  0  0
   -3.8832    2.2278   -1.5835 N   0  0  0  0  0  0  0  0  0  0  0  0
   -4.5399    3.0047   -1.6385 H   0  0  0  0  0  0  0  0  0  0  0  0
   -2.5147    2.3184   -1.4490 C   0  0  0  0  0  0  0  0  0  0  0  0
   -1.9090    3.2174   -1.3740 H   0  0  0  0  0  0  0  0  0  0  0  0
    0.4931   -0.2486    0.7833 C   0  0  0  0  0  0  0  0  0  0  0  0
    1.6852    0.0313    0.8166 O   0  0  0  0  0  0  0  0  0  0  0  0
   -0.2970    0.0491    1.8796 N   0  0  0  0  0  0  0  0  0  0  0  0
   -1.2651   -0.2522    1.8241 H   0  0  0  0  0  0  0  0  0  0  0  0
    0.2535    0.4174    3.1773 C   0  0  0  0  0  0  0  0  0  0  0  0
    0.8671    1.3203    3.0913 H   0  0  0  0  0  0  0  0  0  0  0  0
   -0.5540    0.6168    3.8881 H   0  0  0  0  0  0  0  0  0  0  0  0
    0.8733   -0.3943    3.5728 H   0  0  0  0  0  0  0  0  0  0  0  0
  1  2  1  0  0  0  0
  2  3  1  0  0  0  0
  2  4  1  0  0  0  0
  2  5  1  0  0  0  0
  5  6  2  0  0  0  0
  5  7  1  0  0  0  0
  7  8  1  0  0  0  0
  7  9  1  0  0  0  0
  9 10  1  0  0  0  0
  9 11  1  0  0  0  0
  9 22  1  0  0  0  0
 11 12  1  0  0  0  0
 11 13  1  0  0  0  0
 11 14  1  0  0  0  0
 14 15  1  0  0  0  0
 14 20  2  0  0  0  0
 15 16  2  0  0  0  0
 16 17  1  0  0  0  0
 16 18  1  0  0  0  0
 18 19  1  0  0  0  0
 18 20  1  0  0  0  0
 20 21  1  0  0  0  0
 22 23  2  0  0  0  0
 22 24  1  0  0  0  0
 24 25  1  0  0  0  0
 24 26  1  0  0  0  0
 26 27  1  0  0  0  0
 26 28  1  0  0  0  0
 26 29  1  0  0  0  0
M  END
$$$$

  -OEChem-04042215593D

 29 29  0     1  0  0  0  0  0999 V2000
   -2.1295   -4.7018    0.6060 H   0  0  0  0  0  0  0  0  0  0  0  0
   -2.3921   -3.7311    0.1763 C   0  0  0  0  0  0  0  0  0  0  0  0
   -3.1540   -3.2617    0.8028 H   0  0  0  0  0  0  0  0  0  0  0  0
   -2.8000   -3.8874   -0.8252 H   0  0  0  0  0  0  0  0  0  0  0  0
   -1.1645   -2.8434    0.1006 C   0  0  0  0  0  0  0  0  0  0  0  0
   -0.0904   -3.2523    0.5052 O   0  0  0  0  0  0  0  0  0  0  0  0
   -1.2751   -1.5733   -0.4221 N   0  0  0  0  0  0  0  0  0  0  0  0
   -2.1989   -1.2799   -0.7484 H   0  0  0  0  0  0  0  0  0  0  0  0
   -0.1753   -0.6103   -0.5763 C   0  0  1  0  0  0  0  0  0  0  0  0
    0.5999   -1.0866   -1.1861 H   0  0  0  0  0  0  0  0  0  0  0  0
   -0.6036    0.7048   -1.2895 C   0  0  0  0  0  0  0  0  0  0  0  0
   -0.1038    1.5574   -0.8176 H   0  0  0  0  0  0  0  0  0  0  0  0
   -0.2106    0.6416   -2.3083 H   0  0  0  0  0  0  0  0  0  0  0  0
   -2.0761    1.0363   -1.4347 C   0  0  0  0  0  0  0  0  0  0  0  0
   -3.1939    0.2129   -1.2727 N   0  0  0  0  0  0  0  0  0  0  0  0
   -4.2540    0.9570   -1.4872 C   0  0  0  0  0  0  0  0  0  0  0  0
   -5.2812    0.6062   -1.4399 H   0  0  0  0  0  0  0  0  0  0  0  0
   -3.8679    2.2492   -1.7772 N   0  0  0  0  0  0  0  0  0  0  0  0
   -4.5002    3.0217   -1.9808 H   0  0  0  0  0  0  0  0  0  0  0  0
   -2.4915    2.3037   -1.7399 C   0  0  0  0  0  0  0  0  0  0  0  0
   -1.8530    3.1656   -1.9137 H   0  0  0  0  0  0  0  0  0  0  0  0
    0.4899   -0.2496    0.7712 C   0  0  0  0  0  0  0  0  0  0  0  0
    1.6809    0.0344    0.8076 O   0  0  0  0  0  0  0  0  0  0  0  0
   -0.3009    0.0287    1.8717 N   0  0  0  0  0  0  0  0  0  0  0  0
   -1.2726   -0.2589    1.8071 H   0  0  0  0  0  0  0  0  0  0  0  0
    0.2439    0.3962    3.1721 C   0  0  0  0  0  0  0  0  0  0  0  0
    0.8552    1.3012    3.0913 H   0  0  0  0  0  0  0  0  0  0  0  0
   -0.5673    0.5912    3.8798 H   0  0  0  0  0  0  0  0  0  0  0  0
    0.8645   -0.4143    3.5684 H   0  0  0  0  0  0  0  0  0  0  0  0
  1  2  1  0  0  0  0
  2  3  1  0  0  0  0
  2  4  1  0  0  0  0
  2  5  1  0  0  0  0
  5  6  2  0  0  0  0
  5  7  1  0  0  0  0
  7  8  1  0  0  0  0
  7  9  1  0  0  0  0
  9 10  1  0  0  0  0
  9 11  1  0  0  0  0
  9 22  1  0  0  0  0
 11 12  1  0  0  0  0
 11 13  1  0  0  0  0
 11 14  1  0  0  0  0
 14 15  1  0  0  0  0
 14 20  2  0  0  0  0
 15 16  2  0  0  0  0
 16 17  1  0  0  0  0
 16 18  1  0  0  0  0
 18 19  1  0  0  0  0
 18 20  1  0  0  0  0
 20 21  1  0  0  0  0
 22 23  2  0  0  0  0
 22 24  1  0  0  0  0
 24 25  1  0  0  0  0
 24 26  1  0  0  0  0
 26 27  1  0  0  0  0
 26 28  1  0  0  0  0
 26 29  1  0  0  0  0
M  END
$$$$

  -OEChem-04042215593D

 29 29  0     1  0  0  0  0  0999 V2000
   -2.1293   -4.6726    0.6533 H   0  0  0  0  0  0  0  0  0  0  0  0
   -2.3958   -3.7040    0.2211 C   0  0  0  0  0  0  0  0  0  0  0  0
   -3.1130   -3.2089    0.8800 H   0  0  0  0  0  0  0  0  0  0  0  0
   -2.8599   -3.8686   -0.7543 H   0  0  0  0  0  0  0  0  0  0  0  0
   -1.1566   -2.8435    0.0648 C   0  0  0  0  0  0  0  0  0  0  0  0
   -0.0670   -3.2772    0.3957 O   0  0  0  0  0  0  0  0  0  0  0  0
   -1.2723   -1.5695   -0.4468 N   0  0  0  0  0  0  0  0  0  0  0  0
   -2.2138   -1.2365   -0.6661 H   0  0  0  0  0  0  0  0  0  0  0  0
   -0.1717   -0.6065   -0.5942 C   0  0  1  0  0  0  0  0  0  0  0  0
    0.6028   -1.0764   -1.2103 H   0  0  0  0  0  0  0  0  0  0  0  0
   -0.6007    0.7165   -1.2918 C   0  0  0  0  0  0  0  0  0  0  0  0
   -0.1106    1.5622   -0.7982 H   0  0  0  0  0  0  0  0  0  0  0  0
   -0.1993    0.6778   -2.3087 H   0  0  0  0  0  0  0  0  0  0  0  0
   -2.0736    1.0491   -1.4265 C   0  0  0  0  0  0  0  0  0  0  0  0
   -3.1923    0.3252   -1.0040 N   0  0  0  0  0  0  0  0  0  0  0  0
   -4.2508    1.0278   -1.3346 C   0  0  0  0  0  0  0  0  0  0  0  0
   -5.2786    0.7333   -1.1424 H   0  0  0  0  0  0  0  0  0  0  0  0
   -3.8627    2.1937   -1.9615 N   0  0  0  0  0  0  0  0  0  0  0  0
   -4.4938    2.9119   -2.3140 H   0  0  0  0  0  0  0  0  0  0  0  0
   -2.4860    2.2110   -2.0189 C   0  0  0  0  0  0  0  0  0  0  0  0
   -1.8453    2.9806   -2.4403 H   0  0  0  0  0  0  0  0  0  0  0  0
    0.4917   -0.2636    0.7585 C   0  0  0  0  0  0  0  0  0  0  0  0
    1.6848    0.0096    0.8032 O   0  0  0  0  0  0  0  0  0  0  0  0
   -0.3001    0.0028    1.8614 N   0  0  0  0  0  0  0  0  0  0  0  0
   -1.2828   -0.2414    1.7817 H   0  0  0  0  0  0  0  0  0  0  0  0
    0.2394    0.3682    3.1644 C   0  0  0  0  0  0  0  0  0  0  0  0
    0.8354    1.2840    3.0903 H   0  0  0  0  0  0  0  0  0  0  0  0
   -0.5739    0.5431    3.8750 H   0  0  0  0  0  0  0  0  0  0  0  0
    0.8742   -0.4352    3.5528 H   0  0  0  0  0  0  0  0  0  0  0  0
  1  2  1  0  0  0  0
  2  3  1  0  0  0  0
  2  4  1  0  0  0  0
  2  5  1  0  0  0  0
  5  6  2  0  0  0  0
  5  7  1  0  0  0  0
  7  8  1  0  0  0  0
  7  9  1  0  0  0  0
  9 10  1  0  0  0  0
  9 11  1  0  0  0  0
  9 22  1  0  0  0  0
 11 12  1  0  0  0  0
 11 13  1  0  0  0  0
 11 14  1  0  0  0  0
 14 15  1  0  0  0  0
 14 20  2  0  0  0  0
 15 16  2  0  0  0  0
 16 17  1  0  0  0  0
 16 18  1  0  0  0  0
 18 19  1  0  0  0  0
 18 20  1  0  0  0  0
 20 21  1  0  0  0  0
 22 23  2  0  0  0  0
 22 24  1  0  0  0  0
 24 25  1  0  0  0  0
 24 26  1  0  0  0  0
 26 27  1  0  0  0  0
 26 28  1  0  0  0  0
 26 29  1  0  0  0  0
M  END
$$$$

  -OEChem-04042215593D

 29 29  0     1  0  0  0  0  0999 V2000
   -2.1670   -4.6215    0.6787 H   0  0  0  0  0  0  0  0  0  0  0  0
   -2.4254   -3.6488    0.2507 C   0  0  0  0  0  0  0  0  0  0  0  0
   -3.0885   -3.1242    0.9427 H   0  0  0  0  0  0  0  0  0  0  0  0
   -2.9483   -3.8071   -0.6955 H   0  0  0  0  0  0  0  0  0  0  0  0
   -1.1693   -2.8318    0.0157 C   0  0  0  0  0  0  0  0  0  0  0  0
   -0.0771   -3.3073    0.2722 O   0  0  0  0  0  0  0  0  0  0  0  0
   -1.2716   -1.5529   -0.4876 N   0  0  0  0  0  0  0  0  0  0  0  0
   -2.2134   -1.1719   -0.5994 H   0  0  0  0  0  0  0  0  0  0  0  0
   -0.1536   -0.6062   -0.6170 C   0  0  1  0  0  0  0  0  0  0  0  0
    0.6191   -1.0768   -1.2351 H   0  0  0  0  0  0  0  0  0  0  0  0
   -0.5674    0.7311   -1.2944 C   0  0  0  0  0  0  0  0  0  0  0  0
   -0.0819    1.5636   -0.7745 H   0  0  0  0  0  0  0  0  0  0  0  0
   -0.1581    0.7183   -2.3086 H   0  0  0  0  0  0  0  0  0  0  0  0
   -2.0400    1.0645   -1.4135 C   0  0  0  0  0  0  0  0  0  0  0  0
   -3.1237    0.4805   -0.7512 N   0  0  0  0  0  0  0  0  0  0  0  0
   -4.2042    1.0948   -1.1747 C   0  0  0  0  0  0  0  0  0  0  0  0
   -5.2155    0.8740   -0.8445 H   0  0  0  0  0  0  0  0  0  0  0  0
   -3.8640    2.0576   -2.1027 N   0  0  0  0  0  0  0  0  0  0  0  0
   -4.5205    2.6722   -2.5817 H   0  0  0  0  0  0  0  0  0  0  0  0
   -2.4947    2.0396   -2.2576 C   0  0  0  0  0  0  0  0  0  0  0  0
   -1.8872    2.6639   -2.9069 H   0  0  0  0  0  0  0  0  0  0  0  0
    0.4986   -0.2896    0.7475 C   0  0  0  0  0  0  0  0  0  0  0  0
    1.6989   -0.0568    0.8168 O   0  0  0  0  0  0  0  0  0  0  0  0
   -0.3043   -0.0216    1.8421 N   0  0  0  0  0  0  0  0  0  0  0  0
   -1.3030   -0.1658    1.7228 H   0  0  0  0  0  0  0  0  0  0  0  0
    0.2148    0.3544    3.1499 C   0  0  0  0  0  0  0  0  0  0  0  0
    0.7835    1.2877    3.0830 H   0  0  0  0  0  0  0  0  0  0  0  0
   -0.6083    0.5004    3.8557 H   0  0  0  0  0  0  0  0  0  0  0  0
    0.8701   -0.4314    3.5401 H   0  0  0  0  0  0  0  0  0  0  0  0
  1  2  1  0  0  0  0
  2  3  1  0  0  0  0
  2  4  1  0  0  0  0
  2  5  1  0  0  0  0
  5  6  2  0  0  0  0
  5  7  1  0  0  0  0
  7  8  1  0  0  0  0
  7  9  1  0  0  0  0
  9 10  1  0  0  0  0
  9 11  1  0  0  0  0
  9 22  1  0  0  0  0
 11 12  1  0  0  0  0
 11 13  1  0  0  0  0
 11 14  1  0  0  0  0
 14 15  1  0  0  0  0
 14 20  2  0  0  0  0
 15 16  2  0  0  0  0
 16 17  1  0  0  0  0
 16 18  1  0  0  0  0
 18 19  1  0  0  0  0
 18 20  1  0  0  0  0
 20 21  1  0  0  0  0
 22 23  2  0  0  0  0
 22 24  1  0  0  0  0
 24 25  1  0  0  0  0
 24 26  1  0  0  0  0
 26 27  1  0  0  0  0
 26 28  1  0  0  0  0
 26 29  1  0  0  0  0
M  END
$$$$

  -OEChem-04042215593D

 29 29  0     1  0  0  0  0  0999 V2000
   -2.2370   -4.5669    0.6670 H   0  0  0  0  0  0  0  0  0  0  0  0
   -2.4727   -3.5827    0.2523 C   0  0  0  0  0  0  0  0  0  0  0  0
   -3.0772   -3.0309    0.9761 H   0  0  0  0  0  0  0  0  0  0  0  0
   -3.0476   -3.7158   -0.6674 H   0  0  0  0  0  0  0  0  0  0  0  0
   -1.1947   -2.8206   -0.0424 C   0  0  0  0  0  0  0  0  0  0  0  0
   -0.1129   -3.3418    0.1644 O   0  0  0  0  0  0  0  0  0  0  0  0
   -1.2669   -1.5381   -0.5426 N   0  0  0  0  0  0  0  0  0  0  0  0
   -2.1951   -1.1122   -0.5727 H   0  0  0  0  0  0  0  0  0  0  0  0
   -0.1220   -0.6179   -0.6399 C   0  0  1  0  0  0  0  0  0  0  0  0
    0.6541   -1.0940   -1.2493 H   0  0  0  0  0  0  0  0  0  0  0  0
   -0.5077    0.7335   -1.3019 C   0  0  0  0  0  0  0  0  0  0  0  0
   -0.0284    1.5539   -0.7581 H   0  0  0  0  0  0  0  0  0  0  0  0
   -0.0867    0.7399   -2.3114 H   0  0  0  0  0  0  0  0  0  0  0  0
   -1.9807    1.0567   -1.4139 C   0  0  0  0  0  0  0  0  0  0  0  0
   -2.9980    0.6466   -0.5477 N   0  0  0  0  0  0  0  0  0  0  0  0
   -4.1159    1.1549   -1.0138 C   0  0  0  0  0  0  0  0  0  0  0  0
   -5.0950    1.0265   -0.5600 H   0  0  0  0  0  0  0  0  0  0  0  0
   -3.8634    1.8690   -2.1681 N   0  0  0  0  0  0  0  0  0  0  0  0
   -4.5636    2.3615   -2.7207 H   0  0  0  0  0  0  0  0  0  0  0  0
   -2.5109    1.8068   -2.4263 C   0  0  0  0  0  0  0  0  0  0  0  0
   -1.9648    2.2580   -3.2502 H   0  0  0  0  0  0  0  0  0  0  0  0
    0.5020   -0.3279    0.7433 C   0  0  0  0  0  0  0  0  0  0  0  0
    1.7065   -0.1350    0.8499 O   0  0  0  0  0  0  0  0  0  0  0  0
   -0.3264   -0.0479    1.8157 N   0  0  0  0  0  0  0  0  0  0  0  0
   -1.3273   -0.0772    1.6391 H   0  0  0  0  0  0  0  0  0  0  0  0
    0.1588    0.3817    3.1198 C   0  0  0  0  0  0  0  0  0  0  0  0
    0.6721    1.3453    3.0390 H   0  0  0  0  0  0  0  0  0  0  0  0
   -0.6774    0.4903    3.8167 H   0  0  0  0  0  0  0  0  0  0  0  0
    0.8561   -0.3563    3.5299 H   0  0  0  0  0  0  0  0  0  0  0  0
  1  2  1  0  0  0  0
  2  3  1  0  0  0  0
  2  4  1  0  0  0  0
  2  5  1  0  0  0  0
  5  6  2  0  0  0  0
  5  7  1  0  0  0  0
  7  8  1  0  0  0  0
  7  9  1  0  0  0  0
  9 10  1  0  0  0  0
  9 11  1  0  0  0  0
  9 22  1  0  0  0  0
 11 12  1  0  0  0  0
 11 13  1  0  0  0  0
 11 14  1  0  0  0  0
 14 15  1  0  0  0  0
 14 20  2  0  0  0  0
 15 16  2  0  0  0  0
 16 17  1  0  0  0  0
 16 18  1  0  0  0  0
 18 19  1  0  0  0  0
 18 20  1  0  0  0  0
 20 21  1  0  0  0  0
 22 23  2  0  0  0  0
 22 24  1  0  0  0  0
 24 25  1  0  0  0  0
 24 26  1  0  0  0  0
 26 27  1  0  0  0  0
 26 28  1  0  0  0  0
 26 29  1  0  0  0  0
M  END
$$$$

  -OEChem-04042215593D

 29 29  0     1  0  0  0  0  0999 V2000
   -2.2937   -4.5152    0.6541 H   0  0  0  0  0  0  0  0  0  0  0  0
   -2.5089   -3.5249    0.2429 C   0  0  0  0  0  0  0  0  0  0  0  0
   -3.0746   -2.9525    0.9819 H   0  0  0  0  0  0  0  0  0  0  0  0
   -3.1130   -3.6411   -0.6599 H   0  0  0  0  0  0  0  0  0  0  0  0
   -1.2155   -2.8057   -0.0895 C   0  0  0  0  0  0  0  0  0  0  0  0
   -0.1461   -3.3608    0.0917 O   0  0  0  0  0  0  0  0  0  0  0  0
   -1.2594   -1.5244   -0.5973 N   0  0  0  0  0  0  0  0  0  0  0  0
   -2.1726   -1.0682   -0.5821 H   0  0  0  0  0  0  0  0  0  0  0  0
   -0.0896   -0.6298   -0.6617 C   0  0  1  0  0  0  0  0  0  0  0  0
    0.6943   -1.1134   -1.2552 H   0  0  0  0  0  0  0  0  0  0  0  0
   -0.4460    0.7321   -1.3153 C   0  0  0  0  0  0  0  0  0  0  0  0
    0.0275    1.5484   -0.7600 H   0  0  0  0  0  0  0  0  0  0  0  0
   -0.0190    0.7461   -2.3221 H   0  0  0  0  0  0  0  0  0  0  0  0
   -1.9203    1.0294   -1.4231 C   0  0  0  0  0  0  0  0  0  0  0  0
   -2.8506    0.8306   -0.4011 N   0  0  0  0  0  0  0  0  0  0  0  0
   -4.0102    1.2281   -0.8733 C   0  0  0  0  0  0  0  0  0  0  0  0
   -4.9447    1.2145   -0.3190 H   0  0  0  0  0  0  0  0  0  0  0  0
   -3.8666    1.6567   -2.1788 N   0  0  0  0  0  0  0  0  0  0  0  0
   -4.6176    2.0188   -2.7648 H   0  0  0  0  0  0  0  0  0  0  0  0
   -2.5397    1.5322   -2.5320 C   0  0  0  0  0  0  0  0  0  0  0  0
   -2.0690    1.7856   -3.4780 H   0  0  0  0  0  0  0  0  0  0  0  0
    0.4952   -0.3535    0.7412 C   0  0  0  0  0  0  0  0  0  0  0  0
    1.7016   -0.2103    0.8941 O   0  0  0  0  0  0  0  0  0  0  0  0
   -0.3658   -0.0530    1.7824 N   0  0  0  0  0  0  0  0  0  0  0  0
   -1.3501    0.0361    1.5382 H   0  0  0  0  0  0  0  0  0  0  0  0
    0.0861    0.4145    3.0855 C   0  0  0  0  0  0  0  0  0  0  0  0
    0.5786    1.3879    2.9930 H   0  0  0  0  0  0  0  0  0  0  0  0
   -0.7649    0.5171    3.7653 H   0  0  0  0  0  0  0  0  0  0  0  0
    0.7925   -0.2984    3.5238 H   0  0  0  0  0  0  0  0  0  0  0  0
  1  2  1  0  0  0  0
  2  3  1  0  0  0  0
  2  4  1  0  0  0  0
  2  5  1  0  0  0  0
  5  6  2  0  0  0  0
  5  7  1  0  0  0  0
  7  8  1  0  0  0  0
  7  9  1  0  0  0  0
  9 10  1  0  0  0  0
  9 11  1  0  0  0  0
  9 22  1  0  0  0  0
 11 12  1  0  0  0  0
 11 13  1  0  0  0  0
 11 14  1  0  0  0  0
 14 15  1  0  0  0  0
 14 20  2  0  0  0  0
 15 16  2  0  0  0  0
 16 17  1  0  0  0  0
 16 18  1  0  0  0  0
 18 19  1  0  0  0  0
 18 20  1  0  0  0  0
 20 21  1  0  0  0  0
 22 23  2  0  0  0  0
 22 24  1  0  0  0  0
 24 25  1  0  0  0  0
 24 26  1  0  0  0  0
 26 27  1  0  0  0  0
 26 28  1  0  0  0  0
 26 29  1  0  0  0  0
M  END
$$$$

  -OEChem-04042215593D

 29 29  0     1  0  0  0  0  0999 V2000
   -2.3255   -4.4978    0.6286 H   0  0  0  0  0  0  0  0  0  0  0  0
   -2.5292   -3.5033    0.2213 C   0  0  0  0  0  0  0  0  0  0  0  0
   -3.0887   -2.9272    0.9624 H   0  0  0  0  0  0  0  0  0  0  0  0
   -3.1341   -3.6096   -0.6824 H   0  0  0  0  0  0  0  0  0  0  0  0
   -1.2273   -2.7979   -0.1072 C   0  0  0  0  0  0  0  0  0  0  0  0
   -0.1647   -3.3641    0.0778 O   0  0  0  0  0  0  0  0  0  0  0  0
   -1.2566   -1.5186   -0.6216 N   0  0  0  0  0  0  0  0  0  0  0  0
   -2.1646   -1.0561   -0.6034 H   0  0  0  0  0  0  0  0  0  0  0  0
   -0.0751   -0.6350   -0.6658 C   0  0  1  0  0  0  0  0  0  0  0  0
    0.7155   -1.1240   -1.2456 H   0  0  0  0  0  0  0  0  0  0  0  0
   -0.4144    0.7274   -1.3234 C   0  0  0  0  0  0  0  0  0  0  0  0
    0.0518    1.5492   -0.7700 H   0  0  0  0  0  0  0  0  0  0  0  0
    0.0164    0.7368   -2.3286 H   0  0  0  0  0  0  0  0  0  0  0  0
   -1.8905    0.9942   -1.4348 C   0  0  0  0  0  0  0  0  0  0  0  0
   -2.7424    1.0550   -0.3344 N   0  0  0  0  0  0  0  0  0  0  0  0
   -3.9322    1.3509   -0.8058 C   0  0  0  0  0  0  0  0  0  0  0  0
   -4.8248    1.4846   -0.2008 H   0  0  0  0  0  0  0  0  0  0  0  0
   -3.8815    1.4583   -2.1829 N   0  0  0  0  0  0  0  0  0  0  0  0
   -4.6701    1.6947   -2.7836 H   0  0  0  0  0  0  0  0  0  0  0  0
   -2.5820    1.2360   -2.5873 C   0  0  0  0  0  0  0  0  0  0  0  0
   -2.1761    1.2608   -3.5951 H   0  0  0  0  0  0  0  0  0  0  0  0
    0.4879   -0.3572    0.7459 C   0  0  0  0  0  0  0  0  0  0  0  0
    1.6939   -0.2427    0.9229 O   0  0  0  0  0  0  0  0  0  0  0  0
   -0.3887   -0.0422    1.7697 N   0  0  0  0  0  0  0  0  0  0  0  0
   -1.3561    0.1121    1.4912 H   0  0  0  0  0  0  0  0  0  0  0  0
    0.0509    0.4405    3.0715 C   0  0  0  0  0  0  0  0  0  0  0  0
    0.5424    1.4139    2.9726 H   0  0  0  0  0  0  0  0  0  0  0  0
   -0.8064    0.5485    3.7427 H   0  0  0  0  0  0  0  0  0  0  0  0
    0.7544   -0.2660    3.5245 H   0  0  0  0  0  0  0  0  0  0  0  0
  1  2  1  0  0  0  0
  2  3  1  0  0  0  0
  2  4  1  0  0  0  0
  2  5  1  0  0  0  0
  5  6  2  0  0  0  0
  5  7  1  0  0  0  0
  7  8  1  0  0  0  0
  7  9  1  0  0  0  0
  9 10  1  0  0  0  0
  9 11  1  0  0  0  0
  9 22  1  0  0  0  0
 11 12  1  0  0  0  0
 11 13  1  0  0  0  0
 11 14  1  0  0  0  0
 14 15  1  0  0  0  0
 14 20  2  0  0  0  0
 15 16  2  0  0  0  0
 16 17  1  0  0  0  0
 16 18  1  0  0  0  0
 18 19  1  0  0  0  0
 18 20  1  0  0  0  0
 20 21  1  0  0  0  0
 22 23  2  0  0  0  0
 22 24  1  0  0  0  0
 24 25  1  0  0  0  0
 24 26  1  0  0  0  0
 26 27  1  0  0  0  0
 26 28  1  0  0  0  0
 26 29  1  0  0  0  0
M  END
$$$$

  -OEChem-04042215593D

 29 29  0     1  0  0  0  0  0999 V2000
   -2.3259   -4.5127    0.6143 H   0  0  0  0  0  0  0  0  0  0  0  0
   -2.5306   -3.5206    0.2017 C   0  0  0  0  0  0  0  0  0  0  0  0
   -3.1176   -2.9524    0.9272 H   0  0  0  0  0  0  0  0  0  0  0  0
   -3.1088   -3.6345   -0.7183 H   0  0  0  0  0  0  0  0  0  0  0  0
   -1.2284   -2.7993   -0.0902 C   0  0  0  0  0  0  0  0  0  0  0  0
   -0.1651   -3.3521    0.1268 O   0  0  0  0  0  0  0  0  0  0  0  0
   -1.2584   -1.5223   -0.6117 N   0  0  0  0  0  0  0  0  0  0  0  0
   -2.1724   -1.0764   -0.6411 H   0  0  0  0  0  0  0  0  0  0  0  0
   -0.0787   -0.6341   -0.6577 C   0  0  1  0  0  0  0  0  0  0  0  0
    0.7142   -1.1251   -1.2330 H   0  0  0  0  0  0  0  0  0  0  0  0
   -0.4173    0.7225   -1.3250 C   0  0  0  0  0  0  0  0  0  0  0  0
    0.0469    1.5542   -0.7844 H   0  0  0  0  0  0  0  0  0  0  0  0
    0.0101    0.7202   -2.3316 H   0  0  0  0  0  0  0  0  0  0  0  0
   -1.8938    0.9717   -1.4384 C   0  0  0  0  0  0  0  0  0  0  0  0
   -2.6866    1.3257   -0.3534 N   0  0  0  0  0  0  0  0  0  0  0  0
   -3.8946    1.5254   -0.8272 C   0  0  0  0  0  0  0  0  0  0  0  0
   -4.7530    1.8281   -0.2337 H   0  0  0  0  0  0  0  0  0  0  0  0
   -3.9117    1.2870   -2.1891 N   0  0  0  0  0  0  0  0  0  0  0  0
   -4.7246    1.3954   -2.7942 H   0  0  0  0  0  0  0  0  0  0  0  0
   -2.6359    0.9434   -2.5847 C   0  0  0  0  0  0  0  0  0  0  0  0
   -2.2768    0.7176   -3.5853 H   0  0  0  0  0  0  0  0  0  0  0  0
    0.4848   -0.3423    0.7514 C   0  0  0  0  0  0  0  0  0  0  0  0
    1.6920   -0.2384    0.9270 O   0  0  0  0  0  0  0  0  0  0  0  0
   -0.3874   -0.0213    1.7772 N   0  0  0  0  0  0  0  0  0  0  0  0
   -1.3527    0.1476    1.5019 H   0  0  0  0  0  0  0  0  0  0  0  0
    0.0605    0.4507    3.0803 C   0  0  0  0  0  0  0  0  0  0  0  0
    0.5857    1.4065    2.9821 H   0  0  0  0  0  0  0  0  0  0  0  0
   -0.7967    0.5906    3.7455 H   0  0  0  0  0  0  0  0  0  0  0  0
    0.7366   -0.2786    3.5393 H   0  0  0  0  0  0  0  0  0  0  0  0
  1  2  1  0  0  0  0
  2  3  1  0  0  0  0
  2  4  1  0  0  0  0
  2  5  1  0  0  0  0
  5  6  2  0  0  0  0
  5  7  1  0  0  0  0
  7  8  1  0  0  0  0
  7  9  1  0  0  0  0
  9 10  1  0  0  0  0
  9 11  1  0  0  0  0
  9 22  1  0  0  0  0
 11 12  1  0  0  0  0
 11 13  1  0  0  0  0
 11 14  1  0  0  0  0
 14 15  1  0  0  0  0
 14 20  2  0  0  0  0
 15 16  2  0  0  0  0
 16 17  1  0  0  0  0
 16 18  1  0  0  0  0
 18 19  1  0  0  0  0
 18 20  1  0  0  0  0
 20 21  1  0  0  0  0
 22 23  2  0  0  0  0
 22 24  1  0  0  0  0
 24 25  1  0  0  0  0
 24 26  1  0  0  0  0
 26 27  1  0  0  0  0
 26 28  1  0  0  0  0
 26 29  1  0  0  0  0
M  END
$$$$

  -OEChem-04042215593D

 29 29  0     1  0  0  0  0  0999 V2000
   -2.3134   -4.5470    0.6078 H   0  0  0  0  0  0  0  0  0  0  0  0
   -2.5262   -3.5586    0.1904 C   0  0  0  0  0  0  0  0  0  0  0  0
   -3.1410   -3.0019    0.9017 H   0  0  0  0  0  0  0  0  0  0  0  0
   -3.0800   -3.6827   -0.7432 H   0  0  0  0  0  0  0  0  0  0  0  0
   -1.2306   -2.8135   -0.0694 C   0  0  0  0  0  0  0  0  0  0  0  0
   -0.1633   -3.3511    0.1639 O   0  0  0  0  0  0  0  0  0  0  0  0
   -1.2701   -1.5335   -0.5833 N   0  0  0  0  0  0  0  0  0  0  0  0
   -2.1907   -1.1096   -0.6613 H   0  0  0  0  0  0  0  0  0  0  0  0
   -0.0971   -0.6362   -0.6356 C   0  0  1  0  0  0  0  0  0  0  0  0
    0.6928   -1.1264   -1.2159 H   0  0  0  0  0  0  0  0  0  0  0  0
   -0.4396    0.7156   -1.3102 C   0  0  0  0  0  0  0  0  0  0  0  0
    0.0249    1.5526   -0.7781 H   0  0  0  0  0  0  0  0  0  0  0  0
   -0.0132    0.7056   -2.3173 H   0  0  0  0  0  0  0  0  0  0  0  0
   -1.9150    0.9657   -1.4309 C   0  0  0  0  0  0  0  0  0  0  0  0
   -2.6643    1.6069   -0.4550 N   0  0  0  0  0  0  0  0  0  0  0  0
   -3.8815    1.7191   -0.9326 C   0  0  0  0  0  0  0  0  0  0  0  0
   -4.7121    2.1891   -0.4134 H   0  0  0  0  0  0  0  0  0  0  0  0
   -3.9477    1.1487   -2.1904 N   0  0  0  0  0  0  0  0  0  0  0  0
   -4.7741    1.1368   -2.7870 H   0  0  0  0  0  0  0  0  0  0  0  0
   -2.6925    0.6806   -2.5181 C   0  0  0  0  0  0  0  0  0  0  0  0
   -2.3676    0.2092   -3.4420 H   0  0  0  0  0  0  0  0  0  0  0  0
    0.4852   -0.3408    0.7655 C   0  0  0  0  0  0  0  0  0  0  0  0
    1.6943   -0.2245    0.9182 O   0  0  0  0  0  0  0  0  0  0  0  0
   -0.3685   -0.0268    1.8091 N   0  0  0  0  0  0  0  0  0  0  0  0
   -1.3447    0.1130    1.5622 H   0  0  0  0  0  0  0  0  0  0  0  0
    0.1026    0.4644    3.0970 C   0  0  0  0  0  0  0  0  0  0  0  0
    0.5962    1.4346    2.9788 H   0  0  0  0  0  0  0  0  0  0  0  0
   -0.7384    0.5829    3.7865 H   0  0  0  0  0  0  0  0  0  0  0  0
    0.8130   -0.2418    3.5397 H   0  0  0  0  0  0  0  0  0  0  0  0
  1  2  1  0  0  0  0
  2  3  1  0  0  0  0
  2  4  1  0  0  0  0
  2  5  1  0  0  0  0
  5  6  2  0  0  0  0
  5  7  1  0  0  0  0
  7  8  1  0  0  0  0
  7  9  1  0  0  0  0
  9 10  1  0  0  0  0
  9 11  1  0  0  0  0
  9 22  1  0  0  0  0
 11 12  1  0  0  0  0
 11 13  1  0  0  0  0
 11 14  1  0  0  0  0
 14 15  1  0  0  0  0
 14 20  2  0  0  0  0
 15 16  2  0  0  0  0
 16 17  1  0  0  0  0
 16 18  1  0  0  0  0
 18 19  1  0  0  0  0
 18 20  1  0  0  0  0
 20 21  1  0  0  0  0
 22 23  2  0  0  0  0
 22 24  1  0  0  0  0
 24 25  1  0  0  0  0
 24 26  1  0  0  0  0
 26 27  1  0  0  0  0
 26 28  1  0  0  0  0
 26 29  1  0  0  0  0
M  END
$$$$

  -OEChem-04042215593D

 29 29  0     1  0  0  0  0  0999 V2000
   -2.2804   -4.5947    0.6031 H   0  0  0  0  0  0  0  0  0  0  0  0
   -2.5084   -3.6074    0.1912 C   0  0  0  0  0  0  0  0  0  0  0  0
   -3.1571   -3.0764    0.8918 H   0  0  0  0  0  0  0  0  0  0  0  0
   -3.0329   -3.7353   -0.7587 H   0  0  0  0  0  0  0  0  0  0  0  0
   -1.2268   -2.8250   -0.0250 C   0  0  0  0  0  0  0  0  0  0  0  0
   -0.1532   -3.3336    0.2409 O   0  0  0  0  0  0  0  0  0  0  0  0
   -1.2851   -1.5435   -0.5343 N   0  0  0  0  0  0  0  0  0  0  0  0
   -2.2120   -1.1489   -0.6686 H   0  0  0  0  0  0  0  0  0  0  0  0
   -0.1246   -0.6315   -0.6073 C   0  0  1  0  0  0  0  0  0  0  0  0
    0.6587   -1.1228   -1.1954 H   0  0  0  0  0  0  0  0  0  0  0  0
   -0.4779    0.7094   -1.2994 C   0  0  0  0  0  0  0  0  0  0  0  0
   -0.0125    1.5530   -0.7782 H   0  0  0  0  0  0  0  0  0  0  0  0
   -0.0515    0.6891   -2.3063 H   0  0  0  0  0  0  0  0  0  0  0  0
   -1.9520    0.9682   -1.4308 C   0  0  0  0  0  0  0  0  0  0  0  0
   -2.6514    1.8684   -0.6415 N   0  0  0  0  0  0  0  0  0  0  0  0
   -3.8769    1.9060   -1.1080 C   0  0  0  0  0  0  0  0  0  0  0  0
   -4.6746    2.5271   -0.7101 H   0  0  0  0  0  0  0  0  0  0  0  0
   -3.9979    1.0417   -2.1803 N   0  0  0  0  0  0  0  0  0  0  0  0
   -4.8371    0.9243   -2.7466 H   0  0  0  0  0  0  0  0  0  0  0  0
   -2.7686    0.4579   -2.4028 C   0  0  0  0  0  0  0  0  0  0  0  0
   -2.4815   -0.2310   -3.1931 H   0  0  0  0  0  0  0  0  0  0  0  0
    0.4884   -0.3251    0.7785 C   0  0  0  0  0  0  0  0  0  0  0  0
    1.6989   -0.1845    0.8952 O   0  0  0  0  0  0  0  0  0  0  0  0
   -0.3366   -0.0198    1.8472 N   0  0  0  0  0  0  0  0  0  0  0  0
   -1.3301    0.0521    1.6507 H   0  0  0  0  0  0  0  0  0  0  0  0
    0.1639    0.4575    3.1294 C   0  0  0  0  0  0  0  0  0  0  0  0
    0.6575    1.4276    3.0103 H   0  0  0  0  0  0  0  0  0  0  0  0
   -0.6615    0.5713    3.8385 H   0  0  0  0  0  0  0  0  0  0  0  0
    0.8820   -0.2551    3.5489 H   0  0  0  0  0  0  0  0  0  0  0  0
  1  2  1  0  0  0  0
  2  3  1  0  0  0  0
  2  4  1  0  0  0  0
  2  5  1  0  0  0  0
  5  6  2  0  0  0  0
  5  7  1  0  0  0  0
  7  8  1  0  0  0  0
  7  9  1  0  0  0  0
  9 10  1  0  0  0  0
  9 11  1  0  0  0  0
  9 22  1  0  0  0  0
 11 12  1  0  0  0  0
 11 13  1  0  0  0  0
 11 14  1  0  0  0  0
 14 15  1  0  0  0  0
 14 20  2  0  0  0  0
 15 16  2  0  0  0  0
 16 17  1  0  0  0  0
 16 18  1  0  0  0  0
 18 19  1  0  0  0  0
 18 20  1  0  0  0  0
 20 21  1  0  0  0  0
 22 23  2  0  0  0  0
 22 24  1  0  0  0  0
 24 25  1  0  0  0  0
 24 26  1  0  0  0  0
 26 27  1  0  0  0  0
 26 28  1  0  0  0  0
 26 29  1  0  0  0  0
M  END
$$$$

  -OEChem-04042215593D

 29 29  0     1  0  0  0  0  0999 V2000
   -2.2190   -4.6384    0.6303 H   0  0  0  0  0  0  0  0  0  0  0  0
   -2.4694   -3.6530    0.2269 C   0  0  0  0  0  0  0  0  0  0  0  0
   -3.1250   -3.1401    0.9345 H   0  0  0  0  0  0  0  0  0  0  0  0
   -2.9965   -3.7852   -0.7209 H   0  0  0  0  0  0  0  0  0  0  0  0
   -1.2052   -2.8429    0.0100 C   0  0  0  0  0  0  0  0  0  0  0  0
   -0.1198   -3.3295    0.2685 O   0  0  0  0  0  0  0  0  0  0  0  0
   -1.2937   -1.5600   -0.4914 N   0  0  0  0  0  0  0  0  0  0  0  0
   -2.2292   -1.1842   -0.6171 H   0  0  0  0  0  0  0  0  0  0  0  0
   -0.1524   -0.6274   -0.5836 C   0  0  1  0  0  0  0  0  0  0  0  0
    0.6278   -1.1141   -1.1800 H   0  0  0  0  0  0  0  0  0  0  0  0
   -0.5206    0.7041   -1.2896 C   0  0  0  0  0  0  0  0  0  0  0  0
   -0.0575    1.5513   -0.7722 H   0  0  0  0  0  0  0  0  0  0  0  0
   -0.0896    0.6807   -2.2945 H   0  0  0  0  0  0  0  0  0  0  0  0
   -1.9926    0.9767   -1.4375 C   0  0  0  0  0  0  0  0  0  0  0  0
   -2.6260    2.0814   -0.8886 N   0  0  0  0  0  0  0  0  0  0  0  0
   -3.8624    2.0686   -1.3254 C   0  0  0  0  0  0  0  0  0  0  0  0
   -4.6170    2.8095   -1.0768 H   0  0  0  0  0  0  0  0  0  0  0  0
   -4.0558    0.9788   -2.1534 N   0  0  0  0  0  0  0  0  0  0  0  0
   -4.9140    0.7770   -2.6647 H   0  0  0  0  0  0  0  0  0  0  0  0
   -2.8609    0.2976   -2.2511 C   0  0  0  0  0  0  0  0  0  0  0  0
   -2.6261   -0.5640   -2.8709 H   0  0  0  0  0  0  0  0  0  0  0  0
    0.4863   -0.3133    0.7892 C   0  0  0  0  0  0  0  0  0  0  0  0
    1.6953   -0.1425    0.8753 O   0  0  0  0  0  0  0  0  0  0  0  0
   -0.3158   -0.0261    1.8801 N   0  0  0  0  0  0  0  0  0  0  0  0
   -1.3188   -0.0231    1.7282 H   0  0  0  0  0  0  0  0  0  0  0  0
    0.2087    0.4347    3.1589 C   0  0  0  0  0  0  0  0  0  0  0  0
    0.6678    1.4227    3.0502 H   0  0  0  0  0  0  0  0  0  0  0  0
   -0.5971    0.5040    3.8956 H   0  0  0  0  0  0  0  0  0  0  0  0
    0.9615   -0.2647    3.5379 H   0  0  0  0  0  0  0  0  0  0  0  0
  1  2  1  0  0  0  0
  2  3  1  0  0  0  0
  2  4  1  0  0  0  0
  2  5  1  0  0  0  0
  5  6  2  0  0  0  0
  5  7  1  0  0  0  0
  7  8  1  0  0  0  0
  7  9  1  0  0  0  0
  9 10  1  0  0  0  0
  9 11  1  0  0  0  0
  9 22  1  0  0  0  0
 11 12  1  0  0  0  0
 11 13  1  0  0  0  0
 11 14  1  0  0  0  0
 14 15  1  0  0  0  0
 14 20  2  0  0  0  0
 15 16  2  0  0  0  0
 16 17  1  0  0  0  0
 16 18  1  0  0  0  0
 18 19  1  0  0  0  0
 18 20  1  0  0  0  0
 20 21  1  0  0  0  0
 22 23  2  0  0  0  0
 22 24  1  0  0  0  0
 24 25  1  0  0  0  0
 24 26  1  0  0  0  0
 26 27  1  0  0  0  0
 26 28  1  0  0  0  0
 26 29  1  0  0  0  0
M  END
$$$$

  -OEChem-04042215593D

 29 29  0     1  0  0  0  0  0999 V2000
   -2.1050   -4.6909    0.6861 H   0  0  0  0  0  0  0  0  0  0  0  0
   -2.3946   -3.7121    0.2926 C   0  0  0  0  0  0  0  0  0  0  0  0
   -3.0415   -3.2184    1.0215 H   0  0  0  0  0  0  0  0  0  0  0  0
   -2.9473   -3.8580   -0.6386 H   0  0  0  0  0  0  0  0  0  0  0  0
   -1.1602   -2.8679    0.0368 C   0  0  0  0  0  0  0  0  0  0  0  0
   -0.0551   -3.3266    0.2589 O   0  0  0  0  0  0  0  0  0  0  0  0
   -1.2973   -1.5856   -0.4564 N   0  0  0  0  0  0  0  0  0  0  0  0
   -2.2448   -1.2268   -0.5270 H   0  0  0  0  0  0  0  0  0  0  0  0
   -0.1828   -0.6240   -0.5689 C   0  0  1  0  0  0  0  0  0  0  0  0
    0.5968   -1.0988   -1.1757 H   0  0  0  0  0  0  0  0  0  0  0  0
   -0.5721    0.7015   -1.2791 C   0  0  0  0  0  0  0  0  0  0  0  0
   -0.1132    1.5484   -0.7575 H   0  0  0  0  0  0  0  0  0  0  0  0
   -0.1358    0.6847   -2.2818 H   0  0  0  0  0  0  0  0  0  0  0  0
   -2.0415    0.9936   -1.4428 C   0  0  0  0  0  0  0  0  0  0  0  0
   -2.5882    2.2387   -1.1678 N   0  0  0  0  0  0  0  0  0  0  0  0
   -3.8380    2.2093   -1.5619 C   0  0  0  0  0  0  0  0  0  0  0  0
   -4.5347    3.0392   -1.4828 H   0  0  0  0  0  0  0  0  0  0  0  0
   -4.1269    0.9727   -2.1057 N   0  0  0  0  0  0  0  0  0  0  0  0
   -5.0100    0.7204   -2.5472 H   0  0  0  0  0  0  0  0  0  0  0  0
   -2.9783    0.2105   -2.0682 C   0  0  0  0  0  0  0  0  0  0  0  0
   -2.8164   -0.7728   -2.5017 H   0  0  0  0  0  0  0  0  0  0  0  0
    0.4769   -0.3014    0.7924 C   0  0  0  0  0  0  0  0  0  0  0  0
    1.6824   -0.0992    0.8546 O   0  0  0  0  0  0  0  0  0  0  0  0
   -0.3076   -0.0408    1.9029 N   0  0  0  0  0  0  0  0  0  0  0  0
   -1.3133   -0.0971    1.7863 H   0  0  0  0  0  0  0  0  0  0  0  0
    0.2357    0.3991    3.1814 C   0  0  0  0  0  0  0  0  0  0  0  0
    0.7267    1.3719    3.0743 H   0  0  0  0  0  0  0  0  0  0  0  0
   -0.5655    0.4940    3.9203 H   0  0  0  0  0  0  0  0  0  0  0  0
    0.9662   -0.3258    3.5559 H   0  0  0  0  0  0  0  0  0  0  0  0
  1  2  1  0  0  0  0
  2  3  1  0  0  0  0
  2  4  1  0  0  0  0
  2  5  1  0  0  0  0
  5  6  2  0  0  0  0
  5  7  1  0  0  0  0
  7  8  1  0  0  0  0
  7  9  1  0  0  0  0
  9 10  1  0  0  0  0
  9 11  1  0  0  0  0
  9 22  1  0  0  0  0
 11 12  1  0  0  0  0
 11 13  1  0  0  0  0
 11 14  1  0  0  0  0
 14 15  1  0  0  0  0
 14 20  2  0  0  0  0
 15 16  2  0  0  0  0
 16 17  1  0  0  0  0
 16 18  1  0  0  0  0
 18 19  1  0  0  0  0
 18 20  1  0  0  0  0
 20 21  1  0  0  0  0
 22 23  2  0  0  0  0
 22 24  1  0  0  0  0
 24 25  1  0  0  0  0
 24 26  1  0  0  0  0
 26 27  1  0  0  0  0
 26 28  1  0  0  0  0
 26 29  1  0  0  0  0
M  END
$$$$

  -OEChem-04042215593D

 29 29  0     1  0  0  0  0  0999 V2000
   -1.9708   -4.7269    0.7600 H   0  0  0  0  0  0  0  0  0  0  0  0
   -2.3012   -3.7609    0.3673 C   0  0  0  0  0  0  0  0  0  0  0  0
   -2.9326   -3.2760    1.1154 H   0  0  0  0  0  0  0  0  0  0  0  0
   -2.8852   -3.9324   -0.5401 H   0  0  0  0  0  0  0  0  0  0  0  0
   -1.1002   -2.8885    0.0547 C   0  0  0  0  0  0  0  0  0  0  0  0
    0.0242   -3.3190    0.2311 O   0  0  0  0  0  0  0  0  0  0  0  0
   -1.2922   -1.6089   -0.4281 N   0  0  0  0  0  0  0  0  0  0  0  0
   -2.2478   -1.2684   -0.4225 H   0  0  0  0  0  0  0  0  0  0  0  0
   -0.2120   -0.6139   -0.5580 C   0  0  1  0  0  0  0  0  0  0  0  0
    0.5702   -1.0730   -1.1739 H   0  0  0  0  0  0  0  0  0  0  0  0
   -0.6278    0.7017   -1.2758 C   0  0  0  0  0  0  0  0  0  0  0  0
   -0.1798    1.5499   -0.7466 H   0  0  0  0  0  0  0  0  0  0  0  0
   -0.1781    0.6940   -2.2727 H   0  0  0  0  0  0  0  0  0  0  0  0
   -2.0943    1.0136   -1.4665 C   0  0  0  0  0  0  0  0  0  0  0  0
   -2.5361    2.3295   -1.4987 N   0  0  0  0  0  0  0  0  0  0  0  0
   -3.8047    2.3132   -1.8250 C   0  0  0  0  0  0  0  0  0  0  0  0
   -4.4325    3.1936   -1.9298 H   0  0  0  0  0  0  0  0  0  0  0  0
   -4.2129    1.0112   -2.0330 N   0  0  0  0  0  0  0  0  0  0  0  0
   -5.1348    0.7356   -2.3681 H   0  0  0  0  0  0  0  0  0  0  0  0
   -3.1230    0.1862   -1.8491 C   0  0  0  0  0  0  0  0  0  0  0  0
   -3.0698   -0.8780   -2.0556 H   0  0  0  0  0  0  0  0  0  0  0  0
    0.4649   -0.2804    0.7929 C   0  0  0  0  0  0  0  0  0  0  0  0
    1.6648   -0.0434    0.8338 O   0  0  0  0  0  0  0  0  0  0  0  0
   -0.3032   -0.0516    1.9220 N   0  0  0  0  0  0  0  0  0  0  0  0
   -1.3044   -0.1894    1.8432 H   0  0  0  0  0  0  0  0  0  0  0  0
    0.2604    0.3477    3.2054 C   0  0  0  0  0  0  0  0  0  0  0  0
    0.7633    1.3166    3.1184 H   0  0  0  0  0  0  0  0  0  0  0  0
   -0.5308    0.4345    3.9559 H   0  0  0  0  0  0  0  0  0  0  0  0
    0.9857   -0.3959    3.5524 H   0  0  0  0  0  0  0  0  0  0  0  0
  1  2  1  0  0  0  0
  2  3  1  0  0  0  0
  2  4  1  0  0  0  0
  2  5  1  0  0  0  0
  5  6  2  0  0  0  0
  5  7  1  0  0  0  0
  7  8  1  0  0  0  0
  7  9  1  0  0  0  0
  9 10  1  0  0  0  0
  9 11  1  0  0  0  0
  9 22  1  0  0  0  0
 11 12  1  0  0  0  0
 11 13  1  0  0  0  0
 11 14  1  0  0  0  0
 14 15  1  0  0  0  0
 14 20  2  0  0  0  0
 15 16  2  0  0  0  0
 16 17  1  0  0  0  0
 16 18  1  0  0  0  0
 18 19  1  0  0  0  0
 18 20  1  0  0  0  0
 20 21  1  0  0  0  0
 22 23  2  0  0  0  0
 22 24  1  0  0  0  0
 24 25  1  0  0  0  0
 24 26  1  0  0  0  0
 26 27  1  0  0  0  0
 26 28  1  0  0  0  0
 26 29  1  0  0  0  0
M  END
$$$$

  -OEChem-04042215593D

 29 29  0     1  0  0  0  0  0999 V2000
   -1.8098   -4.7812    0.8051 H   0  0  0  0  0  0  0  0  0  0  0  0
   -2.1855   -3.8304    0.4159 C   0  0  0  0  0  0  0  0  0  0  0  0
   -2.8098   -3.3616    1.1801 H   0  0  0  0  0  0  0  0  0  0  0  0
   -2.7913   -4.0299   -0.4713 H   0  0  0  0  0  0  0  0  0  0  0  0
   -1.0256   -2.9196    0.0586 C   0  0  0  0  0  0  0  0  0  0  0  0
    0.1174   -3.3112    0.2025 O   0  0  0  0  0  0  0  0  0  0  0  0
   -1.2766   -1.6469   -0.4170 N   0  0  0  0  0  0  0  0  0  0  0  0
   -2.2374   -1.3356   -0.3575 H   0  0  0  0  0  0  0  0  0  0  0  0
   -0.2357   -0.6167   -0.5730 C   0  0  1  0  0  0  0  0  0  0  0  0
    0.5468   -1.0549   -1.2035 H   0  0  0  0  0  0  0  0  0  0  0  0
   -0.6931    0.6880   -1.2880 C   0  0  0  0  0  0  0  0  0  0  0  0
   -0.2479    1.5411   -0.7649 H   0  0  0  0  0  0  0  0  0  0  0  0
   -0.2484    0.6818   -2.2875 H   0  0  0  0  0  0  0  0  0  0  0  0
   -2.1587    1.0164   -1.4851 C   0  0  0  0  0  0  0  0  0  0  0  0
   -2.4940    2.3196   -1.8310 N   0  0  0  0  0  0  0  0  0  0  0  0
   -3.7864    2.3613   -2.0346 C   0  0  0  0  0  0  0  0  0  0  0  0
   -4.3453    3.2492   -2.3165 H   0  0  0  0  0  0  0  0  0  0  0  0
   -4.3215    1.1039   -1.8503 N   0  0  0  0  0  0  0  0  0  0  0  0
   -5.2983    0.8583   -2.0037 H   0  0  0  0  0  0  0  0  0  0  0  0
   -3.2942    0.2391   -1.5336 C   0  0  0  0  0  0  0  0  0  0  0  0
   -3.3836   -0.8344   -1.4301 H   0  0  0  0  0  0  0  0  0  0  0  0
    0.4630   -0.2636    0.7620 C   0  0  0  0  0  0  0  0  0  0  0  0
    1.6524    0.0230    0.7736 O   0  0  0  0  0  0  0  0  0  0  0  0
   -0.2850   -0.0639    1.9100 N   0  0  0  0  0  0  0  0  0  0  0  0
   -1.2753   -0.2737    1.8659 H   0  0  0  0  0  0  0  0  0  0  0  0
    0.2980    0.3417    3.1824 C   0  0  0  0  0  0  0  0  0  0  0  0
    0.7825    1.3190    3.0871 H   0  0  0  0  0  0  0  0  0  0  0  0
   -0.4789    0.4143    3.9493 H   0  0  0  0  0  0  0  0  0  0  0  0
    1.0424   -0.3909    3.5118 H   0  0  0  0  0  0  0  0  0  0  0  0
  1  2  1  0  0  0  0
  2  3  1  0  0  0  0
  2  4  1  0  0  0  0
  2  5  1  0  0  0  0
  5  6  2  0  0  0  0
  5  7  1  0  0  0  0
  7  8  1  0  0  0  0
  7  9  1  0  0  0  0
  9 10  1  0  0  0  0
  9 11  1  0  0  0  0
  9 22  1  0  0  0  0
 11 12  1  0  0  0  0
 11 13  1  0  0  0  0
 11 14  1  0  0  0  0
 14 15  1  0  0  0  0
 14 20  2  0  0  0  0
 15 16  2  0  0  0  0
 16 17  1  0  0  0  0
 16 18  1  0  0  0  0
 18 19  1  0  0  0  0
 18 20  1  0  0  0  0
 20 21  1  0  0  0  0
 22 23  2  0  0  0  0
 22 24  1  0  0  0  0
 24 25  1  0  0  0  0
 24 26  1  0  0  0  0
 26 27  1  0  0  0  0
 26 28  1  0  0  0  0
 26 29  1  0  0  0  0
M  END
$$$$

  -OEChem-04042215593D

 29 29  0     1  0  0  0  0  0999 V2000
   -2.0221   -4.8253    0.4462 H   0  0  0  0  0  0  0  0  0  0  0  0
   -2.3080   -3.8711   -0.0060 C   0  0  0  0  0  0  0  0  0  0  0  0
   -3.1987   -3.4944    0.5023 H   0  0  0  0  0  0  0  0  0  0  0  0
   -2.5400   -4.0394   -1.0605 H   0  0  0  0  0  0  0  0  0  0  0  0
   -1.1729   -2.8729    0.1243 C   0  0  0  0  0  0  0  0  0  0  0  0
   -0.1548   -3.1907    0.7093 O   0  0  0  0  0  0  0  0  0  0  0  0
   -1.3119   -1.6071   -0.4106 N   0  0  0  0  0  0  0  0  0  0  0  0
   -2.1204   -1.4718   -1.0111 H   0  0  0  0  0  0  0  0  0  0  0  0
   -0.2019   -0.6451   -0.5580 C   0  0  1  0  0  0  0  0  0  0  0  0
    0.5762   -1.1184   -1.1674 H   0  0  0  0  0  0  0  0  0  0  0  0
   -0.6377    0.6602   -1.2732 C   0  0  0  0  0  0  0  0  0  0  0  0
    0.0350    1.4740   -0.9817 H   0  0  0  0  0  0  0  0  0  0  0  0
   -0.4829    0.5007   -2.3441 H   0  0  0  0  0  0  0  0  0  0  0  0
   -2.0582    1.1602   -1.1280 C   0  0  0  0  0  0  0  0  0  0  0  0
   -2.4311    2.3287   -1.7790 N   0  0  0  0  0  0  0  0  0  0  0  0
   -3.6640    2.5992   -1.4294 C   0  0  0  0  0  0  0  0  0  0  0  0
   -4.2361    3.4554   -1.7756 H   0  0  0  0  0  0  0  0  0  0  0  0
   -4.1174    1.6378   -0.5493 N   0  0  0  0  0  0  0  0  0  0  0  0
   -5.0303    1.6433   -0.0975 H   0  0  0  0  0  0  0  0  0  0  0  0
   -3.0964    0.7365   -0.3332 C   0  0  0  0  0  0  0  0  0  0  0  0
   -3.1051   -0.0973    0.3589 H   0  0  0  0  0  0  0  0  0  0  0  0
    0.4749   -0.2630    0.7809 C   0  0  0  0  0  0  0  0  0  0  0  0
    1.6720   -0.0072    0.8003 O   0  0  0  0  0  0  0  0  0  0  0  0
   -0.2936    0.0373    1.8920 N   0  0  0  0  0  0  0  0  0  0  0  0
   -1.2579   -0.2732    1.8684 H   0  0  0  0  0  0  0  0  0  0  0  0
    0.2853    0.4317    3.1699 C   0  0  0  0  0  0  0  0  0  0  0  0
    0.8715    1.3498    3.0585 H   0  0  0  0  0  0  0  0  0  0  0  0
   -0.5057    0.6159    3.9027 H   0  0  0  0  0  0  0  0  0  0  0  0
    0.9383   -0.3593    3.5533 H   0  0  0  0  0  0  0  0  0  0  0  0
  1  2  1  0  0  0  0
  2  3  1  0  0  0  0
  2  4  1  0  0  0  0
  2  5  1  0  0  0  0
  5  6  2  0  0  0  0
  5  7  1  0  0  0  0
  7  8  1  0  0  0  0
  7  9  1  0  0  0  0
  9 10  1  0  0  0  0
  9 11  1  0  0  0  0
  9 22  1  0  0  0  0
 11 12  1  0  0  0  0
 11 13  1  0  0  0  0
 11 14  1  0  0  0  0
 14 15  1  0  0  0  0
 14 20  2  0  0  0  0
 15 16  2  0  0  0  0
 16 17  1  0  0  0  0
 16 18  1  0  0  0  0
 18 19  1  0  0  0  0
 18 20  1  0  0  0  0
 20 21  1  0  0  0  0
 22 23  2  0  0  0  0
 22 24  1  0  0  0  0
 24 25  1  0  0  0  0
 24 26  1  0  0  0  0
 26 27  1  0  0  0  0
 26 28  1  0  0  0  0
 26 29  1  0  0  0  0
M  END
$$$$

  -OEChem-04042215593D

 29 29  0     1  0  0  0  0  0999 V2000
   -2.0983   -4.7861    0.4151 H   0  0  0  0  0  0  0  0  0  0  0  0
   -2.3738   -3.8157   -0.0080 C   0  0  0  0  0  0  0  0  0  0  0  0
   -3.2491   -3.4356    0.5239 H   0  0  0  0  0  0  0  0  0  0  0  0
   -2.6260   -3.9527   -1.0625 H   0  0  0  0  0  0  0  0  0  0  0  0
   -1.2182   -2.8419    0.1275 C   0  0  0  0  0  0  0  0  0  0  0  0
   -0.2040   -3.1833    0.7065 O   0  0  0  0  0  0  0  0  0  0  0  0
   -1.3337   -1.5674   -0.3910 N   0  0  0  0  0  0  0  0  0  0  0  0
   -2.1559   -1.3945   -0.9636 H   0  0  0  0  0  0  0  0  0  0  0  0
   -0.2057   -0.6249   -0.5335 C   0  0  1  0  0  0  0  0  0  0  0  0
    0.5592   -1.1137   -1.1472 H   0  0  0  0  0  0  0  0  0  0  0  0
   -0.6234    0.6789   -1.2592 C   0  0  0  0  0  0  0  0  0  0  0  0
    0.0507    1.4932   -0.9745 H   0  0  0  0  0  0  0  0  0  0  0  0
   -0.4702    0.5084   -2.3290 H   0  0  0  0  0  0  0  0  0  0  0  0
   -2.0445    1.1689   -1.1092 C   0  0  0  0  0  0  0  0  0  0  0  0
   -2.5472    2.1337   -1.9714 N   0  0  0  0  0  0  0  0  0  0  0  0
   -3.7628    2.4170   -1.5728 C   0  0  0  0  0  0  0  0  0  0  0  0
   -4.4188    3.1431   -2.0448 H   0  0  0  0  0  0  0  0  0  0  0  0
   -4.0779    1.6587   -0.4627 N   0  0  0  0  0  0  0  0  0  0  0  0
   -4.9505    1.7200    0.0594 H   0  0  0  0  0  0  0  0  0  0  0  0
   -2.9847    0.8772   -0.1527 C   0  0  0  0  0  0  0  0  0  0  0  0
   -2.8745    0.2041    0.6901 H   0  0  0  0  0  0  0  0  0  0  0  0
    0.4948   -0.2636    0.7985 C   0  0  0  0  0  0  0  0  0  0  0  0
    1.6923   -0.0090    0.7963 O   0  0  0  0  0  0  0  0  0  0  0  0
   -0.2516    0.0434    1.9227 N   0  0  0  0  0  0  0  0  0  0  0  0
   -1.2014   -0.3090    1.9316 H   0  0  0  0  0  0  0  0  0  0  0  0
    0.3611    0.4192    3.1905 C   0  0  0  0  0  0  0  0  0  0  0  0
    0.9743    1.3186    3.0690 H   0  0  0  0  0  0  0  0  0  0  0  0
   -0.4112    0.6285    3.9366 H   0  0  0  0  0  0  0  0  0  0  0  0
    0.9956   -0.3918    3.5631 H   0  0  0  0  0  0  0  0  0  0  0  0
  1  2  1  0  0  0  0
  2  3  1  0  0  0  0
  2  4  1  0  0  0  0
  2  5  1  0  0  0  0
  5  6  2  0  0  0  0
  5  7  1  0  0  0  0
  7  8  1  0  0  0  0
  7  9  1  0  0  0  0
  9 10  1  0  0  0  0
  9 11  1  0  0  0  0
  9 22  1  0  0  0  0
 11 12  1  0  0  0  0
 11 13  1  0  0  0  0
 11 14  1  0  0  0  0
 14 15  1  0  0  0  0
 14 20  2  0  0  0  0
 15 16  2  0  0  0  0
 16 17  1  0  0  0  0
 16 18  1  0  0  0  0
 18 19  1  0  0  0  0
 18 20  1  0  0  0  0
 20 21  1  0  0  0  0
 22 23  2  0  0  0  0
 22 24  1  0  0  0  0
 24 25  1  0  0  0  0
 24 26  1  0  0  0  0
 26 27  1  0  0  0  0
 26 28  1  0  0  0  0
 26 29  1  0  0  0  0
M  END
$$$$

  -OEChem-04042215593D

 29 29  0     1  0  0  0  0  0999 V2000
   -2.1865   -4.7327    0.4058 H   0  0  0  0  0  0  0  0  0  0  0  0
   -2.4403   -3.7518   -0.0061 C   0  0  0  0  0  0  0  0  0  0  0  0
   -3.2981   -3.3519    0.5395 H   0  0  0  0  0  0  0  0  0  0  0  0
   -2.7094   -3.8732   -1.0581 H   0  0  0  0  0  0  0  0  0  0  0  0
   -1.2576   -2.8103    0.1215 C   0  0  0  0  0  0  0  0  0  0  0  0
   -0.2435   -3.1817    0.6827 O   0  0  0  0  0  0  0  0  0  0  0  0
   -1.3484   -1.5270   -0.3784 N   0  0  0  0  0  0  0  0  0  0  0  0
   -2.1823   -1.3165   -0.9210 H   0  0  0  0  0  0  0  0  0  0  0  0
   -0.2045   -0.6032   -0.5142 C   0  0  1  0  0  0  0  0  0  0  0  0
    0.5496   -1.1060   -1.1306 H   0  0  0  0  0  0  0  0  0  0  0  0
   -0.6035    0.6974   -1.2531 C   0  0  0  0  0  0  0  0  0  0  0  0
    0.0713    1.5119   -0.9716 H   0  0  0  0  0  0  0  0  0  0  0  0
   -0.4480    0.5172   -2.3210 H   0  0  0  0  0  0  0  0  0  0  0  0
   -2.0258    1.1761   -1.1021 C   0  0  0  0  0  0  0  0  0  0  0  0
   -2.6595    1.8883   -2.1110 N   0  0  0  0  0  0  0  0  0  0  0  0
   -3.8523    2.2050   -1.6693 C   0  0  0  0  0  0  0  0  0  0  0  0
   -4.5912    2.7740   -2.2270 H   0  0  0  0  0  0  0  0  0  0  0  0
   -4.0238    1.7083   -0.3918 N   0  0  0  0  0  0  0  0  0  0  0  0
   -4.8507    1.8509    0.1860 H   0  0  0  0  0  0  0  0  0  0  0  0
   -2.8625    1.0630   -0.0226 C   0  0  0  0  0  0  0  0  0  0  0  0
   -2.6381    0.5942    0.9286 H   0  0  0  0  0  0  0  0  0  0  0  0
    0.5138   -0.2684    0.8151 C   0  0  0  0  0  0  0  0  0  0  0  0
    1.7091   -0.0041    0.7972 O   0  0  0  0  0  0  0  0  0  0  0  0
   -0.2185    0.0381    1.9488 N   0  0  0  0  0  0  0  0  0  0  0  0
   -1.1484   -0.3637    1.9832 H   0  0  0  0  0  0  0  0  0  0  0  0
    0.4150    0.4102    3.2079 C   0  0  0  0  0  0  0  0  0  0  0  0
    1.0334    1.3046    3.0769 H   0  0  0  0  0  0  0  0  0  0  0  0
   -0.3453    0.6271    3.9641 H   0  0  0  0  0  0  0  0  0  0  0  0
    1.0479   -0.4054    3.5736 H   0  0  0  0  0  0  0  0  0  0  0  0
  1  2  1  0  0  0  0
  2  3  1  0  0  0  0
  2  4  1  0  0  0  0
  2  5  1  0  0  0  0
  5  6  2  0  0  0  0
  5  7  1  0  0  0  0
  7  8  1  0  0  0  0
  7  9  1  0  0  0  0
  9 10  1  0  0  0  0
  9 11  1  0  0  0  0
  9 22  1  0  0  0  0
 11 12  1  0  0  0  0
 11 13  1  0  0  0  0
 11 14  1  0  0  0  0
 14 15  1  0  0  0  0
 14 20  2  0  0  0  0
 15 16  2  0  0  0  0
 16 17  1  0  0  0  0
 16 18  1  0  0  0  0
 18 19  1  0  0  0  0
 18 20  1  0  0  0  0
 20 21  1  0  0  0  0
 22 23  2  0  0  0  0
 22 24  1  0  0  0  0
 24 25  1  0  0  0  0
 24 26  1  0  0  0  0
 26 27  1  0  0  0  0
 26 28  1  0  0  0  0
 26 29  1  0  0  0  0
M  END
$$$$

  -OEChem-04042215593D

 29 29  0     1  0  0  0  0  0999 V2000
   -2.2494   -4.6896    0.4039 H   0  0  0  0  0  0  0  0  0  0  0  0
   -2.4854   -3.7054   -0.0108 C   0  0  0  0  0  0  0  0  0  0  0  0
   -3.3383   -3.2898    0.5310 H   0  0  0  0  0  0  0  0  0  0  0  0
   -2.7528   -3.8239   -1.0637 H   0  0  0  0  0  0  0  0  0  0  0  0
   -1.2874   -2.7837    0.1198 C   0  0  0  0  0  0  0  0  0  0  0  0
   -0.2811   -3.1717    0.6844 O   0  0  0  0  0  0  0  0  0  0  0  0
   -1.3555   -1.4985   -0.3780 N   0  0  0  0  0  0  0  0  0  0  0  0
   -2.1868   -1.2705   -0.9185 H   0  0  0  0  0  0  0  0  0  0  0  0
   -0.1972   -0.5925   -0.5103 C   0  0  1  0  0  0  0  0  0  0  0  0
    0.5506   -1.1081   -1.1234 H   0  0  0  0  0  0  0  0  0  0  0  0
   -0.5833    0.7033   -1.2619 C   0  0  0  0  0  0  0  0  0  0  0  0
    0.0873    1.5192   -0.9744 H   0  0  0  0  0  0  0  0  0  0  0  0
   -0.4223    0.5254   -2.3294 H   0  0  0  0  0  0  0  0  0  0  0  0
   -2.0085    1.1631   -1.1003 C   0  0  0  0  0  0  0  0  0  0  0  0
   -2.7766    1.5868   -2.1759 N   0  0  0  0  0  0  0  0  0  0  0  0
   -3.9301    1.9792   -1.6917 C   0  0  0  0  0  0  0  0  0  0  0  0
   -4.7505    2.3759   -2.2833 H   0  0  0  0  0  0  0  0  0  0  0  0
   -3.9417    1.8149   -0.3202 N   0  0  0  0  0  0  0  0  0  0  0  0
   -4.7059    2.0864    0.2964 H   0  0  0  0  0  0  0  0  0  0  0  0
   -2.7166    1.3106    0.0622 C   0  0  0  0  0  0  0  0  0  0  0  0
   -2.3650    1.1133    1.0686 H   0  0  0  0  0  0  0  0  0  0  0  0
    0.5220   -0.2725    0.8216 C   0  0  0  0  0  0  0  0  0  0  0  0
    1.7182   -0.0126    0.8062 O   0  0  0  0  0  0  0  0  0  0  0  0
   -0.2114    0.0415    1.9523 N   0  0  0  0  0  0  0  0  0  0  0  0
   -1.1418   -0.3619    1.9816 H   0  0  0  0  0  0  0  0  0  0  0  0
    0.4215    0.3974    3.2164 C   0  0  0  0  0  0  0  0  0  0  0  0
    1.0347    1.2971    3.0986 H   0  0  0  0  0  0  0  0  0  0  0  0
   -0.3391    0.5979    3.9768 H   0  0  0  0  0  0  0  0  0  0  0  0
    1.0594   -0.4201    3.5688 H   0  0  0  0  0  0  0  0  0  0  0  0
  1  2  1  0  0  0  0
  2  3  1  0  0  0  0
  2  4  1  0  0  0  0
  2  5  1  0  0  0  0
  5  6  2  0  0  0  0
  5  7  1  0  0  0  0
  7  8  1  0  0  0  0
  7  9  1  0  0  0  0
  9 10  1  0  0  0  0
  9 11  1  0  0  0  0
  9 22  1  0  0  0  0
 11 12  1  0  0  0  0
 11 13  1  0  0  0  0
 11 14  1  0  0  0  0
 14 15  1  0  0  0  0
 14 20  2  0  0  0  0
 15 16  2  0  0  0  0
 16 17  1  0  0  0  0
 16 18  1  0  0  0  0
 18 19  1  0  0  0  0
 18 20  1  0  0  0  0
 20 21  1  0  0  0  0
 22 23  2  0  0  0  0
 22 24  1  0  0  0  0
 24 25  1  0  0  0  0
 24 26  1  0  0  0  0
 26 27  1  0  0  0  0
 26 28  1  0  0  0  0
 26 29  1  0  0  0  0
M  END
$$$$

  -OEChem-04042215593D

 29 29  0     1  0  0  0  0  0999 V2000
   -2.2947   -4.6526    0.4141 H   0  0  0  0  0  0  0  0  0  0  0  0
   -2.5112   -3.6690   -0.0125 C   0  0  0  0  0  0  0  0  0  0  0  0
   -3.3579   -3.2313    0.5216 H   0  0  0  0  0  0  0  0  0  0  0  0
   -2.7773   -3.7943   -1.0648 H   0  0  0  0  0  0  0  0  0  0  0  0
   -1.2971   -2.7680    0.1112 C   0  0  0  0  0  0  0  0  0  0  0  0
   -0.2981   -3.1692    0.6798 O   0  0  0  0  0  0  0  0  0  0  0  0
   -1.3411   -1.4882   -0.4023 N   0  0  0  0  0  0  0  0  0  0  0  0
   -2.1657   -1.2516   -0.9510 H   0  0  0  0  0  0  0  0  0  0  0  0
   -0.1718   -0.5953   -0.5297 C   0  0  1  0  0  0  0  0  0  0  0  0
    0.5806   -1.1127   -1.1354 H   0  0  0  0  0  0  0  0  0  0  0  0
   -0.5585    0.7022   -1.2754 C   0  0  0  0  0  0  0  0  0  0  0  0
    0.1068    1.5183   -0.9756 H   0  0  0  0  0  0  0  0  0  0  0  0
   -0.4027    0.5423   -2.3465 H   0  0  0  0  0  0  0  0  0  0  0  0
   -1.9867    1.1321   -1.0809 C   0  0  0  0  0  0  0  0  0  0  0  0
   -2.8916    1.2634   -2.1251 N   0  0  0  0  0  0  0  0  0  0  0  0
   -3.9935    1.7557   -1.6111 C   0  0  0  0  0  0  0  0  0  0  0  0
   -4.8949    1.9829   -2.1737 H   0  0  0  0  0  0  0  0  0  0  0  0
   -3.8333    1.9461   -0.2519 N   0  0  0  0  0  0  0  0  0  0  0  0
   -4.5270    2.3611    0.3683 H   0  0  0  0  0  0  0  0  0  0  0  0
   -2.5500    1.5716    0.0857 C   0  0  0  0  0  0  0  0  0  0  0  0
   -2.0627    1.6523    1.0525 H   0  0  0  0  0  0  0  0  0  0  0  0
    0.5233   -0.2735    0.8138 C   0  0  0  0  0  0  0  0  0  0  0  0
    1.7226   -0.0275    0.8262 O   0  0  0  0  0  0  0  0  0  0  0  0
   -0.2350    0.0567    1.9232 N   0  0  0  0  0  0  0  0  0  0  0  0
   -1.1836   -0.3049    1.9176 H   0  0  0  0  0  0  0  0  0  0  0  0
    0.3662    0.3996    3.2059 C   0  0  0  0  0  0  0  0  0  0  0  0
    0.9987    1.2885    3.1079 H   0  0  0  0  0  0  0  0  0  0  0  0
   -0.4128    0.6119    3.9441 H   0  0  0  0  0  0  0  0  0  0  0  0
    0.9784   -0.4301    3.5746 H   0  0  0  0  0  0  0  0  0  0  0  0
  1  2  1  0  0  0  0
  2  3  1  0  0  0  0
  2  4  1  0  0  0  0
  2  5  1  0  0  0  0
  5  6  2  0  0  0  0
  5  7  1  0  0  0  0
  7  8  1  0  0  0  0
  7  9  1  0  0  0  0
  9 10  1  0  0  0  0
  9 11  1  0  0  0  0
  9 22  1  0  0  0  0
 11 12  1  0  0  0  0
 11 13  1  0  0  0  0
 11 14  1  0  0  0  0
 14 15  1  0  0  0  0
 14 20  2  0  0  0  0
 15 16  2  0  0  0  0
 16 17  1  0  0  0  0
 16 18  1  0  0  0  0
 18 19  1  0  0  0  0
 18 20  1  0  0  0  0
 20 21  1  0  0  0  0
 22 23  2  0  0  0  0
 22 24  1  0  0  0  0
 24 25  1  0  0  0  0
 24 26  1  0  0  0  0
 26 27  1  0  0  0  0
 26 28  1  0  0  0  0
 26 29  1  0  0  0  0
M  END
$$$$

  -OEChem-04042215593D

 29 29  0     1  0  0  0  0  0999 V2000
   -2.3475   -4.6067    0.4164 H   0  0  0  0  0  0  0  0  0  0  0  0
   -2.5428   -3.6219   -0.0176 C   0  0  0  0  0  0  0  0  0  0  0  0
   -3.3827   -3.1636    0.5098 H   0  0  0  0  0  0  0  0  0  0  0  0
   -2.8076   -3.7486   -1.0703 H   0  0  0  0  0  0  0  0  0  0  0  0
   -1.3113   -2.7447    0.1052 C   0  0  0  0  0  0  0  0  0  0  0  0
   -0.3228   -3.1608    0.6817 O   0  0  0  0  0  0  0  0  0  0  0  0
   -1.3251   -1.4724   -0.4267 N   0  0  0  0  0  0  0  0  0  0  0  0
   -2.1475   -1.2172   -0.9729 H   0  0  0  0  0  0  0  0  0  0  0  0
   -0.1431   -0.5963   -0.5512 C   0  0  1  0  0  0  0  0  0  0  0  0
    0.6106   -1.1167   -1.1524 H   0  0  0  0  0  0  0  0  0  0  0  0
   -0.5259    0.7093   -1.2830 C   0  0  0  0  0  0  0  0  0  0  0  0
    0.1441    1.5197   -0.9781 H   0  0  0  0  0  0  0  0  0  0  0  0
   -0.3863    0.5661   -2.3585 H   0  0  0  0  0  0  0  0  0  0  0  0
   -1.9519    1.1228   -1.0528 C   0  0  0  0  0  0  0  0  0  0  0  0
   -2.9602    0.9792   -1.9960 N   0  0  0  0  0  0  0  0  0  0  0  0
   -4.0309    1.5404   -1.4852 C   0  0  0  0  0  0  0  0  0  0  0  0
   -4.9959    1.6026   -1.9806 H   0  0  0  0  0  0  0  0  0  0  0  0
   -3.7469    2.0409   -0.2282 N   0  0  0  0  0  0  0  0  0  0  0  0
   -4.3989    2.5585    0.3593 H   0  0  0  0  0  0  0  0  0  0  0  0
   -2.4178    1.7941    0.0425 C   0  0  0  0  0  0  0  0  0  0  0  0
   -1.8389    2.0927    0.9127 H   0  0  0  0  0  0  0  0  0  0  0  0
    0.5294   -0.2688    0.8020 C   0  0  0  0  0  0  0  0  0  0  0  0
    1.7327   -0.0468    0.8419 O   0  0  0  0  0  0  0  0  0  0  0  0
   -0.2512    0.0842    1.8891 N   0  0  0  0  0  0  0  0  0  0  0  0
   -1.2155   -0.2315    1.8500 H   0  0  0  0  0  0  0  0  0  0  0  0
    0.3178    0.4180    3.1885 C   0  0  0  0  0  0  0  0  0  0  0  0
    0.9722    1.2924    3.1078 H   0  0  0  0  0  0  0  0  0  0  0  0
   -0.4789    0.6494    3.9018 H   0  0  0  0  0  0  0  0  0  0  0  0
    0.9001   -0.4237    3.5784 H   0  0  0  0  0  0  0  0  0  0  0  0
  1  2  1  0  0  0  0
  2  3  1  0  0  0  0
  2  4  1  0  0  0  0
  2  5  1  0  0  0  0
  5  6  2  0  0  0  0
  5  7  1  0  0  0  0
  7  8  1  0  0  0  0
  7  9  1  0  0  0  0
  9 10  1  0  0  0  0
  9 11  1  0  0  0  0
  9 22  1  0  0  0  0
 11 12  1  0  0  0  0
 11 13  1  0  0  0  0
 11 14  1  0  0  0  0
 14 15  1  0  0  0  0
 14 20  2  0  0  0  0
 15 16  2  0  0  0  0
 16 17  1  0  0  0  0
 16 18  1  0  0  0  0
 18 19  1  0  0  0  0
 18 20  1  0  0  0  0
 20 21  1  0  0  0  0
 22 23  2  0  0  0  0
 22 24  1  0  0  0  0
 24 25  1  0  0  0  0
 24 26  1  0  0  0  0
 26 27  1  0  0  0  0
 26 28  1  0  0  0  0
 26 29  1  0  0  0  0
M  END
$$$$

  -OEChem-04042215593D

 29 29  0     1  0  0  0  0  0999 V2000
   -2.3994   -4.5574    0.4395 H   0  0  0  0  0  0  0  0  0  0  0  0
   -2.5740   -3.5734   -0.0047 C   0  0  0  0  0  0  0  0  0  0  0  0
   -3.3920   -3.0852    0.5299 H   0  0  0  0  0  0  0  0  0  0  0  0
   -2.8591   -3.7056   -1.0512 H   0  0  0  0  0  0  0  0  0  0  0  0
   -1.3169   -2.7290    0.0860 C   0  0  0  0  0  0  0  0  0  0  0  0
   -0.3286   -3.1675    0.6465 O   0  0  0  0  0  0  0  0  0  0  0  0
   -1.3081   -1.4592   -0.4511 N   0  0  0  0  0  0  0  0  0  0  0  0
   -2.1366   -1.1746   -0.9770 H   0  0  0  0  0  0  0  0  0  0  0  0
   -0.1190   -0.5926   -0.5672 C   0  0  1  0  0  0  0  0  0  0  0  0
    0.6373   -1.1116   -1.1664 H   0  0  0  0  0  0  0  0  0  0  0  0
   -0.4978    0.7232   -1.2836 C   0  0  0  0  0  0  0  0  0  0  0  0
    0.1776    1.5265   -0.9720 H   0  0  0  0  0  0  0  0  0  0  0  0
   -0.3661    0.5930   -2.3617 H   0  0  0  0  0  0  0  0  0  0  0  0
   -1.9226    1.1325   -1.0375 C   0  0  0  0  0  0  0  0  0  0  0  0
   -2.9907    0.7399   -1.8352 N   0  0  0  0  0  0  0  0  0  0  0  0
   -4.0499    1.3549   -1.3623 C   0  0  0  0  0  0  0  0  0  0  0  0
   -5.0527    1.2675   -1.7714 H   0  0  0  0  0  0  0  0  0  0  0  0
   -3.7007    2.1257   -0.2688 N   0  0  0  0  0  0  0  0  0  0  0  0
   -4.3384    2.7186    0.2606 H   0  0  0  0  0  0  0  0  0  0  0  0
   -2.3428    1.9971   -0.0673 C   0  0  0  0  0  0  0  0  0  0  0  0
   -1.7195    2.4839    0.6785 H   0  0  0  0  0  0  0  0  0  0  0  0
    0.5378   -0.2653    0.7932 C   0  0  0  0  0  0  0  0  0  0  0  0
    1.7432   -0.0588    0.8515 O   0  0  0  0  0  0  0  0  0  0  0  0
   -0.2555    0.0980    1.8676 N   0  0  0  0  0  0  0  0  0  0  0  0
   -1.2293   -0.1829    1.8060 H   0  0  0  0  0  0  0  0  0  0  0  0
    0.2948    0.4295    3.1757 C   0  0  0  0  0  0  0  0  0  0  0  0
    0.9699    1.2885    3.1023 H   0  0  0  0  0  0  0  0  0  0  0  0
   -0.5105    0.6841    3.8710 H   0  0  0  0  0  0  0  0  0  0  0  0
    0.8510   -0.4215    3.5829 H   0  0  0  0  0  0  0  0  0  0  0  0
  1  2  1  0  0  0  0
  2  3  1  0  0  0  0
  2  4  1  0  0  0  0
  2  5  1  0  0  0  0
  5  6  2  0  0  0  0
  5  7  1  0  0  0  0
  7  8  1  0  0  0  0
  7  9  1  0  0  0  0
  9 10  1  0  0  0  0
  9 11  1  0  0  0  0
  9 22  1  0  0  0  0
 11 12  1  0  0  0  0
 11 13  1  0  0  0  0
 11 14  1  0  0  0  0
 14 15  1  0  0  0  0
 14 20  2  0  0  0  0
 15 16  2  0  0  0  0
 16 17  1  0  0  0  0
 16 18  1  0  0  0  0
 18 19  1  0  0  0  0
 18 20  1  0  0  0  0
 20 21  1  0  0  0  0
 22 23  2  0  0  0  0
 22 24  1  0  0  0  0
 24 25  1  0  0  0  0
 24 26  1  0  0  0  0
 26 27  1  0  0  0  0
 26 28  1  0  0  0  0
 26 29  1  0  0  0  0
M  END
$$$$

  -OEChem-04042215593D

 29 29  0     1  0  0  0  0  0999 V2000
   -2.3891   -4.5582    0.4462 H   0  0  0  0  0  0  0  0  0  0  0  0
   -2.5691   -3.5697    0.0148 C   0  0  0  0  0  0  0  0  0  0  0  0
   -3.3680   -3.0793    0.5757 H   0  0  0  0  0  0  0  0  0  0  0  0
   -2.8841   -3.6916   -1.0246 H   0  0  0  0  0  0  0  0  0  0  0  0
   -1.3038   -2.7354    0.0779 C   0  0  0  0  0  0  0  0  0  0  0  0
   -0.3042   -3.1839    0.6104 O   0  0  0  0  0  0  0  0  0  0  0  0
   -1.2975   -1.4650   -0.4562 N   0  0  0  0  0  0  0  0  0  0  0  0
   -2.1457   -1.1569   -0.9383 H   0  0  0  0  0  0  0  0  0  0  0  0
   -0.1157   -0.5919   -0.5719 C   0  0  1  0  0  0  0  0  0  0  0  0
    0.6428   -1.1064   -1.1723 H   0  0  0  0  0  0  0  0  0  0  0  0
   -0.4932    0.7297   -1.2801 C   0  0  0  0  0  0  0  0  0  0  0  0
    0.1909    1.5273   -0.9722 H   0  0  0  0  0  0  0  0  0  0  0  0
   -0.3645    0.5960   -2.3579 H   0  0  0  0  0  0  0  0  0  0  0  0
   -1.9169    1.1567   -1.0439 C   0  0  0  0  0  0  0  0  0  0  0  0
   -3.0268    0.5677   -1.6448 N   0  0  0  0  0  0  0  0  0  0  0  0
   -4.0720    1.2513   -1.2388 C   0  0  0  0  0  0  0  0  0  0  0  0
   -5.0981    1.0521   -1.5355 H   0  0  0  0  0  0  0  0  0  0  0  0
   -3.6747    2.2566   -0.3774 N   0  0  0  0  0  0  0  0  0  0  0  0
   -4.2955    2.9355    0.0606 H   0  0  0  0  0  0  0  0  0  0  0  0
   -2.3023    2.2045   -0.2574 C   0  0  0  0  0  0  0  0  0  0  0  0
   -1.6495    2.8546    0.3191 H   0  0  0  0  0  0  0  0  0  0  0  0
    0.5371   -0.2642    0.7901 C   0  0  0  0  0  0  0  0  0  0  0  0
    1.7422   -0.0556    0.8521 O   0  0  0  0  0  0  0  0  0  0  0  0
   -0.2604    0.0916    1.8638 N   0  0  0  0  0  0  0  0  0  0  0  0
   -1.2378   -0.1740    1.7932 H   0  0  0  0  0  0  0  0  0  0  0  0
    0.2822    0.4268    3.1740 C   0  0  0  0  0  0  0  0  0  0  0  0
    0.9713    1.2748    3.0995 H   0  0  0  0  0  0  0  0  0  0  0  0
   -0.5258    0.6997    3.8592 H   0  0  0  0  0  0  0  0  0  0  0  0
    0.8208   -0.4292    3.5940 H   0  0  0  0  0  0  0  0  0  0  0  0
  1  2  1  0  0  0  0
  2  3  1  0  0  0  0
  2  4  1  0  0  0  0
  2  5  1  0  0  0  0
  5  6  2  0  0  0  0
  5  7  1  0  0  0  0
  7  8  1  0  0  0  0
  7  9  1  0  0  0  0
  9 10  1  0  0  0  0
  9 11  1  0  0  0  0
  9 22  1  0  0  0  0
 11 12  1  0  0  0  0
 11 13  1  0  0  0  0
 11 14  1  0  0  0  0
 14 15  1  0  0  0  0
 14 20  2  0  0  0  0
 15 16  2  0  0  0  0
 16 17  1  0  0  0  0
 16 18  1  0  0  0  0
 18 19  1  0  0  0  0
 18 20  1  0  0  0  0
 20 21  1  0  0  0  0
 22 23  2  0  0  0  0
 22 24  1  0  0  0  0
 24 25  1  0  0  0  0
 24 26  1  0  0  0  0
 26 27  1  0  0  0  0
 26 28  1  0  0  0  0
 26 29  1  0  0  0  0
M  END
$$$$

  -OEChem-04042215593D

 29 29  0     1  0  0  0  0  0999 V2000
   -2.3391   -4.5827    0.4802 H   0  0  0  0  0  0  0  0  0  0  0  0
   -2.5328   -3.5952    0.0520 C   0  0  0  0  0  0  0  0  0  0  0  0
   -3.3110   -3.1018    0.6389 H   0  0  0  0  0  0  0  0  0  0  0  0
   -2.8845   -3.7194   -0.9752 H   0  0  0  0  0  0  0  0  0  0  0  0
   -1.2659   -2.7613    0.0675 C   0  0  0  0  0  0  0  0  0  0  0  0
   -0.2452   -3.2112    0.5573 O   0  0  0  0  0  0  0  0  0  0  0  0
   -1.2827   -1.4891   -0.4616 N   0  0  0  0  0  0  0  0  0  0  0  0
   -2.1583   -1.1662   -0.8816 H   0  0  0  0  0  0  0  0  0  0  0  0
   -0.1204   -0.5939   -0.5788 C   0  0  1  0  0  0  0  0  0  0  0  0
    0.6461   -1.0954   -1.1798 H   0  0  0  0  0  0  0  0  0  0  0  0
   -0.5049    0.7315   -1.2802 C   0  0  0  0  0  0  0  0  0  0  0  0
    0.1861    1.5256   -0.9785 H   0  0  0  0  0  0  0  0  0  0  0  0
   -0.3742    0.5888   -2.3565 H   0  0  0  0  0  0  0  0  0  0  0  0
   -1.9287    1.1850   -1.0692 C   0  0  0  0  0  0  0  0  0  0  0  0
   -3.0754    0.4757   -1.4286 N   0  0  0  0  0  0  0  0  0  0  0  0
   -4.0987    1.2314   -1.1030 C   0  0  0  0  0  0  0  0  0  0  0  0
   -5.1409    0.9683   -1.2607 H   0  0  0  0  0  0  0  0  0  0  0  0
   -3.6541    2.4054   -0.5267 N   0  0  0  0  0  0  0  0  0  0  0  0
   -4.2513    3.1620   -0.1963 H   0  0  0  0  0  0  0  0  0  0  0  0
   -2.2760    2.3806   -0.5063 C   0  0  0  0  0  0  0  0  0  0  0  0
   -1.5952    3.1418   -0.1349 H   0  0  0  0  0  0  0  0  0  0  0  0
    0.5255   -0.2625    0.7852 C   0  0  0  0  0  0  0  0  0  0  0  0
    1.7277   -0.0384    0.8511 O   0  0  0  0  0  0  0  0  0  0  0  0
   -0.2780    0.0715    1.8614 N   0  0  0  0  0  0  0  0  0  0  0  0
   -1.2564   -0.1875    1.7811 H   0  0  0  0  0  0  0  0  0  0  0  0
    0.2553    0.4102    3.1745 C   0  0  0  0  0  0  0  0  0  0  0  0
    0.9320    1.2684    3.1054 H   0  0  0  0  0  0  0  0  0  0  0  0
   -0.5590    0.6700    3.8574 H   0  0  0  0  0  0  0  0  0  0  0  0
    0.8046   -0.4393    3.5941 H   0  0  0  0  0  0  0  0  0  0  0  0
  1  2  1  0  0  0  0
  2  3  1  0  0  0  0
  2  4  1  0  0  0  0
  2  5  1  0  0  0  0
  5  6  2  0  0  0  0
  5  7  1  0  0  0  0
  7  8  1  0  0  0  0
  7  9  1  0  0  0  0
  9 10  1  0  0  0  0
  9 11  1  0  0  0  0
  9 22  1  0  0  0  0
 11 12  1  0  0  0  0
 11 13  1  0  0  0  0
 11 14  1  0  0  0  0
 14 15  1  0  0  0  0
 14 20  2  0  0  0  0
 15 16  2  0  0  0  0
 16 17  1  0  0  0  0
 16 18  1  0  0  0  0
 18 19  1  0  0  0  0
 18 20  1  0  0  0  0
 20 21  1  0  0  0  0
 22 23  2  0  0  0  0
 22 24  1  0  0  0  0
 24 25  1  0  0  0  0
 24 26  1  0  0  0  0
 26 27  1  0  0  0  0
 26 28  1  0  0  0  0
 26 29  1  0  0  0  0
M  END
$$$$

  -OEChem-04042215593D

 29 29  0     1  0  0  0  0  0999 V2000
   -2.2654   -4.6097    0.5339 H   0  0  0  0  0  0  0  0  0  0  0  0
   -2.4829   -3.6285    0.1026 C   0  0  0  0  0  0  0  0  0  0  0  0
   -3.2351   -3.1306    0.7188 H   0  0  0  0  0  0  0  0  0  0  0  0
   -2.8812   -3.7672   -0.9054 H   0  0  0  0  0  0  0  0  0  0  0  0
   -1.2196   -2.7904    0.0487 C   0  0  0  0  0  0  0  0  0  0  0  0
   -0.1718   -3.2398    0.4785 O   0  0  0  0  0  0  0  0  0  0  0  0
   -1.2681   -1.5164   -0.4744 N   0  0  0  0  0  0  0  0  0  0  0  0
   -2.1743   -1.1781   -0.8081 H   0  0  0  0  0  0  0  0  0  0  0  0
   -0.1275   -0.5952   -0.5926 C   0  0  1  0  0  0  0  0  0  0  0  0
    0.6483   -1.0806   -1.1946 H   0  0  0  0  0  0  0  0  0  0  0  0
   -0.5237    0.7338   -1.2841 C   0  0  0  0  0  0  0  0  0  0  0  0
    0.1706    1.5267   -0.9866 H   0  0  0  0  0  0  0  0  0  0  0  0
   -0.3912    0.5852   -2.3595 H   0  0  0  0  0  0  0  0  0  0  0  0
   -1.9473    1.2082   -1.0951 C   0  0  0  0  0  0  0  0  0  0  0  0
   -3.1145    0.4469   -1.1881 N   0  0  0  0  0  0  0  0  0  0  0  0
   -4.1167    1.2624   -0.9547 C   0  0  0  0  0  0  0  0  0  0  0  0
   -5.1650    0.9774   -0.9621 H   0  0  0  0  0  0  0  0  0  0  0  0
   -3.6403    2.5315   -0.6943 N   0  0  0  0  0  0  0  0  0  0  0  0
   -4.2157    3.3452   -0.4821 H   0  0  0  0  0  0  0  0  0  0  0  0
   -2.2652    2.5002   -0.7808 C   0  0  0  0  0  0  0  0  0  0  0  0
   -1.5659    3.3190   -0.6348 H   0  0  0  0  0  0  0  0  0  0  0  0
    0.5107   -0.2611    0.7740 C   0  0  0  0  0  0  0  0  0  0  0  0
    1.7091   -0.0190    0.8463 O   0  0  0  0  0  0  0  0  0  0  0  0
   -0.3021    0.0461    1.8509 N   0  0  0  0  0  0  0  0  0  0  0  0
   -1.2800   -0.2107    1.7582 H   0  0  0  0  0  0  0  0  0  0  0  0
    0.2171    0.3882    3.1684 C   0  0  0  0  0  0  0  0  0  0  0  0
    0.8788    1.2585    3.1072 H   0  0  0  0  0  0  0  0  0  0  0  0
   -0.6059    0.6293    3.8478 H   0  0  0  0  0  0  0  0  0  0  0  0
    0.7793   -0.4533    3.5865 H   0  0  0  0  0  0  0  0  0  0  0  0
  1  2  1  0  0  0  0
  2  3  1  0  0  0  0
  2  4  1  0  0  0  0
  2  5  1  0  0  0  0
  5  6  2  0  0  0  0
  5  7  1  0  0  0  0
  7  8  1  0  0  0  0
  7  9  1  0  0  0  0
  9 10  1  0  0  0  0
  9 11  1  0  0  0  0
  9 22  1  0  0  0  0
 11 12  1  0  0  0  0
 11 13  1  0  0  0  0
 11 14  1  0  0  0  0
 14 15  1  0  0  0  0
 14 20  2  0  0  0  0
 15 16  2  0  0  0  0
 16 17  1  0  0  0  0
 16 18  1  0  0  0  0
 18 19  1  0  0  0  0
 18 20  1  0  0  0  0
 20 21  1  0  0  0  0
 22 23  2  0  0  0  0
 22 24  1  0  0  0  0
 24 25  1  0  0  0  0
 24 26  1  0  0  0  0
 26 27  1  0  0  0  0
 26 28  1  0  0  0  0
 26 29  1  0  0  0  0
M  END
$$$$

  -OEChem-04042215593D

 29 29  0     1  0  0  0  0  0999 V2000
   -2.2128   -4.6235    0.5755 H   0  0  0  0  0  0  0  0  0  0  0  0
   -2.4458   -3.6456    0.1449 C   0  0  0  0  0  0  0  0  0  0  0  0
   -3.1681   -3.1387    0.7889 H   0  0  0  0  0  0  0  0  0  0  0  0
   -2.8889   -3.7919   -0.8430 H   0  0  0  0  0  0  0  0  0  0  0  0
   -1.1841   -2.8121    0.0264 C   0  0  0  0  0  0  0  0  0  0  0  0
   -0.1146   -3.2696    0.3892 O   0  0  0  0  0  0  0  0  0  0  0  0
   -1.2564   -1.5364   -0.4895 N   0  0  0  0  0  0  0  0  0  0  0  0
   -2.1849   -1.1780   -0.7256 H   0  0  0  0  0  0  0  0  0  0  0  0
   -0.1307   -0.5981   -0.6067 C   0  0  1  0  0  0  0  0  0  0  0  0
    0.6514   -1.0685   -1.2128 H   0  0  0  0  0  0  0  0  0  0  0  0
   -0.5406    0.7343   -1.2857 C   0  0  0  0  0  0  0  0  0  0  0  0
    0.1539    1.5273   -0.9889 H   0  0  0  0  0  0  0  0  0  0  0  0
   -0.4091    0.5880   -2.3615 H   0  0  0  0  0  0  0  0  0  0  0  0
   -1.9642    1.2178   -1.1031 C   0  0  0  0  0  0  0  0  0  0  0  0
   -3.1244    0.4615   -0.9169 N   0  0  0  0  0  0  0  0  0  0  0  0
   -4.1170    1.3117   -0.7902 C   0  0  0  0  0  0  0  0  0  0  0  0
   -5.1567    1.0364   -0.6363 H   0  0  0  0  0  0  0  0  0  0  0  0
   -3.6420    2.6043   -0.8770 N   0  0  0  0  0  0  0  0  0  0  0  0
   -4.2105    3.4470   -0.8074 H   0  0  0  0  0  0  0  0  0  0  0  0
   -2.2788    2.5482   -1.0708 C   0  0  0  0  0  0  0  0  0  0  0  0
   -1.5838    3.3767   -1.1771 H   0  0  0  0  0  0  0  0  0  0  0  0
    0.5005   -0.2686    0.7642 C   0  0  0  0  0  0  0  0  0  0  0  0
    1.6970   -0.0200    0.8441 O   0  0  0  0  0  0  0  0  0  0  0  0
   -0.3182    0.0165    1.8427 N   0  0  0  0  0  0  0  0  0  0  0  0
   -1.3023   -0.2099    1.7337 H   0  0  0  0  0  0  0  0  0  0  0  0
    0.1900    0.3683    3.1616 C   0  0  0  0  0  0  0  0  0  0  0  0
    0.7980    1.2775    3.1085 H   0  0  0  0  0  0  0  0  0  0  0  0
   -0.6402    0.5488    3.8509 H   0  0  0  0  0  0  0  0  0  0  0  0
    0.8045   -0.4446    3.5625 H   0  0  0  0  0  0  0  0  0  0  0  0
  1  2  1  0  0  0  0
  2  3  1  0  0  0  0
  2  4  1  0  0  0  0
  2  5  1  0  0  0  0
  5  6  2  0  0  0  0
  5  7  1  0  0  0  0
  7  8  1  0  0  0  0
  7  9  1  0  0  0  0
  9 10  1  0  0  0  0
  9 11  1  0  0  0  0
  9 22  1  0  0  0  0
 11 12  1  0  0  0  0
 11 13  1  0  0  0  0
 11 14  1  0  0  0  0
 14 15  1  0  0  0  0
 14 20  2  0  0  0  0
 15 16  2  0  0  0  0
 16 17  1  0  0  0  0
 16 18  1  0  0  0  0
 18 19  1  0  0  0  0
 18 20  1  0  0  0  0
 20 21  1  0  0  0  0
 22 23  2  0  0  0  0
 22 24  1  0  0  0  0
 24 25  1  0  0  0  0
 24 26  1  0  0  0  0
 26 27  1  0  0  0  0
 26 28  1  0  0  0  0
 26 29  1  0  0  0  0
M  END
$$$$

  -OEChem-04042215593D

 29 29  0     1  0  0  0  0  0999 V2000
   -2.1773   -4.6084    0.6329 H   0  0  0  0  0  0  0  0  0  0  0  0
   -2.4239   -3.6353    0.1988 C   0  0  0  0  0  0  0  0  0  0  0  0
   -3.0963   -3.1062    0.8783 H   0  0  0  0  0  0  0  0  0  0  0  0
   -2.9314   -3.7932   -0.7558 H   0  0  0  0  0  0  0  0  0  0  0  0
   -1.1603   -2.8245   -0.0158 C   0  0  0  0  0  0  0  0  0  0  0  0
   -0.0753   -3.3021    0.2666 O   0  0  0  0  0  0  0  0  0  0  0  0
   -1.2483   -1.5467   -0.5249 N   0  0  0  0  0  0  0  0  0  0  0  0
   -2.1870   -1.1616   -0.6513 H   0  0  0  0  0  0  0  0  0  0  0  0
   -0.1256   -0.6031   -0.6322 C   0  0  1  0  0  0  0  0  0  0  0  0
    0.6605   -1.0622   -1.2418 H   0  0  0  0  0  0  0  0  0  0  0  0
   -0.5413    0.7379   -1.2901 C   0  0  0  0  0  0  0  0  0  0  0  0
    0.1502    1.5288   -0.9808 H   0  0  0  0  0  0  0  0  0  0  0  0
   -0.4079    0.6077   -2.3676 H   0  0  0  0  0  0  0  0  0  0  0  0
   -1.9640    1.2228   -1.1001 C   0  0  0  0  0  0  0  0  0  0  0  0
   -3.0808    0.5160   -0.6453 N   0  0  0  0  0  0  0  0  0  0  0  0
   -4.0846    1.3622   -0.6222 C   0  0  0  0  0  0  0  0  0  0  0  0
   -5.0979    1.1180   -0.3154 H   0  0  0  0  0  0  0  0  0  0  0  0
   -3.6595    2.6059   -1.0419 N   0  0  0  0  0  0  0  0  0  0  0  0
   -4.2448    3.4373   -1.1092 H   0  0  0  0  0  0  0  0  0  0  0  0
   -2.3167    2.5222   -1.3397 C   0  0  0  0  0  0  0  0  0  0  0  0
   -1.6592    3.3139   -1.6886 H   0  0  0  0  0  0  0  0  0  0  0  0
    0.4956   -0.2853    0.7460 C   0  0  0  0  0  0  0  0  0  0  0  0
    1.6935   -0.0501    0.8430 O   0  0  0  0  0  0  0  0  0  0  0  0
   -0.3338   -0.0136    1.8197 N   0  0  0  0  0  0  0  0  0  0  0  0
   -1.3273   -0.1744    1.6798 H   0  0  0  0  0  0  0  0  0  0  0  0
    0.1537    0.3525    3.1425 C   0  0  0  0  0  0  0  0  0  0  0  0
    0.7520    1.2683    3.0912 H   0  0  0  0  0  0  0  0  0  0  0  0
   -0.6875    0.5270    3.8201 H   0  0  0  0  0  0  0  0  0  0  0  0
    0.7720   -0.4511    3.5564 H   0  0  0  0  0  0  0  0  0  0  0  0
  1  2  1  0  0  0  0
  2  3  1  0  0  0  0
  2  4  1  0  0  0  0
  2  5  1  0  0  0  0
  5  6  2  0  0  0  0
  5  7  1  0  0  0  0
  7  8  1  0  0  0  0
  7  9  1  0  0  0  0
  9 10  1  0  0  0  0
  9 11  1  0  0  0  0
  9 22  1  0  0  0  0
 11 12  1  0  0  0  0
 11 13  1  0  0  0  0
 11 14  1  0  0  0  0
 14 15  1  0  0  0  0
 14 20  2  0  0  0  0
 15 16  2  0  0  0  0
 16 17  1  0  0  0  0
 16 18  1  0  0  0  0
 18 19  1  0  0  0  0
 18 20  1  0  0  0  0
 20 21  1  0  0  0  0
 22 23  2  0  0  0  0
 22 24  1  0  0  0  0
 24 25  1  0  0  0  0
 24 26  1  0  0  0  0
 26 27  1  0  0  0  0
 26 28  1  0  0  0  0
 26 29  1  0  0  0  0
M  END
$$$$

  -OEChem-04042215593D

 29 29  0     1  0  0  0  0  0999 V2000
   -2.2042   -4.5950    0.6235 H   0  0  0  0  0  0  0  0  0  0  0  0
   -2.4452   -3.6076    0.2201 C   0  0  0  0  0  0  0  0  0  0  0  0
   -3.0524   -3.0670    0.9499 H   0  0  0  0  0  0  0  0  0  0  0  0
   -3.0195   -3.7333   -0.7009 H   0  0  0  0  0  0  0  0  0  0  0  0
   -1.1715   -2.8353   -0.0662 C   0  0  0  0  0  0  0  0  0  0  0  0
   -0.0867   -3.3498    0.1426 O   0  0  0  0  0  0  0  0  0  0  0  0
   -1.2504   -1.5525   -0.5645 N   0  0  0  0  0  0  0  0  0  0  0  0
   -2.1815   -1.1320   -0.5910 H   0  0  0  0  0  0  0  0  0  0  0  0
   -0.1118   -0.6245   -0.6509 C   0  0  1  0  0  0  0  0  0  0  0  0
    0.6738   -1.0811   -1.2630 H   0  0  0  0  0  0  0  0  0  0  0  0
   -0.5119    0.7338   -1.2816 C   0  0  0  0  0  0  0  0  0  0  0  0
    0.1800    1.5121   -0.9427 H   0  0  0  0  0  0  0  0  0  0  0  0
   -0.3709    0.6362   -2.3618 H   0  0  0  0  0  0  0  0  0  0  0  0
   -1.9302    1.2206   -1.0731 C   0  0  0  0  0  0  0  0  0  0  0  0
   -2.9684    0.6031   -0.3692 N   0  0  0  0  0  0  0  0  0  0  0  0
   -4.0056    1.4052   -0.4427 C   0  0  0  0  0  0  0  0  0  0  0  0
   -4.9752    1.2115    0.0076 H   0  0  0  0  0  0  0  0  0  0  0  0
   -3.6806    2.5282   -1.1756 N   0  0  0  0  0  0  0  0  0  0  0  0
   -4.3099    3.3047   -1.3740 H   0  0  0  0  0  0  0  0  0  0  0  0
   -2.3662    2.4155   -1.5741 C   0  0  0  0  0  0  0  0  0  0  0  0
   -1.7817    3.1208   -2.1584 H   0  0  0  0  0  0  0  0  0  0  0  0
    0.4954   -0.3364    0.7402 C   0  0  0  0  0  0  0  0  0  0  0  0
    1.6958   -0.1255    0.8598 O   0  0  0  0  0  0  0  0  0  0  0  0
   -0.3487   -0.0666    1.8034 N   0  0  0  0  0  0  0  0  0  0  0  0
   -1.3468   -0.0922    1.6076 H   0  0  0  0  0  0  0  0  0  0  0  0
    0.1137    0.3900    3.1066 C   0  0  0  0  0  0  0  0  0  0  0  0
    0.5729    1.3804    3.0244 H   0  0  0  0  0  0  0  0  0  0  0  0
   -0.7264    0.4524    3.8046 H   0  0  0  0  0  0  0  0  0  0  0  0
    0.8510   -0.3082    3.5164 H   0  0  0  0  0  0  0  0  0  0  0  0
  1  2  1  0  0  0  0
  2  3  1  0  0  0  0
  2  4  1  0  0  0  0
  2  5  1  0  0  0  0
  5  6  2  0  0  0  0
  5  7  1  0  0  0  0
  7  8  1  0  0  0  0
  7  9  1  0  0  0  0
  9 10  1  0  0  0  0
  9 11  1  0  0  0  0
  9 22  1  0  0  0  0
 11 12  1  0  0  0  0
 11 13  1  0  0  0  0
 11 14  1  0  0  0  0
 14 15  1  0  0  0  0
 14 20  2  0  0  0  0
 15 16  2  0  0  0  0
 16 17  1  0  0  0  0
 16 18  1  0  0  0  0
 18 19  1  0  0  0  0
 18 20  1  0  0  0  0
 20 21  1  0  0  0  0
 22 23  2  0  0  0  0
 22 24  1  0  0  0  0
 24 25  1  0  0  0  0
 24 26  1  0  0  0  0
 26 27  1  0  0  0  0
 26 28  1  0  0  0  0
 26 29  1  0  0  0  0
M  END
$$$$

  -OEChem-04042215593D

 29 29  0     1  0  0  0  0  0999 V2000
   -2.2522   -4.5407    0.6281 H   0  0  0  0  0  0  0  0  0  0  0  0
   -2.4786   -3.5457    0.2347 C   0  0  0  0  0  0  0  0  0  0  0  0
   -3.0382   -2.9874    0.9889 H   0  0  0  0  0  0  0  0  0  0  0  0
   -3.0933   -3.6519   -0.6622 H   0  0  0  0  0  0  0  0  0  0  0  0
   -1.1938   -2.8139   -0.1028 C   0  0  0  0  0  0  0  0  0  0  0  0
   -0.1185   -3.3632    0.0621 O   0  0  0  0  0  0  0  0  0  0  0  0
   -1.2527   -1.5291   -0.5993 N   0  0  0  0  0  0  0  0  0  0  0  0
   -2.1678   -1.0781   -0.5556 H   0  0  0  0  0  0  0  0  0  0  0  0
   -0.0925   -0.6248   -0.6624 C   0  0  1  0  0  0  0  0  0  0  0  0
    0.6941   -1.0882   -1.2682 H   0  0  0  0  0  0  0  0  0  0  0  0
   -0.4721    0.7417   -1.2857 C   0  0  0  0  0  0  0  0  0  0  0  0
    0.2135    1.5120   -0.9177 H   0  0  0  0  0  0  0  0  0  0  0  0
   -0.3137    0.6665   -2.3652 H   0  0  0  0  0  0  0  0  0  0  0  0
   -1.8915    1.2187   -1.0707 C   0  0  0  0  0  0  0  0  0  0  0  0
   -2.8188    0.7292   -0.1455 N   0  0  0  0  0  0  0  0  0  0  0  0
   -3.9125    1.4407   -0.2969 C   0  0  0  0  0  0  0  0  0  0  0  0
   -4.8233    1.3123    0.2815 H   0  0  0  0  0  0  0  0  0  0  0  0
   -3.7336    2.3708   -1.3012 N   0  0  0  0  0  0  0  0  0  0  0  0
   -4.4316    3.0469   -1.6082 H   0  0  0  0  0  0  0  0  0  0  0  0
   -2.4539    2.2323   -1.7946 C   0  0  0  0  0  0  0  0  0  0  0  0
   -1.9745    2.8043   -2.5843 H   0  0  0  0  0  0  0  0  0  0  0  0
    0.4969   -0.3560    0.7404 C   0  0  0  0  0  0  0  0  0  0  0  0
    1.7018   -0.1937    0.8870 O   0  0  0  0  0  0  0  0  0  0  0  0
   -0.3612   -0.0726    1.7887 N   0  0  0  0  0  0  0  0  0  0  0  0
   -1.3483    0.0065    1.5479 H   0  0  0  0  0  0  0  0  0  0  0  0
    0.0914    0.3948    3.0915 C   0  0  0  0  0  0  0  0  0  0  0  0
    0.5663    1.3771    3.0017 H   0  0  0  0  0  0  0  0  0  0  0  0
   -0.7562    0.4779    3.7784 H   0  0  0  0  0  0  0  0  0  0  0  0
    0.8134   -0.3083    3.5200 H   0  0  0  0  0  0  0  0  0  0  0  0
  1  2  1  0  0  0  0
  2  3  1  0  0  0  0
  2  4  1  0  0  0  0
  2  5  1  0  0  0  0
  5  6  2  0  0  0  0
  5  7  1  0  0  0  0
  7  8  1  0  0  0  0
  7  9  1  0  0  0  0
  9 10  1  0  0  0  0
  9 11  1  0  0  0  0
  9 22  1  0  0  0  0
 11 12  1  0  0  0  0
 11 13  1  0  0  0  0
 11 14  1  0  0  0  0
 14 15  1  0  0  0  0
 14 20  2  0  0  0  0
 15 16  2  0  0  0  0
 16 17  1  0  0  0  0
 16 18  1  0  0  0  0
 18 19  1  0  0  0  0
 18 20  1  0  0  0  0
 20 21  1  0  0  0  0
 22 23  2  0  0  0  0
 22 24  1  0  0  0  0
 24 25  1  0  0  0  0
 24 26  1  0  0  0  0
 26 27  1  0  0  0  0
 26 28  1  0  0  0  0
 26 29  1  0  0  0  0
M  END
$$$$

  -OEChem-04042215593D

 29 29  0     1  0  0  0  0  0999 V2000
   -2.3097   -4.4859    0.6175 H   0  0  0  0  0  0  0  0  0  0  0  0
   -2.5193   -3.4850    0.2296 C   0  0  0  0  0  0  0  0  0  0  0  0
   -3.0503   -2.9146    0.9954 H   0  0  0  0  0  0  0  0  0  0  0  0
   -3.1541   -3.5751   -0.6548 H   0  0  0  0  0  0  0  0  0  0  0  0
   -1.2243   -2.7834   -0.1324 C   0  0  0  0  0  0  0  0  0  0  0  0
   -0.1601   -3.3606    0.0066 O   0  0  0  0  0  0  0  0  0  0  0  0
   -1.2621   -1.4945   -0.6210 N   0  0  0  0  0  0  0  0  0  0  0  0
   -2.1626   -1.0230   -0.5372 H   0  0  0  0  0  0  0  0  0  0  0  0
   -0.0824   -0.6127   -0.6565 C   0  0  1  0  0  0  0  0  0  0  0  0
    0.7038   -1.0884   -1.2531 H   0  0  0  0  0  0  0  0  0  0  0  0
   -0.4371    0.7528   -1.2925 C   0  0  0  0  0  0  0  0  0  0  0  0
    0.2353    1.5231   -0.9012 H   0  0  0  0  0  0  0  0  0  0  0  0
   -0.2529    0.6844   -2.3686 H   0  0  0  0  0  0  0  0  0  0  0  0
   -1.8632    1.2080   -1.0908 C   0  0  0  0  0  0  0  0  0  0  0  0
   -2.6742    0.9006    0.0047 N   0  0  0  0  0  0  0  0  0  0  0  0
   -3.8243    1.5006   -0.2030 C   0  0  0  0  0  0  0  0  0  0  0  0
   -4.6736    1.4696    0.4740 H   0  0  0  0  0  0  0  0  0  0  0  0
   -3.7959    2.1692   -1.4110 N   0  0  0  0  0  0  0  0  0  0  0  0
   -4.5626    2.7179   -1.7981 H   0  0  0  0  0  0  0  0  0  0  0  0
   -2.5535    1.9834   -1.9788 C   0  0  0  0  0  0  0  0  0  0  0  0
   -2.1820    2.3723   -2.9229 H   0  0  0  0  0  0  0  0  0  0  0  0
    0.4986   -0.3597    0.7531 C   0  0  0  0  0  0  0  0  0  0  0  0
    1.7071   -0.2459    0.9146 O   0  0  0  0  0  0  0  0  0  0  0  0
   -0.3611   -0.0626    1.7958 N   0  0  0  0  0  0  0  0  0  0  0  0
   -1.3317    0.1038    1.5282 H   0  0  0  0  0  0  0  0  0  0  0  0
    0.0956    0.3954    3.1005 C   0  0  0  0  0  0  0  0  0  0  0  0
    0.5756    1.3756    3.0154 H   0  0  0  0  0  0  0  0  0  0  0  0
   -0.7516    0.4794    3.7877 H   0  0  0  0  0  0  0  0  0  0  0  0
    0.8141   -0.3137    3.5255 H   0  0  0  0  0  0  0  0  0  0  0  0
  1  2  1  0  0  0  0
  2  3  1  0  0  0  0
  2  4  1  0  0  0  0
  2  5  1  0  0  0  0
  5  6  2  0  0  0  0
  5  7  1  0  0  0  0
  7  8  1  0  0  0  0
  7  9  1  0  0  0  0
  9 10  1  0  0  0  0
  9 11  1  0  0  0  0
  9 22  1  0  0  0  0
 11 12  1  0  0  0  0
 11 13  1  0  0  0  0
 11 14  1  0  0  0  0
 14 15  1  0  0  0  0
 14 20  2  0  0  0  0
 15 16  2  0  0  0  0
 16 17  1  0  0  0  0
 16 18  1  0  0  0  0
 18 19  1  0  0  0  0
 18 20  1  0  0  0  0
 20 21  1  0  0  0  0
 22 23  2  0  0  0  0
 22 24  1  0  0  0  0
 24 25  1  0  0  0  0
 24 26  1  0  0  0  0
 26 27  1  0  0  0  0
 26 28  1  0  0  0  0
 26 29  1  0  0  0  0
M  END
$$$$

  -OEChem-04042215593D

 29 29  0     1  0  0  0  0  0999 V2000
   -2.3395   -4.4689    0.5923 H   0  0  0  0  0  0  0  0  0  0  0  0
   -2.5442   -3.4652    0.2086 C   0  0  0  0  0  0  0  0  0  0  0  0
   -3.0814   -2.8988    0.9730 H   0  0  0  0  0  0  0  0  0  0  0  0
   -3.1699   -3.5496   -0.6828 H   0  0  0  0  0  0  0  0  0  0  0  0
   -1.2443   -2.7640   -0.1365 C   0  0  0  0  0  0  0  0  0  0  0  0
   -0.1838   -3.3464    0.0072 O   0  0  0  0  0  0  0  0  0  0  0  0
   -1.2739   -1.4736   -0.6233 N   0  0  0  0  0  0  0  0  0  0  0  0
   -2.1725   -1.0004   -0.5446 H   0  0  0  0  0  0  0  0  0  0  0  0
   -0.0852   -0.6013   -0.6433 C   0  0  1  0  0  0  0  0  0  0  0  0
    0.7023   -1.0873   -1.2300 H   0  0  0  0  0  0  0  0  0  0  0  0
   -0.4230    0.7561   -1.3018 C   0  0  0  0  0  0  0  0  0  0  0  0
    0.2364    1.5342   -0.9043 H   0  0  0  0  0  0  0  0  0  0  0  0
   -0.2200    0.6784   -2.3737 H   0  0  0  0  0  0  0  0  0  0  0  0
   -1.8556    1.1880   -1.1181 C   0  0  0  0  0  0  0  0  0  0  0  0
   -2.5589    1.1225    0.0843 N   0  0  0  0  0  0  0  0  0  0  0  0
   -3.7517    1.6179   -0.1551 C   0  0  0  0  0  0  0  0  0  0  0  0
   -4.5418    1.7220    0.5833 H   0  0  0  0  0  0  0  0  0  0  0  0
   -3.8548    1.9770   -1.4851 N   0  0  0  0  0  0  0  0  0  0  0  0
   -4.6762    2.3965   -1.9190 H   0  0  0  0  0  0  0  0  0  0  0  0
   -2.6516    1.7046   -2.1009 C   0  0  0  0  0  0  0  0  0  0  0  0
   -2.3734    1.8740   -3.1374 H   0  0  0  0  0  0  0  0  0  0  0  0
    0.4945   -0.3484    0.7675 C   0  0  0  0  0  0  0  0  0  0  0  0
    1.7054   -0.2734    0.9342 O   0  0  0  0  0  0  0  0  0  0  0  0
   -0.3595   -0.0407    1.8114 N   0  0  0  0  0  0  0  0  0  0  0  0
   -1.3148    0.1894    1.5348 H   0  0  0  0  0  0  0  0  0  0  0  0
    0.1127    0.4014    3.1161 C   0  0  0  0  0  0  0  0  0  0  0  0
    0.6241    1.3656    3.0318 H   0  0  0  0  0  0  0  0  0  0  0  0
   -0.7307    0.5121    3.8040 H   0  0  0  0  0  0  0  0  0  0  0  0
    0.8076   -0.3313    3.5399 H   0  0  0  0  0  0  0  0  0  0  0  0
  1  2  1  0  0  0  0
  2  3  1  0  0  0  0
  2  4  1  0  0  0  0
  2  5  1  0  0  0  0
  5  6  2  0  0  0  0
  5  7  1  0  0  0  0
  7  8  1  0  0  0  0
  7  9  1  0  0  0  0
  9 10  1  0  0  0  0
  9 11  1  0  0  0  0
  9 22  1  0  0  0  0
 11 12  1  0  0  0  0
 11 13  1  0  0  0  0
 11 14  1  0  0  0  0
 14 15  1  0  0  0  0
 14 20  2  0  0  0  0
 15 16  2  0  0  0  0
 16 17  1  0  0  0  0
 16 18  1  0  0  0  0
 18 19  1  0  0  0  0
 18 20  1  0  0  0  0
 20 21  1  0  0  0  0
 22 23  2  0  0  0  0
 22 24  1  0  0  0  0
 24 25  1  0  0  0  0
 24 26  1  0  0  0  0
 26 27  1  0  0  0  0
 26 28  1  0  0  0  0
 26 29  1  0  0  0  0
M  END
$$$$

  -OEChem-04042215593D

 29 29  0     1  0  0  0  0  0999 V2000
   -2.3541   -4.4716    0.5808 H   0  0  0  0  0  0  0  0  0  0  0  0
   -2.5553   -3.4701    0.1896 C   0  0  0  0  0  0  0  0  0  0  0  0
   -3.1082   -2.9034    0.9427 H   0  0  0  0  0  0  0  0  0  0  0  0
   -3.1648   -3.5604   -0.7126 H   0  0  0  0  0  0  0  0  0  0  0  0
   -1.2516   -2.7657   -0.1342 C   0  0  0  0  0  0  0  0  0  0  0  0
   -0.1923   -3.3438    0.0317 O   0  0  0  0  0  0  0  0  0  0  0  0
   -1.2762   -1.4772   -0.6272 N   0  0  0  0  0  0  0  0  0  0  0  0
   -2.1802   -1.0133   -0.5878 H   0  0  0  0  0  0  0  0  0  0  0  0
   -0.0858   -0.6050   -0.6396 C   0  0  1  0  0  0  0  0  0  0  0  0
    0.7057   -1.0943   -1.2182 H   0  0  0  0  0  0  0  0  0  0  0  0
   -0.4150    0.7501   -1.3051 C   0  0  0  0  0  0  0  0  0  0  0  0
    0.2386    1.5344   -0.9102 H   0  0  0  0  0  0  0  0  0  0  0  0
   -0.2085    0.6664   -2.3757 H   0  0  0  0  0  0  0  0  0  0  0  0
   -1.8505    1.1639   -1.1247 C   0  0  0  0  0  0  0  0  0  0  0  0
   -2.4553    1.3677    0.1117 N   0  0  0  0  0  0  0  0  0  0  0  0
   -3.6822    1.7657   -0.1347 C   0  0  0  0  0  0  0  0  0  0  0  0
   -4.4171    2.0220    0.6234 H   0  0  0  0  0  0  0  0  0  0  0  0
   -3.9004    1.8012   -1.4989 N   0  0  0  0  0  0  0  0  0  0  0  0
   -4.7664    2.0961   -1.9485 H   0  0  0  0  0  0  0  0  0  0  0  0
   -2.7353    1.4236   -2.1326 C   0  0  0  0  0  0  0  0  0  0  0  0
   -2.5390    1.3615   -3.1997 H   0  0  0  0  0  0  0  0  0  0  0  0
    0.4863   -0.3415    0.7729 C   0  0  0  0  0  0  0  0  0  0  0  0
    1.6972   -0.2836    0.9461 O   0  0  0  0  0  0  0  0  0  0  0  0
   -0.3693   -0.0251    1.8133 N   0  0  0  0  0  0  0  0  0  0  0  0
   -1.3099    0.2472    1.5256 H   0  0  0  0  0  0  0  0  0  0  0  0
    0.1089    0.4233    3.1140 C   0  0  0  0  0  0  0  0  0  0  0  0
    0.6308    1.3812    3.0207 H   0  0  0  0  0  0  0  0  0  0  0  0
   -0.7326    0.5490    3.8017 H   0  0  0  0  0  0  0  0  0  0  0  0
    0.7963   -0.3129    3.5441 H   0  0  0  0  0  0  0  0  0  0  0  0
  1  2  1  0  0  0  0
  2  3  1  0  0  0  0
  2  4  1  0  0  0  0
  2  5  1  0  0  0  0
  5  6  2  0  0  0  0
  5  7  1  0  0  0  0
  7  8  1  0  0  0  0
  7  9  1  0  0  0  0
  9 10  1  0  0  0  0
  9 11  1  0  0  0  0
  9 22  1  0  0  0  0
 11 12  1  0  0  0  0
 11 13  1  0  0  0  0
 11 14  1  0  0  0  0
 14 15  1  0  0  0  0
 14 20  2  0  0  0  0
 15 16  2  0  0  0  0
 16 17  1  0  0  0  0
 16 18  1  0  0  0  0
 18 19  1  0  0  0  0
 18 20  1  0  0  0  0
 20 21  1  0  0  0  0
 22 23  2  0  0  0  0
 22 24  1  0  0  0  0
 24 25  1  0  0  0  0
 24 26  1  0  0  0  0
 26 27  1  0  0  0  0
 26 28  1  0  0  0  0
 26 29  1  0  0  0  0
M  END
$$$$

  -OEChem-04042215593D

 29 29  0     1  0  0  0  0  0999 V2000
   -2.3538   -4.4856    0.5815 H   0  0  0  0  0  0  0  0  0  0  0  0
   -2.5531   -3.4906    0.1734 C   0  0  0  0  0  0  0  0  0  0  0  0
   -3.1350   -2.9218    0.9025 H   0  0  0  0  0  0  0  0  0  0  0  0
   -3.1336   -3.5972   -0.7459 H   0  0  0  0  0  0  0  0  0  0  0  0
   -1.2467   -2.7768   -0.1178 C   0  0  0  0  0  0  0  0  0  0  0  0
   -0.1878   -3.3438    0.0832 O   0  0  0  0  0  0  0  0  0  0  0  0
   -1.2680   -1.4940   -0.6261 N   0  0  0  0  0  0  0  0  0  0  0  0
   -2.1784   -1.0436   -0.6447 H   0  0  0  0  0  0  0  0  0  0  0  0
   -0.0793   -0.6176   -0.6433 C   0  0  1  0  0  0  0  0  0  0  0  0
    0.7170   -1.1058   -1.2165 H   0  0  0  0  0  0  0  0  0  0  0  0
   -0.4124    0.7374   -1.3069 C   0  0  0  0  0  0  0  0  0  0  0  0
    0.2433    1.5268   -0.9246 H   0  0  0  0  0  0  0  0  0  0  0  0
   -0.2183    0.6485   -2.3795 H   0  0  0  0  0  0  0  0  0  0  0  0
   -1.8483    1.1395   -1.1150 C   0  0  0  0  0  0  0  0  0  0  0  0
   -2.3599    1.6206    0.0833 N   0  0  0  0  0  0  0  0  0  0  0  0
   -3.6142    1.9328   -0.1445 C   0  0  0  0  0  0  0  0  0  0  0  0
   -4.2940    2.3523    0.5921 H   0  0  0  0  0  0  0  0  0  0  0  0
   -3.9393    1.6441   -1.4567 N   0  0  0  0  0  0  0  0  0  0  0  0
   -4.8435    1.8257   -1.8910 H   0  0  0  0  0  0  0  0  0  0  0  0
   -2.8142    1.1485   -2.0816 C   0  0  0  0  0  0  0  0  0  0  0  0
   -2.6961    0.8521   -3.1205 H   0  0  0  0  0  0  0  0  0  0  0  0
    0.4817   -0.3371    0.7705 C   0  0  0  0  0  0  0  0  0  0  0  0
    1.6911   -0.2878    0.9556 O   0  0  0  0  0  0  0  0  0  0  0  0
   -0.3843   -0.0114    1.7999 N   0  0  0  0  0  0  0  0  0  0  0  0
   -1.3132    0.2824    1.4983 H   0  0  0  0  0  0  0  0  0  0  0  0
    0.0862    0.4489    3.0992 C   0  0  0  0  0  0  0  0  0  0  0  0
    0.6107    1.4047    2.9993 H   0  0  0  0  0  0  0  0  0  0  0  0
   -0.7598    0.5840    3.7795 H   0  0  0  0  0  0  0  0  0  0  0  0
    0.7688   -0.2841    3.5419 H   0  0  0  0  0  0  0  0  0  0  0  0
  1  2  1  0  0  0  0
  2  3  1  0  0  0  0
  2  4  1  0  0  0  0
  2  5  1  0  0  0  0
  5  6  2  0  0  0  0
  5  7  1  0  0  0  0
  7  8  1  0  0  0  0
  7  9  1  0  0  0  0
  9 10  1  0  0  0  0
  9 11  1  0  0  0  0
  9 22  1  0  0  0  0
 11 12  1  0  0  0  0
 11 13  1  0  0  0  0
 11 14  1  0  0  0  0
 14 15  1  0  0  0  0
 14 20  2  0  0  0  0
 15 16  2  0  0  0  0
 16 17  1  0  0  0  0
 16 18  1  0  0  0  0
 18 19  1  0  0  0  0
 18 20  1  0  0  0  0
 20 21  1  0  0  0  0
 22 23  2  0  0  0  0
 22 24  1  0  0  0  0
 24 25  1  0  0  0  0
 24 26  1  0  0  0  0
 26 27  1  0  0  0  0
 26 28  1  0  0  0  0
 26 29  1  0  0  0  0
M  END
$$$$

  -OEChem-04042215593D

 29 29  0     1  0  0  0  0  0999 V2000
   -2.3421   -4.5121    0.5751 H   0  0  0  0  0  0  0  0  0  0  0  0
   -2.5438   -3.5200    0.1612 C   0  0  0  0  0  0  0  0  0  0  0  0
   -3.1560   -2.9609    0.8726 H   0  0  0  0  0  0  0  0  0  0  0  0
   -3.0945   -3.6346   -0.7752 H   0  0  0  0  0  0  0  0  0  0  0  0
   -1.2401   -2.7866   -0.0908 C   0  0  0  0  0  0  0  0  0  0  0  0
   -0.1796   -3.3364    0.1443 O   0  0  0  0  0  0  0  0  0  0  0  0
   -1.2655   -1.5074   -0.6078 N   0  0  0  0  0  0  0  0  0  0  0  0
   -2.1814   -1.0742   -0.6770 H   0  0  0  0  0  0  0  0  0  0  0  0
   -0.0831   -0.6223   -0.6380 C   0  0  1  0  0  0  0  0  0  0  0  0
    0.7135   -1.1086   -1.2121 H   0  0  0  0  0  0  0  0  0  0  0  0
   -0.4245    0.7297   -1.3033 C   0  0  0  0  0  0  0  0  0  0  0  0
    0.2347    1.5242   -0.9378 H   0  0  0  0  0  0  0  0  0  0  0  0
   -0.2442    0.6328   -2.3777 H   0  0  0  0  0  0  0  0  0  0  0  0
   -1.8593    1.1286   -1.1037 C   0  0  0  0  0  0  0  0  0  0  0  0
   -2.3048    1.8802   -0.0262 N   0  0  0  0  0  0  0  0  0  0  0  0
   -3.5811    2.1076   -0.2285 C   0  0  0  0  0  0  0  0  0  0  0  0
   -4.2227    2.6829    0.4333 H   0  0  0  0  0  0  0  0  0  0  0  0
   -3.9836    1.5060   -1.4065 N   0  0  0  0  0  0  0  0  0  0  0  0
   -4.9189    1.5687   -1.8068 H   0  0  0  0  0  0  0  0  0  0  0  0
   -2.8858    0.8960   -1.9769 C   0  0  0  0  0  0  0  0  0  0  0  0
   -2.8238    0.3702   -2.9262 H   0  0  0  0  0  0  0  0  0  0  0  0
    0.4822   -0.3265    0.7709 C   0  0  0  0  0  0  0  0  0  0  0  0
    1.6921   -0.2755    0.9509 O   0  0  0  0  0  0  0  0  0  0  0  0
   -0.3798    0.0016    1.8035 N   0  0  0  0  0  0  0  0  0  0  0  0
   -1.3163    0.2771    1.5145 H   0  0  0  0  0  0  0  0  0  0  0  0
    0.0960    0.4573    3.1026 C   0  0  0  0  0  0  0  0  0  0  0  0
    0.6398    1.4023    3.0017 H   0  0  0  0  0  0  0  0  0  0  0  0
   -0.7489    0.6114    3.7804 H   0  0  0  0  0  0  0  0  0  0  0  0
    0.7630   -0.2880    3.5487 H   0  0  0  0  0  0  0  0  0  0  0  0
  1  2  1  0  0  0  0
  2  3  1  0  0  0  0
  2  4  1  0  0  0  0
  2  5  1  0  0  0  0
  5  6  2  0  0  0  0
  5  7  1  0  0  0  0
  7  8  1  0  0  0  0
  7  9  1  0  0  0  0
  9 10  1  0  0  0  0
  9 11  1  0  0  0  0
  9 22  1  0  0  0  0
 11 12  1  0  0  0  0
 11 13  1  0  0  0  0
 11 14  1  0  0  0  0
 14 15  1  0  0  0  0
 14 20  2  0  0  0  0
 15 16  2  0  0  0  0
 16 17  1  0  0  0  0
 16 18  1  0  0  0  0
 18 19  1  0  0  0  0
 18 20  1  0  0  0  0
 20 21  1  0  0  0  0
 22 23  2  0  0  0  0
 22 24  1  0  0  0  0
 24 25  1  0  0  0  0
 24 26  1  0  0  0  0
 26 27  1  0  0  0  0
 26 28  1  0  0  0  0
 26 29  1  0  0  0  0
M  END
$$$$

  -OEChem-04042215593D

 29 29  0     1  0  0  0  0  0999 V2000
   -2.2889   -4.5734    0.5810 H   0  0  0  0  0  0  0  0  0  0  0  0
   -2.5110   -3.5807    0.1788 C   0  0  0  0  0  0  0  0  0  0  0  0
   -3.1323   -3.0422    0.8982 H   0  0  0  0  0  0  0  0  0  0  0  0
   -3.0623   -3.6959   -0.7573 H   0  0  0  0  0  0  0  0  0  0  0  0
   -1.2230   -2.8181   -0.0672 C   0  0  0  0  0  0  0  0  0  0  0  0
   -0.1514   -3.3447    0.1699 O   0  0  0  0  0  0  0  0  0  0  0  0
   -1.2754   -1.5338   -0.5704 N   0  0  0  0  0  0  0  0  0  0  0  0
   -2.2000   -1.1223   -0.6526 H   0  0  0  0  0  0  0  0  0  0  0  0
   -0.1086   -0.6291   -0.6168 C   0  0  1  0  0  0  0  0  0  0  0  0
    0.6835   -1.1084   -1.2034 H   0  0  0  0  0  0  0  0  0  0  0  0
   -0.4609    0.7208   -1.2825 C   0  0  0  0  0  0  0  0  0  0  0  0
    0.2020    1.5159   -0.9243 H   0  0  0  0  0  0  0  0  0  0  0  0
   -0.2839    0.6206   -2.3570 H   0  0  0  0  0  0  0  0  0  0  0  0
   -1.8930    1.1348   -1.0906 C   0  0  0  0  0  0  0  0  0  0  0  0
   -2.2952    2.1265   -0.2096 N   0  0  0  0  0  0  0  0  0  0  0  0
   -3.5804    2.3056   -0.4001 C   0  0  0  0  0  0  0  0  0  0  0  0
   -4.1937    3.0253    0.1352 H   0  0  0  0  0  0  0  0  0  0  0  0
   -4.0317    1.4480   -1.3860 N   0  0  0  0  0  0  0  0  0  0  0  0
   -4.9808    1.4310   -1.7571 H   0  0  0  0  0  0  0  0  0  0  0  0
   -2.9556    0.7191   -1.8474 C   0  0  0  0  0  0  0  0  0  0  0  0
   -2.9290    0.0028   -2.6645 H   0  0  0  0  0  0  0  0  0  0  0  0
    0.4839   -0.3351    0.7814 C   0  0  0  0  0  0  0  0  0  0  0  0
    1.6954   -0.2337    0.9247 O   0  0  0  0  0  0  0  0  0  0  0  0
   -0.3560   -0.0304    1.8392 N   0  0  0  0  0  0  0  0  0  0  0  0
   -1.3275    0.1437    1.5999 H   0  0  0  0  0  0  0  0  0  0  0  0
    0.1367    0.4539    3.1218 C   0  0  0  0  0  0  0  0  0  0  0  0
    0.6012    1.4384    3.0060 H   0  0  0  0  0  0  0  0  0  0  0  0
   -0.6886    0.5389    3.8348 H   0  0  0  0  0  0  0  0  0  0  0  0
    0.8770   -0.2390    3.5356 H   0  0  0  0  0  0  0  0  0  0  0  0
  1  2  1  0  0  0  0
  2  3  1  0  0  0  0
  2  4  1  0  0  0  0
  2  5  1  0  0  0  0
  5  6  2  0  0  0  0
  5  7  1  0  0  0  0
  7  8  1  0  0  0  0
  7  9  1  0  0  0  0
  9 10  1  0  0  0  0
  9 11  1  0  0  0  0
  9 22  1  0  0  0  0
 11 12  1  0  0  0  0
 11 13  1  0  0  0  0
 11 14  1  0  0  0  0
 14 15  1  0  0  0  0
 14 20  2  0  0  0  0
 15 16  2  0  0  0  0
 16 17  1  0  0  0  0
 16 18  1  0  0  0  0
 18 19  1  0  0  0  0
 18 20  1  0  0  0  0
 20 21  1  0  0  0  0
 22 23  2  0  0  0  0
 22 24  1  0  0  0  0
 24 25  1  0  0  0  0
 24 26  1  0  0  0  0
 26 27  1  0  0  0  0
 26 28  1  0  0  0  0
 26 29  1  0  0  0  0
M  END
$$$$

  -OEChem-04042215593D

 29 29  0     1  0  0  0  0  0999 V2000
   -2.1979   -4.6254    0.6107 H   0  0  0  0  0  0  0  0  0  0  0  0
   -2.4545   -3.6369    0.2189 C   0  0  0  0  0  0  0  0  0  0  0  0
   -3.0795   -3.1210    0.9515 H   0  0  0  0  0  0  0  0  0  0  0  0
   -3.0167   -3.7621   -0.7096 H   0  0  0  0  0  0  0  0  0  0  0  0
   -1.1917   -2.8375   -0.0417 C   0  0  0  0  0  0  0  0  0  0  0  0
   -0.1028   -3.3391    0.1679 O   0  0  0  0  0  0  0  0  0  0  0  0
   -1.2864   -1.5483   -0.5271 N   0  0  0  0  0  0  0  0  0  0  0  0
   -2.2212   -1.1555   -0.5728 H   0  0  0  0  0  0  0  0  0  0  0  0
   -0.1422   -0.6175   -0.5937 C   0  0  1  0  0  0  0  0  0  0  0  0
    0.6450   -1.0877   -1.1943 H   0  0  0  0  0  0  0  0  0  0  0  0
   -0.5100    0.7268   -1.2668 C   0  0  0  0  0  0  0  0  0  0  0  0
    0.1533    1.5231   -0.9123 H   0  0  0  0  0  0  0  0  0  0  0  0
   -0.3296    0.6223   -2.3404 H   0  0  0  0  0  0  0  0  0  0  0  0
   -1.9403    1.1612   -1.0937 C   0  0  0  0  0  0  0  0  0  0  0  0
   -2.3054    2.3450   -0.4711 N   0  0  0  0  0  0  0  0  0  0  0  0
   -3.5988    2.4830   -0.6349 C   0  0  0  0  0  0  0  0  0  0  0  0
   -4.1874    3.3168   -0.2622 H   0  0  0  0  0  0  0  0  0  0  0  0
   -4.0938    1.4175   -1.3627 N   0  0  0  0  0  0  0  0  0  0  0  0
   -5.0579    1.3238   -1.6795 H   0  0  0  0  0  0  0  0  0  0  0  0
   -3.0372    0.5937   -1.6888 C   0  0  0  0  0  0  0  0  0  0  0  0
   -3.0463   -0.2833   -2.3305 H   0  0  0  0  0  0  0  0  0  0  0  0
    0.4831   -0.3257    0.7908 C   0  0  0  0  0  0  0  0  0  0  0  0
    1.6947   -0.1895    0.8981 O   0  0  0  0  0  0  0  0  0  0  0  0
   -0.3280   -0.0518    1.8790 N   0  0  0  0  0  0  0  0  0  0  0  0
   -1.3229    0.0306    1.6989 H   0  0  0  0  0  0  0  0  0  0  0  0
    0.1925    0.4034    3.1617 C   0  0  0  0  0  0  0  0  0  0  0  0
    0.6748    1.3805    3.0543 H   0  0  0  0  0  0  0  0  0  0  0  0
   -0.6199    0.4936    3.8889 H   0  0  0  0  0  0  0  0  0  0  0  0
    0.9255   -0.3105    3.5523 H   0  0  0  0  0  0  0  0  0  0  0  0
  1  2  1  0  0  0  0
  2  3  1  0  0  0  0
  2  4  1  0  0  0  0
  2  5  1  0  0  0  0
  5  6  2  0  0  0  0
  5  7  1  0  0  0  0
  7  8  1  0  0  0  0
  7  9  1  0  0  0  0
  9 10  1  0  0  0  0
  9 11  1  0  0  0  0
  9 22  1  0  0  0  0
 11 12  1  0  0  0  0
 11 13  1  0  0  0  0
 11 14  1  0  0  0  0
 14 15  1  0  0  0  0
 14 20  2  0  0  0  0
 15 16  2  0  0  0  0
 16 17  1  0  0  0  0
 16 18  1  0  0  0  0
 18 19  1  0  0  0  0
 18 20  1  0  0  0  0
 20 21  1  0  0  0  0
 22 23  2  0  0  0  0
 22 24  1  0  0  0  0
 24 25  1  0  0  0  0
 24 26  1  0  0  0  0
 26 27  1  0  0  0  0
 26 28  1  0  0  0  0
 26 29  1  0  0  0  0
M  END
$$$$

  -OEChem-04042215593D

 29 29  0     1  0  0  0  0  0999 V2000
   -2.0860   -4.6875    0.6290 H   0  0  0  0  0  0  0  0  0  0  0  0
   -2.3784   -3.6968    0.2690 C   0  0  0  0  0  0  0  0  0  0  0  0
   -2.9814   -3.2083    1.0381 H   0  0  0  0  0  0  0  0  0  0  0  0
   -2.9778   -3.8155   -0.6367 H   0  0  0  0  0  0  0  0  0  0  0  0
   -1.1441   -2.8670   -0.0296 C   0  0  0  0  0  0  0  0  0  0  0  0
   -0.0375   -3.3431    0.1421 O   0  0  0  0  0  0  0  0  0  0  0  0
   -1.2858   -1.5759   -0.4989 N   0  0  0  0  0  0  0  0  0  0  0  0
   -2.2280   -1.2016   -0.4859 H   0  0  0  0  0  0  0  0  0  0  0  0
   -0.1687   -0.6161   -0.5816 C   0  0  1  0  0  0  0  0  0  0  0  0
    0.6170   -1.0709   -1.1960 H   0  0  0  0  0  0  0  0  0  0  0  0
   -0.5551    0.7288   -1.2489 C   0  0  0  0  0  0  0  0  0  0  0  0
    0.1105    1.5211   -0.8898 H   0  0  0  0  0  0  0  0  0  0  0  0
   -0.3712    0.6314   -2.3225 H   0  0  0  0  0  0  0  0  0  0  0  0
   -1.9825    1.1899   -1.0921 C   0  0  0  0  0  0  0  0  0  0  0  0
   -2.2993    2.4993   -0.7597 N   0  0  0  0  0  0  0  0  0  0  0  0
   -3.5987    2.6283   -0.8687 C   0  0  0  0  0  0  0  0  0  0  0  0
   -4.1527    3.5417   -0.6707 H   0  0  0  0  0  0  0  0  0  0  0  0
   -4.1501    1.4350   -1.2913 N   0  0  0  0  0  0  0  0  0  0  0  0
   -5.1324    1.2964   -1.5241 H   0  0  0  0  0  0  0  0  0  0  0  0
   -3.1244    0.5324   -1.4787 C   0  0  0  0  0  0  0  0  0  0  0  0
   -3.1912   -0.4576   -1.9202 H   0  0  0  0  0  0  0  0  0  0  0  0
    0.4780   -0.3256    0.7937 C   0  0  0  0  0  0  0  0  0  0  0  0
    1.6854   -0.1434    0.8754 O   0  0  0  0  0  0  0  0  0  0  0  0
   -0.3161   -0.0866    1.9028 N   0  0  0  0  0  0  0  0  0  0  0  0
   -1.3201   -0.0890    1.7631 H   0  0  0  0  0  0  0  0  0  0  0  0
    0.2167    0.3636    3.1823 C   0  0  0  0  0  0  0  0  0  0  0  0
    0.6631    1.3584    3.0821 H   0  0  0  0  0  0  0  0  0  0  0  0
   -0.5822    0.4144    3.9280 H   0  0  0  0  0  0  0  0  0  0  0  0
    0.9814   -0.3317    3.5446 H   0  0  0  0  0  0  0  0  0  0  0  0
  1  2  1  0  0  0  0
  2  3  1  0  0  0  0
  2  4  1  0  0  0  0
  2  5  1  0  0  0  0
  5  6  2  0  0  0  0
  5  7  1  0  0  0  0
  7  8  1  0  0  0  0
  7  9  1  0  0  0  0
  9 10  1  0  0  0  0
  9 11  1  0  0  0  0
  9 22  1  0  0  0  0
 11 12  1  0  0  0  0
 11 13  1  0  0  0  0
 11 14  1  0  0  0  0
 14 15  1  0  0  0  0
 14 20  2  0  0  0  0
 15 16  2  0  0  0  0
 16 17  1  0  0  0  0
 16 18  1  0  0  0  0
 18 19  1  0  0  0  0
 18 20  1  0  0  0  0
 20 21  1  0  0  0  0
 22 23  2  0  0  0  0
 22 24  1  0  0  0  0
 24 25  1  0  0  0  0
 24 26  1  0  0  0  0
 26 27  1  0  0  0  0
 26 28  1  0  0  0  0
 26 29  1  0  0  0  0
M  END
$$$$

  -OEChem-04042215593D

 29 29  0     1  0  0  0  0  0999 V2000
   -1.9610   -4.8508    0.4665 H   0  0  0  0  0  0  0  0  0  0  0  0
   -2.2627   -3.9032    0.0107 C   0  0  0  0  0  0  0  0  0  0  0  0
   -3.1592   -3.5395    0.5184 H   0  0  0  0  0  0  0  0  0  0  0  0
   -2.4925   -4.0798   -1.0430 H   0  0  0  0  0  0  0  0  0  0  0  0
   -1.1442   -2.8854    0.1355 C   0  0  0  0  0  0  0  0  0  0  0  0
   -0.1151   -3.1904    0.7079 O   0  0  0  0  0  0  0  0  0  0  0  0
   -1.3040   -1.6304   -0.4209 N   0  0  0  0  0  0  0  0  0  0  0  0
   -2.0900   -1.5419   -1.0541 H   0  0  0  0  0  0  0  0  0  0  0  0
   -0.2056   -0.6627   -0.5946 C   0  0  1  0  0  0  0  0  0  0  0  0
    0.5720   -1.1321   -1.2073 H   0  0  0  0  0  0  0  0  0  0  0  0
   -0.6493    0.6502   -1.2958 C   0  0  0  0  0  0  0  0  0  0  0  0
    0.0358    1.4521   -0.9979 H   0  0  0  0  0  0  0  0  0  0  0  0
   -0.5030    0.5102   -2.3702 H   0  0  0  0  0  0  0  0  0  0  0  0
   -2.0633    1.1713   -1.1291 C   0  0  0  0  0  0  0  0  0  0  0  0
   -2.2625    2.5445   -1.1931 N   0  0  0  0  0  0  0  0  0  0  0  0
   -3.5350    2.7741   -0.9897 C   0  0  0  0  0  0  0  0  0  0  0  0
   -3.9975    3.7570   -0.9800 H   0  0  0  0  0  0  0  0  0  0  0  0
   -4.1920    1.5785   -0.7888 N   0  0  0  0  0  0  0  0  0  0  0  0
   -5.1890    1.4844   -0.6022 H   0  0  0  0  0  0  0  0  0  0  0  0
   -3.2674    0.5577   -0.8690 C   0  0  0  0  0  0  0  0  0  0  0  0
   -3.4750   -0.4961   -0.7401 H   0  0  0  0  0  0  0  0  0  0  0  0
    0.4682   -0.2626    0.7414 C   0  0  0  0  0  0  0  0  0  0  0  0
    1.6695   -0.0268    0.7685 O   0  0  0  0  0  0  0  0  0  0  0  0
   -0.3054    0.0429    1.8473 N   0  0  0  0  0  0  0  0  0  0  0  0
   -1.2936   -0.1774    1.7900 H   0  0  0  0  0  0  0  0  0  0  0  0
    0.2530    0.4874    3.1172 C   0  0  0  0  0  0  0  0  0  0  0  0
    0.8075    1.4227    2.9857 H   0  0  0  0  0  0  0  0  0  0  0  0
   -0.5477    0.6602    3.8424 H   0  0  0  0  0  0  0  0  0  0  0  0
    0.9311   -0.2710    3.5226 H   0  0  0  0  0  0  0  0  0  0  0  0
  1  2  1  0  0  0  0
  2  3  1  0  0  0  0
  2  4  1  0  0  0  0
  2  5  1  0  0  0  0
  5  6  2  0  0  0  0
  5  7  1  0  0  0  0
  7  8  1  0  0  0  0
  7  9  1  0  0  0  0
  9 10  1  0  0  0  0
  9 11  1  0  0  0  0
  9 22  1  0  0  0  0
 11 12  1  0  0  0  0
 11 13  1  0  0  0  0
 11 14  1  0  0  0  0
 14 15  1  0  0  0  0
 14 20  2  0  0  0  0
 15 16  2  0  0  0  0
 16 17  1  0  0  0  0
 16 18  1  0  0  0  0
 18 19  1  0  0  0  0
 18 20  1  0  0  0  0
 20 21  1  0  0  0  0
 22 23  2  0  0  0  0
 22 24  1  0  0  0  0
 24 25  1  0  0  0  0
 24 26  1  0  0  0  0
 26 27  1  0  0  0  0
 26 28  1  0  0  0  0
 26 29  1  0  0  0  0
M  END
$$$$

  -OEChem-04042215593D

 29 29  0     1  0  0  0  0  0999 V2000
   -1.9441   -4.8555    0.4547 H   0  0  0  0  0  0  0  0  0  0  0  0
   -2.2413   -3.9104   -0.0094 C   0  0  0  0  0  0  0  0  0  0  0  0
   -3.1484   -3.5489    0.4806 H   0  0  0  0  0  0  0  0  0  0  0  0
   -2.4508   -4.0904   -1.0667 H   0  0  0  0  0  0  0  0  0  0  0  0
   -1.1301   -2.8874    0.1341 C   0  0  0  0  0  0  0  0  0  0  0  0
   -0.1129   -3.1845    0.7312 O   0  0  0  0  0  0  0  0  0  0  0  0
   -1.2871   -1.6297   -0.4165 N   0  0  0  0  0  0  0  0  0  0  0  0
   -2.0737   -1.5303   -1.0504 H   0  0  0  0  0  0  0  0  0  0  0  0
   -0.1921   -0.6522   -0.5613 C   0  0  1  0  0  0  0  0  0  0  0  0
    0.6009   -1.1148   -1.1595 H   0  0  0  0  0  0  0  0  0  0  0  0
   -0.6357    0.6518   -1.2761 C   0  0  0  0  0  0  0  0  0  0  0  0
    0.0327    1.4643   -0.9705 H   0  0  0  0  0  0  0  0  0  0  0  0
   -0.4655    0.5036   -2.3457 H   0  0  0  0  0  0  0  0  0  0  0  0
   -2.0581    1.1587   -1.1492 C   0  0  0  0  0  0  0  0  0  0  0  0
   -2.3194    2.4668   -1.5366 N   0  0  0  0  0  0  0  0  0  0  0  0
   -3.5763    2.7190   -1.2709 C   0  0  0  0  0  0  0  0  0  0  0  0
   -4.0777    3.6631   -1.4657 H   0  0  0  0  0  0  0  0  0  0  0  0
   -4.1583    1.6065   -0.6999 N   0  0  0  0  0  0  0  0  0  0  0  0
   -5.1214    1.5549   -0.3722 H   0  0  0  0  0  0  0  0  0  0  0  0
   -3.1981    0.6219   -0.5960 C   0  0  0  0  0  0  0  0  0  0  0  0
   -3.3292   -0.3478   -0.1328 H   0  0  0  0  0  0  0  0  0  0  0  0
    0.4555   -0.2524    0.7872 C   0  0  0  0  0  0  0  0  0  0  0  0
    1.6529   -0.0006    0.8335 O   0  0  0  0  0  0  0  0  0  0  0  0
   -0.3383    0.0424    1.8816 N   0  0  0  0  0  0  0  0  0  0  0  0
   -1.3159   -0.2188    1.8189 H   0  0  0  0  0  0  0  0  0  0  0  0
    0.2025    0.4601    3.1683 C   0  0  0  0  0  0  0  0  0  0  0  0
    0.7752    1.3873    3.0602 H   0  0  0  0  0  0  0  0  0  0  0  0
   -0.6091    0.6375    3.8799 H   0  0  0  0  0  0  0  0  0  0  0  0
    0.8597   -0.3151    3.5761 H   0  0  0  0  0  0  0  0  0  0  0  0
  1  2  1  0  0  0  0
  2  3  1  0  0  0  0
  2  4  1  0  0  0  0
  2  5  1  0  0  0  0
  5  6  2  0  0  0  0
  5  7  1  0  0  0  0
  7  8  1  0  0  0  0
  7  9  1  0  0  0  0
  9 10  1  0  0  0  0
  9 11  1  0  0  0  0
  9 22  1  0  0  0  0
 11 12  1  0  0  0  0
 11 13  1  0  0  0  0
 11 14  1  0  0  0  0
 14 15  1  0  0  0  0
 14 20  2  0  0  0  0
 15 16  2  0  0  0  0
 16 17  1  0  0  0  0
 16 18  1  0  0  0  0
 18 19  1  0  0  0  0
 18 20  1  0  0  0  0
 20 21  1  0  0  0  0
 22 23  2  0  0  0  0
 22 24  1  0  0  0  0
 24 25  1  0  0  0  0
 24 26  1  0  0  0  0
 26 27  1  0  0  0  0
 26 28  1  0  0  0  0
 26 29  1  0  0  0  0
M  END
$$$$

  -OEChem-04042215593D

 29 29  0     1  0  0  0  0  0999 V2000
   -2.1585   -4.7541    0.3284 H   0  0  0  0  0  0  0  0  0  0  0  0
   -2.4184   -3.7717   -0.0766 C   0  0  0  0  0  0  0  0  0  0  0  0
   -3.2939   -3.3925    0.4555 H   0  0  0  0  0  0  0  0  0  0  0  0
   -2.6627   -3.8834   -1.1357 H   0  0  0  0  0  0  0  0  0  0  0  0
   -1.2528   -2.8149    0.0899 C   0  0  0  0  0  0  0  0  0  0  0  0
   -0.2468   -3.1814    0.6679 O   0  0  0  0  0  0  0  0  0  0  0  0
   -1.3507   -1.5261   -0.3958 N   0  0  0  0  0  0  0  0  0  0  0  0
   -2.1686   -1.3273   -0.9654 H   0  0  0  0  0  0  0  0  0  0  0  0
   -0.2089   -0.5973   -0.5079 C   0  0  1  0  0  0  0  0  0  0  0  0
    0.5482   -1.0868   -1.1308 H   0  0  0  0  0  0  0  0  0  0  0  0
   -0.6177    0.7068   -1.2287 C   0  0  0  0  0  0  0  0  0  0  0  0
    0.1879    1.4402   -1.1160 H   0  0  0  0  0  0  0  0  0  0  0  0
   -0.6955    0.4847   -2.2967 H   0  0  0  0  0  0  0  0  0  0  0  0
   -1.9129    1.3724   -0.8272 C   0  0  0  0  0  0  0  0  0  0  0  0
   -2.3091    2.5442   -1.4573 N   0  0  0  0  0  0  0  0  0  0  0  0
   -3.4285    2.9292   -0.8960 C   0  0  0  0  0  0  0  0  0  0  0  0
   -3.9867    3.8204   -1.1685 H   0  0  0  0  0  0  0  0  0  0  0  0
   -3.7863    2.0328    0.0911 N   0  0  0  0  0  0  0  0  0  0  0  0
   -4.6025    2.1213    0.6939 H   0  0  0  0  0  0  0  0  0  0  0  0
   -2.8241    1.0463    0.1460 C   0  0  0  0  0  0  0  0  0  0  0  0
   -2.7842    0.2068    0.8300 H   0  0  0  0  0  0  0  0  0  0  0  0
    0.5070   -0.2662    0.8247 C   0  0  0  0  0  0  0  0  0  0  0  0
    1.7093   -0.0355    0.8139 O   0  0  0  0  0  0  0  0  0  0  0  0
   -0.2173    0.0328    1.9655 N   0  0  0  0  0  0  0  0  0  0  0  0
   -1.1764   -0.2925    1.9806 H   0  0  0  0  0  0  0  0  0  0  0  0
    0.4177    0.3822    3.2302 C   0  0  0  0  0  0  0  0  0  0  0  0
    1.0382    1.2772    3.1140 H   0  0  0  0  0  0  0  0  0  0  0  0
   -0.3413    0.5875    3.9909 H   0  0  0  0  0  0  0  0  0  0  0  0
    1.0491   -0.4411    3.5808 H   0  0  0  0  0  0  0  0  0  0  0  0
  1  2  1  0  0  0  0
  2  3  1  0  0  0  0
  2  4  1  0  0  0  0
  2  5  1  0  0  0  0
  5  6  2  0  0  0  0
  5  7  1  0  0  0  0
  7  8  1  0  0  0  0
  7  9  1  0  0  0  0
  9 10  1  0  0  0  0
  9 11  1  0  0  0  0
  9 22  1  0  0  0  0
 11 12  1  0  0  0  0
 11 13  1  0  0  0  0
 11 14  1  0  0  0  0
 14 15  1  0  0  0  0
 14 20  2  0  0  0  0
 15 16  2  0  0  0  0
 16 17  1  0  0  0  0
 16 18  1  0  0  0  0
 18 19  1  0  0  0  0
 18 20  1  0  0  0  0
 20 21  1  0  0  0  0
 22 23  2  0  0  0  0
 22 24  1  0  0  0  0
 24 25  1  0  0  0  0
 24 26  1  0  0  0  0
 26 27  1  0  0  0  0
 26 28  1  0  0  0  0
 26 29  1  0  0  0  0
M  END
$$$$

  -OEChem-04042215593D

 29 29  0     1  0  0  0  0  0999 V2000
   -2.2199   -4.7135    0.3186 H   0  0  0  0  0  0  0  0  0  0  0  0
   -2.4679   -3.7213   -0.0696 C   0  0  0  0  0  0  0  0  0  0  0  0
   -3.3275   -3.3325    0.4815 H   0  0  0  0  0  0  0  0  0  0  0  0
   -2.7315   -3.8150   -1.1258 H   0  0  0  0  0  0  0  0  0  0  0  0
   -1.2820   -2.7884    0.0891 C   0  0  0  0  0  0  0  0  0  0  0  0
   -0.2718   -3.1802    0.6433 O   0  0  0  0  0  0  0  0  0  0  0  0
   -1.3664   -1.4880   -0.3658 N   0  0  0  0  0  0  0  0  0  0  0  0
   -2.1991   -1.2533   -0.8996 H   0  0  0  0  0  0  0  0  0  0  0  0
   -0.2140   -0.5724   -0.4733 C   0  0  1  0  0  0  0  0  0  0  0  0
    0.5287   -1.0735   -1.1048 H   0  0  0  0  0  0  0  0  0  0  0  0
   -0.6076    0.7280   -1.2071 C   0  0  0  0  0  0  0  0  0  0  0  0
    0.1991    1.4601   -1.1004 H   0  0  0  0  0  0  0  0  0  0  0  0
   -0.6826    0.4934   -2.2728 H   0  0  0  0  0  0  0  0  0  0  0  0
   -1.9037    1.3938   -0.8141 C   0  0  0  0  0  0  0  0  0  0  0  0
   -2.4638    2.3689   -1.6285 N   0  0  0  0  0  0  0  0  0  0  0  0
   -3.5651    2.7754   -1.0459 C   0  0  0  0  0  0  0  0  0  0  0  0
   -4.2268    3.5445   -1.4339 H   0  0  0  0  0  0  0  0  0  0  0  0
   -3.7555    2.0766    0.1294 N   0  0  0  0  0  0  0  0  0  0  0  0
   -4.5268    2.2212    0.7789 H   0  0  0  0  0  0  0  0  0  0  0  0
   -2.7046    1.1968    0.2812 C   0  0  0  0  0  0  0  0  0  0  0  0
   -2.5376    0.5071    1.0992 H   0  0  0  0  0  0  0  0  0  0  0  0
    0.5344   -0.2724    0.8488 C   0  0  0  0  0  0  0  0  0  0  0  0
    1.7331   -0.0273    0.8069 O   0  0  0  0  0  0  0  0  0  0  0  0
   -0.1586    0.0148    2.0115 N   0  0  0  0  0  0  0  0  0  0  0  0
   -1.0932   -0.3730    2.0654 H   0  0  0  0  0  0  0  0  0  0  0  0
    0.5170    0.3525    3.2583 C   0  0  0  0  0  0  0  0  0  0  0  0
    1.1221    1.2567    3.1336 H   0  0  0  0  0  0  0  0  0  0  0  0
   -0.2168    0.5374    4.0483 H   0  0  0  0  0  0  0  0  0  0  0  0
    1.1702   -0.4680    3.5738 H   0  0  0  0  0  0  0  0  0  0  0  0
  1  2  1  0  0  0  0
  2  3  1  0  0  0  0
  2  4  1  0  0  0  0
  2  5  1  0  0  0  0
  5  6  2  0  0  0  0
  5  7  1  0  0  0  0
  7  8  1  0  0  0  0
  7  9  1  0  0  0  0
  9 10  1  0  0  0  0
  9 11  1  0  0  0  0
  9 22  1  0  0  0  0
 11 12  1  0  0  0  0
 11 13  1  0  0  0  0
 11 14  1  0  0  0  0
 14 15  1  0  0  0  0
 14 20  2  0  0  0  0
 15 16  2  0  0  0  0
 16 17  1  0  0  0  0
 16 18  1  0  0  0  0
 18 19  1  0  0  0  0
 18 20  1  0  0  0  0
 20 21  1  0  0  0  0
 22 23  2  0  0  0  0
 22 24  1  0  0  0  0
 24 25  1  0  0  0  0
 24 26  1  0  0  0  0
 26 27  1  0  0  0  0
 26 28  1  0  0  0  0
 26 29  1  0  0  0  0
M  END
$$$$

  -OEChem-04042215593D

 29 29  0     1  0  0  0  0  0999 V2000
   -2.2687   -4.6767    0.3183 H   0  0  0  0  0  0  0  0  0  0  0  0
   -2.5065   -3.6764   -0.0548 C   0  0  0  0  0  0  0  0  0  0  0  0
   -3.3444   -3.2760    0.5208 H   0  0  0  0  0  0  0  0  0  0  0  0
   -2.7974   -3.7541   -1.1052 H   0  0  0  0  0  0  0  0  0  0  0  0
   -1.2992   -2.7683    0.0832 C   0  0  0  0  0  0  0  0  0  0  0  0
   -0.2785   -3.1870    0.5978 O   0  0  0  0  0  0  0  0  0  0  0  0
   -1.3750   -1.4583   -0.3432 N   0  0  0  0  0  0  0  0  0  0  0  0
   -2.2232   -1.1935   -0.8374 H   0  0  0  0  0  0  0  0  0  0  0  0
   -0.2173   -0.5512   -0.4510 C   0  0  1  0  0  0  0  0  0  0  0  0
    0.5134   -1.0609   -1.0895 H   0  0  0  0  0  0  0  0  0  0  0  0
   -0.6050    0.7406   -1.2007 C   0  0  0  0  0  0  0  0  0  0  0  0
    0.2012    1.4742   -1.1031 H   0  0  0  0  0  0  0  0  0  0  0  0
   -0.6780    0.4892   -2.2629 H   0  0  0  0  0  0  0  0  0  0  0  0
   -1.9038    1.4048   -0.8170 C   0  0  0  0  0  0  0  0  0  0  0  0
   -2.6256    2.1289   -1.7568 N   0  0  0  0  0  0  0  0  0  0  0  0
   -3.6895    2.5974   -1.1518 C   0  0  0  0  0  0  0  0  0  0  0  0
   -4.4501    3.2160   -1.6199 H   0  0  0  0  0  0  0  0  0  0  0  0
   -3.6963    2.1828    0.1649 N   0  0  0  0  0  0  0  0  0  0  0  0
   -4.4001    2.4366    0.8562 H   0  0  0  0  0  0  0  0  0  0  0  0
   -2.5653    1.4247    0.3828 C   0  0  0  0  0  0  0  0  0  0  0  0
   -2.2549    0.9668    1.3128 H   0  0  0  0  0  0  0  0  0  0  0  0
    0.5567   -0.2828    0.8626 C   0  0  0  0  0  0  0  0  0  0  0  0
    1.7512   -0.0219    0.8008 O   0  0  0  0  0  0  0  0  0  0  0  0
   -0.1148   -0.0139    2.0417 N   0  0  0  0  0  0  0  0  0  0  0  0
   -1.0385   -0.4274    2.1094 H   0  0  0  0  0  0  0  0  0  0  0  0
    0.5832    0.3059    3.2812 C   0  0  0  0  0  0  0  0  0  0  0  0
    1.1896    1.2095    3.1580 H   0  0  0  0  0  0  0  0  0  0  0  0
   -0.1372    0.4840    4.0850 H   0  0  0  0  0  0  0  0  0  0  0  0
    1.2380   -0.5208    3.5760 H   0  0  0  0  0  0  0  0  0  0  0  0
  1  2  1  0  0  0  0
  2  3  1  0  0  0  0
  2  4  1  0  0  0  0
  2  5  1  0  0  0  0
  5  6  2  0  0  0  0
  5  7  1  0  0  0  0
  7  8  1  0  0  0  0
  7  9  1  0  0  0  0
  9 10  1  0  0  0  0
  9 11  1  0  0  0  0
  9 22  1  0  0  0  0
 11 12  1  0  0  0  0
 11 13  1  0  0  0  0
 11 14  1  0  0  0  0
 14 15  1  0  0  0  0
 14 20  2  0  0  0  0
 15 16  2  0  0  0  0
 16 17  1  0  0  0  0
 16 18  1  0  0  0  0
 18 19  1  0  0  0  0
 18 20  1  0  0  0  0
 20 21  1  0  0  0  0
 22 23  2  0  0  0  0
 22 24  1  0  0  0  0
 24 25  1  0  0  0  0
 24 26  1  0  0  0  0
 26 27  1  0  0  0  0
 26 28  1  0  0  0  0
 26 29  1  0  0  0  0
M  END
$$$$

  -OEChem-04042215593D

 29 29  0     1  0  0  0  0  0999 V2000
   -2.2917   -4.6548    0.3308 H   0  0  0  0  0  0  0  0  0  0  0  0
   -2.5212   -3.6531   -0.0437 C   0  0  0  0  0  0  0  0  0  0  0  0
   -3.3514   -3.2423    0.5357 H   0  0  0  0  0  0  0  0  0  0  0  0
   -2.8187   -3.7306   -1.0922 H   0  0  0  0  0  0  0  0  0  0  0  0
   -1.3044   -2.7563    0.0849 C   0  0  0  0  0  0  0  0  0  0  0  0
   -0.2849   -3.1843    0.5946 O   0  0  0  0  0  0  0  0  0  0  0  0
   -1.3696   -1.4478   -0.3478 N   0  0  0  0  0  0  0  0  0  0  0  0
   -2.2187   -1.1753   -0.8376 H   0  0  0  0  0  0  0  0  0  0  0  0
   -0.2076   -0.5474   -0.4585 C   0  0  1  0  0  0  0  0  0  0  0  0
    0.5246   -1.0600   -1.0928 H   0  0  0  0  0  0  0  0  0  0  0  0
   -0.6037    0.7338   -1.2205 C   0  0  0  0  0  0  0  0  0  0  0  0
    0.1950    1.4757   -1.1228 H   0  0  0  0  0  0  0  0  0  0  0  0
   -0.6752    0.4821   -2.2829 H   0  0  0  0  0  0  0  0  0  0  0  0
   -1.9078    1.3743   -0.8215 C   0  0  0  0  0  0  0  0  0  0  0  0
   -2.8132    1.8124   -1.7794 N   0  0  0  0  0  0  0  0  0  0  0  0
   -3.7989    2.3942   -1.1404 C   0  0  0  0  0  0  0  0  0  0  0  0
   -4.6648    2.8489   -1.6135 H   0  0  0  0  0  0  0  0  0  0  0  0
   -3.5655    2.3459    0.2195 N   0  0  0  0  0  0  0  0  0  0  0  0
   -4.1568    2.7711    0.9318 H   0  0  0  0  0  0  0  0  0  0  0  0
   -2.3563    1.7162    0.4261 C   0  0  0  0  0  0  0  0  0  0  0  0
   -1.8434    1.5766    1.3699 H   0  0  0  0  0  0  0  0  0  0  0  0
    0.5557   -0.2853    0.8616 C   0  0  0  0  0  0  0  0  0  0  0  0
    1.7532   -0.0354    0.8144 O   0  0  0  0  0  0  0  0  0  0  0  0
   -0.1279   -0.0133    2.0332 N   0  0  0  0  0  0  0  0  0  0  0  0
   -1.0698   -0.3901    2.0749 H   0  0  0  0  0  0  0  0  0  0  0  0
    0.5580    0.2623    3.2901 C   0  0  0  0  0  0  0  0  0  0  0  0
    1.1858    1.1548    3.1980 H   0  0  0  0  0  0  0  0  0  0  0  0
   -0.1700    0.4357    4.0880 H   0  0  0  0  0  0  0  0  0  0  0  0
    1.1903   -0.5854    3.5745 H   0  0  0  0  0  0  0  0  0  0  0  0
  1  2  1  0  0  0  0
  2  3  1  0  0  0  0
  2  4  1  0  0  0  0
  2  5  1  0  0  0  0
  5  6  2  0  0  0  0
  5  7  1  0  0  0  0
  7  8  1  0  0  0  0
  7  9  1  0  0  0  0
  9 10  1  0  0  0  0
  9 11  1  0  0  0  0
  9 22  1  0  0  0  0
 11 12  1  0  0  0  0
 11 13  1  0  0  0  0
 11 14  1  0  0  0  0
 14 15  1  0  0  0  0
 14 20  2  0  0  0  0
 15 16  2  0  0  0  0
 16 17  1  0  0  0  0
 16 18  1  0  0  0  0
 18 19  1  0  0  0  0
 18 20  1  0  0  0  0
 20 21  1  0  0  0  0
 22 23  2  0  0  0  0
 22 24  1  0  0  0  0
 24 25  1  0  0  0  0
 24 26  1  0  0  0  0
 26 27  1  0  0  0  0
 26 28  1  0  0  0  0
 26 29  1  0  0  0  0
M  END
$$$$

  -OEChem-04042215593D

 29 29  0     1  0  0  0  0  0999 V2000
   -2.3440   -4.6073    0.3684 H   0  0  0  0  0  0  0  0  0  0  0  0
   -2.5484   -3.6093   -0.0295 C   0  0  0  0  0  0  0  0  0  0  0  0
   -3.3633   -3.1615    0.5441 H   0  0  0  0  0  0  0  0  0  0  0  0
   -2.8556   -3.7041   -1.0739 H   0  0  0  0  0  0  0  0  0  0  0  0
   -1.3064   -2.7439    0.0691 C   0  0  0  0  0  0  0  0  0  0  0  0
   -0.2922   -3.1898    0.5746 O   0  0  0  0  0  0  0  0  0  0  0  0
   -1.3395   -1.4453   -0.3950 N   0  0  0  0  0  0  0  0  0  0  0  0
   -2.1905   -1.1505   -0.8705 H   0  0  0  0  0  0  0  0  0  0  0  0
   -0.1651   -0.5592   -0.4978 C   0  0  1  0  0  0  0  0  0  0  0  0
    0.5781   -1.0713   -1.1195 H   0  0  0  0  0  0  0  0  0  0  0  0
   -0.5649    0.7275   -1.2463 C   0  0  0  0  0  0  0  0  0  0  0  0
    0.2287    1.4726   -1.1332 H   0  0  0  0  0  0  0  0  0  0  0  0
   -0.6458    0.5029   -2.3140 H   0  0  0  0  0  0  0  0  0  0  0  0
   -1.8683    1.3275   -0.7956 C   0  0  0  0  0  0  0  0  0  0  0  0
   -2.9464    1.4944   -1.6546 N   0  0  0  0  0  0  0  0  0  0  0  0
   -3.8599    2.1624   -0.9914 C   0  0  0  0  0  0  0  0  0  0  0  0
   -4.8268    2.4563   -1.3901 H   0  0  0  0  0  0  0  0  0  0  0  0
   -3.4041    2.4430    0.2819 N   0  0  0  0  0  0  0  0  0  0  0  0
   -3.9034    2.9975    0.9756 H   0  0  0  0  0  0  0  0  0  0  0  0
   -2.1257    1.9406    0.3999 C   0  0  0  0  0  0  0  0  0  0  0  0
   -1.4398    2.0536    1.2343 H   0  0  0  0  0  0  0  0  0  0  0  0
    0.5528   -0.2850    0.8445 C   0  0  0  0  0  0  0  0  0  0  0  0
    1.7556   -0.0573    0.8453 O   0  0  0  0  0  0  0  0  0  0  0  0
   -0.1767    0.0151    1.9813 N   0  0  0  0  0  0  0  0  0  0  0  0
   -1.1443   -0.2930    1.9707 H   0  0  0  0  0  0  0  0  0  0  0  0
    0.4506    0.2933    3.2673 C   0  0  0  0  0  0  0  0  0  0  0  0
    1.1057    1.1677    3.1935 H   0  0  0  0  0  0  0  0  0  0  0  0
   -0.3125    0.4980    4.0240 H   0  0  0  0  0  0  0  0  0  0  0  0
    1.0453   -0.5656    3.5962 H   0  0  0  0  0  0  0  0  0  0  0  0
  1  2  1  0  0  0  0
  2  3  1  0  0  0  0
  2  4  1  0  0  0  0
  2  5  1  0  0  0  0
  5  6  2  0  0  0  0
  5  7  1  0  0  0  0
  7  8  1  0  0  0  0
  7  9  1  0  0  0  0
  9 10  1  0  0  0  0
  9 11  1  0  0  0  0
  9 22  1  0  0  0  0
 11 12  1  0  0  0  0
 11 13  1  0  0  0  0
 11 14  1  0  0  0  0
 14 15  1  0  0  0  0
 14 20  2  0  0  0  0
 15 16  2  0  0  0  0
 16 17  1  0  0  0  0
 16 18  1  0  0  0  0
 18 19  1  0  0  0  0
 18 20  1  0  0  0  0
 20 21  1  0  0  0  0
 22 23  2  0  0  0  0
 22 24  1  0  0  0  0
 24 25  1  0  0  0  0
 24 26  1  0  0  0  0
 26 27  1  0  0  0  0
 26 28  1  0  0  0  0
 26 29  1  0  0  0  0
M  END
$$$$

  -OEChem-04042215593D

 29 29  0     1  0  0  0  0  0999 V2000
   -2.4108   -4.5455    0.3939 H   0  0  0  0  0  0  0  0  0  0  0  0
   -2.5896   -3.5483   -0.0183 C   0  0  0  0  0  0  0  0  0  0  0  0
   -3.3845   -3.0665    0.5558 H   0  0  0  0  0  0  0  0  0  0  0  0
   -2.9103   -3.6502   -1.0579 H   0  0  0  0  0  0  0  0  0  0  0  0
   -1.3214   -2.7191    0.0538 C   0  0  0  0  0  0  0  0  0  0  0  0
   -0.3157   -3.1876    0.5559 O   0  0  0  0  0  0  0  0  0  0  0  0
   -1.3178   -1.4298   -0.4355 N   0  0  0  0  0  0  0  0  0  0  0  0
   -2.1708   -1.1017   -0.8880 H   0  0  0  0  0  0  0  0  0  0  0  0
   -0.1277   -0.5646   -0.5277 C   0  0  1  0  0  0  0  0  0  0  0  0
    0.6202   -1.0817   -1.1388 H   0  0  0  0  0  0  0  0  0  0  0  0
   -0.5157    0.7323   -1.2612 C   0  0  0  0  0  0  0  0  0  0  0  0
    0.2827    1.4709   -1.1384 H   0  0  0  0  0  0  0  0  0  0  0  0
   -0.6077    0.5281   -2.3321 H   0  0  0  0  0  0  0  0  0  0  0  0
   -1.8131    1.3131   -0.7747 C   0  0  0  0  0  0  0  0  0  0  0  0
   -2.9987    1.2261   -1.4925 N   0  0  0  0  0  0  0  0  0  0  0  0
   -3.8839    1.9402   -0.8372 C   0  0  0  0  0  0  0  0  0  0  0  0
   -4.9171    2.0811   -1.1418 H   0  0  0  0  0  0  0  0  0  0  0  0
   -3.3057    2.4884    0.2920 N   0  0  0  0  0  0  0  0  0  0  0  0
   -3.7723    3.1143    0.9467 H   0  0  0  0  0  0  0  0  0  0  0  0
   -1.9805    2.1101    0.3225 C   0  0  0  0  0  0  0  0  0  0  0  0
   -1.2115    2.3995    1.0345 H   0  0  0  0  0  0  0  0  0  0  0  0
    0.5585   -0.2776    0.8280 C   0  0  0  0  0  0  0  0  0  0  0  0
    1.7658   -0.0781    0.8616 O   0  0  0  0  0  0  0  0  0  0  0  0
   -0.1992    0.0558    1.9370 N   0  0  0  0  0  0  0  0  0  0  0  0
   -1.1814   -0.1979    1.8913 H   0  0  0  0  0  0  0  0  0  0  0  0
    0.3892    0.3450    3.2386 C   0  0  0  0  0  0  0  0  0  0  0  0
    1.0776    1.1940    3.1693 H   0  0  0  0  0  0  0  0  0  0  0  0
   -0.3941    0.5956    3.9602 H   0  0  0  0  0  0  0  0  0  0  0  0
    0.9398   -0.5257    3.6103 H   0  0  0  0  0  0  0  0  0  0  0  0
  1  2  1  0  0  0  0
  2  3  1  0  0  0  0
  2  4  1  0  0  0  0
  2  5  1  0  0  0  0
  5  6  2  0  0  0  0
  5  7  1  0  0  0  0
  7  8  1  0  0  0  0
  7  9  1  0  0  0  0
  9 10  1  0  0  0  0
  9 11  1  0  0  0  0
  9 22  1  0  0  0  0
 11 12  1  0  0  0  0
 11 13  1  0  0  0  0
 11 14  1  0  0  0  0
 14 15  1  0  0  0  0
 14 20  2  0  0  0  0
 15 16  2  0  0  0  0
 16 17  1  0  0  0  0
 16 18  1  0  0  0  0
 18 19  1  0  0  0  0
 18 20  1  0  0  0  0
 20 21  1  0  0  0  0
 22 23  2  0  0  0  0
 22 24  1  0  0  0  0
 24 25  1  0  0  0  0
 24 26  1  0  0  0  0
 26 27  1  0  0  0  0
 26 28  1  0  0  0  0
 26 29  1  0  0  0  0
M  END
$$$$

  -OEChem-04042215593D

 29 29  0     1  0  0  0  0  0999 V2000
   -2.4702   -4.4904    0.4234 H   0  0  0  0  0  0  0  0  0  0  0  0
   -2.6239   -3.4942   -0.0013 C   0  0  0  0  0  0  0  0  0  0  0  0
   -3.3940   -2.9787    0.5773 H   0  0  0  0  0  0  0  0  0  0  0  0
   -2.9640   -3.6008   -1.0343 H   0  0  0  0  0  0  0  0  0  0  0  0
   -1.3297   -2.7036    0.0380 C   0  0  0  0  0  0  0  0  0  0  0  0
   -0.3289   -3.1955    0.5280 O   0  0  0  0  0  0  0  0  0  0  0  0
   -1.2970   -1.4218   -0.4680 N   0  0  0  0  0  0  0  0  0  0  0  0
   -2.1586   -1.0556   -0.8773 H   0  0  0  0  0  0  0  0  0  0  0  0
   -0.0973   -0.5701   -0.5532 C   0  0  1  0  0  0  0  0  0  0  0  0
    0.6545   -1.0905   -1.1570 H   0  0  0  0  0  0  0  0  0  0  0  0
   -0.4732    0.7376   -1.2735 C   0  0  0  0  0  0  0  0  0  0  0  0
    0.3322    1.4681   -1.1478 H   0  0  0  0  0  0  0  0  0  0  0  0
   -0.5758    0.5457   -2.3455 H   0  0  0  0  0  0  0  0  0  0  0  0
   -1.7651    1.3139   -0.7671 C   0  0  0  0  0  0  0  0  0  0  0  0
   -3.0073    0.9966   -1.3050 N   0  0  0  0  0  0  0  0  0  0  0  0
   -3.8821    1.7496   -0.6788 C   0  0  0  0  0  0  0  0  0  0  0  0
   -4.9515    1.7497   -0.8711 H   0  0  0  0  0  0  0  0  0  0  0  0
   -3.2430    2.5402    0.2580 N   0  0  0  0  0  0  0  0  0  0  0  0
   -3.6976    3.2296    0.8549 H   0  0  0  0  0  0  0  0  0  0  0  0
   -1.8915    2.2768    0.1935 C   0  0  0  0  0  0  0  0  0  0  0  0
   -1.0843    2.7344    0.7603 H   0  0  0  0  0  0  0  0  0  0  0  0
    0.5646   -0.2739    0.8118 C   0  0  0  0  0  0  0  0  0  0  0  0
    1.7735   -0.0901    0.8716 O   0  0  0  0  0  0  0  0  0  0  0  0
   -0.2163    0.0812    1.8977 N   0  0  0  0  0  0  0  0  0  0  0  0
   -1.2055   -0.1360    1.8235 H   0  0  0  0  0  0  0  0  0  0  0  0
    0.3403    0.3889    3.2083 C   0  0  0  0  0  0  0  0  0  0  0  0
    1.0091    1.2541    3.1481 H   0  0  0  0  0  0  0  0  0  0  0  0
   -0.4624    0.6221    3.9141 H   0  0  0  0  0  0  0  0  0  0  0  0
    0.9041   -0.4673    3.5938 H   0  0  0  0  0  0  0  0  0  0  0  0
  1  2  1  0  0  0  0
  2  3  1  0  0  0  0
  2  4  1  0  0  0  0
  2  5  1  0  0  0  0
  5  6  2  0  0  0  0
  5  7  1  0  0  0  0
  7  8  1  0  0  0  0
  7  9  1  0  0  0  0
  9 10  1  0  0  0  0
  9 11  1  0  0  0  0
  9 22  1  0  0  0  0
 11 12  1  0  0  0  0
 11 13  1  0  0  0  0
 11 14  1  0  0  0  0
 14 15  1  0  0  0  0
 14 20  2  0  0  0  0
 15 16  2  0  0  0  0
 16 17  1  0  0  0  0
 16 18  1  0  0  0  0
 18 19  1  0  0  0  0
 18 20  1  0  0  0  0
 20 21  1  0  0  0  0
 22 23  2  0  0  0  0
 22 24  1  0  0  0  0
 24 25  1  0  0  0  0
 24 26  1  0  0  0  0
 26 27  1  0  0  0  0
 26 28  1  0  0  0  0
 26 29  1  0  0  0  0
M  END
$$$$

  -OEChem-04042215593D

 29 29  0     1  0  0  0  0  0999 V2000
   -2.4622   -4.4679    0.4743 H   0  0  0  0  0  0  0  0  0  0  0  0
   -2.6170   -3.4754    0.0420 C   0  0  0  0  0  0  0  0  0  0  0  0
   -3.3508   -2.9374    0.6467 H   0  0  0  0  0  0  0  0  0  0  0  0
   -3.0051   -3.5898   -0.9729 H   0  0  0  0  0  0  0  0  0  0  0  0
   -1.3082   -2.7095    0.0123 C   0  0  0  0  0  0  0  0  0  0  0  0
   -0.2941   -3.2172    0.4574 O   0  0  0  0  0  0  0  0  0  0  0  0
   -1.2769   -1.4303   -0.4993 N   0  0  0  0  0  0  0  0  0  0  0  0
   -2.1575   -1.0333   -0.8361 H   0  0  0  0  0  0  0  0  0  0  0  0
   -0.0827   -0.5729   -0.5796 C   0  0  1  0  0  0  0  0  0  0  0  0
    0.6772   -1.0863   -1.1790 H   0  0  0  0  0  0  0  0  0  0  0  0
   -0.4521    0.7469   -1.2848 C   0  0  0  0  0  0  0  0  0  0  0  0
    0.3608    1.4690   -1.1580 H   0  0  0  0  0  0  0  0  0  0  0  0
   -0.5587    0.5606   -2.3572 H   0  0  0  0  0  0  0  0  0  0  0  0
   -1.7424    1.3355   -0.7818 C   0  0  0  0  0  0  0  0  0  0  0  0
   -3.0054    0.8426   -1.1018 N   0  0  0  0  0  0  0  0  0  0  0  0
   -3.8702    1.6454   -0.5253 C   0  0  0  0  0  0  0  0  0  0  0  0
   -4.9500    1.5424   -0.5865 H   0  0  0  0  0  0  0  0  0  0  0  0
   -3.2055    2.6361    0.1724 N   0  0  0  0  0  0  0  0  0  0  0  0
   -3.6517    3.3892    0.6938 H   0  0  0  0  0  0  0  0  0  0  0  0
   -1.8503    2.4474    0.0039 C   0  0  0  0  0  0  0  0  0  0  0  0
   -1.0308    3.0453    0.3944 H   0  0  0  0  0  0  0  0  0  0  0  0
    0.5574   -0.2736    0.7945 C   0  0  0  0  0  0  0  0  0  0  0  0
    1.7652   -0.0908    0.8768 O   0  0  0  0  0  0  0  0  0  0  0  0
   -0.2452    0.0777    1.8658 N   0  0  0  0  0  0  0  0  0  0  0  0
   -1.2358   -0.1225    1.7665 H   0  0  0  0  0  0  0  0  0  0  0  0
    0.2830    0.3977    3.1851 C   0  0  0  0  0  0  0  0  0  0  0  0
    0.9601    1.2564    3.1297 H   0  0  0  0  0  0  0  0  0  0  0  0
   -0.5339    0.6471    3.8685 H   0  0  0  0  0  0  0  0  0  0  0  0
    0.8306   -0.4578    3.5943 H   0  0  0  0  0  0  0  0  0  0  0  0
  1  2  1  0  0  0  0
  2  3  1  0  0  0  0
  2  4  1  0  0  0  0
  2  5  1  0  0  0  0
  5  6  2  0  0  0  0
  5  7  1  0  0  0  0
  7  8  1  0  0  0  0
  7  9  1  0  0  0  0
  9 10  1  0  0  0  0
  9 11  1  0  0  0  0
  9 22  1  0  0  0  0
 11 12  1  0  0  0  0
 11 13  1  0  0  0  0
 11 14  1  0  0  0  0
 14 15  1  0  0  0  0
 14 20  2  0  0  0  0
 15 16  2  0  0  0  0
 16 17  1  0  0  0  0
 16 18  1  0  0  0  0
 18 19  1  0  0  0  0
 18 20  1  0  0  0  0
 20 21  1  0  0  0  0
 22 23  2  0  0  0  0
 22 24  1  0  0  0  0
 24 25  1  0  0  0  0
 24 26  1  0  0  0  0
 26 27  1  0  0  0  0
 26 28  1  0  0  0  0
 26 29  1  0  0  0  0
M  END
$$$$

  -OEChem-04042215593D

 29 29  0     1  0  0  0  0  0999 V2000
   -2.4138   -4.4921    0.5025 H   0  0  0  0  0  0  0  0  0  0  0  0
   -2.5847   -3.5006    0.0740 C   0  0  0  0  0  0  0  0  0  0  0  0
   -3.2946   -2.9611    0.7051 H   0  0  0  0  0  0  0  0  0  0  0  0
   -3.0110   -3.6176   -0.9251 H   0  0  0  0  0  0  0  0  0  0  0  0
   -1.2776   -2.7354   -0.0088 C   0  0  0  0  0  0  0  0  0  0  0  0
   -0.2447   -3.2493    0.3829 O   0  0  0  0  0  0  0  0  0  0  0  0
   -1.2670   -1.4544   -0.5165 N   0  0  0  0  0  0  0  0  0  0  0  0
   -2.1674   -1.0399   -0.7699 H   0  0  0  0  0  0  0  0  0  0  0  0
   -0.0867   -0.5797   -0.5926 C   0  0  1  0  0  0  0  0  0  0  0  0
    0.6812   -1.0817   -1.1915 H   0  0  0  0  0  0  0  0  0  0  0  0
   -0.4553    0.7496   -1.2839 C   0  0  0  0  0  0  0  0  0  0  0  0
    0.3642    1.4646   -1.1582 H   0  0  0  0  0  0  0  0  0  0  0  0
   -0.5608    0.5623   -2.3562 H   0  0  0  0  0  0  0  0  0  0  0  0
   -1.7466    1.3608   -0.8005 C   0  0  0  0  0  0  0  0  0  0  0  0
   -3.0046    0.7616   -0.8706 N   0  0  0  0  0  0  0  0  0  0  0  0
   -3.8570    1.6280   -0.3733 C   0  0  0  0  0  0  0  0  0  0  0  0
   -4.9288    1.4694   -0.2923 H   0  0  0  0  0  0  0  0  0  0  0  0
   -3.1899    2.7665    0.0349 N   0  0  0  0  0  0  0  0  0  0  0  0
   -3.6268    3.5881    0.4499 H   0  0  0  0  0  0  0  0  0  0  0  0
   -1.8487    2.6013   -0.2373 C   0  0  0  0  0  0  0  0  0  0  0  0
   -1.0341    3.2972   -0.0546 H   0  0  0  0  0  0  0  0  0  0  0  0
    0.5422   -0.2790    0.7859 C   0  0  0  0  0  0  0  0  0  0  0  0
    1.7480   -0.0876    0.8784 O   0  0  0  0  0  0  0  0  0  0  0  0
   -0.2712    0.0549    1.8544 N   0  0  0  0  0  0  0  0  0  0  0  0
   -1.2647   -0.1200    1.7373 H   0  0  0  0  0  0  0  0  0  0  0  0
    0.2419    0.3950    3.1746 C   0  0  0  0  0  0  0  0  0  0  0  0
    0.8891    1.2765    3.1197 H   0  0  0  0  0  0  0  0  0  0  0  0
   -0.5847    0.6161    3.8560 H   0  0  0  0  0  0  0  0  0  0  0  0
    0.8179   -0.4402    3.5864 H   0  0  0  0  0  0  0  0  0  0  0  0
  1  2  1  0  0  0  0
  2  3  1  0  0  0  0
  2  4  1  0  0  0  0
  2  5  1  0  0  0  0
  5  6  2  0  0  0  0
  5  7  1  0  0  0  0
  7  8  1  0  0  0  0
  7  9  1  0  0  0  0
  9 10  1  0  0  0  0
  9 11  1  0  0  0  0
  9 22  1  0  0  0  0
 11 12  1  0  0  0  0
 11 13  1  0  0  0  0
 11 14  1  0  0  0  0
 14 15  1  0  0  0  0
 14 20  2  0  0  0  0
 15 16  2  0  0  0  0
 16 17  1  0  0  0  0
 16 18  1  0  0  0  0
 18 19  1  0  0  0  0
 18 20  1  0  0  0  0
 20 21  1  0  0  0  0
 22 23  2  0  0  0  0
 22 24  1  0  0  0  0
 24 25  1  0  0  0  0
 24 26  1  0  0  0  0
 26 27  1  0  0  0  0
 26 28  1  0  0  0  0
 26 29  1  0  0  0  0
M  END
$$$$

  -OEChem-04042215593D

 29 29  0     1  0  0  0  0  0999 V2000
   -2.3516   -4.5086    0.5451 H   0  0  0  0  0  0  0  0  0  0  0  0
   -2.5424   -3.5204    0.1176 C   0  0  0  0  0  0  0  0  0  0  0  0
   -3.2180   -2.9735    0.7795 H   0  0  0  0  0  0  0  0  0  0  0  0
   -3.0191   -3.6439   -0.8578 H   0  0  0  0  0  0  0  0  0  0  0  0
   -1.2398   -2.7592   -0.0377 C   0  0  0  0  0  0  0  0  0  0  0  0
   -0.1872   -3.2782    0.2900 O   0  0  0  0  0  0  0  0  0  0  0  0
   -1.2559   -1.4768   -0.5415 N   0  0  0  0  0  0  0  0  0  0  0  0
   -2.1715   -1.0500   -0.7018 H   0  0  0  0  0  0  0  0  0  0  0  0
   -0.0891   -0.5850   -0.6132 C   0  0  1  0  0  0  0  0  0  0  0  0
    0.6867   -1.0729   -1.2134 H   0  0  0  0  0  0  0  0  0  0  0  0
   -0.4645    0.7522   -1.2876 C   0  0  0  0  0  0  0  0  0  0  0  0
    0.3577    1.4646   -1.1647 H   0  0  0  0  0  0  0  0  0  0  0  0
   -0.5708    0.5637   -2.3594 H   0  0  0  0  0  0  0  0  0  0  0  0
   -1.7569    1.3781   -0.8155 C   0  0  0  0  0  0  0  0  0  0  0  0
   -2.9776    0.7302   -0.6149 N   0  0  0  0  0  0  0  0  0  0  0  0
   -3.8254    1.6452   -0.2043 C   0  0  0  0  0  0  0  0  0  0  0  0
   -4.8698    1.4633    0.0332 H   0  0  0  0  0  0  0  0  0  0  0  0
   -3.1920    2.8687   -0.1150 N   0  0  0  0  0  0  0  0  0  0  0  0
   -3.6306    3.7392    0.1823 H   0  0  0  0  0  0  0  0  0  0  0  0
   -1.8792    2.7023   -0.5002 C   0  0  0  0  0  0  0  0  0  0  0  0
   -1.0945    3.4525   -0.5479 H   0  0  0  0  0  0  0  0  0  0  0  0
    0.5268   -0.2872    0.7716 C   0  0  0  0  0  0  0  0  0  0  0  0
    1.7310   -0.0932    0.8795 O   0  0  0  0  0  0  0  0  0  0  0  0
   -0.3008    0.0263    1.8354 N   0  0  0  0  0  0  0  0  0  0  0  0
   -1.2975   -0.1085    1.6916 H   0  0  0  0  0  0  0  0  0  0  0  0
    0.1899    0.3808    3.1601 C   0  0  0  0  0  0  0  0  0  0  0  0
    0.8120    1.2804    3.1107 H   0  0  0  0  0  0  0  0  0  0  0  0
   -0.6492    0.5776    3.8340 H   0  0  0  0  0  0  0  0  0  0  0  0
    0.7855   -0.4378    3.5774 H   0  0  0  0  0  0  0  0  0  0  0  0
  1  2  1  0  0  0  0
  2  3  1  0  0  0  0
  2  4  1  0  0  0  0
  2  5  1  0  0  0  0
  5  6  2  0  0  0  0
  5  7  1  0  0  0  0
  7  8  1  0  0  0  0
  7  9  1  0  0  0  0
  9 10  1  0  0  0  0
  9 11  1  0  0  0  0
  9 22  1  0  0  0  0
 11 12  1  0  0  0  0
 11 13  1  0  0  0  0
 11 14  1  0  0  0  0
 14 15  1  0  0  0  0
 14 20  2  0  0  0  0
 15 16  2  0  0  0  0
 16 17  1  0  0  0  0
 16 18  1  0  0  0  0
 18 19  1  0  0  0  0
 18 20  1  0  0  0  0
 20 21  1  0  0  0  0
 22 23  2  0  0  0  0
 22 24  1  0  0  0  0
 24 25  1  0  0  0  0
 24 26  1  0  0  0  0
 26 27  1  0  0  0  0
 26 28  1  0  0  0  0
 26 29  1  0  0  0  0
M  END
$$$$

  -OEChem-04042215593D

 29 29  0     1  0  0  0  0  0999 V2000
   -2.3115   -4.5132    0.5798 H   0  0  0  0  0  0  0  0  0  0  0  0
   -2.5154   -3.5241    0.1602 C   0  0  0  0  0  0  0  0  0  0  0  0
   -3.1386   -2.9651    0.8621 H   0  0  0  0  0  0  0  0  0  0  0  0
   -3.0561   -3.6449   -0.7815 H   0  0  0  0  0  0  0  0  0  0  0  0
   -1.2153   -2.7814   -0.0823 C   0  0  0  0  0  0  0  0  0  0  0  0
   -0.1505   -3.3183    0.1691 O   0  0  0  0  0  0  0  0  0  0  0  0
   -1.2476   -1.4958   -0.5783 N   0  0  0  0  0  0  0  0  0  0  0  0
   -2.1665   -1.0514   -0.6374 H   0  0  0  0  0  0  0  0  0  0  0  0
   -0.0841   -0.5982   -0.6362 C   0  0  1  0  0  0  0  0  0  0  0  0
    0.6982   -1.0729   -1.2387 H   0  0  0  0  0  0  0  0  0  0  0  0
   -0.4624    0.7509   -1.2862 C   0  0  0  0  0  0  0  0  0  0  0  0
    0.3613    1.4606   -1.1562 H   0  0  0  0  0  0  0  0  0  0  0  0
   -0.5701    0.5746   -2.3600 H   0  0  0  0  0  0  0  0  0  0  0  0
   -1.7542    1.3813   -0.8117 C   0  0  0  0  0  0  0  0  0  0  0  0
   -2.9001    0.7321   -0.3444 N   0  0  0  0  0  0  0  0  0  0  0  0
   -3.7630    1.6697   -0.0264 C   0  0  0  0  0  0  0  0  0  0  0  0
   -4.7604    1.4907    0.3657 H   0  0  0  0  0  0  0  0  0  0  0  0
   -3.2126    2.9136   -0.2588 N   0  0  0  0  0  0  0  0  0  0  0  0
   -3.6767    3.8045   -0.0875 H   0  0  0  0  0  0  0  0  0  0  0  0
   -1.9381    2.7346   -0.7519 C   0  0  0  0  0  0  0  0  0  0  0  0
   -1.2173    3.4965   -1.0357 H   0  0  0  0  0  0  0  0  0  0  0  0
    0.5150   -0.3160    0.7591 C   0  0  0  0  0  0  0  0  0  0  0  0
    1.7186   -0.1331    0.8895 O   0  0  0  0  0  0  0  0  0  0  0  0
   -0.3305   -0.0191    1.8134 N   0  0  0  0  0  0  0  0  0  0  0  0
   -1.3284   -0.0557    1.6205 H   0  0  0  0  0  0  0  0  0  0  0  0
    0.1323    0.3876    3.1327 C   0  0  0  0  0  0  0  0  0  0  0  0
    0.6592    1.3455    3.0753 H   0  0  0  0  0  0  0  0  0  0  0  0
   -0.7171    0.4979    3.8133 H   0  0  0  0  0  0  0  0  0  0  0  0
    0.8112   -0.3649    3.5478 H   0  0  0  0  0  0  0  0  0  0  0  0
  1  2  1  0  0  0  0
  2  3  1  0  0  0  0
  2  4  1  0  0  0  0
  2  5  1  0  0  0  0
  5  6  2  0  0  0  0
  5  7  1  0  0  0  0
  7  8  1  0  0  0  0
  7  9  1  0  0  0  0
  9 10  1  0  0  0  0
  9 11  1  0  0  0  0
  9 22  1  0  0  0  0
 11 12  1  0  0  0  0
 11 13  1  0  0  0  0
 11 14  1  0  0  0  0
 14 15  1  0  0  0  0
 14 20  2  0  0  0  0
 15 16  2  0  0  0  0
 16 17  1  0  0  0  0
 16 18  1  0  0  0  0
 18 19  1  0  0  0  0
 18 20  1  0  0  0  0
 20 21  1  0  0  0  0
 22 23  2  0  0  0  0
 22 24  1  0  0  0  0
 24 25  1  0  0  0  0
 24 26  1  0  0  0  0
 26 27  1  0  0  0  0
 26 28  1  0  0  0  0
 26 29  1  0  0  0  0
M  END
$$$$

  -OEChem-04042215593D

 29 29  0     1  0  0  0  0  0999 V2000
   -2.2957   -4.5168    0.5785 H   0  0  0  0  0  0  0  0  0  0  0  0
   -2.5082   -3.5187    0.1849 C   0  0  0  0  0  0  0  0  0  0  0  0
   -3.0798   -2.9605    0.9300 H   0  0  0  0  0  0  0  0  0  0  0  0
   -3.1055   -3.6176   -0.7247 H   0  0  0  0  0  0  0  0  0  0  0  0
   -1.2125   -2.7927   -0.1230 C   0  0  0  0  0  0  0  0  0  0  0  0
   -0.1439   -3.3491    0.0612 O   0  0  0  0  0  0  0  0  0  0  0  0
   -1.2524   -1.5025   -0.6073 N   0  0  0  0  0  0  0  0  0  0  0  0
   -2.1643   -1.0425   -0.5785 H   0  0  0  0  0  0  0  0  0  0  0  0
   -0.0834   -0.6102   -0.6459 C   0  0  1  0  0  0  0  0  0  0  0  0
    0.7018   -1.0788   -1.2495 H   0  0  0  0  0  0  0  0  0  0  0  0
   -0.4543    0.7487   -1.2789 C   0  0  0  0  0  0  0  0  0  0  0  0
    0.3686    1.4551   -1.1289 H   0  0  0  0  0  0  0  0  0  0  0  0
   -0.5514    0.5903   -2.3565 H   0  0  0  0  0  0  0  0  0  0  0  0
   -1.7459    1.3785   -0.8032 C   0  0  0  0  0  0  0  0  0  0  0  0
   -2.7828    0.7708   -0.0885 N   0  0  0  0  0  0  0  0  0  0  0  0
   -3.6832    1.7014    0.1333 C   0  0  0  0  0  0  0  0  0  0  0  0
   -4.6171    1.5495    0.6674 H   0  0  0  0  0  0  0  0  0  0  0  0
   -3.2649    2.8999   -0.4084 N   0  0  0  0  0  0  0  0  0  0  0  0
   -3.7805    3.7779   -0.3651 H   0  0  0  0  0  0  0  0  0  0  0  0
   -2.0348    2.7002   -0.9970 C   0  0  0  0  0  0  0  0  0  0  0  0
   -1.4103    3.4289   -1.5066 H   0  0  0  0  0  0  0  0  0  0  0  0
    0.5055   -0.3490    0.7578 C   0  0  0  0  0  0  0  0  0  0  0  0
    1.7099   -0.1818    0.9029 O   0  0  0  0  0  0  0  0  0  0  0  0
   -0.3498   -0.0605    1.8067 N   0  0  0  0  0  0  0  0  0  0  0  0
   -1.3391    0.0038    1.5709 H   0  0  0  0  0  0  0  0  0  0  0  0
    0.1037    0.4061    3.1093 C   0  0  0  0  0  0  0  0  0  0  0  0
    0.5642    1.3955    3.0216 H   0  0  0  0  0  0  0  0  0  0  0  0
   -0.7411    0.4735    3.8013 H   0  0  0  0  0  0  0  0  0  0  0  0
    0.8381   -0.2889    3.5301 H   0  0  0  0  0  0  0  0  0  0  0  0
  1  2  1  0  0  0  0
  2  3  1  0  0  0  0
  2  4  1  0  0  0  0
  2  5  1  0  0  0  0
  5  6  2  0  0  0  0
  5  7  1  0  0  0  0
  7  8  1  0  0  0  0
  7  9  1  0  0  0  0
  9 10  1  0  0  0  0
  9 11  1  0  0  0  0
  9 22  1  0  0  0  0
 11 12  1  0  0  0  0
 11 13  1  0  0  0  0
 11 14  1  0  0  0  0
 14 15  1  0  0  0  0
 14 20  2  0  0  0  0
 15 16  2  0  0  0  0
 16 17  1  0  0  0  0
 16 18  1  0  0  0  0
 18 19  1  0  0  0  0
 18 20  1  0  0  0  0
 20 21  1  0  0  0  0
 22 23  2  0  0  0  0
 22 24  1  0  0  0  0
 24 25  1  0  0  0  0
 24 26  1  0  0  0  0
 26 27  1  0  0  0  0
 26 28  1  0  0  0  0
 26 29  1  0  0  0  0
M  END
$$$$

  -OEChem-04042215593D

 29 29  0     1  0  0  0  0  0999 V2000
   -2.3182   -4.4861    0.5717 H   0  0  0  0  0  0  0  0  0  0  0  0
   -2.5259   -3.4819    0.1914 C   0  0  0  0  0  0  0  0  0  0  0  0
   -3.0685   -2.9210    0.9561 H   0  0  0  0  0  0  0  0  0  0  0  0
   -3.1488   -3.5648   -0.7024 H   0  0  0  0  0  0  0  0  0  0  0  0
   -1.2279   -2.7736   -0.1463 C   0  0  0  0  0  0  0  0  0  0  0  0
   -0.1641   -3.3509   -0.0031 O   0  0  0  0  0  0  0  0  0  0  0  0
   -1.2619   -1.4764   -0.6123 N   0  0  0  0  0  0  0  0  0  0  0  0
   -2.1619   -1.0029   -0.5252 H   0  0  0  0  0  0  0  0  0  0  0  0
   -0.0828   -0.5966   -0.6306 C   0  0  1  0  0  0  0  0  0  0  0  0
    0.6997   -1.0689   -1.2350 H   0  0  0  0  0  0  0  0  0  0  0  0
   -0.4464    0.7597   -1.2714 C   0  0  0  0  0  0  0  0  0  0  0  0
    0.3687    1.4694   -1.0966 H   0  0  0  0  0  0  0  0  0  0  0  0
   -0.5191    0.6088   -2.3522 H   0  0  0  0  0  0  0  0  0  0  0  0
   -1.7463    1.3804   -0.8095 C   0  0  0  0  0  0  0  0  0  0  0  0
   -2.6488    0.8657    0.1265 N   0  0  0  0  0  0  0  0  0  0  0  0
   -3.6191    1.7446    0.2351 C   0  0  0  0  0  0  0  0  0  0  0  0
   -4.4810    1.6424    0.8889 H   0  0  0  0  0  0  0  0  0  0  0  0
   -3.3818    2.8145   -0.6043 N   0  0  0  0  0  0  0  0  0  0  0  0
   -3.9834    3.6314   -0.7014 H   0  0  0  0  0  0  0  0  0  0  0  0
   -2.1941    2.5880   -1.2658 C   0  0  0  0  0  0  0  0  0  0  0  0
   -1.6998    3.2265   -1.9928 H   0  0  0  0  0  0  0  0  0  0  0  0
    0.5149   -0.3533    0.7738 C   0  0  0  0  0  0  0  0  0  0  0  0
    1.7245   -0.2258    0.9164 O   0  0  0  0  0  0  0  0  0  0  0  0
   -0.3266   -0.0649    1.8333 N   0  0  0  0  0  0  0  0  0  0  0  0
   -1.3078    0.0737    1.5900 H   0  0  0  0  0  0  0  0  0  0  0  0
    0.1488    0.3799    3.1358 C   0  0  0  0  0  0  0  0  0  0  0  0
    0.6456    1.3519    3.0512 H   0  0  0  0  0  0  0  0  0  0  0  0
   -0.6908    0.4763    3.8308 H   0  0  0  0  0  0  0  0  0  0  0  0
    0.8577   -0.3443    3.5512 H   0  0  0  0  0  0  0  0  0  0  0  0
  1  2  1  0  0  0  0
  2  3  1  0  0  0  0
  2  4  1  0  0  0  0
  2  5  1  0  0  0  0
  5  6  2  0  0  0  0
  5  7  1  0  0  0  0
  7  8  1  0  0  0  0
  7  9  1  0  0  0  0
  9 10  1  0  0  0  0
  9 11  1  0  0  0  0
  9 22  1  0  0  0  0
 11 12  1  0  0  0  0
 11 13  1  0  0  0  0
 11 14  1  0  0  0  0
 14 15  1  0  0  0  0
 14 20  2  0  0  0  0
 15 16  2  0  0  0  0
 16 17  1  0  0  0  0
 16 18  1  0  0  0  0
 18 19  1  0  0  0  0
 18 20  1  0  0  0  0
 20 21  1  0  0  0  0
 22 23  2  0  0  0  0
 22 24  1  0  0  0  0
 24 25  1  0  0  0  0
 24 26  1  0  0  0  0
 26 27  1  0  0  0  0
 26 28  1  0  0  0  0
 26 29  1  0  0  0  0
M  END
$$$$

  -OEChem-04042215593D

 29 29  0     1  0  0  0  0  0999 V2000
   -2.3484   -4.4781    0.5202 H   0  0  0  0  0  0  0  0  0  0  0  0
   -2.5536   -3.4599    0.1780 C   0  0  0  0  0  0  0  0  0  0  0  0
   -3.0798   -2.9215    0.9700 H   0  0  0  0  0  0  0  0  0  0  0  0
   -3.1901   -3.5075   -0.7087 H   0  0  0  0  0  0  0  0  0  0  0  0
   -1.2546   -2.7509   -0.1550 C   0  0  0  0  0  0  0  0  0  0  0  0
   -0.1938   -3.3388   -0.0351 O   0  0  0  0  0  0  0  0  0  0  0  0
   -1.2847   -1.4449   -0.5976 N   0  0  0  0  0  0  0  0  0  0  0  0
   -2.1781   -0.9676   -0.4831 H   0  0  0  0  0  0  0  0  0  0  0  0
   -0.0965   -0.5763   -0.5995 C   0  0  1  0  0  0  0  0  0  0  0  0
    0.6794   -1.0592   -1.2045 H   0  0  0  0  0  0  0  0  0  0  0  0
   -0.4421    0.7726   -1.2628 C   0  0  0  0  0  0  0  0  0  0  0  0
    0.3651    1.4835   -1.0597 H   0  0  0  0  0  0  0  0  0  0  0  0
   -0.4801    0.6237   -2.3456 H   0  0  0  0  0  0  0  0  0  0  0  0
   -1.7508    1.3887   -0.8270 C   0  0  0  0  0  0  0  0  0  0  0  0
   -2.5156    1.0349    0.2871 N   0  0  0  0  0  0  0  0  0  0  0  0
   -3.5582    1.8342    0.2946 C   0  0  0  0  0  0  0  0  0  0  0  0
   -4.3463    1.8217    1.0425 H   0  0  0  0  0  0  0  0  0  0  0  0
   -3.5062    2.6868   -0.7900 N   0  0  0  0  0  0  0  0  0  0  0  0
   -4.1935    3.4078   -1.0055 H   0  0  0  0  0  0  0  0  0  0  0  0
   -2.3617    2.4058   -1.5047 C   0  0  0  0  0  0  0  0  0  0  0  0
   -2.0005    2.8881   -2.4089 H   0  0  0  0  0  0  0  0  0  0  0  0
    0.5221   -0.3518    0.8001 C   0  0  0  0  0  0  0  0  0  0  0  0
    1.7368   -0.2574    0.9248 O   0  0  0  0  0  0  0  0  0  0  0  0
   -0.2927   -0.0671    1.8804 N   0  0  0  0  0  0  0  0  0  0  0  0
   -1.2654    0.1369    1.6468 H   0  0  0  0  0  0  0  0  0  0  0  0
    0.2202    0.3588    3.1752 C   0  0  0  0  0  0  0  0  0  0  0  0
    0.7070    1.3358    3.0914 H   0  0  0  0  0  0  0  0  0  0  0  0
   -0.5981    0.4362    3.8973 H   0  0  0  0  0  0  0  0  0  0  0  0
    0.9467   -0.3665    3.5566 H   0  0  0  0  0  0  0  0  0  0  0  0
  1  2  1  0  0  0  0
  2  3  1  0  0  0  0
  2  4  1  0  0  0  0
  2  5  1  0  0  0  0
  5  6  2  0  0  0  0
  5  7  1  0  0  0  0
  7  8  1  0  0  0  0
  7  9  1  0  0  0  0
  9 10  1  0  0  0  0
  9 11  1  0  0  0  0
  9 22  1  0  0  0  0
 11 12  1  0  0  0  0
 11 13  1  0  0  0  0
 11 14  1  0  0  0  0
 14 15  1  0  0  0  0
 14 20  2  0  0  0  0
 15 16  2  0  0  0  0
 16 17  1  0  0  0  0
 16 18  1  0  0  0  0
 18 19  1  0  0  0  0
 18 20  1  0  0  0  0
 20 21  1  0  0  0  0
 22 23  2  0  0  0  0
 22 24  1  0  0  0  0
 24 25  1  0  0  0  0
 24 26  1  0  0  0  0
 26 27  1  0  0  0  0
 26 28  1  0  0  0  0
 26 29  1  0  0  0  0
M  END
$$$$

  -OEChem-04042215593D

 29 29  0     1  0  0  0  0  0999 V2000
   -2.3781   -4.4527    0.5137 H   0  0  0  0  0  0  0  0  0  0  0  0
   -2.5783   -3.4361    0.1637 C   0  0  0  0  0  0  0  0  0  0  0  0
   -3.1117   -2.8930    0.9474 H   0  0  0  0  0  0  0  0  0  0  0  0
   -3.2062   -3.4878   -0.7290 H   0  0  0  0  0  0  0  0  0  0  0  0
   -1.2750   -2.7304   -0.1597 C   0  0  0  0  0  0  0  0  0  0  0  0
   -0.2178   -3.3258   -0.0482 O   0  0  0  0  0  0  0  0  0  0  0  0
   -1.2988   -1.4195   -0.5883 N   0  0  0  0  0  0  0  0  0  0  0  0
   -2.1918   -0.9437   -0.4787 H   0  0  0  0  0  0  0  0  0  0  0  0
   -0.1049   -0.5578   -0.5782 C   0  0  1  0  0  0  0  0  0  0  0  0
    0.6680   -1.0491   -1.1800 H   0  0  0  0  0  0  0  0  0  0  0  0
   -0.4382    0.7824   -1.2630 C   0  0  0  0  0  0  0  0  0  0  0  0
    0.3611    1.4983   -1.0467 H   0  0  0  0  0  0  0  0  0  0  0  0
   -0.4527    0.6271   -2.3456 H   0  0  0  0  0  0  0  0  0  0  0  0
   -1.7560    1.3887   -0.8463 C   0  0  0  0  0  0  0  0  0  0  0  0
   -2.3806    1.2473    0.3924 N   0  0  0  0  0  0  0  0  0  0  0  0
   -3.4905    1.9472    0.3365 C   0  0  0  0  0  0  0  0  0  0  0  0
   -4.2023    2.0520    1.1507 H   0  0  0  0  0  0  0  0  0  0  0  0
   -3.6210    2.5216   -0.9122 N   0  0  0  0  0  0  0  0  0  0  0  0
   -4.3897    3.1225   -1.2065 H   0  0  0  0  0  0  0  0  0  0  0  0
   -2.5229    2.1677   -1.6663 C   0  0  0  0  0  0  0  0  0  0  0  0
   -2.2925    2.4509   -2.6898 H   0  0  0  0  0  0  0  0  0  0  0  0
    0.5261   -0.3415    0.8183 C   0  0  0  0  0  0  0  0  0  0  0  0
    1.7440   -0.2825    0.9335 O   0  0  0  0  0  0  0  0  0  0  0  0
   -0.2695   -0.0568    1.9125 N   0  0  0  0  0  0  0  0  0  0  0  0
   -1.2289    0.2090    1.6858 H   0  0  0  0  0  0  0  0  0  0  0  0
    0.2735    0.3441    3.2032 C   0  0  0  0  0  0  0  0  0  0  0  0
    0.8004    1.2999    3.1172 H   0  0  0  0  0  0  0  0  0  0  0  0
   -0.5339    0.4542    3.9332 H   0  0  0  0  0  0  0  0  0  0  0  0
    0.9726   -0.4121    3.5756 H   0  0  0  0  0  0  0  0  0  0  0  0
  1  2  1  0  0  0  0
  2  3  1  0  0  0  0
  2  4  1  0  0  0  0
  2  5  1  0  0  0  0
  5  6  2  0  0  0  0
  5  7  1  0  0  0  0
  7  8  1  0  0  0  0
  7  9  1  0  0  0  0
  9 10  1  0  0  0  0
  9 11  1  0  0  0  0
  9 22  1  0  0  0  0
 11 12  1  0  0  0  0
 11 13  1  0  0  0  0
 11 14  1  0  0  0  0
 14 15  1  0  0  0  0
 14 20  2  0  0  0  0
 15 16  2  0  0  0  0
 16 17  1  0  0  0  0
 16 18  1  0  0  0  0
 18 19  1  0  0  0  0
 18 20  1  0  0  0  0
 20 21  1  0  0  0  0
 22 23  2  0  0  0  0
 22 24  1  0  0  0  0
 24 25  1  0  0  0  0
 24 26  1  0  0  0  0
 26 27  1  0  0  0  0
 26 28  1  0  0  0  0
 26 29  1  0  0  0  0
M  END
$$$$

  -OEChem-04042215593D

 29 29  0     1  0  0  0  0  0999 V2000
   -2.3977   -4.4494    0.5027 H   0  0  0  0  0  0  0  0  0  0  0  0
   -2.5927   -3.4337    0.1471 C   0  0  0  0  0  0  0  0  0  0  0  0
   -3.1449   -2.8915    0.9184 H   0  0  0  0  0  0  0  0  0  0  0  0
   -3.2005   -3.4885   -0.7592 H   0  0  0  0  0  0  0  0  0  0  0  0
   -1.2850   -2.7243   -0.1486 C   0  0  0  0  0  0  0  0  0  0  0  0
   -0.2292   -3.3168   -0.0141 O   0  0  0  0  0  0  0  0  0  0  0  0
   -1.3039   -1.4141   -0.5807 N   0  0  0  0  0  0  0  0  0  0  0  0
   -2.2024   -0.9446   -0.5091 H   0  0  0  0  0  0  0  0  0  0  0  0
   -0.1079   -0.5536   -0.5708 C   0  0  1  0  0  0  0  0  0  0  0  0
    0.6657   -1.0512   -1.1669 H   0  0  0  0  0  0  0  0  0  0  0  0
   -0.4358    0.7800   -1.2707 C   0  0  0  0  0  0  0  0  0  0  0  0
    0.3594    1.5012   -1.0565 H   0  0  0  0  0  0  0  0  0  0  0  0
   -0.4442    0.6141   -2.3517 H   0  0  0  0  0  0  0  0  0  0  0  0
   -1.7573    1.3789   -0.8599 C   0  0  0  0  0  0  0  0  0  0  0  0
   -2.2404    1.4878    0.4409 N   0  0  0  0  0  0  0  0  0  0  0  0
   -3.4039    2.0910    0.3639 C   0  0  0  0  0  0  0  0  0  0  0  0
   -4.0344    2.3387    1.2135 H   0  0  0  0  0  0  0  0  0  0  0  0
   -3.7080    2.3547   -0.9570 N   0  0  0  0  0  0  0  0  0  0  0  0
   -4.5471    2.8320   -1.2837 H   0  0  0  0  0  0  0  0  0  0  0  0
   -2.6645    1.9040   -1.7371 C   0  0  0  0  0  0  0  0  0  0  0  0
   -2.5608    1.9630   -2.8172 H   0  0  0  0  0  0  0  0  0  0  0  0
    0.5238   -0.3317    0.8252 C   0  0  0  0  0  0  0  0  0  0  0  0
    1.7426   -0.2988    0.9419 O   0  0  0  0  0  0  0  0  0  0  0  0
   -0.2678   -0.0408    1.9207 N   0  0  0  0  0  0  0  0  0  0  0  0
   -1.2097    0.2766    1.6878 H   0  0  0  0  0  0  0  0  0  0  0  0
    0.2868    0.3519    3.2090 C   0  0  0  0  0  0  0  0  0  0  0  0
    0.8326    1.2967    3.1194 H   0  0  0  0  0  0  0  0  0  0  0  0
   -0.5165    0.4801    3.9406 H   0  0  0  0  0  0  0  0  0  0  0  0
    0.9715   -0.4174    3.5817 H   0  0  0  0  0  0  0  0  0  0  0  0
  1  2  1  0  0  0  0
  2  3  1  0  0  0  0
  2  4  1  0  0  0  0
  2  5  1  0  0  0  0
  5  6  2  0  0  0  0
  5  7  1  0  0  0  0
  7  8  1  0  0  0  0
  7  9  1  0  0  0  0
  9 10  1  0  0  0  0
  9 11  1  0  0  0  0
  9 22  1  0  0  0  0
 11 12  1  0  0  0  0
 11 13  1  0  0  0  0
 11 14  1  0  0  0  0
 14 15  1  0  0  0  0
 14 20  2  0  0  0  0
 15 16  2  0  0  0  0
 16 17  1  0  0  0  0
 16 18  1  0  0  0  0
 18 19  1  0  0  0  0
 18 20  1  0  0  0  0
 20 21  1  0  0  0  0
 22 23  2  0  0  0  0
 22 24  1  0  0  0  0
 24 25  1  0  0  0  0
 24 26  1  0  0  0  0
 26 27  1  0  0  0  0
 26 28  1  0  0  0  0
 26 29  1  0  0  0  0
M  END
$$$$

  -OEChem-04042215593D

 29 29  0     1  0  0  0  0  0999 V2000
   -2.4119   -4.4393    0.5185 H   0  0  0  0  0  0  0  0  0  0  0  0
   -2.6025   -3.4317    0.1384 C   0  0  0  0  0  0  0  0  0  0  0  0
   -3.1759   -2.8778    0.8855 H   0  0  0  0  0  0  0  0  0  0  0  0
   -3.1879   -3.5070   -0.7809 H   0  0  0  0  0  0  0  0  0  0  0  0
   -1.2901   -2.7228   -0.1385 C   0  0  0  0  0  0  0  0  0  0  0  0
   -0.2368   -3.3127    0.0225 O   0  0  0  0  0  0  0  0  0  0  0  0
   -1.3014   -1.4172   -0.5853 N   0  0  0  0  0  0  0  0  0  0  0  0
   -2.2041   -0.9527   -0.5590 H   0  0  0  0  0  0  0  0  0  0  0  0
   -0.1033   -0.5579   -0.5758 C   0  0  1  0  0  0  0  0  0  0  0  0
    0.6734   -1.0592   -1.1646 H   0  0  0  0  0  0  0  0  0  0  0  0
   -0.4277    0.7731   -1.2808 C   0  0  0  0  0  0  0  0  0  0  0  0
    0.3661    1.4984   -1.0757 H   0  0  0  0  0  0  0  0  0  0  0  0
   -0.4411    0.6009   -2.3608 H   0  0  0  0  0  0  0  0  0  0  0  0
   -1.7507    1.3603   -0.8628 C   0  0  0  0  0  0  0  0  0  0  0  0
   -2.1029    1.7281    0.4306 N   0  0  0  0  0  0  0  0  0  0  0  0
   -3.3130    2.2320    0.3653 C   0  0  0  0  0  0  0  0  0  0  0  0
   -3.8697    2.6256    1.2113 H   0  0  0  0  0  0  0  0  0  0  0  0
   -3.7723    2.1790   -0.9363 N   0  0  0  0  0  0  0  0  0  0  0  0
   -4.6751    2.5278   -1.2557 H   0  0  0  0  0  0  0  0  0  0  0  0
   -2.7803    1.6298   -1.7207 C   0  0  0  0  0  0  0  0  0  0  0  0
   -2.7898    1.4600   -2.7939 H   0  0  0  0  0  0  0  0  0  0  0  0
    0.5170   -0.3219    0.8231 C   0  0  0  0  0  0  0  0  0  0  0  0
    1.7349   -0.3135    0.9529 O   0  0  0  0  0  0  0  0  0  0  0  0
   -0.2832   -0.0170    1.9093 N   0  0  0  0  0  0  0  0  0  0  0  0
   -1.2052    0.3432    1.6617 H   0  0  0  0  0  0  0  0  0  0  0  0
    0.2704    0.3701    3.2000 C   0  0  0  0  0  0  0  0  0  0  0  0
    0.8230    1.3112    3.1131 H   0  0  0  0  0  0  0  0  0  0  0  0
   -0.5334    0.5029    3.9301 H   0  0  0  0  0  0  0  0  0  0  0  0
    0.9487   -0.4045    3.5733 H   0  0  0  0  0  0  0  0  0  0  0  0
  1  2  1  0  0  0  0
  2  3  1  0  0  0  0
  2  4  1  0  0  0  0
  2  5  1  0  0  0  0
  5  6  2  0  0  0  0
  5  7  1  0  0  0  0
  7  8  1  0  0  0  0
  7  9  1  0  0  0  0
  9 10  1  0  0  0  0
  9 11  1  0  0  0  0
  9 22  1  0  0  0  0
 11 12  1  0  0  0  0
 11 13  1  0  0  0  0
 11 14  1  0  0  0  0
 14 15  1  0  0  0  0
 14 20  2  0  0  0  0
 15 16  2  0  0  0  0
 16 17  1  0  0  0  0
 16 18  1  0  0  0  0
 18 19  1  0  0  0  0
 18 20  1  0  0  0  0
 20 21  1  0  0  0  0
 22 23  2  0  0  0  0
 22 24  1  0  0  0  0
 24 25  1  0  0  0  0
 24 26  1  0  0  0  0
 26 27  1  0  0  0  0
 26 28  1  0  0  0  0
 26 29  1  0  0  0  0
M  END
$$$$

  -OEChem-04042215593D

 29 29  0     1  0  0  0  0  0999 V2000
   -2.4122   -4.4473    0.5273 H   0  0  0  0  0  0  0  0  0  0  0  0
   -2.5988   -3.4450    0.1310 C   0  0  0  0  0  0  0  0  0  0  0  0
   -3.1905   -2.8848    0.8589 H   0  0  0  0  0  0  0  0  0  0  0  0
   -3.1631   -3.5334   -0.8003 H   0  0  0  0  0  0  0  0  0  0  0  0
   -1.2837   -2.7334   -0.1252 C   0  0  0  0  0  0  0  0  0  0  0  0
   -0.2316   -3.3142    0.0709 O   0  0  0  0  0  0  0  0  0  0  0  0
   -1.2913   -1.4353   -0.5937 N   0  0  0  0  0  0  0  0  0  0  0  0
   -2.1979   -0.9794   -0.6154 H   0  0  0  0  0  0  0  0  0  0  0  0
   -0.0943   -0.5727   -0.5881 C   0  0  1  0  0  0  0  0  0  0  0  0
    0.6892   -1.0718   -1.1698 H   0  0  0  0  0  0  0  0  0  0  0  0
   -0.4243    0.7598   -1.2879 C   0  0  0  0  0  0  0  0  0  0  0  0
    0.3674    1.4908   -1.0944 H   0  0  0  0  0  0  0  0  0  0  0  0
   -0.4527    0.5872   -2.3676 H   0  0  0  0  0  0  0  0  0  0  0  0
   -1.7466    1.3304   -0.8515 C   0  0  0  0  0  0  0  0  0  0  0  0
   -1.9861    1.9496    0.3680 N   0  0  0  0  0  0  0  0  0  0  0  0
   -3.2290    2.3696    0.3422 C   0  0  0  0  0  0  0  0  0  0  0  0
   -3.7205    2.9082    1.1478 H   0  0  0  0  0  0  0  0  0  0  0  0
   -3.8156    2.0212   -0.8595 N   0  0  0  0  0  0  0  0  0  0  0  0
   -4.7648    2.2630   -1.1410 H   0  0  0  0  0  0  0  0  0  0  0  0
   -2.8725    1.3701   -1.6264 C   0  0  0  0  0  0  0  0  0  0  0  0
   -2.9755    0.9916   -2.6399 H   0  0  0  0  0  0  0  0  0  0  0  0
    0.5083   -0.3152    0.8144 C   0  0  0  0  0  0  0  0  0  0  0  0
    1.7238   -0.3200    0.9635 O   0  0  0  0  0  0  0  0  0  0  0  0
   -0.3078    0.0047    1.8849 N   0  0  0  0  0  0  0  0  0  0  0  0
   -1.2167    0.3821    1.6195 H   0  0  0  0  0  0  0  0  0  0  0  0
    0.2335    0.4028    3.1777 C   0  0  0  0  0  0  0  0  0  0  0  0
    0.8121    1.3273    3.0824 H   0  0  0  0  0  0  0  0  0  0  0  0
   -0.5791    0.5715    3.8904 H   0  0  0  0  0  0  0  0  0  0  0  0
    0.8848   -0.3812    3.5784 H   0  0  0  0  0  0  0  0  0  0  0  0
  1  2  1  0  0  0  0
  2  3  1  0  0  0  0
  2  4  1  0  0  0  0
  2  5  1  0  0  0  0
  5  6  2  0  0  0  0
  5  7  1  0  0  0  0
  7  8  1  0  0  0  0
  7  9  1  0  0  0  0
  9 10  1  0  0  0  0
  9 11  1  0  0  0  0
  9 22  1  0  0  0  0
 11 12  1  0  0  0  0
 11 13  1  0  0  0  0
 11 14  1  0  0  0  0
 14 15  1  0  0  0  0
 14 20  2  0  0  0  0
 15 16  2  0  0  0  0
 16 17  1  0  0  0  0
 16 18  1  0  0  0  0
 18 19  1  0  0  0  0
 18 20  1  0  0  0  0
 20 21  1  0  0  0  0
 22 23  2  0  0  0  0
 22 24  1  0  0  0  0
 24 25  1  0  0  0  0
 24 26  1  0  0  0  0
 26 27  1  0  0  0  0
 26 28  1  0  0  0  0
 26 29  1  0  0  0  0
M  END
$$$$

  -OEChem-04042215593D

 29 29  0     1  0  0  0  0  0999 V2000
   -2.3871   -4.4795    0.5309 H   0  0  0  0  0  0  0  0  0  0  0  0
   -2.5798   -3.4789    0.1333 C   0  0  0  0  0  0  0  0  0  0  0  0
   -3.1848   -2.9249    0.8548 H   0  0  0  0  0  0  0  0  0  0  0  0
   -3.1338   -3.5738   -0.8035 H   0  0  0  0  0  0  0  0  0  0  0  0
   -1.2694   -2.7545   -0.1098 C   0  0  0  0  0  0  0  0  0  0  0  0
   -0.2142   -3.3214    0.1081 O   0  0  0  0  0  0  0  0  0  0  0  0
   -1.2839   -1.4625   -0.5955 N   0  0  0  0  0  0  0  0  0  0  0  0
   -2.1945   -1.0168   -0.6395 H   0  0  0  0  0  0  0  0  0  0  0  0
   -0.0922   -0.5916   -0.5998 C   0  0  1  0  0  0  0  0  0  0  0  0
    0.6951   -1.0857   -1.1802 H   0  0  0  0  0  0  0  0  0  0  0  0
   -0.4276    0.7461   -1.2867 C   0  0  0  0  0  0  0  0  0  0  0  0
    0.3670    1.4771   -1.1041 H   0  0  0  0  0  0  0  0  0  0  0  0
   -0.4736    0.5782   -2.3665 H   0  0  0  0  0  0  0  0  0  0  0  0
   -1.7450    1.3093   -0.8299 C   0  0  0  0  0  0  0  0  0  0  0  0
   -1.8997    2.1642    0.2510 N   0  0  0  0  0  0  0  0  0  0  0  0
   -3.1618    2.5206    0.2758 C   0  0  0  0  0  0  0  0  0  0  0  0
   -3.6030    3.1975    1.0021 H   0  0  0  0  0  0  0  0  0  0  0  0
   -3.8412    1.9075   -0.7601 N   0  0  0  0  0  0  0  0  0  0  0  0
   -4.8235    2.0582   -0.9863 H   0  0  0  0  0  0  0  0  0  0  0  0
   -2.9393    1.1511   -1.4786 C   0  0  0  0  0  0  0  0  0  0  0  0
   -3.1137    0.5823   -2.3881 H   0  0  0  0  0  0  0  0  0  0  0  0
    0.4999   -0.3166    0.8035 C   0  0  0  0  0  0  0  0  0  0  0  0
    1.7138   -0.3114    0.9629 O   0  0  0  0  0  0  0  0  0  0  0  0
   -0.3302    0.0090    1.8623 N   0  0  0  0  0  0  0  0  0  0  0  0
   -1.2467    0.3578    1.5905 H   0  0  0  0  0  0  0  0  0  0  0  0
    0.1938    0.4316    3.1544 C   0  0  0  0  0  0  0  0  0  0  0  0
    0.7457    1.3719    3.0542 H   0  0  0  0  0  0  0  0  0  0  0  0
   -0.6266    0.5817    3.8623 H   0  0  0  0  0  0  0  0  0  0  0  0
    0.8655   -0.3302    3.5640 H   0  0  0  0  0  0  0  0  0  0  0  0
  1  2  1  0  0  0  0
  2  3  1  0  0  0  0
  2  4  1  0  0  0  0
  2  5  1  0  0  0  0
  5  6  2  0  0  0  0
  5  7  1  0  0  0  0
  7  8  1  0  0  0  0
  7  9  1  0  0  0  0
  9 10  1  0  0  0  0
  9 11  1  0  0  0  0
  9 22  1  0  0  0  0
 11 12  1  0  0  0  0
 11 13  1  0  0  0  0
 11 14  1  0  0  0  0
 14 15  1  0  0  0  0
 14 20  2  0  0  0  0
 15 16  2  0  0  0  0
 16 17  1  0  0  0  0
 16 18  1  0  0  0  0
 18 19  1  0  0  0  0
 18 20  1  0  0  0  0
 20 21  1  0  0  0  0
 22 23  2  0  0  0  0
 22 24  1  0  0  0  0
 24 25  1  0  0  0  0
 24 26  1  0  0  0  0
 26 27  1  0  0  0  0
 26 28  1  0  0  0  0
 26 29  1  0  0  0  0
M  END
$$$$

  -OEChem-04042215593D

 29 29  0     1  0  0  0  0  0999 V2000
   -2.3317   -4.5392    0.5300 H   0  0  0  0  0  0  0  0  0  0  0  0
   -2.5437   -3.5373    0.1461 C   0  0  0  0  0  0  0  0  0  0  0  0
   -3.1549   -3.0033    0.8775 H   0  0  0  0  0  0  0  0  0  0  0  0
   -3.1004   -3.6302   -0.7893 H   0  0  0  0  0  0  0  0  0  0  0  0
   -1.2472   -2.7869   -0.0936 C   0  0  0  0  0  0  0  0  0  0  0  0
   -0.1815   -3.3313    0.1287 O   0  0  0  0  0  0  0  0  0  0  0  0
   -1.2861   -1.4928   -0.5733 N   0  0  0  0  0  0  0  0  0  0  0  0
   -2.2046   -1.0660   -0.6283 H   0  0  0  0  0  0  0  0  0  0  0  0
   -0.1088   -0.6029   -0.5940 C   0  0  1  0  0  0  0  0  0  0  0  0
    0.6772   -1.0879   -1.1843 H   0  0  0  0  0  0  0  0  0  0  0  0
   -0.4507    0.7403   -1.2689 C   0  0  0  0  0  0  0  0  0  0  0  0
    0.3494    1.4671   -1.0929 H   0  0  0  0  0  0  0  0  0  0  0  0
   -0.5074    0.5776   -2.3487 H   0  0  0  0  0  0  0  0  0  0  0  0
   -1.7612    1.3163   -0.8086 C   0  0  0  0  0  0  0  0  0  0  0  0
   -1.8700    2.3857    0.0664 N   0  0  0  0  0  0  0  0  0  0  0  0
   -3.1411    2.7007    0.1295 C   0  0  0  0  0  0  0  0  0  0  0  0
   -3.5528    3.5075    0.7295 H   0  0  0  0  0  0  0  0  0  0  0  0
   -3.8720    1.8594   -0.6879 N   0  0  0  0  0  0  0  0  0  0  0  0
   -4.8735    1.9372   -0.8602 H   0  0  0  0  0  0  0  0  0  0  0  0
   -2.9949    0.9958   -1.3102 C   0  0  0  0  0  0  0  0  0  0  0  0
   -3.2133    0.2570   -2.0765 H   0  0  0  0  0  0  0  0  0  0  0  0
    0.4961   -0.3283    0.8037 C   0  0  0  0  0  0  0  0  0  0  0  0
    1.7111   -0.2704    0.9415 O   0  0  0  0  0  0  0  0  0  0  0  0
   -0.3261   -0.0237    1.8754 N   0  0  0  0  0  0  0  0  0  0  0  0
   -1.2855    0.2115    1.6413 H   0  0  0  0  0  0  0  0  0  0  0  0
    0.1975    0.4328    3.1563 C   0  0  0  0  0  0  0  0  0  0  0  0
    0.6833    1.4076    3.0450 H   0  0  0  0  0  0  0  0  0  0  0  0
   -0.6143    0.5278    3.8833 H   0  0  0  0  0  0  0  0  0  0  0  0
    0.9278   -0.2822    3.5501 H   0  0  0  0  0  0  0  0  0  0  0  0
  1  2  1  0  0  0  0
  2  3  1  0  0  0  0
  2  4  1  0  0  0  0
  2  5  1  0  0  0  0
  5  6  2  0  0  0  0
  5  7  1  0  0  0  0
  7  8  1  0  0  0  0
  7  9  1  0  0  0  0
  9 10  1  0  0  0  0
  9 11  1  0  0  0  0
  9 22  1  0  0  0  0
 11 12  1  0  0  0  0
 11 13  1  0  0  0  0
 11 14  1  0  0  0  0
 14 15  1  0  0  0  0
 14 20  2  0  0  0  0
 15 16  2  0  0  0  0
 16 17  1  0  0  0  0
 16 18  1  0  0  0  0
 18 19  1  0  0  0  0
 18 20  1  0  0  0  0
 20 21  1  0  0  0  0
 22 23  2  0  0  0  0
 22 24  1  0  0  0  0
 24 25  1  0  0  0  0
 24 26  1  0  0  0  0
 26 27  1  0  0  0  0
 26 28  1  0  0  0  0
 26 29  1  0  0  0  0
M  END
$$$$

  -OEChem-04042215593D

 29 29  0     1  0  0  0  0  0999 V2000
   -2.2431   -4.6054    0.5294 H   0  0  0  0  0  0  0  0  0  0  0  0
   -2.4851   -3.6016    0.1684 C   0  0  0  0  0  0  0  0  0  0  0  0
   -3.0989   -3.0977    0.9185 H   0  0  0  0  0  0  0  0  0  0  0  0
   -3.0524   -3.6901   -0.7610 H   0  0  0  0  0  0  0  0  0  0  0  0
   -1.2108   -2.8152   -0.0748 C   0  0  0  0  0  0  0  0  0  0  0  0
   -0.1297   -3.3331    0.1356 O   0  0  0  0  0  0  0  0  0  0  0  0
   -1.2874   -1.5184   -0.5436 N   0  0  0  0  0  0  0  0  0  0  0  0
   -2.2151   -1.1118   -0.5733 H   0  0  0  0  0  0  0  0  0  0  0  0
   -0.1310   -0.6035   -0.5855 C   0  0  1  0  0  0  0  0  0  0  0  0
    0.6520   -1.0768   -1.1890 H   0  0  0  0  0  0  0  0  0  0  0  0
   -0.4835    0.7435   -1.2522 C   0  0  0  0  0  0  0  0  0  0  0  0
    0.3237    1.4640   -1.0825 H   0  0  0  0  0  0  0  0  0  0  0  0
   -0.5467    0.5834   -2.3321 H   0  0  0  0  0  0  0  0  0  0  0  0
   -1.7873    1.3457   -0.8005 C   0  0  0  0  0  0  0  0  0  0  0  0
   -1.8717    2.5872   -0.1892 N   0  0  0  0  0  0  0  0  0  0  0  0
   -3.1446    2.8743   -0.0692 C   0  0  0  0  0  0  0  0  0  0  0  0
   -3.5378    3.7850    0.3741 H   0  0  0  0  0  0  0  0  0  0  0  0
   -3.9049    1.8529   -0.6054 N   0  0  0  0  0  0  0  0  0  0  0  0
   -4.9200    1.8663   -0.6945 H   0  0  0  0  0  0  0  0  0  0  0  0
   -3.0466    0.8975   -1.1082 C   0  0  0  0  0  0  0  0  0  0  0  0
   -3.3031    0.0160   -1.6881 H   0  0  0  0  0  0  0  0  0  0  0  0
    0.4939   -0.3316    0.8035 C   0  0  0  0  0  0  0  0  0  0  0  0
    1.7078   -0.2245    0.9170 O   0  0  0  0  0  0  0  0  0  0  0  0
   -0.3160   -0.0568    1.8926 N   0  0  0  0  0  0  0  0  0  0  0  0
   -1.3039    0.0702    1.7023 H   0  0  0  0  0  0  0  0  0  0  0  0
    0.2100    0.3976    3.1732 C   0  0  0  0  0  0  0  0  0  0  0  0
    0.6714    1.3850    3.0679 H   0  0  0  0  0  0  0  0  0  0  0  0
   -0.5958    0.4654    3.9099 H   0  0  0  0  0  0  0  0  0  0  0  0
    0.9610   -0.3047    3.5502 H   0  0  0  0  0  0  0  0  0  0  0  0
  1  2  1  0  0  0  0
  2  3  1  0  0  0  0
  2  4  1  0  0  0  0
  2  5  1  0  0  0  0
  5  6  2  0  0  0  0
  5  7  1  0  0  0  0
  7  8  1  0  0  0  0
  7  9  1  0  0  0  0
  9 10  1  0  0  0  0
  9 11  1  0  0  0  0
  9 22  1  0  0  0  0
 11 12  1  0  0  0  0
 11 13  1  0  0  0  0
 11 14  1  0  0  0  0
 14 15  1  0  0  0  0
 14 20  2  0  0  0  0
 15 16  2  0  0  0  0
 16 17  1  0  0  0  0
 16 18  1  0  0  0  0
 18 19  1  0  0  0  0
 18 20  1  0  0  0  0
 20 21  1  0  0  0  0
 22 23  2  0  0  0  0
 22 24  1  0  0  0  0
 24 25  1  0  0  0  0
 24 26  1  0  0  0  0
 26 27  1  0  0  0  0
 26 28  1  0  0  0  0
 26 29  1  0  0  0  0
M  END
$$$$

  -OEChem-04042215593D

 29 29  0     1  0  0  0  0  0999 V2000
   -2.1827   -4.7407    0.4213 H   0  0  0  0  0  0  0  0  0  0  0  0
   -2.4138   -3.7819   -0.0522 C   0  0  0  0  0  0  0  0  0  0  0  0
   -3.2974   -3.3567    0.4296 H   0  0  0  0  0  0  0  0  0  0  0  0
   -2.6294   -3.9564   -1.1092 H   0  0  0  0  0  0  0  0  0  0  0  0
   -1.2369   -2.8344    0.0897 C   0  0  0  0  0  0  0  0  0  0  0  0
   -0.2297   -3.2070    0.6610 O   0  0  0  0  0  0  0  0  0  0  0  0
   -1.3181   -1.5647   -0.4493 N   0  0  0  0  0  0  0  0  0  0  0  0
   -2.1017   -1.4055   -1.0712 H   0  0  0  0  0  0  0  0  0  0  0  0
   -0.1718   -0.6430   -0.5590 C   0  0  1  0  0  0  0  0  0  0  0  0
    0.6057   -1.1334   -1.1550 H   0  0  0  0  0  0  0  0  0  0  0  0
   -0.5537    0.6828   -1.2598 C   0  0  0  0  0  0  0  0  0  0  0  0
    0.2685    1.3950   -1.1291 H   0  0  0  0  0  0  0  0  0  0  0  0
   -0.6330    0.4907   -2.3329 H   0  0  0  0  0  0  0  0  0  0  0  0
   -1.8378    1.3588   -0.8330 C   0  0  0  0  0  0  0  0  0  0  0  0
   -1.8541    2.7281   -0.6058 N   0  0  0  0  0  0  0  0  0  0  0  0
   -3.0740    3.0562   -0.2611 C   0  0  0  0  0  0  0  0  0  0  0  0
   -3.4032    4.0621   -0.0162 H   0  0  0  0  0  0  0  0  0  0  0  0
   -3.8728    1.9308   -0.2614 N   0  0  0  0  0  0  0  0  0  0  0  0
   -4.8671    1.9202   -0.0399 H   0  0  0  0  0  0  0  0  0  0  0  0
   -3.0982    0.8508   -0.6307 C   0  0  0  0  0  0  0  0  0  0  0  0
   -3.4311   -0.1732   -0.7438 H   0  0  0  0  0  0  0  0  0  0  0  0
    0.4736   -0.2842    0.8022 C   0  0  0  0  0  0  0  0  0  0  0  0
    1.6847   -0.1181    0.8731 O   0  0  0  0  0  0  0  0  0  0  0  0
   -0.3184    0.0449    1.8882 N   0  0  0  0  0  0  0  0  0  0  0  0
   -1.3221   -0.0405    1.7713 H   0  0  0  0  0  0  0  0  0  0  0  0
    0.2158    0.5103    3.1608 C   0  0  0  0  0  0  0  0  0  0  0  0
    0.7685    1.4457    3.0250 H   0  0  0  0  0  0  0  0  0  0  0  0
   -0.5978    0.6892    3.8699 H   0  0  0  0  0  0  0  0  0  0  0  0
    0.8895   -0.2395    3.5885 H   0  0  0  0  0  0  0  0  0  0  0  0
  1  2  1  0  0  0  0
  2  3  1  0  0  0  0
  2  4  1  0  0  0  0
  2  5  1  0  0  0  0
  5  6  2  0  0  0  0
  5  7  1  0  0  0  0
  7  8  1  0  0  0  0
  7  9  1  0  0  0  0
  9 10  1  0  0  0  0
  9 11  1  0  0  0  0
  9 22  1  0  0  0  0
 11 12  1  0  0  0  0
 11 13  1  0  0  0  0
 11 14  1  0  0  0  0
 14 15  1  0  0  0  0
 14 20  2  0  0  0  0
 15 16  2  0  0  0  0
 16 17  1  0  0  0  0
 16 18  1  0  0  0  0
 18 19  1  0  0  0  0
 18 20  1  0  0  0  0
 20 21  1  0  0  0  0
 22 23  2  0  0  0  0
 22 24  1  0  0  0  0
 24 25  1  0  0  0  0
 24 26  1  0  0  0  0
 26 27  1  0  0  0  0
 26 28  1  0  0  0  0
 26 29  1  0  0  0  0
M  END
$$$$

  -OEChem-04042215593D

 29 29  0     1  0  0  0  0  0999 V2000
   -2.1211   -4.7732    0.3901 H   0  0  0  0  0  0  0  0  0  0  0  0
   -2.3728   -3.8140   -0.0717 C   0  0  0  0  0  0  0  0  0  0  0  0
   -3.2651   -3.4137    0.4150 H   0  0  0  0  0  0  0  0  0  0  0  0
   -2.5848   -3.9803   -1.1307 H   0  0  0  0  0  0  0  0  0  0  0  0
   -1.2162   -2.8440    0.0820 C   0  0  0  0  0  0  0  0  0  0  0  0
   -0.2098   -3.1956    0.6678 O   0  0  0  0  0  0  0  0  0  0  0  0
   -1.3173   -1.5731   -0.4505 N   0  0  0  0  0  0  0  0  0  0  0  0
   -2.1017   -1.4242   -1.0771 H   0  0  0  0  0  0  0  0  0  0  0  0
   -0.1836   -0.6358   -0.5624 C   0  0  1  0  0  0  0  0  0  0  0  0
    0.5970   -1.1148   -1.1640 H   0  0  0  0  0  0  0  0  0  0  0  0
   -0.5921    0.6804   -1.2652 C   0  0  0  0  0  0  0  0  0  0  0  0
    0.2206    1.4030   -1.1317 H   0  0  0  0  0  0  0  0  0  0  0  0
   -0.6622    0.4851   -2.3385 H   0  0  0  0  0  0  0  0  0  0  0  0
   -1.8831    1.3579   -0.8554 C   0  0  0  0  0  0  0  0  0  0  0  0
   -1.9763    2.7396   -0.9588 N   0  0  0  0  0  0  0  0  0  0  0  0
   -3.1479    3.0941   -0.4939 C   0  0  0  0  0  0  0  0  0  0  0  0
   -3.5159    4.1150   -0.4436 H   0  0  0  0  0  0  0  0  0  0  0  0
   -3.8368    1.9744   -0.0757 N   0  0  0  0  0  0  0  0  0  0  0  0
   -4.7674    1.9822    0.3386 H   0  0  0  0  0  0  0  0  0  0  0  0
   -3.0368    0.8709   -0.2876 C   0  0  0  0  0  0  0  0  0  0  0  0
   -3.2775   -0.1537   -0.0333 H   0  0  0  0  0  0  0  0  0  0  0  0
    0.4684   -0.2718    0.7940 C   0  0  0  0  0  0  0  0  0  0  0  0
    1.6767   -0.0835    0.8541 O   0  0  0  0  0  0  0  0  0  0  0  0
   -0.3182    0.0437    1.8879 N   0  0  0  0  0  0  0  0  0  0  0  0
   -1.3152   -0.1170    1.8000 H   0  0  0  0  0  0  0  0  0  0  0  0
    0.2266    0.4624    3.1723 C   0  0  0  0  0  0  0  0  0  0  0  0
    0.8122    1.3806    3.0587 H   0  0  0  0  0  0  0  0  0  0  0  0
   -0.5830    0.6551    3.8824 H   0  0  0  0  0  0  0  0  0  0  0  0
    0.8726   -0.3192    3.5857 H   0  0  0  0  0  0  0  0  0  0  0  0
  1  2  1  0  0  0  0
  2  3  1  0  0  0  0
  2  4  1  0  0  0  0
  2  5  1  0  0  0  0
  5  6  2  0  0  0  0
  5  7  1  0  0  0  0
  7  8  1  0  0  0  0
  7  9  1  0  0  0  0
  9 10  1  0  0  0  0
  9 11  1  0  0  0  0
  9 22  1  0  0  0  0
 11 12  1  0  0  0  0
 11 13  1  0  0  0  0
 11 14  1  0  0  0  0
 14 15  1  0  0  0  0
 14 20  2  0  0  0  0
 15 16  2  0  0  0  0
 16 17  1  0  0  0  0
 16 18  1  0  0  0  0
 18 19  1  0  0  0  0
 18 20  1  0  0  0  0
 20 21  1  0  0  0  0
 22 23  2  0  0  0  0
 22 24  1  0  0  0  0
 24 25  1  0  0  0  0
 24 26  1  0  0  0  0
 26 27  1  0  0  0  0
 26 28  1  0  0  0  0
 26 29  1  0  0  0  0
M  END
$$$$

  -OEChem-04042215593D

 29 29  0     1  0  0  0  0  0999 V2000
   -2.1256   -4.7734    0.3597 H   0  0  0  0  0  0  0  0  0  0  0  0
   -2.3829   -3.8042   -0.0775 C   0  0  0  0  0  0  0  0  0  0  0  0
   -3.2690   -3.4145    0.4288 H   0  0  0  0  0  0  0  0  0  0  0  0
   -2.6084   -3.9473   -1.1371 H   0  0  0  0  0  0  0  0  0  0  0  0
   -1.2249   -2.8366    0.0814 C   0  0  0  0  0  0  0  0  0  0  0  0
   -0.2180   -3.1903    0.6653 O   0  0  0  0  0  0  0  0  0  0  0  0
   -1.3288   -1.5583   -0.4315 N   0  0  0  0  0  0  0  0  0  0  0  0
   -2.1311   -1.3887   -1.0311 H   0  0  0  0  0  0  0  0  0  0  0  0
   -0.1949   -0.6202   -0.5440 C   0  0  1  0  0  0  0  0  0  0  0  0
    0.5773   -1.0996   -1.1559 H   0  0  0  0  0  0  0  0  0  0  0  0
   -0.6128    0.6885   -1.2533 C   0  0  0  0  0  0  0  0  0  0  0  0
    0.1931    1.4200   -1.1307 H   0  0  0  0  0  0  0  0  0  0  0  0
   -0.6879    0.4809   -2.3241 H   0  0  0  0  0  0  0  0  0  0  0  0
   -1.9076    1.3569   -0.8467 C   0  0  0  0  0  0  0  0  0  0  0  0
   -2.1425    2.6683   -1.2378 N   0  0  0  0  0  0  0  0  0  0  0  0
   -3.2799    3.0401   -0.7057 C   0  0  0  0  0  0  0  0  0  0  0  0
   -3.7345    4.0191   -0.8294 H   0  0  0  0  0  0  0  0  0  0  0  0
   -3.8055    2.0023    0.0369 N   0  0  0  0  0  0  0  0  0  0  0  0
   -4.6694    2.0479    0.5748 H   0  0  0  0  0  0  0  0  0  0  0  0
   -2.9327    0.9367   -0.0333 C   0  0  0  0  0  0  0  0  0  0  0  0
   -3.0294   -0.0141    0.4773 H   0  0  0  0  0  0  0  0  0  0  0  0
    0.4836   -0.2671    0.8022 C   0  0  0  0  0  0  0  0  0  0  0  0
    1.6895   -0.0578    0.8325 O   0  0  0  0  0  0  0  0  0  0  0  0
   -0.2777    0.0396    1.9164 N   0  0  0  0  0  0  0  0  0  0  0  0
   -1.2625   -0.1942    1.8734 H   0  0  0  0  0  0  0  0  0  0  0  0
    0.3027    0.4182    3.1979 C   0  0  0  0  0  0  0  0  0  0  0  0
    0.9108    1.3227    3.0910 H   0  0  0  0  0  0  0  0  0  0  0  0
   -0.4882    0.6194    3.9265 H   0  0  0  0  0  0  0  0  0  0  0  0
    0.9346   -0.3886    3.5841 H   0  0  0  0  0  0  0  0  0  0  0  0
  1  2  1  0  0  0  0
  2  3  1  0  0  0  0
  2  4  1  0  0  0  0
  2  5  1  0  0  0  0
  5  6  2  0  0  0  0
  5  7  1  0  0  0  0
  7  8  1  0  0  0  0
  7  9  1  0  0  0  0
  9 10  1  0  0  0  0
  9 11  1  0  0  0  0
  9 22  1  0  0  0  0
 11 12  1  0  0  0  0
 11 13  1  0  0  0  0
 11 14  1  0  0  0  0
 14 15  1  0  0  0  0
 14 20  2  0  0  0  0
 15 16  2  0  0  0  0
 16 17  1  0  0  0  0
 16 18  1  0  0  0  0
 18 19  1  0  0  0  0
 18 20  1  0  0  0  0
 20 21  1  0  0  0  0
 22 23  2  0  0  0  0
 22 24  1  0  0  0  0
 24 25  1  0  0  0  0
 24 26  1  0  0  0  0
 26 27  1  0  0  0  0
 26 28  1  0  0  0  0
 26 29  1  0  0  0  0
M  END
$$$$

  -OEChem-04042215593D

 29 29  0     1  0  0  0  0  0999 V2000
   -2.2682   -4.6875    0.2405 H   0  0  0  0  0  0  0  0  0  0  0  0
   -2.5042   -3.6844   -0.1264 C   0  0  0  0  0  0  0  0  0  0  0  0
   -3.3640   -3.3005    0.4277 H   0  0  0  0  0  0  0  0  0  0  0  0
   -2.7611   -3.7509   -1.1865 H   0  0  0  0  0  0  0  0  0  0  0  0
   -1.3112   -2.7663    0.0631 C   0  0  0  0  0  0  0  0  0  0  0  0
   -0.3041   -3.1836    0.6043 O   0  0  0  0  0  0  0  0  0  0  0  0
   -1.3843   -1.4514   -0.3510 N   0  0  0  0  0  0  0  0  0  0  0  0
   -2.2129   -1.1942   -0.8800 H   0  0  0  0  0  0  0  0  0  0  0  0
   -0.2202   -0.5495   -0.4322 C   0  0  1  0  0  0  0  0  0  0  0  0
    0.5091   -1.0605   -1.0710 H   0  0  0  0  0  0  0  0  0  0  0  0
   -0.5909    0.7487   -1.1764 C   0  0  0  0  0  0  0  0  0  0  0  0
    0.3071    1.3710   -1.2449 H   0  0  0  0  0  0  0  0  0  0  0  0
   -0.8794    0.4906   -2.1990 H   0  0  0  0  0  0  0  0  0  0  0  0
   -1.6910    1.6014   -0.5960 C   0  0  0  0  0  0  0  0  0  0  0  0
   -2.0627    2.7809   -1.2272 N   0  0  0  0  0  0  0  0  0  0  0  0
   -3.0397    3.3033   -0.5275 C   0  0  0  0  0  0  0  0  0  0  0  0
   -3.5397    4.2394   -0.7597 H   0  0  0  0  0  0  0  0  0  0  0  0
   -3.3398    2.4808    0.5400 N   0  0  0  0  0  0  0  0  0  0  0  0
   -4.0562    2.6667    1.2398 H   0  0  0  0  0  0  0  0  0  0  0  0
   -2.4947    1.3920    0.4946 C   0  0  0  0  0  0  0  0  0  0  0  0
   -2.4718    0.5495    1.1746 H   0  0  0  0  0  0  0  0  0  0  0  0
    0.5519   -0.2864    0.8850 C   0  0  0  0  0  0  0  0  0  0  0  0
    1.7536   -0.0597    0.8262 O   0  0  0  0  0  0  0  0  0  0  0  0
   -0.1114   -0.0170    2.0691 N   0  0  0  0  0  0  0  0  0  0  0  0
   -1.0552   -0.3798    2.1329 H   0  0  0  0  0  0  0  0  0  0  0  0
    0.5932    0.2890    3.3080 C   0  0  0  0  0  0  0  0  0  0  0  0
    1.1956    1.1960    3.1910 H   0  0  0  0  0  0  0  0  0  0  0  0
   -0.1218    0.4540    4.1195 H   0  0  0  0  0  0  0  0  0  0  0  0
    1.2530   -0.5390    3.5880 H   0  0  0  0  0  0  0  0  0  0  0  0
  1  2  1  0  0  0  0
  2  3  1  0  0  0  0
  2  4  1  0  0  0  0
  2  5  1  0  0  0  0
  5  6  2  0  0  0  0
  5  7  1  0  0  0  0
  7  8  1  0  0  0  0
  7  9  1  0  0  0  0
  9 10  1  0  0  0  0
  9 11  1  0  0  0  0
  9 22  1  0  0  0  0
 11 12  1  0  0  0  0
 11 13  1  0  0  0  0
 11 14  1  0  0  0  0
 14 15  1  0  0  0  0
 14 20  2  0  0  0  0
 15 16  2  0  0  0  0
 16 17  1  0  0  0  0
 16 18  1  0  0  0  0
 18 19  1  0  0  0  0
 18 20  1  0  0  0  0
 20 21  1  0  0  0  0
 22 23  2  0  0  0  0
 22 24  1  0  0  0  0
 24 25  1  0  0  0  0
 24 26  1  0  0  0  0
 26 27  1  0  0  0  0
 26 28  1  0  0  0  0
 26 29  1  0  0  0  0
M  END
$$$$

  -OEChem-04042215593D

 29 29  0     1  0  0  0  0  0999 V2000
   -2.2617   -4.6763    0.2452 H   0  0  0  0  0  0  0  0  0  0  0  0
   -2.5067   -3.6643   -0.0904 C   0  0  0  0  0  0  0  0  0  0  0  0
   -3.3452   -3.2902    0.5016 H   0  0  0  0  0  0  0  0  0  0  0  0
   -2.8006   -3.7055   -1.1420 H   0  0  0  0  0  0  0  0  0  0  0  0
   -1.3049   -2.7538    0.0773 C   0  0  0  0  0  0  0  0  0  0  0  0
   -0.2799   -3.1843    0.5734 O   0  0  0  0  0  0  0  0  0  0  0  0
   -1.3895   -1.4294   -0.3011 N   0  0  0  0  0  0  0  0  0  0  0  0
   -2.2414   -1.1526   -0.7818 H   0  0  0  0  0  0  0  0  0  0  0  0
   -0.2313   -0.5226   -0.3942 C   0  0  1  0  0  0  0  0  0  0  0  0
    0.4834   -1.0366   -1.0471 H   0  0  0  0  0  0  0  0  0  0  0  0
   -0.6085    0.7623   -1.1574 C   0  0  0  0  0  0  0  0  0  0  0  0
    0.2861    1.3868   -1.2459 H   0  0  0  0  0  0  0  0  0  0  0  0
   -0.8999    0.4755   -2.1719 H   0  0  0  0  0  0  0  0  0  0  0  0
   -1.7135    1.6254   -0.6028 C   0  0  0  0  0  0  0  0  0  0  0  0
   -2.2873    2.6023   -1.4066 N   0  0  0  0  0  0  0  0  0  0  0  0
   -3.2331    3.1772   -0.7053 C   0  0  0  0  0  0  0  0  0  0  0  0
   -3.8598    3.9926   -1.0556 H   0  0  0  0  0  0  0  0  0  0  0  0
   -3.3160    2.5828    0.5374 N   0  0  0  0  0  0  0  0  0  0  0  0
   -3.9648    2.8528    1.2746 H   0  0  0  0  0  0  0  0  0  0  0  0
   -2.3639    1.5874    0.6025 C   0  0  0  0  0  0  0  0  0  0  0  0
   -2.1759    0.9203    1.4326 H   0  0  0  0  0  0  0  0  0  0  0  0
    0.5830   -0.2854    0.9020 C   0  0  0  0  0  0  0  0  0  0  0  0
    1.7774   -0.0342    0.8053 O   0  0  0  0  0  0  0  0  0  0  0  0
   -0.0403   -0.0462    2.1137 N   0  0  0  0  0  0  0  0  0  0  0  0
   -0.9639   -0.4545    2.2068 H   0  0  0  0  0  0  0  0  0  0  0  0
    0.7090    0.2305    3.3336 C   0  0  0  0  0  0  0  0  0  0  0  0
    1.3217    1.1302    3.2123 H   0  0  0  0  0  0  0  0  0  0  0  0
    0.0231    0.3929    4.1705 H   0  0  0  0  0  0  0  0  0  0  0  0
    1.3647   -0.6117    3.5787 H   0  0  0  0  0  0  0  0  0  0  0  0
  1  2  1  0  0  0  0
  2  3  1  0  0  0  0
  2  4  1  0  0  0  0
  2  5  1  0  0  0  0
  5  6  2  0  0  0  0
  5  7  1  0  0  0  0
  7  8  1  0  0  0  0
  7  9  1  0  0  0  0
  9 10  1  0  0  0  0
  9 11  1  0  0  0  0
  9 22  1  0  0  0  0
 11 12  1  0  0  0  0
 11 13  1  0  0  0  0
 11 14  1  0  0  0  0
 14 15  1  0  0  0  0
 14 20  2  0  0  0  0
 15 16  2  0  0  0  0
 16 17  1  0  0  0  0
 16 18  1  0  0  0  0
 18 19  1  0  0  0  0
 18 20  1  0  0  0  0
 20 21  1  0  0  0  0
 22 23  2  0  0  0  0
 22 24  1  0  0  0  0
 24 25  1  0  0  0  0
 24 26  1  0  0  0  0
 26 27  1  0  0  0  0
 26 28  1  0  0  0  0
 26 29  1  0  0  0  0
M  END
$$$$

  -OEChem-04042215593D

 29 29  0     1  0  0  0  0  0999 V2000
   -2.2992   -4.6532    0.2314 H   0  0  0  0  0  0  0  0  0  0  0  0
   -2.5372   -3.6342   -0.0873 C   0  0  0  0  0  0  0  0  0  0  0  0
   -3.3499   -3.2519    0.5347 H   0  0  0  0  0  0  0  0  0  0  0  0
   -2.8651   -3.6608   -1.1292 H   0  0  0  0  0  0  0  0  0  0  0  0
   -1.3149   -2.7462    0.0502 C   0  0  0  0  0  0  0  0  0  0  0  0
   -0.2786   -3.2035    0.4961 O   0  0  0  0  0  0  0  0  0  0  0  0
   -1.3910   -1.4134   -0.2990 N   0  0  0  0  0  0  0  0  0  0  0  0
   -2.2592   -1.1059   -0.7295 H   0  0  0  0  0  0  0  0  0  0  0  0
   -0.2299   -0.5107   -0.3886 C   0  0  1  0  0  0  0  0  0  0  0  0
    0.4790   -1.0220   -1.0501 H   0  0  0  0  0  0  0  0  0  0  0  0
   -0.6118    0.7721   -1.1538 C   0  0  0  0  0  0  0  0  0  0  0  0
    0.2806    1.3976   -1.2542 H   0  0  0  0  0  0  0  0  0  0  0  0
   -0.9064    0.4748   -2.1648 H   0  0  0  0  0  0  0  0  0  0  0  0
   -1.7183    1.6367   -0.6033 C   0  0  0  0  0  0  0  0  0  0  0  0
   -2.4998    2.3777   -1.4815 N   0  0  0  0  0  0  0  0  0  0  0  0
   -3.3636    3.0505   -0.7618 C   0  0  0  0  0  0  0  0  0  0  0  0
   -4.1101    3.7317   -1.1605 H   0  0  0  0  0  0  0  0  0  0  0  0
   -3.1796    2.7609    0.5744 N   0  0  0  0  0  0  0  0  0  0  0  0
   -3.7021    3.1783    1.3427 H   0  0  0  0  0  0  0  0  0  0  0  0
   -2.1345    1.8679    0.6814 C   0  0  0  0  0  0  0  0  0  0  0  0
   -1.7165    1.4728    1.5963 H   0  0  0  0  0  0  0  0  0  0  0  0
    0.5921   -0.3142    0.9086 C   0  0  0  0  0  0  0  0  0  0  0  0
    1.7864   -0.0615    0.8161 O   0  0  0  0  0  0  0  0  0  0  0  0
   -0.0278   -0.1042    2.1271 N   0  0  0  0  0  0  0  0  0  0  0  0
   -0.9655   -0.4859    2.2013 H   0  0  0  0  0  0  0  0  0  0  0  0
    0.7220    0.1159    3.3584 C   0  0  0  0  0  0  0  0  0  0  0  0
    1.3553    1.0051    3.2700 H   0  0  0  0  0  0  0  0  0  0  0  0
    0.0358    0.2663    4.1973 H   0  0  0  0  0  0  0  0  0  0  0  0
    1.3573   -0.7485    3.5789 H   0  0  0  0  0  0  0  0  0  0  0  0
  1  2  1  0  0  0  0
  2  3  1  0  0  0  0
  2  4  1  0  0  0  0
  2  5  1  0  0  0  0
  5  6  2  0  0  0  0
  5  7  1  0  0  0  0
  7  8  1  0  0  0  0
  7  9  1  0  0  0  0
  9 10  1  0  0  0  0
  9 11  1  0  0  0  0
  9 22  1  0  0  0  0
 11 12  1  0  0  0  0
 11 13  1  0  0  0  0
 11 14  1  0  0  0  0
 14 15  1  0  0  0  0
 14 20  2  0  0  0  0
 15 16  2  0  0  0  0
 16 17  1  0  0  0  0
 16 18  1  0  0  0  0
 18 19  1  0  0  0  0
 18 20  1  0  0  0  0
 20 21  1  0  0  0  0
 22 23  2  0  0  0  0
 22 24  1  0  0  0  0
 24 25  1  0  0  0  0
 24 26  1  0  0  0  0
 26 27  1  0  0  0  0
 26 28  1  0  0  0  0
 26 29  1  0  0  0  0
M  END
$$$$

  -OEChem-04042215593D

 29 29  0     1  0  0  0  0  0999 V2000
   -2.3331   -4.6264    0.2832 H   0  0  0  0  0  0  0  0  0  0  0  0
   -2.5521   -3.6115   -0.0610 C   0  0  0  0  0  0  0  0  0  0  0  0
   -3.3522   -3.1954    0.5559 H   0  0  0  0  0  0  0  0  0  0  0  0
   -2.8879   -3.6578   -1.0999 H   0  0  0  0  0  0  0  0  0  0  0  0
   -1.3107   -2.7458    0.0441 C   0  0  0  0  0  0  0  0  0  0  0  0
   -0.2774   -3.2145    0.4858 O   0  0  0  0  0  0  0  0  0  0  0  0
   -1.3656   -1.4214   -0.3392 N   0  0  0  0  0  0  0  0  0  0  0  0
   -2.2360   -1.1027   -0.7583 H   0  0  0  0  0  0  0  0  0  0  0  0
   -0.1987   -0.5269   -0.4298 C   0  0  1  0  0  0  0  0  0  0  0  0
    0.5231   -1.0354   -1.0794 H   0  0  0  0  0  0  0  0  0  0  0  0
   -0.6006    0.7520   -1.1903 C   0  0  0  0  0  0  0  0  0  0  0  0
    0.2828    1.3903   -1.2888 H   0  0  0  0  0  0  0  0  0  0  0  0
   -0.9022    0.4671   -2.2028 H   0  0  0  0  0  0  0  0  0  0  0  0
   -1.7083    1.5795   -0.5930 C   0  0  0  0  0  0  0  0  0  0  0  0
   -2.7331    2.0728   -1.3909 N   0  0  0  0  0  0  0  0  0  0  0  0
   -3.4669    2.8553   -0.6371 C   0  0  0  0  0  0  0  0  0  0  0  0
   -4.3476    3.3961   -0.9723 H   0  0  0  0  0  0  0  0  0  0  0  0
   -2.9435    2.8974    0.6391 N   0  0  0  0  0  0  0  0  0  0  0  0
   -3.2936    3.4800    1.3978 H   0  0  0  0  0  0  0  0  0  0  0  0
   -1.8079    2.1163    0.6626 C   0  0  0  0  0  0  0  0  0  0  0  0
   -1.1030    2.0122    1.4796 H   0  0  0  0  0  0  0  0  0  0  0  0
    0.5772   -0.3220    0.8929 C   0  0  0  0  0  0  0  0  0  0  0  0
    1.7772   -0.0847    0.8484 O   0  0  0  0  0  0  0  0  0  0  0  0
   -0.0940   -0.0903    2.0805 N   0  0  0  0  0  0  0  0  0  0  0  0
   -1.0602   -0.4021    2.1021 H   0  0  0  0  0  0  0  0  0  0  0  0
    0.5978    0.1127    3.3477 C   0  0  0  0  0  0  0  0  0  0  0  0
    1.2449    0.9947    3.2959 H   0  0  0  0  0  0  0  0  0  0  0  0
   -0.1267    0.2645    4.1535 H   0  0  0  0  0  0  0  0  0  0  0  0
    1.2119   -0.7609    3.5917 H   0  0  0  0  0  0  0  0  0  0  0  0
  1  2  1  0  0  0  0
  2  3  1  0  0  0  0
  2  4  1  0  0  0  0
  2  5  1  0  0  0  0
  5  6  2  0  0  0  0
  5  7  1  0  0  0  0
  7  8  1  0  0  0  0
  7  9  1  0  0  0  0
  9 10  1  0  0  0  0
  9 11  1  0  0  0  0
  9 22  1  0  0  0  0
 11 12  1  0  0  0  0
 11 13  1  0  0  0  0
 11 14  1  0  0  0  0
 14 15  1  0  0  0  0
 14 20  2  0  0  0  0
 15 16  2  0  0  0  0
 16 17  1  0  0  0  0
 16 18  1  0  0  0  0
 18 19  1  0  0  0  0
 18 20  1  0  0  0  0
 20 21  1  0  0  0  0
 22 23  2  0  0  0  0
 22 24  1  0  0  0  0
 24 25  1  0  0  0  0
 24 26  1  0  0  0  0
 26 27  1  0  0  0  0
 26 28  1  0  0  0  0
 26 29  1  0  0  0  0
M  END
$$$$

  -OEChem-04042215593D

 29 29  0     1  0  0  0  0  0999 V2000
   -2.3988   -4.5661    0.3301 H   0  0  0  0  0  0  0  0  0  0  0  0
   -2.5884   -3.5549   -0.0412 C   0  0  0  0  0  0  0  0  0  0  0  0
   -3.3700   -3.0964    0.5691 H   0  0  0  0  0  0  0  0  0  0  0  0
   -2.9336   -3.6192   -1.0760 H   0  0  0  0  0  0  0  0  0  0  0  0
   -1.3198   -2.7263    0.0312 C   0  0  0  0  0  0  0  0  0  0  0  0
   -0.2986   -3.2136    0.4813 O   0  0  0  0  0  0  0  0  0  0  0  0
   -1.3351   -1.4140   -0.3930 N   0  0  0  0  0  0  0  0  0  0  0  0
   -2.2040   -1.0678   -0.7952 H   0  0  0  0  0  0  0  0  0  0  0  0
   -0.1515   -0.5408   -0.4715 C   0  0  1  0  0  0  0  0  0  0  0  0
    0.5821   -1.0544   -1.1034 H   0  0  0  0  0  0  0  0  0  0  0  0
   -0.5476    0.7431   -1.2219 C   0  0  0  0  0  0  0  0  0  0  0  0
    0.3349    1.3850   -1.3041 H   0  0  0  0  0  0  0  0  0  0  0  0
   -0.8554    0.4859   -2.2398 H   0  0  0  0  0  0  0  0  0  0  0  0
   -1.6498    1.5312   -0.5714 C   0  0  0  0  0  0  0  0  0  0  0  0
   -2.8537    1.7863   -1.2154 N   0  0  0  0  0  0  0  0  0  0  0  0
   -3.5229    2.6170   -0.4517 C   0  0  0  0  0  0  0  0  0  0  0  0
   -4.5096    3.0114   -0.6780 H   0  0  0  0  0  0  0  0  0  0  0  0
   -2.7816    2.9224    0.6730 N   0  0  0  0  0  0  0  0  0  0  0  0
   -3.0560    3.5853    1.3962 H   0  0  0  0  0  0  0  0  0  0  0  0
   -1.5757    2.2613    0.5826 C   0  0  0  0  0  0  0  0  0  0  0  0
   -0.7207    2.3353    1.2496 H   0  0  0  0  0  0  0  0  0  0  0  0
    0.5776   -0.3114    0.8734 C   0  0  0  0  0  0  0  0  0  0  0  0
    1.7829   -0.0984    0.8721 O   0  0  0  0  0  0  0  0  0  0  0  0
   -0.1375   -0.0342    2.0254 N   0  0  0  0  0  0  0  0  0  0  0  0
   -1.1218   -0.2831    2.0050 H   0  0  0  0  0  0  0  0  0  0  0  0
    0.4989    0.1954    3.3164 C   0  0  0  0  0  0  0  0  0  0  0  0
    1.1688    1.0600    3.2663 H   0  0  0  0  0  0  0  0  0  0  0  0
   -0.2585    0.3911    4.0811 H   0  0  0  0  0  0  0  0  0  0  0  0
    1.0787   -0.6835    3.6177 H   0  0  0  0  0  0  0  0  0  0  0  0
  1  2  1  0  0  0  0
  2  3  1  0  0  0  0
  2  4  1  0  0  0  0
  2  5  1  0  0  0  0
  5  6  2  0  0  0  0
  5  7  1  0  0  0  0
  7  8  1  0  0  0  0
  7  9  1  0  0  0  0
  9 10  1  0  0  0  0
  9 11  1  0  0  0  0
  9 22  1  0  0  0  0
 11 12  1  0  0  0  0
 11 13  1  0  0  0  0
 11 14  1  0  0  0  0
 14 15  1  0  0  0  0
 14 20  2  0  0  0  0
 15 16  2  0  0  0  0
 16 17  1  0  0  0  0
 16 18  1  0  0  0  0
 18 19  1  0  0  0  0
 18 20  1  0  0  0  0
 20 21  1  0  0  0  0
 22 23  2  0  0  0  0
 22 24  1  0  0  0  0
 24 25  1  0  0  0  0
 24 26  1  0  0  0  0
 26 27  1  0  0  0  0
 26 28  1  0  0  0  0
 26 29  1  0  0  0  0
M  END
$$$$

  -OEChem-04042215593D

 29 29  0     1  0  0  0  0  0999 V2000
   -2.4703   -4.4984    0.3693 H   0  0  0  0  0  0  0  0  0  0  0  0
   -2.6309   -3.4892   -0.0206 C   0  0  0  0  0  0  0  0  0  0  0  0
   -3.3849   -2.9905    0.5929 H   0  0  0  0  0  0  0  0  0  0  0  0
   -2.9965   -3.5631   -1.0476 H   0  0  0  0  0  0  0  0  0  0  0  0
   -1.3330   -2.7042    0.0107 C   0  0  0  0  0  0  0  0  0  0  0  0
   -0.3185   -3.2195    0.4453 O   0  0  0  0  0  0  0  0  0  0  0  0
   -1.3112   -1.4005   -0.4382 N   0  0  0  0  0  0  0  0  0  0  0  0
   -2.1844   -1.0122   -0.7930 H   0  0  0  0  0  0  0  0  0  0  0  0
   -0.1115   -0.5490   -0.5014 C   0  0  1  0  0  0  0  0  0  0  0  0
    0.6277   -1.0704   -1.1198 H   0  0  0  0  0  0  0  0  0  0  0  0
   -0.4907    0.7425   -1.2432 C   0  0  0  0  0  0  0  0  0  0  0  0
    0.3956    1.3806   -1.3133 H   0  0  0  0  0  0  0  0  0  0  0  0
   -0.8035    0.5058   -2.2644 H   0  0  0  0  0  0  0  0  0  0  0  0
   -1.5869    1.5072   -0.5596 C   0  0  0  0  0  0  0  0  0  0  0  0
   -2.8937    1.5257   -1.0304 N   0  0  0  0  0  0  0  0  0  0  0  0
   -3.5448    2.3877   -0.2846 C   0  0  0  0  0  0  0  0  0  0  0  0
   -4.5962    2.6371   -0.3978 H   0  0  0  0  0  0  0  0  0  0  0  0
   -2.6948    2.9341    0.6585 N   0  0  0  0  0  0  0  0  0  0  0  0
   -2.9482    3.6557    1.3315 H   0  0  0  0  0  0  0  0  0  0  0  0
   -1.4407    2.3943    0.4696 C   0  0  0  0  0  0  0  0  0  0  0  0
   -0.5178    2.6286    0.9949 H   0  0  0  0  0  0  0  0  0  0  0  0
    0.5865   -0.3037    0.8570 C   0  0  0  0  0  0  0  0  0  0  0  0
    1.7959   -0.1158    0.8856 O   0  0  0  0  0  0  0  0  0  0  0  0
   -0.1556    0.0101    1.9823 N   0  0  0  0  0  0  0  0  0  0  0  0
   -1.1498   -0.1913    1.9332 H   0  0  0  0  0  0  0  0  0  0  0  0
    0.4448    0.2773    3.2829 C   0  0  0  0  0  0  0  0  0  0  0  0
    1.1207    1.1368    3.2247 H   0  0  0  0  0  0  0  0  0  0  0  0
   -0.3329    0.5002    4.0195 H   0  0  0  0  0  0  0  0  0  0  0  0
    1.0115   -0.5942    3.6275 H   0  0  0  0  0  0  0  0  0  0  0  0
  1  2  1  0  0  0  0
  2  3  1  0  0  0  0
  2  4  1  0  0  0  0
  2  5  1  0  0  0  0
  5  6  2  0  0  0  0
  5  7  1  0  0  0  0
  7  8  1  0  0  0  0
  7  9  1  0  0  0  0
  9 10  1  0  0  0  0
  9 11  1  0  0  0  0
  9 22  1  0  0  0  0
 11 12  1  0  0  0  0
 11 13  1  0  0  0  0
 11 14  1  0  0  0  0
 14 15  1  0  0  0  0
 14 20  2  0  0  0  0
 15 16  2  0  0  0  0
 16 17  1  0  0  0  0
 16 18  1  0  0  0  0
 18 19  1  0  0  0  0
 18 20  1  0  0  0  0
 20 21  1  0  0  0  0
 22 23  2  0  0  0  0
 22 24  1  0  0  0  0
 24 25  1  0  0  0  0
 24 26  1  0  0  0  0
 26 27  1  0  0  0  0
 26 28  1  0  0  0  0
 26 29  1  0  0  0  0
M  END
$$$$

  -OEChem-04042215593D

 29 29  0     1  0  0  0  0  0999 V2000
   -2.5170   -4.4340    0.4173 H   0  0  0  0  0  0  0  0  0  0  0  0
   -2.6579   -3.4273    0.0138 C   0  0  0  0  0  0  0  0  0  0  0  0
   -3.3742   -2.8925    0.6421 H   0  0  0  0  0  0  0  0  0  0  0  0
   -3.0597   -3.5072   -0.9992 H   0  0  0  0  0  0  0  0  0  0  0  0
   -1.3351   -2.6853   -0.0124 C   0  0  0  0  0  0  0  0  0  0  0  0
   -0.3228   -3.2283    0.3929 O   0  0  0  0  0  0  0  0  0  0  0  0
   -1.2865   -1.3905   -0.4829 N   0  0  0  0  0  0  0  0  0  0  0  0
   -2.1668   -0.9575   -0.7651 H   0  0  0  0  0  0  0  0  0  0  0  0
   -0.0758   -0.5553   -0.5366 C   0  0  1  0  0  0  0  0  0  0  0  0
    0.6688   -1.0818   -1.1438 H   0  0  0  0  0  0  0  0  0  0  0  0
   -0.4414    0.7446   -1.2691 C   0  0  0  0  0  0  0  0  0  0  0  0
    0.4499    1.3762   -1.3362 H   0  0  0  0  0  0  0  0  0  0  0  0
   -0.7639    0.5211   -2.2903 H   0  0  0  0  0  0  0  0  0  0  0  0
   -1.5309    1.4966   -0.5620 C   0  0  0  0  0  0  0  0  0  0  0  0
   -2.8812    1.2967   -0.8244 N   0  0  0  0  0  0  0  0  0  0  0  0
   -3.5294    2.1839   -0.1049 C   0  0  0  0  0  0  0  0  0  0  0  0
   -4.6097    2.2974   -0.0850 H   0  0  0  0  0  0  0  0  0  0  0  0
   -2.6368    2.9514    0.6200 N   0  0  0  0  0  0  0  0  0  0  0  0
   -2.8879    3.7239    1.2350 H   0  0  0  0  0  0  0  0  0  0  0  0
   -1.3606    2.5283    0.3169 C   0  0  0  0  0  0  0  0  0  0  0  0
   -0.4131    2.9223    0.6760 H   0  0  0  0  0  0  0  0  0  0  0  0
    0.5912   -0.2997    0.8350 C   0  0  0  0  0  0  0  0  0  0  0  0
    1.8026   -0.1338    0.8968 O   0  0  0  0  0  0  0  0  0  0  0  0
   -0.1798    0.0402    1.9331 N   0  0  0  0  0  0  0  0  0  0  0  0
   -1.1809   -0.1061    1.8453 H   0  0  0  0  0  0  0  0  0  0  0  0
    0.3799    0.3415    3.2438 C   0  0  0  0  0  0  0  0  0  0  0  0
    1.0457    1.2087    3.1863 H   0  0  0  0  0  0  0  0  0  0  0  0
   -0.4213    0.5679    3.9536 H   0  0  0  0  0  0  0  0  0  0  0  0
    0.9478   -0.5149    3.6223 H   0  0  0  0  0  0  0  0  0  0  0  0
  1  2  1  0  0  0  0
  2  3  1  0  0  0  0
  2  4  1  0  0  0  0
  2  5  1  0  0  0  0
  5  6  2  0  0  0  0
  5  7  1  0  0  0  0
  7  8  1  0  0  0  0
  7  9  1  0  0  0  0
  9 10  1  0  0  0  0
  9 11  1  0  0  0  0
  9 22  1  0  0  0  0
 11 12  1  0  0  0  0
 11 13  1  0  0  0  0
 11 14  1  0  0  0  0
 14 15  1  0  0  0  0
 14 20  2  0  0  0  0
 15 16  2  0  0  0  0
 16 17  1  0  0  0  0
 16 18  1  0  0  0  0
 18 19  1  0  0  0  0
 18 20  1  0  0  0  0
 20 21  1  0  0  0  0
 22 23  2  0  0  0  0
 22 24  1  0  0  0  0
 24 25  1  0  0  0  0
 24 26  1  0  0  0  0
 26 27  1  0  0  0  0
 26 28  1  0  0  0  0
 26 29  1  0  0  0  0
M  END
$$$$

  -OEChem-04042215593D

 29 29  0     1  0  0  0  0  0999 V2000
   -2.5255   -4.4049    0.4565 H   0  0  0  0  0  0  0  0  0  0  0  0
   -2.6628   -3.3999    0.0474 C   0  0  0  0  0  0  0  0  0  0  0  0
   -3.3416   -2.8437    0.6979 H   0  0  0  0  0  0  0  0  0  0  0  0
   -3.1071   -3.4823   -0.9474 H   0  0  0  0  0  0  0  0  0  0  0  0
   -1.3277   -2.6853   -0.0407 C   0  0  0  0  0  0  0  0  0  0  0  0
   -0.3094   -3.2487    0.3203 O   0  0  0  0  0  0  0  0  0  0  0  0
   -1.2739   -1.3934   -0.5178 N   0  0  0  0  0  0  0  0  0  0  0  0
   -2.1618   -0.9282   -0.7167 H   0  0  0  0  0  0  0  0  0  0  0  0
   -0.0617   -0.5611   -0.5595 C   0  0  1  0  0  0  0  0  0  0  0  0
    0.6890   -1.0875   -1.1592 H   0  0  0  0  0  0  0  0  0  0  0  0
   -0.4116    0.7495   -1.2824 C   0  0  0  0  0  0  0  0  0  0  0  0
    0.4858    1.3729   -1.3441 H   0  0  0  0  0  0  0  0  0  0  0  0
   -0.7338    0.5328   -2.3050 H   0  0  0  0  0  0  0  0  0  0  0  0
   -1.5012    1.5065   -0.5775 C   0  0  0  0  0  0  0  0  0  0  0  0
   -2.8425    1.1351   -0.6152 N   0  0  0  0  0  0  0  0  0  0  0  0
   -3.4956    2.0575    0.0543 C   0  0  0  0  0  0  0  0  0  0  0  0
   -4.5711    2.0682    0.2076 H   0  0  0  0  0  0  0  0  0  0  0  0
   -2.6153    3.0088    0.5348 N   0  0  0  0  0  0  0  0  0  0  0  0
   -2.8756    3.8339    1.0731 H   0  0  0  0  0  0  0  0  0  0  0  0
   -1.3444    2.6665    0.1257 C   0  0  0  0  0  0  0  0  0  0  0  0
   -0.4109    3.1933    0.3063 H   0  0  0  0  0  0  0  0  0  0  0  0
    0.5853   -0.3007    0.8201 C   0  0  0  0  0  0  0  0  0  0  0  0
    1.7972   -0.1484    0.9030 O   0  0  0  0  0  0  0  0  0  0  0  0
   -0.2032    0.0462    1.9032 N   0  0  0  0  0  0  0  0  0  0  0  0
   -1.2069   -0.0589    1.7878 H   0  0  0  0  0  0  0  0  0  0  0  0
    0.3339    0.3797    3.2152 C   0  0  0  0  0  0  0  0  0  0  0  0
    0.9852    1.2574    3.1510 H   0  0  0  0  0  0  0  0  0  0  0  0
   -0.4801    0.6037    3.9110 H   0  0  0  0  0  0  0  0  0  0  0  0
    0.9116   -0.4601    3.6156 H   0  0  0  0  0  0  0  0  0  0  0  0
  1  2  1  0  0  0  0
  2  3  1  0  0  0  0
  2  4  1  0  0  0  0
  2  5  1  0  0  0  0
  5  6  2  0  0  0  0
  5  7  1  0  0  0  0
  7  8  1  0  0  0  0
  7  9  1  0  0  0  0
  9 10  1  0  0  0  0
  9 11  1  0  0  0  0
  9 22  1  0  0  0  0
 11 12  1  0  0  0  0
 11 13  1  0  0  0  0
 11 14  1  0  0  0  0
 14 15  1  0  0  0  0
 14 20  2  0  0  0  0
 15 16  2  0  0  0  0
 16 17  1  0  0  0  0
 16 18  1  0  0  0  0
 18 19  1  0  0  0  0
 18 20  1  0  0  0  0
 20 21  1  0  0  0  0
 22 23  2  0  0  0  0
 22 24  1  0  0  0  0
 24 25  1  0  0  0  0
 24 26  1  0  0  0  0
 26 27  1  0  0  0  0
 26 28  1  0  0  0  0
 26 29  1  0  0  0  0
M  END
$$$$

  -OEChem-04042215593D

 29 29  0     1  0  0  0  0  0999 V2000
   -2.4876   -4.4033    0.5016 H   0  0  0  0  0  0  0  0  0  0  0  0
   -2.6353   -3.4012    0.0893 C   0  0  0  0  0  0  0  0  0  0  0  0
   -3.2775   -2.8325    0.7658 H   0  0  0  0  0  0  0  0  0  0  0  0
   -3.1273   -3.4885   -0.8825 H   0  0  0  0  0  0  0  0  0  0  0  0
   -1.2999   -2.7000   -0.0706 C   0  0  0  0  0  0  0  0  0  0  0  0
   -0.2692   -3.2739    0.2345 O   0  0  0  0  0  0  0  0  0  0  0  0
   -1.2608   -1.4098   -0.5535 N   0  0  0  0  0  0  0  0  0  0  0  0
   -2.1559   -0.9287   -0.6645 H   0  0  0  0  0  0  0  0  0  0  0  0
   -0.0551   -0.5688   -0.5886 C   0  0  1  0  0  0  0  0  0  0  0  0
    0.7046   -1.0866   -1.1846 H   0  0  0  0  0  0  0  0  0  0  0  0
   -0.4016    0.7535   -1.2953 C   0  0  0  0  0  0  0  0  0  0  0  0
    0.4992    1.3721   -1.3574 H   0  0  0  0  0  0  0  0  0  0  0  0
   -0.7266    0.5407   -2.3176 H   0  0  0  0  0  0  0  0  0  0  0  0
   -1.4918    1.5202   -0.5949 C   0  0  0  0  0  0  0  0  0  0  0  0
   -2.7824    1.0399   -0.3749 N   0  0  0  0  0  0  0  0  0  0  0  0
   -3.4338    2.0034    0.2357 C   0  0  0  0  0  0  0  0  0  0  0  0
   -4.4739    1.9507    0.5454 H   0  0  0  0  0  0  0  0  0  0  0  0
   -2.6020    3.0895    0.4304 N   0  0  0  0  0  0  0  0  0  0  0  0
   -2.8703    3.9644    0.8789 H   0  0  0  0  0  0  0  0  0  0  0  0
   -1.3661    2.7868   -0.0997 C   0  0  0  0  0  0  0  0  0  0  0  0
   -0.4742    3.4072   -0.1282 H   0  0  0  0  0  0  0  0  0  0  0  0
    0.5683   -0.3069    0.8011 C   0  0  0  0  0  0  0  0  0  0  0  0
    1.7792   -0.1624    0.9105 O   0  0  0  0  0  0  0  0  0  0  0  0
   -0.2443    0.0330    1.8685 N   0  0  0  0  0  0  0  0  0  0  0  0
   -1.2473   -0.0136    1.7110 H   0  0  0  0  0  0  0  0  0  0  0  0
    0.2595    0.3974    3.1852 C   0  0  0  0  0  0  0  0  0  0  0  0
    0.9031    1.2807    3.1185 H   0  0  0  0  0  0  0  0  0  0  0  0
   -0.5726    0.6256    3.8578 H   0  0  0  0  0  0  0  0  0  0  0  0
    0.8361   -0.4287    3.6147 H   0  0  0  0  0  0  0  0  0  0  0  0
  1  2  1  0  0  0  0
  2  3  1  0  0  0  0
  2  4  1  0  0  0  0
  2  5  1  0  0  0  0
  5  6  2  0  0  0  0
  5  7  1  0  0  0  0
  7  8  1  0  0  0  0
  7  9  1  0  0  0  0
  9 10  1  0  0  0  0
  9 11  1  0  0  0  0
  9 22  1  0  0  0  0
 11 12  1  0  0  0  0
 11 13  1  0  0  0  0
 11 14  1  0  0  0  0
 14 15  1  0  0  0  0
 14 20  2  0  0  0  0
 15 16  2  0  0  0  0
 16 17  1  0  0  0  0
 16 18  1  0  0  0  0
 18 19  1  0  0  0  0
 18 20  1  0  0  0  0
 20 21  1  0  0  0  0
 22 23  2  0  0  0  0
 22 24  1  0  0  0  0
 24 25  1  0  0  0  0
 24 26  1  0  0  0  0
 26 27  1  0  0  0  0
 26 28  1  0  0  0  0
 26 29  1  0  0  0  0
M  END
$$$$

  -OEChem-04042215593D

 29 29  0     1  0  0  0  0  0999 V2000
   -2.4446   -4.4265    0.5131 H   0  0  0  0  0  0  0  0  0  0  0  0
   -2.6098   -3.4198    0.1190 C   0  0  0  0  0  0  0  0  0  0  0  0
   -3.2062   -2.8536    0.8381 H   0  0  0  0  0  0  0  0  0  0  0  0
   -3.1595   -3.4959   -0.8220 H   0  0  0  0  0  0  0  0  0  0  0  0
   -1.2810   -2.7261   -0.1132 C   0  0  0  0  0  0  0  0  0  0  0  0
   -0.2391   -3.3118    0.1248 O   0  0  0  0  0  0  0  0  0  0  0  0
   -1.2591   -1.4326   -0.5894 N   0  0  0  0  0  0  0  0  0  0  0  0
   -2.1549   -0.9416   -0.6111 H   0  0  0  0  0  0  0  0  0  0  0  0
   -0.0569   -0.5857   -0.6074 C   0  0  1  0  0  0  0  0  0  0  0  0
    0.7118   -1.0923   -1.2012 H   0  0  0  0  0  0  0  0  0  0  0  0
   -0.3953    0.7513   -1.2922 C   0  0  0  0  0  0  0  0  0  0  0  0
    0.5095    1.3646   -1.3488 H   0  0  0  0  0  0  0  0  0  0  0  0
   -0.7183    0.5466   -2.3169 H   0  0  0  0  0  0  0  0  0  0  0  0
   -1.4874    1.5276   -0.5990 C   0  0  0  0  0  0  0  0  0  0  0  0
   -2.6887    0.9963   -0.1258 N   0  0  0  0  0  0  0  0  0  0  0  0
   -3.3507    1.9967    0.4099 C   0  0  0  0  0  0  0  0  0  0  0  0
   -4.3336    1.9187    0.8661 H   0  0  0  0  0  0  0  0  0  0  0  0
   -2.6111    3.1590    0.3137 N   0  0  0  0  0  0  0  0  0  0  0  0
   -2.9021    4.0729    0.6579 H   0  0  0  0  0  0  0  0  0  0  0  0
   -1.4256    2.8642   -0.3243 C   0  0  0  0  0  0  0  0  0  0  0  0
   -0.6060    3.5364   -0.5640 H   0  0  0  0  0  0  0  0  0  0  0  0
    0.5461   -0.3363    0.7935 C   0  0  0  0  0  0  0  0  0  0  0  0
    1.7553   -0.1976    0.9266 O   0  0  0  0  0  0  0  0  0  0  0  0
   -0.2876   -0.0107    1.8491 N   0  0  0  0  0  0  0  0  0  0  0  0
   -1.2809    0.0503    1.6354 H   0  0  0  0  0  0  0  0  0  0  0  0
    0.1925    0.4302    3.1512 C   0  0  0  0  0  0  0  0  0  0  0  0
    0.7227    1.3838    3.0612 H   0  0  0  0  0  0  0  0  0  0  0  0
   -0.6482    0.5616    3.8389 H   0  0  0  0  0  0  0  0  0  0  0  0
    0.8739   -0.3130    3.5785 H   0  0  0  0  0  0  0  0  0  0  0  0
  1  2  1  0  0  0  0
  2  3  1  0  0  0  0
  2  4  1  0  0  0  0
  2  5  1  0  0  0  0
  5  6  2  0  0  0  0
  5  7  1  0  0  0  0
  7  8  1  0  0  0  0
  7  9  1  0  0  0  0
  9 10  1  0  0  0  0
  9 11  1  0  0  0  0
  9 22  1  0  0  0  0
 11 12  1  0  0  0  0
 11 13  1  0  0  0  0
 11 14  1  0  0  0  0
 14 15  1  0  0  0  0
 14 20  2  0  0  0  0
 15 16  2  0  0  0  0
 16 17  1  0  0  0  0
 16 18  1  0  0  0  0
 18 19  1  0  0  0  0
 18 20  1  0  0  0  0
 20 21  1  0  0  0  0
 22 23  2  0  0  0  0
 22 24  1  0  0  0  0
 24 25  1  0  0  0  0
 24 26  1  0  0  0  0
 26 27  1  0  0  0  0
 26 28  1  0  0  0  0
 26 29  1  0  0  0  0
M  END
$$$$

  -OEChem-04042215593D

 29 29  0     1  0  0  0  0  0999 V2000
   -2.4129   -4.4363    0.5187 H   0  0  0  0  0  0  0  0  0  0  0  0
   -2.5898   -3.4258    0.1391 C   0  0  0  0  0  0  0  0  0  0  0  0
   -3.1533   -2.8624    0.8865 H   0  0  0  0  0  0  0  0  0  0  0  0
   -3.1784   -3.4917   -0.7790 H   0  0  0  0  0  0  0  0  0  0  0  0
   -1.2686   -2.7357   -0.1420 C   0  0  0  0  0  0  0  0  0  0  0  0
   -0.2204   -3.3296    0.0424 O   0  0  0  0  0  0  0  0  0  0  0  0
   -1.2625   -1.4365   -0.6033 N   0  0  0  0  0  0  0  0  0  0  0  0
   -2.1556   -0.9441   -0.5562 H   0  0  0  0  0  0  0  0  0  0  0  0
   -0.0639   -0.5844   -0.6047 C   0  0  1  0  0  0  0  0  0  0  0  0
    0.7084   -1.0837   -1.2004 H   0  0  0  0  0  0  0  0  0  0  0  0
   -0.4009    0.7554   -1.2854 C   0  0  0  0  0  0  0  0  0  0  0  0
    0.5027    1.3712   -1.3318 H   0  0  0  0  0  0  0  0  0  0  0  0
   -0.7111    0.5491   -2.3136 H   0  0  0  0  0  0  0  0  0  0  0  0
   -1.5032    1.5370   -0.6117 C   0  0  0  0  0  0  0  0  0  0  0  0
   -2.5772    1.0008    0.1038 N   0  0  0  0  0  0  0  0  0  0  0  0
   -3.2793    2.0221    0.5402 C   0  0  0  0  0  0  0  0  0  0  0  0
   -4.1868    1.9445    1.1323 H   0  0  0  0  0  0  0  0  0  0  0  0
   -2.6909    3.2057    0.1411 N   0  0  0  0  0  0  0  0  0  0  0  0
   -3.0383    4.1388    0.3579 H   0  0  0  0  0  0  0  0  0  0  0  0
   -1.5598    2.9015   -0.5851 C   0  0  0  0  0  0  0  0  0  0  0  0
   -0.8504    3.5866   -1.0412 H   0  0  0  0  0  0  0  0  0  0  0  0
    0.5379   -0.3469    0.7991 C   0  0  0  0  0  0  0  0  0  0  0  0
    1.7486   -0.2254    0.9362 O   0  0  0  0  0  0  0  0  0  0  0  0
   -0.2957   -0.0359    1.8585 N   0  0  0  0  0  0  0  0  0  0  0  0
   -1.2792    0.0934    1.6226 H   0  0  0  0  0  0  0  0  0  0  0  0
    0.1882    0.4116    3.1567 C   0  0  0  0  0  0  0  0  0  0  0  0
    0.6943    1.3778    3.0638 H   0  0  0  0  0  0  0  0  0  0  0  0
   -0.6477    0.5206    3.8540 H   0  0  0  0  0  0  0  0  0  0  0  0
    0.8915   -0.3169    3.5739 H   0  0  0  0  0  0  0  0  0  0  0  0
  1  2  1  0  0  0  0
  2  3  1  0  0  0  0
  2  4  1  0  0  0  0
  2  5  1  0  0  0  0
  5  6  2  0  0  0  0
  5  7  1  0  0  0  0
  7  8  1  0  0  0  0
  7  9  1  0  0  0  0
  9 10  1  0  0  0  0
  9 11  1  0  0  0  0
  9 22  1  0  0  0  0
 11 12  1  0  0  0  0
 11 13  1  0  0  0  0
 11 14  1  0  0  0  0
 14 15  1  0  0  0  0
 14 20  2  0  0  0  0
 15 16  2  0  0  0  0
 16 17  1  0  0  0  0
 16 18  1  0  0  0  0
 18 19  1  0  0  0  0
 18 20  1  0  0  0  0
 20 21  1  0  0  0  0
 22 23  2  0  0  0  0
 22 24  1  0  0  0  0
 24 25  1  0  0  0  0
 24 26  1  0  0  0  0
 26 27  1  0  0  0  0
 26 28  1  0  0  0  0
 26 29  1  0  0  0  0
M  END
$$$$

  -OEChem-04042215593D

 29 29  0     1  0  0  0  0  0999 V2000
   -2.3984   -4.4592    0.4740 H   0  0  0  0  0  0  0  0  0  0  0  0
   -2.5862   -3.4380    0.1306 C   0  0  0  0  0  0  0  0  0  0  0  0
   -3.1317   -2.8995    0.9092 H   0  0  0  0  0  0  0  0  0  0  0  0
   -3.1976   -3.4774   -0.7739 H   0  0  0  0  0  0  0  0  0  0  0  0
   -1.2731   -2.7365   -0.1611 C   0  0  0  0  0  0  0  0  0  0  0  0
   -0.2202   -3.3325   -0.0142 O   0  0  0  0  0  0  0  0  0  0  0  0
   -1.2802   -1.4269   -0.5928 N   0  0  0  0  0  0  0  0  0  0  0  0
   -2.1708   -0.9390   -0.4995 H   0  0  0  0  0  0  0  0  0  0  0  0
   -0.0833   -0.5723   -0.5755 C   0  0  1  0  0  0  0  0  0  0  0  0
    0.6868   -1.0703   -1.1751 H   0  0  0  0  0  0  0  0  0  0  0  0
   -0.4144    0.7628   -1.2667 C   0  0  0  0  0  0  0  0  0  0  0  0
    0.4875    1.3825   -1.2942 H   0  0  0  0  0  0  0  0  0  0  0  0
   -0.6992    0.5511   -2.3012 H   0  0  0  0  0  0  0  0  0  0  0  0
   -1.5321    1.5499   -0.6260 C   0  0  0  0  0  0  0  0  0  0  0  0
   -2.4591    1.0752    0.3058 N   0  0  0  0  0  0  0  0  0  0  0  0
   -3.2233    2.0955    0.6236 C   0  0  0  0  0  0  0  0  0  0  0  0
   -4.0479    2.0586    1.3300 H   0  0  0  0  0  0  0  0  0  0  0  0
   -2.8222    3.2201   -0.0698 N   0  0  0  0  0  0  0  0  0  0  0  0
   -3.2466    4.1430    0.0092 H   0  0  0  0  0  0  0  0  0  0  0  0
   -1.7453    2.8789   -0.8594 C   0  0  0  0  0  0  0  0  0  0  0  0
   -1.1708    3.5188   -1.5238 H   0  0  0  0  0  0  0  0  0  0  0  0
    0.5400   -0.3520    0.8229 C   0  0  0  0  0  0  0  0  0  0  0  0
    1.7548   -0.2505    0.9410 O   0  0  0  0  0  0  0  0  0  0  0  0
   -0.2676   -0.0592    1.9064 N   0  0  0  0  0  0  0  0  0  0  0  0
   -1.2454    0.1254    1.6803 H   0  0  0  0  0  0  0  0  0  0  0  0
    0.2496    0.3748    3.1966 C   0  0  0  0  0  0  0  0  0  0  0  0
    0.7373    1.3506    3.1054 H   0  0  0  0  0  0  0  0  0  0  0  0
   -0.5664    0.4576    3.9206 H   0  0  0  0  0  0  0  0  0  0  0  0
    0.9766   -0.3488    3.5803 H   0  0  0  0  0  0  0  0  0  0  0  0
  1  2  1  0  0  0  0
  2  3  1  0  0  0  0
  2  4  1  0  0  0  0
  2  5  1  0  0  0  0
  5  6  2  0  0  0  0
  5  7  1  0  0  0  0
  7  8  1  0  0  0  0
  7  9  1  0  0  0  0
  9 10  1  0  0  0  0
  9 11  1  0  0  0  0
  9 22  1  0  0  0  0
 11 12  1  0  0  0  0
 11 13  1  0  0  0  0
 11 14  1  0  0  0  0
 14 15  1  0  0  0  0
 14 20  2  0  0  0  0
 15 16  2  0  0  0  0
 16 17  1  0  0  0  0
 16 18  1  0  0  0  0
 18 19  1  0  0  0  0
 18 20  1  0  0  0  0
 20 21  1  0  0  0  0
 22 23  2  0  0  0  0
 22 24  1  0  0  0  0
 24 25  1  0  0  0  0
 24 26  1  0  0  0  0
 26 27  1  0  0  0  0
 26 28  1  0  0  0  0
 26 29  1  0  0  0  0
M  END
$$$$

  -OEChem-04042215593D

 29 29  0     1  0  0  0  0  0999 V2000
   -2.3927   -4.4668    0.4394 H   0  0  0  0  0  0  0  0  0  0  0  0
   -2.5890   -3.4400    0.1177 C   0  0  0  0  0  0  0  0  0  0  0  0
   -3.1295   -2.9194    0.9119 H   0  0  0  0  0  0  0  0  0  0  0  0
   -3.2089   -3.4646   -0.7816 H   0  0  0  0  0  0  0  0  0  0  0  0
   -1.2822   -2.7267   -0.1735 C   0  0  0  0  0  0  0  0  0  0  0  0
   -0.2264   -3.3249   -0.0606 O   0  0  0  0  0  0  0  0  0  0  0  0
   -1.2994   -1.4055   -0.5692 N   0  0  0  0  0  0  0  0  0  0  0  0
   -2.1906   -0.9264   -0.4547 H   0  0  0  0  0  0  0  0  0  0  0  0
   -0.1045   -0.5491   -0.5384 C   0  0  1  0  0  0  0  0  0  0  0  0
    0.6604   -1.0467   -1.1455 H   0  0  0  0  0  0  0  0  0  0  0  0
   -0.4281    0.7803   -1.2430 C   0  0  0  0  0  0  0  0  0  0  0  0
    0.4726    1.4021   -1.2444 H   0  0  0  0  0  0  0  0  0  0  0  0
   -0.6817    0.5683   -2.2857 H   0  0  0  0  0  0  0  0  0  0  0  0
   -1.5581    1.5726   -0.6325 C   0  0  0  0  0  0  0  0  0  0  0  0
   -2.3242    1.2254    0.4815 N   0  0  0  0  0  0  0  0  0  0  0  0
   -3.1714    2.2104    0.6752 C   0  0  0  0  0  0  0  0  0  0  0  0
   -3.9082    2.2495    1.4726 H   0  0  0  0  0  0  0  0  0  0  0  0
   -2.9880    3.1856   -0.2847 N   0  0  0  0  0  0  0  0  0  0  0  0
   -3.5144    4.0557   -0.3482 H   0  0  0  0  0  0  0  0  0  0  0  0
   -1.9630    2.7853   -1.1146 C   0  0  0  0  0  0  0  0  0  0  0  0
   -1.5451    3.3130   -1.9675 H   0  0  0  0  0  0  0  0  0  0  0  0
    0.5471   -0.3531    0.8519 C   0  0  0  0  0  0  0  0  0  0  0  0
    1.7661   -0.2754    0.9433 O   0  0  0  0  0  0  0  0  0  0  0  0
   -0.2261   -0.0847    1.9658 N   0  0  0  0  0  0  0  0  0  0  0  0
   -1.1980    0.1530    1.7643 H   0  0  0  0  0  0  0  0  0  0  0  0
    0.3372    0.3137    3.2486 C   0  0  0  0  0  0  0  0  0  0  0  0
    0.8310    1.2871    3.1636 H   0  0  0  0  0  0  0  0  0  0  0  0
   -0.4537    0.3869    4.0011 H   0  0  0  0  0  0  0  0  0  0  0  0
    1.0698   -0.4249    3.5912 H   0  0  0  0  0  0  0  0  0  0  0  0
  1  2  1  0  0  0  0
  2  3  1  0  0  0  0
  2  4  1  0  0  0  0
  2  5  1  0  0  0  0
  5  6  2  0  0  0  0
  5  7  1  0  0  0  0
  7  8  1  0  0  0  0
  7  9  1  0  0  0  0
  9 10  1  0  0  0  0
  9 11  1  0  0  0  0
  9 22  1  0  0  0  0
 11 12  1  0  0  0  0
 11 13  1  0  0  0  0
 11 14  1  0  0  0  0
 14 15  1  0  0  0  0
 14 20  2  0  0  0  0
 15 16  2  0  0  0  0
 16 17  1  0  0  0  0
 16 18  1  0  0  0  0
 18 19  1  0  0  0  0
 18 20  1  0  0  0  0
 20 21  1  0  0  0  0
 22 23  2  0  0  0  0
 22 24  1  0  0  0  0
 24 25  1  0  0  0  0
 24 26  1  0  0  0  0
 26 27  1  0  0  0  0
 26 28  1  0  0  0  0
 26 29  1  0  0  0  0
M  END
$$$$

  -OEChem-04042215593D

 29 29  0     1  0  0  0  0  0999 V2000
   -2.4064   -4.4657    0.4076 H   0  0  0  0  0  0  0  0  0  0  0  0
   -2.6021   -3.4334    0.1045 C   0  0  0  0  0  0  0  0  0  0  0  0
   -3.1390   -2.9263    0.9098 H   0  0  0  0  0  0  0  0  0  0  0  0
   -3.2250   -3.4412   -0.7930 H   0  0  0  0  0  0  0  0  0  0  0  0
   -1.2953   -2.7166   -0.1787 C   0  0  0  0  0  0  0  0  0  0  0  0
   -0.2401   -3.3180   -0.0821 O   0  0  0  0  0  0  0  0  0  0  0  0
   -1.3145   -1.3877   -0.5486 N   0  0  0  0  0  0  0  0  0  0  0  0
   -2.2081   -0.9158   -0.4353 H   0  0  0  0  0  0  0  0  0  0  0  0
   -0.1191   -0.5314   -0.5116 C   0  0  1  0  0  0  0  0  0  0  0  0
    0.6405   -1.0308   -1.1240 H   0  0  0  0  0  0  0  0  0  0  0  0
   -0.4367    0.7933   -1.2277 C   0  0  0  0  0  0  0  0  0  0  0  0
    0.4631    1.4161   -1.2074 H   0  0  0  0  0  0  0  0  0  0  0  0
   -0.6655    0.5816   -2.2763 H   0  0  0  0  0  0  0  0  0  0  0  0
   -1.5731    1.5898   -0.6360 C   0  0  0  0  0  0  0  0  0  0  0  0
   -2.1652    1.4216    0.6142 N   0  0  0  0  0  0  0  0  0  0  0  0
   -3.0976    2.3402    0.7182 C   0  0  0  0  0  0  0  0  0  0  0  0
   -3.7374    2.4818    1.5847 H   0  0  0  0  0  0  0  0  0  0  0  0
   -3.1459    3.0932   -0.4376 N   0  0  0  0  0  0  0  0  0  0  0  0
   -3.7754    3.8771   -0.6037 H   0  0  0  0  0  0  0  0  0  0  0  0
   -2.1810    2.6185   -1.2997 C   0  0  0  0  0  0  0  0  0  0  0  0
   -1.9329    2.9820   -2.2932 H   0  0  0  0  0  0  0  0  0  0  0  0
    0.5552   -0.3529    0.8715 C   0  0  0  0  0  0  0  0  0  0  0  0
    1.7771   -0.2971    0.9422 O   0  0  0  0  0  0  0  0  0  0  0  0
   -0.1926   -0.1010    2.0062 N   0  0  0  0  0  0  0  0  0  0  0  0
   -1.1523    0.1926    1.8202 H   0  0  0  0  0  0  0  0  0  0  0  0
    0.4065    0.2752    3.2794 C   0  0  0  0  0  0  0  0  0  0  0  0
    0.9059    1.2457    3.1954 H   0  0  0  0  0  0  0  0  0  0  0  0
   -0.3648    0.3448    4.0521 H   0  0  0  0  0  0  0  0  0  0  0  0
    1.1409   -0.4739    3.5941 H   0  0  0  0  0  0  0  0  0  0  0  0
  1  2  1  0  0  0  0
  2  3  1  0  0  0  0
  2  4  1  0  0  0  0
  2  5  1  0  0  0  0
  5  6  2  0  0  0  0
  5  7  1  0  0  0  0
  7  8  1  0  0  0  0
  7  9  1  0  0  0  0
  9 10  1  0  0  0  0
  9 11  1  0  0  0  0
  9 22  1  0  0  0  0
 11 12  1  0  0  0  0
 11 13  1  0  0  0  0
 11 14  1  0  0  0  0
 14 15  1  0  0  0  0
 14 20  2  0  0  0  0
 15 16  2  0  0  0  0
 16 17  1  0  0  0  0
 16 18  1  0  0  0  0
 18 19  1  0  0  0  0
 18 20  1  0  0  0  0
 20 21  1  0  0  0  0
 22 23  2  0  0  0  0
 22 24  1  0  0  0  0
 24 25  1  0  0  0  0
 24 26  1  0  0  0  0
 26 27  1  0  0  0  0
 26 28  1  0  0  0  0
 26 29  1  0  0  0  0
M  END
$$$$

  -OEChem-04042215593D

 29 29  0     1  0  0  0  0  0999 V2000
   -2.4228   -4.4488    0.4177 H   0  0  0  0  0  0  0  0  0  0  0  0
   -2.6165   -3.4210    0.0980 C   0  0  0  0  0  0  0  0  0  0  0  0
   -3.1712   -2.9067    0.8864 H   0  0  0  0  0  0  0  0  0  0  0  0
   -3.2217   -3.4430   -0.8113 H   0  0  0  0  0  0  0  0  0  0  0  0
   -1.3072   -2.7024   -0.1678 C   0  0  0  0  0  0  0  0  0  0  0  0
   -0.2533   -3.3045   -0.0643 O   0  0  0  0  0  0  0  0  0  0  0  0
   -1.3232   -1.3720   -0.5327 N   0  0  0  0  0  0  0  0  0  0  0  0
   -2.2201   -0.9036   -0.4436 H   0  0  0  0  0  0  0  0  0  0  0  0
   -0.1251   -0.5183   -0.4995 C   0  0  1  0  0  0  0  0  0  0  0  0
    0.6297   -1.0237   -1.1130 H   0  0  0  0  0  0  0  0  0  0  0  0
   -0.4410    0.8002   -1.2283 C   0  0  0  0  0  0  0  0  0  0  0  0
    0.4581    1.4236   -1.2049 H   0  0  0  0  0  0  0  0  0  0  0  0
   -0.6600    0.5816   -2.2775 H   0  0  0  0  0  0  0  0  0  0  0  0
   -1.5784    1.6017   -0.6451 C   0  0  0  0  0  0  0  0  0  0  0  0
   -1.9871    1.6518    0.6843 N   0  0  0  0  0  0  0  0  0  0  0  0
   -3.0032    2.4809    0.7414 C   0  0  0  0  0  0  0  0  0  0  0  0
   -3.5417    2.7449    1.6475 H   0  0  0  0  0  0  0  0  0  0  0  0
   -3.2883    2.9586   -0.5217 N   0  0  0  0  0  0  0  0  0  0  0  0
   -4.0246    3.6264   -0.7463 H   0  0  0  0  0  0  0  0  0  0  0  0
   -2.3878    2.4012   -1.4041 C   0  0  0  0  0  0  0  0  0  0  0  0
   -2.3137    2.5639   -2.4758 H   0  0  0  0  0  0  0  0  0  0  0  0
    0.5603   -0.3438    0.8792 C   0  0  0  0  0  0  0  0  0  0  0  0
    1.7836   -0.3243    0.9427 O   0  0  0  0  0  0  0  0  0  0  0  0
   -0.1744   -0.0925    2.0226 N   0  0  0  0  0  0  0  0  0  0  0  0
   -1.1135    0.2635    1.8426 H   0  0  0  0  0  0  0  0  0  0  0  0
    0.4485    0.2465    3.2951 C   0  0  0  0  0  0  0  0  0  0  0  0
    0.9817    1.1996    3.2182 H   0  0  0  0  0  0  0  0  0  0  0  0
   -0.3132    0.3335    4.0756 H   0  0  0  0  0  0  0  0  0  0  0  0
    1.1584   -0.5322    3.5939 H   0  0  0  0  0  0  0  0  0  0  0  0
  1  2  1  0  0  0  0
  2  3  1  0  0  0  0
  2  4  1  0  0  0  0
  2  5  1  0  0  0  0
  5  6  2  0  0  0  0
  5  7  1  0  0  0  0
  7  8  1  0  0  0  0
  7  9  1  0  0  0  0
  9 10  1  0  0  0  0
  9 11  1  0  0  0  0
  9 22  1  0  0  0  0
 11 12  1  0  0  0  0
 11 13  1  0  0  0  0
 11 14  1  0  0  0  0
 14 15  1  0  0  0  0
 14 20  2  0  0  0  0
 15 16  2  0  0  0  0
 16 17  1  0  0  0  0
 16 18  1  0  0  0  0
 18 19  1  0  0  0  0
 18 20  1  0  0  0  0
 20 21  1  0  0  0  0
 22 23  2  0  0  0  0
 22 24  1  0  0  0  0
 24 25  1  0  0  0  0
 24 26  1  0  0  0  0
 26 27  1  0  0  0  0
 26 28  1  0  0  0  0
 26 29  1  0  0  0  0
M  END
$$$$

  -OEChem-04042215593D

 29 29  0     1  0  0  0  0  0999 V2000
   -2.4328   -4.4408    0.4364 H   0  0  0  0  0  0  0  0  0  0  0  0
   -2.6230   -3.4186    0.0970 C   0  0  0  0  0  0  0  0  0  0  0  0
   -3.1989   -2.8960    0.8644 H   0  0  0  0  0  0  0  0  0  0  0  0
   -3.2056   -3.4566   -0.8264 H   0  0  0  0  0  0  0  0  0  0  0  0
   -1.3106   -2.6980   -0.1479 C   0  0  0  0  0  0  0  0  0  0  0  0
   -0.2577   -3.2969   -0.0210 O   0  0  0  0  0  0  0  0  0  0  0  0
   -1.3232   -1.3713   -0.5279 N   0  0  0  0  0  0  0  0  0  0  0  0
   -2.2244   -0.9068   -0.4782 H   0  0  0  0  0  0  0  0  0  0  0  0
   -0.1240   -0.5173   -0.5033 C   0  0  1  0  0  0  0  0  0  0  0  0
    0.6322   -1.0267   -1.1119 H   0  0  0  0  0  0  0  0  0  0  0  0
   -0.4431    0.7944   -1.2428 C   0  0  0  0  0  0  0  0  0  0  0  0
    0.4537    1.4215   -1.2287 H   0  0  0  0  0  0  0  0  0  0  0  0
   -0.6656    0.5656   -2.2891 H   0  0  0  0  0  0  0  0  0  0  0  0
   -1.5805    1.5917   -0.6561 C   0  0  0  0  0  0  0  0  0  0  0  0
   -1.8068    1.8750    0.6858 N   0  0  0  0  0  0  0  0  0  0  0  0
   -2.8883    2.6158    0.7451 C   0  0  0  0  0  0  0  0  0  0  0  0
   -3.3210    3.0145    1.6585 H   0  0  0  0  0  0  0  0  0  0  0  0
   -3.3944    2.8047   -0.5252 N   0  0  0  0  0  0  0  0  0  0  0  0
   -4.2198    3.3571   -0.7537 H   0  0  0  0  0  0  0  0  0  0  0  0
   -2.5660    2.1578   -1.4172 C   0  0  0  0  0  0  0  0  0  0  0  0
   -2.6527    2.1140   -2.4994 H   0  0  0  0  0  0  0  0  0  0  0  0
    0.5567   -0.3301    0.8764 C   0  0  0  0  0  0  0  0  0  0  0  0
    1.7797   -0.3436    0.9489 O   0  0  0  0  0  0  0  0  0  0  0  0
   -0.1820   -0.0663    2.0149 N   0  0  0  0  0  0  0  0  0  0  0  0
   -1.0987    0.3386    1.8257 H   0  0  0  0  0  0  0  0  0  0  0  0
    0.4447    0.2531    3.2908 C   0  0  0  0  0  0  0  0  0  0  0  0
    1.0245    1.1785    3.2121 H   0  0  0  0  0  0  0  0  0  0  0  0
   -0.3188    0.3839    4.0632 H   0  0  0  0  0  0  0  0  0  0  0  0
    1.1130   -0.5568    3.6021 H   0  0  0  0  0  0  0  0  0  0  0  0
  1  2  1  0  0  0  0
  2  3  1  0  0  0  0
  2  4  1  0  0  0  0
  2  5  1  0  0  0  0
  5  6  2  0  0  0  0
  5  7  1  0  0  0  0
  7  8  1  0  0  0  0
  7  9  1  0  0  0  0
  9 10  1  0  0  0  0
  9 11  1  0  0  0  0
  9 22  1  0  0  0  0
 11 12  1  0  0  0  0
 11 13  1  0  0  0  0
 11 14  1  0  0  0  0
 14 15  1  0  0  0  0
 14 20  2  0  0  0  0
 15 16  2  0  0  0  0
 16 17  1  0  0  0  0
 16 18  1  0  0  0  0
 18 19  1  0  0  0  0
 18 20  1  0  0  0  0
 20 21  1  0  0  0  0
 22 23  2  0  0  0  0
 22 24  1  0  0  0  0
 24 25  1  0  0  0  0
 24 26  1  0  0  0  0
 26 27  1  0  0  0  0
 26 28  1  0  0  0  0
 26 29  1  0  0  0  0
M  END
$$$$

  -OEChem-04042215593D

 29 29  0     1  0  0  0  0  0999 V2000
   -2.4392   -4.4446    0.4371 H   0  0  0  0  0  0  0  0  0  0  0  0
   -2.6257   -3.4213    0.0989 C   0  0  0  0  0  0  0  0  0  0  0  0
   -3.2072   -2.9000    0.8629 H   0  0  0  0  0  0  0  0  0  0  0  0
   -3.2008   -3.4569   -0.8293 H   0  0  0  0  0  0  0  0  0  0  0  0
   -1.3103   -2.7021   -0.1336 C   0  0  0  0  0  0  0  0  0  0  0  0
   -0.2596   -3.2982    0.0198 O   0  0  0  0  0  0  0  0  0  0  0  0
   -1.3163   -1.3824   -0.5383 N   0  0  0  0  0  0  0  0  0  0  0  0
   -2.2190   -0.9192   -0.5236 H   0  0  0  0  0  0  0  0  0  0  0  0
   -0.1143   -0.5307   -0.5180 C   0  0  1  0  0  0  0  0  0  0  0  0
    0.6468   -1.0432   -1.1176 H   0  0  0  0  0  0  0  0  0  0  0  0
   -0.4357    0.7790   -1.2596 C   0  0  0  0  0  0  0  0  0  0  0  0
    0.4578    1.4110   -1.2580 H   0  0  0  0  0  0  0  0  0  0  0  0
   -0.6693    0.5464   -2.3025 H   0  0  0  0  0  0  0  0  0  0  0  0
   -1.5717    1.5640   -0.6568 C   0  0  0  0  0  0  0  0  0  0  0  0
   -1.6333    2.0780    0.6320 N   0  0  0  0  0  0  0  0  0  0  0  0
   -2.7650    2.7343    0.7303 C   0  0  0  0  0  0  0  0  0  0  0  0
   -3.1028    3.2652    1.6161 H   0  0  0  0  0  0  0  0  0  0  0  0
   -3.4618    2.6421   -0.4581 N   0  0  0  0  0  0  0  0  0  0  0  0
   -4.3581    3.0876   -0.6497 H   0  0  0  0  0  0  0  0  0  0  0  0
   -2.7048    1.9043   -1.3434 C   0  0  0  0  0  0  0  0  0  0  0  0
   -2.9334    1.6597   -2.3770 H   0  0  0  0  0  0  0  0  0  0  0  0
    0.5475   -0.3244    0.8676 C   0  0  0  0  0  0  0  0  0  0  0  0
    1.7684   -0.3582    0.9626 O   0  0  0  0  0  0  0  0  0  0  0  0
   -0.2110   -0.0399    1.9885 N   0  0  0  0  0  0  0  0  0  0  0  0
   -1.1089    0.3917    1.7743 H   0  0  0  0  0  0  0  0  0  0  0  0
    0.4006    0.2959    3.2676 C   0  0  0  0  0  0  0  0  0  0  0  0
    0.9677    1.2290    3.1865 H   0  0  0  0  0  0  0  0  0  0  0  0
   -0.3711    0.4217    4.0326 H   0  0  0  0  0  0  0  0  0  0  0  0
    1.0774   -0.5022    3.5914 H   0  0  0  0  0  0  0  0  0  0  0  0
  1  2  1  0  0  0  0
  2  3  1  0  0  0  0
  2  4  1  0  0  0  0
  2  5  1  0  0  0  0
  5  6  2  0  0  0  0
  5  7  1  0  0  0  0
  7  8  1  0  0  0  0
  7  9  1  0  0  0  0
  9 10  1  0  0  0  0
  9 11  1  0  0  0  0
  9 22  1  0  0  0  0
 11 12  1  0  0  0  0
 11 13  1  0  0  0  0
 11 14  1  0  0  0  0
 14 15  1  0  0  0  0
 14 20  2  0  0  0  0
 15 16  2  0  0  0  0
 16 17  1  0  0  0  0
 16 18  1  0  0  0  0
 18 19  1  0  0  0  0
 18 20  1  0  0  0  0
 20 21  1  0  0  0  0
 22 23  2  0  0  0  0
 22 24  1  0  0  0  0
 24 25  1  0  0  0  0
 24 26  1  0  0  0  0
 26 27  1  0  0  0  0
 26 28  1  0  0  0  0
 26 29  1  0  0  0  0
M  END
$$$$

  -OEChem-04042215593D

 29 29  0     1  0  0  0  0  0999 V2000
   -2.4402   -4.4435    0.4601 H   0  0  0  0  0  0  0  0  0  0  0  0
   -2.6225   -3.4278    0.0976 C   0  0  0  0  0  0  0  0  0  0  0  0
   -3.2200   -2.8926    0.8393 H   0  0  0  0  0  0  0  0  0  0  0  0
   -3.1792   -3.4839   -0.8407 H   0  0  0  0  0  0  0  0  0  0  0  0
   -1.3044   -2.7099   -0.1228 C   0  0  0  0  0  0  0  0  0  0  0  0
   -0.2561   -3.2987    0.0685 O   0  0  0  0  0  0  0  0  0  0  0  0
   -1.3050   -1.3986   -0.5546 N   0  0  0  0  0  0  0  0  0  0  0  0
   -2.2096   -0.9400   -0.5806 H   0  0  0  0  0  0  0  0  0  0  0  0
   -0.1030   -0.5453   -0.5381 C   0  0  1  0  0  0  0  0  0  0  0  0
    0.6653   -1.0577   -1.1285 H   0  0  0  0  0  0  0  0  0  0  0  0
   -0.4278    0.7661   -1.2744 C   0  0  0  0  0  0  0  0  0  0  0  0
    0.4618    1.4037   -1.2847 H   0  0  0  0  0  0  0  0  0  0  0  0
   -0.6776    0.5359   -2.3140 H   0  0  0  0  0  0  0  0  0  0  0  0
   -1.5614    1.5309   -0.6463 C   0  0  0  0  0  0  0  0  0  0  0  0
   -1.4924    2.2653    0.5291 N   0  0  0  0  0  0  0  0  0  0  0  0
   -2.6613    2.8379    0.6916 C   0  0  0  0  0  0  0  0  0  0  0  0
   -2.9243    3.4939    1.5170 H   0  0  0  0  0  0  0  0  0  0  0  0
   -3.5041    2.4786   -0.3425 N   0  0  0  0  0  0  0  0  0  0  0  0
   -4.4568    2.8183   -0.4672 H   0  0  0  0  0  0  0  0  0  0  0  0
   -2.8049    1.6573   -1.2019 C   0  0  0  0  0  0  0  0  0  0  0  0
   -3.1436    1.2247   -2.1394 H   0  0  0  0  0  0  0  0  0  0  0  0
    0.5372   -0.3145    0.8536 C   0  0  0  0  0  0  0  0  0  0  0  0
    1.7557   -0.3549    0.9715 O   0  0  0  0  0  0  0  0  0  0  0  0
   -0.2421   -0.0095    1.9557 N   0  0  0  0  0  0  0  0  0  0  0  0
   -1.1400    0.4094    1.7242 H   0  0  0  0  0  0  0  0  0  0  0  0
    0.3485    0.3473    3.2390 C   0  0  0  0  0  0  0  0  0  0  0  0
    0.9373    1.2660    3.1470 H   0  0  0  0  0  0  0  0  0  0  0  0
   -0.4365    0.5091    3.9835 H   0  0  0  0  0  0  0  0  0  0  0  0
    1.0013   -0.4559    3.5969 H   0  0  0  0  0  0  0  0  0  0  0  0
  1  2  1  0  0  0  0
  2  3  1  0  0  0  0
  2  4  1  0  0  0  0
  2  5  1  0  0  0  0
  5  6  2  0  0  0  0
  5  7  1  0  0  0  0
  7  8  1  0  0  0  0
  7  9  1  0  0  0  0
  9 10  1  0  0  0  0
  9 11  1  0  0  0  0
  9 22  1  0  0  0  0
 11 12  1  0  0  0  0
 11 13  1  0  0  0  0
 11 14  1  0  0  0  0
 14 15  1  0  0  0  0
 14 20  2  0  0  0  0
 15 16  2  0  0  0  0
 16 17  1  0  0  0  0
 16 18  1  0  0  0  0
 18 19  1  0  0  0  0
 18 20  1  0  0  0  0
 20 21  1  0  0  0  0
 22 23  2  0  0  0  0
 22 24  1  0  0  0  0
 24 25  1  0  0  0  0
 24 26  1  0  0  0  0
 26 27  1  0  0  0  0
 26 28  1  0  0  0  0
 26 29  1  0  0  0  0
M  END
$$$$

  -OEChem-04042215593D

 29 29  0     1  0  0  0  0  0999 V2000
   -2.4288   -4.4646    0.4687 H   0  0  0  0  0  0  0  0  0  0  0  0
   -2.6124   -3.4539    0.0928 C   0  0  0  0  0  0  0  0  0  0  0  0
   -3.2298   -2.9171    0.8170 H   0  0  0  0  0  0  0  0  0  0  0  0
   -3.1493   -3.5239   -0.8561 H   0  0  0  0  0  0  0  0  0  0  0  0
   -1.2960   -2.7268   -0.1086 C   0  0  0  0  0  0  0  0  0  0  0  0
   -0.2472   -3.3023    0.1161 O   0  0  0  0  0  0  0  0  0  0  0  0
   -1.2978   -1.4222   -0.5605 N   0  0  0  0  0  0  0  0  0  0  0  0
   -2.2044   -0.9722   -0.6207 H   0  0  0  0  0  0  0  0  0  0  0  0
   -0.0991   -0.5632   -0.5536 C   0  0  1  0  0  0  0  0  0  0  0  0
    0.6728   -1.0725   -1.1415 H   0  0  0  0  0  0  0  0  0  0  0  0
   -0.4259    0.7541   -1.2780 C   0  0  0  0  0  0  0  0  0  0  0  0
    0.4632    1.3926   -1.2990 H   0  0  0  0  0  0  0  0  0  0  0  0
   -0.6941    0.5313   -2.3147 H   0  0  0  0  0  0  0  0  0  0  0  0
   -1.5519    1.5065   -0.6248 C   0  0  0  0  0  0  0  0  0  0  0  0
   -1.3980    2.4488    0.3805 N   0  0  0  0  0  0  0  0  0  0  0  0
   -2.5848    2.9532    0.6172 C   0  0  0  0  0  0  0  0  0  0  0  0
   -2.7976    3.7269    1.3498 H   0  0  0  0  0  0  0  0  0  0  0  0
   -3.5187    2.3540   -0.2068 N   0  0  0  0  0  0  0  0  0  0  0  0
   -4.5062    2.6025   -0.2493 H   0  0  0  0  0  0  0  0  0  0  0  0
   -2.8628    1.4471   -1.0133 C   0  0  0  0  0  0  0  0  0  0  0  0
   -3.2768    0.8439   -1.8164 H   0  0  0  0  0  0  0  0  0  0  0  0
    0.5286   -0.3132    0.8402 C   0  0  0  0  0  0  0  0  0  0  0  0
    1.7463   -0.3323    0.9682 O   0  0  0  0  0  0  0  0  0  0  0  0
   -0.2650    0.0022    1.9299 N   0  0  0  0  0  0  0  0  0  0  0  0
   -1.1887    0.3541    1.6969 H   0  0  0  0  0  0  0  0  0  0  0  0
    0.3031    0.3968    3.2122 C   0  0  0  0  0  0  0  0  0  0  0  0
    0.8667    1.3300    3.1099 H   0  0  0  0  0  0  0  0  0  0  0  0
   -0.4932    0.5489    3.9467 H   0  0  0  0  0  0  0  0  0  0  0  0
    0.9745   -0.3818    3.5895 H   0  0  0  0  0  0  0  0  0  0  0  0
  1  2  1  0  0  0  0
  2  3  1  0  0  0  0
  2  4  1  0  0  0  0
  2  5  1  0  0  0  0
  5  6  2  0  0  0  0
  5  7  1  0  0  0  0
  7  8  1  0  0  0  0
  7  9  1  0  0  0  0
  9 10  1  0  0  0  0
  9 11  1  0  0  0  0
  9 22  1  0  0  0  0
 11 12  1  0  0  0  0
 11 13  1  0  0  0  0
 11 14  1  0  0  0  0
 14 15  1  0  0  0  0
 14 20  2  0  0  0  0
 15 16  2  0  0  0  0
 16 17  1  0  0  0  0
 16 18  1  0  0  0  0
 18 19  1  0  0  0  0
 18 20  1  0  0  0  0
 20 21  1  0  0  0  0
 22 23  2  0  0  0  0
 22 24  1  0  0  0  0
 24 25  1  0  0  0  0
 24 26  1  0  0  0  0
 26 27  1  0  0  0  0
 26 28  1  0  0  0  0
 26 29  1  0  0  0  0
M  END
$$$$

  -OEChem-04042215593D

 29 29  0     1  0  0  0  0  0999 V2000
   -2.3918   -4.5194    0.4551 H   0  0  0  0  0  0  0  0  0  0  0  0
   -2.5879   -3.5114    0.0781 C   0  0  0  0  0  0  0  0  0  0  0  0
   -3.2338   -2.9908    0.7891 H   0  0  0  0  0  0  0  0  0  0  0  0
   -3.1004   -3.5900   -0.8837 H   0  0  0  0  0  0  0  0  0  0  0  0
   -1.2826   -2.7561   -0.0893 C   0  0  0  0  0  0  0  0  0  0  0  0
   -0.2284   -3.3074    0.1670 O   0  0  0  0  0  0  0  0  0  0  0  0
   -1.2988   -1.4523   -0.5438 N   0  0  0  0  0  0  0  0  0  0  0  0
   -2.2102   -1.0227   -0.6485 H   0  0  0  0  0  0  0  0  0  0  0  0
   -0.1108   -0.5787   -0.5531 C   0  0  1  0  0  0  0  0  0  0  0  0
    0.6606   -1.0817   -1.1475 H   0  0  0  0  0  0  0  0  0  0  0  0
   -0.4393    0.7479   -1.2620 C   0  0  0  0  0  0  0  0  0  0  0  0
    0.4546    1.3795   -1.2908 H   0  0  0  0  0  0  0  0  0  0  0  0
   -0.7215    0.5348   -2.2968 H   0  0  0  0  0  0  0  0  0  0  0  0
   -1.5539    1.5091   -0.5993 C   0  0  0  0  0  0  0  0  0  0  0  0
   -1.3628    2.6384    0.1810 N   0  0  0  0  0  0  0  0  0  0  0  0
   -2.5507    3.0988    0.4884 C   0  0  0  0  0  0  0  0  0  0  0  0
   -2.7386    3.9820    1.0927 H   0  0  0  0  0  0  0  0  0  0  0  0
   -3.5225    2.2971   -0.0801 N   0  0  0  0  0  0  0  0  0  0  0  0
   -4.5252    2.4728   -0.0335 H   0  0  0  0  0  0  0  0  0  0  0  0
   -2.8932    1.3010   -0.7975 C   0  0  0  0  0  0  0  0  0  0  0  0
   -3.3504    0.5463   -1.4300 H   0  0  0  0  0  0  0  0  0  0  0  0
    0.5230   -0.3219    0.8362 C   0  0  0  0  0  0  0  0  0  0  0  0
    1.7415   -0.2856    0.9497 O   0  0  0  0  0  0  0  0  0  0  0  0
   -0.2693   -0.0168    1.9301 N   0  0  0  0  0  0  0  0  0  0  0  0
   -1.2388    0.2025    1.7293 H   0  0  0  0  0  0  0  0  0  0  0  0
    0.2888    0.4260    3.2010 C   0  0  0  0  0  0  0  0  0  0  0  0
    0.8129    1.3794    3.0762 H   0  0  0  0  0  0  0  0  0  0  0  0
   -0.5089    0.5599    3.9377 H   0  0  0  0  0  0  0  0  0  0  0  0
    0.9941   -0.3164    3.5895 H   0  0  0  0  0  0  0  0  0  0  0  0
  1  2  1  0  0  0  0
  2  3  1  0  0  0  0
  2  4  1  0  0  0  0
  2  5  1  0  0  0  0
  5  6  2  0  0  0  0
  5  7  1  0  0  0  0
  7  8  1  0  0  0  0
  7  9  1  0  0  0  0
  9 10  1  0  0  0  0
  9 11  1  0  0  0  0
  9 22  1  0  0  0  0
 11 12  1  0  0  0  0
 11 13  1  0  0  0  0
 11 14  1  0  0  0  0
 14 15  1  0  0  0  0
 14 20  2  0  0  0  0
 15 16  2  0  0  0  0
 16 17  1  0  0  0  0
 16 18  1  0  0  0  0
 18 19  1  0  0  0  0
 18 20  1  0  0  0  0
 20 21  1  0  0  0  0
 22 23  2  0  0  0  0
 22 24  1  0  0  0  0
 24 25  1  0  0  0  0
 24 26  1  0  0  0  0
 26 27  1  0  0  0  0
 26 28  1  0  0  0  0
 26 29  1  0  0  0  0
M  END
$$$$

  -OEChem-04042215593D

 29 29  0     1  0  0  0  0  0999 V2000
   -2.3647   -4.6244    0.3611 H   0  0  0  0  0  0  0  0  0  0  0  0
   -2.5525   -3.6414   -0.0807 C   0  0  0  0  0  0  0  0  0  0  0  0
   -3.3893   -3.1748    0.4444 H   0  0  0  0  0  0  0  0  0  0  0  0
   -2.8163   -3.7743   -1.1326 H   0  0  0  0  0  0  0  0  0  0  0  0
   -1.3151   -2.7719    0.0394 C   0  0  0  0  0  0  0  0  0  0  0  0
   -0.3162   -3.2161    0.5729 O   0  0  0  0  0  0  0  0  0  0  0  0
   -1.3323   -1.4885   -0.4709 N   0  0  0  0  0  0  0  0  0  0  0  0
   -2.1335   -1.2473   -1.0419 H   0  0  0  0  0  0  0  0  0  0  0  0
   -0.1466   -0.6135   -0.5390 C   0  0  1  0  0  0  0  0  0  0  0  0
    0.6159   -1.1301   -1.1328 H   0  0  0  0  0  0  0  0  0  0  0  0
   -0.4911    0.7067   -1.2582 C   0  0  0  0  0  0  0  0  0  0  0  0
    0.4141    1.3199   -1.3219 H   0  0  0  0  0  0  0  0  0  0  0  0
   -0.8013    0.4837   -2.2825 H   0  0  0  0  0  0  0  0  0  0  0  0
   -1.5747    1.5228   -0.5995 C   0  0  0  0  0  0  0  0  0  0  0  0
   -1.3446    2.8126   -0.1448 N   0  0  0  0  0  0  0  0  0  0  0  0
   -2.4757    3.2594    0.3414 C   0  0  0  0  0  0  0  0  0  0  0  0
   -2.6196    4.2442    0.7770 H   0  0  0  0  0  0  0  0  0  0  0  0
   -3.4532    2.2923    0.2088 N   0  0  0  0  0  0  0  0  0  0  0  0
   -4.4263    2.4033    0.4893 H   0  0  0  0  0  0  0  0  0  0  0  0
   -2.8903    1.1903   -0.4016 C   0  0  0  0  0  0  0  0  0  0  0  0
   -3.3863    0.2678   -0.6803 H   0  0  0  0  0  0  0  0  0  0  0  0
    0.5046   -0.2992    0.8306 C   0  0  0  0  0  0  0  0  0  0  0  0
    1.7225   -0.2031    0.9136 O   0  0  0  0  0  0  0  0  0  0  0  0
   -0.2775    0.0475    1.9189 N   0  0  0  0  0  0  0  0  0  0  0  0
   -1.2789    0.0963    1.7663 H   0  0  0  0  0  0  0  0  0  0  0  0
    0.2725    0.5330    3.1769 C   0  0  0  0  0  0  0  0  0  0  0  0
    0.8117    1.4730    3.0201 H   0  0  0  0  0  0  0  0  0  0  0  0
   -0.5314    0.7091    3.8977 H   0  0  0  0  0  0  0  0  0  0  0  0
    0.9619   -0.2041    3.6020 H   0  0  0  0  0  0  0  0  0  0  0  0
  1  2  1  0  0  0  0
  2  3  1  0  0  0  0
  2  4  1  0  0  0  0
  2  5  1  0  0  0  0
  5  6  2  0  0  0  0
  5  7  1  0  0  0  0
  7  8  1  0  0  0  0
  7  9  1  0  0  0  0
  9 10  1  0  0  0  0
  9 11  1  0  0  0  0
  9 22  1  0  0  0  0
 11 12  1  0  0  0  0
 11 13  1  0  0  0  0
 11 14  1  0  0  0  0
 14 15  1  0  0  0  0
 14 20  2  0  0  0  0
 15 16  2  0  0  0  0
 16 17  1  0  0  0  0
 16 18  1  0  0  0  0
 18 19  1  0  0  0  0
 18 20  1  0  0  0  0
 20 21  1  0  0  0  0
 22 23  2  0  0  0  0
 22 24  1  0  0  0  0
 24 25  1  0  0  0  0
 24 26  1  0  0  0  0
 26 27  1  0  0  0  0
 26 28  1  0  0  0  0
 26 29  1  0  0  0  0
M  END
$$$$

  -OEChem-04042215593D

 29 29  0     1  0  0  0  0  0999 V2000
   -2.3128   -4.6637    0.3497 H   0  0  0  0  0  0  0  0  0  0  0  0
   -2.5072   -3.6937   -0.1172 C   0  0  0  0  0  0  0  0  0  0  0  0
   -3.3839   -3.2458    0.3562 H   0  0  0  0  0  0  0  0  0  0  0  0
   -2.7127   -3.8506   -1.1787 H   0  0  0  0  0  0  0  0  0  0  0  0
   -1.3043   -2.7847    0.0513 C   0  0  0  0  0  0  0  0  0  0  0  0
   -0.3170   -3.1936    0.6324 O   0  0  0  0  0  0  0  0  0  0  0  0
   -1.3427   -1.5028   -0.4623 N   0  0  0  0  0  0  0  0  0  0  0  0
   -2.1211   -1.3005   -1.0807 H   0  0  0  0  0  0  0  0  0  0  0  0
   -0.1673   -0.6141   -0.5375 C   0  0  1  0  0  0  0  0  0  0  0  0
    0.5978   -1.1234   -1.1342 H   0  0  0  0  0  0  0  0  0  0  0  0
   -0.5314    0.7002   -1.2591 C   0  0  0  0  0  0  0  0  0  0  0  0
    0.3734    1.3150   -1.3165 H   0  0  0  0  0  0  0  0  0  0  0  0
   -0.8300    0.4754   -2.2864 H   0  0  0  0  0  0  0  0  0  0  0  0
   -1.6197    1.5344   -0.6245 C   0  0  0  0  0  0  0  0  0  0  0  0
   -1.4703    2.9073   -0.4892 N   0  0  0  0  0  0  0  0  0  0  0  0
   -2.5387    3.3579    0.1196 C   0  0  0  0  0  0  0  0  0  0  0  0
   -2.7186    4.3992    0.3715 H   0  0  0  0  0  0  0  0  0  0  0  0
   -3.3962    2.3096    0.3893 N   0  0  0  0  0  0  0  0  0  0  0  0
   -4.2970    2.3970    0.8567 H   0  0  0  0  0  0  0  0  0  0  0  0
   -2.8181    1.1475   -0.0777 C   0  0  0  0  0  0  0  0  0  0  0  0
   -3.2262    0.1454   -0.0158 H   0  0  0  0  0  0  0  0  0  0  0  0
    0.4914   -0.2858    0.8255 C   0  0  0  0  0  0  0  0  0  0  0  0
    1.7076   -0.1631    0.8940 O   0  0  0  0  0  0  0  0  0  0  0  0
   -0.2822    0.0566    1.9208 N   0  0  0  0  0  0  0  0  0  0  0  0
   -1.2888    0.0237    1.8042 H   0  0  0  0  0  0  0  0  0  0  0  0
    0.2749    0.5046    3.1898 C   0  0  0  0  0  0  0  0  0  0  0  0
    0.8369    1.4346    3.0535 H   0  0  0  0  0  0  0  0  0  0  0  0
   -0.5266    0.6864    3.9118 H   0  0  0  0  0  0  0  0  0  0  0  0
    0.9457   -0.2564    3.6023 H   0  0  0  0  0  0  0  0  0  0  0  0
  1  2  1  0  0  0  0
  2  3  1  0  0  0  0
  2  4  1  0  0  0  0
  2  5  1  0  0  0  0
  5  6  2  0  0  0  0
  5  7  1  0  0  0  0
  7  8  1  0  0  0  0
  7  9  1  0  0  0  0
  9 10  1  0  0  0  0
  9 11  1  0  0  0  0
  9 22  1  0  0  0  0
 11 12  1  0  0  0  0
 11 13  1  0  0  0  0
 11 14  1  0  0  0  0
 14 15  1  0  0  0  0
 14 20  2  0  0  0  0
 15 16  2  0  0  0  0
 16 17  1  0  0  0  0
 16 18  1  0  0  0  0
 18 19  1  0  0  0  0
 18 20  1  0  0  0  0
 20 21  1  0  0  0  0
 22 23  2  0  0  0  0
 22 24  1  0  0  0  0
 24 25  1  0  0  0  0
 24 26  1  0  0  0  0
 26 27  1  0  0  0  0
 26 28  1  0  0  0  0
 26 29  1  0  0  0  0
M  END
$$$$

  -OEChem-04042215593D

 29 29  0     1  0  0  0  0  0999 V2000
   -2.2687   -4.6922    0.3105 H   0  0  0  0  0  0  0  0  0  0  0  0
   -2.4846   -3.7127   -0.1261 C   0  0  0  0  0  0  0  0  0  0  0  0
   -3.3645   -3.2942    0.3680 H   0  0  0  0  0  0  0  0  0  0  0  0
   -2.6975   -3.8425   -1.1899 H   0  0  0  0  0  0  0  0  0  0  0  0
   -1.2960   -2.7878    0.0568 C   0  0  0  0  0  0  0  0  0  0  0  0
   -0.3046   -3.1858    0.6386 O   0  0  0  0  0  0  0  0  0  0  0  0
   -1.3539   -1.4981   -0.4341 N   0  0  0  0  0  0  0  0  0  0  0  0
   -2.1461   -1.2899   -1.0342 H   0  0  0  0  0  0  0  0  0  0  0  0
   -0.1876   -0.5973   -0.5142 C   0  0  1  0  0  0  0  0  0  0  0  0
    0.5705   -1.1012   -1.1244 H   0  0  0  0  0  0  0  0  0  0  0  0
   -0.5672    0.7096   -1.2405 C   0  0  0  0  0  0  0  0  0  0  0  0
    0.3325    1.3316   -1.2980 H   0  0  0  0  0  0  0  0  0  0  0  0
   -0.8591    0.4765   -2.2678 H   0  0  0  0  0  0  0  0  0  0  0  0
   -1.6626    1.5482   -0.6241 C   0  0  0  0  0  0  0  0  0  0  0  0
   -1.6616    2.9267   -0.7856 N   0  0  0  0  0  0  0  0  0  0  0  0
   -2.6867    3.3974   -0.1198 C   0  0  0  0  0  0  0  0  0  0  0  0
   -2.9546    4.4482   -0.0511 H   0  0  0  0  0  0  0  0  0  0  0  0
   -3.3713    2.3574    0.4771 N   0  0  0  0  0  0  0  0  0  0  0  0
   -4.2014    2.4614    1.0581 H   0  0  0  0  0  0  0  0  0  0  0  0
   -2.7239    1.1800    0.1660 C   0  0  0  0  0  0  0  0  0  0  0  0
   -2.9927    0.1816    0.4906 H   0  0  0  0  0  0  0  0  0  0  0  0
    0.5027   -0.2764    0.8348 C   0  0  0  0  0  0  0  0  0  0  0  0
    1.7167   -0.1222    0.8656 O   0  0  0  0  0  0  0  0  0  0  0  0
   -0.2407    0.0462    1.9564 N   0  0  0  0  0  0  0  0  0  0  0  0
   -1.2418   -0.0995    1.9026 H   0  0  0  0  0  0  0  0  0  0  0  0
    0.3546    0.4268    3.2302 C   0  0  0  0  0  0  0  0  0  0  0  0
    0.9631    1.3298    3.1137 H   0  0  0  0  0  0  0  0  0  0  0  0
   -0.4280    0.6308    3.9670 H   0  0  0  0  0  0  0  0  0  0  0  0
    0.9892   -0.3801    3.6116 H   0  0  0  0  0  0  0  0  0  0  0  0
  1  2  1  0  0  0  0
  2  3  1  0  0  0  0
  2  4  1  0  0  0  0
  2  5  1  0  0  0  0
  5  6  2  0  0  0  0
  5  7  1  0  0  0  0
  7  8  1  0  0  0  0
  7  9  1  0  0  0  0
  9 10  1  0  0  0  0
  9 11  1  0  0  0  0
  9 22  1  0  0  0  0
 11 12  1  0  0  0  0
 11 13  1  0  0  0  0
 11 14  1  0  0  0  0
 14 15  1  0  0  0  0
 14 20  2  0  0  0  0
 15 16  2  0  0  0  0
 16 17  1  0  0  0  0
 16 18  1  0  0  0  0
 18 19  1  0  0  0  0
 18 20  1  0  0  0  0
 20 21  1  0  0  0  0
 22 23  2  0  0  0  0
 22 24  1  0  0  0  0
 24 25  1  0  0  0  0
 24 26  1  0  0  0  0
 26 27  1  0  0  0  0
 26 28  1  0  0  0  0
 26 29  1  0  0  0  0
M  END
$$$$

  -OEChem-04042215593D

 29 29  0     1  0  0  0  0  0999 V2000
   -2.2615   -4.6924    0.2785 H   0  0  0  0  0  0  0  0  0  0  0  0
   -2.4918   -3.6997   -0.1196 C   0  0  0  0  0  0  0  0  0  0  0  0
   -3.3577   -3.2998    0.4133 H   0  0  0  0  0  0  0  0  0  0  0  0
   -2.7357   -3.7958   -1.1804 H   0  0  0  0  0  0  0  0  0  0  0  0
   -1.3000   -2.7778    0.0586 C   0  0  0  0  0  0  0  0  0  0  0  0
   -0.3027   -3.1812    0.6270 O   0  0  0  0  0  0  0  0  0  0  0  0
   -1.3654   -1.4771   -0.3999 N   0  0  0  0  0  0  0  0  0  0  0  0
   -2.1743   -1.2472   -0.9701 H   0  0  0  0  0  0  0  0  0  0  0  0
   -0.2005   -0.5744   -0.4793 C   0  0  1  0  0  0  0  0  0  0  0  0
    0.5459   -1.0800   -1.1027 H   0  0  0  0  0  0  0  0  0  0  0  0
   -0.5806    0.7276   -1.2130 C   0  0  0  0  0  0  0  0  0  0  0  0
    0.3163    1.3529   -1.2738 H   0  0  0  0  0  0  0  0  0  0  0  0
   -0.8701    0.4844   -2.2390 H   0  0  0  0  0  0  0  0  0  0  0  0
   -1.6807    1.5681   -0.6110 C   0  0  0  0  0  0  0  0  0  0  0  0
   -1.8652    2.8801   -1.0249 N   0  0  0  0  0  0  0  0  0  0  0  0
   -2.8659    3.3674   -0.3336 C   0  0  0  0  0  0  0  0  0  0  0  0
   -3.2496    4.3798   -0.4234 H   0  0  0  0  0  0  0  0  0  0  0  0
   -3.3580    2.4001    0.5201 N   0  0  0  0  0  0  0  0  0  0  0  0
   -4.1288    2.5327    1.1726 H   0  0  0  0  0  0  0  0  0  0  0  0
   -2.6108    1.2541    0.3477 C   0  0  0  0  0  0  0  0  0  0  0  0
   -2.7286    0.3093    0.8650 H   0  0  0  0  0  0  0  0  0  0  0  0
    0.5265   -0.2747    0.8557 C   0  0  0  0  0  0  0  0  0  0  0  0
    1.7364   -0.0885    0.8441 O   0  0  0  0  0  0  0  0  0  0  0  0
   -0.1796    0.0273    2.0068 N   0  0  0  0  0  0  0  0  0  0  0  0
   -1.1595   -0.2279    2.0143 H   0  0  0  0  0  0  0  0  0  0  0  0
    0.4674    0.3558    3.2702 C   0  0  0  0  0  0  0  0  0  0  0  0
    1.0972    1.2447    3.1582 H   0  0  0  0  0  0  0  0  0  0  0  0
   -0.2845    0.5616    4.0378 H   0  0  0  0  0  0  0  0  0  0  0  0
    1.0909   -0.4785    3.6085 H   0  0  0  0  0  0  0  0  0  0  0  0
  1  2  1  0  0  0  0
  2  3  1  0  0  0  0
  2  4  1  0  0  0  0
  2  5  1  0  0  0  0
  5  6  2  0  0  0  0
  5  7  1  0  0  0  0
  7  8  1  0  0  0  0
  7  9  1  0  0  0  0
  9 10  1  0  0  0  0
  9 11  1  0  0  0  0
  9 22  1  0  0  0  0
 11 12  1  0  0  0  0
 11 13  1  0  0  0  0
 11 14  1  0  0  0  0
 14 15  1  0  0  0  0
 14 20  2  0  0  0  0
 15 16  2  0  0  0  0
 16 17  1  0  0  0  0
 16 18  1  0  0  0  0
 18 19  1  0  0  0  0
 18 20  1  0  0  0  0
 20 21  1  0  0  0  0
 22 23  2  0  0  0  0
 22 24  1  0  0  0  0
 24 25  1  0  0  0  0
 24 26  1  0  0  0  0
 26 27  1  0  0  0  0
 26 28  1  0  0  0  0
 26 29  1  0  0  0  0
M  END
$$$$

  -OEChem-04042215593D

 29 29  0     1  0  0  0  0  0999 V2000
   -2.3914   -4.6275    0.1025 H   0  0  0  0  0  0  0  0  0  0  0  0
   -2.5992   -3.5979   -0.2029 C   0  0  0  0  0  0  0  0  0  0  0  0
   -3.4326   -3.2159    0.3914 H   0  0  0  0  0  0  0  0  0  0  0  0
   -2.8806   -3.5958   -1.2587 H   0  0  0  0  0  0  0  0  0  0  0  0
   -1.3705   -2.7336    0.0084 C   0  0  0  0  0  0  0  0  0  0  0  0
   -0.3630   -3.2164    0.4918 O   0  0  0  0  0  0  0  0  0  0  0  0
   -1.4118   -1.3921   -0.3134 N   0  0  0  0  0  0  0  0  0  0  0  0
   -2.2521   -1.0680   -0.7838 H   0  0  0  0  0  0  0  0  0  0  0  0
   -0.2265   -0.5174   -0.3549 C   0  0  1  0  0  0  0  0  0  0  0  0
    0.4765   -1.0455   -1.0099 H   0  0  0  0  0  0  0  0  0  0  0  0
   -0.5406    0.7862   -1.1162 C   0  0  0  0  0  0  0  0  0  0  0  0
    0.4158    1.2596   -1.3599 H   0  0  0  0  0  0  0  0  0  0  0  0
   -1.0219    0.5330   -2.0651 H   0  0  0  0  0  0  0  0  0  0  0  0
   -1.3804    1.8377   -0.4377 C   0  0  0  0  0  0  0  0  0  0  0  0
   -1.6705    3.0183   -1.1094 N   0  0  0  0  0  0  0  0  0  0  0  0
   -2.4472    3.7282   -0.3285 C   0  0  0  0  0  0  0  0  0  0  0  0
   -2.8363    4.7140   -0.5676 H   0  0  0  0  0  0  0  0  0  0  0  0
   -2.7035    3.0281    0.8329 N   0  0  0  0  0  0  0  0  0  0  0  0
   -3.2779    3.3623    1.6046 H   0  0  0  0  0  0  0  0  0  0  0  0
   -2.0472    1.8179    0.7589 C   0  0  0  0  0  0  0  0  0  0  0  0
   -2.0703    1.0194    1.4879 H   0  0  0  0  0  0  0  0  0  0  0  0
    0.5875   -0.3527    0.9534 C   0  0  0  0  0  0  0  0  0  0  0  0
    1.7899   -0.1376    0.8720 O   0  0  0  0  0  0  0  0  0  0  0  0
   -0.0341   -0.1430    2.1714 N   0  0  0  0  0  0  0  0  0  0  0  0
   -0.9739   -0.5169    2.2438 H   0  0  0  0  0  0  0  0  0  0  0  0
    0.7136    0.0717    3.4044 C   0  0  0  0  0  0  0  0  0  0  0  0
    1.3499    0.9588    3.3181 H   0  0  0  0  0  0  0  0  0  0  0  0
    0.0259    0.2232    4.2415 H   0  0  0  0  0  0  0  0  0  0  0  0
    1.3455   -0.7950    3.6249 H   0  0  0  0  0  0  0  0  0  0  0  0
  1  2  1  0  0  0  0
  2  3  1  0  0  0  0
  2  4  1  0  0  0  0
  2  5  1  0  0  0  0
  5  6  2  0  0  0  0
  5  7  1  0  0  0  0
  7  8  1  0  0  0  0
  7  9  1  0  0  0  0
  9 10  1  0  0  0  0
  9 11  1  0  0  0  0
  9 22  1  0  0  0  0
 11 12  1  0  0  0  0
 11 13  1  0  0  0  0
 11 14  1  0  0  0  0
 14 15  1  0  0  0  0
 14 20  2  0  0  0  0
 15 16  2  0  0  0  0
 16 17  1  0  0  0  0
 16 18  1  0  0  0  0
 18 19  1  0  0  0  0
 18 20  1  0  0  0  0
 20 21  1  0  0  0  0
 22 23  2  0  0  0  0
 22 24  1  0  0  0  0
 24 25  1  0  0  0  0
 24 26  1  0  0  0  0
 26 27  1  0  0  0  0
 26 28  1  0  0  0  0
 26 29  1  0  0  0  0
M  END
$$$$

  -OEChem-04042215593D

 29 29  0     1  0  0  0  0  0999 V2000
   -2.3413   -4.6397    0.1082 H   0  0  0  0  0  0  0  0  0  0  0  0
   -2.5697   -3.6063   -0.1682 C   0  0  0  0  0  0  0  0  0  0  0  0
   -3.3819   -3.2438    0.4664 H   0  0  0  0  0  0  0  0  0  0  0  0
   -2.8940   -3.5863   -1.2115 H   0  0  0  0  0  0  0  0  0  0  0  0
   -1.3405   -2.7349    0.0094 C   0  0  0  0  0  0  0  0  0  0  0  0
   -0.3062   -3.2209    0.4293 O   0  0  0  0  0  0  0  0  0  0  0  0
   -1.4082   -1.3859   -0.2746 N   0  0  0  0  0  0  0  0  0  0  0  0
   -2.2775   -1.0520   -0.6813 H   0  0  0  0  0  0  0  0  0  0  0  0
   -0.2388   -0.4915   -0.3343 C   0  0  1  0  0  0  0  0  0  0  0  0
    0.4538   -1.0066   -1.0103 H   0  0  0  0  0  0  0  0  0  0  0  0
   -0.5830    0.8046   -1.0970 C   0  0  0  0  0  0  0  0  0  0  0  0
    0.3609    1.2853   -1.3717 H   0  0  0  0  0  0  0  0  0  0  0  0
   -1.0781    0.5233   -2.0311 H   0  0  0  0  0  0  0  0  0  0  0  0
   -1.4295    1.8662   -0.4399 C   0  0  0  0  0  0  0  0  0  0  0  0
   -1.9803    2.8583   -1.2427 N   0  0  0  0  0  0  0  0  0  0  0  0
   -2.6794    3.6476   -0.4654 C   0  0  0  0  0  0  0  0  0  0  0  0
   -3.2238    4.5270   -0.7975 H   0  0  0  0  0  0  0  0  0  0  0  0
   -2.6228    3.1868    0.8333 N   0  0  0  0  0  0  0  0  0  0  0  0
   -3.0685    3.6315    1.6339 H   0  0  0  0  0  0  0  0  0  0  0  0
   -1.8401    2.0518    0.8544 C   0  0  0  0  0  0  0  0  0  0  0  0
   -1.6021    1.4547    1.7222 H   0  0  0  0  0  0  0  0  0  0  0  0
    0.6088   -0.3569    0.9546 C   0  0  0  0  0  0  0  0  0  0  0  0
    1.8037   -0.1125    0.8494 O   0  0  0  0  0  0  0  0  0  0  0  0
    0.0162   -0.1953    2.1940 N   0  0  0  0  0  0  0  0  0  0  0  0
   -0.9230   -0.5725    2.2717 H   0  0  0  0  0  0  0  0  0  0  0  0
    0.7956   -0.0416    3.4168 C   0  0  0  0  0  0  0  0  0  0  0  0
    1.4156    0.8596    3.3662 H   0  0  0  0  0  0  0  0  0  0  0  0
    0.1304    0.0474    4.2809 H   0  0  0  0  0  0  0  0  0  0  0  0
    1.4468   -0.9095    3.5661 H   0  0  0  0  0  0  0  0  0  0  0  0
  1  2  1  0  0  0  0
  2  3  1  0  0  0  0
  2  4  1  0  0  0  0
  2  5  1  0  0  0  0
  5  6  2  0  0  0  0
  5  7  1  0  0  0  0
  7  8  1  0  0  0  0
  7  9  1  0  0  0  0
  9 10  1  0  0  0  0
  9 11  1  0  0  0  0
  9 22  1  0  0  0  0
 11 12  1  0  0  0  0
 11 13  1  0  0  0  0
 11 14  1  0  0  0  0
 14 15  1  0  0  0  0
 14 20  2  0  0  0  0
 15 16  2  0  0  0  0
 16 17  1  0  0  0  0
 16 18  1  0  0  0  0
 18 19  1  0  0  0  0
 18 20  1  0  0  0  0
 20 21  1  0  0  0  0
 22 23  2  0  0  0  0
 22 24  1  0  0  0  0
 24 25  1  0  0  0  0
 24 26  1  0  0  0  0
 26 27  1  0  0  0  0
 26 28  1  0  0  0  0
 26 29  1  0  0  0  0
M  END
$$$$

  -OEChem-04042215593D

 29 29  0     1  0  0  0  0  0999 V2000
   -2.3050   -4.6395    0.1972 H   0  0  0  0  0  0  0  0  0  0  0  0
   -2.5406   -3.6127   -0.0970 C   0  0  0  0  0  0  0  0  0  0  0  0
   -3.3226   -3.2283    0.5622 H   0  0  0  0  0  0  0  0  0  0  0  0
   -2.9087   -3.6180   -1.1258 H   0  0  0  0  0  0  0  0  0  0  0  0
   -1.3013   -2.7440    0.0050 C   0  0  0  0  0  0  0  0  0  0  0  0
   -0.2474   -3.2298    0.3735 O   0  0  0  0  0  0  0  0  0  0  0  0
   -1.3793   -1.3997   -0.2983 N   0  0  0  0  0  0  0  0  0  0  0  0
   -2.2686   -1.0634   -0.6582 H   0  0  0  0  0  0  0  0  0  0  0  0
   -0.2204   -0.4931   -0.3750 C   0  0  1  0  0  0  0  0  0  0  0  0
    0.4815   -0.9928   -1.0527 H   0  0  0  0  0  0  0  0  0  0  0  0
   -0.6136    0.7963   -1.1283 C   0  0  0  0  0  0  0  0  0  0  0  0
    0.3100    1.2996   -1.4300 H   0  0  0  0  0  0  0  0  0  0  0  0
   -1.1272    0.5019   -2.0485 H   0  0  0  0  0  0  0  0  0  0  0  0
   -1.4655    1.8349   -0.4423 C   0  0  0  0  0  0  0  0  0  0  0  0
   -2.3186    2.6189   -1.2106 N   0  0  0  0  0  0  0  0  0  0  0  0
   -2.8696    3.4974   -0.4094 C   0  0  0  0  0  0  0  0  0  0  0  0
   -3.5833    4.2575   -0.7147 H   0  0  0  0  0  0  0  0  0  0  0  0
   -2.3975    3.3150    0.8736 N   0  0  0  0  0  0  0  0  0  0  0  0
   -2.6277    3.9029    1.6729 H   0  0  0  0  0  0  0  0  0  0  0  0
   -1.4878    2.2793    0.8534 C   0  0  0  0  0  0  0  0  0  0  0  0
   -0.8730    1.9487    1.6798 H   0  0  0  0  0  0  0  0  0  0  0  0
    0.6005   -0.3581    0.9293 C   0  0  0  0  0  0  0  0  0  0  0  0
    1.7965   -0.1085    0.8566 O   0  0  0  0  0  0  0  0  0  0  0  0
   -0.0298   -0.2008    2.1515 N   0  0  0  0  0  0  0  0  0  0  0  0
   -0.9907   -0.5269    2.1899 H   0  0  0  0  0  0  0  0  0  0  0  0
    0.7064   -0.0688    3.4032 C   0  0  0  0  0  0  0  0  0  0  0  0
    1.3823    0.7921    3.3640 H   0  0  0  0  0  0  0  0  0  0  0  0
    0.0121    0.0778    4.2360 H   0  0  0  0  0  0  0  0  0  0  0  0
    1.2963   -0.9712    3.5957 H   0  0  0  0  0  0  0  0  0  0  0  0
  1  2  1  0  0  0  0
  2  3  1  0  0  0  0
  2  4  1  0  0  0  0
  2  5  1  0  0  0  0
  5  6  2  0  0  0  0
  5  7  1  0  0  0  0
  7  8  1  0  0  0  0
  7  9  1  0  0  0  0
  9 10  1  0  0  0  0
  9 11  1  0  0  0  0
  9 22  1  0  0  0  0
 11 12  1  0  0  0  0
 11 13  1  0  0  0  0
 11 14  1  0  0  0  0
 14 15  1  0  0  0  0
 14 20  2  0  0  0  0
 15 16  2  0  0  0  0
 16 17  1  0  0  0  0
 16 18  1  0  0  0  0
 18 19  1  0  0  0  0
 18 20  1  0  0  0  0
 20 21  1  0  0  0  0
 22 23  2  0  0  0  0
 22 24  1  0  0  0  0
 24 25  1  0  0  0  0
 24 26  1  0  0  0  0
 26 27  1  0  0  0  0
 26 28  1  0  0  0  0
 26 29  1  0  0  0  0
M  END
$$$$

  -OEChem-04042215593D

 29 29  0     1  0  0  0  0  0999 V2000
   -2.4027   -4.5873    0.2509 H   0  0  0  0  0  0  0  0  0  0  0  0
   -2.5997   -3.5621   -0.0756 C   0  0  0  0  0  0  0  0  0  0  0  0
   -3.3710   -3.1305    0.5667 H   0  0  0  0  0  0  0  0  0  0  0  0
   -2.9628   -3.5852   -1.1059 H   0  0  0  0  0  0  0  0  0  0  0  0
   -1.3309   -2.7347    0.0077 C   0  0  0  0  0  0  0  0  0  0  0  0
   -0.2979   -3.2419    0.4055 O   0  0  0  0  0  0  0  0  0  0  0  0
   -1.3585   -1.4027   -0.3511 N   0  0  0  0  0  0  0  0  0  0  0  0
   -2.2363   -1.0428   -0.7170 H   0  0  0  0  0  0  0  0  0  0  0  0
   -0.1765   -0.5265   -0.4169 C   0  0  1  0  0  0  0  0  0  0  0  0
    0.5391   -1.0389   -1.0701 H   0  0  0  0  0  0  0  0  0  0  0  0
   -0.5604    0.7642   -1.1695 C   0  0  0  0  0  0  0  0  0  0  0  0
    0.3654    1.2699   -1.4598 H   0  0  0  0  0  0  0  0  0  0  0  0
   -1.0778    0.4936   -2.0947 H   0  0  0  0  0  0  0  0  0  0  0  0
   -1.4005    1.7714   -0.4307 C   0  0  0  0  0  0  0  0  0  0  0  0
   -2.4949    2.3723   -1.0411 N   0  0  0  0  0  0  0  0  0  0  0  0
   -2.9265    3.3039   -0.2253 C   0  0  0  0  0  0  0  0  0  0  0  0
   -3.7761    3.9539   -0.4162 H   0  0  0  0  0  0  0  0  0  0  0  0
   -2.1314    3.3427    0.9023 N   0  0  0  0  0  0  0  0  0  0  0  0
   -2.2206    4.0156    1.6616 H   0  0  0  0  0  0  0  0  0  0  0  0
   -1.1377    2.3987    0.7571 C   0  0  0  0  0  0  0  0  0  0  0  0
   -0.2860    2.2304    1.4097 H   0  0  0  0  0  0  0  0  0  0  0  0
    0.5857   -0.3650    0.9194 C   0  0  0  0  0  0  0  0  0  0  0  0
    1.7891   -0.1425    0.8990 O   0  0  0  0  0  0  0  0  0  0  0  0
   -0.1012   -0.1472    2.1014 N   0  0  0  0  0  0  0  0  0  0  0  0
   -1.0852   -0.3975    2.0944 H   0  0  0  0  0  0  0  0  0  0  0  0
    0.5678    0.0194    3.3858 C   0  0  0  0  0  0  0  0  0  0  0  0
    1.2269    0.8937    3.3656 H   0  0  0  0  0  0  0  0  0  0  0  0
   -0.1705    0.1639    4.1801 H   0  0  0  0  0  0  0  0  0  0  0  0
    1.1653   -0.8673    3.6234 H   0  0  0  0  0  0  0  0  0  0  0  0
  1  2  1  0  0  0  0
  2  3  1  0  0  0  0
  2  4  1  0  0  0  0
  2  5  1  0  0  0  0
  5  6  2  0  0  0  0
  5  7  1  0  0  0  0
  7  8  1  0  0  0  0
  7  9  1  0  0  0  0
  9 10  1  0  0  0  0
  9 11  1  0  0  0  0
  9 22  1  0  0  0  0
 11 12  1  0  0  0  0
 11 13  1  0  0  0  0
 11 14  1  0  0  0  0
 14 15  1  0  0  0  0
 14 20  2  0  0  0  0
 15 16  2  0  0  0  0
 16 17  1  0  0  0  0
 16 18  1  0  0  0  0
 18 19  1  0  0  0  0
 18 20  1  0  0  0  0
 20 21  1  0  0  0  0
 22 23  2  0  0  0  0
 22 24  1  0  0  0  0
 24 25  1  0  0  0  0
 24 26  1  0  0  0  0
 26 27  1  0  0  0  0
 26 28  1  0  0  0  0
 26 29  1  0  0  0  0
M  END
$$$$

  -OEChem-04042215593D

 29 29  0     1  0  0  0  0  0999 V2000
   -2.4443   -4.5399    0.2962 H   0  0  0  0  0  0  0  0  0  0  0  0
   -2.6236   -3.5185   -0.0511 C   0  0  0  0  0  0  0  0  0  0  0  0
   -3.3798   -3.0570    0.5883 H   0  0  0  0  0  0  0  0  0  0  0  0
   -2.9971   -3.5571   -1.0772 H   0  0  0  0  0  0  0  0  0  0  0  0
   -1.3371   -2.7163    0.0024 C   0  0  0  0  0  0  0  0  0  0  0  0
   -0.3129   -3.2348    0.4088 O   0  0  0  0  0  0  0  0  0  0  0  0
   -1.3354   -1.3955   -0.3960 N   0  0  0  0  0  0  0  0  0  0  0  0
   -2.2126   -1.0120   -0.7408 H   0  0  0  0  0  0  0  0  0  0  0  0
   -0.1402   -0.5374   -0.4525 C   0  0  1  0  0  0  0  0  0  0  0  0
    0.5844   -1.0603   -1.0869 H   0  0  0  0  0  0  0  0  0  0  0  0
   -0.5105    0.7544   -1.2040 C   0  0  0  0  0  0  0  0  0  0  0  0
    0.4194    1.2613   -1.4796 H   0  0  0  0  0  0  0  0  0  0  0  0
   -1.0288    0.5060   -2.1349 H   0  0  0  0  0  0  0  0  0  0  0  0
   -1.3433    1.7304   -0.4222 C   0  0  0  0  0  0  0  0  0  0  0  0
   -2.6062    2.1258   -0.8443 N   0  0  0  0  0  0  0  0  0  0  0  0
   -2.9903    3.0846   -0.0350 C   0  0  0  0  0  0  0  0  0  0  0  0
   -3.9406    3.6073   -0.0986 H   0  0  0  0  0  0  0  0  0  0  0  0
   -2.0046    3.3357    0.8995 N   0  0  0  0  0  0  0  0  0  0  0  0
   -2.0400    4.0619    1.6128 H   0  0  0  0  0  0  0  0  0  0  0  0
   -0.9418    2.4994    0.6350 C   0  0  0  0  0  0  0  0  0  0  0  0
    0.0277    2.4674    1.1270 H   0  0  0  0  0  0  0  0  0  0  0  0
    0.5883   -0.3431    0.8982 C   0  0  0  0  0  0  0  0  0  0  0  0
    1.7960   -0.1428    0.9042 O   0  0  0  0  0  0  0  0  0  0  0  0
   -0.1267   -0.0781    2.0534 N   0  0  0  0  0  0  0  0  0  0  0  0
   -1.1214   -0.2787    2.0203 H   0  0  0  0  0  0  0  0  0  0  0  0
    0.5063    0.1261    3.3499 C   0  0  0  0  0  0  0  0  0  0  0  0
    1.1972    0.9748    3.3116 H   0  0  0  0  0  0  0  0  0  0  0  0
   -0.2510    0.3329    4.1120 H   0  0  0  0  0  0  0  0  0  0  0  0
    1.0634   -0.7690    3.6459 H   0  0  0  0  0  0  0  0  0  0  0  0
  1  2  1  0  0  0  0
  2  3  1  0  0  0  0
  2  4  1  0  0  0  0
  2  5  1  0  0  0  0
  5  6  2  0  0  0  0
  5  7  1  0  0  0  0
  7  8  1  0  0  0  0
  7  9  1  0  0  0  0
  9 10  1  0  0  0  0
  9 11  1  0  0  0  0
  9 22  1  0  0  0  0
 11 12  1  0  0  0  0
 11 13  1  0  0  0  0
 11 14  1  0  0  0  0
 14 15  1  0  0  0  0
 14 20  2  0  0  0  0
 15 16  2  0  0  0  0
 16 17  1  0  0  0  0
 16 18  1  0  0  0  0
 18 19  1  0  0  0  0
 18 20  1  0  0  0  0
 20 21  1  0  0  0  0
 22 23  2  0  0  0  0
 22 24  1  0  0  0  0
 24 25  1  0  0  0  0
 24 26  1  0  0  0  0
 26 27  1  0  0  0  0
 26 28  1  0  0  0  0
 26 29  1  0  0  0  0
M  END
$$$$

  -OEChem-04042215593D

 29 29  0     1  0  0  0  0  0999 V2000
   -2.4977   -4.4760    0.3565 H   0  0  0  0  0  0  0  0  0  0  0  0
   -2.6527   -3.4595   -0.0163 C   0  0  0  0  0  0  0  0  0  0  0  0
   -3.3713   -2.9530    0.6323 H   0  0  0  0  0  0  0  0  0  0  0  0
   -3.0604   -3.5145   -1.0286 H   0  0  0  0  0  0  0  0  0  0  0  0
   -1.3385   -2.7018   -0.0279 C   0  0  0  0  0  0  0  0  0  0  0  0
   -0.3170   -3.2487    0.3477 O   0  0  0  0  0  0  0  0  0  0  0  0
   -1.3079   -1.3889   -0.4496 N   0  0  0  0  0  0  0  0  0  0  0  0
   -2.1912   -0.9641   -0.7256 H   0  0  0  0  0  0  0  0  0  0  0  0
   -0.1003   -0.5487   -0.4907 C   0  0  1  0  0  0  0  0  0  0  0  0
    0.6320   -1.0778   -1.1110 H   0  0  0  0  0  0  0  0  0  0  0  0
   -0.4542    0.7483   -1.2366 C   0  0  0  0  0  0  0  0  0  0  0  0
    0.4795    1.2536   -1.5020 H   0  0  0  0  0  0  0  0  0  0  0  0
   -0.9756    0.5196   -2.1705 H   0  0  0  0  0  0  0  0  0  0  0  0
   -1.2808    1.6966   -0.4199 C   0  0  0  0  0  0  0  0  0  0  0  0
   -2.6410    1.8794   -0.6324 N   0  0  0  0  0  0  0  0  0  0  0  0
   -3.0099    2.8598    0.1591 C   0  0  0  0  0  0  0  0  0  0  0  0
   -4.0209    3.2508    0.2329 H   0  0  0  0  0  0  0  0  0  0  0  0
   -1.9239    3.3236    0.8774 N   0  0  0  0  0  0  0  0  0  0  0  0
   -1.9414    4.0985    1.5383 H   0  0  0  0  0  0  0  0  0  0  0  0
   -0.8151    2.6015    0.4922 C   0  0  0  0  0  0  0  0  0  0  0  0
    0.2163    2.7185    0.8174 H   0  0  0  0  0  0  0  0  0  0  0  0
    0.5960   -0.3397    0.8751 C   0  0  0  0  0  0  0  0  0  0  0  0
    1.8059   -0.1565    0.9108 O   0  0  0  0  0  0  0  0  0  0  0  0
   -0.1478   -0.0432    2.0042 N   0  0  0  0  0  0  0  0  0  0  0  0
   -1.1506   -0.1870    1.9378 H   0  0  0  0  0  0  0  0  0  0  0  0
    0.4439    0.2367    3.3058 C   0  0  0  0  0  0  0  0  0  0  0  0
    1.0955    1.1149    3.2508 H   0  0  0  0  0  0  0  0  0  0  0  0
   -0.3405    0.4349    4.0422 H   0  0  0  0  0  0  0  0  0  0  0  0
    1.0338   -0.6198    3.6487 H   0  0  0  0  0  0  0  0  0  0  0  0
  1  2  1  0  0  0  0
  2  3  1  0  0  0  0
  2  4  1  0  0  0  0
  2  5  1  0  0  0  0
  5  6  2  0  0  0  0
  5  7  1  0  0  0  0
  7  8  1  0  0  0  0
  7  9  1  0  0  0  0
  9 10  1  0  0  0  0
  9 11  1  0  0  0  0
  9 22  1  0  0  0  0
 11 12  1  0  0  0  0
 11 13  1  0  0  0  0
 11 14  1  0  0  0  0
 14 15  1  0  0  0  0
 14 20  2  0  0  0  0
 15 16  2  0  0  0  0
 16 17  1  0  0  0  0
 16 18  1  0  0  0  0
 18 19  1  0  0  0  0
 18 20  1  0  0  0  0
 20 21  1  0  0  0  0
 22 23  2  0  0  0  0
 22 24  1  0  0  0  0
 24 25  1  0  0  0  0
 24 26  1  0  0  0  0
 26 27  1  0  0  0  0
 26 28  1  0  0  0  0
 26 29  1  0  0  0  0
M  END
$$$$

  -OEChem-04042215593D

 29 29  0     1  0  0  0  0  0999 V2000
   -2.5347   -4.4199    0.3975 H   0  0  0  0  0  0  0  0  0  0  0  0
   -2.6749   -3.4037    0.0180 C   0  0  0  0  0  0  0  0  0  0  0  0
   -3.3545   -2.8688    0.6855 H   0  0  0  0  0  0  0  0  0  0  0  0
   -3.1205   -3.4589   -0.9782 H   0  0  0  0  0  0  0  0  0  0  0  0
   -1.3415   -2.6838   -0.0506 C   0  0  0  0  0  0  0  0  0  0  0  0
   -0.3226   -3.2560    0.2934 O   0  0  0  0  0  0  0  0  0  0  0  0
   -1.2884   -1.3786   -0.4928 N   0  0  0  0  0  0  0  0  0  0  0  0
   -2.1737   -0.9149   -0.6923 H   0  0  0  0  0  0  0  0  0  0  0  0
   -0.0693   -0.5557   -0.5219 C   0  0  1  0  0  0  0  0  0  0  0  0
    0.6676   -1.0936   -1.1287 H   0  0  0  0  0  0  0  0  0  0  0  0
   -0.4071    0.7439   -1.2679 C   0  0  0  0  0  0  0  0  0  0  0  0
    0.5305    1.2442   -1.5276 H   0  0  0  0  0  0  0  0  0  0  0  0
   -0.9320    0.5260   -2.2027 H   0  0  0  0  0  0  0  0  0  0  0  0
   -1.2297    1.6767   -0.4316 C   0  0  0  0  0  0  0  0  0  0  0  0
   -2.6187    1.6511   -0.4220 N   0  0  0  0  0  0  0  0  0  0  0  0
   -2.9960    2.6519    0.3401 C   0  0  0  0  0  0  0  0  0  0  0  0
   -4.0286    2.9128    0.5542 H   0  0  0  0  0  0  0  0  0  0  0  0
   -1.8898    3.3235    0.8269 N   0  0  0  0  0  0  0  0  0  0  0  0
   -1.9163    4.1467    1.4264 H   0  0  0  0  0  0  0  0  0  0  0  0
   -0.7609    2.7142    0.3233 C   0  0  0  0  0  0  0  0  0  0  0  0
    0.2811    2.9853    0.4748 H   0  0  0  0  0  0  0  0  0  0  0  0
    0.6014   -0.3338    0.8548 C   0  0  0  0  0  0  0  0  0  0  0  0
    1.8149   -0.1835    0.9181 O   0  0  0  0  0  0  0  0  0  0  0  0
   -0.1638   -0.0083    1.9614 N   0  0  0  0  0  0  0  0  0  0  0  0
   -1.1718   -0.0728    1.8557 H   0  0  0  0  0  0  0  0  0  0  0  0
    0.3976    0.3203    3.2648 C   0  0  0  0  0  0  0  0  0  0  0  0
    1.0203    1.2184    3.1985 H   0  0  0  0  0  0  0  0  0  0  0  0
   -0.4046    0.5074    3.9850 H   0  0  0  0  0  0  0  0  0  0  0  0
    1.0105   -0.5076    3.6365 H   0  0  0  0  0  0  0  0  0  0  0  0
  1  2  1  0  0  0  0
  2  3  1  0  0  0  0
  2  4  1  0  0  0  0
  2  5  1  0  0  0  0
  5  6  2  0  0  0  0
  5  7  1  0  0  0  0
  7  8  1  0  0  0  0
  7  9  1  0  0  0  0
  9 10  1  0  0  0  0
  9 11  1  0  0  0  0
  9 22  1  0  0  0  0
 11 12  1  0  0  0  0
 11 13  1  0  0  0  0
 11 14  1  0  0  0  0
 14 15  1  0  0  0  0
 14 20  2  0  0  0  0
 15 16  2  0  0  0  0
 16 17  1  0  0  0  0
 16 18  1  0  0  0  0
 18 19  1  0  0  0  0
 18 20  1  0  0  0  0
 20 21  1  0  0  0  0
 22 23  2  0  0  0  0
 22 24  1  0  0  0  0
 24 25  1  0  0  0  0
 24 26  1  0  0  0  0
 26 27  1  0  0  0  0
 26 28  1  0  0  0  0
 26 29  1  0  0  0  0
M  END
$$$$

  -OEChem-04042215593D

 29 29  0     1  0  0  0  0  0999 V2000
   -2.5673   -4.3688    0.4354 H   0  0  0  0  0  0  0  0  0  0  0  0
   -2.6916   -3.3514    0.0540 C   0  0  0  0  0  0  0  0  0  0  0  0
   -3.3157   -2.7873    0.7512 H   0  0  0  0  0  0  0  0  0  0  0  0
   -3.1907   -3.3979   -0.9168 H   0  0  0  0  0  0  0  0  0  0  0  0
   -1.3394   -2.6797   -0.0916 C   0  0  0  0  0  0  0  0  0  0  0  0
   -0.3232   -3.2854    0.2001 O   0  0  0  0  0  0  0  0  0  0  0  0
   -1.2682   -1.3786   -0.5419 N   0  0  0  0  0  0  0  0  0  0  0  0
   -2.1504   -0.8782   -0.6502 H   0  0  0  0  0  0  0  0  0  0  0  0
   -0.0400   -0.5697   -0.5502 C   0  0  1  0  0  0  0  0  0  0  0  0
    0.7038   -1.1098   -1.1466 H   0  0  0  0  0  0  0  0  0  0  0  0
   -0.3644    0.7380   -1.2892 C   0  0  0  0  0  0  0  0  0  0  0  0
    0.5762    1.2363   -1.5429 H   0  0  0  0  0  0  0  0  0  0  0  0
   -0.8904    0.5284   -2.2253 H   0  0  0  0  0  0  0  0  0  0  0  0
   -1.1890    1.6604   -0.4419 C   0  0  0  0  0  0  0  0  0  0  0  0
   -2.5432    1.4518   -0.2010 N   0  0  0  0  0  0  0  0  0  0  0  0
   -2.9437    2.4713    0.5241 C   0  0  0  0  0  0  0  0  0  0  0  0
   -3.9590    2.6163    0.8824 H   0  0  0  0  0  0  0  0  0  0  0  0
   -1.8863    3.3287    0.7655 N   0  0  0  0  0  0  0  0  0  0  0  0
   -1.9405    4.1958    1.2979 H   0  0  0  0  0  0  0  0  0  0  0  0
   -0.7670    2.8204    0.1418 C   0  0  0  0  0  0  0  0  0  0  0  0
    0.2370    3.2355    0.1084 H   0  0  0  0  0  0  0  0  0  0  0  0
    0.6011   -0.3483    0.8405 C   0  0  0  0  0  0  0  0  0  0  0  0
    1.8157   -0.2282    0.9370 O   0  0  0  0  0  0  0  0  0  0  0  0
   -0.1893   -0.0074    1.9247 N   0  0  0  0  0  0  0  0  0  0  0  0
   -1.1909    0.0423    1.7595 H   0  0  0  0  0  0  0  0  0  0  0  0
    0.3426    0.4045    3.2161 C   0  0  0  0  0  0  0  0  0  0  0  0
    0.9082    1.3366    3.1171 H   0  0  0  0  0  0  0  0  0  0  0  0
   -0.4736    0.5663    3.9265 H   0  0  0  0  0  0  0  0  0  0  0  0
    1.0039   -0.3688    3.6211 H   0  0  0  0  0  0  0  0  0  0  0  0
  1  2  1  0  0  0  0
  2  3  1  0  0  0  0
  2  4  1  0  0  0  0
  2  5  1  0  0  0  0
  5  6  2  0  0  0  0
  5  7  1  0  0  0  0
  7  8  1  0  0  0  0
  7  9  1  0  0  0  0
  9 10  1  0  0  0  0
  9 11  1  0  0  0  0
  9 22  1  0  0  0  0
 11 12  1  0  0  0  0
 11 13  1  0  0  0  0
 11 14  1  0  0  0  0
 14 15  1  0  0  0  0
 14 20  2  0  0  0  0
 15 16  2  0  0  0  0
 16 17  1  0  0  0  0
 16 18  1  0  0  0  0
 18 19  1  0  0  0  0
 18 20  1  0  0  0  0
 20 21  1  0  0  0  0
 22 23  2  0  0  0  0
 22 24  1  0  0  0  0
 24 25  1  0  0  0  0
 24 26  1  0  0  0  0
 26 27  1  0  0  0  0
 26 28  1  0  0  0  0
 26 29  1  0  0  0  0
M  END
$$$$

  -OEChem-04042215593D

 29 29  0     1  0  0  0  0  0999 V2000
   -2.5505   -4.3662    0.4546 H   0  0  0  0  0  0  0  0  0  0  0  0
   -2.6803   -3.3463    0.0821 C   0  0  0  0  0  0  0  0  0  0  0  0
   -3.2709   -2.7793    0.8054 H   0  0  0  0  0  0  0  0  0  0  0  0
   -3.2178   -3.3845   -0.8685 H   0  0  0  0  0  0  0  0  0  0  0  0
   -1.3288   -2.6861   -0.1145 C   0  0  0  0  0  0  0  0  0  0  0  0
   -0.3074   -3.3029    0.1331 O   0  0  0  0  0  0  0  0  0  0  0  0
   -1.2654   -1.3859   -0.5686 N   0  0  0  0  0  0  0  0  0  0  0  0
   -2.1467   -0.8736   -0.6017 H   0  0  0  0  0  0  0  0  0  0  0  0
   -0.0385   -0.5756   -0.5647 C   0  0  1  0  0  0  0  0  0  0  0  0
    0.7121   -1.1146   -1.1533 H   0  0  0  0  0  0  0  0  0  0  0  0
   -0.3503    0.7380   -1.3007 C   0  0  0  0  0  0  0  0  0  0  0  0
    0.5931    1.2318   -1.5528 H   0  0  0  0  0  0  0  0  0  0  0  0
   -0.8732    0.5269   -2.2381 H   0  0  0  0  0  0  0  0  0  0  0  0
   -1.1817    1.6682   -0.4640 C   0  0  0  0  0  0  0  0  0  0  0  0
   -2.4480    1.3406    0.0175 N   0  0  0  0  0  0  0  0  0  0  0  0
   -2.8681    2.3943    0.6807 C   0  0  0  0  0  0  0  0  0  0  0  0
   -3.8304    2.4709    1.1793 H   0  0  0  0  0  0  0  0  0  0  0  0
   -1.9064    3.3868    0.6556 N   0  0  0  0  0  0  0  0  0  0  0  0
   -1.9911    4.3005    1.0985 H   0  0  0  0  0  0  0  0  0  0  0  0
   -0.8305    2.9286   -0.0743 C   0  0  0  0  0  0  0  0  0  0  0  0
    0.1010    3.4415   -0.2987 H   0  0  0  0  0  0  0  0  0  0  0  0
    0.5865   -0.3508    0.8325 C   0  0  0  0  0  0  0  0  0  0  0  0
    1.8012   -0.2474    0.9476 O   0  0  0  0  0  0  0  0  0  0  0  0
   -0.2192   -0.0085    1.9046 N   0  0  0  0  0  0  0  0  0  0  0  0
   -1.2075    0.1193    1.6966 H   0  0  0  0  0  0  0  0  0  0  0  0
    0.2998    0.4337    3.1914 C   0  0  0  0  0  0  0  0  0  0  0  0
    0.8089    1.3974    3.0878 H   0  0  0  0  0  0  0  0  0  0  0  0
   -0.5176    0.5450    3.9101 H   0  0  0  0  0  0  0  0  0  0  0  0
    1.0093   -0.2995    3.5894 H   0  0  0  0  0  0  0  0  0  0  0  0
  1  2  1  0  0  0  0
  2  3  1  0  0  0  0
  2  4  1  0  0  0  0
  2  5  1  0  0  0  0
  5  6  2  0  0  0  0
  5  7  1  0  0  0  0
  7  8  1  0  0  0  0
  7  9  1  0  0  0  0
  9 10  1  0  0  0  0
  9 11  1  0  0  0  0
  9 22  1  0  0  0  0
 11 12  1  0  0  0  0
 11 13  1  0  0  0  0
 11 14  1  0  0  0  0
 14 15  1  0  0  0  0
 14 20  2  0  0  0  0
 15 16  2  0  0  0  0
 16 17  1  0  0  0  0
 16 18  1  0  0  0  0
 18 19  1  0  0  0  0
 18 20  1  0  0  0  0
 20 21  1  0  0  0  0
 22 23  2  0  0  0  0
 22 24  1  0  0  0  0
 24 25  1  0  0  0  0
 24 26  1  0  0  0  0
 26 27  1  0  0  0  0
 26 28  1  0  0  0  0
 26 29  1  0  0  0  0
M  END
$$$$

  -OEChem-04042215593D

 29 29  0     1  0  0  0  0  0999 V2000
   -2.5073   -4.3808    0.4717 H   0  0  0  0  0  0  0  0  0  0  0  0
   -2.6546   -3.3639    0.0975 C   0  0  0  0  0  0  0  0  0  0  0  0
   -3.2286   -2.7972    0.8345 H   0  0  0  0  0  0  0  0  0  0  0  0
   -3.2181   -3.4107   -0.8376 H   0  0  0  0  0  0  0  0  0  0  0  0
   -1.3133   -2.6961   -0.1394 C   0  0  0  0  0  0  0  0  0  0  0  0
   -0.2821   -3.3129    0.0644 O   0  0  0  0  0  0  0  0  0  0  0  0
   -1.2703   -1.3904   -0.5804 N   0  0  0  0  0  0  0  0  0  0  0  0
   -2.1530   -0.8812   -0.5564 H   0  0  0  0  0  0  0  0  0  0  0  0
   -0.0506   -0.5700   -0.5615 C   0  0  1  0  0  0  0  0  0  0  0  0
    0.7055   -1.1023   -1.1495 H   0  0  0  0  0  0  0  0  0  0  0  0
   -0.3562    0.7460   -1.2974 C   0  0  0  0  0  0  0  0  0  0  0  0
    0.5891    1.2395   -1.5429 H   0  0  0  0  0  0  0  0  0  0  0  0
   -0.8672    0.5259   -2.2391 H   0  0  0  0  0  0  0  0  0  0  0  0
   -1.2039    1.6894   -0.4875 C   0  0  0  0  0  0  0  0  0  0  0  0
   -2.3399    1.3051    0.2269 N   0  0  0  0  0  0  0  0  0  0  0  0
   -2.7940    2.3949    0.8038 C   0  0  0  0  0  0  0  0  0  0  0  0
   -3.6775    2.4415    1.4344 H   0  0  0  0  0  0  0  0  0  0  0  0
   -1.9812    3.4693    0.4966 N   0  0  0  0  0  0  0  0  0  0  0  0
   -2.1154    4.4232    0.8291 H   0  0  0  0  0  0  0  0  0  0  0  0
   -0.9657    3.0237   -0.3222 C   0  0  0  0  0  0  0  0  0  0  0  0
   -0.1436    3.5931   -0.7475 H   0  0  0  0  0  0  0  0  0  0  0  0
    0.5742   -0.3509    0.8370 C   0  0  0  0  0  0  0  0  0  0  0  0
    1.7900   -0.2636    0.9549 O   0  0  0  0  0  0  0  0  0  0  0  0
   -0.2299   -0.0244    1.9142 N   0  0  0  0  0  0  0  0  0  0  0  0
   -1.2061    0.1645    1.6883 H   0  0  0  0  0  0  0  0  0  0  0  0
    0.2941    0.4100    3.2015 C   0  0  0  0  0  0  0  0  0  0  0  0
    0.8466    1.3492    3.0930 H   0  0  0  0  0  0  0  0  0  0  0  0
   -0.5255    0.5666    3.9090 H   0  0  0  0  0  0  0  0  0  0  0  0
    0.9657   -0.3495    3.6158 H   0  0  0  0  0  0  0  0  0  0  0  0
  1  2  1  0  0  0  0
  2  3  1  0  0  0  0
  2  4  1  0  0  0  0
  2  5  1  0  0  0  0
  5  6  2  0  0  0  0
  5  7  1  0  0  0  0
  7  8  1  0  0  0  0
  7  9  1  0  0  0  0
  9 10  1  0  0  0  0
  9 11  1  0  0  0  0
  9 22  1  0  0  0  0
 11 12  1  0  0  0  0
 11 13  1  0  0  0  0
 11 14  1  0  0  0  0
 14 15  1  0  0  0  0
 14 20  2  0  0  0  0
 15 16  2  0  0  0  0
 16 17  1  0  0  0  0
 16 18  1  0  0  0  0
 18 19  1  0  0  0  0
 18 20  1  0  0  0  0
 20 21  1  0  0  0  0
 22 23  2  0  0  0  0
 22 24  1  0  0  0  0
 24 25  1  0  0  0  0
 24 26  1  0  0  0  0
 26 27  1  0  0  0  0
 26 28  1  0  0  0  0
 26 29  1  0  0  0  0
M  END
$$$$

  -OEChem-04042215593D

 29 29  0     1  0  0  0  0  0999 V2000
   -2.4722   -4.4246    0.4248 H   0  0  0  0  0  0  0  0  0  0  0  0
   -2.6376   -3.3998    0.0802 C   0  0  0  0  0  0  0  0  0  0  0  0
   -3.2076   -2.8609    0.8407 H   0  0  0  0  0  0  0  0  0  0  0  0
   -3.2141   -3.4285   -0.8475 H   0  0  0  0  0  0  0  0  0  0  0  0
   -1.3085   -2.7084   -0.1578 C   0  0  0  0  0  0  0  0  0  0  0  0
   -0.2675   -3.3194    0.0097 O   0  0  0  0  0  0  0  0  0  0  0  0
   -1.2885   -1.3908   -0.5646 N   0  0  0  0  0  0  0  0  0  0  0  0
   -2.1759   -0.8949   -0.5032 H   0  0  0  0  0  0  0  0  0  0  0  0
   -0.0788   -0.5561   -0.5281 C   0  0  1  0  0  0  0  0  0  0  0  0
    0.6784   -1.0833   -1.1194 H   0  0  0  0  0  0  0  0  0  0  0  0
   -0.3752    0.7568   -1.2741 C   0  0  0  0  0  0  0  0  0  0  0  0
    0.5738    1.2505   -1.5044 H   0  0  0  0  0  0  0  0  0  0  0  0
   -0.8626    0.5228   -2.2250 H   0  0  0  0  0  0  0  0  0  0  0  0
   -1.2462    1.7182   -0.5085 C   0  0  0  0  0  0  0  0  0  0  0  0
   -2.2267    1.3549    0.4166 N   0  0  0  0  0  0  0  0  0  0  0  0
   -2.7300    2.4770    0.8794 C   0  0  0  0  0  0  0  0  0  0  0  0
   -3.5213    2.5437    1.6209 H   0  0  0  0  0  0  0  0  0  0  0  0
   -2.1032    3.5571    0.2892 N   0  0  0  0  0  0  0  0  0  0  0  0
   -2.3049    4.5358    0.4884 H   0  0  0  0  0  0  0  0  0  0  0  0
   -1.1547    3.0787   -0.5890 C   0  0  0  0  0  0  0  0  0  0  0  0
   -0.4680    3.6458   -1.2114 H   0  0  0  0  0  0  0  0  0  0  0  0
    0.5673   -0.3528    0.8638 C   0  0  0  0  0  0  0  0  0  0  0  0
    1.7859   -0.2753    0.9606 O   0  0  0  0  0  0  0  0  0  0  0  0
   -0.2114   -0.0569    1.9670 N   0  0  0  0  0  0  0  0  0  0  0  0
   -1.1820    0.1764    1.7567 H   0  0  0  0  0  0  0  0  0  0  0  0
    0.3449    0.3529    3.2490 C   0  0  0  0  0  0  0  0  0  0  0  0
    0.8663    1.3105    3.1514 H   0  0  0  0  0  0  0  0  0  0  0  0
   -0.4540    0.4631    3.9883 H   0  0  0  0  0  0  0  0  0  0  0  0
    1.0517   -0.3987    3.6167 H   0  0  0  0  0  0  0  0  0  0  0  0
  1  2  1  0  0  0  0
  2  3  1  0  0  0  0
  2  4  1  0  0  0  0
  2  5  1  0  0  0  0
  5  6  2  0  0  0  0
  5  7  1  0  0  0  0
  7  8  1  0  0  0  0
  7  9  1  0  0  0  0
  9 10  1  0  0  0  0
  9 11  1  0  0  0  0
  9 22  1  0  0  0  0
 11 12  1  0  0  0  0
 11 13  1  0  0  0  0
 11 14  1  0  0  0  0
 14 15  1  0  0  0  0
 14 20  2  0  0  0  0
 15 16  2  0  0  0  0
 16 17  1  0  0  0  0
 16 18  1  0  0  0  0
 18 19  1  0  0  0  0
 18 20  1  0  0  0  0
 20 21  1  0  0  0  0
 22 23  2  0  0  0  0
 22 24  1  0  0  0  0
 24 25  1  0  0  0  0
 24 26  1  0  0  0  0
 26 27  1  0  0  0  0
 26 28  1  0  0  0  0
 26 29  1  0  0  0  0
M  END
$$$$

  -OEChem-04042215593D

 29 29  0     1  0  0  0  0  0999 V2000
   -2.4383   -4.4649    0.3679 H   0  0  0  0  0  0  0  0  0  0  0  0
   -2.6216   -3.4317    0.0598 C   0  0  0  0  0  0  0  0  0  0  0  0
   -3.1873   -2.9255    0.8457 H   0  0  0  0  0  0  0  0  0  0  0  0
   -3.2111   -3.4378   -0.8601 H   0  0  0  0  0  0  0  0  0  0  0  0
   -1.3049   -2.7154   -0.1738 C   0  0  0  0  0  0  0  0  0  0  0  0
   -0.2544   -3.3183   -0.0400 O   0  0  0  0  0  0  0  0  0  0  0  0
   -1.3077   -1.3855   -0.5402 N   0  0  0  0  0  0  0  0  0  0  0  0
   -2.2018   -0.9074   -0.4594 H   0  0  0  0  0  0  0  0  0  0  0  0
   -0.1083   -0.5362   -0.4910 C   0  0  1  0  0  0  0  0  0  0  0  0
    0.6474   -1.0554   -1.0915 H   0  0  0  0  0  0  0  0  0  0  0  0
   -0.4014    0.7743   -1.2430 C   0  0  0  0  0  0  0  0  0  0  0  0
    0.5509    1.2708   -1.4534 H   0  0  0  0  0  0  0  0  0  0  0  0
   -0.8637    0.5326   -2.2044 H   0  0  0  0  0  0  0  0  0  0  0  0
   -1.2904    1.7491   -0.5151 C   0  0  0  0  0  0  0  0  0  0  0  0
   -2.0902    1.4720    0.5934 N   0  0  0  0  0  0  0  0  0  0  0  0
   -2.6606    2.6049    0.9343 C   0  0  0  0  0  0  0  0  0  0  0  0
   -3.3476    2.7290    1.7669 H   0  0  0  0  0  0  0  0  0  0  0  0
   -2.2577    3.6123    0.0803 N   0  0  0  0  0  0  0  0  0  0  0  0
   -2.5471    4.5872    0.1420 H   0  0  0  0  0  0  0  0  0  0  0  0
   -1.3827    3.0735   -0.8383 C   0  0  0  0  0  0  0  0  0  0  0  0
   -0.8593    3.5804   -1.6442 H   0  0  0  0  0  0  0  0  0  0  0  0
    0.5647   -0.3556    0.8928 C   0  0  0  0  0  0  0  0  0  0  0  0
    1.7862   -0.2904    0.9635 O   0  0  0  0  0  0  0  0  0  0  0  0
   -0.1836   -0.0975    2.0260 N   0  0  0  0  0  0  0  0  0  0  0  0
   -1.1466    0.1843    1.8401 H   0  0  0  0  0  0  0  0  0  0  0  0
    0.4120    0.2738    3.3025 C   0  0  0  0  0  0  0  0  0  0  0  0
    0.9167    1.2420    3.2222 H   0  0  0  0  0  0  0  0  0  0  0  0
   -0.3621    0.3451    4.0721 H   0  0  0  0  0  0  0  0  0  0  0  0
    1.1412   -0.4798    3.6188 H   0  0  0  0  0  0  0  0  0  0  0  0
  1  2  1  0  0  0  0
  2  3  1  0  0  0  0
  2  4  1  0  0  0  0
  2  5  1  0  0  0  0
  5  6  2  0  0  0  0
  5  7  1  0  0  0  0
  7  8  1  0  0  0  0
  7  9  1  0  0  0  0
  9 10  1  0  0  0  0
  9 11  1  0  0  0  0
  9 22  1  0  0  0  0
 11 12  1  0  0  0  0
 11 13  1  0  0  0  0
 11 14  1  0  0  0  0
 14 15  1  0  0  0  0
 14 20  2  0  0  0  0
 15 16  2  0  0  0  0
 16 17  1  0  0  0  0
 16 18  1  0  0  0  0
 18 19  1  0  0  0  0
 18 20  1  0  0  0  0
 20 21  1  0  0  0  0
 22 23  2  0  0  0  0
 22 24  1  0  0  0  0
 24 25  1  0  0  0  0
 24 26  1  0  0  0  0
 26 27  1  0  0  0  0
 26 28  1  0  0  0  0
 26 29  1  0  0  0  0
M  END
$$$$

  -OEChem-04042215593D

 29 29  0     1  0  0  0  0  0999 V2000
   -2.4226   -4.4840    0.3194 H   0  0  0  0  0  0  0  0  0  0  0  0
   -2.6167   -3.4439    0.0428 C   0  0  0  0  0  0  0  0  0  0  0  0
   -3.1763   -2.9643    0.8494 H   0  0  0  0  0  0  0  0  0  0  0  0
   -3.2173   -3.4284   -0.8698 H   0  0  0  0  0  0  0  0  0  0  0  0
   -1.3074   -2.7127   -0.1856 C   0  0  0  0  0  0  0  0  0  0  0  0
   -0.2522   -3.3136   -0.0851 O   0  0  0  0  0  0  0  0  0  0  0  0
   -1.3236   -1.3728   -0.5152 N   0  0  0  0  0  0  0  0  0  0  0  0
   -2.2216   -0.9065   -0.4223 H   0  0  0  0  0  0  0  0  0  0  0  0
   -0.1283   -0.5180   -0.4603 C   0  0  1  0  0  0  0  0  0  0  0  0
    0.6212   -1.0310   -1.0741 H   0  0  0  0  0  0  0  0  0  0  0  0
   -0.4206    0.7946   -1.2104 C   0  0  0  0  0  0  0  0  0  0  0  0
    0.5360    1.2908   -1.4006 H   0  0  0  0  0  0  0  0  0  0  0  0
   -0.8626    0.5565   -2.1823 H   0  0  0  0  0  0  0  0  0  0  0  0
   -1.3140    1.7809   -0.5027 C   0  0  0  0  0  0  0  0  0  0  0  0
   -1.9093    1.6414    0.7488 N   0  0  0  0  0  0  0  0  0  0  0  0
   -2.5705    2.7521    0.9788 C   0  0  0  0  0  0  0  0  0  0  0  0
   -3.1396    2.9622    1.8802 H   0  0  0  0  0  0  0  0  0  0  0  0
   -2.4370    3.6097   -0.0945 N   0  0  0  0  0  0  0  0  0  0  0  0
   -2.8433    4.5420   -0.1576 H   0  0  0  0  0  0  0  0  0  0  0  0
   -1.6381    2.9971   -1.0357 C   0  0  0  0  0  0  0  0  0  0  0  0
   -1.3129    3.3888   -1.9954 H   0  0  0  0  0  0  0  0  0  0  0  0
    0.5696   -0.3671    0.9157 C   0  0  0  0  0  0  0  0  0  0  0  0
    1.7933   -0.3225    0.9647 O   0  0  0  0  0  0  0  0  0  0  0  0
   -0.1536   -0.1423    2.0722 N   0  0  0  0  0  0  0  0  0  0  0  0
   -1.1043    0.1895    1.9078 H   0  0  0  0  0  0  0  0  0  0  0  0
    0.4776    0.1979    3.3403 C   0  0  0  0  0  0  0  0  0  0  0  0
    0.9850    1.1653    3.2678 H   0  0  0  0  0  0  0  0  0  0  0  0
   -0.2754    0.2560    4.1317 H   0  0  0  0  0  0  0  0  0  0  0  0
    1.2114   -0.5652    3.6207 H   0  0  0  0  0  0  0  0  0  0  0  0
  1  2  1  0  0  0  0
  2  3  1  0  0  0  0
  2  4  1  0  0  0  0
  2  5  1  0  0  0  0
  5  6  2  0  0  0  0
  5  7  1  0  0  0  0
  7  8  1  0  0  0  0
  7  9  1  0  0  0  0
  9 10  1  0  0  0  0
  9 11  1  0  0  0  0
  9 22  1  0  0  0  0
 11 12  1  0  0  0  0
 11 13  1  0  0  0  0
 11 14  1  0  0  0  0
 14 15  1  0  0  0  0
 14 20  2  0  0  0  0
 15 16  2  0  0  0  0
 16 17  1  0  0  0  0
 16 18  1  0  0  0  0
 18 19  1  0  0  0  0
 18 20  1  0  0  0  0
 20 21  1  0  0  0  0
 22 23  2  0  0  0  0
 22 24  1  0  0  0  0
 24 25  1  0  0  0  0
 24 26  1  0  0  0  0
 26 27  1  0  0  0  0
 26 28  1  0  0  0  0
 26 29  1  0  0  0  0
M  END
$$$$

  -OEChem-04042215593D

 29 29  0     1  0  0  0  0  0999 V2000
   -2.4285   -4.4691    0.3360 H   0  0  0  0  0  0  0  0  0  0  0  0
   -2.6244   -3.4342    0.0409 C   0  0  0  0  0  0  0  0  0  0  0  0
   -3.1961   -2.9456    0.8335 H   0  0  0  0  0  0  0  0  0  0  0  0
   -3.2140   -3.4354   -0.8789 H   0  0  0  0  0  0  0  0  0  0  0  0
   -1.3159   -2.7003   -0.1837 C   0  0  0  0  0  0  0  0  0  0  0  0
   -0.2610   -3.3030   -0.0956 O   0  0  0  0  0  0  0  0  0  0  0  0
   -1.3335   -1.3563   -0.4968 N   0  0  0  0  0  0  0  0  0  0  0  0
   -2.2333   -0.8943   -0.4090 H   0  0  0  0  0  0  0  0  0  0  0  0
   -0.1368   -0.5019   -0.4456 C   0  0  1  0  0  0  0  0  0  0  0  0
    0.6063   -1.0144   -1.0679 H   0  0  0  0  0  0  0  0  0  0  0  0
   -0.4306    0.8106   -1.1976 C   0  0  0  0  0  0  0  0  0  0  0  0
    0.5293    1.3063   -1.3724 H   0  0  0  0  0  0  0  0  0  0  0  0
   -0.8572    0.5753   -2.1770 H   0  0  0  0  0  0  0  0  0  0  0  0
   -1.3218    1.8060   -0.4986 C   0  0  0  0  0  0  0  0  0  0  0  0
   -1.6936    1.8353    0.8418 N   0  0  0  0  0  0  0  0  0  0  0  0
   -2.4617    2.8870    1.0040 C   0  0  0  0  0  0  0  0  0  0  0  0
   -2.9078    3.1928    1.9462 H   0  0  0  0  0  0  0  0  0  0  0  0
   -2.6216    3.5393   -0.2015 N   0  0  0  0  0  0  0  0  0  0  0  0
   -3.1615    4.3917   -0.3425 H   0  0  0  0  0  0  0  0  0  0  0  0
   -1.9018    2.8550   -1.1574 C   0  0  0  0  0  0  0  0  0  0  0  0
   -1.7944    3.0938   -2.2119 H   0  0  0  0  0  0  0  0  0  0  0  0
    0.5780   -0.3672    0.9236 C   0  0  0  0  0  0  0  0  0  0  0  0
    1.8030   -0.3599    0.9599 O   0  0  0  0  0  0  0  0  0  0  0  0
   -0.1277   -0.1555    2.0933 N   0  0  0  0  0  0  0  0  0  0  0  0
   -1.0563    0.2386    1.9439 H   0  0  0  0  0  0  0  0  0  0  0  0
    0.5325    0.1370    3.3586 C   0  0  0  0  0  0  0  0  0  0  0  0
    1.0991    1.0714    3.2878 H   0  0  0  0  0  0  0  0  0  0  0  0
   -0.2098    0.2378    4.1558 H   0  0  0  0  0  0  0  0  0  0  0  0
    1.2183   -0.6727    3.6289 H   0  0  0  0  0  0  0  0  0  0  0  0
  1  2  1  0  0  0  0
  2  3  1  0  0  0  0
  2  4  1  0  0  0  0
  2  5  1  0  0  0  0
  5  6  2  0  0  0  0
  5  7  1  0  0  0  0
  7  8  1  0  0  0  0
  7  9  1  0  0  0  0
  9 10  1  0  0  0  0
  9 11  1  0  0  0  0
  9 22  1  0  0  0  0
 11 12  1  0  0  0  0
 11 13  1  0  0  0  0
 11 14  1  0  0  0  0
 14 15  1  0  0  0  0
 14 20  2  0  0  0  0
 15 16  2  0  0  0  0
 16 17  1  0  0  0  0
 16 18  1  0  0  0  0
 18 19  1  0  0  0  0
 18 20  1  0  0  0  0
 20 21  1  0  0  0  0
 22 23  2  0  0  0  0
 22 24  1  0  0  0  0
 24 25  1  0  0  0  0
 24 26  1  0  0  0  0
 26 27  1  0  0  0  0
 26 28  1  0  0  0  0
 26 29  1  0  0  0  0
M  END
$$$$

  -OEChem-04042215593D

 29 29  0     1  0  0  0  0  0999 V2000
   -2.4463   -4.4587    0.3354 H   0  0  0  0  0  0  0  0  0  0  0  0
   -2.6367   -3.4197    0.0517 C   0  0  0  0  0  0  0  0  0  0  0  0
   -3.2029   -2.9357    0.8511 H   0  0  0  0  0  0  0  0  0  0  0  0
   -3.2288   -3.4082   -0.8666 H   0  0  0  0  0  0  0  0  0  0  0  0
   -1.3244   -2.6912   -0.1683 C   0  0  0  0  0  0  0  0  0  0  0  0
   -0.2724   -3.2977   -0.0742 O   0  0  0  0  0  0  0  0  0  0  0  0
   -1.3372   -1.3484   -0.4877 N   0  0  0  0  0  0  0  0  0  0  0  0
   -2.2379   -0.8857   -0.4190 H   0  0  0  0  0  0  0  0  0  0  0  0
   -0.1362   -0.4986   -0.4461 C   0  0  1  0  0  0  0  0  0  0  0  0
    0.6036   -1.0159   -1.0683 H   0  0  0  0  0  0  0  0  0  0  0  0
   -0.4338    0.8091   -1.2054 C   0  0  0  0  0  0  0  0  0  0  0  0
    0.5261    1.3038   -1.3828 H   0  0  0  0  0  0  0  0  0  0  0  0
   -0.8596    0.5673   -2.1837 H   0  0  0  0  0  0  0  0  0  0  0  0
   -1.3197    1.8104   -0.5075 C   0  0  0  0  0  0  0  0  0  0  0  0
   -1.4617    2.0301    0.8574 N   0  0  0  0  0  0  0  0  0  0  0  0
   -2.3223    3.0095    1.0039 C   0  0  0  0  0  0  0  0  0  0  0  0
   -2.6368    3.4250    1.9573 H   0  0  0  0  0  0  0  0  0  0  0  0
   -2.7710    3.4242   -0.2335 N   0  0  0  0  0  0  0  0  0  0  0  0
   -3.4337    4.1807   -0.3960 H   0  0  0  0  0  0  0  0  0  0  0  0
   -2.1386    2.6648   -1.1941 C   0  0  0  0  0  0  0  0  0  0  0  0
   -2.2434    2.7314   -2.2733 H   0  0  0  0  0  0  0  0  0  0  0  0
    0.5808   -0.3643    0.9223 C   0  0  0  0  0  0  0  0  0  0  0  0
    1.8053   -0.3929    0.9612 O   0  0  0  0  0  0  0  0  0  0  0  0
   -0.1241   -0.1458    2.0918 N   0  0  0  0  0  0  0  0  0  0  0  0
   -1.0312    0.2932    1.9408 H   0  0  0  0  0  0  0  0  0  0  0  0
    0.5446    0.1236    3.3581 C   0  0  0  0  0  0  0  0  0  0  0  0
    1.0968    1.0676    3.3047 H   0  0  0  0  0  0  0  0  0  0  0  0
   -0.1908    0.1938    4.1649 H   0  0  0  0  0  0  0  0  0  0  0  0
    1.2453   -0.6822    3.6022 H   0  0  0  0  0  0  0  0  0  0  0  0
  1  2  1  0  0  0  0
  2  3  1  0  0  0  0
  2  4  1  0  0  0  0
  2  5  1  0  0  0  0
  5  6  2  0  0  0  0
  5  7  1  0  0  0  0
  7  8  1  0  0  0  0
  7  9  1  0  0  0  0
  9 10  1  0  0  0  0
  9 11  1  0  0  0  0
  9 22  1  0  0  0  0
 11 12  1  0  0  0  0
 11 13  1  0  0  0  0
 11 14  1  0  0  0  0
 14 15  1  0  0  0  0
 14 20  2  0  0  0  0
 15 16  2  0  0  0  0
 16 17  1  0  0  0  0
 16 18  1  0  0  0  0
 18 19  1  0  0  0  0
 18 20  1  0  0  0  0
 20 21  1  0  0  0  0
 22 23  2  0  0  0  0
 22 24  1  0  0  0  0
 24 25  1  0  0  0  0
 24 26  1  0  0  0  0
 26 27  1  0  0  0  0
 26 28  1  0  0  0  0
 26 29  1  0  0  0  0
M  END
$$$$

  -OEChem-04042215593D

 29 29  0     1  0  0  0  0  0999 V2000
   -2.4526   -4.4493    0.3699 H   0  0  0  0  0  0  0  0  0  0  0  0
   -2.6389   -3.4164    0.0623 C   0  0  0  0  0  0  0  0  0  0  0  0
   -3.2216   -2.9184    0.8410 H   0  0  0  0  0  0  0  0  0  0  0  0
   -3.2126   -3.4242   -0.8675 H   0  0  0  0  0  0  0  0  0  0  0  0
   -1.3235   -2.6900   -0.1463 C   0  0  0  0  0  0  0  0  0  0  0  0
   -0.2734   -3.2939   -0.0229 O   0  0  0  0  0  0  0  0  0  0  0  0
   -1.3304   -1.3532   -0.4909 N   0  0  0  0  0  0  0  0  0  0  0  0
   -2.2332   -0.8913   -0.4627 H   0  0  0  0  0  0  0  0  0  0  0  0
   -0.1271   -0.5047   -0.4611 C   0  0  1  0  0  0  0  0  0  0  0  0
    0.6151   -1.0254   -1.0775 H   0  0  0  0  0  0  0  0  0  0  0  0
   -0.4336    0.7977   -1.2258 C   0  0  0  0  0  0  0  0  0  0  0  0
    0.5213    1.2966   -1.4173 H   0  0  0  0  0  0  0  0  0  0  0  0
   -0.8692    0.5497   -2.1982 H   0  0  0  0  0  0  0  0  0  0  0  0
   -1.3152    1.7936   -0.5161 C   0  0  0  0  0  0  0  0  0  0  0  0
   -1.2377    2.2091    0.8068 N   0  0  0  0  0  0  0  0  0  0  0  0
   -2.1730    3.1109    0.9860 C   0  0  0  0  0  0  0  0  0  0  0  0
   -2.3597    3.6384    1.9174 H   0  0  0  0  0  0  0  0  0  0  0  0
   -2.8847    3.2803   -0.1844 N   0  0  0  0  0  0  0  0  0  0  0  0
   -3.6511    3.9386   -0.3165 H   0  0  0  0  0  0  0  0  0  0  0  0
   -2.3424    2.4474   -1.1399 C   0  0  0  0  0  0  0  0  0  0  0  0
   -2.6409    2.3395   -2.1789 H   0  0  0  0  0  0  0  0  0  0  0  0
    0.5774   -0.3527    0.9117 C   0  0  0  0  0  0  0  0  0  0  0  0
    1.8005   -0.4049    0.9669 O   0  0  0  0  0  0  0  0  0  0  0  0
   -0.1421   -0.1142    2.0690 N   0  0  0  0  0  0  0  0  0  0  0  0
   -1.0362    0.3428    1.9029 H   0  0  0  0  0  0  0  0  0  0  0  0
    0.5155    0.1551    3.3408 C   0  0  0  0  0  0  0  0  0  0  0  0
    1.1072    1.0742    3.2780 H   0  0  0  0  0  0  0  0  0  0  0  0
   -0.2299    0.2729    4.1327 H   0  0  0  0  0  0  0  0  0  0  0  0
    1.1781   -0.6734    3.6129 H   0  0  0  0  0  0  0  0  0  0  0  0
  1  2  1  0  0  0  0
  2  3  1  0  0  0  0
  2  4  1  0  0  0  0
  2  5  1  0  0  0  0
  5  6  2  0  0  0  0
  5  7  1  0  0  0  0
  7  8  1  0  0  0  0
  7  9  1  0  0  0  0
  9 10  1  0  0  0  0
  9 11  1  0  0  0  0
  9 22  1  0  0  0  0
 11 12  1  0  0  0  0
 11 13  1  0  0  0  0
 11 14  1  0  0  0  0
 14 15  1  0  0  0  0
 14 20  2  0  0  0  0
 15 16  2  0  0  0  0
 16 17  1  0  0  0  0
 16 18  1  0  0  0  0
 18 19  1  0  0  0  0
 18 20  1  0  0  0  0
 20 21  1  0  0  0  0
 22 23  2  0  0  0  0
 22 24  1  0  0  0  0
 24 25  1  0  0  0  0
 24 26  1  0  0  0  0
 26 27  1  0  0  0  0
 26 28  1  0  0  0  0
 26 29  1  0  0  0  0
M  END
$$$$

  -OEChem-04042215593D

 29 29  0     1  0  0  0  0  0999 V2000
   -2.4568   -4.4454    0.3968 H   0  0  0  0  0  0  0  0  0  0  0  0
   -2.6379   -3.4191    0.0643 C   0  0  0  0  0  0  0  0  0  0  0  0
   -3.2403   -2.9072    0.8183 H   0  0  0  0  0  0  0  0  0  0  0  0
   -3.1891   -3.4473   -0.8786 H   0  0  0  0  0  0  0  0  0  0  0  0
   -1.3190   -2.6936   -0.1272 C   0  0  0  0  0  0  0  0  0  0  0  0
   -0.2715   -3.2928    0.0342 O   0  0  0  0  0  0  0  0  0  0  0  0
   -1.3190   -1.3652   -0.5040 N   0  0  0  0  0  0  0  0  0  0  0  0
   -2.2225   -0.9049   -0.5174 H   0  0  0  0  0  0  0  0  0  0  0  0
   -0.1140   -0.5175   -0.4830 C   0  0  1  0  0  0  0  0  0  0  0  0
    0.6343   -1.0414   -1.0893 H   0  0  0  0  0  0  0  0  0  0  0  0
   -0.4276    0.7810   -1.2505 C   0  0  0  0  0  0  0  0  0  0  0  0
    0.5206    1.2861   -1.4595 H   0  0  0  0  0  0  0  0  0  0  0  0
   -0.8792    0.5294   -2.2145 H   0  0  0  0  0  0  0  0  0  0  0  0
   -1.3052    1.7619   -0.5190 C   0  0  0  0  0  0  0  0  0  0  0  0
   -1.0375    2.3700    0.6991 N   0  0  0  0  0  0  0  0  0  0  0  0
   -2.0302    3.1892    0.9492 C   0  0  0  0  0  0  0  0  0  0  0  0
   -2.1078    3.8231    1.8281 H   0  0  0  0  0  0  0  0  0  0  0  0
   -2.9594    3.1178   -0.0698 N   0  0  0  0  0  0  0  0  0  0  0  0
   -3.8109    3.6745   -0.1279 H   0  0  0  0  0  0  0  0  0  0  0  0
   -2.4995    2.2169   -1.0073 C   0  0  0  0  0  0  0  0  0  0  0  0
   -2.9626    1.9386   -1.9497 H   0  0  0  0  0  0  0  0  0  0  0  0
    0.5694   -0.3397    0.8971 C   0  0  0  0  0  0  0  0  0  0  0  0
    1.7903   -0.4041    0.9766 O   0  0  0  0  0  0  0  0  0  0  0  0
   -0.1718   -0.0753    2.0357 N   0  0  0  0  0  0  0  0  0  0  0  0
   -1.0704    0.3611    1.8496 H   0  0  0  0  0  0  0  0  0  0  0  0
    0.4631    0.2249    3.3124 C   0  0  0  0  0  0  0  0  0  0  0  0
    1.0632    1.1377    3.2359 H   0  0  0  0  0  0  0  0  0  0  0  0
   -0.2964    0.3703    4.0861 H   0  0  0  0  0  0  0  0  0  0  0  0
    1.1135   -0.6004    3.6208 H   0  0  0  0  0  0  0  0  0  0  0  0
  1  2  1  0  0  0  0
  2  3  1  0  0  0  0
  2  4  1  0  0  0  0
  2  5  1  0  0  0  0
  5  6  2  0  0  0  0
  5  7  1  0  0  0  0
  7  8  1  0  0  0  0
  7  9  1  0  0  0  0
  9 10  1  0  0  0  0
  9 11  1  0  0  0  0
  9 22  1  0  0  0  0
 11 12  1  0  0  0  0
 11 13  1  0  0  0  0
 11 14  1  0  0  0  0
 14 15  1  0  0  0  0
 14 20  2  0  0  0  0
 15 16  2  0  0  0  0
 16 17  1  0  0  0  0
 16 18  1  0  0  0  0
 18 19  1  0  0  0  0
 18 20  1  0  0  0  0
 20 21  1  0  0  0  0
 22 23  2  0  0  0  0
 22 24  1  0  0  0  0
 24 25  1  0  0  0  0
 24 26  1  0  0  0  0
 26 27  1  0  0  0  0
 26 28  1  0  0  0  0
 26 29  1  0  0  0  0
M  END
$$$$

  -OEChem-04042215593D

 29 29  0     1  0  0  0  0  0999 V2000
   -2.4663   -4.4593    0.3925 H   0  0  0  0  0  0  0  0  0  0  0  0
   -2.6409   -3.4344    0.0521 C   0  0  0  0  0  0  0  0  0  0  0  0
   -3.2634   -2.9217    0.7892 H   0  0  0  0  0  0  0  0  0  0  0  0
   -3.1682   -3.4676   -0.9041 H   0  0  0  0  0  0  0  0  0  0  0  0
   -1.3191   -2.7069   -0.1090 C   0  0  0  0  0  0  0  0  0  0  0  0
   -0.2756   -3.2941    0.1101 O   0  0  0  0  0  0  0  0  0  0  0  0
   -1.3112   -1.3869   -0.5143 N   0  0  0  0  0  0  0  0  0  0  0  0
   -2.2152   -0.9352   -0.5958 H   0  0  0  0  0  0  0  0  0  0  0  0
   -0.1066   -0.5373   -0.5014 C   0  0  1  0  0  0  0  0  0  0  0  0
    0.6472   -1.0634   -1.0985 H   0  0  0  0  0  0  0  0  0  0  0  0
   -0.4205    0.7623   -1.2658 C   0  0  0  0  0  0  0  0  0  0  0  0
    0.5227    1.2714   -1.4880 H   0  0  0  0  0  0  0  0  0  0  0  0
   -0.8896    0.5154   -2.2226 H   0  0  0  0  0  0  0  0  0  0  0  0
   -1.2913    1.7239   -0.5058 C   0  0  0  0  0  0  0  0  0  0  0  0
   -0.8850    2.5198    0.5546 N   0  0  0  0  0  0  0  0  0  0  0  0
   -1.9109    3.2621    0.8930 C   0  0  0  0  0  0  0  0  0  0  0  0
   -1.9090    4.0014    1.6893 H   0  0  0  0  0  0  0  0  0  0  0  0
   -2.9902    2.9604    0.0846 N   0  0  0  0  0  0  0  0  0  0  0  0
   -3.8969    3.4241    0.1208 H   0  0  0  0  0  0  0  0  0  0  0  0
   -2.5966    1.9920   -0.8153 C   0  0  0  0  0  0  0  0  0  0  0  0
   -3.1767    1.5526   -1.6215 H   0  0  0  0  0  0  0  0  0  0  0  0
    0.5591   -0.3321    0.8828 C   0  0  0  0  0  0  0  0  0  0  0  0
    1.7799   -0.3691    0.9761 O   0  0  0  0  0  0  0  0  0  0  0  0
   -0.1990   -0.0460    2.0054 N   0  0  0  0  0  0  0  0  0  0  0  0
   -1.1340    0.2974    1.8136 H   0  0  0  0  0  0  0  0  0  0  0  0
    0.4103    0.3210    3.2770 C   0  0  0  0  0  0  0  0  0  0  0  0
    0.9577    1.2643    3.1792 H   0  0  0  0  0  0  0  0  0  0  0  0
   -0.3604    0.4414    4.0439 H   0  0  0  0  0  0  0  0  0  0  0  0
    1.1055   -0.4574    3.6088 H   0  0  0  0  0  0  0  0  0  0  0  0
  1  2  1  0  0  0  0
  2  3  1  0  0  0  0
  2  4  1  0  0  0  0
  2  5  1  0  0  0  0
  5  6  2  0  0  0  0
  5  7  1  0  0  0  0
  7  8  1  0  0  0  0
  7  9  1  0  0  0  0
  9 10  1  0  0  0  0
  9 11  1  0  0  0  0
  9 22  1  0  0  0  0
 11 12  1  0  0  0  0
 11 13  1  0  0  0  0
 11 14  1  0  0  0  0
 14 15  1  0  0  0  0
 14 20  2  0  0  0  0
 15 16  2  0  0  0  0
 16 17  1  0  0  0  0
 16 18  1  0  0  0  0
 18 19  1  0  0  0  0
 18 20  1  0  0  0  0
 20 21  1  0  0  0  0
 22 23  2  0  0  0  0
 22 24  1  0  0  0  0
 24 25  1  0  0  0  0
 24 26  1  0  0  0  0
 26 27  1  0  0  0  0
 26 28  1  0  0  0  0
 26 29  1  0  0  0  0
M  END
$$$$

  -OEChem-04042215593D

 29 29  0     1  0  0  0  0  0999 V2000
   -2.4673   -4.4853    0.3772 H   0  0  0  0  0  0  0  0  0  0  0  0
   -2.6389   -3.4656    0.0205 C   0  0  0  0  0  0  0  0  0  0  0  0
   -3.3056   -2.9567    0.7206 H   0  0  0  0  0  0  0  0  0  0  0  0
   -3.1158   -3.5131   -0.9613 H   0  0  0  0  0  0  0  0  0  0  0  0
   -1.3211   -2.7200   -0.0771 C   0  0  0  0  0  0  0  0  0  0  0  0
   -0.2842   -3.2846    0.2176 O   0  0  0  0  0  0  0  0  0  0  0  0
   -1.3077   -1.4092   -0.5109 N   0  0  0  0  0  0  0  0  0  0  0  0
   -2.2077   -0.9786   -0.6881 H   0  0  0  0  0  0  0  0  0  0  0  0
   -0.1050   -0.5562   -0.5138 C   0  0  1  0  0  0  0  0  0  0  0  0
    0.6512   -1.0839   -1.1061 H   0  0  0  0  0  0  0  0  0  0  0  0
   -0.4224    0.7461   -1.2716 C   0  0  0  0  0  0  0  0  0  0  0  0
    0.5166    1.2555   -1.5109 H   0  0  0  0  0  0  0  0  0  0  0  0
   -0.9124    0.5050   -2.2191 H   0  0  0  0  0  0  0  0  0  0  0  0
   -1.2807    1.6970   -0.4860 C   0  0  0  0  0  0  0  0  0  0  0  0
   -0.7944    2.6773    0.3649 N   0  0  0  0  0  0  0  0  0  0  0  0
   -1.8298    3.3485    0.8060 C   0  0  0  0  0  0  0  0  0  0  0  0
   -1.7798    4.1902    1.4912 H   0  0  0  0  0  0  0  0  0  0  0  0
   -2.9892    2.8268    0.2634 N   0  0  0  0  0  0  0  0  0  0  0  0
   -3.9254    3.1989    0.4167 H   0  0  0  0  0  0  0  0  0  0  0  0
   -2.6434    1.7860   -0.5737 C   0  0  0  0  0  0  0  0  0  0  0  0
   -3.2978    1.1853   -1.1977 H   0  0  0  0  0  0  0  0  0  0  0  0
    0.5516   -0.3215    0.8698 C   0  0  0  0  0  0  0  0  0  0  0  0
    1.7722   -0.3246    0.9683 O   0  0  0  0  0  0  0  0  0  0  0  0
   -0.2178   -0.0141    1.9794 N   0  0  0  0  0  0  0  0  0  0  0  0
   -1.1838    0.2310    1.7937 H   0  0  0  0  0  0  0  0  0  0  0  0
    0.3697    0.4036    3.2453 C   0  0  0  0  0  0  0  0  0  0  0  0
    0.9030    1.3521    3.1233 H   0  0  0  0  0  0  0  0  0  0  0  0
   -0.4116    0.5364    3.9992 H   0  0  0  0  0  0  0  0  0  0  0  0
    1.0730   -0.3528    3.6097 H   0  0  0  0  0  0  0  0  0  0  0  0
  1  2  1  0  0  0  0
  2  3  1  0  0  0  0
  2  4  1  0  0  0  0
  2  5  1  0  0  0  0
  5  6  2  0  0  0  0
  5  7  1  0  0  0  0
  7  8  1  0  0  0  0
  7  9  1  0  0  0  0
  9 10  1  0  0  0  0
  9 11  1  0  0  0  0
  9 22  1  0  0  0  0
 11 12  1  0  0  0  0
 11 13  1  0  0  0  0
 11 14  1  0  0  0  0
 14 15  1  0  0  0  0
 14 20  2  0  0  0  0
 15 16  2  0  0  0  0
 16 17  1  0  0  0  0
 16 18  1  0  0  0  0
 18 19  1  0  0  0  0
 18 20  1  0  0  0  0
 20 21  1  0  0  0  0
 22 23  2  0  0  0  0
 22 24  1  0  0  0  0
 24 25  1  0  0  0  0
 24 26  1  0  0  0  0
 26 27  1  0  0  0  0
 26 28  1  0  0  0  0
 26 29  1  0  0  0  0
M  END
$$$$

  -OEChem-04042215593D

 29 29  0     1  0  0  0  0  0999 V2000
   -2.4701   -4.5444    0.3119 H   0  0  0  0  0  0  0  0  0  0  0  0
   -2.6358   -3.5379   -0.0836 C   0  0  0  0  0  0  0  0  0  0  0  0
   -3.4267   -3.0581    0.4978 H   0  0  0  0  0  0  0  0  0  0  0  0
   -2.9542   -3.6197   -1.1255 H   0  0  0  0  0  0  0  0  0  0  0  0
   -1.3577   -2.7252    0.0077 C   0  0  0  0  0  0  0  0  0  0  0  0
   -0.3574   -3.2257    0.4865 O   0  0  0  0  0  0  0  0  0  0  0  0
   -1.3374   -1.4282   -0.4662 N   0  0  0  0  0  0  0  0  0  0  0  0
   -2.1699   -1.1056   -0.9455 H   0  0  0  0  0  0  0  0  0  0  0  0
   -0.1303   -0.5813   -0.5051 C   0  0  1  0  0  0  0  0  0  0  0  0
    0.6178   -1.1221   -1.0957 H   0  0  0  0  0  0  0  0  0  0  0  0
   -0.4498    0.7196   -1.2664 C   0  0  0  0  0  0  0  0  0  0  0  0
    0.4908    1.2144   -1.5296 H   0  0  0  0  0  0  0  0  0  0  0  0
   -0.9643    0.4820   -2.2013 H   0  0  0  0  0  0  0  0  0  0  0  0
   -1.2798    1.6888   -0.4713 C   0  0  0  0  0  0  0  0  0  0  0  0
   -0.7676    2.8385    0.1094 N   0  0  0  0  0  0  0  0  0  0  0  0
   -1.7692    3.4516    0.6898 C   0  0  0  0  0  0  0  0  0  0  0  0
   -1.6921    4.3870    1.2371 H   0  0  0  0  0  0  0  0  0  0  0  0
   -2.9333    2.7321    0.4947 N   0  0  0  0  0  0  0  0  0  0  0  0
   -3.8554    3.0115    0.8256 H   0  0  0  0  0  0  0  0  0  0  0  0
   -2.6299    1.6152   -0.2563 C   0  0  0  0  0  0  0  0  0  0  0  0
   -3.3091    0.8498   -0.6155 H   0  0  0  0  0  0  0  0  0  0  0  0
    0.5382   -0.3079    0.8659 C   0  0  0  0  0  0  0  0  0  0  0  0
    1.7595   -0.2619    0.9433 O   0  0  0  0  0  0  0  0  0  0  0  0
   -0.2234    0.0360    1.9698 N   0  0  0  0  0  0  0  0  0  0  0  0
   -1.2192    0.1490    1.8173 H   0  0  0  0  0  0  0  0  0  0  0  0
    0.3578    0.5132    3.2168 C   0  0  0  0  0  0  0  0  0  0  0  0
    0.8764    1.4642    3.0560 H   0  0  0  0  0  0  0  0  0  0  0  0
   -0.4255    0.6654    3.9651 H   0  0  0  0  0  0  0  0  0  0  0  0
    1.0728   -0.2172    3.6104 H   0  0  0  0  0  0  0  0  0  0  0  0
  1  2  1  0  0  0  0
  2  3  1  0  0  0  0
  2  4  1  0  0  0  0
  2  5  1  0  0  0  0
  5  6  2  0  0  0  0
  5  7  1  0  0  0  0
  7  8  1  0  0  0  0
  7  9  1  0  0  0  0
  9 10  1  0  0  0  0
  9 11  1  0  0  0  0
  9 22  1  0  0  0  0
 11 12  1  0  0  0  0
 11 13  1  0  0  0  0
 11 14  1  0  0  0  0
 14 15  1  0  0  0  0
 14 20  2  0  0  0  0
 15 16  2  0  0  0  0
 16 17  1  0  0  0  0
 16 18  1  0  0  0  0
 18 19  1  0  0  0  0
 18 20  1  0  0  0  0
 20 21  1  0  0  0  0
 22 23  2  0  0  0  0
 22 24  1  0  0  0  0
 24 25  1  0  0  0  0
 24 26  1  0  0  0  0
 26 27  1  0  0  0  0
 26 28  1  0  0  0  0
 26 29  1  0  0  0  0
M  END
$$$$

  -OEChem-04042215593D

 29 29  0     1  0  0  0  0  0999 V2000
   -2.4433   -4.5705    0.3220 H   0  0  0  0  0  0  0  0  0  0  0  0
   -2.6063   -3.5866   -0.1275 C   0  0  0  0  0  0  0  0  0  0  0  0
   -3.4587   -3.1132    0.3651 H   0  0  0  0  0  0  0  0  0  0  0  0
   -2.8315   -3.7189   -1.1884 H   0  0  0  0  0  0  0  0  0  0  0  0
   -1.3666   -2.7278    0.0381 C   0  0  0  0  0  0  0  0  0  0  0  0
   -0.3864   -3.1871    0.5932 O   0  0  0  0  0  0  0  0  0  0  0  0
   -1.3599   -1.4359   -0.4510 N   0  0  0  0  0  0  0  0  0  0  0  0
   -2.1456   -1.1797   -1.0386 H   0  0  0  0  0  0  0  0  0  0  0  0
   -0.1543   -0.5863   -0.5025 C   0  0  1  0  0  0  0  0  0  0  0  0
    0.5917   -1.1280   -1.0953 H   0  0  0  0  0  0  0  0  0  0  0  0
   -0.4822    0.7134   -1.2639 C   0  0  0  0  0  0  0  0  0  0  0  0
    0.4616    1.2022   -1.5275 H   0  0  0  0  0  0  0  0  0  0  0  0
   -0.9965    0.4788   -2.1997 H   0  0  0  0  0  0  0  0  0  0  0  0
   -1.3063    1.6989   -0.4789 C   0  0  0  0  0  0  0  0  0  0  0  0
   -0.8635    2.9791   -0.1839 N   0  0  0  0  0  0  0  0  0  0  0  0
   -1.8093    3.5596    0.5120 C   0  0  0  0  0  0  0  0  0  0  0  0
   -1.7627    4.5736    0.8989 H   0  0  0  0  0  0  0  0  0  0  0  0
   -2.8715    2.6900    0.6736 N   0  0  0  0  0  0  0  0  0  0  0  0
   -3.7361    2.9085    1.1658 H   0  0  0  0  0  0  0  0  0  0  0  0
   -2.5596    1.5051    0.0400 C   0  0  0  0  0  0  0  0  0  0  0  0
   -3.1693    0.6113   -0.0343 H   0  0  0  0  0  0  0  0  0  0  0  0
    0.5236   -0.2938    0.8606 C   0  0  0  0  0  0  0  0  0  0  0  0
    1.7447   -0.2304    0.9244 O   0  0  0  0  0  0  0  0  0  0  0  0
   -0.2280    0.0618    1.9674 N   0  0  0  0  0  0  0  0  0  0  0  0
   -1.2325    0.1171    1.8418 H   0  0  0  0  0  0  0  0  0  0  0  0
    0.3582    0.5147    3.2212 C   0  0  0  0  0  0  0  0  0  0  0  0
    0.9153    1.4449    3.0676 H   0  0  0  0  0  0  0  0  0  0  0  0
   -0.4264    0.6968    3.9613 H   0  0  0  0  0  0  0  0  0  0  0  0
    1.0397   -0.2437    3.6207 H   0  0  0  0  0  0  0  0  0  0  0  0
  1  2  1  0  0  0  0
  2  3  1  0  0  0  0
  2  4  1  0  0  0  0
  2  5  1  0  0  0  0
  5  6  2  0  0  0  0
  5  7  1  0  0  0  0
  7  8  1  0  0  0  0
  7  9  1  0  0  0  0
  9 10  1  0  0  0  0
  9 11  1  0  0  0  0
  9 22  1  0  0  0  0
 11 12  1  0  0  0  0
 11 13  1  0  0  0  0
 11 14  1  0  0  0  0
 14 15  1  0  0  0  0
 14 20  2  0  0  0  0
 15 16  2  0  0  0  0
 16 17  1  0  0  0  0
 16 18  1  0  0  0  0
 18 19  1  0  0  0  0
 18 20  1  0  0  0  0
 20 21  1  0  0  0  0
 22 23  2  0  0  0  0
 22 24  1  0  0  0  0
 24 25  1  0  0  0  0
 24 26  1  0  0  0  0
 26 27  1  0  0  0  0
 26 28  1  0  0  0  0
 26 29  1  0  0  0  0
M  END
$$$$

  -OEChem-04042215593D

 29 29  0     1  0  0  0  0  0999 V2000
   -2.3879   -4.6083    0.2798 H   0  0  0  0  0  0  0  0  0  0  0  0
   -2.5749   -3.6153   -0.1394 C   0  0  0  0  0  0  0  0  0  0  0  0
   -3.4377   -3.1768    0.3676 H   0  0  0  0  0  0  0  0  0  0  0  0
   -2.7987   -3.7213   -1.2035 H   0  0  0  0  0  0  0  0  0  0  0  0
   -1.3557   -2.7321    0.0499 C   0  0  0  0  0  0  0  0  0  0  0  0
   -0.3761   -3.1708    0.6225 O   0  0  0  0  0  0  0  0  0  0  0  0
   -1.3714   -1.4343   -0.4226 N   0  0  0  0  0  0  0  0  0  0  0  0
   -2.1582   -1.1886   -1.0148 H   0  0  0  0  0  0  0  0  0  0  0  0
   -0.1763   -0.5703   -0.4802 C   0  0  1  0  0  0  0  0  0  0  0  0
    0.5653   -1.1083   -1.0813 H   0  0  0  0  0  0  0  0  0  0  0  0
   -0.5147    0.7237   -1.2473 C   0  0  0  0  0  0  0  0  0  0  0  0
    0.4314    1.2130   -1.5023 H   0  0  0  0  0  0  0  0  0  0  0  0
   -1.0153    0.4831   -2.1888 H   0  0  0  0  0  0  0  0  0  0  0  0
   -1.3487    1.7234   -0.4889 C   0  0  0  0  0  0  0  0  0  0  0  0
   -1.0505    3.0779   -0.4790 N   0  0  0  0  0  0  0  0  0  0  0  0
   -1.9476    3.6613    0.2770 C   0  0  0  0  0  0  0  0  0  0  0  0
   -1.9823    4.7257    0.4911 H   0  0  0  0  0  0  0  0  0  0  0  0
   -2.8415    2.7213    0.7534 N   0  0  0  0  0  0  0  0  0  0  0  0
   -3.6321    2.9225    1.3632 H   0  0  0  0  0  0  0  0  0  0  0  0
   -2.4694    1.4864    0.2648 C   0  0  0  0  0  0  0  0  0  0  0  0
   -2.9515    0.5311    0.4401 H   0  0  0  0  0  0  0  0  0  0  0  0
    0.5285   -0.2789    0.8692 C   0  0  0  0  0  0  0  0  0  0  0  0
    1.7483   -0.1781    0.8982 O   0  0  0  0  0  0  0  0  0  0  0  0
   -0.1955    0.0588    1.9990 N   0  0  0  0  0  0  0  0  0  0  0  0
   -1.2041   -0.0190    1.9413 H   0  0  0  0  0  0  0  0  0  0  0  0
    0.4197    0.4236    3.2678 C   0  0  0  0  0  0  0  0  0  0  0  0
    1.0479    1.3124    3.1466 H   0  0  0  0  0  0  0  0  0  0  0  0
   -0.3511    0.6444    4.0119 H   0  0  0  0  0  0  0  0  0  0  0  0
    1.0386   -0.3986    3.6424 H   0  0  0  0  0  0  0  0  0  0  0  0
  1  2  1  0  0  0  0
  2  3  1  0  0  0  0
  2  4  1  0  0  0  0
  2  5  1  0  0  0  0
  5  6  2  0  0  0  0
  5  7  1  0  0  0  0
  7  8  1  0  0  0  0
  7  9  1  0  0  0  0
  9 10  1  0  0  0  0
  9 11  1  0  0  0  0
  9 22  1  0  0  0  0
 11 12  1  0  0  0  0
 11 13  1  0  0  0  0
 11 14  1  0  0  0  0
 14 15  1  0  0  0  0
 14 20  2  0  0  0  0
 15 16  2  0  0  0  0
 16 17  1  0  0  0  0
 16 18  1  0  0  0  0
 18 19  1  0  0  0  0
 18 20  1  0  0  0  0
 20 21  1  0  0  0  0
 22 23  2  0  0  0  0
 22 24  1  0  0  0  0
 24 25  1  0  0  0  0
 24 26  1  0  0  0  0
 26 27  1  0  0  0  0
 26 28  1  0  0  0  0
 26 29  1  0  0  0  0
M  END
$$$$

  -OEChem-04042215593D

 29 29  0     1  0  0  0  0  0999 V2000
   -2.3432   -4.6399    0.2218 H   0  0  0  0  0  0  0  0  0  0  0  0
   -2.5530   -3.6354   -0.1573 C   0  0  0  0  0  0  0  0  0  0  0  0
   -3.4199   -3.2337    0.3725 H   0  0  0  0  0  0  0  0  0  0  0  0
   -2.7841   -3.7050   -1.2230 H   0  0  0  0  0  0  0  0  0  0  0  0
   -1.3494   -2.7369    0.0561 C   0  0  0  0  0  0  0  0  0  0  0  0
   -0.3632   -3.1706    0.6218 O   0  0  0  0  0  0  0  0  0  0  0  0
   -1.3866   -1.4270   -0.3794 N   0  0  0  0  0  0  0  0  0  0  0  0
   -2.1879   -1.1712   -0.9481 H   0  0  0  0  0  0  0  0  0  0  0  0
   -0.2007   -0.5516   -0.4402 C   0  0  1  0  0  0  0  0  0  0  0  0
    0.5305   -1.0852   -1.0584 H   0  0  0  0  0  0  0  0  0  0  0  0
   -0.5423    0.7395   -1.2100 C   0  0  0  0  0  0  0  0  0  0  0  0
    0.4050    1.2285   -1.4602 H   0  0  0  0  0  0  0  0  0  0  0  0
   -1.0335    0.4917   -2.1546 H   0  0  0  0  0  0  0  0  0  0  0  0
   -1.3828    1.7539   -0.4787 C   0  0  0  0  0  0  0  0  0  0  0  0
   -1.2652    3.1123   -0.7359 N   0  0  0  0  0  0  0  0  0  0  0  0
   -2.1226    3.7247    0.0432 C   0  0  0  0  0  0  0  0  0  0  0  0
   -2.2656    4.8010    0.0846 H   0  0  0  0  0  0  0  0  0  0  0  0
   -2.8190    2.7974    0.7940 N   0  0  0  0  0  0  0  0  0  0  0  0
   -3.5400    3.0208    1.4778 H   0  0  0  0  0  0  0  0  0  0  0  0
   -2.3600    1.5409    0.4587 C   0  0  0  0  0  0  0  0  0  0  0  0
   -2.6949    0.5864    0.8484 H   0  0  0  0  0  0  0  0  0  0  0  0
    0.5425   -0.2833    0.8933 C   0  0  0  0  0  0  0  0  0  0  0  0
    1.7578   -0.1370    0.8760 O   0  0  0  0  0  0  0  0  0  0  0  0
   -0.1448    0.0209    2.0551 N   0  0  0  0  0  0  0  0  0  0  0  0
   -1.1345   -0.1946    2.0643 H   0  0  0  0  0  0  0  0  0  0  0  0
    0.5209    0.3196    3.3163 C   0  0  0  0  0  0  0  0  0  0  0  0
    1.1668    1.1975    3.2096 H   0  0  0  0  0  0  0  0  0  0  0  0
   -0.2192    0.5295    4.0942 H   0  0  0  0  0  0  0  0  0  0  0  0
    1.1314   -0.5311    3.6371 H   0  0  0  0  0  0  0  0  0  0  0  0
  1  2  1  0  0  0  0
  2  3  1  0  0  0  0
  2  4  1  0  0  0  0
  2  5  1  0  0  0  0
  5  6  2  0  0  0  0
  5  7  1  0  0  0  0
  7  8  1  0  0  0  0
  7  9  1  0  0  0  0
  9 10  1  0  0  0  0
  9 11  1  0  0  0  0
  9 22  1  0  0  0  0
 11 12  1  0  0  0  0
 11 13  1  0  0  0  0
 11 14  1  0  0  0  0
 14 15  1  0  0  0  0
 14 20  2  0  0  0  0
 15 16  2  0  0  0  0
 16 17  1  0  0  0  0
 16 18  1  0  0  0  0
 18 19  1  0  0  0  0
 18 20  1  0  0  0  0
 20 21  1  0  0  0  0
 22 23  2  0  0  0  0
 22 24  1  0  0  0  0
 24 25  1  0  0  0  0
 24 26  1  0  0  0  0
 26 27  1  0  0  0  0
 26 28  1  0  0  0  0
 26 29  1  0  0  0  0
M  END
$$$$

  -OEChem-04042215593D

 29 29  0     1  0  0  0  0  0999 V2000
   -2.3268   -4.6494    0.1730 H   0  0  0  0  0  0  0  0  0  0  0  0
   -2.5489   -3.6340   -0.1678 C   0  0  0  0  0  0  0  0  0  0  0  0
   -3.4041   -3.2531    0.3956 H   0  0  0  0  0  0  0  0  0  0  0  0
   -2.8055   -3.6690   -1.2294 H   0  0  0  0  0  0  0  0  0  0  0  0
   -1.3430   -2.7384    0.0459 C   0  0  0  0  0  0  0  0  0  0  0  0
   -0.3438   -3.1832    0.5798 O   0  0  0  0  0  0  0  0  0  0  0  0
   -1.3946   -1.4137   -0.3390 N   0  0  0  0  0  0  0  0  0  0  0  0
   -2.2173   -1.1332   -0.8646 H   0  0  0  0  0  0  0  0  0  0  0  0
   -0.2159   -0.5297   -0.3974 C   0  0  1  0  0  0  0  0  0  0  0  0
    0.5035   -1.0585   -1.0335 H   0  0  0  0  0  0  0  0  0  0  0  0
   -0.5564    0.7617   -1.1680 C   0  0  0  0  0  0  0  0  0  0  0  0
    0.3916    1.2503   -1.4159 H   0  0  0  0  0  0  0  0  0  0  0  0
   -1.0410    0.5057   -2.1142 H   0  0  0  0  0  0  0  0  0  0  0  0
   -1.4034    1.7891   -0.4632 C   0  0  0  0  0  0  0  0  0  0  0  0
   -1.4959    3.0861   -0.9494 N   0  0  0  0  0  0  0  0  0  0  0  0
   -2.3193    3.7340   -0.1625 C   0  0  0  0  0  0  0  0  0  0  0  0
   -2.5916    4.7798   -0.2730 H   0  0  0  0  0  0  0  0  0  0  0  0
   -2.7941    2.8846    0.8175 N   0  0  0  0  0  0  0  0  0  0  0  0
   -3.4454    3.1468    1.5553 H   0  0  0  0  0  0  0  0  0  0  0  0
   -2.2281    1.6425    0.6208 C   0  0  0  0  0  0  0  0  0  0  0  0
   -2.4019    0.7392    1.1931 H   0  0  0  0  0  0  0  0  0  0  0  0
    0.5670   -0.2998    0.9204 C   0  0  0  0  0  0  0  0  0  0  0  0
    1.7742   -0.1044    0.8606 O   0  0  0  0  0  0  0  0  0  0  0  0
   -0.0830   -0.0408    2.1143 N   0  0  0  0  0  0  0  0  0  0  0  0
   -1.0385   -0.3726    2.1735 H   0  0  0  0  0  0  0  0  0  0  0  0
    0.6338    0.2197    3.3565 C   0  0  0  0  0  0  0  0  0  0  0  0
    1.2772    1.0995    3.2505 H   0  0  0  0  0  0  0  0  0  0  0  0
   -0.0740    0.4080    4.1692 H   0  0  0  0  0  0  0  0  0  0  0  0
    1.2547   -0.6410    3.6271 H   0  0  0  0  0  0  0  0  0  0  0  0
  1  2  1  0  0  0  0
  2  3  1  0  0  0  0
  2  4  1  0  0  0  0
  2  5  1  0  0  0  0
  5  6  2  0  0  0  0
  5  7  1  0  0  0  0
  7  8  1  0  0  0  0
  7  9  1  0  0  0  0
  9 10  1  0  0  0  0
  9 11  1  0  0  0  0
  9 22  1  0  0  0  0
 11 12  1  0  0  0  0
 11 13  1  0  0  0  0
 11 14  1  0  0  0  0
 14 15  1  0  0  0  0
 14 20  2  0  0  0  0
 15 16  2  0  0  0  0
 16 17  1  0  0  0  0
 16 18  1  0  0  0  0
 18 19  1  0  0  0  0
 18 20  1  0  0  0  0
 20 21  1  0  0  0  0
 22 23  2  0  0  0  0
 22 24  1  0  0  0  0
 24 25  1  0  0  0  0
 24 26  1  0  0  0  0
 26 27  1  0  0  0  0
 26 28  1  0  0  0  0
 26 29  1  0  0  0  0
M  END
$$$$

  -OEChem-04042215593D

 29 29  0     1  0  0  0  0  0999 V2000
   -2.4543   -4.5897   -0.0128 H   0  0  0  0  0  0  0  0  0  0  0  0
   -2.6519   -3.5429   -0.2611 C   0  0  0  0  0  0  0  0  0  0  0  0
   -3.4613   -3.1777    0.3753 H   0  0  0  0  0  0  0  0  0  0  0  0
   -2.9632   -3.4833   -1.3068 H   0  0  0  0  0  0  0  0  0  0  0  0
   -1.4019   -2.7108   -0.0444 C   0  0  0  0  0  0  0  0  0  0  0  0
   -0.3860   -3.2383    0.3701 O   0  0  0  0  0  0  0  0  0  0  0  0
   -1.4293   -1.3525   -0.2899 N   0  0  0  0  0  0  0  0  0  0  0  0
   -2.2838   -0.9848   -0.6981 H   0  0  0  0  0  0  0  0  0  0  0  0
   -0.2342   -0.4899   -0.3076 C   0  0  1  0  0  0  0  0  0  0  0  0
    0.4497   -1.0225   -0.9793 H   0  0  0  0  0  0  0  0  0  0  0  0
   -0.5110    0.8254   -1.0708 C   0  0  0  0  0  0  0  0  0  0  0  0
    0.4431    1.1386   -1.5069 H   0  0  0  0  0  0  0  0  0  0  0  0
   -1.1834    0.6127   -1.9066 H   0  0  0  0  0  0  0  0  0  0  0  0
   -1.0423    2.0401   -0.3514 C   0  0  0  0  0  0  0  0  0  0  0  0
   -1.2694    3.1935   -1.0934 N   0  0  0  0  0  0  0  0  0  0  0  0
   -1.7533    4.0956   -0.2761 C   0  0  0  0  0  0  0  0  0  0  0  0
   -2.0208    5.1105   -0.5560 H   0  0  0  0  0  0  0  0  0  0  0  0
   -1.8801    3.5555    0.9866 N   0  0  0  0  0  0  0  0  0  0  0  0
   -2.2255    4.0525    1.8054 H   0  0  0  0  0  0  0  0  0  0  0  0
   -1.4485    2.2467    0.9412 C   0  0  0  0  0  0  0  0  0  0  0  0
   -1.4460    1.5441    1.7618 H   0  0  0  0  0  0  0  0  0  0  0  0
    0.5989   -0.4161    0.9954 C   0  0  0  0  0  0  0  0  0  0  0  0
    1.8028   -0.2098    0.9147 O   0  0  0  0  0  0  0  0  0  0  0  0
   -0.0082   -0.2735    2.2305 N   0  0  0  0  0  0  0  0  0  0  0  0
   -0.9627   -0.6144    2.2830 H   0  0  0  0  0  0  0  0  0  0  0  0
    0.7561   -0.1771    3.4687 C   0  0  0  0  0  0  0  0  0  0  0  0
    1.3979    0.7103    3.4549 H   0  0  0  0  0  0  0  0  0  0  0  0
    0.0805   -0.0991    4.3258 H   0  0  0  0  0  0  0  0  0  0  0  0
    1.3845   -1.0645    3.6006 H   0  0  0  0  0  0  0  0  0  0  0  0
  1  2  1  0  0  0  0
  2  3  1  0  0  0  0
  2  4  1  0  0  0  0
  2  5  1  0  0  0  0
  5  6  2  0  0  0  0
  5  7  1  0  0  0  0
  7  8  1  0  0  0  0
  7  9  1  0  0  0  0
  9 10  1  0  0  0  0
  9 11  1  0  0  0  0
  9 22  1  0  0  0  0
 11 12  1  0  0  0  0
 11 13  1  0  0  0  0
 11 14  1  0  0  0  0
 14 15  1  0  0  0  0
 14 20  2  0  0  0  0
 15 16  2  0  0  0  0
 16 17  1  0  0  0  0
 16 18  1  0  0  0  0
 18 19  1  0  0  0  0
 18 20  1  0  0  0  0
 20 21  1  0  0  0  0
 22 23  2  0  0  0  0
 22 24  1  0  0  0  0
 24 25  1  0  0  0  0
 24 26  1  0  0  0  0
 26 27  1  0  0  0  0
 26 28  1  0  0  0  0
 26 29  1  0  0  0  0
M  END
$$$$

  -OEChem-04042215593D

 29 29  0     1  0  0  0  0  0999 V2000
   -2.3468   -4.6166    0.0884 H   0  0  0  0  0  0  0  0  0  0  0  0
   -2.5721   -3.5756   -0.1607 C   0  0  0  0  0  0  0  0  0  0  0  0
   -3.3418   -3.2091    0.5228 H   0  0  0  0  0  0  0  0  0  0  0  0
   -2.9531   -3.5344   -1.1840 H   0  0  0  0  0  0  0  0  0  0  0  0
   -1.3200   -2.7275   -0.0384 C   0  0  0  0  0  0  0  0  0  0  0  0
   -0.2686   -3.2404    0.2985 O   0  0  0  0  0  0  0  0  0  0  0  0
   -1.3847   -1.3706   -0.2841 N   0  0  0  0  0  0  0  0  0  0  0  0
   -2.2759   -1.0094   -0.6122 H   0  0  0  0  0  0  0  0  0  0  0  0
   -0.2163   -0.4733   -0.3394 C   0  0  1  0  0  0  0  0  0  0  0  0
    0.4689   -0.9732   -1.0343 H   0  0  0  0  0  0  0  0  0  0  0  0
   -0.5850    0.8339   -1.0813 C   0  0  0  0  0  0  0  0  0  0  0  0
    0.3266    1.1845   -1.5755 H   0  0  0  0  0  0  0  0  0  0  0  0
   -1.2938    0.5837   -1.8761 H   0  0  0  0  0  0  0  0  0  0  0  0
   -1.1331    2.0360   -0.3502 C   0  0  0  0  0  0  0  0  0  0  0  0
   -1.7317    3.0338   -1.1119 N   0  0  0  0  0  0  0  0  0  0  0  0
   -2.0928    3.9905   -0.2932 C   0  0  0  0  0  0  0  0  0  0  0  0
   -2.5843    4.9128   -0.5899 H   0  0  0  0  0  0  0  0  0  0  0  0
   -1.7500    3.6482    0.9975 N   0  0  0  0  0  0  0  0  0  0  0  0
   -1.8846    4.2379    1.8169 H   0  0  0  0  0  0  0  0  0  0  0  0
   -1.1308    2.4169    0.9665 C   0  0  0  0  0  0  0  0  0  0  0  0
   -0.6961    1.9040    1.8118 H   0  0  0  0  0  0  0  0  0  0  0  0
    0.6259   -0.3998    0.9562 C   0  0  0  0  0  0  0  0  0  0  0  0
    1.8242   -0.1639    0.8766 O   0  0  0  0  0  0  0  0  0  0  0  0
    0.0151   -0.2868    2.1932 N   0  0  0  0  0  0  0  0  0  0  0  0
   -0.9489   -0.6032    2.2336 H   0  0  0  0  0  0  0  0  0  0  0  0
    0.7716   -0.2119    3.4377 C   0  0  0  0  0  0  0  0  0  0  0  0
    1.4347    0.6597    3.4331 H   0  0  0  0  0  0  0  0  0  0  0  0
    0.0905   -0.1204    4.2890 H   0  0  0  0  0  0  0  0  0  0  0  0
    1.3770   -1.1146    3.5720 H   0  0  0  0  0  0  0  0  0  0  0  0
  1  2  1  0  0  0  0
  2  3  1  0  0  0  0
  2  4  1  0  0  0  0
  2  5  1  0  0  0  0
  5  6  2  0  0  0  0
  5  7  1  0  0  0  0
  7  8  1  0  0  0  0
  7  9  1  0  0  0  0
  9 10  1  0  0  0  0
  9 11  1  0  0  0  0
  9 22  1  0  0  0  0
 11 12  1  0  0  0  0
 11 13  1  0  0  0  0
 11 14  1  0  0  0  0
 14 15  1  0  0  0  0
 14 20  2  0  0  0  0
 15 16  2  0  0  0  0
 16 17  1  0  0  0  0
 16 18  1  0  0  0  0
 18 19  1  0  0  0  0
 18 20  1  0  0  0  0
 20 21  1  0  0  0  0
 22 23  2  0  0  0  0
 22 24  1  0  0  0  0
 24 25  1  0  0  0  0
 24 26  1  0  0  0  0
 26 27  1  0  0  0  0
 26 28  1  0  0  0  0
 26 29  1  0  0  0  0
M  END
$$$$

  -OEChem-04042215593D

 29 29  0     1  0  0  0  0  0999 V2000
   -2.4417   -4.5708    0.1884 H   0  0  0  0  0  0  0  0  0  0  0  0
   -2.6308   -3.5354   -0.1089 C   0  0  0  0  0  0  0  0  0  0  0  0
   -3.3923   -3.1136    0.5513 H   0  0  0  0  0  0  0  0  0  0  0  0
   -3.0027   -3.5277   -1.1363 H   0  0  0  0  0  0  0  0  0  0  0  0
   -1.3521   -2.7245   -0.0144 C   0  0  0  0  0  0  0  0  0  0  0  0
   -0.3212   -3.2564    0.3552 O   0  0  0  0  0  0  0  0  0  0  0  0
   -1.3677   -1.3812   -0.3325 N   0  0  0  0  0  0  0  0  0  0  0  0
   -2.2446   -1.0029   -0.6802 H   0  0  0  0  0  0  0  0  0  0  0  0
   -0.1741   -0.5171   -0.3836 C   0  0  1  0  0  0  0  0  0  0  0  0
    0.5292   -1.0326   -1.0478 H   0  0  0  0  0  0  0  0  0  0  0  0
   -0.5347    0.7926   -1.1263 C   0  0  0  0  0  0  0  0  0  0  0  0
    0.3738    1.1406   -1.6267 H   0  0  0  0  0  0  0  0  0  0  0  0
   -1.2541    0.5586   -1.9166 H   0  0  0  0  0  0  0  0  0  0  0  0
   -1.0596    1.9788   -0.3553 C   0  0  0  0  0  0  0  0  0  0  0  0
   -1.9391    2.8587   -0.9763 N   0  0  0  0  0  0  0  0  0  0  0  0
   -2.1342    3.8601   -0.1532 C   0  0  0  0  0  0  0  0  0  0  0  0
   -2.7767    4.7134   -0.3513 H   0  0  0  0  0  0  0  0  0  0  0  0
   -1.3898    3.6726    0.9926 N   0  0  0  0  0  0  0  0  0  0  0  0
   -1.3169    4.3365    1.7615 H   0  0  0  0  0  0  0  0  0  0  0  0
   -0.6774    2.5011    0.8527 C   0  0  0  0  0  0  0  0  0  0  0  0
    0.0834    2.1193    1.5255 H   0  0  0  0  0  0  0  0  0  0  0  0
    0.5896   -0.4183    0.9572 C   0  0  0  0  0  0  0  0  0  0  0  0
    1.7971   -0.2185    0.9499 O   0  0  0  0  0  0  0  0  0  0  0  0
   -0.1016   -0.2348    2.1433 N   0  0  0  0  0  0  0  0  0  0  0  0
   -1.0890   -0.4698    2.1194 H   0  0  0  0  0  0  0  0  0  0  0  0
    0.5616   -0.1423    3.4381 C   0  0  0  0  0  0  0  0  0  0  0  0
    1.2640    0.6978    3.4530 H   0  0  0  0  0  0  0  0  0  0  0  0
   -0.1772    0.0136    4.2299 H   0  0  0  0  0  0  0  0  0  0  0  0
    1.1119   -1.0649    3.6514 H   0  0  0  0  0  0  0  0  0  0  0  0
  1  2  1  0  0  0  0
  2  3  1  0  0  0  0
  2  4  1  0  0  0  0
  2  5  1  0  0  0  0
  5  6  2  0  0  0  0
  5  7  1  0  0  0  0
  7  8  1  0  0  0  0
  7  9  1  0  0  0  0
  9 10  1  0  0  0  0
  9 11  1  0  0  0  0
  9 22  1  0  0  0  0
 11 12  1  0  0  0  0
 11 13  1  0  0  0  0
 11 14  1  0  0  0  0
 14 15  1  0  0  0  0
 14 20  2  0  0  0  0
 15 16  2  0  0  0  0
 16 17  1  0  0  0  0
 16 18  1  0  0  0  0
 18 19  1  0  0  0  0
 18 20  1  0  0  0  0
 20 21  1  0  0  0  0
 22 23  2  0  0  0  0
 22 24  1  0  0  0  0
 24 25  1  0  0  0  0
 24 26  1  0  0  0  0
 26 27  1  0  0  0  0
 26 28  1  0  0  0  0
 26 29  1  0  0  0  0
M  END
$$$$

  -OEChem-04042215593D

 29 29  0     1  0  0  0  0  0999 V2000
   -2.4724   -4.5423    0.2364 H   0  0  0  0  0  0  0  0  0  0  0  0
   -2.6452   -3.5112   -0.0849 C   0  0  0  0  0  0  0  0  0  0  0  0
   -3.3944   -3.0593    0.5695 H   0  0  0  0  0  0  0  0  0  0  0  0
   -3.0242   -3.5219   -1.1097 H   0  0  0  0  0  0  0  0  0  0  0  0
   -1.3525   -2.7201   -0.0183 C   0  0  0  0  0  0  0  0  0  0  0  0
   -0.3282   -3.2590    0.3601 O   0  0  0  0  0  0  0  0  0  0  0  0
   -1.3462   -1.3869   -0.3749 N   0  0  0  0  0  0  0  0  0  0  0  0
   -2.2224   -0.9937   -0.7082 H   0  0  0  0  0  0  0  0  0  0  0  0
   -0.1444   -0.5352   -0.4177 C   0  0  1  0  0  0  0  0  0  0  0  0
    0.5694   -1.0593   -1.0639 H   0  0  0  0  0  0  0  0  0  0  0  0
   -0.4976    0.7720   -1.1635 C   0  0  0  0  0  0  0  0  0  0  0  0
    0.4159    1.1266   -1.6500 H   0  0  0  0  0  0  0  0  0  0  0  0
   -1.2136    0.5547   -1.9617 H   0  0  0  0  0  0  0  0  0  0  0  0
   -1.0174    1.9271   -0.3489 C   0  0  0  0  0  0  0  0  0  0  0  0
   -2.1202    2.6602   -0.7709 N   0  0  0  0  0  0  0  0  0  0  0  0
   -2.2385    3.6777    0.0482 C   0  0  0  0  0  0  0  0  0  0  0  0
   -3.0105    4.4394   -0.0143 H   0  0  0  0  0  0  0  0  0  0  0  0
   -1.2293    3.6420    0.9895 N   0  0  0  0  0  0  0  0  0  0  0  0
   -1.0706    4.3440    1.7100 H   0  0  0  0  0  0  0  0  0  0  0  0
   -0.4303    2.5524    0.7184 C   0  0  0  0  0  0  0  0  0  0  0  0
    0.4972    2.2684    1.2102 H   0  0  0  0  0  0  0  0  0  0  0  0
    0.5899   -0.3980    0.9366 C   0  0  0  0  0  0  0  0  0  0  0  0
    1.7987   -0.2041    0.9484 O   0  0  0  0  0  0  0  0  0  0  0  0
   -0.1244   -0.1696    2.1007 N   0  0  0  0  0  0  0  0  0  0  0  0
   -1.1202   -0.3624    2.0605 H   0  0  0  0  0  0  0  0  0  0  0  0
    0.5077   -0.0100    3.4042 C   0  0  0  0  0  0  0  0  0  0  0  0
    1.2051    0.8342    3.3928 H   0  0  0  0  0  0  0  0  0  0  0  0
   -0.2498    0.1802    4.1702 H   0  0  0  0  0  0  0  0  0  0  0  0
    1.0567   -0.9179    3.6758 H   0  0  0  0  0  0  0  0  0  0  0  0
  1  2  1  0  0  0  0
  2  3  1  0  0  0  0
  2  4  1  0  0  0  0
  2  5  1  0  0  0  0
  5  6  2  0  0  0  0
  5  7  1  0  0  0  0
  7  8  1  0  0  0  0
  7  9  1  0  0  0  0
  9 10  1  0  0  0  0
  9 11  1  0  0  0  0
  9 22  1  0  0  0  0
 11 12  1  0  0  0  0
 11 13  1  0  0  0  0
 11 14  1  0  0  0  0
 14 15  1  0  0  0  0
 14 20  2  0  0  0  0
 15 16  2  0  0  0  0
 16 17  1  0  0  0  0
 16 18  1  0  0  0  0
 18 19  1  0  0  0  0
 18 20  1  0  0  0  0
 20 21  1  0  0  0  0
 22 23  2  0  0  0  0
 22 24  1  0  0  0  0
 24 25  1  0  0  0  0
 24 26  1  0  0  0  0
 26 27  1  0  0  0  0
 26 28  1  0  0  0  0
 26 29  1  0  0  0  0
M  END
$$$$

  -OEChem-04042215593D

 29 29  0     1  0  0  0  0  0999 V2000
   -2.4990   -4.5100    0.2808 H   0  0  0  0  0  0  0  0  0  0  0  0
   -2.6602   -3.4828   -0.0585 C   0  0  0  0  0  0  0  0  0  0  0  0
   -3.3929   -3.0065    0.5974 H   0  0  0  0  0  0  0  0  0  0  0  0
   -3.0538   -3.5076   -1.0776 H   0  0  0  0  0  0  0  0  0  0  0  0
   -1.3538   -2.7120   -0.0260 C   0  0  0  0  0  0  0  0  0  0  0  0
   -0.3334   -3.2601    0.3499 O   0  0  0  0  0  0  0  0  0  0  0  0
   -1.3279   -1.3882   -0.4148 N   0  0  0  0  0  0  0  0  0  0  0  0
   -2.2064   -0.9740   -0.7154 H   0  0  0  0  0  0  0  0  0  0  0  0
   -0.1185   -0.5485   -0.4498 C   0  0  1  0  0  0  0  0  0  0  0  0
    0.6027   -1.0828   -1.0786 H   0  0  0  0  0  0  0  0  0  0  0  0
   -0.4567    0.7566   -1.2011 C   0  0  0  0  0  0  0  0  0  0  0  0
    0.4644    1.1109   -1.6738 H   0  0  0  0  0  0  0  0  0  0  0  0
   -1.1695    0.5571   -2.0067 H   0  0  0  0  0  0  0  0  0  0  0  0
   -0.9696    1.8837   -0.3496 C   0  0  0  0  0  0  0  0  0  0  0  0
   -2.2241    2.4465   -0.5460 N   0  0  0  0  0  0  0  0  0  0  0  0
   -2.2987    3.4825    0.2560 C   0  0  0  0  0  0  0  0  0  0  0  0
   -3.1600    4.1385    0.3437 H   0  0  0  0  0  0  0  0  0  0  0  0
   -1.1192    3.6201    0.9620 N   0  0  0  0  0  0  0  0  0  0  0  0
   -0.9120    4.3649    1.6251 H   0  0  0  0  0  0  0  0  0  0  0  0
   -0.2594    2.6226    0.5565 C   0  0  0  0  0  0  0  0  0  0  0  0
    0.7714    2.4547    0.8620 H   0  0  0  0  0  0  0  0  0  0  0  0
    0.5919   -0.3784    0.9141 C   0  0  0  0  0  0  0  0  0  0  0  0
    1.8027   -0.1970    0.9428 O   0  0  0  0  0  0  0  0  0  0  0  0
   -0.1415   -0.1113    2.0575 N   0  0  0  0  0  0  0  0  0  0  0  0
   -1.1444   -0.2567    1.9986 H   0  0  0  0  0  0  0  0  0  0  0  0
    0.4647    0.1187    3.3622 C   0  0  0  0  0  0  0  0  0  0  0  0
    1.1200    0.9953    3.3322 H   0  0  0  0  0  0  0  0  0  0  0  0
   -0.3113    0.2931    4.1135 H   0  0  0  0  0  0  0  0  0  0  0  0
    1.0543   -0.7522    3.6676 H   0  0  0  0  0  0  0  0  0  0  0  0
  1  2  1  0  0  0  0
  2  3  1  0  0  0  0
  2  4  1  0  0  0  0
  2  5  1  0  0  0  0
  5  6  2  0  0  0  0
  5  7  1  0  0  0  0
  7  8  1  0  0  0  0
  7  9  1  0  0  0  0
  9 10  1  0  0  0  0
  9 11  1  0  0  0  0
  9 22  1  0  0  0  0
 11 12  1  0  0  0  0
 11 13  1  0  0  0  0
 11 14  1  0  0  0  0
 14 15  1  0  0  0  0
 14 20  2  0  0  0  0
 15 16  2  0  0  0  0
 16 17  1  0  0  0  0
 16 18  1  0  0  0  0
 18 19  1  0  0  0  0
 18 20  1  0  0  0  0
 20 21  1  0  0  0  0
 22 23  2  0  0  0  0
 22 24  1  0  0  0  0
 24 25  1  0  0  0  0
 24 26  1  0  0  0  0
 26 27  1  0  0  0  0
 26 28  1  0  0  0  0
 26 29  1  0  0  0  0
M  END
$$$$

  -OEChem-04042215593D

 29 29  0     1  0  0  0  0  0999 V2000
   -2.5264   -4.4673    0.3361 H   0  0  0  0  0  0  0  0  0  0  0  0
   -2.6751   -3.4443   -0.0213 C   0  0  0  0  0  0  0  0  0  0  0  0
   -3.3705   -2.9350    0.6501 H   0  0  0  0  0  0  0  0  0  0  0  0
   -3.1072   -3.4820   -1.0242 H   0  0  0  0  0  0  0  0  0  0  0  0
   -1.3501   -2.7061   -0.0551 C   0  0  0  0  0  0  0  0  0  0  0  0
   -0.3287   -3.2741    0.2879 O   0  0  0  0  0  0  0  0  0  0  0  0
   -1.3076   -1.3892   -0.4650 N   0  0  0  0  0  0  0  0  0  0  0  0
   -2.1918   -0.9441   -0.6986 H   0  0  0  0  0  0  0  0  0  0  0  0
   -0.0901   -0.5618   -0.4882 C   0  0  1  0  0  0  0  0  0  0  0  0
    0.6379   -1.1033   -1.1028 H   0  0  0  0  0  0  0  0  0  0  0  0
   -0.4103    0.7450   -1.2397 C   0  0  0  0  0  0  0  0  0  0  0  0
    0.5172    1.0973   -1.7012 H   0  0  0  0  0  0  0  0  0  0  0  0
   -1.1223    0.5632   -2.0501 H   0  0  0  0  0  0  0  0  0  0  0  0
   -0.9172    1.8480   -0.3579 C   0  0  0  0  0  0  0  0  0  0  0  0
   -2.2529    2.2258   -0.3186 N   0  0  0  0  0  0  0  0  0  0  0  0
   -2.3149    3.2753    0.4678 C   0  0  0  0  0  0  0  0  0  0  0  0
   -3.2256    3.8157    0.7100 H   0  0  0  0  0  0  0  0  0  0  0  0
   -1.0539    3.5938    0.9360 N   0  0  0  0  0  0  0  0  0  0  0  0
   -0.8323    4.3758    1.5499 H   0  0  0  0  0  0  0  0  0  0  0  0
   -0.1568    2.6993    0.3939 C   0  0  0  0  0  0  0  0  0  0  0  0
    0.9230    2.6607    0.5194 H   0  0  0  0  0  0  0  0  0  0  0  0
    0.5955   -0.3749    0.8866 C   0  0  0  0  0  0  0  0  0  0  0  0
    1.8079   -0.2092    0.9376 O   0  0  0  0  0  0  0  0  0  0  0  0
   -0.1597   -0.0811    2.0089 N   0  0  0  0  0  0  0  0  0  0  0  0
   -1.1687   -0.1373    1.9116 H   0  0  0  0  0  0  0  0  0  0  0  0
    0.4146    0.2514    3.3052 C   0  0  0  0  0  0  0  0  0  0  0  0
    0.9958    1.1770    3.2400 H   0  0  0  0  0  0  0  0  0  0  0  0
   -0.3792    0.3916    4.0449 H   0  0  0  0  0  0  0  0  0  0  0  0
    1.0709   -0.5546    3.6503 H   0  0  0  0  0  0  0  0  0  0  0  0
  1  2  1  0  0  0  0
  2  3  1  0  0  0  0
  2  4  1  0  0  0  0
  2  5  1  0  0  0  0
  5  6  2  0  0  0  0
  5  7  1  0  0  0  0
  7  8  1  0  0  0  0
  7  9  1  0  0  0  0
  9 10  1  0  0  0  0
  9 11  1  0  0  0  0
  9 22  1  0  0  0  0
 11 12  1  0  0  0  0
 11 13  1  0  0  0  0
 11 14  1  0  0  0  0
 14 15  1  0  0  0  0
 14 20  2  0  0  0  0
 15 16  2  0  0  0  0
 16 17  1  0  0  0  0
 16 18  1  0  0  0  0
 18 19  1  0  0  0  0
 18 20  1  0  0  0  0
 20 21  1  0  0  0  0
 22 23  2  0  0  0  0
 22 24  1  0  0  0  0
 24 25  1  0  0  0  0
 24 26  1  0  0  0  0
 26 27  1  0  0  0  0
 26 28  1  0  0  0  0
 26 29  1  0  0  0  0
M  END
$$$$

  -OEChem-04042215593D

 29 29  0     1  0  0  0  0  0999 V2000
   -2.5575   -4.4201    0.3715 H   0  0  0  0  0  0  0  0  0  0  0  0
   -2.6914   -3.3957    0.0128 C   0  0  0  0  0  0  0  0  0  0  0  0
   -3.3437   -2.8620    0.7080 H   0  0  0  0  0  0  0  0  0  0  0  0
   -3.1651   -3.4271   -0.9713 H   0  0  0  0  0  0  0  0  0  0  0  0
   -1.3487   -2.6960   -0.0803 C   0  0  0  0  0  0  0  0  0  0  0  0
   -0.3306   -3.2881    0.2312 O   0  0  0  0  0  0  0  0  0  0  0  0
   -1.2873   -1.3865   -0.5097 N   0  0  0  0  0  0  0  0  0  0  0  0
   -2.1712   -0.9104   -0.6747 H   0  0  0  0  0  0  0  0  0  0  0  0
   -0.0607   -0.5738   -0.5195 C   0  0  1  0  0  0  0  0  0  0  0  0
    0.6735   -1.1227   -1.1203 H   0  0  0  0  0  0  0  0  0  0  0  0
   -0.3696    0.7321   -1.2754 C   0  0  0  0  0  0  0  0  0  0  0  0
    0.5604    1.0828   -1.7331 H   0  0  0  0  0  0  0  0  0  0  0  0
   -1.0837    0.5582   -2.0857 H   0  0  0  0  0  0  0  0  0  0  0  0
   -0.8755    1.8167   -0.3730 C   0  0  0  0  0  0  0  0  0  0  0  0
   -2.2252    1.9952   -0.0970 N   0  0  0  0  0  0  0  0  0  0  0  0
   -2.3020    3.0614    0.6659 C   0  0  0  0  0  0  0  0  0  0  0  0
   -3.2255    3.4751    1.0612 H   0  0  0  0  0  0  0  0  0  0  0  0
   -1.0397    3.5785    0.8912 N   0  0  0  0  0  0  0  0  0  0  0  0
   -0.8318    4.4059    1.4480 H   0  0  0  0  0  0  0  0  0  0  0  0
   -0.1275    2.7949    0.2181 C   0  0  0  0  0  0  0  0  0  0  0  0
    0.9524    2.9074    0.1614 H   0  0  0  0  0  0  0  0  0  0  0  0
    0.6000   -0.3724    0.8663 C   0  0  0  0  0  0  0  0  0  0  0  0
    1.8152   -0.2406    0.9425 O   0  0  0  0  0  0  0  0  0  0  0  0
   -0.1746   -0.0514    1.9681 N   0  0  0  0  0  0  0  0  0  0  0  0
   -1.1774    0.0110    1.8173 H   0  0  0  0  0  0  0  0  0  0  0  0
    0.3788    0.3614    3.2504 C   0  0  0  0  0  0  0  0  0  0  0  0
    0.9117    1.3123    3.1486 H   0  0  0  0  0  0  0  0  0  0  0  0
   -0.4227    0.4877    3.9843 H   0  0  0  0  0  0  0  0  0  0  0  0
    1.0747   -0.3953    3.6275 H   0  0  0  0  0  0  0  0  0  0  0  0
  1  2  1  0  0  0  0
  2  3  1  0  0  0  0
  2  4  1  0  0  0  0
  2  5  1  0  0  0  0
  5  6  2  0  0  0  0
  5  7  1  0  0  0  0
  7  8  1  0  0  0  0
  7  9  1  0  0  0  0
  9 10  1  0  0  0  0
  9 11  1  0  0  0  0
  9 22  1  0  0  0  0
 11 12  1  0  0  0  0
 11 13  1  0  0  0  0
 11 14  1  0  0  0  0
 14 15  1  0  0  0  0
 14 20  2  0  0  0  0
 15 16  2  0  0  0  0
 16 17  1  0  0  0  0
 16 18  1  0  0  0  0
 18 19  1  0  0  0  0
 18 20  1  0  0  0  0
 20 21  1  0  0  0  0
 22 23  2  0  0  0  0
 22 24  1  0  0  0  0
 24 25  1  0  0  0  0
 24 26  1  0  0  0  0
 26 27  1  0  0  0  0
 26 28  1  0  0  0  0
 26 29  1  0  0  0  0
M  END
$$$$

  -OEChem-04042215593D

 29 29  0     1  0  0  0  0  0999 V2000
   -2.5717   -4.3881    0.3964 H   0  0  0  0  0  0  0  0  0  0  0  0
   -2.6991   -3.3617    0.0410 C   0  0  0  0  0  0  0  0  0  0  0  0
   -3.3172   -2.8156    0.7576 H   0  0  0  0  0  0  0  0  0  0  0  0
   -3.2067   -3.3846   -0.9263 H   0  0  0  0  0  0  0  0  0  0  0  0
   -1.3474   -2.6873   -0.0998 C   0  0  0  0  0  0  0  0  0  0  0  0
   -0.3302   -3.3005    0.1719 O   0  0  0  0  0  0  0  0  0  0  0  0
   -1.2775   -1.3812   -0.5374 N   0  0  0  0  0  0  0  0  0  0  0  0
   -2.1592   -0.8815   -0.6293 H   0  0  0  0  0  0  0  0  0  0  0  0
   -0.0454   -0.5779   -0.5340 C   0  0  1  0  0  0  0  0  0  0  0  0
    0.6928   -1.1334   -1.1234 H   0  0  0  0  0  0  0  0  0  0  0  0
   -0.3416    0.7257   -1.2978 C   0  0  0  0  0  0  0  0  0  0  0  0
    0.5911    1.0724   -1.7524 H   0  0  0  0  0  0  0  0  0  0  0  0
   -1.0536    0.5503   -2.1096 H   0  0  0  0  0  0  0  0  0  0  0  0
   -0.8535    1.8070   -0.3946 C   0  0  0  0  0  0  0  0  0  0  0  0
   -2.1496    1.8065    0.1099 N   0  0  0  0  0  0  0  0  0  0  0  0
   -2.2600    2.9047    0.8222 C   0  0  0  0  0  0  0  0  0  0  0  0
   -3.1564    3.2109    1.3539 H   0  0  0  0  0  0  0  0  0  0  0  0
   -1.0712    3.6104    0.7985 N   0  0  0  0  0  0  0  0  0  0  0  0
   -0.9006    4.4938    1.2764 H   0  0  0  0  0  0  0  0  0  0  0  0
   -0.1724    2.9166    0.0169 C   0  0  0  0  0  0  0  0  0  0  0  0
    0.8556    3.1743   -0.2249 H   0  0  0  0  0  0  0  0  0  0  0  0
    0.6006   -0.3697    0.8578 C   0  0  0  0  0  0  0  0  0  0  0  0
    1.8177   -0.2708    0.9520 O   0  0  0  0  0  0  0  0  0  0  0  0
   -0.1855   -0.0338    1.9467 N   0  0  0  0  0  0  0  0  0  0  0  0
   -1.1714    0.1237    1.7512 H   0  0  0  0  0  0  0  0  0  0  0  0
    0.3608    0.4111    3.2214 C   0  0  0  0  0  0  0  0  0  0  0  0
    0.8559    1.3808    3.1071 H   0  0  0  0  0  0  0  0  0  0  0  0
   -0.4396    0.5116    3.9603 H   0  0  0  0  0  0  0  0  0  0  0  0
    1.0881   -0.3148    3.6005 H   0  0  0  0  0  0  0  0  0  0  0  0
  1  2  1  0  0  0  0
  2  3  1  0  0  0  0
  2  4  1  0  0  0  0
  2  5  1  0  0  0  0
  5  6  2  0  0  0  0
  5  7  1  0  0  0  0
  7  8  1  0  0  0  0
  7  9  1  0  0  0  0
  9 10  1  0  0  0  0
  9 11  1  0  0  0  0
  9 22  1  0  0  0  0
 11 12  1  0  0  0  0
 11 13  1  0  0  0  0
 11 14  1  0  0  0  0
 14 15  1  0  0  0  0
 14 20  2  0  0  0  0
 15 16  2  0  0  0  0
 16 17  1  0  0  0  0
 16 18  1  0  0  0  0
 18 19  1  0  0  0  0
 18 20  1  0  0  0  0
 20 21  1  0  0  0  0
 22 23  2  0  0  0  0
 22 24  1  0  0  0  0
 24 25  1  0  0  0  0
 24 26  1  0  0  0  0
 26 27  1  0  0  0  0
 26 28  1  0  0  0  0
 26 29  1  0  0  0  0
M  END
$$$$

  -OEChem-04042215593D

 29 29  0     1  0  0  0  0  0999 V2000
   -2.5479   -4.3852    0.4196 H   0  0  0  0  0  0  0  0  0  0  0  0
   -2.6846   -3.3599    0.0642 C   0  0  0  0  0  0  0  0  0  0  0  0
   -3.2761   -2.8093    0.7993 H   0  0  0  0  0  0  0  0  0  0  0  0
   -3.2250   -3.3856   -0.8849 H   0  0  0  0  0  0  0  0  0  0  0  0
   -1.3369   -2.6897   -0.1249 C   0  0  0  0  0  0  0  0  0  0  0  0
   -0.3130   -3.3103    0.1018 O   0  0  0  0  0  0  0  0  0  0  0  0
   -1.2789   -1.3807   -0.5564 N   0  0  0  0  0  0  0  0  0  0  0  0
   -2.1616   -0.8757   -0.5840 H   0  0  0  0  0  0  0  0  0  0  0  0
   -0.0499   -0.5726   -0.5367 C   0  0  1  0  0  0  0  0  0  0  0  0
    0.6943   -1.1270   -1.1197 H   0  0  0  0  0  0  0  0  0  0  0  0
   -0.3325    0.7310   -1.3076 C   0  0  0  0  0  0  0  0  0  0  0  0
    0.6049    1.0745   -1.7552 H   0  0  0  0  0  0  0  0  0  0  0  0
   -1.0359    0.5476   -2.1250 H   0  0  0  0  0  0  0  0  0  0  0  0
   -0.8622    1.8224   -0.4244 C   0  0  0  0  0  0  0  0  0  0  0  0
   -2.0461    1.7017    0.3002 N   0  0  0  0  0  0  0  0  0  0  0  0
   -2.1915    2.8370    0.9456 C   0  0  0  0  0  0  0  0  0  0  0  0
   -3.0219    3.0734    1.6049 H   0  0  0  0  0  0  0  0  0  0  0  0
   -1.1344    3.6830    0.6673 N   0  0  0  0  0  0  0  0  0  0  0  0
   -1.0116    4.6186    1.0517 H   0  0  0  0  0  0  0  0  0  0  0  0
   -0.2845    3.0398   -0.2066 C   0  0  0  0  0  0  0  0  0  0  0  0
    0.6478    3.4014   -0.6318 H   0  0  0  0  0  0  0  0  0  0  0  0
    0.5896   -0.3649    0.8586 C   0  0  0  0  0  0  0  0  0  0  0  0
    1.8080   -0.2966    0.9638 O   0  0  0  0  0  0  0  0  0  0  0  0
   -0.1991   -0.0347    1.9467 N   0  0  0  0  0  0  0  0  0  0  0  0
   -1.1637    0.2052    1.7223 H   0  0  0  0  0  0  0  0  0  0  0  0
    0.3506    0.4069    3.2209 C   0  0  0  0  0  0  0  0  0  0  0  0
    0.8699    1.3635    3.1029 H   0  0  0  0  0  0  0  0  0  0  0  0
   -0.4516    0.5324    3.9541 H   0  0  0  0  0  0  0  0  0  0  0  0
    1.0575   -0.3337    3.6094 H   0  0  0  0  0  0  0  0  0  0  0  0
  1  2  1  0  0  0  0
  2  3  1  0  0  0  0
  2  4  1  0  0  0  0
  2  5  1  0  0  0  0
  5  6  2  0  0  0  0
  5  7  1  0  0  0  0
  7  8  1  0  0  0  0
  7  9  1  0  0  0  0
  9 10  1  0  0  0  0
  9 11  1  0  0  0  0
  9 22  1  0  0  0  0
 11 12  1  0  0  0  0
 11 13  1  0  0  0  0
 11 14  1  0  0  0  0
 14 15  1  0  0  0  0
 14 20  2  0  0  0  0
 15 16  2  0  0  0  0
 16 17  1  0  0  0  0
 16 18  1  0  0  0  0
 18 19  1  0  0  0  0
 18 20  1  0  0  0  0
 20 21  1  0  0  0  0
 22 23  2  0  0  0  0
 22 24  1  0  0  0  0
 24 25  1  0  0  0  0
 24 26  1  0  0  0  0
 26 27  1  0  0  0  0
 26 28  1  0  0  0  0
 26 29  1  0  0  0  0
M  END
$$$$

  -OEChem-04042215593D

 29 29  0     1  0  0  0  0  0999 V2000
   -2.5124   -4.4193    0.3859 H   0  0  0  0  0  0  0  0  0  0  0  0
   -2.6668   -3.3895    0.0517 C   0  0  0  0  0  0  0  0  0  0  0  0
   -3.2534   -2.8592    0.8056 H   0  0  0  0  0  0  0  0  0  0  0  0
   -3.2210   -3.4046   -0.8897 H   0  0  0  0  0  0  0  0  0  0  0  0
   -1.3303   -2.6998   -0.1459 C   0  0  0  0  0  0  0  0  0  0  0  0
   -0.2962   -3.3156    0.0445 O   0  0  0  0  0  0  0  0  0  0  0  0
   -1.2950   -1.3801   -0.5466 N   0  0  0  0  0  0  0  0  0  0  0  0
   -2.1831   -0.8851   -0.5345 H   0  0  0  0  0  0  0  0  0  0  0  0
   -0.0767   -0.5572   -0.5081 C   0  0  1  0  0  0  0  0  0  0  0  0
    0.6703   -1.1085   -1.0907 H   0  0  0  0  0  0  0  0  0  0  0  0
   -0.3423    0.7427   -1.2917 C   0  0  0  0  0  0  0  0  0  0  0  0
    0.6040    1.0809   -1.7245 H   0  0  0  0  0  0  0  0  0  0  0  0
   -1.0257    0.5422   -2.1218 H   0  0  0  0  0  0  0  0  0  0  0  0
   -0.9011    1.8580   -0.4532 C   0  0  0  0  0  0  0  0  0  0  0  0
   -1.9331    1.6965    0.4707 N   0  0  0  0  0  0  0  0  0  0  0  0
   -2.1204    2.8762    1.0177 C   0  0  0  0  0  0  0  0  0  0  0  0
   -2.8591    3.0951    1.7836 H   0  0  0  0  0  0  0  0  0  0  0  0
   -1.2391    3.7951    0.4807 N   0  0  0  0  0  0  0  0  0  0  0  0
   -1.1749    4.7759    0.7494 H   0  0  0  0  0  0  0  0  0  0  0  0
   -0.4579    3.1497   -0.4536 C   0  0  0  0  0  0  0  0  0  0  0  0
    0.3467    3.5597   -1.0579 H   0  0  0  0  0  0  0  0  0  0  0  0
    0.5783   -0.3626    0.8822 C   0  0  0  0  0  0  0  0  0  0  0  0
    1.7988   -0.3073    0.9733 O   0  0  0  0  0  0  0  0  0  0  0  0
   -0.1917   -0.0618    1.9909 N   0  0  0  0  0  0  0  0  0  0  0  0
   -1.1468    0.2243    1.7765 H   0  0  0  0  0  0  0  0  0  0  0  0
    0.3832    0.3489    3.2644 C   0  0  0  0  0  0  0  0  0  0  0  0
    0.9123    1.3012    3.1560 H   0  0  0  0  0  0  0  0  0  0  0  0
   -0.4061    0.4702    4.0121 H   0  0  0  0  0  0  0  0  0  0  0  0
    1.0870   -0.4072    3.6284 H   0  0  0  0  0  0  0  0  0  0  0  0
  1  2  1  0  0  0  0
  2  3  1  0  0  0  0
  2  4  1  0  0  0  0
  2  5  1  0  0  0  0
  5  6  2  0  0  0  0
  5  7  1  0  0  0  0
  7  8  1  0  0  0  0
  7  9  1  0  0  0  0
  9 10  1  0  0  0  0
  9 11  1  0  0  0  0
  9 22  1  0  0  0  0
 11 12  1  0  0  0  0
 11 13  1  0  0  0  0
 11 14  1  0  0  0  0
 14 15  1  0  0  0  0
 14 20  2  0  0  0  0
 15 16  2  0  0  0  0
 16 17  1  0  0  0  0
 16 18  1  0  0  0  0
 18 19  1  0  0  0  0
 18 20  1  0  0  0  0
 20 21  1  0  0  0  0
 22 23  2  0  0  0  0
 22 24  1  0  0  0  0
 24 25  1  0  0  0  0
 24 26  1  0  0  0  0
 26 27  1  0  0  0  0
 26 28  1  0  0  0  0
 26 29  1  0  0  0  0
M  END
$$$$

  -OEChem-04042215593D

 29 29  0     1  0  0  0  0  0999 V2000
   -2.4766   -4.4636    0.3186 H   0  0  0  0  0  0  0  0  0  0  0  0
   -2.6491   -3.4246    0.0239 C   0  0  0  0  0  0  0  0  0  0  0  0
   -3.2348   -2.9313    0.8032 H   0  0  0  0  0  0  0  0  0  0  0  0
   -3.2135   -3.4129   -0.9115 H   0  0  0  0  0  0  0  0  0  0  0  0
   -1.3244   -2.7090   -0.1621 C   0  0  0  0  0  0  0  0  0  0  0  0
   -0.2802   -3.3155   -0.0007 O   0  0  0  0  0  0  0  0  0  0  0  0
   -1.3132   -1.3769   -0.5218 N   0  0  0  0  0  0  0  0  0  0  0  0
   -2.2092   -0.8986   -0.4896 H   0  0  0  0  0  0  0  0  0  0  0  0
   -0.1076   -0.5358   -0.4682 C   0  0  1  0  0  0  0  0  0  0  0  0
    0.6403   -1.0797   -1.0569 H   0  0  0  0  0  0  0  0  0  0  0  0
   -0.3648    0.7615   -1.2610 C   0  0  0  0  0  0  0  0  0  0  0  0
    0.5896    1.0984   -1.6771 H   0  0  0  0  0  0  0  0  0  0  0  0
   -1.0266    0.5443   -2.1043 H   0  0  0  0  0  0  0  0  0  0  0  0
   -0.9504    1.8985   -0.4677 C   0  0  0  0  0  0  0  0  0  0  0  0
   -1.7926    1.7654    0.6350 N   0  0  0  0  0  0  0  0  0  0  0  0
   -2.0346    2.9823    1.0652 C   0  0  0  0  0  0  0  0  0  0  0  0
   -2.6595    3.2262    1.9199 H   0  0  0  0  0  0  0  0  0  0  0  0
   -1.3765    3.9038    0.2744 N   0  0  0  0  0  0  0  0  0  0  0  0
   -1.3884    4.9131    0.4127 H   0  0  0  0  0  0  0  0  0  0  0  0
   -0.6802    3.2179   -0.6974 C   0  0  0  0  0  0  0  0  0  0  0  0
   -0.0375    3.6216   -1.4748 H   0  0  0  0  0  0  0  0  0  0  0  0
    0.5691   -0.3637    0.9155 C   0  0  0  0  0  0  0  0  0  0  0  0
    1.7918   -0.3204    0.9847 O   0  0  0  0  0  0  0  0  0  0  0  0
   -0.1751   -0.1043    2.0514 N   0  0  0  0  0  0  0  0  0  0  0  0
   -1.1221    0.2235    1.8619 H   0  0  0  0  0  0  0  0  0  0  0  0
    0.4324    0.2556    3.3255 C   0  0  0  0  0  0  0  0  0  0  0  0
    0.9369    1.2243    3.2492 H   0  0  0  0  0  0  0  0  0  0  0  0
   -0.3347    0.3202    4.1028 H   0  0  0  0  0  0  0  0  0  0  0  0
    1.1645   -0.5005    3.6284 H   0  0  0  0  0  0  0  0  0  0  0  0
  1  2  1  0  0  0  0
  2  3  1  0  0  0  0
  2  4  1  0  0  0  0
  2  5  1  0  0  0  0
  5  6  2  0  0  0  0
  5  7  1  0  0  0  0
  7  8  1  0  0  0  0
  7  9  1  0  0  0  0
  9 10  1  0  0  0  0
  9 11  1  0  0  0  0
  9 22  1  0  0  0  0
 11 12  1  0  0  0  0
 11 13  1  0  0  0  0
 11 14  1  0  0  0  0
 14 15  1  0  0  0  0
 14 20  2  0  0  0  0
 15 16  2  0  0  0  0
 16 17  1  0  0  0  0
 16 18  1  0  0  0  0
 18 19  1  0  0  0  0
 18 20  1  0  0  0  0
 20 21  1  0  0  0  0
 22 23  2  0  0  0  0
 22 24  1  0  0  0  0
 24 25  1  0  0  0  0
 24 26  1  0  0  0  0
 26 27  1  0  0  0  0
 26 28  1  0  0  0  0
 26 29  1  0  0  0  0
M  END
$$$$

  -OEChem-04042215593D

 29 29  0     1  0  0  0  0  0999 V2000
   -2.4486   -4.4824    0.2874 H   0  0  0  0  0  0  0  0  0  0  0  0
   -2.6346   -3.4431    0.0022 C   0  0  0  0  0  0  0  0  0  0  0  0
   -3.2214   -2.9632    0.7889 H   0  0  0  0  0  0  0  0  0  0  0  0
   -3.2046   -3.4301   -0.9297 H   0  0  0  0  0  0  0  0  0  0  0  0
   -1.3192   -2.7105   -0.1849 C   0  0  0  0  0  0  0  0  0  0  0  0
   -0.2679   -3.3138   -0.0628 O   0  0  0  0  0  0  0  0  0  0  0  0
   -1.3260   -1.3669   -0.5005 N   0  0  0  0  0  0  0  0  0  0  0  0
   -2.2273   -0.9023   -0.4444 H   0  0  0  0  0  0  0  0  0  0  0  0
   -0.1290   -0.5140   -0.4326 C   0  0  1  0  0  0  0  0  0  0  0  0
    0.6175   -1.0470   -1.0332 H   0  0  0  0  0  0  0  0  0  0  0  0
   -0.3854    0.7866   -1.2226 C   0  0  0  0  0  0  0  0  0  0  0  0
    0.5760    1.1277   -1.6197 H   0  0  0  0  0  0  0  0  0  0  0  0
   -1.0272    0.5641   -2.0798 H   0  0  0  0  0  0  0  0  0  0  0  0
   -0.9881    1.9364   -0.4585 C   0  0  0  0  0  0  0  0  0  0  0  0
   -1.6088    1.8808    0.7867 N   0  0  0  0  0  0  0  0  0  0  0  0
   -1.9354    3.1129    1.1003 C   0  0  0  0  0  0  0  0  0  0  0  0
   -2.4332    3.4097    2.0193 H   0  0  0  0  0  0  0  0  0  0  0  0
   -1.5531    3.9729    0.0903 N   0  0  0  0  0  0  0  0  0  0  0  0
   -1.6775    4.9840    0.0993 H   0  0  0  0  0  0  0  0  0  0  0  0
   -0.9454    3.2299   -0.8987 C   0  0  0  0  0  0  0  0  0  0  0  0
   -0.5046    3.5824   -1.8270 H   0  0  0  0  0  0  0  0  0  0  0  0
    0.5683   -0.3738    0.9452 C   0  0  0  0  0  0  0  0  0  0  0  0
    1.7926   -0.3474    0.9960 O   0  0  0  0  0  0  0  0  0  0  0  0
   -0.1542   -0.1572    2.1039 N   0  0  0  0  0  0  0  0  0  0  0  0
   -1.0868    0.2209    1.9401 H   0  0  0  0  0  0  0  0  0  0  0  0
    0.4858    0.1483    3.3765 C   0  0  0  0  0  0  0  0  0  0  0  0
    1.0273    1.0979    3.3141 H   0  0  0  0  0  0  0  0  0  0  0  0
   -0.2661    0.2257    4.1675 H   0  0  0  0  0  0  0  0  0  0  0  0
    1.1915   -0.6435    3.6497 H   0  0  0  0  0  0  0  0  0  0  0  0
  1  2  1  0  0  0  0
  2  3  1  0  0  0  0
  2  4  1  0  0  0  0
  2  5  1  0  0  0  0
  5  6  2  0  0  0  0
  5  7  1  0  0  0  0
  7  8  1  0  0  0  0
  7  9  1  0  0  0  0
  9 10  1  0  0  0  0
  9 11  1  0  0  0  0
  9 22  1  0  0  0  0
 11 12  1  0  0  0  0
 11 13  1  0  0  0  0
 11 14  1  0  0  0  0
 14 15  1  0  0  0  0
 14 20  2  0  0  0  0
 15 16  2  0  0  0  0
 16 17  1  0  0  0  0
 16 18  1  0  0  0  0
 18 19  1  0  0  0  0
 18 20  1  0  0  0  0
 20 21  1  0  0  0  0
 22 23  2  0  0  0  0
 22 24  1  0  0  0  0
 24 25  1  0  0  0  0
 24 26  1  0  0  0  0
 26 27  1  0  0  0  0
 26 28  1  0  0  0  0
 26 29  1  0  0  0  0
M  END
$$$$

  -OEChem-04042215593D

 29 29  0     1  0  0  0  0  0999 V2000
   -2.4439   -4.4922    0.2364 H   0  0  0  0  0  0  0  0  0  0  0  0
   -2.6358   -3.4439   -0.0099 C   0  0  0  0  0  0  0  0  0  0  0  0
   -3.2126   -2.9929    0.8011 H   0  0  0  0  0  0  0  0  0  0  0  0
   -3.2182   -3.4003   -0.9333 H   0  0  0  0  0  0  0  0  0  0  0  0
   -1.3242   -2.7025   -0.1885 C   0  0  0  0  0  0  0  0  0  0  0  0
   -0.2710   -3.3061   -0.0872 O   0  0  0  0  0  0  0  0  0  0  0  0
   -1.3373   -1.3527   -0.4777 N   0  0  0  0  0  0  0  0  0  0  0  0
   -2.2403   -0.8935   -0.4139 H   0  0  0  0  0  0  0  0  0  0  0  0
   -0.1400   -0.4989   -0.4111 C   0  0  1  0  0  0  0  0  0  0  0  0
    0.5997   -1.0257   -1.0257 H   0  0  0  0  0  0  0  0  0  0  0  0
   -0.4016    0.8071   -1.1929 C   0  0  0  0  0  0  0  0  0  0  0  0
    0.5640    1.1491   -1.5781 H   0  0  0  0  0  0  0  0  0  0  0  0
   -1.0322    0.5867   -2.0592 H   0  0  0  0  0  0  0  0  0  0  0  0
   -1.0009    1.9682   -0.4411 C   0  0  0  0  0  0  0  0  0  0  0  0
   -1.3665    2.0283    0.8994 N   0  0  0  0  0  0  0  0  0  0  0  0
   -1.7989    3.2468    1.1242 C   0  0  0  0  0  0  0  0  0  0  0  0
   -2.1507    3.6153    2.0837 H   0  0  0  0  0  0  0  0  0  0  0  0
   -1.7423    3.9857   -0.0402 N   0  0  0  0  0  0  0  0  0  0  0  0
   -2.0049    4.9660   -0.1289 H   0  0  0  0  0  0  0  0  0  0  0  0
   -1.2340    3.1781   -1.0347 C   0  0  0  0  0  0  0  0  0  0  0  0
   -1.0346    3.4377   -2.0705 H   0  0  0  0  0  0  0  0  0  0  0  0
    0.5747   -0.3872    0.9608 C   0  0  0  0  0  0  0  0  0  0  0  0
    1.7998   -0.3946    0.9991 O   0  0  0  0  0  0  0  0  0  0  0  0
   -0.1328   -0.1958    2.1337 N   0  0  0  0  0  0  0  0  0  0  0  0
   -1.0478    0.2286    1.9893 H   0  0  0  0  0  0  0  0  0  0  0  0
    0.5308    0.0605    3.4053 C   0  0  0  0  0  0  0  0  0  0  0  0
    1.0823    1.0054    3.3648 H   0  0  0  0  0  0  0  0  0  0  0  0
   -0.2077    0.1205    4.2102 H   0  0  0  0  0  0  0  0  0  0  0  0
    1.2313   -0.7473    3.6420 H   0  0  0  0  0  0  0  0  0  0  0  0
  1  2  1  0  0  0  0
  2  3  1  0  0  0  0
  2  4  1  0  0  0  0
  2  5  1  0  0  0  0
  5  6  2  0  0  0  0
  5  7  1  0  0  0  0
  7  8  1  0  0  0  0
  7  9  1  0  0  0  0
  9 10  1  0  0  0  0
  9 11  1  0  0  0  0
  9 22  1  0  0  0  0
 11 12  1  0  0  0  0
 11 13  1  0  0  0  0
 11 14  1  0  0  0  0
 14 15  1  0  0  0  0
 14 20  2  0  0  0  0
 15 16  2  0  0  0  0
 16 17  1  0  0  0  0
 16 18  1  0  0  0  0
 18 19  1  0  0  0  0
 18 20  1  0  0  0  0
 20 21  1  0  0  0  0
 22 23  2  0  0  0  0
 22 24  1  0  0  0  0
 24 25  1  0  0  0  0
 24 26  1  0  0  0  0
 26 27  1  0  0  0  0
 26 28  1  0  0  0  0
 26 29  1  0  0  0  0
M  END
$$$$

  -OEChem-04042215593D

 29 29  0     1  0  0  0  0  0999 V2000
   -2.4661   -4.4673    0.2546 H   0  0  0  0  0  0  0  0  0  0  0  0
   -2.6512   -3.4202   -0.0016 C   0  0  0  0  0  0  0  0  0  0  0  0
   -3.2298   -2.9596    0.8026 H   0  0  0  0  0  0  0  0  0  0  0  0
   -3.2287   -3.3815   -0.9282 H   0  0  0  0  0  0  0  0  0  0  0  0
   -1.3347   -2.6876   -0.1802 C   0  0  0  0  0  0  0  0  0  0  0  0
   -0.2860   -3.2997   -0.0868 O   0  0  0  0  0  0  0  0  0  0  0  0
   -1.3389   -1.3368   -0.4656 N   0  0  0  0  0  0  0  0  0  0  0  0
   -2.2394   -0.8730   -0.4078 H   0  0  0  0  0  0  0  0  0  0  0  0
   -0.1339   -0.4922   -0.4086 C   0  0  1  0  0  0  0  0  0  0  0  0
    0.5981   -1.0198   -1.0317 H   0  0  0  0  0  0  0  0  0  0  0  0
   -0.4035    0.8158   -1.1860 C   0  0  0  0  0  0  0  0  0  0  0  0
    0.5642    1.1570   -1.5667 H   0  0  0  0  0  0  0  0  0  0  0  0
   -1.0297    0.5986   -2.0564 H   0  0  0  0  0  0  0  0  0  0  0  0
   -0.9899    1.9849   -0.4348 C   0  0  0  0  0  0  0  0  0  0  0  0
   -1.0831    2.1784    0.9377 N   0  0  0  0  0  0  0  0  0  0  0  0
   -1.6402    3.3506    1.1272 C   0  0  0  0  0  0  0  0  0  0  0  0
   -1.8387    3.7958    2.0981 H   0  0  0  0  0  0  0  0  0  0  0  0
   -1.9398    3.9260   -0.0906 N   0  0  0  0  0  0  0  0  0  0  0  0
   -2.3640    4.8432   -0.2200 H   0  0  0  0  0  0  0  0  0  0  0  0
   -1.5299    3.0619   -1.0832 C   0  0  0  0  0  0  0  0  0  0  0  0
   -1.5960    3.2005   -2.1586 H   0  0  0  0  0  0  0  0  0  0  0  0
    0.5886   -0.3956    0.9606 C   0  0  0  0  0  0  0  0  0  0  0  0
    1.8128   -0.4463    0.9974 O   0  0  0  0  0  0  0  0  0  0  0  0
   -0.1146   -0.2046    2.1367 N   0  0  0  0  0  0  0  0  0  0  0  0
   -1.0094    0.2604    1.9993 H   0  0  0  0  0  0  0  0  0  0  0  0
    0.5597    0.0150    3.4094 C   0  0  0  0  0  0  0  0  0  0  0  0
    1.1469    0.9386    3.3764 H   0  0  0  0  0  0  0  0  0  0  0  0
   -0.1752    0.0962    4.2157 H   0  0  0  0  0  0  0  0  0  0  0  0
    1.2289   -0.8212    3.6379 H   0  0  0  0  0  0  0  0  0  0  0  0
  1  2  1  0  0  0  0
  2  3  1  0  0  0  0
  2  4  1  0  0  0  0
  2  5  1  0  0  0  0
  5  6  2  0  0  0  0
  5  7  1  0  0  0  0
  7  8  1  0  0  0  0
  7  9  1  0  0  0  0
  9 10  1  0  0  0  0
  9 11  1  0  0  0  0
  9 22  1  0  0  0  0
 11 12  1  0  0  0  0
 11 13  1  0  0  0  0
 11 14  1  0  0  0  0
 14 15  1  0  0  0  0
 14 20  2  0  0  0  0
 15 16  2  0  0  0  0
 16 17  1  0  0  0  0
 16 18  1  0  0  0  0
 18 19  1  0  0  0  0
 18 20  1  0  0  0  0
 20 21  1  0  0  0  0
 22 23  2  0  0  0  0
 22 24  1  0  0  0  0
 24 25  1  0  0  0  0
 24 26  1  0  0  0  0
 26 27  1  0  0  0  0
 26 28  1  0  0  0  0
 26 29  1  0  0  0  0
M  END
$$$$

  -OEChem-04042215593D

 29 29  0     1  0  0  0  0  0999 V2000
   -2.4886   -4.4435    0.2984 H   0  0  0  0  0  0  0  0  0  0  0  0
   -2.6638   -3.4010    0.0176 C   0  0  0  0  0  0  0  0  0  0  0  0
   -3.2467   -2.9191    0.8060 H   0  0  0  0  0  0  0  0  0  0  0  0
   -3.2324   -3.3788   -0.9151 H   0  0  0  0  0  0  0  0  0  0  0  0
   -1.3406   -2.6811   -0.1646 C   0  0  0  0  0  0  0  0  0  0  0  0
   -0.2975   -3.3003   -0.0587 O   0  0  0  0  0  0  0  0  0  0  0  0
   -1.3331   -1.3336   -0.4665 N   0  0  0  0  0  0  0  0  0  0  0  0
   -2.2318   -0.8646   -0.4318 H   0  0  0  0  0  0  0  0  0  0  0  0
   -0.1217   -0.4963   -0.4216 C   0  0  1  0  0  0  0  0  0  0  0  0
    0.6082   -1.0286   -1.0433 H   0  0  0  0  0  0  0  0  0  0  0  0
   -0.3995    0.8094   -1.2008 C   0  0  0  0  0  0  0  0  0  0  0  0
    0.5664    1.1504   -1.5861 H   0  0  0  0  0  0  0  0  0  0  0  0
   -1.0287    0.5900   -2.0685 H   0  0  0  0  0  0  0  0  0  0  0  0
   -0.9752    1.9806   -0.4440 C   0  0  0  0  0  0  0  0  0  0  0  0
   -0.8049    2.3163    0.8922 N   0  0  0  0  0  0  0  0  0  0  0  0
   -1.4717    3.4251    1.1047 C   0  0  0  0  0  0  0  0  0  0  0  0
   -1.5223    3.9494    2.0548 H   0  0  0  0  0  0  0  0  0  0  0  0
   -2.1029    3.8171   -0.0582 N   0  0  0  0  0  0  0  0  0  0  0  0
   -2.6717    4.6556   -0.1652 H   0  0  0  0  0  0  0  0  0  0  0  0
   -1.7914    2.9026   -1.0418 C   0  0  0  0  0  0  0  0  0  0  0  0
   -2.1041    2.9098   -2.0819 H   0  0  0  0  0  0  0  0  0  0  0  0
    0.5949   -0.3946    0.9501 C   0  0  0  0  0  0  0  0  0  0  0  0
    1.8171   -0.4735    0.9966 O   0  0  0  0  0  0  0  0  0  0  0  0
   -0.1157   -0.1875    2.1196 N   0  0  0  0  0  0  0  0  0  0  0  0
   -1.0085    0.2762    1.9765 H   0  0  0  0  0  0  0  0  0  0  0  0
    0.5538    0.0359    3.3945 C   0  0  0  0  0  0  0  0  0  0  0  0
    1.1401    0.9601    3.3608 H   0  0  0  0  0  0  0  0  0  0  0  0
   -0.1837    0.1185    4.1982 H   0  0  0  0  0  0  0  0  0  0  0  0
    1.2237   -0.7985    3.6280 H   0  0  0  0  0  0  0  0  0  0  0  0
  1  2  1  0  0  0  0
  2  3  1  0  0  0  0
  2  4  1  0  0  0  0
  2  5  1  0  0  0  0
  5  6  2  0  0  0  0
  5  7  1  0  0  0  0
  7  8  1  0  0  0  0
  7  9  1  0  0  0  0
  9 10  1  0  0  0  0
  9 11  1  0  0  0  0
  9 22  1  0  0  0  0
 11 12  1  0  0  0  0
 11 13  1  0  0  0  0
 11 14  1  0  0  0  0
 14 15  1  0  0  0  0
 14 20  2  0  0  0  0
 15 16  2  0  0  0  0
 16 17  1  0  0  0  0
 16 18  1  0  0  0  0
 18 19  1  0  0  0  0
 18 20  1  0  0  0  0
 20 21  1  0  0  0  0
 22 23  2  0  0  0  0
 22 24  1  0  0  0  0
 24 25  1  0  0  0  0
 24 26  1  0  0  0  0
 26 27  1  0  0  0  0
 26 28  1  0  0  0  0
 26 29  1  0  0  0  0
M  END
$$$$

  -OEChem-04042215593D

 29 29  0     1  0  0  0  0  0999 V2000
   -2.4932   -4.4412    0.3298 H   0  0  0  0  0  0  0  0  0  0  0  0
   -2.6644   -3.4045    0.0262 C   0  0  0  0  0  0  0  0  0  0  0  0
   -3.2646   -2.9094    0.7930 H   0  0  0  0  0  0  0  0  0  0  0  0
   -3.2131   -3.4006   -0.9185 H   0  0  0  0  0  0  0  0  0  0  0  0
   -1.3389   -2.6861   -0.1412 C   0  0  0  0  0  0  0  0  0  0  0  0
   -0.2974   -3.3000    0.0005 O   0  0  0  0  0  0  0  0  0  0  0  0
   -1.3270   -1.3455   -0.4719 N   0  0  0  0  0  0  0  0  0  0  0  0
   -2.2272   -0.8786   -0.4814 H   0  0  0  0  0  0  0  0  0  0  0  0
   -0.1143   -0.5086   -0.4410 C   0  0  1  0  0  0  0  0  0  0  0  0
    0.6182   -1.0446   -1.0560 H   0  0  0  0  0  0  0  0  0  0  0  0
   -0.4019    0.7922   -1.2240 C   0  0  0  0  0  0  0  0  0  0  0  0
    0.5567    1.1370   -1.6240 H   0  0  0  0  0  0  0  0  0  0  0  0
   -1.0432    0.5696   -2.0818 H   0  0  0  0  0  0  0  0  0  0  0  0
   -0.9701    1.9551   -0.4513 C   0  0  0  0  0  0  0  0  0  0  0  0
   -0.5615    2.4363    0.7841 N   0  0  0  0  0  0  0  0  0  0  0  0
   -1.3049    3.4792    1.0628 C   0  0  0  0  0  0  0  0  0  0  0  0
   -1.2185    4.0842    1.9612 H   0  0  0  0  0  0  0  0  0  0  0  0
   -2.2138    3.6852    0.0445 N   0  0  0  0  0  0  0  0  0  0  0  0
   -2.8909    4.4456    0.0063 H   0  0  0  0  0  0  0  0  0  0  0  0
   -2.0029    2.7215   -0.9191 C   0  0  0  0  0  0  0  0  0  0  0  0
   -2.5224    2.5990   -1.8652 H   0  0  0  0  0  0  0  0  0  0  0  0
    0.5904   -0.3842    0.9346 C   0  0  0  0  0  0  0  0  0  0  0  0
    1.8117   -0.4649    0.9953 O   0  0  0  0  0  0  0  0  0  0  0  0
   -0.1333   -0.1540    2.0925 N   0  0  0  0  0  0  0  0  0  0  0  0
   -1.0511    0.2509    1.9412 H   0  0  0  0  0  0  0  0  0  0  0  0
    0.5206    0.1147    3.3666 C   0  0  0  0  0  0  0  0  0  0  0  0
    1.1070    1.0376    3.3072 H   0  0  0  0  0  0  0  0  0  0  0  0
   -0.2260    0.2252    4.1583 H   0  0  0  0  0  0  0  0  0  0  0  0
    1.1878   -0.7107    3.6365 H   0  0  0  0  0  0  0  0  0  0  0  0
  1  2  1  0  0  0  0
  2  3  1  0  0  0  0
  2  4  1  0  0  0  0
  2  5  1  0  0  0  0
  5  6  2  0  0  0  0
  5  7  1  0  0  0  0
  7  8  1  0  0  0  0
  7  9  1  0  0  0  0
  9 10  1  0  0  0  0
  9 11  1  0  0  0  0
  9 22  1  0  0  0  0
 11 12  1  0  0  0  0
 11 13  1  0  0  0  0
 11 14  1  0  0  0  0
 14 15  1  0  0  0  0
 14 20  2  0  0  0  0
 15 16  2  0  0  0  0
 16 17  1  0  0  0  0
 16 18  1  0  0  0  0
 18 19  1  0  0  0  0
 18 20  1  0  0  0  0
 20 21  1  0  0  0  0
 22 23  2  0  0  0  0
 22 24  1  0  0  0  0
 24 25  1  0  0  0  0
 24 26  1  0  0  0  0
 26 27  1  0  0  0  0
 26 28  1  0  0  0  0
 26 29  1  0  0  0  0
M  END
$$$$

  -OEChem-04042215593D

 29 29  0     1  0  0  0  0  0999 V2000
   -2.4902   -4.4566    0.3394 H   0  0  0  0  0  0  0  0  0  0  0  0
   -2.6594   -3.4235    0.0221 C   0  0  0  0  0  0  0  0  0  0  0  0
   -3.2867   -2.9269    0.7659 H   0  0  0  0  0  0  0  0  0  0  0  0
   -3.1788   -3.4321   -0.9391 H   0  0  0  0  0  0  0  0  0  0  0  0
   -1.3343   -2.6962   -0.1102 C   0  0  0  0  0  0  0  0  0  0  0  0
   -0.2952   -3.2957    0.0949 O   0  0  0  0  0  0  0  0  0  0  0  0
   -1.3180   -1.3656   -0.4803 N   0  0  0  0  0  0  0  0  0  0  0  0
   -2.2190   -0.9086   -0.5665 H   0  0  0  0  0  0  0  0  0  0  0  0
   -0.1060   -0.5258   -0.4668 C   0  0  1  0  0  0  0  0  0  0  0  0
    0.6317   -1.0642   -1.0730 H   0  0  0  0  0  0  0  0  0  0  0  0
   -0.4050    0.7716   -1.2501 C   0  0  0  0  0  0  0  0  0  0  0  0
    0.5422    1.1224   -1.6713 H   0  0  0  0  0  0  0  0  0  0  0  0
   -1.0662    0.5497   -2.0927 H   0  0  0  0  0  0  0  0  0  0  0  0
   -0.9625    1.9185   -0.4500 C   0  0  0  0  0  0  0  0  0  0  0  0
   -0.3535    2.5480    0.6251 N   0  0  0  0  0  0  0  0  0  0  0  0
   -1.1462    3.5192    1.0060 C   0  0  0  0  0  0  0  0  0  0  0  0
   -0.9423    4.2044    1.8242 H   0  0  0  0  0  0  0  0  0  0  0  0
   -2.2755    3.5351    0.2105 N   0  0  0  0  0  0  0  0  0  0  0  0
   -3.0339    4.2113    0.2825 H   0  0  0  0  0  0  0  0  0  0  0  0
   -2.1596    2.5237   -0.7202 C   0  0  0  0  0  0  0  0  0  0  0  0
   -2.8511    2.2672   -1.5175 H   0  0  0  0  0  0  0  0  0  0  0  0
    0.5813   -0.3660    0.9134 C   0  0  0  0  0  0  0  0  0  0  0  0
    1.8023   -0.4289    0.9926 O   0  0  0  0  0  0  0  0  0  0  0  0
   -0.1620   -0.1061    2.0529 N   0  0  0  0  0  0  0  0  0  0  0  0
   -1.1109    0.2104    1.8906 H   0  0  0  0  0  0  0  0  0  0  0  0
    0.4636    0.2269    3.3256 C   0  0  0  0  0  0  0  0  0  0  0  0
    1.0244    1.1636    3.2407 H   0  0  0  0  0  0  0  0  0  0  0  0
   -0.2979    0.3447    4.1019 H   0  0  0  0  0  0  0  0  0  0  0  0
    1.1495   -0.5687    3.6354 H   0  0  0  0  0  0  0  0  0  0  0  0
  1  2  1  0  0  0  0
  2  3  1  0  0  0  0
  2  4  1  0  0  0  0
  2  5  1  0  0  0  0
  5  6  2  0  0  0  0
  5  7  1  0  0  0  0
  7  8  1  0  0  0  0
  7  9  1  0  0  0  0
  9 10  1  0  0  0  0
  9 11  1  0  0  0  0
  9 22  1  0  0  0  0
 11 12  1  0  0  0  0
 11 13  1  0  0  0  0
 11 14  1  0  0  0  0
 14 15  1  0  0  0  0
 14 20  2  0  0  0  0
 15 16  2  0  0  0  0
 16 17  1  0  0  0  0
 16 18  1  0  0  0  0
 18 19  1  0  0  0  0
 18 20  1  0  0  0  0
 20 21  1  0  0  0  0
 22 23  2  0  0  0  0
 22 24  1  0  0  0  0
 24 25  1  0  0  0  0
 24 26  1  0  0  0  0
 26 27  1  0  0  0  0
 26 28  1  0  0  0  0
 26 29  1  0  0  0  0
M  END
$$$$

  -OEChem-04042215593D

 29 29  0     1  0  0  0  0  0999 V2000
   -2.4920   -4.4723    0.3352 H   0  0  0  0  0  0  0  0  0  0  0  0
   -2.6557   -3.4447   -0.0021 C   0  0  0  0  0  0  0  0  0  0  0  0
   -3.3275   -2.9476    0.7015 H   0  0  0  0  0  0  0  0  0  0  0  0
   -3.1230   -3.4695   -0.9893 H   0  0  0  0  0  0  0  0  0  0  0  0
   -1.3340   -2.7033   -0.0715 C   0  0  0  0  0  0  0  0  0  0  0  0
   -0.3029   -3.2790    0.2222 O   0  0  0  0  0  0  0  0  0  0  0  0
   -1.3110   -1.3851   -0.4819 N   0  0  0  0  0  0  0  0  0  0  0  0
   -2.2051   -0.9529   -0.6846 H   0  0  0  0  0  0  0  0  0  0  0  0
   -0.1012   -0.5420   -0.4867 C   0  0  1  0  0  0  0  0  0  0  0  0
    0.6419   -1.0836   -1.0838 H   0  0  0  0  0  0  0  0  0  0  0  0
   -0.4129    0.7507   -1.2716 C   0  0  0  0  0  0  0  0  0  0  0  0
    0.5206    1.1084   -1.7172 H   0  0  0  0  0  0  0  0  0  0  0  0
   -1.0972    0.5290   -2.0954 H   0  0  0  0  0  0  0  0  0  0  0  0
   -0.9601    1.8782   -0.4407 C   0  0  0  0  0  0  0  0  0  0  0  0
   -0.2162    2.6658    0.4245 N   0  0  0  0  0  0  0  0  0  0  0  0
   -1.0302    3.5627    0.9237 C   0  0  0  0  0  0  0  0  0  0  0  0
   -0.7459    4.3338    1.6345 H   0  0  0  0  0  0  0  0  0  0  0  0
   -2.2985    3.3789    0.4062 N   0  0  0  0  0  0  0  0  0  0  0  0
   -3.1053    3.9656    0.6128 H   0  0  0  0  0  0  0  0  0  0  0  0
   -2.2564    2.3149   -0.4712 C   0  0  0  0  0  0  0  0  0  0  0  0
   -3.0640    1.9162   -1.0774 H   0  0  0  0  0  0  0  0  0  0  0  0
    0.5734   -0.3391    0.8943 C   0  0  0  0  0  0  0  0  0  0  0  0
    1.7945   -0.3731    0.9845 O   0  0  0  0  0  0  0  0  0  0  0  0
   -0.1830   -0.0467    2.0175 N   0  0  0  0  0  0  0  0  0  0  0  0
   -1.1591    0.1709    1.8564 H   0  0  0  0  0  0  0  0  0  0  0  0
    0.4163    0.3350    3.2891 C   0  0  0  0  0  0  0  0  0  0  0  0
    0.9644    1.2771    3.1843 H   0  0  0  0  0  0  0  0  0  0  0  0
   -0.3597    0.4648    4.0491 H   0  0  0  0  0  0  0  0  0  0  0  0
    1.1091   -0.4398    3.6339 H   0  0  0  0  0  0  0  0  0  0  0  0
  1  2  1  0  0  0  0
  2  3  1  0  0  0  0
  2  4  1  0  0  0  0
  2  5  1  0  0  0  0
  5  6  2  0  0  0  0
  5  7  1  0  0  0  0
  7  8  1  0  0  0  0
  7  9  1  0  0  0  0
  9 10  1  0  0  0  0
  9 11  1  0  0  0  0
  9 22  1  0  0  0  0
 11 12  1  0  0  0  0
 11 13  1  0  0  0  0
 11 14  1  0  0  0  0
 14 15  1  0  0  0  0
 14 20  2  0  0  0  0
 15 16  2  0  0  0  0
 16 17  1  0  0  0  0
 16 18  1  0  0  0  0
 18 19  1  0  0  0  0
 18 20  1  0  0  0  0
 20 21  1  0  0  0  0
 22 23  2  0  0  0  0
 22 24  1  0  0  0  0
 24 25  1  0  0  0  0
 24 26  1  0  0  0  0
 26 27  1  0  0  0  0
 26 28  1  0  0  0  0
 26 29  1  0  0  0  0
M  END
$$$$

  -OEChem-04042215593D

 29 29  0     1  0  0  0  0  0999 V2000
   -2.4971   -4.4974    0.3144 H   0  0  0  0  0  0  0  0  0  0  0  0
   -2.6554   -3.4812   -0.0579 C   0  0  0  0  0  0  0  0  0  0  0  0
   -3.4040   -2.9905    0.5684 H   0  0  0  0  0  0  0  0  0  0  0  0
   -3.0260   -3.5376   -1.0842 H   0  0  0  0  0  0  0  0  0  0  0  0
   -1.3531   -2.7037   -0.0174 C   0  0  0  0  0  0  0  0  0  0  0  0
   -0.3426   -3.2401    0.3972 O   0  0  0  0  0  0  0  0  0  0  0  0
   -1.3238   -1.3968   -0.4626 N   0  0  0  0  0  0  0  0  0  0  0  0
   -2.1868   -1.0203   -0.8381 H   0  0  0  0  0  0  0  0  0  0  0  0
   -0.1123   -0.5559   -0.4894 C   0  0  1  0  0  0  0  0  0  0  0  0
    0.6285   -1.1055   -1.0813 H   0  0  0  0  0  0  0  0  0  0  0  0
   -0.4294    0.7329   -1.2778 C   0  0  0  0  0  0  0  0  0  0  0  0
    0.4945    1.0881   -1.7452 H   0  0  0  0  0  0  0  0  0  0  0  0
   -1.1346    0.5146   -2.0844 H   0  0  0  0  0  0  0  0  0  0  0  0
   -0.9593    1.8521   -0.4270 C   0  0  0  0  0  0  0  0  0  0  0  0
   -0.1652    2.8042    0.1920 N   0  0  0  0  0  0  0  0  0  0  0  0
   -0.9728    3.6266    0.8144 C   0  0  0  0  0  0  0  0  0  0  0  0
   -0.6555    4.4859    1.3985 H   0  0  0  0  0  0  0  0  0  0  0  0
   -2.2839    3.2387    0.6093 N   0  0  0  0  0  0  0  0  0  0  0  0
   -3.1016    3.7301    0.9666 H   0  0  0  0  0  0  0  0  0  0  0  0
   -2.2812    2.1151   -0.1917 C   0  0  0  0  0  0  0  0  0  0  0  0
   -3.1345    1.5617   -0.5699 H   0  0  0  0  0  0  0  0  0  0  0  0
    0.5652   -0.3146    0.8842 C   0  0  0  0  0  0  0  0  0  0  0  0
    1.7869   -0.3135    0.9671 O   0  0  0  0  0  0  0  0  0  0  0  0
   -0.1902    0.0102    1.9987 N   0  0  0  0  0  0  0  0  0  0  0  0
   -1.1848    0.1385    1.8544 H   0  0  0  0  0  0  0  0  0  0  0  0
    0.4013    0.4302    3.2613 C   0  0  0  0  0  0  0  0  0  0  0  0
    0.9594    1.3629    3.1281 H   0  0  0  0  0  0  0  0  0  0  0  0
   -0.3800    0.5948    4.0090 H   0  0  0  0  0  0  0  0  0  0  0  0
    1.0833   -0.3389    3.6389 H   0  0  0  0  0  0  0  0  0  0  0  0
  1  2  1  0  0  0  0
  2  3  1  0  0  0  0
  2  4  1  0  0  0  0
  2  5  1  0  0  0  0
  5  6  2  0  0  0  0
  5  7  1  0  0  0  0
  7  8  1  0  0  0  0
  7  9  1  0  0  0  0
  9 10  1  0  0  0  0
  9 11  1  0  0  0  0
  9 22  1  0  0  0  0
 11 12  1  0  0  0  0
 11 13  1  0  0  0  0
 11 14  1  0  0  0  0
 14 15  1  0  0  0  0
 14 20  2  0  0  0  0
 15 16  2  0  0  0  0
 16 17  1  0  0  0  0
 16 18  1  0  0  0  0
 18 19  1  0  0  0  0
 18 20  1  0  0  0  0
 20 21  1  0  0  0  0
 22 23  2  0  0  0  0
 22 24  1  0  0  0  0
 24 25  1  0  0  0  0
 24 26  1  0  0  0  0
 26 27  1  0  0  0  0
 26 28  1  0  0  0  0
 26 29  1  0  0  0  0
M  END
$$$$

  -OEChem-04042215593D

 29 29  0     1  0  0  0  0  0999 V2000
   -2.4863   -4.5172    0.3185 H   0  0  0  0  0  0  0  0  0  0  0  0
   -2.6410   -3.5202   -0.1041 C   0  0  0  0  0  0  0  0  0  0  0  0
   -3.4590   -3.0349    0.4333 H   0  0  0  0  0  0  0  0  0  0  0  0
   -2.9137   -3.6245   -1.1569 H   0  0  0  0  0  0  0  0  0  0  0  0
   -1.3726   -2.6975    0.0248 C   0  0  0  0  0  0  0  0  0  0  0  0
   -0.3830   -3.1922    0.5309 O   0  0  0  0  0  0  0  0  0  0  0  0
   -1.3500   -1.3969   -0.4403 N   0  0  0  0  0  0  0  0  0  0  0  0
   -2.1697   -1.0846   -0.9489 H   0  0  0  0  0  0  0  0  0  0  0  0
   -0.1369   -0.5581   -0.4841 C   0  0  1  0  0  0  0  0  0  0  0  0
    0.5987   -1.1156   -1.0751 H   0  0  0  0  0  0  0  0  0  0  0  0
   -0.4541    0.7277   -1.2773 C   0  0  0  0  0  0  0  0  0  0  0  0
    0.4688    1.0752   -1.7527 H   0  0  0  0  0  0  0  0  0  0  0  0
   -1.1668    0.5142   -2.0783 H   0  0  0  0  0  0  0  0  0  0  0  0
   -0.9711    1.8532   -0.4268 C   0  0  0  0  0  0  0  0  0  0  0  0
   -0.2168    2.9598   -0.0706 N   0  0  0  0  0  0  0  0  0  0  0  0
   -0.9890    3.7241    0.6614 C   0  0  0  0  0  0  0  0  0  0  0  0
   -0.6878    4.6708    1.1014 H   0  0  0  0  0  0  0  0  0  0  0  0
   -2.2406    3.1481    0.7812 N   0  0  0  0  0  0  0  0  0  0  0  0
   -3.0250    3.5542    1.2884 H   0  0  0  0  0  0  0  0  0  0  0  0
   -2.2377    1.9593    0.0810 C   0  0  0  0  0  0  0  0  0  0  0  0
   -3.0540    1.2565   -0.0471 H   0  0  0  0  0  0  0  0  0  0  0  0
    0.5528   -0.2948    0.8797 C   0  0  0  0  0  0  0  0  0  0  0  0
    1.7751   -0.2660    0.9449 O   0  0  0  0  0  0  0  0  0  0  0  0
   -0.1903    0.0488    1.9964 N   0  0  0  0  0  0  0  0  0  0  0  0
   -1.1962    0.0970    1.8844 H   0  0  0  0  0  0  0  0  0  0  0  0
    0.4076    0.4561    3.2601 C   0  0  0  0  0  0  0  0  0  0  0  0
    1.0020    1.3657    3.1245 H   0  0  0  0  0  0  0  0  0  0  0  0
   -0.3723    0.6576    4.0002 H   0  0  0  0  0  0  0  0  0  0  0  0
    1.0567   -0.3359    3.6484 H   0  0  0  0  0  0  0  0  0  0  0  0
  1  2  1  0  0  0  0
  2  3  1  0  0  0  0
  2  4  1  0  0  0  0
  2  5  1  0  0  0  0
  5  6  2  0  0  0  0
  5  7  1  0  0  0  0
  7  8  1  0  0  0  0
  7  9  1  0  0  0  0
  9 10  1  0  0  0  0
  9 11  1  0  0  0  0
  9 22  1  0  0  0  0
 11 12  1  0  0  0  0
 11 13  1  0  0  0  0
 11 14  1  0  0  0  0
 14 15  1  0  0  0  0
 14 20  2  0  0  0  0
 15 16  2  0  0  0  0
 16 17  1  0  0  0  0
 16 18  1  0  0  0  0
 18 19  1  0  0  0  0
 18 20  1  0  0  0  0
 20 21  1  0  0  0  0
 22 23  2  0  0  0  0
 22 24  1  0  0  0  0
 24 25  1  0  0  0  0
 24 26  1  0  0  0  0
 26 27  1  0  0  0  0
 26 28  1  0  0  0  0
 26 29  1  0  0  0  0
M  END
$$$$

  -OEChem-04042215593D

 29 29  0     1  0  0  0  0  0999 V2000
   -2.4568   -4.5424    0.2878 H   0  0  0  0  0  0  0  0  0  0  0  0
   -2.6208   -3.5439   -0.1278 C   0  0  0  0  0  0  0  0  0  0  0  0
   -3.4630   -3.0814    0.3919 H   0  0  0  0  0  0  0  0  0  0  0  0
   -2.8627   -3.6408   -1.1888 H   0  0  0  0  0  0  0  0  0  0  0  0
   -1.3745   -2.6966    0.0454 C   0  0  0  0  0  0  0  0  0  0  0  0
   -0.3939   -3.1685    0.5894 O   0  0  0  0  0  0  0  0  0  0  0  0
   -1.3661   -1.3935   -0.4119 N   0  0  0  0  0  0  0  0  0  0  0  0
   -2.1672   -1.1107   -0.9664 H   0  0  0  0  0  0  0  0  0  0  0  0
   -0.1578   -0.5483   -0.4624 C   0  0  1  0  0  0  0  0  0  0  0  0
    0.5731   -1.1058   -1.0592 H   0  0  0  0  0  0  0  0  0  0  0  0
   -0.4764    0.7339   -1.2603 C   0  0  0  0  0  0  0  0  0  0  0  0
    0.4519    1.0751   -1.7300 H   0  0  0  0  0  0  0  0  0  0  0  0
   -1.1824    0.5180   -2.0666 H   0  0  0  0  0  0  0  0  0  0  0  0
   -0.9971    1.8731   -0.4296 C   0  0  0  0  0  0  0  0  0  0  0  0
   -0.3638    3.1027   -0.3372 N   0  0  0  0  0  0  0  0  0  0  0  0
   -1.0938    3.8438    0.4594 C   0  0  0  0  0  0  0  0  0  0  0  0
   -0.8592    4.8658    0.7437 H   0  0  0  0  0  0  0  0  0  0  0  0
   -2.2060    3.1344    0.8734 N   0  0  0  0  0  0  0  0  0  0  0  0
   -2.9308    3.4931    1.4924 H   0  0  0  0  0  0  0  0  0  0  0  0
   -2.1553    1.8804    0.3007 C   0  0  0  0  0  0  0  0  0  0  0  0
   -2.8681    1.0687    0.4013 H   0  0  0  0  0  0  0  0  0  0  0  0
    0.5532   -0.2838    0.8899 C   0  0  0  0  0  0  0  0  0  0  0  0
    1.7749   -0.2154    0.9249 O   0  0  0  0  0  0  0  0  0  0  0  0
   -0.1687    0.0520    2.0220 N   0  0  0  0  0  0  0  0  0  0  0  0
   -1.1776   -0.0202    1.9636 H   0  0  0  0  0  0  0  0  0  0  0  0
    0.4493    0.3898    3.2966 C   0  0  0  0  0  0  0  0  0  0  0  0
    1.0938    1.2682    3.1872 H   0  0  0  0  0  0  0  0  0  0  0  0
   -0.3196    0.6161    4.0411 H   0  0  0  0  0  0  0  0  0  0  0  0
    1.0520   -0.4479    3.6632 H   0  0  0  0  0  0  0  0  0  0  0  0
  1  2  1  0  0  0  0
  2  3  1  0  0  0  0
  2  4  1  0  0  0  0
  2  5  1  0  0  0  0
  5  6  2  0  0  0  0
  5  7  1  0  0  0  0
  7  8  1  0  0  0  0
  7  9  1  0  0  0  0
  9 10  1  0  0  0  0
  9 11  1  0  0  0  0
  9 22  1  0  0  0  0
 11 12  1  0  0  0  0
 11 13  1  0  0  0  0
 11 14  1  0  0  0  0
 14 15  1  0  0  0  0
 14 20  2  0  0  0  0
 15 16  2  0  0  0  0
 16 17  1  0  0  0  0
 16 18  1  0  0  0  0
 18 19  1  0  0  0  0
 18 20  1  0  0  0  0
 20 21  1  0  0  0  0
 22 23  2  0  0  0  0
 22 24  1  0  0  0  0
 24 25  1  0  0  0  0
 24 26  1  0  0  0  0
 26 27  1  0  0  0  0
 26 28  1  0  0  0  0
 26 29  1  0  0  0  0
M  END
$$$$

  -OEChem-04042215593D

 29 29  0     1  0  0  0  0  0999 V2000
   -2.4178   -4.5794    0.2161 H   0  0  0  0  0  0  0  0  0  0  0  0
   -2.6036   -3.5675   -0.1558 C   0  0  0  0  0  0  0  0  0  0  0  0
   -3.4512   -3.1436    0.3879 H   0  0  0  0  0  0  0  0  0  0  0  0
   -2.8509   -3.6248   -1.2186 H   0  0  0  0  0  0  0  0  0  0  0  0
   -1.3721   -2.7047    0.0454 C   0  0  0  0  0  0  0  0  0  0  0  0
   -0.3895   -3.1713    0.5905 O   0  0  0  0  0  0  0  0  0  0  0  0
   -1.3813   -1.3898   -0.3762 N   0  0  0  0  0  0  0  0  0  0  0  0
   -2.1877   -1.1030   -0.9218 H   0  0  0  0  0  0  0  0  0  0  0  0
   -0.1807   -0.5339   -0.4229 C   0  0  1  0  0  0  0  0  0  0  0  0
    0.5433   -1.0882   -1.0313 H   0  0  0  0  0  0  0  0  0  0  0  0
   -0.4928    0.7485   -1.2232 C   0  0  0  0  0  0  0  0  0  0  0  0
    0.4465    1.0841   -1.6751 H   0  0  0  0  0  0  0  0  0  0  0  0
   -1.1811    0.5308   -2.0440 H   0  0  0  0  0  0  0  0  0  0  0  0
   -1.0250    1.9063   -0.4243 C   0  0  0  0  0  0  0  0  0  0  0  0
   -0.5634    3.2041   -0.5863 N   0  0  0  0  0  0  0  0  0  0  0  0
   -1.2513    3.9562    0.2374 C   0  0  0  0  0  0  0  0  0  0  0  0
   -1.1182    5.0277    0.3580 H   0  0  0  0  0  0  0  0  0  0  0  0
   -2.1740    3.1849    0.9184 N   0  0  0  0  0  0  0  0  0  0  0  0
   -2.8287    3.5351    1.6153 H   0  0  0  0  0  0  0  0  0  0  0  0
   -2.0442    1.8803    0.4900 C   0  0  0  0  0  0  0  0  0  0  0  0
   -2.6176    1.0144    0.8021 H   0  0  0  0  0  0  0  0  0  0  0  0
    0.5599   -0.2926    0.9178 C   0  0  0  0  0  0  0  0  0  0  0  0
    1.7785   -0.1768    0.9140 O   0  0  0  0  0  0  0  0  0  0  0  0
   -0.1329    0.0101    2.0771 N   0  0  0  0  0  0  0  0  0  0  0  0
   -1.1259   -0.1903    2.0744 H   0  0  0  0  0  0  0  0  0  0  0  0
    0.5258    0.2838    3.3476 C   0  0  0  0  0  0  0  0  0  0  0  0
    1.2016    1.1402    3.2515 H   0  0  0  0  0  0  0  0  0  0  0  0
   -0.2170    0.5166    4.1163 H   0  0  0  0  0  0  0  0  0  0  0  0
    1.1040   -0.5872    3.6739 H   0  0  0  0  0  0  0  0  0  0  0  0
  1  2  1  0  0  0  0
  2  3  1  0  0  0  0
  2  4  1  0  0  0  0
  2  5  1  0  0  0  0
  5  6  2  0  0  0  0
  5  7  1  0  0  0  0
  7  8  1  0  0  0  0
  7  9  1  0  0  0  0
  9 10  1  0  0  0  0
  9 11  1  0  0  0  0
  9 22  1  0  0  0  0
 11 12  1  0  0  0  0
 11 13  1  0  0  0  0
 11 14  1  0  0  0  0
 14 15  1  0  0  0  0
 14 20  2  0  0  0  0
 15 16  2  0  0  0  0
 16 17  1  0  0  0  0
 16 18  1  0  0  0  0
 18 19  1  0  0  0  0
 18 20  1  0  0  0  0
 20 21  1  0  0  0  0
 22 23  2  0  0  0  0
 22 24  1  0  0  0  0
 24 25  1  0  0  0  0
 24 26  1  0  0  0  0
 26 27  1  0  0  0  0
 26 28  1  0  0  0  0
 26 29  1  0  0  0  0
M  END
$$$$

  -OEChem-04042215593D

 29 29  0     1  0  0  0  0  0999 V2000
   -2.3884   -4.6074    0.1513 H   0  0  0  0  0  0  0  0  0  0  0  0
   -2.5910   -3.5855   -0.1822 C   0  0  0  0  0  0  0  0  0  0  0  0
   -3.4351   -3.1910    0.3882 H   0  0  0  0  0  0  0  0  0  0  0  0
   -2.8543   -3.6090   -1.2424 H   0  0  0  0  0  0  0  0  0  0  0  0
   -1.3658   -2.7161    0.0310 C   0  0  0  0  0  0  0  0  0  0  0  0
   -0.3727   -3.1871    0.5531 O   0  0  0  0  0  0  0  0  0  0  0  0
   -1.3929   -1.3868   -0.3421 N   0  0  0  0  0  0  0  0  0  0  0  0
   -2.2143   -1.0836   -0.8562 H   0  0  0  0  0  0  0  0  0  0  0  0
   -0.2006   -0.5193   -0.3824 C   0  0  1  0  0  0  0  0  0  0  0  0
    0.5154   -1.0671   -1.0062 H   0  0  0  0  0  0  0  0  0  0  0  0
   -0.5048    0.7682   -1.1793 C   0  0  0  0  0  0  0  0  0  0  0  0
    0.4431    1.0998   -1.6159 H   0  0  0  0  0  0  0  0  0  0  0  0
   -1.1781    0.5482   -2.0119 H   0  0  0  0  0  0  0  0  0  0  0  0
   -1.0469    1.9440   -0.4115 C   0  0  0  0  0  0  0  0  0  0  0  0
   -0.7937    3.2503   -0.8065 N   0  0  0  0  0  0  0  0  0  0  0  0
   -1.4281    4.0319    0.0326 C   0  0  0  0  0  0  0  0  0  0  0  0
   -1.4178    5.1177   -0.0003 H   0  0  0  0  0  0  0  0  0  0  0  0
   -2.1183    3.2687    0.9539 N   0  0  0  0  0  0  0  0  0  0  0  0
   -2.6867    3.6387    1.7134 H   0  0  0  0  0  0  0  0  0  0  0  0
   -1.8948    1.9396    0.6634 C   0  0  0  0  0  0  0  0  0  0  0  0
   -2.3015    1.0713    1.1684 H   0  0  0  0  0  0  0  0  0  0  0  0
    0.5702   -0.3164    0.9471 C   0  0  0  0  0  0  0  0  0  0  0  0
    1.7826   -0.1503    0.9095 O   0  0  0  0  0  0  0  0  0  0  0  0
   -0.0952   -0.0613    2.1336 N   0  0  0  0  0  0  0  0  0  0  0  0
   -1.0618   -0.3642    2.1692 H   0  0  0  0  0  0  0  0  0  0  0  0
    0.6040    0.1723    3.3910 C   0  0  0  0  0  0  0  0  0  0  0  0
    1.2656    1.0408    3.3059 H   0  0  0  0  0  0  0  0  0  0  0  0
   -0.1143    0.3654    4.1933 H   0  0  0  0  0  0  0  0  0  0  0  0
    1.2039   -0.7028    3.6623 H   0  0  0  0  0  0  0  0  0  0  0  0
  1  2  1  0  0  0  0
  2  3  1  0  0  0  0
  2  4  1  0  0  0  0
  2  5  1  0  0  0  0
  5  6  2  0  0  0  0
  5  7  1  0  0  0  0
  7  8  1  0  0  0  0
  7  9  1  0  0  0  0
  9 10  1  0  0  0  0
  9 11  1  0  0  0  0
  9 22  1  0  0  0  0
 11 12  1  0  0  0  0
 11 13  1  0  0  0  0
 11 14  1  0  0  0  0
 14 15  1  0  0  0  0
 14 20  2  0  0  0  0
 15 16  2  0  0  0  0
 16 17  1  0  0  0  0
 16 18  1  0  0  0  0
 18 19  1  0  0  0  0
 18 20  1  0  0  0  0
 20 21  1  0  0  0  0
 22 23  2  0  0  0  0
 22 24  1  0  0  0  0
 24 25  1  0  0  0  0
 24 26  1  0  0  0  0
 26 27  1  0  0  0  0
 26 28  1  0  0  0  0
 26 29  1  0  0  0  0
M  END
$$$$

  -OEChem-04042215593D

 29 29  0     1  0  0  0  0  0999 V2000
   -2.4145   -4.6069    0.0722 H   0  0  0  0  0  0  0  0  0  0  0  0
   -2.6166   -3.5733   -0.2236 C   0  0  0  0  0  0  0  0  0  0  0  0
   -3.4458   -3.1914    0.3765 H   0  0  0  0  0  0  0  0  0  0  0  0
   -2.9014   -3.5605   -1.2784 H   0  0  0  0  0  0  0  0  0  0  0  0
   -1.3813   -2.7193   -0.0076 C   0  0  0  0  0  0  0  0  0  0  0  0
   -0.3759   -3.2160    0.4657 O   0  0  0  0  0  0  0  0  0  0  0  0
   -1.4123   -1.3738   -0.3159 N   0  0  0  0  0  0  0  0  0  0  0  0
   -2.2513   -1.0377   -0.7792 H   0  0  0  0  0  0  0  0  0  0  0  0
   -0.2202   -0.5069   -0.3413 C   0  0  1  0  0  0  0  0  0  0  0  0
    0.4805   -1.0493   -0.9871 H   0  0  0  0  0  0  0  0  0  0  0  0
   -0.5012    0.7951   -1.1232 C   0  0  0  0  0  0  0  0  0  0  0  0
    0.4557    1.1150   -1.5480 H   0  0  0  0  0  0  0  0  0  0  0  0
   -1.1656    0.5833   -1.9648 H   0  0  0  0  0  0  0  0  0  0  0  0
   -1.0400    1.9900   -0.3810 C   0  0  0  0  0  0  0  0  0  0  0  0
   -1.0074    3.2470   -0.9712 N   0  0  0  0  0  0  0  0  0  0  0  0
   -1.5781    4.0801   -0.1364 C   0  0  0  0  0  0  0  0  0  0  0  0
   -1.6928    5.1472   -0.3037 H   0  0  0  0  0  0  0  0  0  0  0  0
   -2.0212    3.3941    0.9765 N   0  0  0  0  0  0  0  0  0  0  0  0
   -2.4999    3.8126    1.7718 H   0  0  0  0  0  0  0  0  0  0  0  0
   -1.7031    2.0623    0.8150 C   0  0  0  0  0  0  0  0  0  0  0  0
   -1.9426    1.2457    1.4839 H   0  0  0  0  0  0  0  0  0  0  0  0
    0.5833   -0.3652    0.9760 C   0  0  0  0  0  0  0  0  0  0  0  0
    1.7893   -0.1659    0.9118 O   0  0  0  0  0  0  0  0  0  0  0  0
   -0.0520   -0.1660    2.1890 N   0  0  0  0  0  0  0  0  0  0  0  0
   -1.0008   -0.5200    2.2421 H   0  0  0  0  0  0  0  0  0  0  0  0
    0.6826    0.0188    3.4344 C   0  0  0  0  0  0  0  0  0  0  0  0
    1.3326    0.8979    3.3699 H   0  0  0  0  0  0  0  0  0  0  0  0
   -0.0136    0.1672    4.2653 H   0  0  0  0  0  0  0  0  0  0  0  0
    1.2994   -0.8606    3.6485 H   0  0  0  0  0  0  0  0  0  0  0  0
  1  2  1  0  0  0  0
  2  3  1  0  0  0  0
  2  4  1  0  0  0  0
  2  5  1  0  0  0  0
  5  6  2  0  0  0  0
  5  7  1  0  0  0  0
  7  8  1  0  0  0  0
  7  9  1  0  0  0  0
  9 10  1  0  0  0  0
  9 11  1  0  0  0  0
  9 22  1  0  0  0  0
 11 12  1  0  0  0  0
 11 13  1  0  0  0  0
 11 14  1  0  0  0  0
 14 15  1  0  0  0  0
 14 20  2  0  0  0  0
 15 16  2  0  0  0  0
 16 17  1  0  0  0  0
 16 18  1  0  0  0  0
 18 19  1  0  0  0  0
 18 20  1  0  0  0  0
 20 21  1  0  0  0  0
 22 23  2  0  0  0  0
 22 24  1  0  0  0  0
 24 25  1  0  0  0  0
 24 26  1  0  0  0  0
 26 27  1  0  0  0  0
 26 28  1  0  0  0  0
 26 29  1  0  0  0  0
M  END
$$$$

  -OEChem-04042215593D

 29 29  0     1  0  0  0  0  0999 V2000
   -2.3945   -4.5884    0.0394 H   0  0  0  0  0  0  0  0  0  0  0  0
   -2.5997   -3.5413   -0.2015 C   0  0  0  0  0  0  0  0  0  0  0  0
   -3.3738   -3.1703    0.4745 H   0  0  0  0  0  0  0  0  0  0  0  0
   -2.9642   -3.4835   -1.2301 H   0  0  0  0  0  0  0  0  0  0  0  0
   -1.3367   -2.7142   -0.0507 C   0  0  0  0  0  0  0  0  0  0  0  0
   -0.3011   -3.2467    0.3038 O   0  0  0  0  0  0  0  0  0  0  0  0
   -1.3744   -1.3555   -0.2936 N   0  0  0  0  0  0  0  0  0  0  0  0
   -2.2519   -0.9820   -0.6431 H   0  0  0  0  0  0  0  0  0  0  0  0
   -0.1896   -0.4769   -0.3246 C   0  0  1  0  0  0  0  0  0  0  0  0
    0.5009   -0.9894   -1.0052 H   0  0  0  0  0  0  0  0  0  0  0  0
   -0.5207    0.8421   -1.0716 C   0  0  0  0  0  0  0  0  0  0  0  0
    0.3236    1.0300   -1.7422 H   0  0  0  0  0  0  0  0  0  0  0  0
   -1.3907    0.6727   -1.7120 H   0  0  0  0  0  0  0  0  0  0  0  0
   -0.7426    2.1549   -0.3569 C   0  0  0  0  0  0  0  0  0  0  0  0
   -1.0338    3.2607   -1.1488 N   0  0  0  0  0  0  0  0  0  0  0  0
   -1.1664    4.2921   -0.3524 C   0  0  0  0  0  0  0  0  0  0  0  0
   -1.3876    5.3052   -0.6761 H   0  0  0  0  0  0  0  0  0  0  0  0
   -0.9833    3.8931    0.9542 N   0  0  0  0  0  0  0  0  0  0  0  0
   -1.0073    4.5084    1.7653 H   0  0  0  0  0  0  0  0  0  0  0  0
   -0.7105    2.5418    0.9583 C   0  0  0  0  0  0  0  0  0  0  0  0
   -0.4927    1.9433    1.8302 H   0  0  0  0  0  0  0  0  0  0  0  0
    0.6216   -0.4285    0.9918 C   0  0  0  0  0  0  0  0  0  0  0  0
    1.8270   -0.2217    0.9469 O   0  0  0  0  0  0  0  0  0  0  0  0
   -0.0221   -0.3121    2.2122 N   0  0  0  0  0  0  0  0  0  0  0  0
   -0.9940   -0.6053    2.2232 H   0  0  0  0  0  0  0  0  0  0  0  0
    0.7005   -0.2616    3.4777 C   0  0  0  0  0  0  0  0  0  0  0  0
    1.3789    0.5977    3.4994 H   0  0  0  0  0  0  0  0  0  0  0  0
   -0.0019   -0.1652    4.3108 H   0  0  0  0  0  0  0  0  0  0  0  0
    1.2861   -1.1760    3.6202 H   0  0  0  0  0  0  0  0  0  0  0  0
  1  2  1  0  0  0  0
  2  3  1  0  0  0  0
  2  4  1  0  0  0  0
  2  5  1  0  0  0  0
  5  6  2  0  0  0  0
  5  7  1  0  0  0  0
  7  8  1  0  0  0  0
  7  9  1  0  0  0  0
  9 10  1  0  0  0  0
  9 11  1  0  0  0  0
  9 22  1  0  0  0  0
 11 12  1  0  0  0  0
 11 13  1  0  0  0  0
 11 14  1  0  0  0  0
 14 15  1  0  0  0  0
 14 20  2  0  0  0  0
 15 16  2  0  0  0  0
 16 17  1  0  0  0  0
 16 18  1  0  0  0  0
 18 19  1  0  0  0  0
 18 20  1  0  0  0  0
 20 21  1  0  0  0  0
 22 23  2  0  0  0  0
 22 24  1  0  0  0  0
 24 25  1  0  0  0  0
 24 26  1  0  0  0  0
 26 27  1  0  0  0  0
 26 28  1  0  0  0  0
 26 29  1  0  0  0  0
M  END
$$$$

  -OEChem-04042215593D

 29 29  0     1  0  0  0  0  0999 V2000
   -2.5203   -4.5238    0.1278 H   0  0  0  0  0  0  0  0  0  0  0  0
   -2.6808   -3.4797   -0.1561 C   0  0  0  0  0  0  0  0  0  0  0  0
   -3.4401   -3.0497    0.5015 H   0  0  0  0  0  0  0  0  0  0  0  0
   -3.0394   -3.4477   -1.1879 H   0  0  0  0  0  0  0  0  0  0  0  0
   -1.3847   -2.7011   -0.0331 C   0  0  0  0  0  0  0  0  0  0  0  0
   -0.3720   -3.2638    0.3406 O   0  0  0  0  0  0  0  0  0  0  0  0
   -1.3641   -1.3537   -0.3336 N   0  0  0  0  0  0  0  0  0  0  0  0
   -2.2273   -0.9526   -0.6885 H   0  0  0  0  0  0  0  0  0  0  0  0
   -0.1488   -0.5169   -0.3604 C   0  0  1  0  0  0  0  0  0  0  0  0
    0.5521   -1.0438   -1.0186 H   0  0  0  0  0  0  0  0  0  0  0  0
   -0.4682    0.8123   -1.0975 C   0  0  0  0  0  0  0  0  0  0  0  0
    0.3579    0.9917   -1.7922 H   0  0  0  0  0  0  0  0  0  0  0  0
   -1.3588    0.6622   -1.7142 H   0  0  0  0  0  0  0  0  0  0  0  0
   -0.6537    2.1179   -0.3579 C   0  0  0  0  0  0  0  0  0  0  0  0
   -1.2465    3.1706   -1.0472 N   0  0  0  0  0  0  0  0  0  0  0  0
   -1.2250    4.2176   -0.2597 C   0  0  0  0  0  0  0  0  0  0  0  0
   -1.6142    5.1989   -0.5165 H   0  0  0  0  0  0  0  0  0  0  0  0
   -0.6235    3.8864    0.9355 N   0  0  0  0  0  0  0  0  0  0  0  0
   -0.4351    4.5345    1.6980 H   0  0  0  0  0  0  0  0  0  0  0  0
   -0.2332    2.5662    0.8684 C   0  0  0  0  0  0  0  0  0  0  0  0
    0.3476    2.0320    1.6111 H   0  0  0  0  0  0  0  0  0  0  0  0
    0.5916   -0.4620    0.9960 C   0  0  0  0  0  0  0  0  0  0  0  0
    1.8053   -0.3055    1.0184 O   0  0  0  0  0  0  0  0  0  0  0  0
   -0.1205   -0.2808    2.1707 N   0  0  0  0  0  0  0  0  0  0  0  0
   -1.1128   -0.4883    2.1215 H   0  0  0  0  0  0  0  0  0  0  0  0
    0.5175   -0.2406    3.4812 C   0  0  0  0  0  0  0  0  0  0  0  0
    1.2509    0.5712    3.5289 H   0  0  0  0  0  0  0  0  0  0  0  0
   -0.2313   -0.0729    4.2609 H   0  0  0  0  0  0  0  0  0  0  0  0
    1.0276   -1.1876    3.6861 H   0  0  0  0  0  0  0  0  0  0  0  0
  1  2  1  0  0  0  0
  2  3  1  0  0  0  0
  2  4  1  0  0  0  0
  2  5  1  0  0  0  0
  5  6  2  0  0  0  0
  5  7  1  0  0  0  0
  7  8  1  0  0  0  0
  7  9  1  0  0  0  0
  9 10  1  0  0  0  0
  9 11  1  0  0  0  0
  9 22  1  0  0  0  0
 11 12  1  0  0  0  0
 11 13  1  0  0  0  0
 11 14  1  0  0  0  0
 14 15  1  0  0  0  0
 14 20  2  0  0  0  0
 15 16  2  0  0  0  0
 16 17  1  0  0  0  0
 16 18  1  0  0  0  0
 18 19  1  0  0  0  0
 18 20  1  0  0  0  0
 20 21  1  0  0  0  0
 22 23  2  0  0  0  0
 22 24  1  0  0  0  0
 24 25  1  0  0  0  0
 24 26  1  0  0  0  0
 26 27  1  0  0  0  0
 26 28  1  0  0  0  0
 26 29  1  0  0  0  0
M  END
$$$$

  -OEChem-04042215593D

 29 29  0     1  0  0  0  0  0999 V2000
   -2.5405   -4.5016    0.1990 H   0  0  0  0  0  0  0  0  0  0  0  0
   -2.6881   -3.4636   -0.1126 C   0  0  0  0  0  0  0  0  0  0  0  0
   -3.4330   -3.0028    0.5406 H   0  0  0  0  0  0  0  0  0  0  0  0
   -3.0582   -3.4553   -1.1407 H   0  0  0  0  0  0  0  0  0  0  0  0
   -1.3789   -2.7020   -0.0264 C   0  0  0  0  0  0  0  0  0  0  0  0
   -0.3706   -3.2678    0.3549 O   0  0  0  0  0  0  0  0  0  0  0  0
   -1.3409   -1.3652   -0.3692 N   0  0  0  0  0  0  0  0  0  0  0  0
   -2.2037   -0.9555   -0.7156 H   0  0  0  0  0  0  0  0  0  0  0  0
   -0.1185   -0.5397   -0.3976 C   0  0  1  0  0  0  0  0  0  0  0  0
    0.5898   -1.0723   -1.0428 H   0  0  0  0  0  0  0  0  0  0  0  0
   -0.4474    0.7862   -1.1362 C   0  0  0  0  0  0  0  0  0  0  0  0
    0.3733    0.9767   -1.8339 H   0  0  0  0  0  0  0  0  0  0  0  0
   -1.3423    0.6423   -1.7487 H   0  0  0  0  0  0  0  0  0  0  0  0
   -0.6239    2.0696   -0.3589 C   0  0  0  0  0  0  0  0  0  0  0  0
   -1.4865    3.0440   -0.8489 N   0  0  0  0  0  0  0  0  0  0  0  0
   -1.3770    4.0886   -0.0644 C   0  0  0  0  0  0  0  0  0  0  0  0
   -1.9283    5.0169   -0.1838 H   0  0  0  0  0  0  0  0  0  0  0  0
   -0.4499    3.8346    0.9247 N   0  0  0  0  0  0  0  0  0  0  0  0
   -0.1471    4.5002    1.6335 H   0  0  0  0  0  0  0  0  0  0  0  0
    0.0538    2.5680    0.7239 C   0  0  0  0  0  0  0  0  0  0  0  0
    0.8583    2.0903    1.2762 H   0  0  0  0  0  0  0  0  0  0  0  0
    0.5969   -0.4455    0.9698 C   0  0  0  0  0  0  0  0  0  0  0  0
    1.8139   -0.3175    1.0105 O   0  0  0  0  0  0  0  0  0  0  0  0
   -0.1331   -0.2180    2.1245 N   0  0  0  0  0  0  0  0  0  0  0  0
   -1.1341   -0.3732    2.0602 H   0  0  0  0  0  0  0  0  0  0  0  0
    0.4778   -0.1184    3.4441 C   0  0  0  0  0  0  0  0  0  0  0  0
    1.2065    0.6984    3.4712 H   0  0  0  0  0  0  0  0  0  0  0  0
   -0.2874    0.0792    4.2006 H   0  0  0  0  0  0  0  0  0  0  0  0
    0.9871   -1.0534    3.7003 H   0  0  0  0  0  0  0  0  0  0  0  0
  1  2  1  0  0  0  0
  2  3  1  0  0  0  0
  2  4  1  0  0  0  0
  2  5  1  0  0  0  0
  5  6  2  0  0  0  0
  5  7  1  0  0  0  0
  7  8  1  0  0  0  0
  7  9  1  0  0  0  0
  9 10  1  0  0  0  0
  9 11  1  0  0  0  0
  9 22  1  0  0  0  0
 11 12  1  0  0  0  0
 11 13  1  0  0  0  0
 11 14  1  0  0  0  0
 14 15  1  0  0  0  0
 14 20  2  0  0  0  0
 15 16  2  0  0  0  0
 16 17  1  0  0  0  0
 16 18  1  0  0  0  0
 18 19  1  0  0  0  0
 18 20  1  0  0  0  0
 20 21  1  0  0  0  0
 22 23  2  0  0  0  0
 22 24  1  0  0  0  0
 24 25  1  0  0  0  0
 24 26  1  0  0  0  0
 26 27  1  0  0  0  0
 26 28  1  0  0  0  0
 26 29  1  0  0  0  0
M  END
$$$$

  -OEChem-04042215593D

 29 29  0     1  0  0  0  0  0999 V2000
   -2.5446   -4.4871    0.2502 H   0  0  0  0  0  0  0  0  0  0  0  0
   -2.6863   -3.4544   -0.0810 C   0  0  0  0  0  0  0  0  0  0  0  0
   -3.4173   -2.9726    0.5727 H   0  0  0  0  0  0  0  0  0  0  0  0
   -3.0709   -3.4636   -1.1037 H   0  0  0  0  0  0  0  0  0  0  0  0
   -1.3685   -2.7045   -0.0294 C   0  0  0  0  0  0  0  0  0  0  0  0
   -0.3605   -3.2725    0.3497 O   0  0  0  0  0  0  0  0  0  0  0  0
   -1.3210   -1.3773   -0.4059 N   0  0  0  0  0  0  0  0  0  0  0  0
   -2.1888   -0.9567   -0.7257 H   0  0  0  0  0  0  0  0  0  0  0  0
   -0.0974   -0.5550   -0.4305 C   0  0  1  0  0  0  0  0  0  0  0  0
    0.6215   -1.0918   -1.0601 H   0  0  0  0  0  0  0  0  0  0  0  0
   -0.4287    0.7651   -1.1740 C   0  0  0  0  0  0  0  0  0  0  0  0
    0.3987    0.9655   -1.8607 H   0  0  0  0  0  0  0  0  0  0  0  0
   -1.3191    0.6308   -1.7952 H   0  0  0  0  0  0  0  0  0  0  0  0
   -0.6011    2.0190   -0.3549 C   0  0  0  0  0  0  0  0  0  0  0  0
   -1.6622    2.8849   -0.5914 N   0  0  0  0  0  0  0  0  0  0  0  0
   -1.4720    3.9364    0.1697 C   0  0  0  0  0  0  0  0  0  0  0  0
   -2.1340    4.7965    0.2185 H   0  0  0  0  0  0  0  0  0  0  0  0
   -0.3015    3.7922    0.8870 N   0  0  0  0  0  0  0  0  0  0  0  0
    0.0917    4.4867    1.5196 H   0  0  0  0  0  0  0  0  0  0  0  0
    0.2720    2.5907    0.5324 C   0  0  0  0  0  0  0  0  0  0  0  0
    1.2303    2.1893    0.8547 H   0  0  0  0  0  0  0  0  0  0  0  0
    0.5949   -0.4222    0.9463 C   0  0  0  0  0  0  0  0  0  0  0  0
    1.8134   -0.3111    1.0051 O   0  0  0  0  0  0  0  0  0  0  0  0
   -0.1538   -0.1604    2.0807 N   0  0  0  0  0  0  0  0  0  0  0  0
   -1.1597   -0.2662    1.9976 H   0  0  0  0  0  0  0  0  0  0  0  0
    0.4323    0.0170    3.4024 C   0  0  0  0  0  0  0  0  0  0  0  0
    1.1202    0.8688    3.4063 H   0  0  0  0  0  0  0  0  0  0  0  0
   -0.3521    0.2042    4.1417 H   0  0  0  0  0  0  0  0  0  0  0  0
    0.9825   -0.8821    3.6991 H   0  0  0  0  0  0  0  0  0  0  0  0
  1  2  1  0  0  0  0
  2  3  1  0  0  0  0
  2  4  1  0  0  0  0
  2  5  1  0  0  0  0
  5  6  2  0  0  0  0
  5  7  1  0  0  0  0
  7  8  1  0  0  0  0
  7  9  1  0  0  0  0
  9 10  1  0  0  0  0
  9 11  1  0  0  0  0
  9 22  1  0  0  0  0
 11 12  1  0  0  0  0
 11 13  1  0  0  0  0
 11 14  1  0  0  0  0
 14 15  1  0  0  0  0
 14 20  2  0  0  0  0
 15 16  2  0  0  0  0
 16 17  1  0  0  0  0
 16 18  1  0  0  0  0
 18 19  1  0  0  0  0
 18 20  1  0  0  0  0
 20 21  1  0  0  0  0
 22 23  2  0  0  0  0
 22 24  1  0  0  0  0
 24 25  1  0  0  0  0
 24 26  1  0  0  0  0
 26 27  1  0  0  0  0
 26 28  1  0  0  0  0
 26 29  1  0  0  0  0
M  END
$$$$

  -OEChem-04042215593D

 29 29  0     1  0  0  0  0  0999 V2000
   -2.5427   -4.4738    0.3025 H   0  0  0  0  0  0  0  0  0  0  0  0
   -2.6861   -3.4477   -0.0484 C   0  0  0  0  0  0  0  0  0  0  0  0
   -3.3948   -2.9457    0.6144 H   0  0  0  0  0  0  0  0  0  0  0  0
   -3.0993   -3.4772   -1.0595 H   0  0  0  0  0  0  0  0  0  0  0  0
   -1.3615   -2.7079   -0.0498 C   0  0  0  0  0  0  0  0  0  0  0  0
   -0.3465   -3.2802    0.3038 O   0  0  0  0  0  0  0  0  0  0  0  0
   -1.3116   -1.3872   -0.4483 N   0  0  0  0  0  0  0  0  0  0  0  0
   -2.1882   -0.9503   -0.7190 H   0  0  0  0  0  0  0  0  0  0  0  0
   -0.0869   -0.5673   -0.4667 C   0  0  1  0  0  0  0  0  0  0  0  0
    0.6386   -1.1119   -1.0818 H   0  0  0  0  0  0  0  0  0  0  0  0
   -0.3998    0.7498   -1.2185 C   0  0  0  0  0  0  0  0  0  0  0  0
    0.4395    0.9486   -1.8916 H   0  0  0  0  0  0  0  0  0  0  0  0
   -1.2860    0.6329   -1.8491 H   0  0  0  0  0  0  0  0  0  0  0  0
   -0.5642    1.9769   -0.3641 C   0  0  0  0  0  0  0  0  0  0  0  0
   -1.7435    2.7105   -0.3400 N   0  0  0  0  0  0  0  0  0  0  0  0
   -1.5105    3.7654    0.4055 C   0  0  0  0  0  0  0  0  0  0  0  0
   -2.2377    4.5413    0.6274 H   0  0  0  0  0  0  0  0  0  0  0  0
   -0.2051    3.7471    0.8574 N   0  0  0  0  0  0  0  0  0  0  0  0
    0.2298    4.4627    1.4370 H   0  0  0  0  0  0  0  0  0  0  0  0
    0.4084    2.6238    0.3479 C   0  0  0  0  0  0  0  0  0  0  0  0
    1.4424    2.3064    0.4673 H   0  0  0  0  0  0  0  0  0  0  0  0
    0.5911   -0.4067    0.9156 C   0  0  0  0  0  0  0  0  0  0  0  0
    1.8088   -0.2899    0.9836 O   0  0  0  0  0  0  0  0  0  0  0  0
   -0.1706   -0.1214    2.0358 N   0  0  0  0  0  0  0  0  0  0  0  0
   -1.1792   -0.1540    1.9280 H   0  0  0  0  0  0  0  0  0  0  0  0
    0.3968    0.1704    3.3450 C   0  0  0  0  0  0  0  0  0  0  0  0
    1.0119    1.0751    3.3025 H   0  0  0  0  0  0  0  0  0  0  0  0
   -0.4018    0.3291    4.0758 H   0  0  0  0  0  0  0  0  0  0  0  0
    1.0181   -0.6641    3.6870 H   0  0  0  0  0  0  0  0  0  0  0  0
  1  2  1  0  0  0  0
  2  3  1  0  0  0  0
  2  4  1  0  0  0  0
  2  5  1  0  0  0  0
  5  6  2  0  0  0  0
  5  7  1  0  0  0  0
  7  8  1  0  0  0  0
  7  9  1  0  0  0  0
  9 10  1  0  0  0  0
  9 11  1  0  0  0  0
  9 22  1  0  0  0  0
 11 12  1  0  0  0  0
 11 13  1  0  0  0  0
 11 14  1  0  0  0  0
 14 15  1  0  0  0  0
 14 20  2  0  0  0  0
 15 16  2  0  0  0  0
 16 17  1  0  0  0  0
 16 18  1  0  0  0  0
 18 19  1  0  0  0  0
 18 20  1  0  0  0  0
 20 21  1  0  0  0  0
 22 23  2  0  0  0  0
 22 24  1  0  0  0  0
 24 25  1  0  0  0  0
 24 26  1  0  0  0  0
 26 27  1  0  0  0  0
 26 28  1  0  0  0  0
 26 29  1  0  0  0  0
M  END
$$$$

  -OEChem-04042215593D

 29 29  0     1  0  0  0  0  0999 V2000
   -2.5541   -4.4479    0.3394 H   0  0  0  0  0  0  0  0  0  0  0  0
   -2.6916   -3.4229   -0.0167 C   0  0  0  0  0  0  0  0  0  0  0  0
   -3.3697   -2.9026    0.6640 H   0  0  0  0  0  0  0  0  0  0  0  0
   -3.1377   -3.4541   -1.0137 H   0  0  0  0  0  0  0  0  0  0  0  0
   -1.3555   -2.7062   -0.0690 C   0  0  0  0  0  0  0  0  0  0  0  0
   -0.3393   -3.2920    0.2586 O   0  0  0  0  0  0  0  0  0  0  0  0
   -1.2969   -1.3927   -0.4891 N   0  0  0  0  0  0  0  0  0  0  0  0
   -2.1783   -0.9350   -0.7038 H   0  0  0  0  0  0  0  0  0  0  0  0
   -0.0689   -0.5794   -0.5009 C   0  0  1  0  0  0  0  0  0  0  0  0
    0.6628   -1.1310   -1.1020 H   0  0  0  0  0  0  0  0  0  0  0  0
   -0.3707    0.7326   -1.2618 C   0  0  0  0  0  0  0  0  0  0  0  0
    0.4760    0.9303   -1.9258 H   0  0  0  0  0  0  0  0  0  0  0  0
   -1.2539    0.6265   -1.8984 H   0  0  0  0  0  0  0  0  0  0  0  0
   -0.5313    1.9378   -0.3809 C   0  0  0  0  0  0  0  0  0  0  0  0
   -1.7680    2.5031   -0.0999 N   0  0  0  0  0  0  0  0  0  0  0  0
   -1.5267    3.5673    0.6303 C   0  0  0  0  0  0  0  0  0  0  0  0
   -2.2880    4.2364    1.0215 H   0  0  0  0  0  0  0  0  0  0  0  0
   -0.1660    3.7127    0.8247 N   0  0  0  0  0  0  0  0  0  0  0  0
    0.2787    4.4606    1.3540 H   0  0  0  0  0  0  0  0  0  0  0  0
    0.4736    2.6853    0.1662 C   0  0  0  0  0  0  0  0  0  0  0  0
    1.5407    2.4861    0.0940 H   0  0  0  0  0  0  0  0  0  0  0  0
    0.5932   -0.3946    0.8871 C   0  0  0  0  0  0  0  0  0  0  0  0
    1.8109   -0.2853    0.9676 O   0  0  0  0  0  0  0  0  0  0  0  0
   -0.1816   -0.0843    1.9919 N   0  0  0  0  0  0  0  0  0  0  0  0
   -1.1830   -0.0099    1.8418 H   0  0  0  0  0  0  0  0  0  0  0  0
    0.3737    0.3082    3.2796 C   0  0  0  0  0  0  0  0  0  0  0  0
    0.9271    1.2483    3.1872 H   0  0  0  0  0  0  0  0  0  0  0  0
   -0.4285    0.4474    4.0103 H   0  0  0  0  0  0  0  0  0  0  0  0
    1.0511   -0.4661    3.6550 H   0  0  0  0  0  0  0  0  0  0  0  0
  1  2  1  0  0  0  0
  2  3  1  0  0  0  0
  2  4  1  0  0  0  0
  2  5  1  0  0  0  0
  5  6  2  0  0  0  0
  5  7  1  0  0  0  0
  7  8  1  0  0  0  0
  7  9  1  0  0  0  0
  9 10  1  0  0  0  0
  9 11  1  0  0  0  0
  9 22  1  0  0  0  0
 11 12  1  0  0  0  0
 11 13  1  0  0  0  0
 11 14  1  0  0  0  0
 14 15  1  0  0  0  0
 14 20  2  0  0  0  0
 15 16  2  0  0  0  0
 16 17  1  0  0  0  0
 16 18  1  0  0  0  0
 18 19  1  0  0  0  0
 18 20  1  0  0  0  0
 20 21  1  0  0  0  0
 22 23  2  0  0  0  0
 22 24  1  0  0  0  0
 24 25  1  0  0  0  0
 24 26  1  0  0  0  0
 26 27  1  0  0  0  0
 26 28  1  0  0  0  0
 26 29  1  0  0  0  0
M  END
$$$$

  -OEChem-04042215593D

 29 29  0     1  0  0  0  0  0999 V2000
   -2.5646   -4.4266    0.3572 H   0  0  0  0  0  0  0  0  0  0  0  0
   -2.6975   -3.3992    0.0065 C   0  0  0  0  0  0  0  0  0  0  0  0
   -3.3486   -2.8700    0.7062 H   0  0  0  0  0  0  0  0  0  0  0  0
   -3.1717   -3.4228   -0.9775 H   0  0  0  0  0  0  0  0  0  0  0  0
   -1.3535   -2.7012   -0.0829 C   0  0  0  0  0  0  0  0  0  0  0  0
   -0.3366   -3.3000    0.2188 O   0  0  0  0  0  0  0  0  0  0  0  0
   -1.2892   -1.3921   -0.5148 N   0  0  0  0  0  0  0  0  0  0  0  0
   -2.1727   -0.9158   -0.6736 H   0  0  0  0  0  0  0  0  0  0  0  0
   -0.0584   -0.5840   -0.5178 C   0  0  1  0  0  0  0  0  0  0  0  0
    0.6773   -1.1437   -1.1067 H   0  0  0  0  0  0  0  0  0  0  0  0
   -0.3474    0.7219   -1.2908 C   0  0  0  0  0  0  0  0  0  0  0  0
    0.5059    0.9140   -1.9481 H   0  0  0  0  0  0  0  0  0  0  0  0
   -1.2279    0.6189   -1.9314 H   0  0  0  0  0  0  0  0  0  0  0  0
   -0.5113    1.9186   -0.4016 C   0  0  0  0  0  0  0  0  0  0  0  0
   -1.7412    2.3041    0.1173 N   0  0  0  0  0  0  0  0  0  0  0  0
   -1.5164    3.4000    0.8051 C   0  0  0  0  0  0  0  0  0  0  0  0
   -2.2759    3.9604    1.3431 H   0  0  0  0  0  0  0  0  0  0  0  0
   -0.1766    3.7356    0.7441 N   0  0  0  0  0  0  0  0  0  0  0  0
    0.2515    4.5403    1.1988 H   0  0  0  0  0  0  0  0  0  0  0  0
    0.4674    2.7971   -0.0327 C   0  0  0  0  0  0  0  0  0  0  0  0
    1.5214    2.7406   -0.2930 H   0  0  0  0  0  0  0  0  0  0  0  0
    0.5941   -0.3833    0.8729 C   0  0  0  0  0  0  0  0  0  0  0  0
    1.8127   -0.2931    0.9622 O   0  0  0  0  0  0  0  0  0  0  0  0
   -0.1868   -0.0562    1.9683 N   0  0  0  0  0  0  0  0  0  0  0  0
   -1.1731    0.1048    1.7836 H   0  0  0  0  0  0  0  0  0  0  0  0
    0.3694    0.3789    3.2418 C   0  0  0  0  0  0  0  0  0  0  0  0
    0.8776    1.3420    3.1276 H   0  0  0  0  0  0  0  0  0  0  0  0
   -0.4272    0.4893    3.9836 H   0  0  0  0  0  0  0  0  0  0  0  0
    1.0881   -0.3578    3.6167 H   0  0  0  0  0  0  0  0  0  0  0  0
  1  2  1  0  0  0  0
  2  3  1  0  0  0  0
  2  4  1  0  0  0  0
  2  5  1  0  0  0  0
  5  6  2  0  0  0  0
  5  7  1  0  0  0  0
  7  8  1  0  0  0  0
  7  9  1  0  0  0  0
  9 10  1  0  0  0  0
  9 11  1  0  0  0  0
  9 22  1  0  0  0  0
 11 12  1  0  0  0  0
 11 13  1  0  0  0  0
 11 14  1  0  0  0  0
 14 15  1  0  0  0  0
 14 20  2  0  0  0  0
 15 16  2  0  0  0  0
 16 17  1  0  0  0  0
 16 18  1  0  0  0  0
 18 19  1  0  0  0  0
 18 20  1  0  0  0  0
 20 21  1  0  0  0  0
 22 23  2  0  0  0  0
 22 24  1  0  0  0  0
 24 25  1  0  0  0  0
 24 26  1  0  0  0  0
 26 27  1  0  0  0  0
 26 28  1  0  0  0  0
 26 29  1  0  0  0  0
M  END
$$$$

  -OEChem-04042215593D

 29 29  0     1  0  0  0  0  0999 V2000
   -2.5553   -4.3994    0.4058 H   0  0  0  0  0  0  0  0  0  0  0  0
   -2.6903   -3.3760    0.0441 C   0  0  0  0  0  0  0  0  0  0  0  0
   -3.3082   -2.8289    0.7601 H   0  0  0  0  0  0  0  0  0  0  0  0
   -3.2020   -3.4087   -0.9208 H   0  0  0  0  0  0  0  0  0  0  0  0
   -1.3432   -2.6945   -0.1065 C   0  0  0  0  0  0  0  0  0  0  0  0
   -0.3216   -3.3068    0.1495 O   0  0  0  0  0  0  0  0  0  0  0  0
   -1.2826   -1.3860   -0.5412 N   0  0  0  0  0  0  0  0  0  0  0  0
   -2.1678   -0.8955   -0.6319 H   0  0  0  0  0  0  0  0  0  0  0  0
   -0.0517   -0.5786   -0.5308 C   0  0  1  0  0  0  0  0  0  0  0  0
    0.6892   -1.1424   -1.1091 H   0  0  0  0  0  0  0  0  0  0  0  0
   -0.3287    0.7213   -1.3180 C   0  0  0  0  0  0  0  0  0  0  0  0
    0.5309    0.9089   -1.9681 H   0  0  0  0  0  0  0  0  0  0  0  0
   -1.2034    0.6120   -1.9655 H   0  0  0  0  0  0  0  0  0  0  0  0
   -0.5071    1.9203   -0.4350 C   0  0  0  0  0  0  0  0  0  0  0  0
   -1.6658    2.1379    0.3034 N   0  0  0  0  0  0  0  0  0  0  0  0
   -1.4798    3.2717    0.9400 C   0  0  0  0  0  0  0  0  0  0  0  0
   -2.2007    3.7323    1.6093 H   0  0  0  0  0  0  0  0  0  0  0  0
   -0.2351    3.7913    0.6365 N   0  0  0  0  0  0  0  0  0  0  0  0
    0.1510    4.6550    1.0145 H   0  0  0  0  0  0  0  0  0  0  0  0
    0.3877    2.9336   -0.2447 C   0  0  0  0  0  0  0  0  0  0  0  0
    1.3762    3.0194   -0.6879 H   0  0  0  0  0  0  0  0  0  0  0  0
    0.5910   -0.3720    0.8641 C   0  0  0  0  0  0  0  0  0  0  0  0
    1.8106   -0.3211    0.9687 O   0  0  0  0  0  0  0  0  0  0  0  0
   -0.1949   -0.0399    1.9540 N   0  0  0  0  0  0  0  0  0  0  0  0
   -1.1528    0.2237    1.7333 H   0  0  0  0  0  0  0  0  0  0  0  0
    0.3644    0.3868    3.2290 C   0  0  0  0  0  0  0  0  0  0  0  0
    0.9090    1.3292    3.1112 H   0  0  0  0  0  0  0  0  0  0  0  0
   -0.4354    0.5336    3.9608 H   0  0  0  0  0  0  0  0  0  0  0  0
    1.0512   -0.3719    3.6187 H   0  0  0  0  0  0  0  0  0  0  0  0
  1  2  1  0  0  0  0
  2  3  1  0  0  0  0
  2  4  1  0  0  0  0
  2  5  1  0  0  0  0
  5  6  2  0  0  0  0
  5  7  1  0  0  0  0
  7  8  1  0  0  0  0
  7  9  1  0  0  0  0
  9 10  1  0  0  0  0
  9 11  1  0  0  0  0
  9 22  1  0  0  0  0
 11 12  1  0  0  0  0
 11 13  1  0  0  0  0
 11 14  1  0  0  0  0
 14 15  1  0  0  0  0
 14 20  2  0  0  0  0
 15 16  2  0  0  0  0
 16 17  1  0  0  0  0
 16 18  1  0  0  0  0
 18 19  1  0  0  0  0
 18 20  1  0  0  0  0
 20 21  1  0  0  0  0
 22 23  2  0  0  0  0
 22 24  1  0  0  0  0
 24 25  1  0  0  0  0
 24 26  1  0  0  0  0
 26 27  1  0  0  0  0
 26 28  1  0  0  0  0
 26 29  1  0  0  0  0
M  END
$$$$

  -OEChem-04042215593D

 29 29  0     1  0  0  0  0  0999 V2000
   -2.5375   -4.4155    0.3775 H   0  0  0  0  0  0  0  0  0  0  0  0
   -2.6833   -3.3848    0.0420 C   0  0  0  0  0  0  0  0  0  0  0  0
   -3.2853   -2.8556    0.7845 H   0  0  0  0  0  0  0  0  0  0  0  0
   -3.2179   -3.3976   -0.9107 H   0  0  0  0  0  0  0  0  0  0  0  0
   -1.3415   -2.6969   -0.1256 C   0  0  0  0  0  0  0  0  0  0  0  0
   -0.3134   -3.3116    0.0968 O   0  0  0  0  0  0  0  0  0  0  0  0
   -1.2944   -1.3811   -0.5398 N   0  0  0  0  0  0  0  0  0  0  0  0
   -2.1831   -0.8908   -0.5831 H   0  0  0  0  0  0  0  0  0  0  0  0
   -0.0700   -0.5643   -0.5109 C   0  0  1  0  0  0  0  0  0  0  0  0
    0.6745   -1.1319   -1.0809 H   0  0  0  0  0  0  0  0  0  0  0  0
   -0.3218    0.7269   -1.3209 C   0  0  0  0  0  0  0  0  0  0  0  0
    0.5519    0.9022   -1.9554 H   0  0  0  0  0  0  0  0  0  0  0  0
   -1.1816    0.6026   -1.9854 H   0  0  0  0  0  0  0  0  0  0  0  0
   -0.5293    1.9483   -0.4731 C   0  0  0  0  0  0  0  0  0  0  0  0
   -1.5620    2.0621    0.4544 N   0  0  0  0  0  0  0  0  0  0  0  0
   -1.4174    3.2416    1.0142 C   0  0  0  0  0  0  0  0  0  0  0  0
   -2.0650    3.6439    1.7881 H   0  0  0  0  0  0  0  0  0  0  0  0
   -0.3222    3.8929    0.4786 N   0  0  0  0  0  0  0  0  0  0  0  0
    0.0103    4.8140    0.7593 H   0  0  0  0  0  0  0  0  0  0  0  0
    0.2485    3.0706   -0.4691 C   0  0  0  0  0  0  0  0  0  0  0  0
    1.1325    3.2507   -1.0745 H   0  0  0  0  0  0  0  0  0  0  0  0
    0.5799   -0.3639    0.8820 C   0  0  0  0  0  0  0  0  0  0  0  0
    1.8008   -0.3329    0.9805 O   0  0  0  0  0  0  0  0  0  0  0  0
   -0.1936   -0.0493    1.9851 N   0  0  0  0  0  0  0  0  0  0  0  0
   -1.1311    0.2809    1.7616 H   0  0  0  0  0  0  0  0  0  0  0  0
    0.3860    0.3485    3.2608 C   0  0  0  0  0  0  0  0  0  0  0  0
    0.9209    1.2983    3.1585 H   0  0  0  0  0  0  0  0  0  0  0  0
   -0.4010    0.4686    4.0111 H   0  0  0  0  0  0  0  0  0  0  0  0
    1.0863   -0.4142    3.6178 H   0  0  0  0  0  0  0  0  0  0  0  0
  1  2  1  0  0  0  0
  2  3  1  0  0  0  0
  2  4  1  0  0  0  0
  2  5  1  0  0  0  0
  5  6  2  0  0  0  0
  5  7  1  0  0  0  0
  7  8  1  0  0  0  0
  7  9  1  0  0  0  0
  9 10  1  0  0  0  0
  9 11  1  0  0  0  0
  9 22  1  0  0  0  0
 11 12  1  0  0  0  0
 11 13  1  0  0  0  0
 11 14  1  0  0  0  0
 14 15  1  0  0  0  0
 14 20  2  0  0  0  0
 15 16  2  0  0  0  0
 16 17  1  0  0  0  0
 16 18  1  0  0  0  0
 18 19  1  0  0  0  0
 18 20  1  0  0  0  0
 20 21  1  0  0  0  0
 22 23  2  0  0  0  0
 22 24  1  0  0  0  0
 24 25  1  0  0  0  0
 24 26  1  0  0  0  0
 26 27  1  0  0  0  0
 26 28  1  0  0  0  0
 26 29  1  0  0  0  0
M  END
$$$$

  -OEChem-04042215593D

 29 29  0     1  0  0  0  0  0999 V2000
   -2.5073   -4.4461    0.3271 H   0  0  0  0  0  0  0  0  0  0  0  0
   -2.6680   -3.4099    0.0164 C   0  0  0  0  0  0  0  0  0  0  0  0
   -3.2707   -2.9057    0.7755 H   0  0  0  0  0  0  0  0  0  0  0  0
   -3.2085   -3.4069   -0.9332 H   0  0  0  0  0  0  0  0  0  0  0  0
   -1.3361   -2.7016   -0.1439 C   0  0  0  0  0  0  0  0  0  0  0  0
   -0.2994   -3.3122    0.0477 O   0  0  0  0  0  0  0  0  0  0  0  0
   -1.3087   -1.3738   -0.5202 N   0  0  0  0  0  0  0  0  0  0  0  0
   -2.2036   -0.8939   -0.5363 H   0  0  0  0  0  0  0  0  0  0  0  0
   -0.0951   -0.5419   -0.4727 C   0  0  1  0  0  0  0  0  0  0  0  0
    0.6516   -1.1061   -1.0436 H   0  0  0  0  0  0  0  0  0  0  0  0
   -0.3305    0.7443   -1.2980 C   0  0  0  0  0  0  0  0  0  0  0  0
    0.5553    0.9116   -1.9183 H   0  0  0  0  0  0  0  0  0  0  0  0
   -1.1744    0.6001   -1.9782 H   0  0  0  0  0  0  0  0  0  0  0  0
   -0.5704    1.9927   -0.4954 C   0  0  0  0  0  0  0  0  0  0  0  0
   -1.4233    2.0702    0.6030 N   0  0  0  0  0  0  0  0  0  0  0  0
   -1.3264    3.2983    1.0574 C   0  0  0  0  0  0  0  0  0  0  0  0
   -1.8647    3.6859    1.9175 H   0  0  0  0  0  0  0  0  0  0  0  0
   -0.4399    4.0225    0.2839 N   0  0  0  0  0  0  0  0  0  0  0  0
   -0.1759    4.9932    0.4441 H   0  0  0  0  0  0  0  0  0  0  0  0
    0.0476    3.1933   -0.7031 C   0  0  0  0  0  0  0  0  0  0  0  0
    0.7797    3.4221   -1.4724 H   0  0  0  0  0  0  0  0  0  0  0  0
    0.5691   -0.3648    0.9172 C   0  0  0  0  0  0  0  0  0  0  0  0
    1.7914   -0.3523    1.0032 O   0  0  0  0  0  0  0  0  0  0  0  0
   -0.1871   -0.0880    2.0417 N   0  0  0  0  0  0  0  0  0  0  0  0
   -1.1118    0.2865    1.8352 H   0  0  0  0  0  0  0  0  0  0  0  0
    0.4150    0.2584    3.3220 C   0  0  0  0  0  0  0  0  0  0  0  0
    0.9590    1.2054    3.2456 H   0  0  0  0  0  0  0  0  0  0  0  0
   -0.3602    0.3601    4.0870 H   0  0  0  0  0  0  0  0  0  0  0  0
    1.1115   -0.5237    3.6420 H   0  0  0  0  0  0  0  0  0  0  0  0
  1  2  1  0  0  0  0
  2  3  1  0  0  0  0
  2  4  1  0  0  0  0
  2  5  1  0  0  0  0
  5  6  2  0  0  0  0
  5  7  1  0  0  0  0
  7  8  1  0  0  0  0
  7  9  1  0  0  0  0
  9 10  1  0  0  0  0
  9 11  1  0  0  0  0
  9 22  1  0  0  0  0
 11 12  1  0  0  0  0
 11 13  1  0  0  0  0
 11 14  1  0  0  0  0
 14 15  1  0  0  0  0
 14 20  2  0  0  0  0
 15 16  2  0  0  0  0
 16 17  1  0  0  0  0
 16 18  1  0  0  0  0
 18 19  1  0  0  0  0
 18 20  1  0  0  0  0
 20 21  1  0  0  0  0
 22 23  2  0  0  0  0
 22 24  1  0  0  0  0
 24 25  1  0  0  0  0
 24 26  1  0  0  0  0
 26 27  1  0  0  0  0
 26 28  1  0  0  0  0
 26 29  1  0  0  0  0
M  END
$$$$

  -OEChem-04042215593D

 29 29  0     1  0  0  0  0  0999 V2000
   -2.4838   -4.4688    0.2748 H   0  0  0  0  0  0  0  0  0  0  0  0
   -2.6547   -3.4277   -0.0139 C   0  0  0  0  0  0  0  0  0  0  0  0
   -3.2595   -2.9444    0.7570 H   0  0  0  0  0  0  0  0  0  0  0  0
   -3.1990   -3.4104   -0.9611 H   0  0  0  0  0  0  0  0  0  0  0  0
   -1.3299   -2.7038   -0.1640 C   0  0  0  0  0  0  0  0  0  0  0  0
   -0.2867   -3.3116   -0.0026 O   0  0  0  0  0  0  0  0  0  0  0  0
   -1.3193   -1.3642   -0.4972 N   0  0  0  0  0  0  0  0  0  0  0  0
   -2.2197   -0.8954   -0.4905 H   0  0  0  0  0  0  0  0  0  0  0  0
   -0.1147   -0.5195   -0.4328 C   0  0  1  0  0  0  0  0  0  0  0  0
    0.6328   -1.0746   -1.0120 H   0  0  0  0  0  0  0  0  0  0  0  0
   -0.3446    0.7687   -1.2587 C   0  0  0  0  0  0  0  0  0  0  0  0
    0.5504    0.9361   -1.8656 H   0  0  0  0  0  0  0  0  0  0  0  0
   -1.1742    0.6104   -1.9532 H   0  0  0  0  0  0  0  0  0  0  0  0
   -0.6093    2.0376   -0.4927 C   0  0  0  0  0  0  0  0  0  0  0  0
   -1.2356    2.1334    0.7465 N   0  0  0  0  0  0  0  0  0  0  0  0
   -1.2082    3.4019    1.0832 C   0  0  0  0  0  0  0  0  0  0  0  0
   -1.6141    3.8093    2.0048 H   0  0  0  0  0  0  0  0  0  0  0  0
   -0.5890    4.1395    0.0938 N   0  0  0  0  0  0  0  0  0  0  0  0
   -0.4241    5.1443    0.1244 H   0  0  0  0  0  0  0  0  0  0  0  0
   -0.1999    3.2746   -0.9061 C   0  0  0  0  0  0  0  0  0  0  0  0
    0.3365    3.5061   -1.8219 H   0  0  0  0  0  0  0  0  0  0  0  0
    0.5639   -0.3752    0.9541 C   0  0  0  0  0  0  0  0  0  0  0  0
    1.7874   -0.3810    1.0284 O   0  0  0  0  0  0  0  0  0  0  0  0
   -0.1788   -0.1418    2.0974 N   0  0  0  0  0  0  0  0  0  0  0  0
   -1.0909    0.2722    1.9141 H   0  0  0  0  0  0  0  0  0  0  0  0
    0.4436    0.1432    3.3833 C   0  0  0  0  0  0  0  0  0  0  0  0
    0.9883    1.0919    3.3425 H   0  0  0  0  0  0  0  0  0  0  0  0
   -0.3195    0.2101    4.1644 H   0  0  0  0  0  0  0  0  0  0  0  0
    1.1433   -0.6542    3.6555 H   0  0  0  0  0  0  0  0  0  0  0  0
  1  2  1  0  0  0  0
  2  3  1  0  0  0  0
  2  4  1  0  0  0  0
  2  5  1  0  0  0  0
  5  6  2  0  0  0  0
  5  7  1  0  0  0  0
  7  8  1  0  0  0  0
  7  9  1  0  0  0  0
  9 10  1  0  0  0  0
  9 11  1  0  0  0  0
  9 22  1  0  0  0  0
 11 12  1  0  0  0  0
 11 13  1  0  0  0  0
 11 14  1  0  0  0  0
 14 15  1  0  0  0  0
 14 20  2  0  0  0  0
 15 16  2  0  0  0  0
 16 17  1  0  0  0  0
 16 18  1  0  0  0  0
 18 19  1  0  0  0  0
 18 20  1  0  0  0  0
 20 21  1  0  0  0  0
 22 23  2  0  0  0  0
 22 24  1  0  0  0  0
 24 25  1  0  0  0  0
 24 26  1  0  0  0  0
 26 27  1  0  0  0  0
 26 28  1  0  0  0  0
 26 29  1  0  0  0  0
M  END
$$$$

  -OEChem-04042215593D

 29 29  0     1  0  0  0  0  0999 V2000
   -2.4777   -4.4721    0.2350 H   0  0  0  0  0  0  0  0  0  0  0  0
   -2.6532   -3.4261   -0.0322 C   0  0  0  0  0  0  0  0  0  0  0  0
   -3.2481   -2.9580    0.7555 H   0  0  0  0  0  0  0  0  0  0  0  0
   -3.2099   -3.3917   -0.9717 H   0  0  0  0  0  0  0  0  0  0  0  0
   -1.3305   -2.6987   -0.1858 C   0  0  0  0  0  0  0  0  0  0  0  0
   -0.2858   -3.3114   -0.0574 O   0  0  0  0  0  0  0  0  0  0  0  0
   -1.3249   -1.3506   -0.4839 N   0  0  0  0  0  0  0  0  0  0  0  0
   -2.2266   -0.8856   -0.4569 H   0  0  0  0  0  0  0  0  0  0  0  0
   -0.1219   -0.5042   -0.4059 C   0  0  1  0  0  0  0  0  0  0  0  0
    0.6234   -1.0506   -0.9961 H   0  0  0  0  0  0  0  0  0  0  0  0
   -0.3518    0.7917   -1.2232 C   0  0  0  0  0  0  0  0  0  0  0  0
    0.5508    0.9634   -1.8181 H   0  0  0  0  0  0  0  0  0  0  0  0
   -1.1703    0.6302   -1.9302 H   0  0  0  0  0  0  0  0  0  0  0  0
   -0.6265    2.0710   -0.4746 C   0  0  0  0  0  0  0  0  0  0  0  0
   -0.9913    2.2127    0.8594 N   0  0  0  0  0  0  0  0  0  0  0  0
   -1.0631    3.4999    1.1017 C   0  0  0  0  0  0  0  0  0  0  0  0
   -1.3184    3.9387    2.0621 H   0  0  0  0  0  0  0  0  0  0  0  0
   -0.7681    4.2094   -0.0449 N   0  0  0  0  0  0  0  0  0  0  0  0
   -0.7339    5.2250   -0.1162 H   0  0  0  0  0  0  0  0  0  0  0  0
   -0.4837    3.3055   -1.0458 C   0  0  0  0  0  0  0  0  0  0  0  0
   -0.1856    3.5130   -2.0695 H   0  0  0  0  0  0  0  0  0  0  0  0
    0.5656   -0.3948    0.9805 C   0  0  0  0  0  0  0  0  0  0  0  0
    1.7891   -0.4286    1.0483 O   0  0  0  0  0  0  0  0  0  0  0  0
   -0.1690   -0.1938    2.1358 N   0  0  0  0  0  0  0  0  0  0  0  0
   -1.0701    0.2493    1.9715 H   0  0  0  0  0  0  0  0  0  0  0  0
    0.4688    0.0470    3.4236 C   0  0  0  0  0  0  0  0  0  0  0  0
    1.0284    0.9877    3.4030 H   0  0  0  0  0  0  0  0  0  0  0  0
   -0.2866    0.1059    4.2128 H   0  0  0  0  0  0  0  0  0  0  0  0
    1.1578   -0.7681    3.6691 H   0  0  0  0  0  0  0  0  0  0  0  0
  1  2  1  0  0  0  0
  2  3  1  0  0  0  0
  2  4  1  0  0  0  0
  2  5  1  0  0  0  0
  5  6  2  0  0  0  0
  5  7  1  0  0  0  0
  7  8  1  0  0  0  0
  7  9  1  0  0  0  0
  9 10  1  0  0  0  0
  9 11  1  0  0  0  0
  9 22  1  0  0  0  0
 11 12  1  0  0  0  0
 11 13  1  0  0  0  0
 11 14  1  0  0  0  0
 14 15  1  0  0  0  0
 14 20  2  0  0  0  0
 15 16  2  0  0  0  0
 16 17  1  0  0  0  0
 16 18  1  0  0  0  0
 18 19  1  0  0  0  0
 18 20  1  0  0  0  0
 20 21  1  0  0  0  0
 22 23  2  0  0  0  0
 22 24  1  0  0  0  0
 24 25  1  0  0  0  0
 24 26  1  0  0  0  0
 26 27  1  0  0  0  0
 26 28  1  0  0  0  0
 26 29  1  0  0  0  0
M  END
$$$$

  -OEChem-04042215593D

 29 29  0     1  0  0  0  0  0999 V2000
   -2.4999   -4.4539    0.2251 H   0  0  0  0  0  0  0  0  0  0  0  0
   -2.6685   -3.4051   -0.0357 C   0  0  0  0  0  0  0  0  0  0  0  0
   -3.2587   -2.9376    0.7559 H   0  0  0  0  0  0  0  0  0  0  0  0
   -3.2264   -3.3608   -0.9740 H   0  0  0  0  0  0  0  0  0  0  0  0
   -1.3410   -2.6865   -0.1880 C   0  0  0  0  0  0  0  0  0  0  0  0
   -0.3008   -3.3097   -0.0766 O   0  0  0  0  0  0  0  0  0  0  0  0
   -1.3271   -1.3349   -0.4705 N   0  0  0  0  0  0  0  0  0  0  0  0
   -2.2255   -0.8652   -0.4399 H   0  0  0  0  0  0  0  0  0  0  0  0
   -0.1157   -0.4989   -0.3954 C   0  0  1  0  0  0  0  0  0  0  0  0
    0.6211   -1.0422   -0.9991 H   0  0  0  0  0  0  0  0  0  0  0  0
   -0.3527    0.8069   -1.1973 C   0  0  0  0  0  0  0  0  0  0  0  0
    0.5547    0.9807   -1.7838 H   0  0  0  0  0  0  0  0  0  0  0  0
   -1.1641    0.6509   -1.9138 H   0  0  0  0  0  0  0  0  0  0  0  0
   -0.6146    2.0929   -0.4529 C   0  0  0  0  0  0  0  0  0  0  0  0
   -0.6847    2.3055    0.9179 N   0  0  0  0  0  0  0  0  0  0  0  0
   -0.8860    3.5880    1.1024 C   0  0  0  0  0  0  0  0  0  0  0  0
   -0.9750    4.0712    2.0713 H   0  0  0  0  0  0  0  0  0  0  0  0
   -0.9726    4.2260   -0.1181 N   0  0  0  0  0  0  0  0  0  0  0  0
   -1.1089    5.2268   -0.2506 H   0  0  0  0  0  0  0  0  0  0  0  0
   -0.7986    3.2811   -1.1065 C   0  0  0  0  0  0  0  0  0  0  0  0
   -0.7860    3.4346   -2.1817 H   0  0  0  0  0  0  0  0  0  0  0  0
    0.5791   -0.4178    0.9890 C   0  0  0  0  0  0  0  0  0  0  0  0
    1.8009   -0.4933    1.0542 O   0  0  0  0  0  0  0  0  0  0  0  0
   -0.1510   -0.2275    2.1495 N   0  0  0  0  0  0  0  0  0  0  0  0
   -1.0438    0.2337    1.9984 H   0  0  0  0  0  0  0  0  0  0  0  0
    0.4963   -0.0215    3.4384 C   0  0  0  0  0  0  0  0  0  0  0  0
    1.0806    0.9045    3.4286 H   0  0  0  0  0  0  0  0  0  0  0  0
   -0.2548    0.0466    4.2310 H   0  0  0  0  0  0  0  0  0  0  0  0
    1.1645   -0.8577    3.6696 H   0  0  0  0  0  0  0  0  0  0  0  0
  1  2  1  0  0  0  0
  2  3  1  0  0  0  0
  2  4  1  0  0  0  0
  2  5  1  0  0  0  0
  5  6  2  0  0  0  0
  5  7  1  0  0  0  0
  7  8  1  0  0  0  0
  7  9  1  0  0  0  0
  9 10  1  0  0  0  0
  9 11  1  0  0  0  0
  9 22  1  0  0  0  0
 11 12  1  0  0  0  0
 11 13  1  0  0  0  0
 11 14  1  0  0  0  0
 14 15  1  0  0  0  0
 14 20  2  0  0  0  0
 15 16  2  0  0  0  0
 16 17  1  0  0  0  0
 16 18  1  0  0  0  0
 18 19  1  0  0  0  0
 18 20  1  0  0  0  0
 20 21  1  0  0  0  0
 22 23  2  0  0  0  0
 22 24  1  0  0  0  0
 24 25  1  0  0  0  0
 24 26  1  0  0  0  0
 26 27  1  0  0  0  0
 26 28  1  0  0  0  0
 26 29  1  0  0  0  0
M  END
$$$$

  -OEChem-04042215593D

 29 29  0     1  0  0  0  0  0999 V2000
   -2.5262   -4.4356    0.2345 H   0  0  0  0  0  0  0  0  0  0  0  0
   -2.6854   -3.3842   -0.0215 C   0  0  0  0  0  0  0  0  0  0  0  0
   -3.2679   -2.9140    0.7742 H   0  0  0  0  0  0  0  0  0  0  0  0
   -3.2462   -3.3311   -0.9576 H   0  0  0  0  0  0  0  0  0  0  0  0
   -1.3517   -2.6779   -0.1752 C   0  0  0  0  0  0  0  0  0  0  0  0
   -0.3174   -3.3095   -0.0577 O   0  0  0  0  0  0  0  0  0  0  0  0
   -1.3253   -1.3278   -0.4642 N   0  0  0  0  0  0  0  0  0  0  0  0
   -2.2204   -0.8509   -0.4522 H   0  0  0  0  0  0  0  0  0  0  0  0
   -0.1048   -0.5034   -0.4040 C   0  0  1  0  0  0  0  0  0  0  0  0
    0.6238   -1.0484   -1.0159 H   0  0  0  0  0  0  0  0  0  0  0  0
   -0.3520    0.8070   -1.1960 C   0  0  0  0  0  0  0  0  0  0  0  0
    0.5551    0.9805   -1.7830 H   0  0  0  0  0  0  0  0  0  0  0  0
   -1.1645    0.6562   -1.9127 H   0  0  0  0  0  0  0  0  0  0  0  0
   -0.5935    2.0958   -0.4484 C   0  0  0  0  0  0  0  0  0  0  0  0
   -0.3648    2.3888    0.8887 N   0  0  0  0  0  0  0  0  0  0  0  0
   -0.6976    3.6423    1.0778 C   0  0  0  0  0  0  0  0  0  0  0  0
   -0.6196    4.1717    2.0233 H   0  0  0  0  0  0  0  0  0  0  0  0
   -1.1662    4.1808   -0.1031 N   0  0  0  0  0  0  0  0  0  0  0  0
   -1.4730    5.1439   -0.2298 H   0  0  0  0  0  0  0  0  0  0  0  0
   -1.1026    3.2027   -1.0723 C   0  0  0  0  0  0  0  0  0  0  0  0
   -1.3749    3.2847   -2.1205 H   0  0  0  0  0  0  0  0  0  0  0  0
    0.5932   -0.4312    0.9791 C   0  0  0  0  0  0  0  0  0  0  0  0
    1.8131   -0.5323    1.0457 O   0  0  0  0  0  0  0  0  0  0  0  0
   -0.1367   -0.2320    2.1390 N   0  0  0  0  0  0  0  0  0  0  0  0
   -1.0450    0.1959    1.9936 H   0  0  0  0  0  0  0  0  0  0  0  0
    0.5100   -0.0173    3.4270 C   0  0  0  0  0  0  0  0  0  0  0  0
    1.0962    0.9074    3.4095 H   0  0  0  0  0  0  0  0  0  0  0  0
   -0.2414    0.0598    4.2183 H   0  0  0  0  0  0  0  0  0  0  0  0
    1.1761   -0.8530    3.6664 H   0  0  0  0  0  0  0  0  0  0  0  0
  1  2  1  0  0  0  0
  2  3  1  0  0  0  0
  2  4  1  0  0  0  0
  2  5  1  0  0  0  0
  5  6  2  0  0  0  0
  5  7  1  0  0  0  0
  7  8  1  0  0  0  0
  7  9  1  0  0  0  0
  9 10  1  0  0  0  0
  9 11  1  0  0  0  0
  9 22  1  0  0  0  0
 11 12  1  0  0  0  0
 11 13  1  0  0  0  0
 11 14  1  0  0  0  0
 14 15  1  0  0  0  0
 14 20  2  0  0  0  0
 15 16  2  0  0  0  0
 16 17  1  0  0  0  0
 16 18  1  0  0  0  0
 18 19  1  0  0  0  0
 18 20  1  0  0  0  0
 20 21  1  0  0  0  0
 22 23  2  0  0  0  0
 22 24  1  0  0  0  0
 24 25  1  0  0  0  0
 24 26  1  0  0  0  0
 26 27  1  0  0  0  0
 26 28  1  0  0  0  0
 26 29  1  0  0  0  0
M  END
$$$$

  -OEChem-04042215593D

 29 29  0     1  0  0  0  0  0999 V2000
   -2.5393   -4.4226    0.2776 H   0  0  0  0  0  0  0  0  0  0  0  0
   -2.6919   -3.3770   -0.0050 C   0  0  0  0  0  0  0  0  0  0  0  0
   -3.2906   -2.8889    0.7676 H   0  0  0  0  0  0  0  0  0  0  0  0
   -3.2328   -3.3446   -0.9538 H   0  0  0  0  0  0  0  0  0  0  0  0
   -1.3541   -2.6755   -0.1459 C   0  0  0  0  0  0  0  0  0  0  0  0
   -0.3241   -3.3063    0.0057 O   0  0  0  0  0  0  0  0  0  0  0  0
   -1.3182   -1.3318   -0.4632 N   0  0  0  0  0  0  0  0  0  0  0  0
   -2.2117   -0.8535   -0.4934 H   0  0  0  0  0  0  0  0  0  0  0  0
   -0.0927   -0.5123   -0.4240 C   0  0  1  0  0  0  0  0  0  0  0  0
    0.6335   -1.0614   -1.0350 H   0  0  0  0  0  0  0  0  0  0  0  0
   -0.3561    0.7950   -1.2169 C   0  0  0  0  0  0  0  0  0  0  0  0
    0.5436    0.9708   -1.8147 H   0  0  0  0  0  0  0  0  0  0  0  0
   -1.1760    0.6419   -1.9244 H   0  0  0  0  0  0  0  0  0  0  0  0
   -0.5824    2.0815   -0.4610 C   0  0  0  0  0  0  0  0  0  0  0  0
   -0.0755    2.4611    0.7732 N   0  0  0  0  0  0  0  0  0  0  0  0
   -0.5179    3.6681    1.0261 C   0  0  0  0  0  0  0  0  0  0  0  0
   -0.2839    4.2431    1.9176 H   0  0  0  0  0  0  0  0  0  0  0  0
   -1.3272    4.0904   -0.0091 N   0  0  0  0  0  0  0  0  0  0  0  0
   -1.7806    5.0007   -0.0670 H   0  0  0  0  0  0  0  0  0  0  0  0
   -1.3710    3.0867   -0.9534 C   0  0  0  0  0  0  0  0  0  0  0  0
   -1.8994    3.0876   -1.9022 H   0  0  0  0  0  0  0  0  0  0  0  0
    0.6009   -0.4211    0.9600 C   0  0  0  0  0  0  0  0  0  0  0  0
    1.8186   -0.5377    1.0361 O   0  0  0  0  0  0  0  0  0  0  0  0
   -0.1347   -0.1965    2.1122 N   0  0  0  0  0  0  0  0  0  0  0  0
   -1.0638    0.1804    1.9644 H   0  0  0  0  0  0  0  0  0  0  0  0
    0.5015    0.0391    3.4015 C   0  0  0  0  0  0  0  0  0  0  0  0
    1.0886    0.9629    3.3733 H   0  0  0  0  0  0  0  0  0  0  0  0
   -0.2558    0.1293    4.1857 H   0  0  0  0  0  0  0  0  0  0  0  0
    1.1652   -0.7927    3.6600 H   0  0  0  0  0  0  0  0  0  0  0  0
  1  2  1  0  0  0  0
  2  3  1  0  0  0  0
  2  4  1  0  0  0  0
  2  5  1  0  0  0  0
  5  6  2  0  0  0  0
  5  7  1  0  0  0  0
  7  8  1  0  0  0  0
  7  9  1  0  0  0  0
  9 10  1  0  0  0  0
  9 11  1  0  0  0  0
  9 22  1  0  0  0  0
 11 12  1  0  0  0  0
 11 13  1  0  0  0  0
 11 14  1  0  0  0  0
 14 15  1  0  0  0  0
 14 20  2  0  0  0  0
 15 16  2  0  0  0  0
 16 17  1  0  0  0  0
 16 18  1  0  0  0  0
 18 19  1  0  0  0  0
 18 20  1  0  0  0  0
 20 21  1  0  0  0  0
 22 23  2  0  0  0  0
 22 24  1  0  0  0  0
 24 25  1  0  0  0  0
 24 26  1  0  0  0  0
 26 27  1  0  0  0  0
 26 28  1  0  0  0  0
 26 29  1  0  0  0  0
M  END
$$$$

  -OEChem-04042215593D

 29 29  0     1  0  0  0  0  0999 V2000
   -2.5335   -4.4258    0.3160 H   0  0  0  0  0  0  0  0  0  0  0  0
   -2.6832   -3.3873    0.0065 C   0  0  0  0  0  0  0  0  0  0  0  0
   -3.3084   -2.8868    0.7496 H   0  0  0  0  0  0  0  0  0  0  0  0
   -3.1949   -3.3788   -0.9589 H   0  0  0  0  0  0  0  0  0  0  0  0
   -1.3455   -2.6804   -0.1085 C   0  0  0  0  0  0  0  0  0  0  0  0
   -0.3180   -3.2987    0.0993 O   0  0  0  0  0  0  0  0  0  0  0  0
   -1.3060   -1.3475   -0.4691 N   0  0  0  0  0  0  0  0  0  0  0  0
   -2.1994   -0.8792   -0.5704 H   0  0  0  0  0  0  0  0  0  0  0  0
   -0.0806   -0.5256   -0.4540 C   0  0  1  0  0  0  0  0  0  0  0  0
    0.6502   -1.0756   -1.0587 H   0  0  0  0  0  0  0  0  0  0  0  0
   -0.3686    0.7766   -1.2464 C   0  0  0  0  0  0  0  0  0  0  0  0
    0.5133    0.9603   -1.8676 H   0  0  0  0  0  0  0  0  0  0  0  0
   -1.2066    0.6205   -1.9315 H   0  0  0  0  0  0  0  0  0  0  0  0
   -0.5823    2.0524   -0.4703 C   0  0  0  0  0  0  0  0  0  0  0  0
    0.1672    2.5271    0.5956 N   0  0  0  0  0  0  0  0  0  0  0  0
   -0.3465    3.6773    0.9544 C   0  0  0  0  0  0  0  0  0  0  0  0
    0.0287    4.3024    1.7599 H   0  0  0  0  0  0  0  0  0  0  0  0
   -1.4341    3.9679    0.1548 N   0  0  0  0  0  0  0  0  0  0  0  0
   -1.9964    4.8152    0.2141 H   0  0  0  0  0  0  0  0  0  0  0  0
   -1.5858    2.9398   -0.7521 C   0  0  0  0  0  0  0  0  0  0  0  0
   -2.3274    2.8501   -1.5402 H   0  0  0  0  0  0  0  0  0  0  0  0
    0.6003   -0.3958    0.9329 C   0  0  0  0  0  0  0  0  0  0  0  0
    1.8165   -0.5112    1.0283 O   0  0  0  0  0  0  0  0  0  0  0  0
   -0.1507   -0.1376    2.0684 N   0  0  0  0  0  0  0  0  0  0  0  0
   -1.1049    0.1630    1.9113 H   0  0  0  0  0  0  0  0  0  0  0  0
    0.4610    0.1387    3.3613 C   0  0  0  0  0  0  0  0  0  0  0  0
    1.0571    1.0560    3.3127 H   0  0  0  0  0  0  0  0  0  0  0  0
   -0.3111    0.2628    4.1263 H   0  0  0  0  0  0  0  0  0  0  0  0
    1.1119   -0.6892    3.6614 H   0  0  0  0  0  0  0  0  0  0  0  0
  1  2  1  0  0  0  0
  2  3  1  0  0  0  0
  2  4  1  0  0  0  0
  2  5  1  0  0  0  0
  5  6  2  0  0  0  0
  5  7  1  0  0  0  0
  7  8  1  0  0  0  0
  7  9  1  0  0  0  0
  9 10  1  0  0  0  0
  9 11  1  0  0  0  0
  9 22  1  0  0  0  0
 11 12  1  0  0  0  0
 11 13  1  0  0  0  0
 11 14  1  0  0  0  0
 14 15  1  0  0  0  0
 14 20  2  0  0  0  0
 15 16  2  0  0  0  0
 16 17  1  0  0  0  0
 16 18  1  0  0  0  0
 18 19  1  0  0  0  0
 18 20  1  0  0  0  0
 20 21  1  0  0  0  0
 22 23  2  0  0  0  0
 22 24  1  0  0  0  0
 24 25  1  0  0  0  0
 24 26  1  0  0  0  0
 26 27  1  0  0  0  0
 26 28  1  0  0  0  0
 26 29  1  0  0  0  0
M  END
$$$$

  -OEChem-04042215593D

 29 29  0     1  0  0  0  0  0999 V2000
   -2.5184   -4.4376    0.3411 H   0  0  0  0  0  0  0  0  0  0  0  0
   -2.6687   -3.4091    0.0004 C   0  0  0  0  0  0  0  0  0  0  0  0
   -3.3350   -2.9012    0.7015 H   0  0  0  0  0  0  0  0  0  0  0  0
   -3.1348   -3.4317   -0.9874 H   0  0  0  0  0  0  0  0  0  0  0  0
   -1.3374   -2.6845   -0.0697 C   0  0  0  0  0  0  0  0  0  0  0  0
   -0.3136   -3.2779    0.2140 O   0  0  0  0  0  0  0  0  0  0  0  0
   -1.2981   -1.3643   -0.4739 N   0  0  0  0  0  0  0  0  0  0  0  0
   -2.1879   -0.9197   -0.6688 H   0  0  0  0  0  0  0  0  0  0  0  0
   -0.0769   -0.5358   -0.4799 C   0  0  1  0  0  0  0  0  0  0  0  0
    0.6604   -1.0860   -1.0759 H   0  0  0  0  0  0  0  0  0  0  0  0
   -0.3869    0.7582   -1.2762 C   0  0  0  0  0  0  0  0  0  0  0  0
    0.4749    0.9521   -1.9220 H   0  0  0  0  0  0  0  0  0  0  0  0
   -1.2447    0.6001   -1.9357 H   0  0  0  0  0  0  0  0  0  0  0  0
   -0.5918    2.0151   -0.4723 C   0  0  0  0  0  0  0  0  0  0  0  0
    0.3358    2.5991    0.3761 N   0  0  0  0  0  0  0  0  0  0  0  0
   -0.2143    3.6821    0.8651 C   0  0  0  0  0  0  0  0  0  0  0  0
    0.2657    4.3626    1.5626 H   0  0  0  0  0  0  0  0  0  0  0  0
   -1.4914    3.8237    0.3569 N   0  0  0  0  0  0  0  0  0  0  0  0
   -2.1211    4.5976    0.5625 H   0  0  0  0  0  0  0  0  0  0  0  0
   -1.7336    2.7689   -0.4988 C   0  0  0  0  0  0  0  0  0  0  0  0
   -2.6267    2.5758   -1.0852 H   0  0  0  0  0  0  0  0  0  0  0  0
    0.5930   -0.3580    0.9072 C   0  0  0  0  0  0  0  0  0  0  0  0
    1.8088   -0.4578    1.0185 O   0  0  0  0  0  0  0  0  0  0  0  0
   -0.1709   -0.0665    2.0260 N   0  0  0  0  0  0  0  0  0  0  0  0
   -1.1457    0.1551    1.8649 H   0  0  0  0  0  0  0  0  0  0  0  0
    0.4183    0.2496    3.3198 C   0  0  0  0  0  0  0  0  0  0  0  0
    1.0359    1.1510    3.2471 H   0  0  0  0  0  0  0  0  0  0  0  0
   -0.3672    0.4239    4.0607 H   0  0  0  0  0  0  0  0  0  0  0  0
    1.0433   -0.5793    3.6682 H   0  0  0  0  0  0  0  0  0  0  0  0
  1  2  1  0  0  0  0
  2  3  1  0  0  0  0
  2  4  1  0  0  0  0
  2  5  1  0  0  0  0
  5  6  2  0  0  0  0
  5  7  1  0  0  0  0
  7  8  1  0  0  0  0
  7  9  1  0  0  0  0
  9 10  1  0  0  0  0
  9 11  1  0  0  0  0
  9 22  1  0  0  0  0
 11 12  1  0  0  0  0
 11 13  1  0  0  0  0
 11 14  1  0  0  0  0
 14 15  1  0  0  0  0
 14 20  2  0  0  0  0
 15 16  2  0  0  0  0
 16 17  1  0  0  0  0
 16 18  1  0  0  0  0
 18 19  1  0  0  0  0
 18 20  1  0  0  0  0
 20 21  1  0  0  0  0
 22 23  2  0  0  0  0
 22 24  1  0  0  0  0
 24 25  1  0  0  0  0
 24 26  1  0  0  0  0
 26 27  1  0  0  0  0
 26 28  1  0  0  0  0
 26 29  1  0  0  0  0
M  END
$$$$

  -OEChem-04042215593D

 29 29  0     1  0  0  0  0  0999 V2000
   -2.4930   -4.4611    0.3391 H   0  0  0  0  0  0  0  0  0  0  0  0
   -2.6490   -3.4412   -0.0245 C   0  0  0  0  0  0  0  0  0  0  0  0
   -3.3796   -2.9469    0.6201 H   0  0  0  0  0  0  0  0  0  0  0  0
   -3.0415   -3.4884   -1.0431 H   0  0  0  0  0  0  0  0  0  0  0  0
   -1.3388   -2.6760   -0.0068 C   0  0  0  0  0  0  0  0  0  0  0  0
   -0.3282   -3.2221    0.3940 O   0  0  0  0  0  0  0  0  0  0  0  0
   -1.3047   -1.3693   -0.4532 N   0  0  0  0  0  0  0  0  0  0  0  0
   -2.1718   -0.9856   -0.8121 H   0  0  0  0  0  0  0  0  0  0  0  0
   -0.0894   -0.5320   -0.4907 C   0  0  1  0  0  0  0  0  0  0  0  0
    0.6496   -1.0867   -1.0805 H   0  0  0  0  0  0  0  0  0  0  0  0
   -0.4187    0.7498   -1.2970 C   0  0  0  0  0  0  0  0  0  0  0  0
    0.4202    0.9460   -1.9717 H   0  0  0  0  0  0  0  0  0  0  0  0
   -1.2989    0.5882   -1.9251 H   0  0  0  0  0  0  0  0  0  0  0  0
   -0.6095    1.9943   -0.4748 C   0  0  0  0  0  0  0  0  0  0  0  0
    0.4165    2.7148    0.1153 N   0  0  0  0  0  0  0  0  0  0  0  0
   -0.1349    3.7323    0.7284 C   0  0  0  0  0  0  0  0  0  0  0  0
    0.4075    4.4874    1.2905 H   0  0  0  0  0  0  0  0  0  0  0  0
   -1.5047    3.7012    0.5442 N   0  0  0  0  0  0  0  0  0  0  0  0
   -2.1591    4.3940    0.9035 H   0  0  0  0  0  0  0  0  0  0  0  0
   -1.8110    2.6009   -0.2300 C   0  0  0  0  0  0  0  0  0  0  0  0
   -2.7867    2.2802   -0.5807 H   0  0  0  0  0  0  0  0  0  0  0  0
    0.5844   -0.3039    0.8877 C   0  0  0  0  0  0  0  0  0  0  0  0
    1.8029   -0.3654    0.9943 O   0  0  0  0  0  0  0  0  0  0  0  0
   -0.1780    0.0176    1.9986 N   0  0  0  0  0  0  0  0  0  0  0  0
   -1.1784    0.1029    1.8658 H   0  0  0  0  0  0  0  0  0  0  0  0
    0.3975    0.3060    3.3045 C   0  0  0  0  0  0  0  0  0  0  0  0
    1.0663    1.1711    3.2435 H   0  0  0  0  0  0  0  0  0  0  0  0
   -0.3937    0.5286    4.0263 H   0  0  0  0  0  0  0  0  0  0  0  0
    0.9667   -0.5554    3.6694 H   0  0  0  0  0  0  0  0  0  0  0  0
  1  2  1  0  0  0  0
  2  3  1  0  0  0  0
  2  4  1  0  0  0  0
  2  5  1  0  0  0  0
  5  6  2  0  0  0  0
  5  7  1  0  0  0  0
  7  8  1  0  0  0  0
  7  9  1  0  0  0  0
  9 10  1  0  0  0  0
  9 11  1  0  0  0  0
  9 22  1  0  0  0  0
 11 12  1  0  0  0  0
 11 13  1  0  0  0  0
 11 14  1  0  0  0  0
 14 15  1  0  0  0  0
 14 20  2  0  0  0  0
 15 16  2  0  0  0  0
 16 17  1  0  0  0  0
 16 18  1  0  0  0  0
 18 19  1  0  0  0  0
 18 20  1  0  0  0  0
 20 21  1  0  0  0  0
 22 23  2  0  0  0  0
 22 24  1  0  0  0  0
 24 25  1  0  0  0  0
 24 26  1  0  0  0  0
 26 27  1  0  0  0  0
 26 28  1  0  0  0  0
 26 29  1  0  0  0  0
M  END
$$$$

  -OEChem-04042215593D

 29 29  0     1  0  0  0  0  0999 V2000
   -2.4669   -4.4907    0.3124 H   0  0  0  0  0  0  0  0  0  0  0  0
   -2.6333   -3.4765   -0.0626 C   0  0  0  0  0  0  0  0  0  0  0  0
   -3.4215   -3.0076    0.5311 H   0  0  0  0  0  0  0  0  0  0  0  0
   -2.9561   -3.5365   -1.1047 H   0  0  0  0  0  0  0  0  0  0  0  0
   -1.3538   -2.6672    0.0401 C   0  0  0  0  0  0  0  0  0  0  0  0
   -0.3618   -3.1702    0.5329 O   0  0  0  0  0  0  0  0  0  0  0  0
   -1.3280   -1.3679   -0.4283 N   0  0  0  0  0  0  0  0  0  0  0  0
   -2.1597   -1.0450   -0.9104 H   0  0  0  0  0  0  0  0  0  0  0  0
   -0.1146   -0.5286   -0.4830 C   0  0  1  0  0  0  0  0  0  0  0  0
    0.6218   -1.0905   -1.0690 H   0  0  0  0  0  0  0  0  0  0  0  0
   -0.4435    0.7461   -1.2985 C   0  0  0  0  0  0  0  0  0  0  0  0
    0.3871    0.9373   -1.9850 H   0  0  0  0  0  0  0  0  0  0  0  0
   -1.3336    0.5878   -1.9132 H   0  0  0  0  0  0  0  0  0  0  0  0
   -0.6232    1.9861   -0.4705 C   0  0  0  0  0  0  0  0  0  0  0  0
    0.4047    2.8540   -0.1395 N   0  0  0  0  0  0  0  0  0  0  0  0
   -0.1278    3.8139    0.5755 C   0  0  0  0  0  0  0  0  0  0  0  0
    0.4209    4.6517    0.9968 H   0  0  0  0  0  0  0  0  0  0  0  0
   -1.4889    3.6043    0.7023 N   0  0  0  0  0  0  0  0  0  0  0  0
   -2.1310    4.2173    1.2015 H   0  0  0  0  0  0  0  0  0  0  0  0
   -1.8118    2.4454    0.0269 C   0  0  0  0  0  0  0  0  0  0  0  0
   -2.7888    1.9884   -0.0910 H   0  0  0  0  0  0  0  0  0  0  0  0
    0.5706   -0.2713    0.8851 C   0  0  0  0  0  0  0  0  0  0  0  0
    1.7916   -0.2919    0.9725 O   0  0  0  0  0  0  0  0  0  0  0  0
   -0.1811    0.0692    1.9974 N   0  0  0  0  0  0  0  0  0  0  0  0
   -1.1891    0.0459    1.8987 H   0  0  0  0  0  0  0  0  0  0  0  0
    0.4037    0.3323    3.3048 C   0  0  0  0  0  0  0  0  0  0  0  0
    1.1059    1.1705    3.2469 H   0  0  0  0  0  0  0  0  0  0  0  0
   -0.3789    0.5853    4.0260 H   0  0  0  0  0  0  0  0  0  0  0  0
    0.9385   -0.5517    3.6679 H   0  0  0  0  0  0  0  0  0  0  0  0
  1  2  1  0  0  0  0
  2  3  1  0  0  0  0
  2  4  1  0  0  0  0
  2  5  1  0  0  0  0
  5  6  2  0  0  0  0
  5  7  1  0  0  0  0
  7  8  1  0  0  0  0
  7  9  1  0  0  0  0
  9 10  1  0  0  0  0
  9 11  1  0  0  0  0
  9 22  1  0  0  0  0
 11 12  1  0  0  0  0
 11 13  1  0  0  0  0
 11 14  1  0  0  0  0
 14 15  1  0  0  0  0
 14 20  2  0  0  0  0
 15 16  2  0  0  0  0
 16 17  1  0  0  0  0
 16 18  1  0  0  0  0
 18 19  1  0  0  0  0
 18 20  1  0  0  0  0
 20 21  1  0  0  0  0
 22 23  2  0  0  0  0
 22 24  1  0  0  0  0
 24 25  1  0  0  0  0
 24 26  1  0  0  0  0
 26 27  1  0  0  0  0
 26 28  1  0  0  0  0
 26 29  1  0  0  0  0
M  END
$$$$

  -OEChem-04042215593D

 29 29  0     1  0  0  0  0  0999 V2000
   -2.4522   -4.5173    0.2863 H   0  0  0  0  0  0  0  0  0  0  0  0
   -2.6235   -3.5078   -0.0984 C   0  0  0  0  0  0  0  0  0  0  0  0
   -3.4454   -3.0536    0.4599 H   0  0  0  0  0  0  0  0  0  0  0  0
   -2.9005   -3.5780   -1.1528 H   0  0  0  0  0  0  0  0  0  0  0  0
   -1.3660   -2.6723    0.0548 C   0  0  0  0  0  0  0  0  0  0  0  0
   -0.3838   -3.1545    0.5866 O   0  0  0  0  0  0  0  0  0  0  0  0
   -1.3493   -1.3702   -0.4067 N   0  0  0  0  0  0  0  0  0  0  0  0
   -2.1638   -1.0713   -0.9321 H   0  0  0  0  0  0  0  0  0  0  0  0
   -0.1373   -0.5287   -0.4643 C   0  0  1  0  0  0  0  0  0  0  0  0
    0.5943   -1.0922   -1.0549 H   0  0  0  0  0  0  0  0  0  0  0  0
   -0.4573    0.7486   -1.2791 C   0  0  0  0  0  0  0  0  0  0  0  0
    0.3760    0.9331   -1.9644 H   0  0  0  0  0  0  0  0  0  0  0  0
   -1.3469    0.5968   -1.8956 H   0  0  0  0  0  0  0  0  0  0  0  0
   -0.6336    1.9927   -0.4560 C   0  0  0  0  0  0  0  0  0  0  0  0
    0.3138    3.0006   -0.3740 N   0  0  0  0  0  0  0  0  0  0  0  0
   -0.1859    3.9227    0.4110 C   0  0  0  0  0  0  0  0  0  0  0  0
    0.3209    4.8430    0.6874 H   0  0  0  0  0  0  0  0  0  0  0  0
   -1.4535    3.5537    0.8225 N   0  0  0  0  0  0  0  0  0  0  0  0
   -2.0543    4.1062    1.4314 H   0  0  0  0  0  0  0  0  0  0  0  0
   -1.7497    2.3289    0.2606 C   0  0  0  0  0  0  0  0  0  0  0  0
   -2.6603    1.7479    0.3602 H   0  0  0  0  0  0  0  0  0  0  0  0
    0.5633   -0.2738    0.8961 C   0  0  0  0  0  0  0  0  0  0  0  0
    1.7856   -0.2449    0.9572 O   0  0  0  0  0  0  0  0  0  0  0  0
   -0.1755    0.0608    2.0182 N   0  0  0  0  0  0  0  0  0  0  0  0
   -1.1807   -0.0469    1.9514 H   0  0  0  0  0  0  0  0  0  0  0  0
    0.4262    0.3190    3.3189 C   0  0  0  0  0  0  0  0  0  0  0  0
    1.1289    1.1565    3.2553 H   0  0  0  0  0  0  0  0  0  0  0  0
   -0.3474    0.5726    4.0496 H   0  0  0  0  0  0  0  0  0  0  0  0
    0.9634   -0.5670    3.6734 H   0  0  0  0  0  0  0  0  0  0  0  0
  1  2  1  0  0  0  0
  2  3  1  0  0  0  0
  2  4  1  0  0  0  0
  2  5  1  0  0  0  0
  5  6  2  0  0  0  0
  5  7  1  0  0  0  0
  7  8  1  0  0  0  0
  7  9  1  0  0  0  0
  9 10  1  0  0  0  0
  9 11  1  0  0  0  0
  9 22  1  0  0  0  0
 11 12  1  0  0  0  0
 11 13  1  0  0  0  0
 11 14  1  0  0  0  0
 14 15  1  0  0  0  0
 14 20  2  0  0  0  0
 15 16  2  0  0  0  0
 16 17  1  0  0  0  0
 16 18  1  0  0  0  0
 18 19  1  0  0  0  0
 18 20  1  0  0  0  0
 20 21  1  0  0  0  0
 22 23  2  0  0  0  0
 22 24  1  0  0  0  0
 24 25  1  0  0  0  0
 24 26  1  0  0  0  0
 26 27  1  0  0  0  0
 26 28  1  0  0  0  0
 26 29  1  0  0  0  0
M  END
$$$$

  -OEChem-04042215593D

 29 29  0     1  0  0  0  0  0999 V2000
   -2.4363   -4.5417    0.2241 H   0  0  0  0  0  0  0  0  0  0  0  0
   -2.6194   -3.5225   -0.1283 C   0  0  0  0  0  0  0  0  0  0  0  0
   -3.4466   -3.0963    0.4441 H   0  0  0  0  0  0  0  0  0  0  0  0
   -2.8961   -3.5620   -1.1845 H   0  0  0  0  0  0  0  0  0  0  0  0
   -1.3719   -2.6776    0.0515 C   0  0  0  0  0  0  0  0  0  0  0  0
   -0.3912   -3.1569    0.5889 O   0  0  0  0  0  0  0  0  0  0  0  0
   -1.3633   -1.3665   -0.3829 N   0  0  0  0  0  0  0  0  0  0  0  0
   -2.1723   -1.0689   -0.9184 H   0  0  0  0  0  0  0  0  0  0  0  0
   -0.1539   -0.5215   -0.4312 C   0  0  1  0  0  0  0  0  0  0  0  0
    0.5725   -1.0876   -1.0258 H   0  0  0  0  0  0  0  0  0  0  0  0
   -0.4568    0.7562   -1.2504 C   0  0  0  0  0  0  0  0  0  0  0  0
    0.3944    0.9306   -1.9161 H   0  0  0  0  0  0  0  0  0  0  0  0
   -1.3316    0.6068   -1.8884 H   0  0  0  0  0  0  0  0  0  0  0  0
   -0.6437    2.0147   -0.4504 C   0  0  0  0  0  0  0  0  0  0  0  0
    0.1541    3.1387   -0.6016 N   0  0  0  0  0  0  0  0  0  0  0  0
   -0.3107    4.0432    0.2249 C   0  0  0  0  0  0  0  0  0  0  0  0
    0.1083    5.0369    0.3559 H   0  0  0  0  0  0  0  0  0  0  0  0
   -1.4160    3.5483    0.8917 N   0  0  0  0  0  0  0  0  0  0  0  0
   -1.9548    4.0573    1.5897 H   0  0  0  0  0  0  0  0  0  0  0  0
   -1.6429    2.2609    0.4519 C   0  0  0  0  0  0  0  0  0  0  0  0
   -2.4318    1.5795    0.7517 H   0  0  0  0  0  0  0  0  0  0  0  0
    0.5636   -0.2873    0.9236 C   0  0  0  0  0  0  0  0  0  0  0  0
    1.7850   -0.2148    0.9573 O   0  0  0  0  0  0  0  0  0  0  0  0
   -0.1576    0.0245    2.0634 N   0  0  0  0  0  0  0  0  0  0  0  0
   -1.1527   -0.1641    2.0297 H   0  0  0  0  0  0  0  0  0  0  0  0
    0.4709    0.2477    3.3586 C   0  0  0  0  0  0  0  0  0  0  0  0
    1.1928    1.0690    3.2974 H   0  0  0  0  0  0  0  0  0  0  0  0
   -0.2845    0.5085    4.1056 H   0  0  0  0  0  0  0  0  0  0  0  0
    0.9923   -0.6563    3.6907 H   0  0  0  0  0  0  0  0  0  0  0  0
  1  2  1  0  0  0  0
  2  3  1  0  0  0  0
  2  4  1  0  0  0  0
  2  5  1  0  0  0  0
  5  6  2  0  0  0  0
  5  7  1  0  0  0  0
  7  8  1  0  0  0  0
  7  9  1  0  0  0  0
  9 10  1  0  0  0  0
  9 11  1  0  0  0  0
  9 22  1  0  0  0  0
 11 12  1  0  0  0  0
 11 13  1  0  0  0  0
 11 14  1  0  0  0  0
 14 15  1  0  0  0  0
 14 20  2  0  0  0  0
 15 16  2  0  0  0  0
 16 17  1  0  0  0  0
 16 18  1  0  0  0  0
 18 19  1  0  0  0  0
 18 20  1  0  0  0  0
 20 21  1  0  0  0  0
 22 23  2  0  0  0  0
 22 24  1  0  0  0  0
 24 25  1  0  0  0  0
 24 26  1  0  0  0  0
 26 27  1  0  0  0  0
 26 28  1  0  0  0  0
 26 29  1  0  0  0  0
M  END
$$$$

  -OEChem-04042215593D

 29 29  0     1  0  0  0  0  0999 V2000
   -2.4343   -4.5648    0.1649 H   0  0  0  0  0  0  0  0  0  0  0  0
   -2.6180   -3.5408   -0.1731 C   0  0  0  0  0  0  0  0  0  0  0  0
   -3.4527   -3.1268    0.3974 H   0  0  0  0  0  0  0  0  0  0  0  0
   -2.8837   -3.5643   -1.2327 H   0  0  0  0  0  0  0  0  0  0  0  0
   -1.3761   -2.6937    0.0324 C   0  0  0  0  0  0  0  0  0  0  0  0
   -0.3904   -3.1812    0.5535 O   0  0  0  0  0  0  0  0  0  0  0  0
   -1.3785   -1.3681   -0.3554 N   0  0  0  0  0  0  0  0  0  0  0  0
   -2.1977   -1.0530   -0.8653 H   0  0  0  0  0  0  0  0  0  0  0  0
   -0.1742   -0.5161   -0.3905 C   0  0  1  0  0  0  0  0  0  0  0  0
    0.5450   -1.0792   -0.9968 H   0  0  0  0  0  0  0  0  0  0  0  0
   -0.4592    0.7682   -1.2065 C   0  0  0  0  0  0  0  0  0  0  0  0
    0.4106    0.9336   -1.8505 H   0  0  0  0  0  0  0  0  0  0  0  0
   -1.3159    0.6199   -1.8688 H   0  0  0  0  0  0  0  0  0  0  0  0
   -0.6586    2.0447   -0.4349 C   0  0  0  0  0  0  0  0  0  0  0  0
   -0.0556    3.2368   -0.8108 N   0  0  0  0  0  0  0  0  0  0  0  0
   -0.4616    4.1505    0.0363 C   0  0  0  0  0  0  0  0  0  0  0  0
   -0.1537    5.1922    0.0205 H   0  0  0  0  0  0  0  0  0  0  0  0
   -1.3457    3.5932    0.9400 N   0  0  0  0  0  0  0  0  0  0  0  0
   -1.7988    4.0943    1.7017 H   0  0  0  0  0  0  0  0  0  0  0  0
   -1.4892    2.2568    0.6321 C   0  0  0  0  0  0  0  0  0  0  0  0
   -2.1174    1.5229    1.1242 H   0  0  0  0  0  0  0  0  0  0  0  0
    0.5666   -0.3212    0.9575 C   0  0  0  0  0  0  0  0  0  0  0  0
    1.7837   -0.1915    0.9599 O   0  0  0  0  0  0  0  0  0  0  0  0
   -0.1333   -0.0520    2.1211 N   0  0  0  0  0  0  0  0  0  0  0  0
   -1.1099   -0.3238    2.1198 H   0  0  0  0  0  0  0  0  0  0  0  0
    0.5270    0.1592    3.4028 C   0  0  0  0  0  0  0  0  0  0  0  0
    1.2124    1.0114    3.3453 H   0  0  0  0  0  0  0  0  0  0  0  0
   -0.2142    0.3663    4.1803 H   0  0  0  0  0  0  0  0  0  0  0  0
    1.0954   -0.7315    3.6908 H   0  0  0  0  0  0  0  0  0  0  0  0
  1  2  1  0  0  0  0
  2  3  1  0  0  0  0
  2  4  1  0  0  0  0
  2  5  1  0  0  0  0
  5  6  2  0  0  0  0
  5  7  1  0  0  0  0
  7  8  1  0  0  0  0
  7  9  1  0  0  0  0
  9 10  1  0  0  0  0
  9 11  1  0  0  0  0
  9 22  1  0  0  0  0
 11 12  1  0  0  0  0
 11 13  1  0  0  0  0
 11 14  1  0  0  0  0
 14 15  1  0  0  0  0
 14 20  2  0  0  0  0
 15 16  2  0  0  0  0
 16 17  1  0  0  0  0
 16 18  1  0  0  0  0
 18 19  1  0  0  0  0
 18 20  1  0  0  0  0
 20 21  1  0  0  0  0
 22 23  2  0  0  0  0
 22 24  1  0  0  0  0
 24 25  1  0  0  0  0
 24 26  1  0  0  0  0
 26 27  1  0  0  0  0
 26 28  1  0  0  0  0
 26 29  1  0  0  0  0
M  END
$$$$

  -OEChem-04042215593D

 29 29  0     1  0  0  0  0  0999 V2000
   -2.4291   -4.5788    0.0931 H   0  0  0  0  0  0  0  0  0  0  0  0
   -2.6182   -3.5444   -0.2082 C   0  0  0  0  0  0  0  0  0  0  0  0
   -3.4433   -3.1498    0.3894 H   0  0  0  0  0  0  0  0  0  0  0  0
   -2.9018   -3.5329   -1.2633 H   0  0  0  0  0  0  0  0  0  0  0  0
   -1.3729   -2.7043    0.0042 C   0  0  0  0  0  0  0  0  0  0  0  0
   -0.3776   -3.2077    0.4913 O   0  0  0  0  0  0  0  0  0  0  0  0
   -1.3857   -1.3639   -0.3272 N   0  0  0  0  0  0  0  0  0  0  0  0
   -2.2181   -1.0268   -0.8009 H   0  0  0  0  0  0  0  0  0  0  0  0
   -0.1866   -0.5052   -0.3473 C   0  0  1  0  0  0  0  0  0  0  0  0
    0.5242   -1.0618   -0.9697 H   0  0  0  0  0  0  0  0  0  0  0  0
   -0.4566    0.7874   -1.1569 C   0  0  0  0  0  0  0  0  0  0  0  0
    0.4291    0.9493   -1.7803 H   0  0  0  0  0  0  0  0  0  0  0  0
   -1.2963    0.6374   -1.8403 H   0  0  0  0  0  0  0  0  0  0  0  0
   -0.6694    2.0819   -0.4161 C   0  0  0  0  0  0  0  0  0  0  0  0
   -0.3059    3.2935   -0.9897 N   0  0  0  0  0  0  0  0  0  0  0  0
   -0.6503    4.2358   -0.1469 C   0  0  0  0  0  0  0  0  0  0  0  0
   -0.4842    5.2982   -0.3006 H   0  0  0  0  0  0  0  0  0  0  0  0
   -1.2665    3.6752    0.9541 N   0  0  0  0  0  0  0  0  0  0  0  0
   -1.6255    4.1940    1.7533 H   0  0  0  0  0  0  0  0  0  0  0  0
   -1.3025    2.3085    0.7766 C   0  0  0  0  0  0  0  0  0  0  0  0
   -1.7476    1.5707    1.4331 H   0  0  0  0  0  0  0  0  0  0  0  0
    0.5800   -0.3600    0.9916 C   0  0  0  0  0  0  0  0  0  0  0  0
    1.7920   -0.1908    0.9691 O   0  0  0  0  0  0  0  0  0  0  0  0
   -0.0957   -0.1434    2.1801 N   0  0  0  0  0  0  0  0  0  0  0  0
   -1.0569   -0.4670    2.1970 H   0  0  0  0  0  0  0  0  0  0  0  0
    0.5947    0.0297    3.4521 C   0  0  0  0  0  0  0  0  0  0  0  0
    1.2788    0.8836    3.4038 H   0  0  0  0  0  0  0  0  0  0  0  0
   -0.1284    0.2135    4.2523 H   0  0  0  0  0  0  0  0  0  0  0  0
    1.1695   -0.8686    3.7008 H   0  0  0  0  0  0  0  0  0  0  0  0
  1  2  1  0  0  0  0
  2  3  1  0  0  0  0
  2  4  1  0  0  0  0
  2  5  1  0  0  0  0
  5  6  2  0  0  0  0
  5  7  1  0  0  0  0
  7  8  1  0  0  0  0
  7  9  1  0  0  0  0
  9 10  1  0  0  0  0
  9 11  1  0  0  0  0
  9 22  1  0  0  0  0
 11 12  1  0  0  0  0
 11 13  1  0  0  0  0
 11 14  1  0  0  0  0
 14 15  1  0  0  0  0
 14 20  2  0  0  0  0
 15 16  2  0  0  0  0
 16 17  1  0  0  0  0
 16 18  1  0  0  0  0
 18 19  1  0  0  0  0
 18 20  1  0  0  0  0
 20 21  1  0  0  0  0
 22 23  2  0  0  0  0
 22 24  1  0  0  0  0
 24 25  1  0  0  0  0
 24 26  1  0  0  0  0
 26 27  1  0  0  0  0
 26 28  1  0  0  0  0
 26 29  1  0  0  0  0
M  END
$$$$

  -OEChem-04042215593D

 29 29  0     1  0  0  0  0  0999 V2000
   -2.4804   -4.5584   -0.0237 H   0  0  0  0  0  0  0  0  0  0  0  0
   -2.6595   -3.5101   -0.2797 C   0  0  0  0  0  0  0  0  0  0  0  0
   -3.4699   -3.1289    0.3463 H   0  0  0  0  0  0  0  0  0  0  0  0
   -2.9589   -3.4517   -1.3290 H   0  0  0  0  0  0  0  0  0  0  0  0
   -1.3996   -2.6958   -0.0535 C   0  0  0  0  0  0  0  0  0  0  0  0
   -0.3975   -3.2348    0.3787 O   0  0  0  0  0  0  0  0  0  0  0  0
   -1.4040   -1.3396   -0.3127 N   0  0  0  0  0  0  0  0  0  0  0  0
   -2.2485   -0.9642   -0.7334 H   0  0  0  0  0  0  0  0  0  0  0  0
   -0.1992   -0.4890   -0.3105 C   0  0  1  0  0  0  0  0  0  0  0  0
    0.4970   -1.0358   -0.9580 H   0  0  0  0  0  0  0  0  0  0  0  0
   -0.4510    0.8242   -1.0940 C   0  0  0  0  0  0  0  0  0  0  0  0
    0.4392    0.9810   -1.7119 H   0  0  0  0  0  0  0  0  0  0  0  0
   -1.2869    0.6838   -1.7845 H   0  0  0  0  0  0  0  0  0  0  0  0
   -0.6614    2.1336   -0.3737 C   0  0  0  0  0  0  0  0  0  0  0  0
   -0.5661    3.3153   -1.0998 N   0  0  0  0  0  0  0  0  0  0  0  0
   -0.8216    4.3010   -0.2756 C   0  0  0  0  0  0  0  0  0  0  0  0
   -0.8120    5.3542   -0.5420 H   0  0  0  0  0  0  0  0  0  0  0  0
   -1.1164    3.7963    0.9737 N   0  0  0  0  0  0  0  0  0  0  0  0
   -1.3456    4.3551    1.7934 H   0  0  0  0  0  0  0  0  0  0  0  0
   -1.0371    2.4212    0.9122 C   0  0  0  0  0  0  0  0  0  0  0  0
   -1.2470    1.7275    1.7141 H   0  0  0  0  0  0  0  0  0  0  0  0
    0.5918   -0.4208    1.0191 C   0  0  0  0  0  0  0  0  0  0  0  0
    1.8024   -0.2440    0.9834 O   0  0  0  0  0  0  0  0  0  0  0  0
   -0.0607   -0.2645    2.2297 N   0  0  0  0  0  0  0  0  0  0  0  0
   -1.0257   -0.5785    2.2444 H   0  0  0  0  0  0  0  0  0  0  0  0
    0.6542   -0.1763    3.4974 C   0  0  0  0  0  0  0  0  0  0  0  0
    1.3332    0.6828    3.4960 H   0  0  0  0  0  0  0  0  0  0  0  0
   -0.0533   -0.0530    4.3229 H   0  0  0  0  0  0  0  0  0  0  0  0
    1.2381   -1.0865    3.6714 H   0  0  0  0  0  0  0  0  0  0  0  0
  1  2  1  0  0  0  0
  2  3  1  0  0  0  0
  2  4  1  0  0  0  0
  2  5  1  0  0  0  0
  5  6  2  0  0  0  0
  5  7  1  0  0  0  0
  7  8  1  0  0  0  0
  7  9  1  0  0  0  0
  9 10  1  0  0  0  0
  9 11  1  0  0  0  0
  9 22  1  0  0  0  0
 11 12  1  0  0  0  0
 11 13  1  0  0  0  0
 11 14  1  0  0  0  0
 14 15  1  0  0  0  0
 14 20  2  0  0  0  0
 15 16  2  0  0  0  0
 16 17  1  0  0  0  0
 16 18  1  0  0  0  0
 18 19  1  0  0  0  0
 18 20  1  0  0  0  0
 20 21  1  0  0  0  0
 22 23  2  0  0  0  0
 22 24  1  0  0  0  0
 24 25  1  0  0  0  0
 24 26  1  0  0  0  0
 26 27  1  0  0  0  0
 26 28  1  0  0  0  0
 26 29  1  0  0  0  0
M  END
$$$$

  -OEChem-04042215593D

 29 29  0     1  0  0  0  0  0999 V2000
   -2.5582   -4.4801    0.1308 H   0  0  0  0  0  0  0  0  0  0  0  0
   -2.6949   -3.4376   -0.1707 C   0  0  0  0  0  0  0  0  0  0  0  0
   -3.4663   -2.9880    0.4590 H   0  0  0  0  0  0  0  0  0  0  0  0
   -3.0229   -3.4139   -1.2127 H   0  0  0  0  0  0  0  0  0  0  0  0
   -1.3911   -2.6766   -0.0201 C   0  0  0  0  0  0  0  0  0  0  0  0
   -0.4016   -3.2479    0.3993 O   0  0  0  0  0  0  0  0  0  0  0  0
   -1.3389   -1.3367   -0.3516 N   0  0  0  0  0  0  0  0  0  0  0  0
   -2.1790   -0.9391   -0.7609 H   0  0  0  0  0  0  0  0  0  0  0  0
   -0.1060   -0.5228   -0.3705 C   0  0  1  0  0  0  0  0  0  0  0  0
    0.6079   -1.0562   -1.0089 H   0  0  0  0  0  0  0  0  0  0  0  0
   -0.4088    0.8196   -1.0995 C   0  0  0  0  0  0  0  0  0  0  0  0
    0.2455    0.8484   -1.9761 H   0  0  0  0  0  0  0  0  0  0  0  0
   -1.4323    0.7874   -1.4829 H   0  0  0  0  0  0  0  0  0  0  0  0
   -0.2535    2.1737   -0.4384 C   0  0  0  0  0  0  0  0  0  0  0  0
   -0.5647    3.2860   -1.2142 N   0  0  0  0  0  0  0  0  0  0  0  0
   -0.3054    4.3520   -0.4978 C   0  0  0  0  0  0  0  0  0  0  0  0
   -0.4416    5.3764   -0.8325 H   0  0  0  0  0  0  0  0  0  0  0  0
    0.1718    3.9742    0.7384 N   0  0  0  0  0  0  0  0  0  0  0  0
    0.4881    4.6116    1.4668 H   0  0  0  0  0  0  0  0  0  0  0  0
    0.2258    2.5977    0.7761 C   0  0  0  0  0  0  0  0  0  0  0  0
    0.6204    2.0002    1.5888 H   0  0  0  0  0  0  0  0  0  0  0  0
    0.5835   -0.4670    1.0117 C   0  0  0  0  0  0  0  0  0  0  0  0
    1.8015   -0.3687    1.0857 O   0  0  0  0  0  0  0  0  0  0  0  0
   -0.1735   -0.2514    2.1520 N   0  0  0  0  0  0  0  0  0  0  0  0
   -1.1688   -0.4268    2.0578 H   0  0  0  0  0  0  0  0  0  0  0  0
    0.4057   -0.2481    3.4898 C   0  0  0  0  0  0  0  0  0  0  0  0
    1.1868    0.5150    3.5718 H   0  0  0  0  0  0  0  0  0  0  0  0
   -0.3658   -0.0302    4.2342 H   0  0  0  0  0  0  0  0  0  0  0  0
    0.8434   -1.2258    3.7172 H   0  0  0  0  0  0  0  0  0  0  0  0
  1  2  1  0  0  0  0
  2  3  1  0  0  0  0
  2  4  1  0  0  0  0
  2  5  1  0  0  0  0
  5  6  2  0  0  0  0
  5  7  1  0  0  0  0
  7  8  1  0  0  0  0
  7  9  1  0  0  0  0
  9 10  1  0  0  0  0
  9 11  1  0  0  0  0
  9 22  1  0  0  0  0
 11 12  1  0  0  0  0
 11 13  1  0  0  0  0
 11 14  1  0  0  0  0
 14 15  1  0  0  0  0
 14 20  2  0  0  0  0
 15 16  2  0  0  0  0
 16 17  1  0  0  0  0
 16 18  1  0  0  0  0
 18 19  1  0  0  0  0
 18 20  1  0  0  0  0
 20 21  1  0  0  0  0
 22 23  2  0  0  0  0
 22 24  1  0  0  0  0
 24 25  1  0  0  0  0
 24 26  1  0  0  0  0
 26 27  1  0  0  0  0
 26 28  1  0  0  0  0
 26 29  1  0  0  0  0
M  END
$$$$

  -OEChem-04042215593D

 29 29  0     1  0  0  0  0  0999 V2000
   -2.6019   -4.4519    0.1810 H   0  0  0  0  0  0  0  0  0  0  0  0
   -2.7203   -3.4115   -0.1356 C   0  0  0  0  0  0  0  0  0  0  0  0
   -3.4752   -2.9358    0.4950 H   0  0  0  0  0  0  0  0  0  0  0  0
   -3.0601   -3.3981   -1.1741 H   0  0  0  0  0  0  0  0  0  0  0  0
   -1.3997   -2.6749   -0.0113 C   0  0  0  0  0  0  0  0  0  0  0  0
   -0.4187   -3.2578    0.4122 O   0  0  0  0  0  0  0  0  0  0  0  0
   -1.3214   -1.3444   -0.3733 N   0  0  0  0  0  0  0  0  0  0  0  0
   -2.1572   -0.9341   -0.7789 H   0  0  0  0  0  0  0  0  0  0  0  0
   -0.0758   -0.5505   -0.3934 C   0  0  1  0  0  0  0  0  0  0  0  0
    0.6385   -1.0917   -1.0244 H   0  0  0  0  0  0  0  0  0  0  0  0
   -0.3826    0.7910   -1.1229 C   0  0  0  0  0  0  0  0  0  0  0  0
    0.2548    0.8238   -2.0113 H   0  0  0  0  0  0  0  0  0  0  0  0
   -1.4131    0.7645   -1.4881 H   0  0  0  0  0  0  0  0  0  0  0  0
   -0.2131    2.1351   -0.4457 C   0  0  0  0  0  0  0  0  0  0  0  0
   -0.8091    3.2363   -1.0520 N   0  0  0  0  0  0  0  0  0  0  0  0
   -0.4828    4.2941   -0.3506 C   0  0  0  0  0  0  0  0  0  0  0  0
   -0.7955    5.3102   -0.5738 H   0  0  0  0  0  0  0  0  0  0  0  0
    0.3217    3.9218    0.7050 N   0  0  0  0  0  0  0  0  0  0  0  0
    0.7425    4.5596    1.3781 H   0  0  0  0  0  0  0  0  0  0  0  0
    0.5138    2.5589    0.6390 C   0  0  0  0  0  0  0  0  0  0  0  0
    1.1502    1.9677    1.2895 H   0  0  0  0  0  0  0  0  0  0  0  0
    0.5991   -0.4693    0.9945 C   0  0  0  0  0  0  0  0  0  0  0  0
    1.8202   -0.4336    1.0810 O   0  0  0  0  0  0  0  0  0  0  0  0
   -0.1604   -0.2112    2.1232 N   0  0  0  0  0  0  0  0  0  0  0  0
   -1.1645   -0.3163    2.0202 H   0  0  0  0  0  0  0  0  0  0  0  0
    0.4048   -0.1735    3.4660 C   0  0  0  0  0  0  0  0  0  0  0  0
    1.1835    0.5932    3.5354 H   0  0  0  0  0  0  0  0  0  0  0  0
   -0.3744    0.0621    4.1971 H   0  0  0  0  0  0  0  0  0  0  0  0
    0.8418   -1.1444    3.7230 H   0  0  0  0  0  0  0  0  0  0  0  0
  1  2  1  0  0  0  0
  2  3  1  0  0  0  0
  2  4  1  0  0  0  0
  2  5  1  0  0  0  0
  5  6  2  0  0  0  0
  5  7  1  0  0  0  0
  7  8  1  0  0  0  0
  7  9  1  0  0  0  0
  9 10  1  0  0  0  0
  9 11  1  0  0  0  0
  9 22  1  0  0  0  0
 11 12  1  0  0  0  0
 11 13  1  0  0  0  0
 11 14  1  0  0  0  0
 14 15  1  0  0  0  0
 14 20  2  0  0  0  0
 15 16  2  0  0  0  0
 16 17  1  0  0  0  0
 16 18  1  0  0  0  0
 18 19  1  0  0  0  0
 18 20  1  0  0  0  0
 20 21  1  0  0  0  0
 22 23  2  0  0  0  0
 22 24  1  0  0  0  0
 24 25  1  0  0  0  0
 24 26  1  0  0  0  0
 26 27  1  0  0  0  0
 26 28  1  0  0  0  0
 26 29  1  0  0  0  0
M  END
$$$$

  -OEChem-04042215593D

 29 29  0     1  0  0  0  0  0999 V2000
   -2.5977   -4.4366    0.2489 H   0  0  0  0  0  0  0  0  0  0  0  0
   -2.7128   -3.4007   -0.0829 C   0  0  0  0  0  0  0  0  0  0  0  0
   -3.4407   -2.9041    0.5629 H   0  0  0  0  0  0  0  0  0  0  0  0
   -3.0860   -3.4010   -1.1099 H   0  0  0  0  0  0  0  0  0  0  0  0
   -1.3799   -2.6794   -0.0148 C   0  0  0  0  0  0  0  0  0  0  0  0
   -0.3924   -3.2668    0.3870 O   0  0  0  0  0  0  0  0  0  0  0  0
   -1.2967   -1.3580   -0.4071 N   0  0  0  0  0  0  0  0  0  0  0  0
   -2.1446   -0.9345   -0.7719 H   0  0  0  0  0  0  0  0  0  0  0  0
   -0.0522   -0.5632   -0.4270 C   0  0  1  0  0  0  0  0  0  0  0  0
    0.6725   -1.1058   -1.0451 H   0  0  0  0  0  0  0  0  0  0  0  0
   -0.3702    0.7710   -1.1639 C   0  0  0  0  0  0  0  0  0  0  0  0
    0.2666    0.8131   -2.0522 H   0  0  0  0  0  0  0  0  0  0  0  0
   -1.4009    0.7436   -1.5289 H   0  0  0  0  0  0  0  0  0  0  0  0
   -0.1978    2.0969   -0.4575 C   0  0  0  0  0  0  0  0  0  0  0  0
   -1.0191    3.1617   -0.8121 N   0  0  0  0  0  0  0  0  0  0  0  0
   -0.6135    4.2062   -0.1313 C   0  0  0  0  0  0  0  0  0  0  0  0
   -1.0585    5.1957   -0.1870 H   0  0  0  0  0  0  0  0  0  0  0  0
    0.4663    3.8612    0.6547 N   0  0  0  0  0  0  0  0  0  0  0  0
    0.9887    4.4990    1.2525 H   0  0  0  0  0  0  0  0  0  0  0  0
    0.7519    2.5319    0.4311 C   0  0  0  0  0  0  0  0  0  0  0  0
    1.5816    1.9643    0.8433 H   0  0  0  0  0  0  0  0  0  0  0  0
    0.6011   -0.4480    0.9702 C   0  0  0  0  0  0  0  0  0  0  0  0
    1.8213   -0.4540    1.0787 O   0  0  0  0  0  0  0  0  0  0  0  0
   -0.1737   -0.1630    2.0812 N   0  0  0  0  0  0  0  0  0  0  0  0
   -1.1795   -0.2198    1.9595 H   0  0  0  0  0  0  0  0  0  0  0  0
    0.3702   -0.0720    3.4295 C   0  0  0  0  0  0  0  0  0  0  0  0
    1.1607    0.6843    3.4747 H   0  0  0  0  0  0  0  0  0  0  0  0
   -0.4158    0.2098    4.1365 H   0  0  0  0  0  0  0  0  0  0  0  0
    0.7869   -1.0366    3.7375 H   0  0  0  0  0  0  0  0  0  0  0  0
  1  2  1  0  0  0  0
  2  3  1  0  0  0  0
  2  4  1  0  0  0  0
  2  5  1  0  0  0  0
  5  6  2  0  0  0  0
  5  7  1  0  0  0  0
  7  8  1  0  0  0  0
  7  9  1  0  0  0  0
  9 10  1  0  0  0  0
  9 11  1  0  0  0  0
  9 22  1  0  0  0  0
 11 12  1  0  0  0  0
 11 13  1  0  0  0  0
 11 14  1  0  0  0  0
 14 15  1  0  0  0  0
 14 20  2  0  0  0  0
 15 16  2  0  0  0  0
 16 17  1  0  0  0  0
 16 18  1  0  0  0  0
 18 19  1  0  0  0  0
 18 20  1  0  0  0  0
 20 21  1  0  0  0  0
 22 23  2  0  0  0  0
 22 24  1  0  0  0  0
 24 25  1  0  0  0  0
 24 26  1  0  0  0  0
 26 27  1  0  0  0  0
 26 28  1  0  0  0  0
 26 29  1  0  0  0  0
M  END
$$$$

  -OEChem-04042215593D

 29 29  0     1  0  0  0  0  0999 V2000
   -2.5795   -4.4400    0.2962 H   0  0  0  0  0  0  0  0  0  0  0  0
   -2.7012   -3.4110   -0.0542 C   0  0  0  0  0  0  0  0  0  0  0  0
   -3.4201   -2.9025    0.5926 H   0  0  0  0  0  0  0  0  0  0  0  0
   -3.0890   -3.4318   -1.0754 H   0  0  0  0  0  0  0  0  0  0  0  0
   -1.3680   -2.6875   -0.0199 C   0  0  0  0  0  0  0  0  0  0  0  0
   -0.3730   -3.2684    0.3733 O   0  0  0  0  0  0  0  0  0  0  0  0
   -1.2902   -1.3736   -0.4372 N   0  0  0  0  0  0  0  0  0  0  0  0
   -2.1479   -0.9454   -0.7725 H   0  0  0  0  0  0  0  0  0  0  0  0
   -0.0508   -0.5725   -0.4575 C   0  0  1  0  0  0  0  0  0  0  0  0
    0.6820   -1.1181   -1.0625 H   0  0  0  0  0  0  0  0  0  0  0  0
   -0.3694    0.7524   -1.2064 C   0  0  0  0  0  0  0  0  0  0  0  0
    0.2825    0.8015   -2.0834 H   0  0  0  0  0  0  0  0  0  0  0  0
   -1.3951    0.7309   -1.5860 H   0  0  0  0  0  0  0  0  0  0  0  0
   -0.1896    2.0516   -0.4619 C   0  0  0  0  0  0  0  0  0  0  0  0
   -1.1538    3.0508   -0.5223 N   0  0  0  0  0  0  0  0  0  0  0  0
   -0.6703    4.0829    0.1276 C   0  0  0  0  0  0  0  0  0  0  0  0
   -1.1881    5.0277    0.2669 H   0  0  0  0  0  0  0  0  0  0  0  0
    0.5954    3.7932    0.5966 N   0  0  0  0  0  0  0  0  0  0  0  0
    1.1954    4.4343    1.1124 H   0  0  0  0  0  0  0  0  0  0  0  0
    0.9166    2.5138    0.1997 C   0  0  0  0  0  0  0  0  0  0  0  0
    1.8534    1.9834    0.3549 H   0  0  0  0  0  0  0  0  0  0  0  0
    0.5924   -0.4209    0.9430 C   0  0  0  0  0  0  0  0  0  0  0  0
    1.8122   -0.4127    1.0592 O   0  0  0  0  0  0  0  0  0  0  0  0
   -0.1918   -0.1158    2.0417 N   0  0  0  0  0  0  0  0  0  0  0  0
   -1.1975   -0.1302    1.9075 H   0  0  0  0  0  0  0  0  0  0  0  0
    0.3444    0.0760    3.3822 C   0  0  0  0  0  0  0  0  0  0  0  0
    1.0675    0.8982    3.3917 H   0  0  0  0  0  0  0  0  0  0  0  0
   -0.4621    0.3178    4.0808 H   0  0  0  0  0  0  0  0  0  0  0  0
    0.8416   -0.8362    3.7284 H   0  0  0  0  0  0  0  0  0  0  0  0
  1  2  1  0  0  0  0
  2  3  1  0  0  0  0
  2  4  1  0  0  0  0
  2  5  1  0  0  0  0
  5  6  2  0  0  0  0
  5  7  1  0  0  0  0
  7  8  1  0  0  0  0
  7  9  1  0  0  0  0
  9 10  1  0  0  0  0
  9 11  1  0  0  0  0
  9 22  1  0  0  0  0
 11 12  1  0  0  0  0
 11 13  1  0  0  0  0
 11 14  1  0  0  0  0
 14 15  1  0  0  0  0
 14 20  2  0  0  0  0
 15 16  2  0  0  0  0
 16 17  1  0  0  0  0
 16 18  1  0  0  0  0
 18 19  1  0  0  0  0
 18 20  1  0  0  0  0
 20 21  1  0  0  0  0
 22 23  2  0  0  0  0
 22 24  1  0  0  0  0
 24 25  1  0  0  0  0
 24 26  1  0  0  0  0
 26 27  1  0  0  0  0
 26 28  1  0  0  0  0
 26 29  1  0  0  0  0
M  END
$$$$

  -OEChem-04042215593D

 29 29  0     1  0  0  0  0  0999 V2000
   -2.5747   -4.4350    0.3427 H   0  0  0  0  0  0  0  0  0  0  0  0
   -2.6988   -3.4134   -0.0277 C   0  0  0  0  0  0  0  0  0  0  0  0
   -3.3932   -2.8839    0.6287 H   0  0  0  0  0  0  0  0  0  0  0  0
   -3.1175   -3.4542   -1.0361 H   0  0  0  0  0  0  0  0  0  0  0  0
   -1.3593   -2.7015   -0.0505 C   0  0  0  0  0  0  0  0  0  0  0  0
   -0.3532   -3.2904    0.3011 O   0  0  0  0  0  0  0  0  0  0  0  0
   -1.2864   -1.3913   -0.4799 N   0  0  0  0  0  0  0  0  0  0  0  0
   -2.1578   -0.9441   -0.7482 H   0  0  0  0  0  0  0  0  0  0  0  0
   -0.0504   -0.5867   -0.4931 C   0  0  1  0  0  0  0  0  0  0  0  0
    0.6881   -1.1367   -1.0875 H   0  0  0  0  0  0  0  0  0  0  0  0
   -0.3571    0.7327   -1.2508 C   0  0  0  0  0  0  0  0  0  0  0  0
    0.3130    0.7839   -2.1139 H   0  0  0  0  0  0  0  0  0  0  0  0
   -1.3765    0.7221   -1.6473 H   0  0  0  0  0  0  0  0  0  0  0  0
   -0.1718    2.0066   -0.4716 C   0  0  0  0  0  0  0  0  0  0  0  0
   -1.2143    2.8965   -0.2464 N   0  0  0  0  0  0  0  0  0  0  0  0
   -0.6953    3.9223    0.3872 C   0  0  0  0  0  0  0  0  0  0  0  0
   -1.2525    4.7952    0.7154 H   0  0  0  0  0  0  0  0  0  0  0  0
    0.6609    3.7309    0.5686 N   0  0  0  0  0  0  0  0  0  0  0  0
    1.2931    4.3822    1.0304 H   0  0  0  0  0  0  0  0  0  0  0  0
    1.0021    2.5214    0.0046 C   0  0  0  0  0  0  0  0  0  0  0  0
    1.9834    2.0552   -0.0511 H   0  0  0  0  0  0  0  0  0  0  0  0
    0.5886   -0.4108    0.9072 C   0  0  0  0  0  0  0  0  0  0  0  0
    1.8083   -0.3733    1.0207 O   0  0  0  0  0  0  0  0  0  0  0  0
   -0.2005   -0.0929    1.9988 N   0  0  0  0  0  0  0  0  0  0  0  0
   -1.1996   -0.0166    1.8391 H   0  0  0  0  0  0  0  0  0  0  0  0
    0.3384    0.2460    3.3085 C   0  0  0  0  0  0  0  0  0  0  0  0
    0.9518    1.1509    3.2467 H   0  0  0  0  0  0  0  0  0  0  0  0
   -0.4754    0.4263    4.0170 H   0  0  0  0  0  0  0  0  0  0  0  0
    0.9547   -0.5741    3.6918 H   0  0  0  0  0  0  0  0  0  0  0  0
  1  2  1  0  0  0  0
  2  3  1  0  0  0  0
  2  4  1  0  0  0  0
  2  5  1  0  0  0  0
  5  6  2  0  0  0  0
  5  7  1  0  0  0  0
  7  8  1  0  0  0  0
  7  9  1  0  0  0  0
  9 10  1  0  0  0  0
  9 11  1  0  0  0  0
  9 22  1  0  0  0  0
 11 12  1  0  0  0  0
 11 13  1  0  0  0  0
 11 14  1  0  0  0  0
 14 15  1  0  0  0  0
 14 20  2  0  0  0  0
 15 16  2  0  0  0  0
 16 17  1  0  0  0  0
 16 18  1  0  0  0  0
 18 19  1  0  0  0  0
 18 20  1  0  0  0  0
 20 21  1  0  0  0  0
 22 23  2  0  0  0  0
 22 24  1  0  0  0  0
 24 25  1  0  0  0  0
 24 26  1  0  0  0  0
 26 27  1  0  0  0  0
 26 28  1  0  0  0  0
 26 29  1  0  0  0  0
M  END
$$$$

  -OEChem-04042215593D

 29 29  0     1  0  0  0  0  0999 V2000
   -2.5679   -4.4279    0.3656 H   0  0  0  0  0  0  0  0  0  0  0  0
   -2.6959   -3.4056   -0.0015 C   0  0  0  0  0  0  0  0  0  0  0  0
   -3.3641   -2.8699    0.6769 H   0  0  0  0  0  0  0  0  0  0  0  0
   -3.1483   -3.4432   -0.9953 H   0  0  0  0  0  0  0  0  0  0  0  0
   -1.3523   -2.7043   -0.0688 C   0  0  0  0  0  0  0  0  0  0  0  0
   -0.3408   -3.2968    0.2608 O   0  0  0  0  0  0  0  0  0  0  0  0
   -1.2823   -1.3987   -0.5116 N   0  0  0  0  0  0  0  0  0  0  0  0
   -2.1603   -0.9398   -0.7346 H   0  0  0  0  0  0  0  0  0  0  0  0
   -0.0481   -0.5928   -0.5207 C   0  0  1  0  0  0  0  0  0  0  0  0
    0.6951   -1.1484   -1.1041 H   0  0  0  0  0  0  0  0  0  0  0  0
   -0.3467    0.7188   -1.2907 C   0  0  0  0  0  0  0  0  0  0  0  0
    0.3358    0.7677   -2.1441 H   0  0  0  0  0  0  0  0  0  0  0  0
   -1.3619    0.7150   -1.6980 H   0  0  0  0  0  0  0  0  0  0  0  0
   -0.1595    1.9755   -0.4896 C   0  0  0  0  0  0  0  0  0  0  0  0
   -1.2268    2.7150    0.0032 N   0  0  0  0  0  0  0  0  0  0  0  0
   -0.7011    3.7546    0.6088 C   0  0  0  0  0  0  0  0  0  0  0  0
   -1.2697    4.5332    1.1095 H   0  0  0  0  0  0  0  0  0  0  0  0
    0.6773    3.7145    0.5143 N   0  0  0  0  0  0  0  0  0  0  0  0
    1.3167    4.3998    0.9126 H   0  0  0  0  0  0  0  0  0  0  0  0
    1.0266    2.5870   -0.1965 C   0  0  0  0  0  0  0  0  0  0  0  0
    2.0208    2.2310   -0.4561 H   0  0  0  0  0  0  0  0  0  0  0  0
    0.5879   -0.3939    0.8788 C   0  0  0  0  0  0  0  0  0  0  0  0
    1.8075   -0.3471    0.9911 O   0  0  0  0  0  0  0  0  0  0  0  0
   -0.2047   -0.0615    1.9640 N   0  0  0  0  0  0  0  0  0  0  0  0
   -1.1896    0.0949    1.7741 H   0  0  0  0  0  0  0  0  0  0  0  0
    0.3388    0.3584    3.2482 C   0  0  0  0  0  0  0  0  0  0  0  0
    0.8897    1.2983    3.1405 H   0  0  0  0  0  0  0  0  0  0  0  0
   -0.4702    0.5091    3.9692 H   0  0  0  0  0  0  0  0  0  0  0  0
    1.0161   -0.4050    3.6456 H   0  0  0  0  0  0  0  0  0  0  0  0
  1  2  1  0  0  0  0
  2  3  1  0  0  0  0
  2  4  1  0  0  0  0
  2  5  1  0  0  0  0
  5  6  2  0  0  0  0
  5  7  1  0  0  0  0
  7  8  1  0  0  0  0
  7  9  1  0  0  0  0
  9 10  1  0  0  0  0
  9 11  1  0  0  0  0
  9 22  1  0  0  0  0
 11 12  1  0  0  0  0
 11 13  1  0  0  0  0
 11 14  1  0  0  0  0
 14 15  1  0  0  0  0
 14 20  2  0  0  0  0
 15 16  2  0  0  0  0
 16 17  1  0  0  0  0
 16 18  1  0  0  0  0
 18 19  1  0  0  0  0
 18 20  1  0  0  0  0
 20 21  1  0  0  0  0
 22 23  2  0  0  0  0
 22 24  1  0  0  0  0
 24 25  1  0  0  0  0
 24 26  1  0  0  0  0
 26 27  1  0  0  0  0
 26 28  1  0  0  0  0
 26 29  1  0  0  0  0
M  END
$$$$

  -OEChem-04042215593D

 29 29  0     1  0  0  0  0  0999 V2000
   -2.5574   -4.4172    0.3867 H   0  0  0  0  0  0  0  0  0  0  0  0
   -2.6910   -3.3939    0.0245 C   0  0  0  0  0  0  0  0  0  0  0  0
   -3.3357   -2.8557    0.7232 H   0  0  0  0  0  0  0  0  0  0  0  0
   -3.1726   -3.4277   -0.9556 H   0  0  0  0  0  0  0  0  0  0  0  0
   -1.3459   -2.7000   -0.0823 C   0  0  0  0  0  0  0  0  0  0  0  0
   -0.3287   -3.2992    0.2170 O   0  0  0  0  0  0  0  0  0  0  0  0
   -1.2808   -1.3964   -0.5318 N   0  0  0  0  0  0  0  0  0  0  0  0
   -2.1643   -0.9247   -0.6989 H   0  0  0  0  0  0  0  0  0  0  0  0
   -0.0484   -0.5886   -0.5348 C   0  0  1  0  0  0  0  0  0  0  0  0
    0.6981   -1.1508   -1.1073 H   0  0  0  0  0  0  0  0  0  0  0  0
   -0.3349    0.7129   -1.3240 C   0  0  0  0  0  0  0  0  0  0  0  0
    0.3601    0.7529   -2.1679 H   0  0  0  0  0  0  0  0  0  0  0  0
   -1.3450    0.7097   -1.7432 H   0  0  0  0  0  0  0  0  0  0  0  0
   -0.1543    1.9656   -0.5187 C   0  0  0  0  0  0  0  0  0  0  0  0
   -1.1878    2.5400    0.2110 N   0  0  0  0  0  0  0  0  0  0  0  0
   -0.6804    3.6141    0.7706 C   0  0  0  0  0  0  0  0  0  0  0  0
   -1.2288    4.2931    1.4175 H   0  0  0  0  0  0  0  0  0  0  0  0
    0.6486    3.7549    0.4165 N   0  0  0  0  0  0  0  0  0  0  0  0
    1.2688    4.4967    0.7363 H   0  0  0  0  0  0  0  0  0  0  0  0
    0.9867    2.7079   -0.4131 C   0  0  0  0  0  0  0  0  0  0  0  0
    1.9479    2.4895   -0.8703 H   0  0  0  0  0  0  0  0  0  0  0  0
    0.5842   -0.3763    0.8649 C   0  0  0  0  0  0  0  0  0  0  0  0
    1.8038   -0.3430    0.9807 O   0  0  0  0  0  0  0  0  0  0  0  0
   -0.2085   -0.0366    1.9479 N   0  0  0  0  0  0  0  0  0  0  0  0
   -1.1732    0.1984    1.7326 H   0  0  0  0  0  0  0  0  0  0  0  0
    0.3423    0.3951    3.2253 C   0  0  0  0  0  0  0  0  0  0  0  0
    0.8746    1.3448    3.1100 H   0  0  0  0  0  0  0  0  0  0  0  0
   -0.4608    0.5305    3.9558 H   0  0  0  0  0  0  0  0  0  0  0  0
    1.0382   -0.3548    3.6157 H   0  0  0  0  0  0  0  0  0  0  0  0
  1  2  1  0  0  0  0
  2  3  1  0  0  0  0
  2  4  1  0  0  0  0
  2  5  1  0  0  0  0
  5  6  2  0  0  0  0
  5  7  1  0  0  0  0
  7  8  1  0  0  0  0
  7  9  1  0  0  0  0
  9 10  1  0  0  0  0
  9 11  1  0  0  0  0
  9 22  1  0  0  0  0
 11 12  1  0  0  0  0
 11 13  1  0  0  0  0
 11 14  1  0  0  0  0
 14 15  1  0  0  0  0
 14 20  2  0  0  0  0
 15 16  2  0  0  0  0
 16 17  1  0  0  0  0
 16 18  1  0  0  0  0
 18 19  1  0  0  0  0
 18 20  1  0  0  0  0
 20 21  1  0  0  0  0
 22 23  2  0  0  0  0
 22 24  1  0  0  0  0
 24 25  1  0  0  0  0
 24 26  1  0  0  0  0
 26 27  1  0  0  0  0
 26 28  1  0  0  0  0
 26 29  1  0  0  0  0
M  END
$$$$

  -OEChem-04042215593D

 29 29  0     1  0  0  0  0  0999 V2000
   -2.5513   -4.4044    0.4027 H   0  0  0  0  0  0  0  0  0  0  0  0
   -2.6867   -3.3804    0.0431 C   0  0  0  0  0  0  0  0  0  0  0  0
   -3.3069   -2.8360    0.7592 H   0  0  0  0  0  0  0  0  0  0  0  0
   -3.1960   -3.4114   -0.9231 H   0  0  0  0  0  0  0  0  0  0  0  0
   -1.3398   -2.6973   -0.1025 C   0  0  0  0  0  0  0  0  0  0  0  0
   -0.3188   -3.3089    0.1561 O   0  0  0  0  0  0  0  0  0  0  0  0
   -1.2800   -1.3903   -0.5422 N   0  0  0  0  0  0  0  0  0  0  0  0
   -2.1667   -0.9079   -0.6503 H   0  0  0  0  0  0  0  0  0  0  0  0
   -0.0503   -0.5792   -0.5297 C   0  0  1  0  0  0  0  0  0  0  0  0
    0.7000   -1.1470   -1.0919 H   0  0  0  0  0  0  0  0  0  0  0  0
   -0.3182    0.7115   -1.3423 C   0  0  0  0  0  0  0  0  0  0  0  0
    0.3914    0.7383   -2.1747 H   0  0  0  0  0  0  0  0  0  0  0  0
   -1.3210    0.6983   -1.7783 H   0  0  0  0  0  0  0  0  0  0  0  0
   -0.1602    1.9789   -0.5548 C   0  0  0  0  0  0  0  0  0  0  0  0
   -1.1027    2.4067    0.3743 N   0  0  0  0  0  0  0  0  0  0  0  0
   -0.6387    3.5320    0.8672 C   0  0  0  0  0  0  0  0  0  0  0  0
   -1.1356    4.1271    1.6281 H   0  0  0  0  0  0  0  0  0  0  0  0
    0.5709    3.8487    0.2776 N   0  0  0  0  0  0  0  0  0  0  0  0
    1.1416    4.6612    0.5043 H   0  0  0  0  0  0  0  0  0  0  0  0
    0.8785    2.8612   -0.6334 C   0  0  0  0  0  0  0  0  0  0  0  0
    1.7580    2.7758   -1.2654 H   0  0  0  0  0  0  0  0  0  0  0  0
    0.5810   -0.3688    0.8713 C   0  0  0  0  0  0  0  0  0  0  0  0
    1.8004   -0.3669    0.9925 O   0  0  0  0  0  0  0  0  0  0  0  0
   -0.2085   -0.0358    1.9581 N   0  0  0  0  0  0  0  0  0  0  0  0
   -1.1434    0.2887    1.7248 H   0  0  0  0  0  0  0  0  0  0  0  0
    0.3535    0.3633    3.2411 C   0  0  0  0  0  0  0  0  0  0  0  0
    0.9002    1.3065    3.1417 H   0  0  0  0  0  0  0  0  0  0  0  0
   -0.4453    0.4978    3.9763 H   0  0  0  0  0  0  0  0  0  0  0  0
    1.0384   -0.4048    3.6154 H   0  0  0  0  0  0  0  0  0  0  0  0
  1  2  1  0  0  0  0
  2  3  1  0  0  0  0
  2  4  1  0  0  0  0
  2  5  1  0  0  0  0
  5  6  2  0  0  0  0
  5  7  1  0  0  0  0
  7  8  1  0  0  0  0
  7  9  1  0  0  0  0
  9 10  1  0  0  0  0
  9 11  1  0  0  0  0
  9 22  1  0  0  0  0
 11 12  1  0  0  0  0
 11 13  1  0  0  0  0
 11 14  1  0  0  0  0
 14 15  1  0  0  0  0
 14 20  2  0  0  0  0
 15 16  2  0  0  0  0
 16 17  1  0  0  0  0
 16 18  1  0  0  0  0
 18 19  1  0  0  0  0
 18 20  1  0  0  0  0
 20 21  1  0  0  0  0
 22 23  2  0  0  0  0
 22 24  1  0  0  0  0
 24 25  1  0  0  0  0
 24 26  1  0  0  0  0
 26 27  1  0  0  0  0
 26 28  1  0  0  0  0
 26 29  1  0  0  0  0
M  END
$$$$

  -OEChem-04042215593D

 29 29  0     1  0  0  0  0  0999 V2000
   -2.5278   -4.4202    0.3769 H   0  0  0  0  0  0  0  0  0  0  0  0
   -2.6749   -3.3922    0.0337 C   0  0  0  0  0  0  0  0  0  0  0  0
   -3.2884   -2.8624    0.7662 H   0  0  0  0  0  0  0  0  0  0  0  0
   -3.1979   -3.4132   -0.9254 H   0  0  0  0  0  0  0  0  0  0  0  0
   -1.3347   -2.6976   -0.1211 C   0  0  0  0  0  0  0  0  0  0  0  0
   -0.3062   -3.3096    0.1052 O   0  0  0  0  0  0  0  0  0  0  0  0
   -1.2908   -1.3808   -0.5338 N   0  0  0  0  0  0  0  0  0  0  0  0
   -2.1830   -0.9015   -0.6011 H   0  0  0  0  0  0  0  0  0  0  0  0
   -0.0696   -0.5568   -0.5033 C   0  0  1  0  0  0  0  0  0  0  0  0
    0.6851   -1.1267   -1.0582 H   0  0  0  0  0  0  0  0  0  0  0  0
   -0.3129    0.7243   -1.3400 C   0  0  0  0  0  0  0  0  0  0  0  0
    0.4129    0.7355   -2.1584 H   0  0  0  0  0  0  0  0  0  0  0  0
   -1.3062    0.6955   -1.7960 H   0  0  0  0  0  0  0  0  0  0  0  0
   -0.1874    2.0187   -0.5885 C   0  0  0  0  0  0  0  0  0  0  0  0
   -0.9785    2.3544    0.5059 N   0  0  0  0  0  0  0  0  0  0  0  0
   -0.5578    3.5296    0.9131 C   0  0  0  0  0  0  0  0  0  0  0  0
   -0.9646    4.0750    1.7599 H   0  0  0  0  0  0  0  0  0  0  0  0
    0.4756    3.9704    0.1083 N   0  0  0  0  0  0  0  0  0  0  0  0
    0.9889    4.8412    0.2337 H   0  0  0  0  0  0  0  0  0  0  0  0
    0.7163    3.0089   -0.8494 C   0  0  0  0  0  0  0  0  0  0  0  0
    1.4712    3.0103   -1.6307 H   0  0  0  0  0  0  0  0  0  0  0  0
    0.5676   -0.3625    0.8976 C   0  0  0  0  0  0  0  0  0  0  0  0
    1.7876   -0.3775    1.0138 O   0  0  0  0  0  0  0  0  0  0  0  0
   -0.2127   -0.0574    1.9992 N   0  0  0  0  0  0  0  0  0  0  0  0
   -1.1277    0.3245    1.7724 H   0  0  0  0  0  0  0  0  0  0  0  0
    0.3667    0.2912    3.2894 C   0  0  0  0  0  0  0  0  0  0  0  0
    0.9377    1.2221    3.2131 H   0  0  0  0  0  0  0  0  0  0  0  0
   -0.4236    0.4253    4.0336 H   0  0  0  0  0  0  0  0  0  0  0  0
    1.0335   -0.5050    3.6372 H   0  0  0  0  0  0  0  0  0  0  0  0
  1  2  1  0  0  0  0
  2  3  1  0  0  0  0
  2  4  1  0  0  0  0
  2  5  1  0  0  0  0
  5  6  2  0  0  0  0
  5  7  1  0  0  0  0
  7  8  1  0  0  0  0
  7  9  1  0  0  0  0
  9 10  1  0  0  0  0
  9 11  1  0  0  0  0
  9 22  1  0  0  0  0
 11 12  1  0  0  0  0
 11 13  1  0  0  0  0
 11 14  1  0  0  0  0
 14 15  1  0  0  0  0
 14 20  2  0  0  0  0
 15 16  2  0  0  0  0
 16 17  1  0  0  0  0
 16 18  1  0  0  0  0
 18 19  1  0  0  0  0
 18 20  1  0  0  0  0
 20 21  1  0  0  0  0
 22 23  2  0  0  0  0
 22 24  1  0  0  0  0
 24 25  1  0  0  0  0
 24 26  1  0  0  0  0
 26 27  1  0  0  0  0
 26 28  1  0  0  0  0
 26 29  1  0  0  0  0
M  END
$$$$

  -OEChem-04042215593D

 29 29  0     1  0  0  0  0  0999 V2000
   -2.5026   -4.4458    0.3146 H   0  0  0  0  0  0  0  0  0  0  0  0
   -2.6622   -3.4088    0.0061 C   0  0  0  0  0  0  0  0  0  0  0  0
   -3.2731   -2.9084    0.7610 H   0  0  0  0  0  0  0  0  0  0  0  0
   -3.1938   -3.4039   -0.9485 H   0  0  0  0  0  0  0  0  0  0  0  0
   -1.3298   -2.6976   -0.1387 C   0  0  0  0  0  0  0  0  0  0  0  0
   -0.2944   -3.3072    0.0606 O   0  0  0  0  0  0  0  0  0  0  0  0
   -1.3020   -1.3697   -0.5157 N   0  0  0  0  0  0  0  0  0  0  0  0
   -2.1992   -0.8977   -0.5581 H   0  0  0  0  0  0  0  0  0  0  0  0
   -0.0888   -0.5346   -0.4673 C   0  0  1  0  0  0  0  0  0  0  0  0
    0.6678   -1.1013   -1.0227 H   0  0  0  0  0  0  0  0  0  0  0  0
   -0.3163    0.7442   -1.3155 C   0  0  0  0  0  0  0  0  0  0  0  0
    0.4205    0.7451   -2.1243 H   0  0  0  0  0  0  0  0  0  0  0  0
   -1.3018    0.6997   -1.7866 H   0  0  0  0  0  0  0  0  0  0  0  0
   -0.2199    2.0643   -0.5998 C   0  0  0  0  0  0  0  0  0  0  0  0
   -0.8011    2.3537    0.6302 N   0  0  0  0  0  0  0  0  0  0  0  0
   -0.4319    3.5747    0.9388 C   0  0  0  0  0  0  0  0  0  0  0  0
   -0.7119    4.0959    1.8499 H   0  0  0  0  0  0  0  0  0  0  0  0
    0.3615    4.0963   -0.0643 N   0  0  0  0  0  0  0  0  0  0  0  0
    0.7963    5.0173   -0.0515 H   0  0  0  0  0  0  0  0  0  0  0  0
    0.5035    3.1359   -1.0428 C   0  0  0  0  0  0  0  0  0  0  0  0
    1.0837    3.1920   -1.9595 H   0  0  0  0  0  0  0  0  0  0  0  0
    0.5554   -0.3694    0.9344 C   0  0  0  0  0  0  0  0  0  0  0  0
    1.7758   -0.4011    1.0452 O   0  0  0  0  0  0  0  0  0  0  0  0
   -0.2187   -0.1013    2.0501 N   0  0  0  0  0  0  0  0  0  0  0  0
   -1.1237    0.3103    1.8371 H   0  0  0  0  0  0  0  0  0  0  0  0
    0.3713    0.2051    3.3464 C   0  0  0  0  0  0  0  0  0  0  0  0
    0.9347    1.1426    3.2975 H   0  0  0  0  0  0  0  0  0  0  0  0
   -0.4129    0.3071    4.1023 H   0  0  0  0  0  0  0  0  0  0  0  0
    1.0475   -0.5974    3.6597 H   0  0  0  0  0  0  0  0  0  0  0  0
  1  2  1  0  0  0  0
  2  3  1  0  0  0  0
  2  4  1  0  0  0  0
  2  5  1  0  0  0  0
  5  6  2  0  0  0  0
  5  7  1  0  0  0  0
  7  8  1  0  0  0  0
  7  9  1  0  0  0  0
  9 10  1  0  0  0  0
  9 11  1  0  0  0  0
  9 22  1  0  0  0  0
 11 12  1  0  0  0  0
 11 13  1  0  0  0  0
 11 14  1  0  0  0  0
 14 15  1  0  0  0  0
 14 20  2  0  0  0  0
 15 16  2  0  0  0  0
 16 17  1  0  0  0  0
 16 18  1  0  0  0  0
 18 19  1  0  0  0  0
 18 20  1  0  0  0  0
 20 21  1  0  0  0  0
 22 23  2  0  0  0  0
 22 24  1  0  0  0  0
 24 25  1  0  0  0  0
 24 26  1  0  0  0  0
 26 27  1  0  0  0  0
 26 28  1  0  0  0  0
 26 29  1  0  0  0  0
M  END
$$$$

  -OEChem-04042215593D

 29 29  0     1  0  0  0  0  0999 V2000
   -2.4917   -4.4567    0.2656 H   0  0  0  0  0  0  0  0  0  0  0  0
   -2.6560   -3.4135   -0.0202 C   0  0  0  0  0  0  0  0  0  0  0  0
   -3.2632   -2.9305    0.7490 H   0  0  0  0  0  0  0  0  0  0  0  0
   -3.1937   -3.3896   -0.9711 H   0  0  0  0  0  0  0  0  0  0  0  0
   -1.3261   -2.6963   -0.1588 C   0  0  0  0  0  0  0  0  0  0  0  0
   -0.2882   -3.3095    0.0141 O   0  0  0  0  0  0  0  0  0  0  0  0
   -1.3052   -1.3584   -0.5005 N   0  0  0  0  0  0  0  0  0  0  0  0
   -2.2048   -0.8901   -0.5264 H   0  0  0  0  0  0  0  0  0  0  0  0
   -0.0949   -0.5187   -0.4360 C   0  0  1  0  0  0  0  0  0  0  0  0
    0.6621   -1.0759   -1.0005 H   0  0  0  0  0  0  0  0  0  0  0  0
   -0.3210    0.7685   -1.2760 C   0  0  0  0  0  0  0  0  0  0  0  0
    0.4206    0.7718   -2.0806 H   0  0  0  0  0  0  0  0  0  0  0  0
   -1.3025    0.7144   -1.7545 H   0  0  0  0  0  0  0  0  0  0  0  0
   -0.2428    2.1052   -0.5836 C   0  0  0  0  0  0  0  0  0  0  0  0
   -0.5624    2.3806    0.7406 N   0  0  0  0  0  0  0  0  0  0  0  0
   -0.2727    3.6429    0.9481 C   0  0  0  0  0  0  0  0  0  0  0  0
   -0.3986    4.1623    1.8939 H   0  0  0  0  0  0  0  0  0  0  0  0
    0.2129    4.2096   -0.2133 N   0  0  0  0  0  0  0  0  0  0  0  0
    0.5344    5.1712   -0.3090 H   0  0  0  0  0  0  0  0  0  0  0  0
    0.2404    3.2339   -1.1864 C   0  0  0  0  0  0  0  0  0  0  0  0
    0.5943    3.3192   -2.2097 H   0  0  0  0  0  0  0  0  0  0  0  0
    0.5527   -0.3897    0.9679 C   0  0  0  0  0  0  0  0  0  0  0  0
    1.7724   -0.4467    1.0785 O   0  0  0  0  0  0  0  0  0  0  0  0
   -0.2205   -0.1560    2.0924 N   0  0  0  0  0  0  0  0  0  0  0  0
   -1.1220    0.2675    1.8936 H   0  0  0  0  0  0  0  0  0  0  0  0
    0.3735    0.1115    3.3953 C   0  0  0  0  0  0  0  0  0  0  0  0
    0.9431    1.0462    3.3700 H   0  0  0  0  0  0  0  0  0  0  0  0
   -0.4088    0.1984    4.1551 H   0  0  0  0  0  0  0  0  0  0  0  0
    1.0448   -0.7038    3.6855 H   0  0  0  0  0  0  0  0  0  0  0  0
  1  2  1  0  0  0  0
  2  3  1  0  0  0  0
  2  4  1  0  0  0  0
  2  5  1  0  0  0  0
  5  6  2  0  0  0  0
  5  7  1  0  0  0  0
  7  8  1  0  0  0  0
  7  9  1  0  0  0  0
  9 10  1  0  0  0  0
  9 11  1  0  0  0  0
  9 22  1  0  0  0  0
 11 12  1  0  0  0  0
 11 13  1  0  0  0  0
 11 14  1  0  0  0  0
 14 15  1  0  0  0  0
 14 20  2  0  0  0  0
 15 16  2  0  0  0  0
 16 17  1  0  0  0  0
 16 18  1  0  0  0  0
 18 19  1  0  0  0  0
 18 20  1  0  0  0  0
 20 21  1  0  0  0  0
 22 23  2  0  0  0  0
 22 24  1  0  0  0  0
 24 25  1  0  0  0  0
 24 26  1  0  0  0  0
 26 27  1  0  0  0  0
 26 28  1  0  0  0  0
 26 29  1  0  0  0  0
M  END
$$$$

  -OEChem-04042215593D

 29 29  0     1  0  0  0  0  0999 V2000
   -2.5079   -4.4441    0.2429 H   0  0  0  0  0  0  0  0  0  0  0  0
   -2.6657   -3.3978   -0.0346 C   0  0  0  0  0  0  0  0  0  0  0  0
   -3.2661   -2.9161    0.7408 H   0  0  0  0  0  0  0  0  0  0  0  0
   -3.2071   -3.3631   -0.9830 H   0  0  0  0  0  0  0  0  0  0  0  0
   -1.3315   -2.6889   -0.1730 C   0  0  0  0  0  0  0  0  0  0  0  0
   -0.2977   -3.3135   -0.0196 O   0  0  0  0  0  0  0  0  0  0  0  0
   -1.3030   -1.3455   -0.4917 N   0  0  0  0  0  0  0  0  0  0  0  0
   -2.2003   -0.8729   -0.5112 H   0  0  0  0  0  0  0  0  0  0  0  0
   -0.0871   -0.5136   -0.4190 C   0  0  1  0  0  0  0  0  0  0  0  0
    0.6660   -1.0640   -0.9956 H   0  0  0  0  0  0  0  0  0  0  0  0
   -0.3176    0.7869   -1.2400 C   0  0  0  0  0  0  0  0  0  0  0  0
    0.4257    0.7969   -2.0430 H   0  0  0  0  0  0  0  0  0  0  0  0
   -1.2972    0.7336   -1.7229 H   0  0  0  0  0  0  0  0  0  0  0  0
   -0.2386    2.1299   -0.5551 C   0  0  0  0  0  0  0  0  0  0  0  0
   -0.2625    2.4088    0.8050 N   0  0  0  0  0  0  0  0  0  0  0  0
   -0.0896    3.7012    0.9401 C   0  0  0  0  0  0  0  0  0  0  0  0
   -0.0484    4.2277    1.8894 H   0  0  0  0  0  0  0  0  0  0  0  0
    0.0287    4.2874   -0.3036 N   0  0  0  0  0  0  0  0  0  0  0  0
    0.1943    5.2779   -0.4736 H   0  0  0  0  0  0  0  0  0  0  0  0
   -0.0583    3.2927   -1.2541 C   0  0  0  0  0  0  0  0  0  0  0  0
    0.0241    3.3912   -2.3326 H   0  0  0  0  0  0  0  0  0  0  0  0
    0.5609   -0.4183    0.9873 C   0  0  0  0  0  0  0  0  0  0  0  0
    1.7784   -0.5091    1.1004 O   0  0  0  0  0  0  0  0  0  0  0  0
   -0.2131   -0.2023    2.1155 N   0  0  0  0  0  0  0  0  0  0  0  0
   -1.1208    0.2112    1.9299 H   0  0  0  0  0  0  0  0  0  0  0  0
    0.3822    0.0374    3.4234 C   0  0  0  0  0  0  0  0  0  0  0  0
    0.9700    0.9612    3.4111 H   0  0  0  0  0  0  0  0  0  0  0  0
   -0.3995    0.1304    4.1828 H   0  0  0  0  0  0  0  0  0  0  0  0
    1.0370   -0.7940    3.7052 H   0  0  0  0  0  0  0  0  0  0  0  0
  1  2  1  0  0  0  0
  2  3  1  0  0  0  0
  2  4  1  0  0  0  0
  2  5  1  0  0  0  0
  5  6  2  0  0  0  0
  5  7  1  0  0  0  0
  7  8  1  0  0  0  0
  7  9  1  0  0  0  0
  9 10  1  0  0  0  0
  9 11  1  0  0  0  0
  9 22  1  0  0  0  0
 11 12  1  0  0  0  0
 11 13  1  0  0  0  0
 11 14  1  0  0  0  0
 14 15  1  0  0  0  0
 14 20  2  0  0  0  0
 15 16  2  0  0  0  0
 16 17  1  0  0  0  0
 16 18  1  0  0  0  0
 18 19  1  0  0  0  0
 18 20  1  0  0  0  0
 20 21  1  0  0  0  0
 22 23  2  0  0  0  0
 22 24  1  0  0  0  0
 24 25  1  0  0  0  0
 24 26  1  0  0  0  0
 26 27  1  0  0  0  0
 26 28  1  0  0  0  0
 26 29  1  0  0  0  0
M  END
$$$$

  -OEChem-04042215593D

 29 29  0     1  0  0  0  0  0999 V2000
   -2.5425   -4.4182    0.2452 H   0  0  0  0  0  0  0  0  0  0  0  0
   -2.6866   -3.3701   -0.0327 C   0  0  0  0  0  0  0  0  0  0  0  0
   -3.2855   -2.8820    0.7399 H   0  0  0  0  0  0  0  0  0  0  0  0
   -3.2230   -3.3286   -0.9837 H   0  0  0  0  0  0  0  0  0  0  0  0
   -1.3433   -2.6771   -0.1642 C   0  0  0  0  0  0  0  0  0  0  0  0
   -0.3182   -3.3152   -0.0095 O   0  0  0  0  0  0  0  0  0  0  0  0
   -1.2975   -1.3340   -0.4831 N   0  0  0  0  0  0  0  0  0  0  0  0
   -2.1887   -0.8511   -0.5116 H   0  0  0  0  0  0  0  0  0  0  0  0
   -0.0691   -0.5190   -0.4186 C   0  0  1  0  0  0  0  0  0  0  0  0
    0.6746   -1.0698   -1.0066 H   0  0  0  0  0  0  0  0  0  0  0  0
   -0.3088    0.7924   -1.2216 C   0  0  0  0  0  0  0  0  0  0  0  0
    0.4360    0.8072   -2.0232 H   0  0  0  0  0  0  0  0  0  0  0  0
   -1.2872    0.7453   -1.7075 H   0  0  0  0  0  0  0  0  0  0  0  0
   -0.2106    2.1359   -0.5385 C   0  0  0  0  0  0  0  0  0  0  0  0
    0.0767    2.4305    0.7868 N   0  0  0  0  0  0  0  0  0  0  0  0
    0.1030    3.7354    0.9030 C   0  0  0  0  0  0  0  0  0  0  0  0
    0.3149    4.2747    1.8219 H   0  0  0  0  0  0  0  0  0  0  0  0
   -0.1838    4.3146   -0.3162 N   0  0  0  0  0  0  0  0  0  0  0  0
   -0.2073    5.3159   -0.5007 H   0  0  0  0  0  0  0  0  0  0  0  0
   -0.3798    3.3035   -1.2327 C   0  0  0  0  0  0  0  0  0  0  0  0
   -0.5998    3.3976   -2.2920 H   0  0  0  0  0  0  0  0  0  0  0  0
    0.5803   -0.4401    0.9878 C   0  0  0  0  0  0  0  0  0  0  0  0
    1.7927   -0.5775    1.1062 O   0  0  0  0  0  0  0  0  0  0  0  0
   -0.1939   -0.2161    2.1149 N   0  0  0  0  0  0  0  0  0  0  0  0
   -1.1057    0.1882    1.9351 H   0  0  0  0  0  0  0  0  0  0  0  0
    0.4001    0.0018    3.4273 C   0  0  0  0  0  0  0  0  0  0  0  0
    1.0129    0.9093    3.4223 H   0  0  0  0  0  0  0  0  0  0  0  0
   -0.3829    0.1131    4.1831 H   0  0  0  0  0  0  0  0  0  0  0  0
    1.0305   -0.8483    3.7087 H   0  0  0  0  0  0  0  0  0  0  0  0
  1  2  1  0  0  0  0
  2  3  1  0  0  0  0
  2  4  1  0  0  0  0
  2  5  1  0  0  0  0
  5  6  2  0  0  0  0
  5  7  1  0  0  0  0
  7  8  1  0  0  0  0
  7  9  1  0  0  0  0
  9 10  1  0  0  0  0
  9 11  1  0  0  0  0
  9 22  1  0  0  0  0
 11 12  1  0  0  0  0
 11 13  1  0  0  0  0
 11 14  1  0  0  0  0
 14 15  1  0  0  0  0
 14 20  2  0  0  0  0
 15 16  2  0  0  0  0
 16 17  1  0  0  0  0
 16 18  1  0  0  0  0
 18 19  1  0  0  0  0
 18 20  1  0  0  0  0
 20 21  1  0  0  0  0
 22 23  2  0  0  0  0
 22 24  1  0  0  0  0
 24 25  1  0  0  0  0
 24 26  1  0  0  0  0
 26 27  1  0  0  0  0
 26 28  1  0  0  0  0
 26 29  1  0  0  0  0
M  END
$$$$

  -OEChem-04042215593D

 29 29  0     1  0  0  0  0  0999 V2000
   -2.5701   -4.3886    0.2931 H   0  0  0  0  0  0  0  0  0  0  0  0
   -2.7008   -3.3463   -0.0123 C   0  0  0  0  0  0  0  0  0  0  0  0
   -3.3084   -2.8351    0.7381 H   0  0  0  0  0  0  0  0  0  0  0  0
   -3.2206   -3.3239   -0.9730 H   0  0  0  0  0  0  0  0  0  0  0  0
   -1.3496   -2.6679   -0.1382 C   0  0  0  0  0  0  0  0  0  0  0  0
   -0.3329   -3.3124    0.0417 O   0  0  0  0  0  0  0  0  0  0  0  0
   -1.2869   -1.3310   -0.4799 N   0  0  0  0  0  0  0  0  0  0  0  0
   -2.1729   -0.8421   -0.5446 H   0  0  0  0  0  0  0  0  0  0  0  0
   -0.0483   -0.5290   -0.4368 C   0  0  1  0  0  0  0  0  0  0  0  0
    0.6887   -1.0838   -1.0295 H   0  0  0  0  0  0  0  0  0  0  0  0
   -0.3055    0.7848   -1.2318 C   0  0  0  0  0  0  0  0  0  0  0  0
    0.4338    0.8014   -2.0382 H   0  0  0  0  0  0  0  0  0  0  0  0
   -1.2865    0.7387   -1.7132 H   0  0  0  0  0  0  0  0  0  0  0  0
   -0.1858    2.1270   -0.5475 C   0  0  0  0  0  0  0  0  0  0  0  0
    0.3989    2.4449    0.6698 N   0  0  0  0  0  0  0  0  0  0  0  0
    0.2838    3.7388    0.8387 C   0  0  0  0  0  0  0  0  0  0  0  0
    0.6562    4.2910    1.6970 H   0  0  0  0  0  0  0  0  0  0  0  0
   -0.3855    4.2867   -0.2365 N   0  0  0  0  0  0  0  0  0  0  0  0
   -0.5889    5.2771   -0.3595 H   0  0  0  0  0  0  0  0  0  0  0  0
   -0.6853    3.2681   -1.1164 C   0  0  0  0  0  0  0  0  0  0  0  0
   -1.1928    3.3429   -2.0735 H   0  0  0  0  0  0  0  0  0  0  0  0
    0.6009   -0.4410    0.9690 C   0  0  0  0  0  0  0  0  0  0  0  0
    1.8079   -0.6123    1.0961 O   0  0  0  0  0  0  0  0  0  0  0  0
   -0.1742   -0.1918    2.0904 N   0  0  0  0  0  0  0  0  0  0  0  0
   -1.1036    0.1694    1.9131 H   0  0  0  0  0  0  0  0  0  0  0  0
    0.4112    0.0232    3.4067 C   0  0  0  0  0  0  0  0  0  0  0  0
    1.0505    0.9121    3.3990 H   0  0  0  0  0  0  0  0  0  0  0  0
   -0.3767    0.1653    4.1522 H   0  0  0  0  0  0  0  0  0  0  0  0
    1.0133   -0.8418    3.7040 H   0  0  0  0  0  0  0  0  0  0  0  0
  1  2  1  0  0  0  0
  2  3  1  0  0  0  0
  2  4  1  0  0  0  0
  2  5  1  0  0  0  0
  5  6  2  0  0  0  0
  5  7  1  0  0  0  0
  7  8  1  0  0  0  0
  7  9  1  0  0  0  0
  9 10  1  0  0  0  0
  9 11  1  0  0  0  0
  9 22  1  0  0  0  0
 11 12  1  0  0  0  0
 11 13  1  0  0  0  0
 11 14  1  0  0  0  0
 14 15  1  0  0  0  0
 14 20  2  0  0  0  0
 15 16  2  0  0  0  0
 16 17  1  0  0  0  0
 16 18  1  0  0  0  0
 18 19  1  0  0  0  0
 18 20  1  0  0  0  0
 20 21  1  0  0  0  0
 22 23  2  0  0  0  0
 22 24  1  0  0  0  0
 24 25  1  0  0  0  0
 24 26  1  0  0  0  0
 26 27  1  0  0  0  0
 26 28  1  0  0  0  0
 26 29  1  0  0  0  0
M  END
$$$$

  -OEChem-04042215593D

 29 29  0     1  0  0  0  0  0999 V2000
   -2.5694   -4.3824    0.3344 H   0  0  0  0  0  0  0  0  0  0  0  0
   -2.6963   -3.3460    0.0084 C   0  0  0  0  0  0  0  0  0  0  0  0
   -3.3226   -2.8240    0.7356 H   0  0  0  0  0  0  0  0  0  0  0  0
   -3.1940   -3.3424   -0.9643 H   0  0  0  0  0  0  0  0  0  0  0  0
   -1.3445   -2.6653   -0.0982 C   0  0  0  0  0  0  0  0  0  0  0  0
   -0.3319   -3.3006    0.1299 O   0  0  0  0  0  0  0  0  0  0  0  0
   -1.2757   -1.3394   -0.4801 N   0  0  0  0  0  0  0  0  0  0  0  0
   -2.1591   -0.8595   -0.6110 H   0  0  0  0  0  0  0  0  0  0  0  0
   -0.0346   -0.5391   -0.4657 C   0  0  1  0  0  0  0  0  0  0  0  0
    0.7026   -1.0950   -1.0568 H   0  0  0  0  0  0  0  0  0  0  0  0
   -0.3198    0.7706   -1.2583 C   0  0  0  0  0  0  0  0  0  0  0  0
    0.4037    0.7922   -2.0786 H   0  0  0  0  0  0  0  0  0  0  0  0
   -1.3098    0.7210   -1.7199 H   0  0  0  0  0  0  0  0  0  0  0  0
   -0.1834    2.1078   -0.5678 C   0  0  0  0  0  0  0  0  0  0  0  0
    0.6649    2.4564    0.4722 N   0  0  0  0  0  0  0  0  0  0  0  0
    0.4534    3.7184    0.7494 C   0  0  0  0  0  0  0  0  0  0  0  0
    0.9753    4.2833    1.5166 H   0  0  0  0  0  0  0  0  0  0  0  0
   -0.5340    4.2132   -0.0787 N   0  0  0  0  0  0  0  0  0  0  0  0
   -0.8738    5.1734   -0.0784 H   0  0  0  0  0  0  0  0  0  0  0  0
   -0.9415    3.1945   -0.9145 C   0  0  0  0  0  0  0  0  0  0  0  0
   -1.6925    3.2362   -1.6977 H   0  0  0  0  0  0  0  0  0  0  0  0
    0.6101   -0.4167    0.9394 C   0  0  0  0  0  0  0  0  0  0  0  0
    1.8129   -0.6025    1.0829 O   0  0  0  0  0  0  0  0  0  0  0  0
   -0.1721   -0.1343    2.0480 N   0  0  0  0  0  0  0  0  0  0  0  0
   -1.1204    0.1705    1.8661 H   0  0  0  0  0  0  0  0  0  0  0  0
    0.3974    0.0950    3.3688 C   0  0  0  0  0  0  0  0  0  0  0  0
    1.0617    0.9653    3.3514 H   0  0  0  0  0  0  0  0  0  0  0  0
   -0.3975    0.2775    4.0977 H   0  0  0  0  0  0  0  0  0  0  0  0
    0.9701   -0.7794    3.6955 H   0  0  0  0  0  0  0  0  0  0  0  0
  1  2  1  0  0  0  0
  2  3  1  0  0  0  0
  2  4  1  0  0  0  0
  2  5  1  0  0  0  0
  5  6  2  0  0  0  0
  5  7  1  0  0  0  0
  7  8  1  0  0  0  0
  7  9  1  0  0  0  0
  9 10  1  0  0  0  0
  9 11  1  0  0  0  0
  9 22  1  0  0  0  0
 11 12  1  0  0  0  0
 11 13  1  0  0  0  0
 11 14  1  0  0  0  0
 14 15  1  0  0  0  0
 14 20  2  0  0  0  0
 15 16  2  0  0  0  0
 16 17  1  0  0  0  0
 16 18  1  0  0  0  0
 18 19  1  0  0  0  0
 18 20  1  0  0  0  0
 20 21  1  0  0  0  0
 22 23  2  0  0  0  0
 22 24  1  0  0  0  0
 24 25  1  0  0  0  0
 24 26  1  0  0  0  0
 26 27  1  0  0  0  0
 26 28  1  0  0  0  0
 26 29  1  0  0  0  0
M  END
$$$$

  -OEChem-04042215593D

 29 29  0     1  0  0  0  0  0999 V2000
   -2.5499   -4.3803    0.3891 H   0  0  0  0  0  0  0  0  0  0  0  0
   -2.6766   -3.3584    0.0198 C   0  0  0  0  0  0  0  0  0  0  0  0
   -3.3437   -2.8210    0.6975 H   0  0  0  0  0  0  0  0  0  0  0  0
   -3.1286   -3.3979   -0.9742 H   0  0  0  0  0  0  0  0  0  0  0  0
   -1.3316   -2.6595   -0.0491 C   0  0  0  0  0  0  0  0  0  0  0  0
   -0.3224   -3.2672    0.2546 O   0  0  0  0  0  0  0  0  0  0  0  0
   -1.2652   -1.3478   -0.4774 N   0  0  0  0  0  0  0  0  0  0  0  0
   -2.1447   -0.8978   -0.7042 H   0  0  0  0  0  0  0  0  0  0  0  0
   -0.0295   -0.5386   -0.4944 C   0  0  1  0  0  0  0  0  0  0  0  0
    0.7119   -1.0945   -1.0801 H   0  0  0  0  0  0  0  0  0  0  0  0
   -0.3477    0.7586   -1.2941 C   0  0  0  0  0  0  0  0  0  0  0  0
    0.3513    0.7870   -2.1354 H   0  0  0  0  0  0  0  0  0  0  0  0
   -1.3509    0.7017   -1.7253 H   0  0  0  0  0  0  0  0  0  0  0  0
   -0.2010    2.0860   -0.5913 C   0  0  0  0  0  0  0  0  0  0  0  0
    0.8519    2.4884    0.2156 N   0  0  0  0  0  0  0  0  0  0  0  0
    0.5862    3.7010    0.6313 C   0  0  0  0  0  0  0  0  0  0  0  0
    1.2266    4.2901    1.2815 H   0  0  0  0  0  0  0  0  0  0  0  0
   -0.6285    4.1101    0.1166 N   0  0  0  0  0  0  0  0  0  0  0  0
   -1.0572    5.0196    0.2788 H   0  0  0  0  0  0  0  0  0  0  0  0
   -1.1320    3.0875   -0.6607 C   0  0  0  0  0  0  0  0  0  0  0  0
   -2.0628    3.0710   -1.2192 H   0  0  0  0  0  0  0  0  0  0  0  0
    0.6124   -0.3644    0.9073 C   0  0  0  0  0  0  0  0  0  0  0  0
    1.8145   -0.5418    1.0642 O   0  0  0  0  0  0  0  0  0  0  0  0
   -0.1748   -0.0492    2.0034 N   0  0  0  0  0  0  0  0  0  0  0  0
   -1.1508    0.1555    1.8285 H   0  0  0  0  0  0  0  0  0  0  0  0
    0.3718    0.1712    3.3349 C   0  0  0  0  0  0  0  0  0  0  0  0
    1.1014    0.9877    3.3169 H   0  0  0  0  0  0  0  0  0  0  0  0
   -0.4276    0.4346    4.0337 H   0  0  0  0  0  0  0  0  0  0  0  0
    0.8659   -0.7356    3.6990 H   0  0  0  0  0  0  0  0  0  0  0  0
  1  2  1  0  0  0  0
  2  3  1  0  0  0  0
  2  4  1  0  0  0  0
  2  5  1  0  0  0  0
  5  6  2  0  0  0  0
  5  7  1  0  0  0  0
  7  8  1  0  0  0  0
  7  9  1  0  0  0  0
  9 10  1  0  0  0  0
  9 11  1  0  0  0  0
  9 22  1  0  0  0  0
 11 12  1  0  0  0  0
 11 13  1  0  0  0  0
 11 14  1  0  0  0  0
 14 15  1  0  0  0  0
 14 20  2  0  0  0  0
 15 16  2  0  0  0  0
 16 17  1  0  0  0  0
 16 18  1  0  0  0  0
 18 19  1  0  0  0  0
 18 20  1  0  0  0  0
 20 21  1  0  0  0  0
 22 23  2  0  0  0  0
 22 24  1  0  0  0  0
 24 25  1  0  0  0  0
 24 26  1  0  0  0  0
 26 27  1  0  0  0  0
 26 28  1  0  0  0  0
 26 29  1  0  0  0  0
M  END
$$$$

  -OEChem-04042215593D

 29 29  0     1  0  0  0  0  0999 V2000
   -2.5075   -4.4131    0.3877 H   0  0  0  0  0  0  0  0  0  0  0  0
   -2.6480   -3.3978    0.0055 C   0  0  0  0  0  0  0  0  0  0  0  0
   -3.3732   -2.8819    0.6392 H   0  0  0  0  0  0  0  0  0  0  0  0
   -3.0383   -3.4576   -1.0132 H   0  0  0  0  0  0  0  0  0  0  0  0
   -1.3269   -2.6515    0.0131 C   0  0  0  0  0  0  0  0  0  0  0  0
   -0.3255   -3.2074    0.4227 O   0  0  0  0  0  0  0  0  0  0  0  0
   -1.2743   -1.3533   -0.4564 N   0  0  0  0  0  0  0  0  0  0  0  0
   -2.1347   -0.9689   -0.8301 H   0  0  0  0  0  0  0  0  0  0  0  0
   -0.0487   -0.5294   -0.5063 C   0  0  1  0  0  0  0  0  0  0  0  0
    0.6965   -1.0839   -1.0882 H   0  0  0  0  0  0  0  0  0  0  0  0
   -0.3939    0.7552   -1.3130 C   0  0  0  0  0  0  0  0  0  0  0  0
    0.2773    0.7891   -2.1764 H   0  0  0  0  0  0  0  0  0  0  0  0
   -1.4112    0.6953   -1.7087 H   0  0  0  0  0  0  0  0  0  0  0  0
   -0.2347    2.0699   -0.5953 C   0  0  0  0  0  0  0  0  0  0  0  0
    0.9497    2.5503   -0.0605 N   0  0  0  0  0  0  0  0  0  0  0  0
    0.6838    3.7112    0.4837 C   0  0  0  0  0  0  0  0  0  0  0  0
    1.4095    4.3409    0.9906 H   0  0  0  0  0  0  0  0  0  0  0  0
   -0.6539    4.0113    0.3085 N   0  0  0  0  0  0  0  0  0  0  0  0
   -1.1095    4.8636    0.6297 H   0  0  0  0  0  0  0  0  0  0  0  0
   -1.2419    2.9713   -0.3819 C   0  0  0  0  0  0  0  0  0  0  0  0
   -2.2771    2.8777   -0.6947 H   0  0  0  0  0  0  0  0  0  0  0  0
    0.5999   -0.3019    0.8851 C   0  0  0  0  0  0  0  0  0  0  0  0
    1.8082   -0.4332    1.0372 O   0  0  0  0  0  0  0  0  0  0  0  0
   -0.1871    0.0379    1.9736 N   0  0  0  0  0  0  0  0  0  0  0  0
   -1.1878    0.0879    1.8254 H   0  0  0  0  0  0  0  0  0  0  0  0
    0.3498    0.2347    3.3125 C   0  0  0  0  0  0  0  0  0  0  0  0
    1.1058    1.0269    3.3071 H   0  0  0  0  0  0  0  0  0  0  0  0
   -0.4486    0.5231    4.0023 H   0  0  0  0  0  0  0  0  0  0  0  0
    0.8090   -0.6897    3.6787 H   0  0  0  0  0  0  0  0  0  0  0  0
  1  2  1  0  0  0  0
  2  3  1  0  0  0  0
  2  4  1  0  0  0  0
  2  5  1  0  0  0  0
  5  6  2  0  0  0  0
  5  7  1  0  0  0  0
  7  8  1  0  0  0  0
  7  9  1  0  0  0  0
  9 10  1  0  0  0  0
  9 11  1  0  0  0  0
  9 22  1  0  0  0  0
 11 12  1  0  0  0  0
 11 13  1  0  0  0  0
 11 14  1  0  0  0  0
 14 15  1  0  0  0  0
 14 20  2  0  0  0  0
 15 16  2  0  0  0  0
 16 17  1  0  0  0  0
 16 18  1  0  0  0  0
 18 19  1  0  0  0  0
 18 20  1  0  0  0  0
 20 21  1  0  0  0  0
 22 23  2  0  0  0  0
 22 24  1  0  0  0  0
 24 25  1  0  0  0  0
 24 26  1  0  0  0  0
 26 27  1  0  0  0  0
 26 28  1  0  0  0  0
 26 29  1  0  0  0  0
M  END
$$$$

  -OEChem-04042215593D

 29 29  0     1  0  0  0  0  0999 V2000
   -2.4667   -4.4487    0.3672 H   0  0  0  0  0  0  0  0  0  0  0  0
   -2.6228   -3.4394   -0.0247 C   0  0  0  0  0  0  0  0  0  0  0  0
   -3.3989   -2.9488    0.5674 H   0  0  0  0  0  0  0  0  0  0  0  0
   -2.9557   -3.5144   -1.0628 H   0  0  0  0  0  0  0  0  0  0  0  0
   -1.3321   -2.6457    0.0525 C   0  0  0  0  0  0  0  0  0  0  0  0
   -0.3431   -3.1542    0.5453 O   0  0  0  0  0  0  0  0  0  0  0  0
   -1.2947   -1.3549   -0.4384 N   0  0  0  0  0  0  0  0  0  0  0  0
   -2.1282   -1.0301   -0.9161 H   0  0  0  0  0  0  0  0  0  0  0  0
   -0.0763   -0.5213   -0.5062 C   0  0  1  0  0  0  0  0  0  0  0  0
    0.6703   -1.0761   -1.0859 H   0  0  0  0  0  0  0  0  0  0  0  0
   -0.4308    0.7553   -1.3186 C   0  0  0  0  0  0  0  0  0  0  0  0
    0.2223    0.7918   -2.1957 H   0  0  0  0  0  0  0  0  0  0  0  0
   -1.4574    0.6981   -1.6900 H   0  0  0  0  0  0  0  0  0  0  0  0
   -0.2615    2.0576   -0.5864 C   0  0  0  0  0  0  0  0  0  0  0  0
    0.9650    2.6460   -0.3254 N   0  0  0  0  0  0  0  0  0  0  0  0
    0.7222    3.7534    0.3305 C   0  0  0  0  0  0  0  0  0  0  0  0
    1.4820    4.4414    0.6906 H   0  0  0  0  0  0  0  0  0  0  0  0
   -0.6421    3.9154    0.4859 N   0  0  0  0  0  0  0  0  0  0  0  0
   -1.0877    4.7003    0.9570 H   0  0  0  0  0  0  0  0  0  0  0  0
   -1.2744    2.8397   -0.1027 C   0  0  0  0  0  0  0  0  0  0  0  0
   -2.3395    2.6423   -0.1677 H   0  0  0  0  0  0  0  0  0  0  0  0
    0.5802   -0.2630    0.8769 C   0  0  0  0  0  0  0  0  0  0  0  0
    1.7947   -0.3375    1.0125 O   0  0  0  0  0  0  0  0  0  0  0  0
   -0.2027    0.0883    1.9645 N   0  0  0  0  0  0  0  0  0  0  0  0
   -1.2065    0.0286    1.8422 H   0  0  0  0  0  0  0  0  0  0  0  0
    0.3393    0.2818    3.3022 C   0  0  0  0  0  0  0  0  0  0  0  0
    1.1102    1.0594    3.2932 H   0  0  0  0  0  0  0  0  0  0  0  0
   -0.4530    0.5900    3.9906 H   0  0  0  0  0  0  0  0  0  0  0  0
    0.7812   -0.6488    3.6731 H   0  0  0  0  0  0  0  0  0  0  0  0
  1  2  1  0  0  0  0
  2  3  1  0  0  0  0
  2  4  1  0  0  0  0
  2  5  1  0  0  0  0
  5  6  2  0  0  0  0
  5  7  1  0  0  0  0
  7  8  1  0  0  0  0
  7  9  1  0  0  0  0
  9 10  1  0  0  0  0
  9 11  1  0  0  0  0
  9 22  1  0  0  0  0
 11 12  1  0  0  0  0
 11 13  1  0  0  0  0
 11 14  1  0  0  0  0
 14 15  1  0  0  0  0
 14 20  2  0  0  0  0
 15 16  2  0  0  0  0
 16 17  1  0  0  0  0
 16 18  1  0  0  0  0
 18 19  1  0  0  0  0
 18 20  1  0  0  0  0
 20 21  1  0  0  0  0
 22 23  2  0  0  0  0
 22 24  1  0  0  0  0
 24 25  1  0  0  0  0
 24 26  1  0  0  0  0
 26 27  1  0  0  0  0
 26 28  1  0  0  0  0
 26 29  1  0  0  0  0
M  END
$$$$

  -OEChem-04042215593D

 29 29  0     1  0  0  0  0  0999 V2000
   -2.4481   -4.4792    0.3350 H   0  0  0  0  0  0  0  0  0  0  0  0
   -2.6128   -3.4724   -0.0600 C   0  0  0  0  0  0  0  0  0  0  0  0
   -3.4233   -3.0028    0.5024 H   0  0  0  0  0  0  0  0  0  0  0  0
   -2.9030   -3.5516   -1.1103 H   0  0  0  0  0  0  0  0  0  0  0  0
   -1.3449   -2.6489    0.0684 C   0  0  0  0  0  0  0  0  0  0  0  0
   -0.3660   -3.1321    0.6049 O   0  0  0  0  0  0  0  0  0  0  0  0
   -1.3176   -1.3573   -0.4214 N   0  0  0  0  0  0  0  0  0  0  0  0
   -2.1307   -1.0647   -0.9524 H   0  0  0  0  0  0  0  0  0  0  0  0
   -0.1021   -0.5198   -0.4918 C   0  0  1  0  0  0  0  0  0  0  0  0
    0.6431   -1.0766   -1.0714 H   0  0  0  0  0  0  0  0  0  0  0  0
   -0.4474    0.7567   -1.3062 C   0  0  0  0  0  0  0  0  0  0  0  0
    0.2011    0.7911   -2.1870 H   0  0  0  0  0  0  0  0  0  0  0  0
   -1.4764    0.7076   -1.6720 H   0  0  0  0  0  0  0  0  0  0  0  0
   -0.2725    2.0526   -0.5665 C   0  0  0  0  0  0  0  0  0  0  0  0
    0.9102    2.7738   -0.5571 N   0  0  0  0  0  0  0  0  0  0  0  0
    0.6961    3.8359    0.1794 C   0  0  0  0  0  0  0  0  0  0  0  0
    1.4371    4.6003    0.3960 H   0  0  0  0  0  0  0  0  0  0  0  0
   -0.6124    3.8414    0.6267 N   0  0  0  0  0  0  0  0  0  0  0  0
   -1.0255    4.5608    1.2168 H   0  0  0  0  0  0  0  0  0  0  0  0
   -1.2389    2.7115    0.1430 C   0  0  0  0  0  0  0  0  0  0  0  0
   -2.2663    2.3971    0.2943 H   0  0  0  0  0  0  0  0  0  0  0  0
    0.5646   -0.2572    0.8855 C   0  0  0  0  0  0  0  0  0  0  0  0
    1.7836   -0.2724    0.9969 O   0  0  0  0  0  0  0  0  0  0  0  0
   -0.2095    0.0915    1.9798 N   0  0  0  0  0  0  0  0  0  0  0  0
   -1.2106   -0.0305    1.8814 H   0  0  0  0  0  0  0  0  0  0  0  0
    0.3497    0.2961    3.3090 C   0  0  0  0  0  0  0  0  0  0  0  0
    1.1022    1.0913    3.2890 H   0  0  0  0  0  0  0  0  0  0  0  0
   -0.4380    0.5851    4.0108 H   0  0  0  0  0  0  0  0  0  0  0  0
    0.8190   -0.6247    3.6710 H   0  0  0  0  0  0  0  0  0  0  0  0
  1  2  1  0  0  0  0
  2  3  1  0  0  0  0
  2  4  1  0  0  0  0
  2  5  1  0  0  0  0
  5  6  2  0  0  0  0
  5  7  1  0  0  0  0
  7  8  1  0  0  0  0
  7  9  1  0  0  0  0
  9 10  1  0  0  0  0
  9 11  1  0  0  0  0
  9 22  1  0  0  0  0
 11 12  1  0  0  0  0
 11 13  1  0  0  0  0
 11 14  1  0  0  0  0
 14 15  1  0  0  0  0
 14 20  2  0  0  0  0
 15 16  2  0  0  0  0
 16 17  1  0  0  0  0
 16 18  1  0  0  0  0
 18 19  1  0  0  0  0
 18 20  1  0  0  0  0
 20 21  1  0  0  0  0
 22 23  2  0  0  0  0
 22 24  1  0  0  0  0
 24 25  1  0  0  0  0
 24 26  1  0  0  0  0
 26 27  1  0  0  0  0
 26 28  1  0  0  0  0
 26 29  1  0  0  0  0
M  END
$$$$

  -OEChem-04042215593D

 29 29  0     1  0  0  0  0  0999 V2000
   -2.4437   -4.5036    0.2891 H   0  0  0  0  0  0  0  0  0  0  0  0
   -2.6141   -3.4933   -0.0943 C   0  0  0  0  0  0  0  0  0  0  0  0
   -3.4387   -3.0413    0.4619 H   0  0  0  0  0  0  0  0  0  0  0  0
   -2.8875   -3.5610   -1.1499 H   0  0  0  0  0  0  0  0  0  0  0  0
   -1.3574   -2.6579    0.0650 C   0  0  0  0  0  0  0  0  0  0  0  0
   -0.3814   -3.1367    0.6111 O   0  0  0  0  0  0  0  0  0  0  0  0
   -1.3358   -1.3581   -0.4031 N   0  0  0  0  0  0  0  0  0  0  0  0
   -2.1437   -1.0666   -0.9434 H   0  0  0  0  0  0  0  0  0  0  0  0
   -0.1215   -0.5185   -0.4664 C   0  0  1  0  0  0  0  0  0  0  0  0
    0.6183   -1.0787   -1.0499 H   0  0  0  0  0  0  0  0  0  0  0  0
   -0.4451    0.7620   -1.2819 C   0  0  0  0  0  0  0  0  0  0  0  0
    0.2139    0.7890   -2.1554 H   0  0  0  0  0  0  0  0  0  0  0  0
   -1.4696    0.7209   -1.6606 H   0  0  0  0  0  0  0  0  0  0  0  0
   -0.2720    2.0619   -0.5477 C   0  0  0  0  0  0  0  0  0  0  0  0
    0.7959    2.9185   -0.7650 N   0  0  0  0  0  0  0  0  0  0  0  0
    0.6144    3.9503    0.0220 C   0  0  0  0  0  0  0  0  0  0  0  0
    1.2915    4.7962    0.1014 H   0  0  0  0  0  0  0  0  0  0  0  0
   -0.5690    3.8060    0.7223 N   0  0  0  0  0  0  0  0  0  0  0  0
   -0.9324    4.4720    1.4012 H   0  0  0  0  0  0  0  0  0  0  0  0
   -1.1472    2.6104    0.3495 C   0  0  0  0  0  0  0  0  0  0  0  0
   -2.0816    2.1807    0.6944 H   0  0  0  0  0  0  0  0  0  0  0  0
    0.5579   -0.2756    0.9077 C   0  0  0  0  0  0  0  0  0  0  0  0
    1.7782   -0.2325    0.9918 O   0  0  0  0  0  0  0  0  0  0  0  0
   -0.2052    0.0542    2.0154 N   0  0  0  0  0  0  0  0  0  0  0  0
   -1.1990   -0.1310    1.9424 H   0  0  0  0  0  0  0  0  0  0  0  0
    0.3741    0.2631    3.3356 C   0  0  0  0  0  0  0  0  0  0  0  0
    1.1085    1.0749    3.3071 H   0  0  0  0  0  0  0  0  0  0  0  0
   -0.4070    0.5306    4.0534 H   0  0  0  0  0  0  0  0  0  0  0  0
    0.8701   -0.6491    3.6836 H   0  0  0  0  0  0  0  0  0  0  0  0
  1  2  1  0  0  0  0
  2  3  1  0  0  0  0
  2  4  1  0  0  0  0
  2  5  1  0  0  0  0
  5  6  2  0  0  0  0
  5  7  1  0  0  0  0
  7  8  1  0  0  0  0
  7  9  1  0  0  0  0
  9 10  1  0  0  0  0
  9 11  1  0  0  0  0
  9 22  1  0  0  0  0
 11 12  1  0  0  0  0
 11 13  1  0  0  0  0
 11 14  1  0  0  0  0
 14 15  1  0  0  0  0
 14 20  2  0  0  0  0
 15 16  2  0  0  0  0
 16 17  1  0  0  0  0
 16 18  1  0  0  0  0
 18 19  1  0  0  0  0
 18 20  1  0  0  0  0
 20 21  1  0  0  0  0
 22 23  2  0  0  0  0
 22 24  1  0  0  0  0
 24 25  1  0  0  0  0
 24 26  1  0  0  0  0
 26 27  1  0  0  0  0
 26 28  1  0  0  0  0
 26 29  1  0  0  0  0
M  END
$$$$

  -OEChem-04042215593D

 29 29  0     1  0  0  0  0  0999 V2000
   -2.4464   -4.5236    0.2226 H   0  0  0  0  0  0  0  0  0  0  0  0
   -2.6205   -3.5038   -0.1329 C   0  0  0  0  0  0  0  0  0  0  0  0
   -3.4478   -3.0701    0.4339 H   0  0  0  0  0  0  0  0  0  0  0  0
   -2.8915   -3.5439   -1.1907 H   0  0  0  0  0  0  0  0  0  0  0  0
   -1.3681   -2.6675    0.0523 C   0  0  0  0  0  0  0  0  0  0  0  0
   -0.3936   -3.1534    0.5951 O   0  0  0  0  0  0  0  0  0  0  0  0
   -1.3492   -1.3560   -0.3816 N   0  0  0  0  0  0  0  0  0  0  0  0
   -2.1571   -1.0526   -0.9157 H   0  0  0  0  0  0  0  0  0  0  0  0
   -0.1346   -0.5167   -0.4299 C   0  0  1  0  0  0  0  0  0  0  0  0
    0.5995   -1.0802   -1.0178 H   0  0  0  0  0  0  0  0  0  0  0  0
   -0.4319    0.7690   -1.2472 C   0  0  0  0  0  0  0  0  0  0  0  0
    0.2492    0.7836   -2.1040 H   0  0  0  0  0  0  0  0  0  0  0  0
   -1.4459    0.7330   -1.6535 H   0  0  0  0  0  0  0  0  0  0  0  0
   -0.2687    2.0831   -0.5324 C   0  0  0  0  0  0  0  0  0  0  0  0
    0.6252    3.0558   -0.9569 N   0  0  0  0  0  0  0  0  0  0  0  0
    0.4846    4.0762   -0.1466 C   0  0  0  0  0  0  0  0  0  0  0  0
    1.0595    4.9963   -0.2013 H   0  0  0  0  0  0  0  0  0  0  0  0
   -0.5103    3.8112    0.7751 N   0  0  0  0  0  0  0  0  0  0  0  0
   -0.8042    4.4422    1.5181 H   0  0  0  0  0  0  0  0  0  0  0  0
   -1.0077    2.5506    0.5201 C   0  0  0  0  0  0  0  0  0  0  0  0
   -1.8027    2.0279    1.0406 H   0  0  0  0  0  0  0  0  0  0  0  0
    0.5578   -0.3072    0.9422 C   0  0  0  0  0  0  0  0  0  0  0  0
    1.7772   -0.2231    1.0029 O   0  0  0  0  0  0  0  0  0  0  0  0
   -0.1915   -0.0050    2.0672 N   0  0  0  0  0  0  0  0  0  0  0  0
   -1.1757   -0.2433    2.0166 H   0  0  0  0  0  0  0  0  0  0  0  0
    0.4109    0.1862    3.3802 C   0  0  0  0  0  0  0  0  0  0  0  0
    1.1328    1.0094    3.3543 H   0  0  0  0  0  0  0  0  0  0  0  0
   -0.3593    0.4280    4.1186 H   0  0  0  0  0  0  0  0  0  0  0  0
    0.9267   -0.7254    3.7001 H   0  0  0  0  0  0  0  0  0  0  0  0
  1  2  1  0  0  0  0
  2  3  1  0  0  0  0
  2  4  1  0  0  0  0
  2  5  1  0  0  0  0
  5  6  2  0  0  0  0
  5  7  1  0  0  0  0
  7  8  1  0  0  0  0
  7  9  1  0  0  0  0
  9 10  1  0  0  0  0
  9 11  1  0  0  0  0
  9 22  1  0  0  0  0
 11 12  1  0  0  0  0
 11 13  1  0  0  0  0
 11 14  1  0  0  0  0
 14 15  1  0  0  0  0
 14 20  2  0  0  0  0
 15 16  2  0  0  0  0
 16 17  1  0  0  0  0
 16 18  1  0  0  0  0
 18 19  1  0  0  0  0
 18 20  1  0  0  0  0
 20 21  1  0  0  0  0
 22 23  2  0  0  0  0
 22 24  1  0  0  0  0
 24 25  1  0  0  0  0
 24 26  1  0  0  0  0
 26 27  1  0  0  0  0
 26 28  1  0  0  0  0
 26 29  1  0  0  0  0
M  END
$$$$

  -OEChem-04042215593D

 29 29  0     1  0  0  0  0  0999 V2000
   -2.4645   -4.5318    0.1570 H   0  0  0  0  0  0  0  0  0  0  0  0
   -2.6324   -3.5032   -0.1748 C   0  0  0  0  0  0  0  0  0  0  0  0
   -3.4551   -3.0769    0.4039 H   0  0  0  0  0  0  0  0  0  0  0  0
   -2.9067   -3.5170   -1.2323 H   0  0  0  0  0  0  0  0  0  0  0  0
   -1.3743   -2.6793    0.0251 C   0  0  0  0  0  0  0  0  0  0  0  0
   -0.3955   -3.1854    0.5413 O   0  0  0  0  0  0  0  0  0  0  0  0
   -1.3560   -1.3529   -0.3595 N   0  0  0  0  0  0  0  0  0  0  0  0
   -2.1731   -1.0219   -0.8626 H   0  0  0  0  0  0  0  0  0  0  0  0
   -0.1423   -0.5128   -0.3867 C   0  0  1  0  0  0  0  0  0  0  0  0
    0.5850   -1.0766   -0.9828 H   0  0  0  0  0  0  0  0  0  0  0  0
   -0.4133    0.7796   -1.2039 C   0  0  0  0  0  0  0  0  0  0  0  0
    0.2947    0.7832   -2.0389 H   0  0  0  0  0  0  0  0  0  0  0  0
   -1.4126    0.7439   -1.6446 H   0  0  0  0  0  0  0  0  0  0  0  0
   -0.2668    2.1120   -0.5152 C   0  0  0  0  0  0  0  0  0  0  0  0
    0.4025    3.1653   -1.1246 N   0  0  0  0  0  0  0  0  0  0  0  0
    0.3177    4.1910   -0.3135 C   0  0  0  0  0  0  0  0  0  0  0  0
    0.7600    5.1662   -0.4964 H   0  0  0  0  0  0  0  0  0  0  0  0
   -0.4295    3.8501    0.7964 N   0  0  0  0  0  0  0  0  0  0  0  0
   -0.6391    4.4707    1.5757 H   0  0  0  0  0  0  0  0  0  0  0  0
   -0.8244    2.5362    0.6610 C   0  0  0  0  0  0  0  0  0  0  0  0
   -1.4456    1.9590    1.3362 H   0  0  0  0  0  0  0  0  0  0  0  0
    0.5671   -0.3495    0.9818 C   0  0  0  0  0  0  0  0  0  0  0  0
    1.7843   -0.2286    1.0223 O   0  0  0  0  0  0  0  0  0  0  0  0
   -0.1672   -0.0883    2.1265 N   0  0  0  0  0  0  0  0  0  0  0  0
   -1.1419   -0.3670    2.0902 H   0  0  0  0  0  0  0  0  0  0  0  0
    0.4565    0.0763    3.4336 C   0  0  0  0  0  0  0  0  0  0  0  0
    1.1705    0.9066    3.4166 H   0  0  0  0  0  0  0  0  0  0  0  0
   -0.3032    0.2927    4.1904 H   0  0  0  0  0  0  0  0  0  0  0  0
    0.9860   -0.8379    3.7219 H   0  0  0  0  0  0  0  0  0  0  0  0
  1  2  1  0  0  0  0
  2  3  1  0  0  0  0
  2  4  1  0  0  0  0
  2  5  1  0  0  0  0
  5  6  2  0  0  0  0
  5  7  1  0  0  0  0
  7  8  1  0  0  0  0
  7  9  1  0  0  0  0
  9 10  1  0  0  0  0
  9 11  1  0  0  0  0
  9 22  1  0  0  0  0
 11 12  1  0  0  0  0
 11 13  1  0  0  0  0
 11 14  1  0  0  0  0
 14 15  1  0  0  0  0
 14 20  2  0  0  0  0
 15 16  2  0  0  0  0
 16 17  1  0  0  0  0
 16 18  1  0  0  0  0
 18 19  1  0  0  0  0
 18 20  1  0  0  0  0
 20 21  1  0  0  0  0
 22 23  2  0  0  0  0
 22 24  1  0  0  0  0
 24 25  1  0  0  0  0
 24 26  1  0  0  0  0
 26 27  1  0  0  0  0
 26 28  1  0  0  0  0
 26 29  1  0  0  0  0
M  END
$$$$

  -OEChem-04042215593D

 29 29  0     1  0  0  0  0  0999 V2000
   -2.4818   -4.5338    0.0802 H   0  0  0  0  0  0  0  0  0  0  0  0
   -2.6476   -3.4943   -0.2174 C   0  0  0  0  0  0  0  0  0  0  0  0
   -3.4625   -3.0825    0.3825 H   0  0  0  0  0  0  0  0  0  0  0  0
   -2.9322   -3.4732   -1.2721 H   0  0  0  0  0  0  0  0  0  0  0  0
   -1.3830   -2.6836   -0.0044 C   0  0  0  0  0  0  0  0  0  0  0  0
   -0.3979   -3.2131    0.4754 O   0  0  0  0  0  0  0  0  0  0  0  0
   -1.3644   -1.3426   -0.3349 N   0  0  0  0  0  0  0  0  0  0  0  0
   -2.1921   -0.9834   -0.8004 H   0  0  0  0  0  0  0  0  0  0  0  0
   -0.1500   -0.5034   -0.3398 C   0  0  1  0  0  0  0  0  0  0  0  0
    0.5698   -1.0656   -0.9469 H   0  0  0  0  0  0  0  0  0  0  0  0
   -0.3969    0.7978   -1.1524 C   0  0  0  0  0  0  0  0  0  0  0  0
    0.3358    0.7925   -1.9657 H   0  0  0  0  0  0  0  0  0  0  0  0
   -1.3815    0.7590   -1.6248 H   0  0  0  0  0  0  0  0  0  0  0  0
   -0.2671    2.1527   -0.4995 C   0  0  0  0  0  0  0  0  0  0  0  0
    0.1321    3.2394   -1.2693 N   0  0  0  0  0  0  0  0  0  0  0  0
    0.1302    4.2901   -0.4867 C   0  0  0  0  0  0  0  0  0  0  0  0
    0.4131    5.2936   -0.7914 H   0  0  0  0  0  0  0  0  0  0  0  0
   -0.2983    3.9306    0.7743 N   0  0  0  0  0  0  0  0  0  0  0  0
   -0.3856    4.5629    1.5674 H   0  0  0  0  0  0  0  0  0  0  0  0
   -0.5730    2.5798    0.7660 C   0  0  0  0  0  0  0  0  0  0  0  0
   -0.9635    1.9929    1.5870 H   0  0  0  0  0  0  0  0  0  0  0  0
    0.5720   -0.3966    1.0263 C   0  0  0  0  0  0  0  0  0  0  0  0
    1.7876   -0.2581    1.0570 O   0  0  0  0  0  0  0  0  0  0  0  0
   -0.1499   -0.1824    2.1885 N   0  0  0  0  0  0  0  0  0  0  0  0
   -1.1238   -0.4655    2.1510 H   0  0  0  0  0  0  0  0  0  0  0  0
    0.4884   -0.0800    3.4952 C   0  0  0  0  0  0  0  0  0  0  0  0
    1.2062    0.7470    3.5092 H   0  0  0  0  0  0  0  0  0  0  0  0
   -0.2618    0.1047    4.2697 H   0  0  0  0  0  0  0  0  0  0  0  0
    1.0166   -1.0087    3.7356 H   0  0  0  0  0  0  0  0  0  0  0  0
  1  2  1  0  0  0  0
  2  3  1  0  0  0  0
  2  4  1  0  0  0  0
  2  5  1  0  0  0  0
  5  6  2  0  0  0  0
  5  7  1  0  0  0  0
  7  8  1  0  0  0  0
  7  9  1  0  0  0  0
  9 10  1  0  0  0  0
  9 11  1  0  0  0  0
  9 22  1  0  0  0  0
 11 12  1  0  0  0  0
 11 13  1  0  0  0  0
 11 14  1  0  0  0  0
 14 15  1  0  0  0  0
 14 20  2  0  0  0  0
 15 16  2  0  0  0  0
 16 17  1  0  0  0  0
 16 18  1  0  0  0  0
 18 19  1  0  0  0  0
 18 20  1  0  0  0  0
 20 21  1  0  0  0  0
 22 23  2  0  0  0  0
 22 24  1  0  0  0  0
 24 25  1  0  0  0  0
 24 26  1  0  0  0  0
 26 27  1  0  0  0  0
 26 28  1  0  0  0  0
 26 29  1  0  0  0  0
M  END
$$$$

  -OEChem-04042215593D

 29 29  0     1  0  0  0  0  0999 V2000
   -2.5074   -4.5184    0.0881 H   0  0  0  0  0  0  0  0  0  0  0  0
   -2.6640   -3.4750   -0.2006 C   0  0  0  0  0  0  0  0  0  0  0  0
   -3.4566   -3.0537    0.4221 H   0  0  0  0  0  0  0  0  0  0  0  0
   -2.9757   -3.4443   -1.2474 H   0  0  0  0  0  0  0  0  0  0  0  0
   -1.3820   -2.6849   -0.0160 C   0  0  0  0  0  0  0  0  0  0  0  0
   -0.3883   -3.2366    0.4193 O   0  0  0  0  0  0  0  0  0  0  0  0
   -1.3563   -1.3388   -0.3246 N   0  0  0  0  0  0  0  0  0  0  0  0
   -2.1955   -0.9589   -0.7517 H   0  0  0  0  0  0  0  0  0  0  0  0
   -0.1383   -0.5035   -0.3332 C   0  0  1  0  0  0  0  0  0  0  0  0
    0.5773   -1.0467   -0.9619 H   0  0  0  0  0  0  0  0  0  0  0  0
   -0.4143    0.8183   -1.1056 C   0  0  0  0  0  0  0  0  0  0  0  0
    0.2897    0.8258   -1.9438 H   0  0  0  0  0  0  0  0  0  0  0  0
   -1.4137    0.7732   -1.5461 H   0  0  0  0  0  0  0  0  0  0  0  0
   -0.2857    2.1864   -0.4716 C   0  0  0  0  0  0  0  0  0  0  0  0
   -0.2452    3.2781   -1.3333 N   0  0  0  0  0  0  0  0  0  0  0  0
   -0.1055    4.3544   -0.5998 C   0  0  0  0  0  0  0  0  0  0  0  0
   -0.0329    5.3674   -0.9854 H   0  0  0  0  0  0  0  0  0  0  0  0
   -0.0676    4.0043    0.7325 N   0  0  0  0  0  0  0  0  0  0  0  0
    0.0613    4.6527    1.5070 H   0  0  0  0  0  0  0  0  0  0  0  0
   -0.1793    2.6332    0.8210 C   0  0  0  0  0  0  0  0  0  0  0  0
   -0.1626    2.0542    1.7331 H   0  0  0  0  0  0  0  0  0  0  0  0
    0.5765   -0.4425    1.0376 C   0  0  0  0  0  0  0  0  0  0  0  0
    1.7915   -0.3030    1.0832 O   0  0  0  0  0  0  0  0  0  0  0  0
   -0.1571   -0.2549    2.1976 N   0  0  0  0  0  0  0  0  0  0  0  0
   -1.1408   -0.4971    2.1337 H   0  0  0  0  0  0  0  0  0  0  0  0
    0.4628   -0.2254    3.5171 C   0  0  0  0  0  0  0  0  0  0  0  0
    1.2008    0.5813    3.5782 H   0  0  0  0  0  0  0  0  0  0  0  0
   -0.2952   -0.0557    4.2877 H   0  0  0  0  0  0  0  0  0  0  0  0
    0.9637   -1.1770    3.7243 H   0  0  0  0  0  0  0  0  0  0  0  0
  1  2  1  0  0  0  0
  2  3  1  0  0  0  0
  2  4  1  0  0  0  0
  2  5  1  0  0  0  0
  5  6  2  0  0  0  0
  5  7  1  0  0  0  0
  7  8  1  0  0  0  0
  7  9  1  0  0  0  0
  9 10  1  0  0  0  0
  9 11  1  0  0  0  0
  9 22  1  0  0  0  0
 11 12  1  0  0  0  0
 11 13  1  0  0  0  0
 11 14  1  0  0  0  0
 14 15  1  0  0  0  0
 14 20  2  0  0  0  0
 15 16  2  0  0  0  0
 16 17  1  0  0  0  0
 16 18  1  0  0  0  0
 18 19  1  0  0  0  0
 18 20  1  0  0  0  0
 20 21  1  0  0  0  0
 22 23  2  0  0  0  0
 22 24  1  0  0  0  0
 24 25  1  0  0  0  0
 24 26  1  0  0  0  0
 26 27  1  0  0  0  0
 26 28  1  0  0  0  0
 26 29  1  0  0  0  0
M  END
$$$$

  -OEChem-04042215593D

 29 29  0     1  0  0  0  0  0999 V2000
   -2.6423   -4.4066    0.1953 H   0  0  0  0  0  0  0  0  0  0  0  0
   -2.7316   -3.3732   -0.1522 C   0  0  0  0  0  0  0  0  0  0  0  0
   -3.5039   -2.8707    0.4350 H   0  0  0  0  0  0  0  0  0  0  0  0
   -3.0289   -3.3818   -1.2037 H   0  0  0  0  0  0  0  0  0  0  0  0
   -1.4054   -2.6533    0.0078 C   0  0  0  0  0  0  0  0  0  0  0  0
   -0.4540   -3.2411    0.4877 O   0  0  0  0  0  0  0  0  0  0  0  0
   -1.2887   -1.3364   -0.3941 N   0  0  0  0  0  0  0  0  0  0  0  0
   -2.0926   -0.9380   -0.8694 H   0  0  0  0  0  0  0  0  0  0  0  0
   -0.0254   -0.5687   -0.4029 C   0  0  1  0  0  0  0  0  0  0  0  0
    0.7075   -1.1136   -1.0086 H   0  0  0  0  0  0  0  0  0  0  0  0
   -0.3223    0.7780   -1.1287 C   0  0  0  0  0  0  0  0  0  0  0  0
    0.0692    0.6845   -2.1459 H   0  0  0  0  0  0  0  0  0  0  0  0
   -1.4059    0.8910   -1.2220 H   0  0  0  0  0  0  0  0  0  0  0  0
    0.1587    2.1166   -0.6042 C   0  0  0  0  0  0  0  0  0  0  0  0
   -0.1815    3.2387   -1.3535 N   0  0  0  0  0  0  0  0  0  0  0  0
    0.3602    4.2803   -0.7712 C   0  0  0  0  0  0  0  0  0  0  0  0
    0.2757    5.3048   -1.1222 H   0  0  0  0  0  0  0  0  0  0  0  0
    1.0545    3.8762    0.3485 N   0  0  0  0  0  0  0  0  0  0  0  0
    1.5945    4.4863    0.9593 H   0  0  0  0  0  0  0  0  0  0  0  0
    0.9418    2.5070    0.4545 C   0  0  0  0  0  0  0  0  0  0  0  0
    1.4127    1.8868    1.2094 H   0  0  0  0  0  0  0  0  0  0  0  0
    0.5917   -0.4699    1.0109 C   0  0  0  0  0  0  0  0  0  0  0  0
    1.8071   -0.5146    1.1572 O   0  0  0  0  0  0  0  0  0  0  0  0
   -0.2082   -0.1652    2.0992 N   0  0  0  0  0  0  0  0  0  0  0  0
   -1.2097   -0.2347    1.9513 H   0  0  0  0  0  0  0  0  0  0  0  0
    0.2957   -0.1235    3.4658 C   0  0  0  0  0  0  0  0  0  0  0  0
    1.1043    0.6094    3.5558 H   0  0  0  0  0  0  0  0  0  0  0  0
   -0.5051    0.1620    4.1545 H   0  0  0  0  0  0  0  0  0  0  0  0
    0.6766   -1.1065    3.7624 H   0  0  0  0  0  0  0  0  0  0  0  0
  1  2  1  0  0  0  0
  2  3  1  0  0  0  0
  2  4  1  0  0  0  0
  2  5  1  0  0  0  0
  5  6  2  0  0  0  0
  5  7  1  0  0  0  0
  7  8  1  0  0  0  0
  7  9  1  0  0  0  0
  9 10  1  0  0  0  0
  9 11  1  0  0  0  0
  9 22  1  0  0  0  0
 11 12  1  0  0  0  0
 11 13  1  0  0  0  0
 11 14  1  0  0  0  0
 14 15  1  0  0  0  0
 14 20  2  0  0  0  0
 15 16  2  0  0  0  0
 16 17  1  0  0  0  0
 16 18  1  0  0  0  0
 18 19  1  0  0  0  0
 18 20  1  0  0  0  0
 20 21  1  0  0  0  0
 22 23  2  0  0  0  0
 22 24  1  0  0  0  0
 24 25  1  0  0  0  0
 24 26  1  0  0  0  0
 26 27  1  0  0  0  0
 26 28  1  0  0  0  0
 26 29  1  0  0  0  0
M  END
$$$$

  -OEChem-04042215593D

 29 29  0     1  0  0  0  0  0999 V2000
   -2.6431   -4.3869    0.2671 H   0  0  0  0  0  0  0  0  0  0  0  0
   -2.7311   -3.3546   -0.0839 C   0  0  0  0  0  0  0  0  0  0  0  0
   -3.4656   -2.8347    0.5357 H   0  0  0  0  0  0  0  0  0  0  0  0
   -3.0781   -3.3655   -1.1198 H   0  0  0  0  0  0  0  0  0  0  0  0
   -1.3867   -2.6570    0.0076 C   0  0  0  0  0  0  0  0  0  0  0  0
   -0.4267   -3.2541    0.4579 O   0  0  0  0  0  0  0  0  0  0  0  0
   -1.2632   -1.3491   -0.4201 N   0  0  0  0  0  0  0  0  0  0  0  0
   -2.0819   -0.9339   -0.8541 H   0  0  0  0  0  0  0  0  0  0  0  0
    0.0010   -0.5830   -0.4334 C   0  0  1  0  0  0  0  0  0  0  0  0
    0.7405   -1.1285   -1.0309 H   0  0  0  0  0  0  0  0  0  0  0  0
   -0.3082    0.7588   -1.1626 C   0  0  0  0  0  0  0  0  0  0  0  0
    0.0678    0.6728   -2.1861 H   0  0  0  0  0  0  0  0  0  0  0  0
   -1.3938    0.8698   -1.2390 H   0  0  0  0  0  0  0  0  0  0  0  0
    0.1790    2.0879   -0.6250 C   0  0  0  0  0  0  0  0  0  0  0  0
   -0.3980    3.2444   -1.1398 N   0  0  0  0  0  0  0  0  0  0  0  0
    0.2099    4.2645   -0.5847 C   0  0  0  0  0  0  0  0  0  0  0  0
   -0.0183    5.3082   -0.7821 H   0  0  0  0  0  0  0  0  0  0  0  0
    1.1847    3.8114    0.2785 N   0  0  0  0  0  0  0  0  0  0  0  0
    1.8177    4.4012    0.8156 H   0  0  0  0  0  0  0  0  0  0  0  0
    1.1853    2.4340    0.2415 C   0  0  0  0  0  0  0  0  0  0  0  0
    1.8714    1.7774    0.7663 H   0  0  0  0  0  0  0  0  0  0  0  0
    0.6007   -0.4589    0.9876 C   0  0  0  0  0  0  0  0  0  0  0  0
    1.8089   -0.5672    1.1591 O   0  0  0  0  0  0  0  0  0  0  0  0
   -0.2084   -0.1317    2.0617 N   0  0  0  0  0  0  0  0  0  0  0  0
   -1.2091   -0.1340    1.8942 H   0  0  0  0  0  0  0  0  0  0  0  0
    0.2765   -0.0747    3.4343 C   0  0  0  0  0  0  0  0  0  0  0  0
    1.0837    0.6597    3.5261 H   0  0  0  0  0  0  0  0  0  0  0  0
   -0.5332    0.2184    4.1092 H   0  0  0  0  0  0  0  0  0  0  0  0
    0.6526   -1.0548    3.7466 H   0  0  0  0  0  0  0  0  0  0  0  0
  1  2  1  0  0  0  0
  2  3  1  0  0  0  0
  2  4  1  0  0  0  0
  2  5  1  0  0  0  0
  5  6  2  0  0  0  0
  5  7  1  0  0  0  0
  7  8  1  0  0  0  0
  7  9  1  0  0  0  0
  9 10  1  0  0  0  0
  9 11  1  0  0  0  0
  9 22  1  0  0  0  0
 11 12  1  0  0  0  0
 11 13  1  0  0  0  0
 11 14  1  0  0  0  0
 14 15  1  0  0  0  0
 14 20  2  0  0  0  0
 15 16  2  0  0  0  0
 16 17  1  0  0  0  0
 16 18  1  0  0  0  0
 18 19  1  0  0  0  0
 18 20  1  0  0  0  0
 20 21  1  0  0  0  0
 22 23  2  0  0  0  0
 22 24  1  0  0  0  0
 24 25  1  0  0  0  0
 24 26  1  0  0  0  0
 26 27  1  0  0  0  0
 26 28  1  0  0  0  0
 26 29  1  0  0  0  0
M  END
$$$$

  -OEChem-04042215593D

 29 29  0     1  0  0  0  0  0999 V2000
   -2.6239   -4.3900    0.3186 H   0  0  0  0  0  0  0  0  0  0  0  0
   -2.7176   -3.3632   -0.0467 C   0  0  0  0  0  0  0  0  0  0  0  0
   -3.4423   -2.8334    0.5763 H   0  0  0  0  0  0  0  0  0  0  0  0
   -3.0812   -3.3895   -1.0768 H   0  0  0  0  0  0  0  0  0  0  0  0
   -1.3722   -2.6642    0.0124 C   0  0  0  0  0  0  0  0  0  0  0  0
   -0.4032   -3.2543    0.4527 O   0  0  0  0  0  0  0  0  0  0  0  0
   -1.2567   -1.3645   -0.4409 N   0  0  0  0  0  0  0  0  0  0  0  0
   -2.0870   -0.9491   -0.8518 H   0  0  0  0  0  0  0  0  0  0  0  0
    0.0007   -0.5891   -0.4622 C   0  0  1  0  0  0  0  0  0  0  0  0
    0.7467   -1.1352   -1.0503 H   0  0  0  0  0  0  0  0  0  0  0  0
   -0.3207    0.7427   -1.2009 C   0  0  0  0  0  0  0  0  0  0  0  0
    0.0534    0.6627   -2.2255 H   0  0  0  0  0  0  0  0  0  0  0  0
   -1.4066    0.8532   -1.2726 H   0  0  0  0  0  0  0  0  0  0  0  0
    0.1778    2.0522   -0.6362 C   0  0  0  0  0  0  0  0  0  0  0  0
   -0.5510    3.2168   -0.8498 N   0  0  0  0  0  0  0  0  0  0  0  0
    0.1412    4.2021   -0.3303 C   0  0  0  0  0  0  0  0  0  0  0  0
   -0.1654    5.2442   -0.3293 H   0  0  0  0  0  0  0  0  0  0  0  0
    1.3179    3.7180    0.2033 N   0  0  0  0  0  0  0  0  0  0  0  0
    2.0413    4.2814    0.6466 H   0  0  0  0  0  0  0  0  0  0  0  0
    1.3582    2.3577   -0.0111 C   0  0  0  0  0  0  0  0  0  0  0  0
    2.1680    1.6765    0.2363 H   0  0  0  0  0  0  0  0  0  0  0  0
    0.5950   -0.4285    0.9596 C   0  0  0  0  0  0  0  0  0  0  0  0
    1.8031   -0.5284    1.1384 O   0  0  0  0  0  0  0  0  0  0  0  0
   -0.2199   -0.0846    2.0238 N   0  0  0  0  0  0  0  0  0  0  0  0
   -1.2182   -0.0520    1.8467 H   0  0  0  0  0  0  0  0  0  0  0  0
    0.2633    0.0394    3.3924 C   0  0  0  0  0  0  0  0  0  0  0  0
    1.0374    0.8112    3.4577 H   0  0  0  0  0  0  0  0  0  0  0  0
   -0.5580    0.3173    4.0595 H   0  0  0  0  0  0  0  0  0  0  0  0
    0.6831   -0.9121    3.7356 H   0  0  0  0  0  0  0  0  0  0  0  0
  1  2  1  0  0  0  0
  2  3  1  0  0  0  0
  2  4  1  0  0  0  0
  2  5  1  0  0  0  0
  5  6  2  0  0  0  0
  5  7  1  0  0  0  0
  7  8  1  0  0  0  0
  7  9  1  0  0  0  0
  9 10  1  0  0  0  0
  9 11  1  0  0  0  0
  9 22  1  0  0  0  0
 11 12  1  0  0  0  0
 11 13  1  0  0  0  0
 11 14  1  0  0  0  0
 14 15  1  0  0  0  0
 14 20  2  0  0  0  0
 15 16  2  0  0  0  0
 16 17  1  0  0  0  0
 16 18  1  0  0  0  0
 18 19  1  0  0  0  0
 18 20  1  0  0  0  0
 20 21  1  0  0  0  0
 22 23  2  0  0  0  0
 22 24  1  0  0  0  0
 24 25  1  0  0  0  0
 24 26  1  0  0  0  0
 26 27  1  0  0  0  0
 26 28  1  0  0  0  0
 26 29  1  0  0  0  0
M  END
$$$$

  -OEChem-04042215593D

 29 29  0     1  0  0  0  0  0999 V2000
   -2.5896   -4.4028    0.3630 H   0  0  0  0  0  0  0  0  0  0  0  0
   -2.6974   -3.3838   -0.0199 C   0  0  0  0  0  0  0  0  0  0  0  0
   -3.4126   -2.8468    0.6077 H   0  0  0  0  0  0  0  0  0  0  0  0
   -3.0814   -3.4316   -1.0416 H   0  0  0  0  0  0  0  0  0  0  0  0
   -1.3556   -2.6757   -0.0017 C   0  0  0  0  0  0  0  0  0  0  0  0
   -0.3708   -3.2562    0.4162 O   0  0  0  0  0  0  0  0  0  0  0  0
   -1.2592   -1.3794   -0.4686 N   0  0  0  0  0  0  0  0  0  0  0  0
   -2.1065   -0.9607   -0.8392 H   0  0  0  0  0  0  0  0  0  0  0  0
   -0.0124   -0.5890   -0.4953 C   0  0  1  0  0  0  0  0  0  0  0  0
    0.7386   -1.1357   -1.0767 H   0  0  0  0  0  0  0  0  0  0  0  0
   -0.3360    0.7316   -1.2485 C   0  0  0  0  0  0  0  0  0  0  0  0
    0.0573    0.6547   -2.2660 H   0  0  0  0  0  0  0  0  0  0  0  0
   -1.4206    0.8441   -1.3384 H   0  0  0  0  0  0  0  0  0  0  0  0
    0.1721    2.0191   -0.6524 C   0  0  0  0  0  0  0  0  0  0  0  0
   -0.6366    3.1448   -0.5548 N   0  0  0  0  0  0  0  0  0  0  0  0
    0.1137    4.1034   -0.0645 C   0  0  0  0  0  0  0  0  0  0  0  0
   -0.2259    5.1149    0.1395 H   0  0  0  0  0  0  0  0  0  0  0  0
    1.3971    3.6384    0.1447 N   0  0  0  0  0  0  0  0  0  0  0  0
    2.1715    4.1859    0.5156 H   0  0  0  0  0  0  0  0  0  0  0  0
    1.4437    2.3186   -0.2465 C   0  0  0  0  0  0  0  0  0  0  0  0
    2.2993    1.6469   -0.2378 H   0  0  0  0  0  0  0  0  0  0  0  0
    0.5891   -0.3980    0.9212 C   0  0  0  0  0  0  0  0  0  0  0  0
    1.8020   -0.4549    1.0872 O   0  0  0  0  0  0  0  0  0  0  0  0
   -0.2240   -0.0489    1.9851 N   0  0  0  0  0  0  0  0  0  0  0  0
   -1.2213    0.0042    1.8075 H   0  0  0  0  0  0  0  0  0  0  0  0
    0.2716    0.1743    3.3363 C   0  0  0  0  0  0  0  0  0  0  0  0
    1.0116    0.9812    3.3445 H   0  0  0  0  0  0  0  0  0  0  0  0
   -0.5523    0.4546    3.9994 H   0  0  0  0  0  0  0  0  0  0  0  0
    0.7373   -0.7364    3.7274 H   0  0  0  0  0  0  0  0  0  0  0  0
  1  2  1  0  0  0  0
  2  3  1  0  0  0  0
  2  4  1  0  0  0  0
  2  5  1  0  0  0  0
  5  6  2  0  0  0  0
  5  7  1  0  0  0  0
  7  8  1  0  0  0  0
  7  9  1  0  0  0  0
  9 10  1  0  0  0  0
  9 11  1  0  0  0  0
  9 22  1  0  0  0  0
 11 12  1  0  0  0  0
 11 13  1  0  0  0  0
 11 14  1  0  0  0  0
 14 15  1  0  0  0  0
 14 20  2  0  0  0  0
 15 16  2  0  0  0  0
 16 17  1  0  0  0  0
 16 18  1  0  0  0  0
 18 19  1  0  0  0  0
 18 20  1  0  0  0  0
 20 21  1  0  0  0  0
 22 23  2  0  0  0  0
 22 24  1  0  0  0  0
 24 25  1  0  0  0  0
 24 26  1  0  0  0  0
 26 27  1  0  0  0  0
 26 28  1  0  0  0  0
 26 29  1  0  0  0  0
M  END
$$$$

  -OEChem-04042215593D

 29 29  0     1  0  0  0  0  0999 V2000
   -2.5714   -4.4148    0.3844 H   0  0  0  0  0  0  0  0  0  0  0  0
   -2.6907   -3.4000   -0.0060 C   0  0  0  0  0  0  0  0  0  0  0  0
   -3.3950   -2.8591    0.6305 H   0  0  0  0  0  0  0  0  0  0  0  0
   -3.0948   -3.4596   -1.0193 H   0  0  0  0  0  0  0  0  0  0  0  0
   -1.3512   -2.6878   -0.0216 C   0  0  0  0  0  0  0  0  0  0  0  0
   -0.3539   -3.2654    0.3705 O   0  0  0  0  0  0  0  0  0  0  0  0
   -1.2680   -1.3934   -0.4954 N   0  0  0  0  0  0  0  0  0  0  0  0
   -2.1290   -0.9661   -0.8216 H   0  0  0  0  0  0  0  0  0  0  0  0
   -0.0281   -0.5942   -0.5236 C   0  0  1  0  0  0  0  0  0  0  0  0
    0.7242   -1.1444   -1.0998 H   0  0  0  0  0  0  0  0  0  0  0  0
   -0.3460    0.7178   -1.2888 C   0  0  0  0  0  0  0  0  0  0  0  0
    0.0710    0.6392   -2.2965 H   0  0  0  0  0  0  0  0  0  0  0  0
   -1.4276    0.8361   -1.4015 H   0  0  0  0  0  0  0  0  0  0  0  0
    0.1711    1.9853   -0.6653 C   0  0  0  0  0  0  0  0  0  0  0  0
   -0.6698    3.0183   -0.2717 N   0  0  0  0  0  0  0  0  0  0  0  0
    0.1076    3.9695    0.1909 C   0  0  0  0  0  0  0  0  0  0  0  0
   -0.2424    4.9180    0.5884 H   0  0  0  0  0  0  0  0  0  0  0  0
    1.4325    3.5892    0.0942 N   0  0  0  0  0  0  0  0  0  0  0  0
    2.2300    4.1432    0.4008 H   0  0  0  0  0  0  0  0  0  0  0  0
    1.4782    2.3296   -0.4621 C   0  0  0  0  0  0  0  0  0  0  0  0
    2.3514    1.7171   -0.6747 H   0  0  0  0  0  0  0  0  0  0  0  0
    0.5845   -0.3813    0.8850 C   0  0  0  0  0  0  0  0  0  0  0  0
    1.8012   -0.4004    1.0324 O   0  0  0  0  0  0  0  0  0  0  0  0
   -0.2221   -0.0274    1.9522 N   0  0  0  0  0  0  0  0  0  0  0  0
   -1.2133    0.0829    1.7657 H   0  0  0  0  0  0  0  0  0  0  0  0
    0.2956    0.3134    3.2698 C   0  0  0  0  0  0  0  0  0  0  0  0
    0.9293    1.2042    3.2118 H   0  0  0  0  0  0  0  0  0  0  0  0
   -0.5295    0.5177    3.9586 H   0  0  0  0  0  0  0  0  0  0  0  0
    0.8861   -0.5154    3.6744 H   0  0  0  0  0  0  0  0  0  0  0  0
  1  2  1  0  0  0  0
  2  3  1  0  0  0  0
  2  4  1  0  0  0  0
  2  5  1  0  0  0  0
  5  6  2  0  0  0  0
  5  7  1  0  0  0  0
  7  8  1  0  0  0  0
  7  9  1  0  0  0  0
  9 10  1  0  0  0  0
  9 11  1  0  0  0  0
  9 22  1  0  0  0  0
 11 12  1  0  0  0  0
 11 13  1  0  0  0  0
 11 14  1  0  0  0  0
 14 15  1  0  0  0  0
 14 20  2  0  0  0  0
 15 16  2  0  0  0  0
 16 17  1  0  0  0  0
 16 18  1  0  0  0  0
 18 19  1  0  0  0  0
 18 20  1  0  0  0  0
 20 21  1  0  0  0  0
 22 23  2  0  0  0  0
 22 24  1  0  0  0  0
 24 25  1  0  0  0  0
 24 26  1  0  0  0  0
 26 27  1  0  0  0  0
 26 28  1  0  0  0  0
 26 29  1  0  0  0  0
M  END
$$$$

  -OEChem-04042215593D

 29 29  0     1  0  0  0  0  0999 V2000
   -2.5566   -4.4188    0.4006 H   0  0  0  0  0  0  0  0  0  0  0  0
   -2.6830   -3.4026    0.0161 C   0  0  0  0  0  0  0  0  0  0  0  0
   -3.3596   -2.8579    0.6789 H   0  0  0  0  0  0  0  0  0  0  0  0
   -3.1245   -3.4572   -0.9818 H   0  0  0  0  0  0  0  0  0  0  0  0
   -1.3406   -2.6989   -0.0488 C   0  0  0  0  0  0  0  0  0  0  0  0
   -0.3317   -3.2836    0.3015 O   0  0  0  0  0  0  0  0  0  0  0  0
   -1.2689   -1.4047   -0.5243 N   0  0  0  0  0  0  0  0  0  0  0  0
   -2.1443   -0.9613   -0.7836 H   0  0  0  0  0  0  0  0  0  0  0  0
   -0.0351   -0.5973   -0.5478 C   0  0  1  0  0  0  0  0  0  0  0  0
    0.7212   -1.1478   -1.1187 H   0  0  0  0  0  0  0  0  0  0  0  0
   -0.3503    0.7080   -1.3226 C   0  0  0  0  0  0  0  0  0  0  0  0
    0.0857    0.6290   -2.3225 H   0  0  0  0  0  0  0  0  0  0  0  0
   -1.4296    0.8292   -1.4527 H   0  0  0  0  0  0  0  0  0  0  0  0
    0.1672    1.9605   -0.6757 C   0  0  0  0  0  0  0  0  0  0  0  0
   -0.6567    2.8557   -0.0065 N   0  0  0  0  0  0  0  0  0  0  0  0
    0.1251    3.8223    0.4155 C   0  0  0  0  0  0  0  0  0  0  0  0
   -0.2079    4.6842    0.9866 H   0  0  0  0  0  0  0  0  0  0  0  0
    1.4298    3.5853    0.0256 N   0  0  0  0  0  0  0  0  0  0  0  0
    2.2295    4.1739    0.2519 H   0  0  0  0  0  0  0  0  0  0  0  0
    1.4599    2.4010   -0.6778 C   0  0  0  0  0  0  0  0  0  0  0  0
    2.3174    1.8960   -1.1141 H   0  0  0  0  0  0  0  0  0  0  0  0
    0.5806   -0.3712    0.8581 C   0  0  0  0  0  0  0  0  0  0  0  0
    1.7984   -0.3706    0.9973 O   0  0  0  0  0  0  0  0  0  0  0  0
   -0.2256   -0.0171    1.9260 N   0  0  0  0  0  0  0  0  0  0  0  0
   -1.2002    0.1693    1.7140 H   0  0  0  0  0  0  0  0  0  0  0  0
    0.3050    0.4090    3.2135 C   0  0  0  0  0  0  0  0  0  0  0  0
    0.8648    1.3436    3.1045 H   0  0  0  0  0  0  0  0  0  0  0  0
   -0.5119    0.5718    3.9226 H   0  0  0  0  0  0  0  0  0  0  0  0
    0.9708   -0.3563    3.6262 H   0  0  0  0  0  0  0  0  0  0  0  0
  1  2  1  0  0  0  0
  2  3  1  0  0  0  0
  2  4  1  0  0  0  0
  2  5  1  0  0  0  0
  5  6  2  0  0  0  0
  5  7  1  0  0  0  0
  7  8  1  0  0  0  0
  7  9  1  0  0  0  0
  9 10  1  0  0  0  0
  9 11  1  0  0  0  0
  9 22  1  0  0  0  0
 11 12  1  0  0  0  0
 11 13  1  0  0  0  0
 11 14  1  0  0  0  0
 14 15  1  0  0  0  0
 14 20  2  0  0  0  0
 15 16  2  0  0  0  0
 16 17  1  0  0  0  0
 16 18  1  0  0  0  0
 18 19  1  0  0  0  0
 18 20  1  0  0  0  0
 20 21  1  0  0  0  0
 22 23  2  0  0  0  0
 22 24  1  0  0  0  0
 24 25  1  0  0  0  0
 24 26  1  0  0  0  0
 26 27  1  0  0  0  0
 26 28  1  0  0  0  0
 26 29  1  0  0  0  0
M  END
$$$$

  -OEChem-04042215593D

 29 29  0     1  0  0  0  0  0999 V2000
   -2.5432   -4.4112    0.4207 H   0  0  0  0  0  0  0  0  0  0  0  0
   -2.6767   -3.3939    0.0420 C   0  0  0  0  0  0  0  0  0  0  0  0
   -3.3239   -2.8450    0.7300 H   0  0  0  0  0  0  0  0  0  0  0  0
   -3.1554   -3.4443   -0.9388 H   0  0  0  0  0  0  0  0  0  0  0  0
   -1.3325   -2.7000   -0.0714 C   0  0  0  0  0  0  0  0  0  0  0  0
   -0.3155   -3.2938    0.2384 O   0  0  0  0  0  0  0  0  0  0  0  0
   -1.2694   -1.4045   -0.5445 N   0  0  0  0  0  0  0  0  0  0  0  0
   -2.1536   -0.9454   -0.7376 H   0  0  0  0  0  0  0  0  0  0  0  0
   -0.0394   -0.5917   -0.5583 C   0  0  1  0  0  0  0  0  0  0  0  0
    0.7211   -1.1475   -1.1189 H   0  0  0  0  0  0  0  0  0  0  0  0
   -0.3416    0.7025   -1.3544 C   0  0  0  0  0  0  0  0  0  0  0  0
    0.1151    0.6111   -2.3440 H   0  0  0  0  0  0  0  0  0  0  0  0
   -1.4179    0.8230   -1.5062 H   0  0  0  0  0  0  0  0  0  0  0  0
    0.1648    1.9563   -0.7048 C   0  0  0  0  0  0  0  0  0  0  0  0
   -0.5966    2.6969    0.1905 N   0  0  0  0  0  0  0  0  0  0  0  0
    0.1605    3.7029    0.5620 C   0  0  0  0  0  0  0  0  0  0  0  0
   -0.1339    4.4704    1.2720 H   0  0  0  0  0  0  0  0  0  0  0  0
    1.3825    3.6444   -0.0818 N   0  0  0  0  0  0  0  0  0  0  0  0
    2.1553    4.2920    0.0616 H   0  0  0  0  0  0  0  0  0  0  0  0
    1.3876    2.5324   -0.8959 C   0  0  0  0  0  0  0  0  0  0  0  0
    2.1891    2.1623   -1.5286 H   0  0  0  0  0  0  0  0  0  0  0  0
    0.5748   -0.3601    0.8479 C   0  0  0  0  0  0  0  0  0  0  0  0
    1.7926   -0.3633    0.9869 O   0  0  0  0  0  0  0  0  0  0  0  0
   -0.2298   -0.0087    1.9183 N   0  0  0  0  0  0  0  0  0  0  0  0
   -1.1846    0.2472    1.6886 H   0  0  0  0  0  0  0  0  0  0  0  0
    0.3116    0.4242    3.1993 C   0  0  0  0  0  0  0  0  0  0  0  0
    0.8586    1.3655    3.0836 H   0  0  0  0  0  0  0  0  0  0  0  0
   -0.4980    0.5766    3.9191 H   0  0  0  0  0  0  0  0  0  0  0  0
    0.9919   -0.3328    3.6037 H   0  0  0  0  0  0  0  0  0  0  0  0
  1  2  1  0  0  0  0
  2  3  1  0  0  0  0
  2  4  1  0  0  0  0
  2  5  1  0  0  0  0
  5  6  2  0  0  0  0
  5  7  1  0  0  0  0
  7  8  1  0  0  0  0
  7  9  1  0  0  0  0
  9 10  1  0  0  0  0
  9 11  1  0  0  0  0
  9 22  1  0  0  0  0
 11 12  1  0  0  0  0
 11 13  1  0  0  0  0
 11 14  1  0  0  0  0
 14 15  1  0  0  0  0
 14 20  2  0  0  0  0
 15 16  2  0  0  0  0
 16 17  1  0  0  0  0
 16 18  1  0  0  0  0
 18 19  1  0  0  0  0
 18 20  1  0  0  0  0
 20 21  1  0  0  0  0
 22 23  2  0  0  0  0
 22 24  1  0  0  0  0
 24 25  1  0  0  0  0
 24 26  1  0  0  0  0
 26 27  1  0  0  0  0
 26 28  1  0  0  0  0
 26 29  1  0  0  0  0
M  END
$$$$

  -OEChem-04042215593D

 29 29  0     1  0  0  0  0  0999 V2000
   -2.5272   -4.4069    0.4290 H   0  0  0  0  0  0  0  0  0  0  0  0
   -2.6675   -3.3888    0.0545 C   0  0  0  0  0  0  0  0  0  0  0  0
   -3.2965   -2.8394    0.7589 H   0  0  0  0  0  0  0  0  0  0  0  0
   -3.1700   -3.4364   -0.9146 H   0  0  0  0  0  0  0  0  0  0  0  0
   -1.3247   -2.6981   -0.0909 C   0  0  0  0  0  0  0  0  0  0  0  0
   -0.3015   -3.2997    0.1814 O   0  0  0  0  0  0  0  0  0  0  0  0
   -1.2714   -1.3969   -0.5492 N   0  0  0  0  0  0  0  0  0  0  0  0
   -2.1607   -0.9302   -0.6930 H   0  0  0  0  0  0  0  0  0  0  0  0
   -0.0457   -0.5778   -0.5479 C   0  0  1  0  0  0  0  0  0  0  0  0
    0.7192   -1.1380   -1.0980 H   0  0  0  0  0  0  0  0  0  0  0  0
   -0.3277    0.7060   -1.3694 C   0  0  0  0  0  0  0  0  0  0  0  0
    0.1465    0.5968   -2.3489 H   0  0  0  0  0  0  0  0  0  0  0  0
   -1.4014    0.8191   -1.5430 H   0  0  0  0  0  0  0  0  0  0  0  0
    0.1550    1.9786   -0.7371 C   0  0  0  0  0  0  0  0  0  0  0  0
   -0.4859    2.5836    0.3376 N   0  0  0  0  0  0  0  0  0  0  0  0
    0.2279    3.6441    0.6356 C   0  0  0  0  0  0  0  0  0  0  0  0
    0.0037    4.3349    1.4434 H   0  0  0  0  0  0  0  0  0  0  0  0
    1.3015    3.7543   -0.2284 N   0  0  0  0  0  0  0  0  0  0  0  0
    2.0202    4.4746   -0.1848 H   0  0  0  0  0  0  0  0  0  0  0  0
    1.2572    2.6939   -1.1081 C   0  0  0  0  0  0  0  0  0  0  0  0
    1.9535    2.4489   -1.9049 H   0  0  0  0  0  0  0  0  0  0  0  0
    0.5664   -0.3561    0.8608 C   0  0  0  0  0  0  0  0  0  0  0  0
    1.7834   -0.3849    1.0046 O   0  0  0  0  0  0  0  0  0  0  0  0
   -0.2368   -0.0196    1.9370 N   0  0  0  0  0  0  0  0  0  0  0  0
   -1.1680    0.3053    1.6971 H   0  0  0  0  0  0  0  0  0  0  0  0
    0.3128    0.3741    3.2273 C   0  0  0  0  0  0  0  0  0  0  0  0
    0.8915    1.2983    3.1295 H   0  0  0  0  0  0  0  0  0  0  0  0
   -0.4943    0.5416    3.9466 H   0  0  0  0  0  0  0  0  0  0  0  0
    0.9660   -0.4116    3.6212 H   0  0  0  0  0  0  0  0  0  0  0  0
  1  2  1  0  0  0  0
  2  3  1  0  0  0  0
  2  4  1  0  0  0  0
  2  5  1  0  0  0  0
  5  6  2  0  0  0  0
  5  7  1  0  0  0  0
  7  8  1  0  0  0  0
  7  9  1  0  0  0  0
  9 10  1  0  0  0  0
  9 11  1  0  0  0  0
  9 22  1  0  0  0  0
 11 12  1  0  0  0  0
 11 13  1  0  0  0  0
 11 14  1  0  0  0  0
 14 15  1  0  0  0  0
 14 20  2  0  0  0  0
 15 16  2  0  0  0  0
 16 17  1  0  0  0  0
 16 18  1  0  0  0  0
 18 19  1  0  0  0  0
 18 20  1  0  0  0  0
 20 21  1  0  0  0  0
 22 23  2  0  0  0  0
 22 24  1  0  0  0  0
 24 25  1  0  0  0  0
 24 26  1  0  0  0  0
 26 27  1  0  0  0  0
 26 28  1  0  0  0  0
 26 29  1  0  0  0  0
M  END
$$$$

  -OEChem-04042215593D

 29 29  0     1  0  0  0  0  0999 V2000
   -2.5142   -4.4173    0.3951 H   0  0  0  0  0  0  0  0  0  0  0  0
   -2.6600   -3.3930    0.0397 C   0  0  0  0  0  0  0  0  0  0  0  0
   -3.2842   -2.8579    0.7593 H   0  0  0  0  0  0  0  0  0  0  0  0
   -3.1712   -3.4251   -0.9254 H   0  0  0  0  0  0  0  0  0  0  0  0
   -1.3200   -2.6962   -0.1058 C   0  0  0  0  0  0  0  0  0  0  0  0
   -0.2930   -3.3022    0.1403 O   0  0  0  0  0  0  0  0  0  0  0  0
   -1.2756   -1.3852   -0.5370 N   0  0  0  0  0  0  0  0  0  0  0  0
   -2.1687   -0.9177   -0.6505 H   0  0  0  0  0  0  0  0  0  0  0  0
   -0.0549   -0.5582   -0.5191 C   0  0  1  0  0  0  0  0  0  0  0  0
    0.7128   -1.1196   -1.0641 H   0  0  0  0  0  0  0  0  0  0  0  0
   -0.3180    0.7191   -1.3604 C   0  0  0  0  0  0  0  0  0  0  0  0
    0.1686    0.5928   -2.3320 H   0  0  0  0  0  0  0  0  0  0  0  0
   -1.3899    0.8213   -1.5507 H   0  0  0  0  0  0  0  0  0  0  0  0
    0.1357    2.0200   -0.7582 C   0  0  0  0  0  0  0  0  0  0  0  0
   -0.3214    2.5271    0.4525 N   0  0  0  0  0  0  0  0  0  0  0  0
    0.3405    3.6410    0.6599 C   0  0  0  0  0  0  0  0  0  0  0  0
    0.2246    4.2784    1.5320 H   0  0  0  0  0  0  0  0  0  0  0  0
    1.2004    3.8846   -0.3939 N   0  0  0  0  0  0  0  0  0  0  0  0
    1.8447    4.6709   -0.4574 H   0  0  0  0  0  0  0  0  0  0  0  0
    1.0742    2.8528   -1.2991 C   0  0  0  0  0  0  0  0  0  0  0  0
    1.6169    2.7038   -2.2278 H   0  0  0  0  0  0  0  0  0  0  0  0
    0.5583   -0.3607    0.8927 C   0  0  0  0  0  0  0  0  0  0  0  0
    1.7745   -0.4102    1.0382 O   0  0  0  0  0  0  0  0  0  0  0  0
   -0.2436   -0.0517    1.9783 N   0  0  0  0  0  0  0  0  0  0  0  0
   -1.1657    0.3012    1.7442 H   0  0  0  0  0  0  0  0  0  0  0  0
    0.3098    0.2987    3.2794 C   0  0  0  0  0  0  0  0  0  0  0  0
    0.8988    1.2190    3.2089 H   0  0  0  0  0  0  0  0  0  0  0  0
   -0.4964    0.4542    4.0021 H   0  0  0  0  0  0  0  0  0  0  0  0
    0.9537   -0.5054    3.6510 H   0  0  0  0  0  0  0  0  0  0  0  0
  1  2  1  0  0  0  0
  2  3  1  0  0  0  0
  2  4  1  0  0  0  0
  2  5  1  0  0  0  0
  5  6  2  0  0  0  0
  5  7  1  0  0  0  0
  7  8  1  0  0  0  0
  7  9  1  0  0  0  0
  9 10  1  0  0  0  0
  9 11  1  0  0  0  0
  9 22  1  0  0  0  0
 11 12  1  0  0  0  0
 11 13  1  0  0  0  0
 11 14  1  0  0  0  0
 14 15  1  0  0  0  0
 14 20  2  0  0  0  0
 15 16  2  0  0  0  0
 16 17  1  0  0  0  0
 16 18  1  0  0  0  0
 18 19  1  0  0  0  0
 18 20  1  0  0  0  0
 20 21  1  0  0  0  0
 22 23  2  0  0  0  0
 22 24  1  0  0  0  0
 24 25  1  0  0  0  0
 24 26  1  0  0  0  0
 26 27  1  0  0  0  0
 26 28  1  0  0  0  0
 26 29  1  0  0  0  0
M  END
$$$$

  -OEChem-04042215593D

 29 29  0     1  0  0  0  0  0999 V2000
   -2.4995   -4.4293    0.3478 H   0  0  0  0  0  0  0  0  0  0  0  0
   -2.6518   -3.3982    0.0161 C   0  0  0  0  0  0  0  0  0  0  0  0
   -3.2717   -2.8811    0.7522 H   0  0  0  0  0  0  0  0  0  0  0  0
   -3.1705   -3.4114   -0.9454 H   0  0  0  0  0  0  0  0  0  0  0  0
   -1.3152   -2.6939   -0.1234 C   0  0  0  0  0  0  0  0  0  0  0  0
   -0.2854   -3.3040    0.0999 O   0  0  0  0  0  0  0  0  0  0  0  0
   -1.2771   -1.3733   -0.5261 N   0  0  0  0  0  0  0  0  0  0  0  0
   -2.1724   -0.9058   -0.6188 H   0  0  0  0  0  0  0  0  0  0  0  0
   -0.0587   -0.5421   -0.4897 C   0  0  1  0  0  0  0  0  0  0  0  0
    0.7117   -1.0979   -1.0369 H   0  0  0  0  0  0  0  0  0  0  0  0
   -0.3130    0.7392   -1.3314 C   0  0  0  0  0  0  0  0  0  0  0  0
    0.1745    0.6083   -2.3020 H   0  0  0  0  0  0  0  0  0  0  0  0
   -1.3853    0.8295   -1.5242 H   0  0  0  0  0  0  0  0  0  0  0  0
    0.1159    2.0632   -0.7537 C   0  0  0  0  0  0  0  0  0  0  0  0
   -0.0999    2.4987    0.5479 N   0  0  0  0  0  0  0  0  0  0  0  0
    0.4965    3.6612    0.6614 C   0  0  0  0  0  0  0  0  0  0  0  0
    0.5245    4.2595    1.5676 H   0  0  0  0  0  0  0  0  0  0  0  0
    1.0778    4.0110   -0.5414 N   0  0  0  0  0  0  0  0  0  0  0  0
    1.6255    4.8535   -0.7064 H   0  0  0  0  0  0  0  0  0  0  0  0
    0.8424    2.9949   -1.4425 C   0  0  0  0  0  0  0  0  0  0  0  0
    1.1820    2.9211   -2.4712 H   0  0  0  0  0  0  0  0  0  0  0  0
    0.5508   -0.3753    0.9275 C   0  0  0  0  0  0  0  0  0  0  0  0
    1.7652   -0.4493    1.0787 O   0  0  0  0  0  0  0  0  0  0  0  0
   -0.2554   -0.0942    2.0184 N   0  0  0  0  0  0  0  0  0  0  0  0
   -1.1747    0.2687    1.7910 H   0  0  0  0  0  0  0  0  0  0  0  0
    0.2962    0.2226    3.3289 C   0  0  0  0  0  0  0  0  0  0  0  0
    0.8856    1.1441    3.2819 H   0  0  0  0  0  0  0  0  0  0  0  0
   -0.5106    0.3606    4.0545 H   0  0  0  0  0  0  0  0  0  0  0  0
    0.9394   -0.5907    3.6811 H   0  0  0  0  0  0  0  0  0  0  0  0
  1  2  1  0  0  0  0
  2  3  1  0  0  0  0
  2  4  1  0  0  0  0
  2  5  1  0  0  0  0
  5  6  2  0  0  0  0
  5  7  1  0  0  0  0
  7  8  1  0  0  0  0
  7  9  1  0  0  0  0
  9 10  1  0  0  0  0
  9 11  1  0  0  0  0
  9 22  1  0  0  0  0
 11 12  1  0  0  0  0
 11 13  1  0  0  0  0
 11 14  1  0  0  0  0
 14 15  1  0  0  0  0
 14 20  2  0  0  0  0
 15 16  2  0  0  0  0
 16 17  1  0  0  0  0
 16 18  1  0  0  0  0
 18 19  1  0  0  0  0
 18 20  1  0  0  0  0
 20 21  1  0  0  0  0
 22 23  2  0  0  0  0
 22 24  1  0  0  0  0
 24 25  1  0  0  0  0
 24 26  1  0  0  0  0
 26 27  1  0  0  0  0
 26 28  1  0  0  0  0
 26 29  1  0  0  0  0
M  END
$$$$

  -OEChem-04042215593D

 29 29  0     1  0  0  0  0  0999 V2000
   -2.5092   -4.4181    0.3254 H   0  0  0  0  0  0  0  0  0  0  0  0
   -2.6533   -3.3848   -0.0035 C   0  0  0  0  0  0  0  0  0  0  0  0
   -3.2742   -2.8667    0.7310 H   0  0  0  0  0  0  0  0  0  0  0  0
   -3.1663   -3.3915   -0.9681 H   0  0  0  0  0  0  0  0  0  0  0  0
   -1.3119   -2.6879   -0.1337 C   0  0  0  0  0  0  0  0  0  0  0  0
   -0.2863   -3.3092    0.0769 O   0  0  0  0  0  0  0  0  0  0  0  0
   -1.2665   -1.3617   -0.5170 N   0  0  0  0  0  0  0  0  0  0  0  0
   -2.1598   -0.8896   -0.6036 H   0  0  0  0  0  0  0  0  0  0  0  0
   -0.0444   -0.5356   -0.4673 C   0  0  1  0  0  0  0  0  0  0  0  0
    0.7271   -1.0835   -1.0210 H   0  0  0  0  0  0  0  0  0  0  0  0
   -0.3028    0.7573   -1.2945 C   0  0  0  0  0  0  0  0  0  0  0  0
    0.1766    0.6308   -2.2696 H   0  0  0  0  0  0  0  0  0  0  0  0
   -1.3770    0.8417   -1.4792 H   0  0  0  0  0  0  0  0  0  0  0  0
    0.1129    2.0956   -0.7326 C   0  0  0  0  0  0  0  0  0  0  0  0
    0.1796    2.4746    0.6015 N   0  0  0  0  0  0  0  0  0  0  0  0
    0.6728    3.6885    0.6349 C   0  0  0  0  0  0  0  0  0  0  0  0
    0.8592    4.2595    1.5401 H   0  0  0  0  0  0  0  0  0  0  0  0
    0.9140    4.1291   -0.6508 N   0  0  0  0  0  0  0  0  0  0  0  0
    1.3206    5.0298   -0.8969 H   0  0  0  0  0  0  0  0  0  0  0  0
    0.5673    3.1178   -1.5210 C   0  0  0  0  0  0  0  0  0  0  0  0
    0.6578    3.1085   -2.6031 H   0  0  0  0  0  0  0  0  0  0  0  0
    0.5560   -0.3980    0.9565 C   0  0  0  0  0  0  0  0  0  0  0  0
    1.7648   -0.5186    1.1221 O   0  0  0  0  0  0  0  0  0  0  0  0
   -0.2585   -0.1321    2.0453 N   0  0  0  0  0  0  0  0  0  0  0  0
   -1.1755    0.2371    1.8217 H   0  0  0  0  0  0  0  0  0  0  0  0
    0.2848    0.1399    3.3692 C   0  0  0  0  0  0  0  0  0  0  0  0
    0.9213    1.0305    3.3448 H   0  0  0  0  0  0  0  0  0  0  0  0
   -0.5264    0.3105    4.0828 H   0  0  0  0  0  0  0  0  0  0  0  0
    0.8794   -0.7099    3.7207 H   0  0  0  0  0  0  0  0  0  0  0  0
  1  2  1  0  0  0  0
  2  3  1  0  0  0  0
  2  4  1  0  0  0  0
  2  5  1  0  0  0  0
  5  6  2  0  0  0  0
  5  7  1  0  0  0  0
  7  8  1  0  0  0  0
  7  9  1  0  0  0  0
  9 10  1  0  0  0  0
  9 11  1  0  0  0  0
  9 22  1  0  0  0  0
 11 12  1  0  0  0  0
 11 13  1  0  0  0  0
 11 14  1  0  0  0  0
 14 15  1  0  0  0  0
 14 20  2  0  0  0  0
 15 16  2  0  0  0  0
 16 17  1  0  0  0  0
 16 18  1  0  0  0  0
 18 19  1  0  0  0  0
 18 20  1  0  0  0  0
 20 21  1  0  0  0  0
 22 23  2  0  0  0  0
 22 24  1  0  0  0  0
 24 25  1  0  0  0  0
 24 26  1  0  0  0  0
 26 27  1  0  0  0  0
 26 28  1  0  0  0  0
 26 29  1  0  0  0  0
M  END
$$$$

  -OEChem-04042215593D

 29 29  0     1  0  0  0  0  0999 V2000
   -2.5363   -4.4035    0.2985 H   0  0  0  0  0  0  0  0  0  0  0  0
   -2.6690   -3.3634   -0.0128 C   0  0  0  0  0  0  0  0  0  0  0  0
   -3.2838   -2.8511    0.7308 H   0  0  0  0  0  0  0  0  0  0  0  0
   -3.1825   -3.3482   -0.9769 H   0  0  0  0  0  0  0  0  0  0  0  0
   -1.3199   -2.6797   -0.1320 C   0  0  0  0  0  0  0  0  0  0  0  0
   -0.3028   -3.3136    0.0808 O   0  0  0  0  0  0  0  0  0  0  0  0
   -1.2584   -1.3522   -0.5093 N   0  0  0  0  0  0  0  0  0  0  0  0
   -2.1461   -0.8726   -0.6093 H   0  0  0  0  0  0  0  0  0  0  0  0
   -0.0256   -0.5404   -0.4584 C   0  0  1  0  0  0  0  0  0  0  0  0
    0.7413   -1.0854   -1.0212 H   0  0  0  0  0  0  0  0  0  0  0  0
   -0.2904    0.7670   -1.2643 C   0  0  0  0  0  0  0  0  0  0  0  0
    0.1810    0.6487   -2.2446 H   0  0  0  0  0  0  0  0  0  0  0  0
   -1.3657    0.8534   -1.4412 H   0  0  0  0  0  0  0  0  0  0  0  0
    0.1321    2.1081   -0.7083 C   0  0  0  0  0  0  0  0  0  0  0  0
    0.5004    2.4398    0.5880 N   0  0  0  0  0  0  0  0  0  0  0  0
    0.8660    3.6977    0.5838 C   0  0  0  0  0  0  0  0  0  0  0  0
    1.2200    4.2459    1.4521 H   0  0  0  0  0  0  0  0  0  0  0  0
    0.7287    4.2157   -0.6878 N   0  0  0  0  0  0  0  0  0  0  0  0
    0.9693    5.1659   -0.9643 H   0  0  0  0  0  0  0  0  0  0  0  0
    0.2710    3.2088   -1.5111 C   0  0  0  0  0  0  0  0  0  0  0  0
    0.0816    3.2568   -2.5793 H   0  0  0  0  0  0  0  0  0  0  0  0
    0.5691   -0.4237    0.9694 C   0  0  0  0  0  0  0  0  0  0  0  0
    1.7707   -0.5906    1.1470 O   0  0  0  0  0  0  0  0  0  0  0  0
   -0.2507   -0.1562    2.0543 N   0  0  0  0  0  0  0  0  0  0  0  0
   -1.1724    0.2007    1.8329 H   0  0  0  0  0  0  0  0  0  0  0  0
    0.2834    0.0918    3.3865 C   0  0  0  0  0  0  0  0  0  0  0  0
    0.9083    0.9911    3.3843 H   0  0  0  0  0  0  0  0  0  0  0  0
   -0.5328    0.2352    4.1005 H   0  0  0  0  0  0  0  0  0  0  0  0
    0.8879   -0.7576    3.7217 H   0  0  0  0  0  0  0  0  0  0  0  0
  1  2  1  0  0  0  0
  2  3  1  0  0  0  0
  2  4  1  0  0  0  0
  2  5  1  0  0  0  0
  5  6  2  0  0  0  0
  5  7  1  0  0  0  0
  7  8  1  0  0  0  0
  7  9  1  0  0  0  0
  9 10  1  0  0  0  0
  9 11  1  0  0  0  0
  9 22  1  0  0  0  0
 11 12  1  0  0  0  0
 11 13  1  0  0  0  0
 11 14  1  0  0  0  0
 14 15  1  0  0  0  0
 14 20  2  0  0  0  0
 15 16  2  0  0  0  0
 16 17  1  0  0  0  0
 16 18  1  0  0  0  0
 18 19  1  0  0  0  0
 18 20  1  0  0  0  0
 20 21  1  0  0  0  0
 22 23  2  0  0  0  0
 22 24  1  0  0  0  0
 24 25  1  0  0  0  0
 24 26  1  0  0  0  0
 26 27  1  0  0  0  0
 26 28  1  0  0  0  0
 26 29  1  0  0  0  0
M  END
$$$$

  -OEChem-04042215593D

 29 29  0     1  0  0  0  0  0999 V2000
   -2.5772   -4.3644    0.3283 H   0  0  0  0  0  0  0  0  0  0  0  0
   -2.6907   -3.3288   -0.0050 C   0  0  0  0  0  0  0  0  0  0  0  0
   -3.3102   -2.7940    0.7187 H   0  0  0  0  0  0  0  0  0  0  0  0
   -3.1879   -3.3250   -0.9778 H   0  0  0  0  0  0  0  0  0  0  0  0
   -1.3304   -2.6661   -0.1153 C   0  0  0  0  0  0  0  0  0  0  0  0
   -0.3257   -3.3137    0.1125 O   0  0  0  0  0  0  0  0  0  0  0  0
   -1.2454   -1.3433   -0.5041 N   0  0  0  0  0  0  0  0  0  0  0  0
   -2.1245   -0.8545   -0.6310 H   0  0  0  0  0  0  0  0  0  0  0  0
    0.0002   -0.5499   -0.4632 C   0  0  1  0  0  0  0  0  0  0  0  0
    0.7602   -1.0990   -1.0312 H   0  0  0  0  0  0  0  0  0  0  0  0
   -0.2731    0.7627   -1.2584 C   0  0  0  0  0  0  0  0  0  0  0  0
    0.2002    0.6473   -2.2381 H   0  0  0  0  0  0  0  0  0  0  0  0
   -1.3477    0.8520   -1.4379 H   0  0  0  0  0  0  0  0  0  0  0  0
    0.1648    2.1015   -0.7094 C   0  0  0  0  0  0  0  0  0  0  0  0
    0.8205    2.3974    0.4765 N   0  0  0  0  0  0  0  0  0  0  0  0
    1.0345    3.6892    0.4996 C   0  0  0  0  0  0  0  0  0  0  0  0
    1.5389    4.2231    1.3000 H   0  0  0  0  0  0  0  0  0  0  0  0
    0.5184    4.2628   -0.6445 N   0  0  0  0  0  0  0  0  0  0  0  0
    0.5726    5.2517   -0.8817 H   0  0  0  0  0  0  0  0  0  0  0  0
   -0.0311    3.2592   -1.4142 C   0  0  0  0  0  0  0  0  0  0  0  0
   -0.5043    3.3498   -2.3874 H   0  0  0  0  0  0  0  0  0  0  0  0
    0.5932   -0.4338    0.9655 C   0  0  0  0  0  0  0  0  0  0  0  0
    1.7843   -0.6513    1.1560 O   0  0  0  0  0  0  0  0  0  0  0  0
   -0.2260   -0.1452    2.0455 N   0  0  0  0  0  0  0  0  0  0  0  0
   -1.1556    0.1922    1.8284 H   0  0  0  0  0  0  0  0  0  0  0  0
    0.2986    0.0660    3.3879 C   0  0  0  0  0  0  0  0  0  0  0  0
    0.9768    0.9258    3.4008 H   0  0  0  0  0  0  0  0  0  0  0  0
   -0.5195    0.2568    4.0886 H   0  0  0  0  0  0  0  0  0  0  0  0
    0.8445   -0.8202    3.7289 H   0  0  0  0  0  0  0  0  0  0  0  0
  1  2  1  0  0  0  0
  2  3  1  0  0  0  0
  2  4  1  0  0  0  0
  2  5  1  0  0  0  0
  5  6  2  0  0  0  0
  5  7  1  0  0  0  0
  7  8  1  0  0  0  0
  7  9  1  0  0  0  0
  9 10  1  0  0  0  0
  9 11  1  0  0  0  0
  9 22  1  0  0  0  0
 11 12  1  0  0  0  0
 11 13  1  0  0  0  0
 11 14  1  0  0  0  0
 14 15  1  0  0  0  0
 14 20  2  0  0  0  0
 15 16  2  0  0  0  0
 16 17  1  0  0  0  0
 16 18  1  0  0  0  0
 18 19  1  0  0  0  0
 18 20  1  0  0  0  0
 20 21  1  0  0  0  0
 22 23  2  0  0  0  0
 22 24  1  0  0  0  0
 24 25  1  0  0  0  0
 24 26  1  0  0  0  0
 26 27  1  0  0  0  0
 26 28  1  0  0  0  0
 26 29  1  0  0  0  0
M  END
$$$$

  -OEChem-04042215593D

 29 29  0     1  0  0  0  0  0999 V2000
   -2.5995   -4.3309    0.3923 H   0  0  0  0  0  0  0  0  0  0  0  0
   -2.6969   -3.3073    0.0191 C   0  0  0  0  0  0  0  0  0  0  0  0
   -3.3360   -2.7441    0.7032 H   0  0  0  0  0  0  0  0  0  0  0  0
   -3.1642   -3.3367   -0.9680 H   0  0  0  0  0  0  0  0  0  0  0  0
   -1.3303   -2.6543   -0.0717 C   0  0  0  0  0  0  0  0  0  0  0  0
   -0.3366   -3.2989    0.2061 O   0  0  0  0  0  0  0  0  0  0  0  0
   -1.2288   -1.3442   -0.4983 N   0  0  0  0  0  0  0  0  0  0  0  0
   -2.0994   -0.8636   -0.6937 H   0  0  0  0  0  0  0  0  0  0  0  0
    0.0250   -0.5615   -0.4903 C   0  0  1  0  0  0  0  0  0  0  0  0
    0.7793   -1.1153   -1.0612 H   0  0  0  0  0  0  0  0  0  0  0  0
   -0.2743    0.7495   -1.2802 C   0  0  0  0  0  0  0  0  0  0  0  0
    0.1889    0.6340   -2.2645 H   0  0  0  0  0  0  0  0  0  0  0  0
   -1.3510    0.8377   -1.4490 H   0  0  0  0  0  0  0  0  0  0  0  0
    0.1862    2.0845   -0.7400 C   0  0  0  0  0  0  0  0  0  0  0  0
    1.1094    2.3486    0.2598 N   0  0  0  0  0  0  0  0  0  0  0  0
    1.1941    3.6487    0.3894 C   0  0  0  0  0  0  0  0  0  0  0  0
    1.8440    4.1643    1.0908 H   0  0  0  0  0  0  0  0  0  0  0  0
    0.3299    4.2572   -0.4982 N   0  0  0  0  0  0  0  0  0  0  0  0
    0.2121    5.2629   -0.6068 H   0  0  0  0  0  0  0  0  0  0  0  0
   -0.3122    3.2689   -1.2144 C   0  0  0  0  0  0  0  0  0  0  0  0
   -1.0510    3.3908   -2.0006 H   0  0  0  0  0  0  0  0  0  0  0  0
    0.6193   -0.4174    0.9357 C   0  0  0  0  0  0  0  0  0  0  0  0
    1.8008   -0.6690    1.1426 O   0  0  0  0  0  0  0  0  0  0  0  0
   -0.2009   -0.0931    2.0047 N   0  0  0  0  0  0  0  0  0  0  0  0
   -1.1463    0.1964    1.7869 H   0  0  0  0  0  0  0  0  0  0  0  0
    0.3040    0.0946    3.3576 C   0  0  0  0  0  0  0  0  0  0  0  0
    1.0609    0.8859    3.3757 H   0  0  0  0  0  0  0  0  0  0  0  0
   -0.5112    0.3769    4.0302 H   0  0  0  0  0  0  0  0  0  0  0  0
    0.7536   -0.8322    3.7292 H   0  0  0  0  0  0  0  0  0  0  0  0
  1  2  1  0  0  0  0
  2  3  1  0  0  0  0
  2  4  1  0  0  0  0
  2  5  1  0  0  0  0
  5  6  2  0  0  0  0
  5  7  1  0  0  0  0
  7  8  1  0  0  0  0
  7  9  1  0  0  0  0
  9 10  1  0  0  0  0
  9 11  1  0  0  0  0
  9 22  1  0  0  0  0
 11 12  1  0  0  0  0
 11 13  1  0  0  0  0
 11 14  1  0  0  0  0
 14 15  1  0  0  0  0
 14 20  2  0  0  0  0
 15 16  2  0  0  0  0
 16 17  1  0  0  0  0
 16 18  1  0  0  0  0
 18 19  1  0  0  0  0
 18 20  1  0  0  0  0
 20 21  1  0  0  0  0
 22 23  2  0  0  0  0
 22 24  1  0  0  0  0
 24 25  1  0  0  0  0
 24 26  1  0  0  0  0
 26 27  1  0  0  0  0
 26 28  1  0  0  0  0
 26 29  1  0  0  0  0
M  END
$$$$

  -OEChem-04042215593D

 29 29  0     1  0  0  0  0  0999 V2000
   -2.5877   -4.3335    0.4150 H   0  0  0  0  0  0  0  0  0  0  0  0
   -2.6868   -3.3150    0.0285 C   0  0  0  0  0  0  0  0  0  0  0  0
   -3.3639   -2.7572    0.6797 H   0  0  0  0  0  0  0  0  0  0  0  0
   -3.1116   -3.3611   -0.9770 H   0  0  0  0  0  0  0  0  0  0  0  0
   -1.3286   -2.6395   -0.0113 C   0  0  0  0  0  0  0  0  0  0  0  0
   -0.3415   -3.2531    0.3475 O   0  0  0  0  0  0  0  0  0  0  0  0
   -1.2275   -1.3437   -0.4794 N   0  0  0  0  0  0  0  0  0  0  0  0
   -2.0876   -0.9031   -0.7848 H   0  0  0  0  0  0  0  0  0  0  0  0
    0.0232   -0.5556   -0.5096 C   0  0  1  0  0  0  0  0  0  0  0  0
    0.7753   -1.1118   -1.0809 H   0  0  0  0  0  0  0  0  0  0  0  0
   -0.3072    0.7430   -1.3060 C   0  0  0  0  0  0  0  0  0  0  0  0
    0.1387    0.6256   -2.2978 H   0  0  0  0  0  0  0  0  0  0  0  0
   -1.3875    0.8247   -1.4530 H   0  0  0  0  0  0  0  0  0  0  0  0
    0.1680    2.0742   -0.7736 C   0  0  0  0  0  0  0  0  0  0  0  0
    1.3007    2.3275   -0.0168 N   0  0  0  0  0  0  0  0  0  0  0  0
    1.3217    3.6100    0.2453 C   0  0  0  0  0  0  0  0  0  0  0  0
    2.0914    4.1157    0.8216 H   0  0  0  0  0  0  0  0  0  0  0  0
    0.2178    4.2148   -0.3224 N   0  0  0  0  0  0  0  0  0  0  0  0
    0.0043    5.2092   -0.2737 H   0  0  0  0  0  0  0  0  0  0  0  0
   -0.5187    3.2431   -0.9676 C   0  0  0  0  0  0  0  0  0  0  0  0
   -1.4452    3.3667   -1.5199 H   0  0  0  0  0  0  0  0  0  0  0  0
    0.6286   -0.3644    0.9071 C   0  0  0  0  0  0  0  0  0  0  0  0
    1.8118   -0.6040    1.1168 O   0  0  0  0  0  0  0  0  0  0  0  0
   -0.1855   -0.0100    1.9712 N   0  0  0  0  0  0  0  0  0  0  0  0
   -1.1639    0.1589    1.7730 H   0  0  0  0  0  0  0  0  0  0  0  0
    0.3053    0.1389    3.3342 C   0  0  0  0  0  0  0  0  0  0  0  0
    1.0806    0.9110    3.3781 H   0  0  0  0  0  0  0  0  0  0  0  0
   -0.5111    0.4295    4.0018 H   0  0  0  0  0  0  0  0  0  0  0  0
    0.7272   -0.8060    3.6928 H   0  0  0  0  0  0  0  0  0  0  0  0
  1  2  1  0  0  0  0
  2  3  1  0  0  0  0
  2  4  1  0  0  0  0
  2  5  1  0  0  0  0
  5  6  2  0  0  0  0
  5  7  1  0  0  0  0
  7  8  1  0  0  0  0
  7  9  1  0  0  0  0
  9 10  1  0  0  0  0
  9 11  1  0  0  0  0
  9 22  1  0  0  0  0
 11 12  1  0  0  0  0
 11 13  1  0  0  0  0
 11 14  1  0  0  0  0
 14 15  1  0  0  0  0
 14 20  2  0  0  0  0
 15 16  2  0  0  0  0
 16 17  1  0  0  0  0
 16 18  1  0  0  0  0
 18 19  1  0  0  0  0
 18 20  1  0  0  0  0
 20 21  1  0  0  0  0
 22 23  2  0  0  0  0
 22 24  1  0  0  0  0
 24 25  1  0  0  0  0
 24 26  1  0  0  0  0
 26 27  1  0  0  0  0
 26 28  1  0  0  0  0
 26 29  1  0  0  0  0
M  END
$$$$

  -OEChem-04042215593D

 29 29  0     1  0  0  0  0  0999 V2000
   -2.5324   -4.3634    0.4330 H   0  0  0  0  0  0  0  0  0  0  0  0
   -2.6492   -3.3555    0.0243 C   0  0  0  0  0  0  0  0  0  0  0  0
   -3.3860   -2.8163    0.6243 H   0  0  0  0  0  0  0  0  0  0  0  0
   -3.0105   -3.4343   -1.0039 H   0  0  0  0  0  0  0  0  0  0  0  0
   -1.3203   -2.6238    0.0539 C   0  0  0  0  0  0  0  0  0  0  0  0
   -0.3402   -3.1790    0.5124 O   0  0  0  0  0  0  0  0  0  0  0  0
   -1.2393   -1.3429   -0.4576 N   0  0  0  0  0  0  0  0  0  0  0  0
   -2.0768   -0.9798   -0.8989 H   0  0  0  0  0  0  0  0  0  0  0  0
    0.0006   -0.5396   -0.5282 C   0  0  1  0  0  0  0  0  0  0  0  0
    0.7546   -1.0920   -1.1001 H   0  0  0  0  0  0  0  0  0  0  0  0
   -0.3669    0.7453   -1.3286 C   0  0  0  0  0  0  0  0  0  0  0  0
    0.0490    0.6329   -2.3340 H   0  0  0  0  0  0  0  0  0  0  0  0
   -1.4519    0.8226   -1.4397 H   0  0  0  0  0  0  0  0  0  0  0  0
    0.1235    2.0658   -0.7920 C   0  0  0  0  0  0  0  0  0  0  0  0
    1.4012    2.3249   -0.3248 N   0  0  0  0  0  0  0  0  0  0  0  0
    1.4207    3.5679    0.0854 C   0  0  0  0  0  0  0  0  0  0  0  0
    2.2854    4.0685    0.5119 H   0  0  0  0  0  0  0  0  0  0  0  0
    0.1782    4.1398   -0.1106 N   0  0  0  0  0  0  0  0  0  0  0  0
   -0.0678    5.0998    0.1228 H   0  0  0  0  0  0  0  0  0  0  0  0
   -0.6511    3.1873   -0.6661 C   0  0  0  0  0  0  0  0  0  0  0  0
   -1.6955    3.2907   -0.9427 H   0  0  0  0  0  0  0  0  0  0  0  0
    0.6178   -0.2947    0.8763 C   0  0  0  0  0  0  0  0  0  0  0  0
    1.8088   -0.4941    1.0820 O   0  0  0  0  0  0  0  0  0  0  0  0
   -0.1946    0.0827    1.9336 N   0  0  0  0  0  0  0  0  0  0  0  0
   -1.1912    0.1171    1.7565 H   0  0  0  0  0  0  0  0  0  0  0  0
    0.2896    0.2062    3.3018 C   0  0  0  0  0  0  0  0  0  0  0  0
    1.1077    0.9327    3.3530 H   0  0  0  0  0  0  0  0  0  0  0  0
   -0.5158    0.5465    3.9594 H   0  0  0  0  0  0  0  0  0  0  0  0
    0.6527   -0.7603    3.6671 H   0  0  0  0  0  0  0  0  0  0  0  0
  1  2  1  0  0  0  0
  2  3  1  0  0  0  0
  2  4  1  0  0  0  0
  2  5  1  0  0  0  0
  5  6  2  0  0  0  0
  5  7  1  0  0  0  0
  7  8  1  0  0  0  0
  7  9  1  0  0  0  0
  9 10  1  0  0  0  0
  9 11  1  0  0  0  0
  9 22  1  0  0  0  0
 11 12  1  0  0  0  0
 11 13  1  0  0  0  0
 11 14  1  0  0  0  0
 14 15  1  0  0  0  0
 14 20  2  0  0  0  0
 15 16  2  0  0  0  0
 16 17  1  0  0  0  0
 16 18  1  0  0  0  0
 18 19  1  0  0  0  0
 18 20  1  0  0  0  0
 20 21  1  0  0  0  0
 22 23  2  0  0  0  0
 22 24  1  0  0  0  0
 24 25  1  0  0  0  0
 24 26  1  0  0  0  0
 26 27  1  0  0  0  0
 26 28  1  0  0  0  0
 26 29  1  0  0  0  0
M  END
$$$$

  -OEChem-04042215593D

 29 29  0     1  0  0  0  0  0999 V2000
   -2.4768   -4.4062    0.4127 H   0  0  0  0  0  0  0  0  0  0  0  0
   -2.6174   -3.4016    0.0032 C   0  0  0  0  0  0  0  0  0  0  0  0
   -3.3960   -2.8938    0.5773 H   0  0  0  0  0  0  0  0  0  0  0  0
   -2.9376   -3.4896   -1.0376 H   0  0  0  0  0  0  0  0  0  0  0  0
   -1.3192   -2.6205    0.0837 C   0  0  0  0  0  0  0  0  0  0  0  0
   -0.3464   -3.1270    0.6092 O   0  0  0  0  0  0  0  0  0  0  0  0
   -1.2599   -1.3461   -0.4467 N   0  0  0  0  0  0  0  0  0  0  0  0
   -2.0755   -1.0412   -0.9663 H   0  0  0  0  0  0  0  0  0  0  0  0
   -0.0314   -0.5274   -0.5336 C   0  0  1  0  0  0  0  0  0  0  0  0
    0.7264   -1.0743   -1.1060 H   0  0  0  0  0  0  0  0  0  0  0  0
   -0.4166    0.7499   -1.3340 C   0  0  0  0  0  0  0  0  0  0  0  0
   -0.0194    0.6477   -2.3480 H   0  0  0  0  0  0  0  0  0  0  0  0
   -1.5038    0.8262   -1.4203 H   0  0  0  0  0  0  0  0  0  0  0  0
    0.0825    2.0560   -0.7780 C   0  0  0  0  0  0  0  0  0  0  0  0
    1.4200    2.3665   -0.5989 N   0  0  0  0  0  0  0  0  0  0  0  0
    1.4654    3.5626   -0.0676 C   0  0  0  0  0  0  0  0  0  0  0  0
    2.3770    4.0874    0.2030 H   0  0  0  0  0  0  0  0  0  0  0  0
    0.1825    4.0540    0.0874 N   0  0  0  0  0  0  0  0  0  0  0  0
   -0.0522    4.9638    0.4799 H   0  0  0  0  0  0  0  0  0  0  0  0
   -0.7029    3.0979   -0.3660 C   0  0  0  0  0  0  0  0  0  0  0  0
   -1.7871    3.1449   -0.3851 H   0  0  0  0  0  0  0  0  0  0  0  0
    0.5940   -0.2508    0.8617 C   0  0  0  0  0  0  0  0  0  0  0  0
    1.7964   -0.3850    1.0509 O   0  0  0  0  0  0  0  0  0  0  0  0
   -0.2166    0.1319    1.9183 N   0  0  0  0  0  0  0  0  0  0  0  0
   -1.2163    0.0787    1.7625 H   0  0  0  0  0  0  0  0  0  0  0  0
    0.2796    0.2709    3.2805 C   0  0  0  0  0  0  0  0  0  0  0  0
    1.0897    1.0068    3.3181 H   0  0  0  0  0  0  0  0  0  0  0  0
   -0.5227    0.6070    3.9437 H   0  0  0  0  0  0  0  0  0  0  0  0
    0.6574   -0.6890    3.6483 H   0  0  0  0  0  0  0  0  0  0  0  0
  1  2  1  0  0  0  0
  2  3  1  0  0  0  0
  2  4  1  0  0  0  0
  2  5  1  0  0  0  0
  5  6  2  0  0  0  0
  5  7  1  0  0  0  0
  7  8  1  0  0  0  0
  7  9  1  0  0  0  0
  9 10  1  0  0  0  0
  9 11  1  0  0  0  0
  9 22  1  0  0  0  0
 11 12  1  0  0  0  0
 11 13  1  0  0  0  0
 11 14  1  0  0  0  0
 14 15  1  0  0  0  0
 14 20  2  0  0  0  0
 15 16  2  0  0  0  0
 16 17  1  0  0  0  0
 16 18  1  0  0  0  0
 18 19  1  0  0  0  0
 18 20  1  0  0  0  0
 20 21  1  0  0  0  0
 22 23  2  0  0  0  0
 22 24  1  0  0  0  0
 24 25  1  0  0  0  0
 24 26  1  0  0  0  0
 26 27  1  0  0  0  0
 26 28  1  0  0  0  0
 26 29  1  0  0  0  0
M  END
$$$$

  -OEChem-04042215593D

 29 29  0     1  0  0  0  0  0999 V2000
   -2.4553   -4.4323    0.4228 H   0  0  0  0  0  0  0  0  0  0  0  0
   -2.5991   -3.4484   -0.0332 C   0  0  0  0  0  0  0  0  0  0  0  0
   -3.4223   -2.9421    0.4763 H   0  0  0  0  0  0  0  0  0  0  0  0
   -2.8572   -3.5851   -1.0861 H   0  0  0  0  0  0  0  0  0  0  0  0
   -1.3282   -2.6281    0.0880 C   0  0  0  0  0  0  0  0  0  0  0  0
   -0.3582   -3.1041    0.6462 O   0  0  0  0  0  0  0  0  0  0  0  0
   -1.2876   -1.3523   -0.4413 N   0  0  0  0  0  0  0  0  0  0  0  0
   -2.0926   -1.0755   -0.9930 H   0  0  0  0  0  0  0  0  0  0  0  0
   -0.0671   -0.5222   -0.5317 C   0  0  1  0  0  0  0  0  0  0  0  0
    0.6913   -1.0652   -1.1068 H   0  0  0  0  0  0  0  0  0  0  0  0
   -0.4509    0.7564   -1.3282 C   0  0  0  0  0  0  0  0  0  0  0  0
   -0.0650    0.6637   -2.3476 H   0  0  0  0  0  0  0  0  0  0  0  0
   -1.5386    0.8385   -1.4006 H   0  0  0  0  0  0  0  0  0  0  0  0
    0.0570    2.0475   -0.7502 C   0  0  0  0  0  0  0  0  0  0  0  0
    1.3778    2.4533   -0.8409 N   0  0  0  0  0  0  0  0  0  0  0  0
    1.4637    3.5956   -0.2054 C   0  0  0  0  0  0  0  0  0  0  0  0
    2.3775    4.1696   -0.0818 H   0  0  0  0  0  0  0  0  0  0  0  0
    0.2191    3.9623    0.2728 N   0  0  0  0  0  0  0  0  0  0  0  0
    0.0240    4.8045    0.8105 H   0  0  0  0  0  0  0  0  0  0  0  0
   -0.6842    2.9804   -0.0785 C   0  0  0  0  0  0  0  0  0  0  0  0
   -1.7456    2.9354    0.1427 H   0  0  0  0  0  0  0  0  0  0  0  0
    0.5682   -0.2376    0.8573 C   0  0  0  0  0  0  0  0  0  0  0  0
    1.7808   -0.2911    1.0171 O   0  0  0  0  0  0  0  0  0  0  0  0
   -0.2360    0.1378    1.9212 N   0  0  0  0  0  0  0  0  0  0  0  0
   -1.2341    0.0167    1.7938 H   0  0  0  0  0  0  0  0  0  0  0  0
    0.2833    0.3355    3.2679 C   0  0  0  0  0  0  0  0  0  0  0  0
    1.0547    1.1129    3.2691 H   0  0  0  0  0  0  0  0  0  0  0  0
   -0.5200    0.6463    3.9421 H   0  0  0  0  0  0  0  0  0  0  0  0
    0.7189   -0.5941    3.6494 H   0  0  0  0  0  0  0  0  0  0  0  0
  1  2  1  0  0  0  0
  2  3  1  0  0  0  0
  2  4  1  0  0  0  0
  2  5  1  0  0  0  0
  5  6  2  0  0  0  0
  5  7  1  0  0  0  0
  7  8  1  0  0  0  0
  7  9  1  0  0  0  0
  9 10  1  0  0  0  0
  9 11  1  0  0  0  0
  9 22  1  0  0  0  0
 11 12  1  0  0  0  0
 11 13  1  0  0  0  0
 11 14  1  0  0  0  0
 14 15  1  0  0  0  0
 14 20  2  0  0  0  0
 15 16  2  0  0  0  0
 16 17  1  0  0  0  0
 16 18  1  0  0  0  0
 18 19  1  0  0  0  0
 18 20  1  0  0  0  0
 20 21  1  0  0  0  0
 22 23  2  0  0  0  0
 22 24  1  0  0  0  0
 24 25  1  0  0  0  0
 24 26  1  0  0  0  0
 26 27  1  0  0  0  0
 26 28  1  0  0  0  0
 26 29  1  0  0  0  0
M  END
$$$$

  -OEChem-04042215593D

 29 29  0     1  0  0  0  0  0999 V2000
   -2.4416   -4.4648    0.3657 H   0  0  0  0  0  0  0  0  0  0  0  0
   -2.5976   -3.4700   -0.0621 C   0  0  0  0  0  0  0  0  0  0  0  0
   -3.4287   -2.9898    0.4596 H   0  0  0  0  0  0  0  0  0  0  0  0
   -2.8518   -3.5797   -1.1191 H   0  0  0  0  0  0  0  0  0  0  0  0
   -1.3384   -2.6363    0.0858 C   0  0  0  0  0  0  0  0  0  0  0  0
   -0.3727   -3.1035    0.6591 O   0  0  0  0  0  0  0  0  0  0  0  0
   -1.3046   -1.3543   -0.4286 N   0  0  0  0  0  0  0  0  0  0  0  0
   -2.1010   -1.0862   -0.9973 H   0  0  0  0  0  0  0  0  0  0  0  0
   -0.0863   -0.5207   -0.5128 C   0  0  1  0  0  0  0  0  0  0  0  0
    0.6704   -1.0642   -1.0900 H   0  0  0  0  0  0  0  0  0  0  0  0
   -0.4541    0.7625   -1.3075 C   0  0  0  0  0  0  0  0  0  0  0  0
   -0.0680    0.6719   -2.3271 H   0  0  0  0  0  0  0  0  0  0  0  0
   -1.5410    0.8534   -1.3811 H   0  0  0  0  0  0  0  0  0  0  0  0
    0.0566    2.0483   -0.7200 C   0  0  0  0  0  0  0  0  0  0  0  0
    1.2903    2.5876   -1.0474 N   0  0  0  0  0  0  0  0  0  0  0  0
    1.4085    3.6942   -0.3556 C   0  0  0  0  0  0  0  0  0  0  0  0
    2.2767    4.3469   -0.3734 H   0  0  0  0  0  0  0  0  0  0  0  0
    0.2622    3.9111    0.3867 N   0  0  0  0  0  0  0  0  0  0  0  0
    0.1116    4.6986    1.0140 H   0  0  0  0  0  0  0  0  0  0  0  0
   -0.6094    2.8691    0.1484 C   0  0  0  0  0  0  0  0  0  0  0  0
   -1.5977    2.7111    0.5674 H   0  0  0  0  0  0  0  0  0  0  0  0
    0.5560   -0.2495    0.8751 C   0  0  0  0  0  0  0  0  0  0  0  0
    1.7727   -0.2382    1.0090 O   0  0  0  0  0  0  0  0  0  0  0  0
   -0.2432    0.1111    1.9476 N   0  0  0  0  0  0  0  0  0  0  0  0
   -1.2352   -0.0679    1.8412 H   0  0  0  0  0  0  0  0  0  0  0  0
    0.2904    0.3239    3.2864 C   0  0  0  0  0  0  0  0  0  0  0  0
    1.0378    1.1242    3.2773 H   0  0  0  0  0  0  0  0  0  0  0  0
   -0.5120    0.6100    3.9727 H   0  0  0  0  0  0  0  0  0  0  0  0
    0.7597   -0.5922    3.6603 H   0  0  0  0  0  0  0  0  0  0  0  0
  1  2  1  0  0  0  0
  2  3  1  0  0  0  0
  2  4  1  0  0  0  0
  2  5  1  0  0  0  0
  5  6  2  0  0  0  0
  5  7  1  0  0  0  0
  7  8  1  0  0  0  0
  7  9  1  0  0  0  0
  9 10  1  0  0  0  0
  9 11  1  0  0  0  0
  9 22  1  0  0  0  0
 11 12  1  0  0  0  0
 11 13  1  0  0  0  0
 11 14  1  0  0  0  0
 14 15  1  0  0  0  0
 14 20  2  0  0  0  0
 15 16  2  0  0  0  0
 16 17  1  0  0  0  0
 16 18  1  0  0  0  0
 18 19  1  0  0  0  0
 18 20  1  0  0  0  0
 20 21  1  0  0  0  0
 22 23  2  0  0  0  0
 22 24  1  0  0  0  0
 24 25  1  0  0  0  0
 24 26  1  0  0  0  0
 26 27  1  0  0  0  0
 26 28  1  0  0  0  0
 26 29  1  0  0  0  0
M  END
$$$$

  -OEChem-04042215593D

 29 29  0     1  0  0  0  0  0999 V2000
   -2.4463   -4.4822    0.3172 H   0  0  0  0  0  0  0  0  0  0  0  0
   -2.6050   -3.4793   -0.0897 C   0  0  0  0  0  0  0  0  0  0  0  0
   -3.4382   -3.0126    0.4411 H   0  0  0  0  0  0  0  0  0  0  0  0
   -2.8583   -3.5678   -1.1490 H   0  0  0  0  0  0  0  0  0  0  0  0
   -1.3483   -2.6452    0.0767 C   0  0  0  0  0  0  0  0  0  0  0  0
   -0.3828   -3.1195    0.6450 O   0  0  0  0  0  0  0  0  0  0  0  0
   -1.3152   -1.3538   -0.4140 N   0  0  0  0  0  0  0  0  0  0  0  0
   -2.1115   -1.0753   -0.9782 H   0  0  0  0  0  0  0  0  0  0  0  0
   -0.0956   -0.5214   -0.4870 C   0  0  1  0  0  0  0  0  0  0  0  0
    0.6569   -1.0683   -1.0662 H   0  0  0  0  0  0  0  0  0  0  0  0
   -0.4392    0.7680   -1.2820 C   0  0  0  0  0  0  0  0  0  0  0  0
   -0.0447    0.6715   -2.2982 H   0  0  0  0  0  0  0  0  0  0  0  0
   -1.5245    0.8674   -1.3683 H   0  0  0  0  0  0  0  0  0  0  0  0
    0.0687    2.0577   -0.6979 C   0  0  0  0  0  0  0  0  0  0  0  0
    1.1534    2.7389   -1.2293 N   0  0  0  0  0  0  0  0  0  0  0  0
    1.3084    3.8189   -0.5030 C   0  0  0  0  0  0  0  0  0  0  0  0
    2.0907    4.5581   -0.6502 H   0  0  0  0  0  0  0  0  0  0  0  0
    0.3227    3.8825    0.4640 N   0  0  0  0  0  0  0  0  0  0  0  0
    0.2326    4.6183    1.1617 H   0  0  0  0  0  0  0  0  0  0  0  0
   -0.4824    2.7710    0.3314 C   0  0  0  0  0  0  0  0  0  0  0  0
   -1.3507    2.4976    0.9215 H   0  0  0  0  0  0  0  0  0  0  0  0
    0.5528   -0.2770    0.9020 C   0  0  0  0  0  0  0  0  0  0  0  0
    1.7702   -0.2244    1.0178 O   0  0  0  0  0  0  0  0  0  0  0  0
   -0.2416    0.0643    1.9845 N   0  0  0  0  0  0  0  0  0  0  0  0
   -1.2277   -0.1523    1.8915 H   0  0  0  0  0  0  0  0  0  0  0  0
    0.3028    0.2748    3.3194 C   0  0  0  0  0  0  0  0  0  0  0  0
    1.0394    1.0851    3.3091 H   0  0  0  0  0  0  0  0  0  0  0  0
   -0.4965    0.5455    4.0155 H   0  0  0  0  0  0  0  0  0  0  0  0
    0.7874   -0.6378    3.6823 H   0  0  0  0  0  0  0  0  0  0  0  0
  1  2  1  0  0  0  0
  2  3  1  0  0  0  0
  2  4  1  0  0  0  0
  2  5  1  0  0  0  0
  5  6  2  0  0  0  0
  5  7  1  0  0  0  0
  7  8  1  0  0  0  0
  7  9  1  0  0  0  0
  9 10  1  0  0  0  0
  9 11  1  0  0  0  0
  9 22  1  0  0  0  0
 11 12  1  0  0  0  0
 11 13  1  0  0  0  0
 11 14  1  0  0  0  0
 14 15  1  0  0  0  0
 14 20  2  0  0  0  0
 15 16  2  0  0  0  0
 16 17  1  0  0  0  0
 16 18  1  0  0  0  0
 18 19  1  0  0  0  0
 18 20  1  0  0  0  0
 20 21  1  0  0  0  0
 22 23  2  0  0  0  0
 22 24  1  0  0  0  0
 24 25  1  0  0  0  0
 24 26  1  0  0  0  0
 26 27  1  0  0  0  0
 26 28  1  0  0  0  0
 26 29  1  0  0  0  0
M  END
$$$$

  -OEChem-04042215593D

 29 29  0     1  0  0  0  0  0999 V2000
   -2.4735   -4.4862    0.2599 H   0  0  0  0  0  0  0  0  0  0  0  0
   -2.6239   -3.4731   -0.1244 C   0  0  0  0  0  0  0  0  0  0  0  0
   -3.4514   -3.0103    0.4186 H   0  0  0  0  0  0  0  0  0  0  0  0
   -2.8806   -3.5355   -1.1847 H   0  0  0  0  0  0  0  0  0  0  0  0
   -1.3596   -2.6541    0.0578 C   0  0  0  0  0  0  0  0  0  0  0  0
   -0.3962   -3.1474    0.6136 O   0  0  0  0  0  0  0  0  0  0  0  0
   -1.3189   -1.3503   -0.3972 N   0  0  0  0  0  0  0  0  0  0  0  0
   -2.1190   -1.0462   -0.9428 H   0  0  0  0  0  0  0  0  0  0  0  0
   -0.0954   -0.5230   -0.4492 C   0  0  1  0  0  0  0  0  0  0  0  0
    0.6525   -1.0759   -1.0292 H   0  0  0  0  0  0  0  0  0  0  0  0
   -0.4074    0.7711   -1.2500 C   0  0  0  0  0  0  0  0  0  0  0  0
    0.0118    0.6605   -2.2547 H   0  0  0  0  0  0  0  0  0  0  0  0
   -1.4890    0.8762   -1.3676 H   0  0  0  0  0  0  0  0  0  0  0  0
    0.0872    2.0756   -0.6819 C   0  0  0  0  0  0  0  0  0  0  0  0
    0.9703    2.8845   -1.3839 N   0  0  0  0  0  0  0  0  0  0  0  0
    1.1646    3.9548   -0.6525 C   0  0  0  0  0  0  0  0  0  0  0  0
    1.8245    4.7760   -0.9175 H   0  0  0  0  0  0  0  0  0  0  0  0
    0.3950    3.8882    0.4926 N   0  0  0  0  0  0  0  0  0  0  0  0
    0.3758    4.5913    1.2286 H   0  0  0  0  0  0  0  0  0  0  0  0
   -0.3113    2.7046    0.4668 C   0  0  0  0  0  0  0  0  0  0  0  0
   -1.0223    2.3375    1.1992 H   0  0  0  0  0  0  0  0  0  0  0  0
    0.5583   -0.3180    0.9425 C   0  0  0  0  0  0  0  0  0  0  0  0
    1.7753   -0.2372    1.0449 O   0  0  0  0  0  0  0  0  0  0  0  0
   -0.2289   -0.0023    2.0382 N   0  0  0  0  0  0  0  0  0  0  0  0
   -1.2108   -0.2420    1.9531 H   0  0  0  0  0  0  0  0  0  0  0  0
    0.3271    0.1804    3.3730 C   0  0  0  0  0  0  0  0  0  0  0  0
    1.0640    0.9906    3.3736 H   0  0  0  0  0  0  0  0  0  0  0  0
   -0.4662    0.4370    4.0814 H   0  0  0  0  0  0  0  0  0  0  0  0
    0.8144   -0.7396    3.7131 H   0  0  0  0  0  0  0  0  0  0  0  0
  1  2  1  0  0  0  0
  2  3  1  0  0  0  0
  2  4  1  0  0  0  0
  2  5  1  0  0  0  0
  5  6  2  0  0  0  0
  5  7  1  0  0  0  0
  7  8  1  0  0  0  0
  7  9  1  0  0  0  0
  9 10  1  0  0  0  0
  9 11  1  0  0  0  0
  9 22  1  0  0  0  0
 11 12  1  0  0  0  0
 11 13  1  0  0  0  0
 11 14  1  0  0  0  0
 14 15  1  0  0  0  0
 14 20  2  0  0  0  0
 15 16  2  0  0  0  0
 16 17  1  0  0  0  0
 16 18  1  0  0  0  0
 18 19  1  0  0  0  0
 18 20  1  0  0  0  0
 20 21  1  0  0  0  0
 22 23  2  0  0  0  0
 22 24  1  0  0  0  0
 24 25  1  0  0  0  0
 24 26  1  0  0  0  0
 26 27  1  0  0  0  0
 26 28  1  0  0  0  0
 26 29  1  0  0  0  0
M  END
$$$$

  -OEChem-04042215593D

 29 29  0     1  0  0  0  0  0999 V2000
   -2.4979   -4.4876    0.1897 H   0  0  0  0  0  0  0  0  0  0  0  0
   -2.6415   -3.4626   -0.1643 C   0  0  0  0  0  0  0  0  0  0  0  0
   -3.4634   -3.0099    0.3951 H   0  0  0  0  0  0  0  0  0  0  0  0
   -2.9023   -3.4918   -1.2249 H   0  0  0  0  0  0  0  0  0  0  0  0
   -1.3703   -2.6589    0.0367 C   0  0  0  0  0  0  0  0  0  0  0  0
   -0.4077   -3.1760    0.5722 O   0  0  0  0  0  0  0  0  0  0  0  0
   -1.3208   -1.3417   -0.3773 N   0  0  0  0  0  0  0  0  0  0  0  0
   -2.1229   -1.0106   -0.9042 H   0  0  0  0  0  0  0  0  0  0  0  0
   -0.0930   -0.5203   -0.4046 C   0  0  1  0  0  0  0  0  0  0  0  0
    0.6508   -1.0774   -0.9861 H   0  0  0  0  0  0  0  0  0  0  0  0
   -0.3743    0.7799   -1.2093 C   0  0  0  0  0  0  0  0  0  0  0  0
    0.0763    0.6525   -2.1986 H   0  0  0  0  0  0  0  0  0  0  0  0
   -1.4507    0.8847   -1.3669 H   0  0  0  0  0  0  0  0  0  0  0  0
    0.1004    2.1076   -0.6690 C   0  0  0  0  0  0  0  0  0  0  0  0
    0.7295    3.0135   -1.5148 N   0  0  0  0  0  0  0  0  0  0  0  0
    0.9903    4.0840   -0.8053 C   0  0  0  0  0  0  0  0  0  0  0  0
    1.4974    4.9691   -1.1786 H   0  0  0  0  0  0  0  0  0  0  0  0
    0.5111    3.9221    0.4785 N   0  0  0  0  0  0  0  0  0  0  0  0
    0.5972    4.6051    1.2285 H   0  0  0  0  0  0  0  0  0  0  0  0
   -0.0773    2.6787    0.5638 C   0  0  0  0  0  0  0  0  0  0  0  0
   -0.5772    2.2494    1.4237 H   0  0  0  0  0  0  0  0  0  0  0  0
    0.5614   -0.3632    0.9910 C   0  0  0  0  0  0  0  0  0  0  0  0
    1.7779   -0.2723    1.0899 O   0  0  0  0  0  0  0  0  0  0  0  0
   -0.2219   -0.0789    2.0977 N   0  0  0  0  0  0  0  0  0  0  0  0
   -1.2044   -0.3168    2.0077 H   0  0  0  0  0  0  0  0  0  0  0  0
    0.3388    0.0499    3.4371 C   0  0  0  0  0  0  0  0  0  0  0  0
    1.0811    0.8545    3.4673 H   0  0  0  0  0  0  0  0  0  0  0  0
   -0.4513    0.2845    4.1566 H   0  0  0  0  0  0  0  0  0  0  0  0
    0.8208   -0.8855    3.7408 H   0  0  0  0  0  0  0  0  0  0  0  0
  1  2  1  0  0  0  0
  2  3  1  0  0  0  0
  2  4  1  0  0  0  0
  2  5  1  0  0  0  0
  5  6  2  0  0  0  0
  5  7  1  0  0  0  0
  7  8  1  0  0  0  0
  7  9  1  0  0  0  0
  9 10  1  0  0  0  0
  9 11  1  0  0  0  0
  9 22  1  0  0  0  0
 11 12  1  0  0  0  0
 11 13  1  0  0  0  0
 11 14  1  0  0  0  0
 14 15  1  0  0  0  0
 14 20  2  0  0  0  0
 15 16  2  0  0  0  0
 16 17  1  0  0  0  0
 16 18  1  0  0  0  0
 18 19  1  0  0  0  0
 18 20  1  0  0  0  0
 20 21  1  0  0  0  0
 22 23  2  0  0  0  0
 22 24  1  0  0  0  0
 24 25  1  0  0  0  0
 24 26  1  0  0  0  0
 26 27  1  0  0  0  0
 26 28  1  0  0  0  0
 26 29  1  0  0  0  0
M  END
$$$$

  -OEChem-04042215593D

 29 29  0     1  0  0  0  0  0999 V2000
   -2.5228   -4.4748    0.1479 H   0  0  0  0  0  0  0  0  0  0  0  0
   -2.6552   -3.4416   -0.1863 C   0  0  0  0  0  0  0  0  0  0  0  0
   -3.4682   -2.9884    0.3859 H   0  0  0  0  0  0  0  0  0  0  0  0
   -2.9222   -3.4482   -1.2459 H   0  0  0  0  0  0  0  0  0  0  0  0
   -1.3725   -2.6581    0.0208 C   0  0  0  0  0  0  0  0  0  0  0  0
   -0.4100   -3.1996    0.5320 O   0  0  0  0  0  0  0  0  0  0  0  0
   -1.3105   -1.3336   -0.3679 N   0  0  0  0  0  0  0  0  0  0  0  0
   -2.1159   -0.9796   -0.8747 H   0  0  0  0  0  0  0  0  0  0  0  0
   -0.0774   -0.5188   -0.3785 C   0  0  1  0  0  0  0  0  0  0  0  0
    0.6680   -1.0641   -0.9691 H   0  0  0  0  0  0  0  0  0  0  0  0
   -0.3637    0.7993   -1.1548 C   0  0  0  0  0  0  0  0  0  0  0  0
    0.0871    0.6763   -2.1446 H   0  0  0  0  0  0  0  0  0  0  0  0
   -1.4408    0.8957   -1.3142 H   0  0  0  0  0  0  0  0  0  0  0  0
    0.0911    2.1486   -0.6398 C   0  0  0  0  0  0  0  0  0  0  0  0
    0.3835    3.1294   -1.5822 N   0  0  0  0  0  0  0  0  0  0  0  0
    0.7741    4.1959   -0.9294 C   0  0  0  0  0  0  0  0  0  0  0  0
    1.0842    5.1293   -1.3903 H   0  0  0  0  0  0  0  0  0  0  0  0
    0.7284    3.9525    0.4266 N   0  0  0  0  0  0  0  0  0  0  0  0
    1.0110    4.6091    1.1515 H   0  0  0  0  0  0  0  0  0  0  0  0
    0.2943    2.6584    0.6175 C   0  0  0  0  0  0  0  0  0  0  0  0
    0.1647    2.1616    1.5699 H   0  0  0  0  0  0  0  0  0  0  0  0
    0.5558   -0.4063    1.0292 C   0  0  0  0  0  0  0  0  0  0  0  0
    1.7706   -0.3222    1.1519 O   0  0  0  0  0  0  0  0  0  0  0  0
   -0.2460   -0.1453    2.1290 N   0  0  0  0  0  0  0  0  0  0  0  0
   -1.2333   -0.3463    2.0059 H   0  0  0  0  0  0  0  0  0  0  0  0
    0.2843   -0.0913    3.4860 C   0  0  0  0  0  0  0  0  0  0  0  0
    1.0478    0.6892    3.5712 H   0  0  0  0  0  0  0  0  0  0  0  0
   -0.5172    0.1334    4.1960 H   0  0  0  0  0  0  0  0  0  0  0  0
    0.7319   -1.0528    3.7591 H   0  0  0  0  0  0  0  0  0  0  0  0
  1  2  1  0  0  0  0
  2  3  1  0  0  0  0
  2  4  1  0  0  0  0
  2  5  1  0  0  0  0
  5  6  2  0  0  0  0
  5  7  1  0  0  0  0
  7  8  1  0  0  0  0
  7  9  1  0  0  0  0
  9 10  1  0  0  0  0
  9 11  1  0  0  0  0
  9 22  1  0  0  0  0
 11 12  1  0  0  0  0
 11 13  1  0  0  0  0
 11 14  1  0  0  0  0
 14 15  1  0  0  0  0
 14 20  2  0  0  0  0
 15 16  2  0  0  0  0
 16 17  1  0  0  0  0
 16 18  1  0  0  0  0
 18 19  1  0  0  0  0
 18 20  1  0  0  0  0
 20 21  1  0  0  0  0
 22 23  2  0  0  0  0
 22 24  1  0  0  0  0
 24 25  1  0  0  0  0
 24 26  1  0  0  0  0
 26 27  1  0  0  0  0
 26 28  1  0  0  0  0
 26 29  1  0  0  0  0
M  END
$$$$

  -OEChem-04042215593D

 29 29  0     1  0  0  0  0  0999 V2000
   -2.5900   -4.4393    0.1470 H   0  0  0  0  0  0  0  0  0  0  0  0
   -2.7004   -3.4020   -0.1822 C   0  0  0  0  0  0  0  0  0  0  0  0
   -3.4973   -2.9314    0.3985 H   0  0  0  0  0  0  0  0  0  0  0  0
   -2.9762   -3.3980   -1.2396 H   0  0  0  0  0  0  0  0  0  0  0  0
   -1.3974   -2.6507    0.0170 C   0  0  0  0  0  0  0  0  0  0  0  0
   -0.4427   -3.2178    0.5152 O   0  0  0  0  0  0  0  0  0  0  0  0
   -1.3055   -1.3284   -0.3726 N   0  0  0  0  0  0  0  0  0  0  0  0
   -2.1075   -0.9517   -0.8686 H   0  0  0  0  0  0  0  0  0  0  0  0
   -0.0549   -0.5404   -0.3814 C   0  0  1  0  0  0  0  0  0  0  0  0
    0.6821   -1.0839   -0.9840 H   0  0  0  0  0  0  0  0  0  0  0  0
   -0.3489    0.7959   -1.1252 C   0  0  0  0  0  0  0  0  0  0  0  0
    0.0721    0.6885   -2.1297 H   0  0  0  0  0  0  0  0  0  0  0  0
   -1.4300    0.9008   -1.2499 H   0  0  0  0  0  0  0  0  0  0  0  0
    0.1180    2.1424   -0.6100 C   0  0  0  0  0  0  0  0  0  0  0  0
    0.0734    3.2029   -1.5096 N   0  0  0  0  0  0  0  0  0  0  0  0
    0.5582    4.2567   -0.9005 C   0  0  0  0  0  0  0  0  0  0  0  0
    0.6621    5.2417   -1.3464 H   0  0  0  0  0  0  0  0  0  0  0  0
    0.9174    3.9231    0.3873 N   0  0  0  0  0  0  0  0  0  0  0  0
    1.3533    4.5525    1.0585 H   0  0  0  0  0  0  0  0  0  0  0  0
    0.6506    2.5843    0.5758 C   0  0  0  0  0  0  0  0  0  0  0  0
    0.8592    2.0142    1.4733 H   0  0  0  0  0  0  0  0  0  0  0  0
    0.5711   -0.4446    1.0295 C   0  0  0  0  0  0  0  0  0  0  0  0
    1.7876   -0.4118    1.1636 O   0  0  0  0  0  0  0  0  0  0  0  0
   -0.2308   -0.1652    2.1243 N   0  0  0  0  0  0  0  0  0  0  0  0
   -1.2261   -0.3084    1.9867 H   0  0  0  0  0  0  0  0  0  0  0  0
    0.2836   -0.1414    3.4882 C   0  0  0  0  0  0  0  0  0  0  0  0
    1.0836    0.5998    3.5870 H   0  0  0  0  0  0  0  0  0  0  0  0
   -0.5150    0.1206    4.1888 H   0  0  0  0  0  0  0  0  0  0  0  0
    0.6791   -1.1250    3.7629 H   0  0  0  0  0  0  0  0  0  0  0  0
  1  2  1  0  0  0  0
  2  3  1  0  0  0  0
  2  4  1  0  0  0  0
  2  5  1  0  0  0  0
  5  6  2  0  0  0  0
  5  7  1  0  0  0  0
  7  8  1  0  0  0  0
  7  9  1  0  0  0  0
  9 10  1  0  0  0  0
  9 11  1  0  0  0  0
  9 22  1  0  0  0  0
 11 12  1  0  0  0  0
 11 13  1  0  0  0  0
 11 14  1  0  0  0  0
 14 15  1  0  0  0  0
 14 20  2  0  0  0  0
 15 16  2  0  0  0  0
 16 17  1  0  0  0  0
 16 18  1  0  0  0  0
 18 19  1  0  0  0  0
 18 20  1  0  0  0  0
 20 21  1  0  0  0  0
 22 23  2  0  0  0  0
 22 24  1  0  0  0  0
 24 25  1  0  0  0  0
 24 26  1  0  0  0  0
 26 27  1  0  0  0  0
 26 28  1  0  0  0  0
 26 29  1  0  0  0  0
M  END
$$$$

  -OEChem-04042215593D

 29 29  0     1  0  0  0  0  0999 V2000
   -2.6625   -4.3524    0.2779 H   0  0  0  0  0  0  0  0  0  0  0  0
   -2.7266   -3.3277   -0.1000 C   0  0  0  0  0  0  0  0  0  0  0  0
   -3.4860   -2.7894    0.4721 H   0  0  0  0  0  0  0  0  0  0  0  0
   -3.0244   -3.3595   -1.1508 H   0  0  0  0  0  0  0  0  0  0  0  0
   -1.3833   -2.6362    0.0392 C   0  0  0  0  0  0  0  0  0  0  0  0
   -0.4518   -3.2271    0.5526 O   0  0  0  0  0  0  0  0  0  0  0  0
   -1.2289   -1.3449   -0.4272 N   0  0  0  0  0  0  0  0  0  0  0  0
   -2.0157   -0.9519   -0.9345 H   0  0  0  0  0  0  0  0  0  0  0  0
    0.0457   -0.5964   -0.4300 C   0  0  1  0  0  0  0  0  0  0  0  0
    0.8008   -1.1457   -1.0032 H   0  0  0  0  0  0  0  0  0  0  0  0
   -0.2669    0.7358   -1.1667 C   0  0  0  0  0  0  0  0  0  0  0  0
   -0.1521    0.5535   -2.2392 H   0  0  0  0  0  0  0  0  0  0  0  0
   -1.3188    0.9831   -0.9956 H   0  0  0  0  0  0  0  0  0  0  0  0
    0.4758    2.0150   -0.8469 C   0  0  0  0  0  0  0  0  0  0  0  0
    0.1180    3.1534   -1.5618 N   0  0  0  0  0  0  0  0  0  0  0  0
    0.9139    4.1216   -1.1782 C   0  0  0  0  0  0  0  0  0  0  0  0
    0.8844    5.1395   -1.5565 H   0  0  0  0  0  0  0  0  0  0  0  0
    1.7957    3.6496   -0.2296 N   0  0  0  0  0  0  0  0  0  0  0  0
    2.5360    4.1937    0.2097 H   0  0  0  0  0  0  0  0  0  0  0  0
    1.5360    2.3116   -0.0278 C   0  0  0  0  0  0  0  0  0  0  0  0
    2.0896    1.6449    0.6238 H   0  0  0  0  0  0  0  0  0  0  0  0
    0.5981   -0.4390    1.0079 C   0  0  0  0  0  0  0  0  0  0  0  0
    1.7913   -0.5988    1.2349 O   0  0  0  0  0  0  0  0  0  0  0  0
   -0.2437   -0.0684    2.0420 N   0  0  0  0  0  0  0  0  0  0  0  0
   -1.2371   -0.0629    1.8357 H   0  0  0  0  0  0  0  0  0  0  0  0
    0.1860   -0.0099    3.4331 C   0  0  0  0  0  0  0  0  0  0  0  0
    1.0132    0.6980    3.5505 H   0  0  0  0  0  0  0  0  0  0  0  0
   -0.6407    0.3187    4.0701 H   0  0  0  0  0  0  0  0  0  0  0  0
    0.5160   -0.9974    3.7727 H   0  0  0  0  0  0  0  0  0  0  0  0
  1  2  1  0  0  0  0
  2  3  1  0  0  0  0
  2  4  1  0  0  0  0
  2  5  1  0  0  0  0
  5  6  2  0  0  0  0
  5  7  1  0  0  0  0
  7  8  1  0  0  0  0
  7  9  1  0  0  0  0
  9 10  1  0  0  0  0
  9 11  1  0  0  0  0
  9 22  1  0  0  0  0
 11 12  1  0  0  0  0
 11 13  1  0  0  0  0
 11 14  1  0  0  0  0
 14 15  1  0  0  0  0
 14 20  2  0  0  0  0
 15 16  2  0  0  0  0
 16 17  1  0  0  0  0
 16 18  1  0  0  0  0
 18 19  1  0  0  0  0
 18 20  1  0  0  0  0
 20 21  1  0  0  0  0
 22 23  2  0  0  0  0
 22 24  1  0  0  0  0
 24 25  1  0  0  0  0
 24 26  1  0  0  0  0
 26 27  1  0  0  0  0
 26 28  1  0  0  0  0
 26 29  1  0  0  0  0
M  END
$$$$

  -OEChem-04042215593D

 29 29  0     1  0  0  0  0  0999 V2000
   -2.6490   -4.3519    0.3376 H   0  0  0  0  0  0  0  0  0  0  0  0
   -2.7210   -3.3314   -0.0501 C   0  0  0  0  0  0  0  0  0  0  0  0
   -3.4613   -2.7839    0.5380 H   0  0  0  0  0  0  0  0  0  0  0  0
   -3.0496   -3.3746   -1.0912 H   0  0  0  0  0  0  0  0  0  0  0  0
   -1.3722   -2.6426    0.0419 C   0  0  0  0  0  0  0  0  0  0  0  0
   -0.4271   -3.2310    0.5329 O   0  0  0  0  0  0  0  0  0  0  0  0
   -1.2263   -1.3580   -0.4452 N   0  0  0  0  0  0  0  0  0  0  0  0
   -2.0298   -0.9595   -0.9211 H   0  0  0  0  0  0  0  0  0  0  0  0
    0.0434   -0.6020   -0.4633 C   0  0  1  0  0  0  0  0  0  0  0  0
    0.8003   -1.1488   -1.0365 H   0  0  0  0  0  0  0  0  0  0  0  0
   -0.2843    0.7273   -1.1959 C   0  0  0  0  0  0  0  0  0  0  0  0
   -0.1921    0.5597   -2.2728 H   0  0  0  0  0  0  0  0  0  0  0  0
   -1.3314    0.9755   -0.9982 H   0  0  0  0  0  0  0  0  0  0  0  0
    0.4766    1.9877   -0.8577 C   0  0  0  0  0  0  0  0  0  0  0  0
   -0.0313    3.2119   -1.2778 N   0  0  0  0  0  0  0  0  0  0  0  0
    0.8409    4.1288   -0.9340 C   0  0  0  0  0  0  0  0  0  0  0  0
    0.7303    5.1932   -1.1202 H   0  0  0  0  0  0  0  0  0  0  0  0
    1.9205    3.5369   -0.3121 N   0  0  0  0  0  0  0  0  0  0  0  0
    2.7461    4.0254    0.0300 H   0  0  0  0  0  0  0  0  0  0  0  0
    1.7061    2.1763   -0.2826 C   0  0  0  0  0  0  0  0  0  0  0  0
    2.3892    1.4177    0.0873 H   0  0  0  0  0  0  0  0  0  0  0  0
    0.5977   -0.4190    0.9732 C   0  0  0  0  0  0  0  0  0  0  0  0
    1.7901   -0.5782    1.2048 O   0  0  0  0  0  0  0  0  0  0  0  0
   -0.2447   -0.0375    2.0030 N   0  0  0  0  0  0  0  0  0  0  0  0
   -1.2365   -0.0038    1.7934 H   0  0  0  0  0  0  0  0  0  0  0  0
    0.1881    0.0627    3.3904 C   0  0  0  0  0  0  0  0  0  0  0  0
    0.9984    0.7930    3.4864 H   0  0  0  0  0  0  0  0  0  0  0  0
   -0.6434    0.3855    4.0240 H   0  0  0  0  0  0  0  0  0  0  0  0
    0.5429   -0.9088    3.7504 H   0  0  0  0  0  0  0  0  0  0  0  0
  1  2  1  0  0  0  0
  2  3  1  0  0  0  0
  2  4  1  0  0  0  0
  2  5  1  0  0  0  0
  5  6  2  0  0  0  0
  5  7  1  0  0  0  0
  7  8  1  0  0  0  0
  7  9  1  0  0  0  0
  9 10  1  0  0  0  0
  9 11  1  0  0  0  0
  9 22  1  0  0  0  0
 11 12  1  0  0  0  0
 11 13  1  0  0  0  0
 11 14  1  0  0  0  0
 14 15  1  0  0  0  0
 14 20  2  0  0  0  0
 15 16  2  0  0  0  0
 16 17  1  0  0  0  0
 16 18  1  0  0  0  0
 18 19  1  0  0  0  0
 18 20  1  0  0  0  0
 20 21  1  0  0  0  0
 22 23  2  0  0  0  0
 22 24  1  0  0  0  0
 24 25  1  0  0  0  0
 24 26  1  0  0  0  0
 26 27  1  0  0  0  0
 26 28  1  0  0  0  0
 26 29  1  0  0  0  0
M  END
$$$$

  -OEChem-04042215593D

 29 29  0     1  0  0  0  0  0999 V2000
   -2.6176   -4.3670    0.3832 H   0  0  0  0  0  0  0  0  0  0  0  0
   -2.7055   -3.3530   -0.0174 C   0  0  0  0  0  0  0  0  0  0  0  0
   -3.4385   -2.8027    0.5773 H   0  0  0  0  0  0  0  0  0  0  0  0
   -3.0544   -3.4140   -1.0510 H   0  0  0  0  0  0  0  0  0  0  0  0
   -1.3603   -2.6529    0.0376 C   0  0  0  0  0  0  0  0  0  0  0  0
   -0.3995   -3.2281    0.5137 O   0  0  0  0  0  0  0  0  0  0  0  0
   -1.2337   -1.3728   -0.4661 N   0  0  0  0  0  0  0  0  0  0  0  0
   -2.0535   -0.9757   -0.9143 H   0  0  0  0  0  0  0  0  0  0  0  0
    0.0261   -0.6023   -0.4974 C   0  0  1  0  0  0  0  0  0  0  0  0
    0.7844   -1.1512   -1.0669 H   0  0  0  0  0  0  0  0  0  0  0  0
   -0.3069    0.7153   -1.2453 C   0  0  0  0  0  0  0  0  0  0  0  0
   -0.2094    0.5471   -2.3215 H   0  0  0  0  0  0  0  0  0  0  0  0
   -1.3542    0.9666   -1.0515 H   0  0  0  0  0  0  0  0  0  0  0  0
    0.4715    1.9560   -0.8870 C   0  0  0  0  0  0  0  0  0  0  0  0
   -0.1081    3.2142   -0.9976 N   0  0  0  0  0  0  0  0  0  0  0  0
    0.8184    4.0856   -0.6757 C   0  0  0  0  0  0  0  0  0  0  0  0
    0.6786    5.1626   -0.6564 H   0  0  0  0  0  0  0  0  0  0  0  0
    1.9959    3.4314   -0.3736 N   0  0  0  0  0  0  0  0  0  0  0  0
    2.8671    3.8797   -0.0955 H   0  0  0  0  0  0  0  0  0  0  0  0
    1.7854    2.0786   -0.5251 C   0  0  0  0  0  0  0  0  0  0  0  0
    2.5060    1.2753   -0.3935 H   0  0  0  0  0  0  0  0  0  0  0  0
    0.5950   -0.3873    0.9300 C   0  0  0  0  0  0  0  0  0  0  0  0
    1.7959   -0.5045    1.1433 O   0  0  0  0  0  0  0  0  0  0  0  0
   -0.2401    0.0009    1.9630 N   0  0  0  0  0  0  0  0  0  0  0  0
   -1.2336    0.0380    1.7621 H   0  0  0  0  0  0  0  0  0  0  0  0
    0.2127    0.1739    3.3367 C   0  0  0  0  0  0  0  0  0  0  0  0
    1.0033    0.9299    3.3872 H   0  0  0  0  0  0  0  0  0  0  0  0
   -0.6177    0.5004    3.9697 H   0  0  0  0  0  0  0  0  0  0  0  0
    0.6008   -0.7705    3.7327 H   0  0  0  0  0  0  0  0  0  0  0  0
  1  2  1  0  0  0  0
  2  3  1  0  0  0  0
  2  4  1  0  0  0  0
  2  5  1  0  0  0  0
  5  6  2  0  0  0  0
  5  7  1  0  0  0  0
  7  8  1  0  0  0  0
  7  9  1  0  0  0  0
  9 10  1  0  0  0  0
  9 11  1  0  0  0  0
  9 22  1  0  0  0  0
 11 12  1  0  0  0  0
 11 13  1  0  0  0  0
 11 14  1  0  0  0  0
 14 15  1  0  0  0  0
 14 20  2  0  0  0  0
 15 16  2  0  0  0  0
 16 17  1  0  0  0  0
 16 18  1  0  0  0  0
 18 19  1  0  0  0  0
 18 20  1  0  0  0  0
 20 21  1  0  0  0  0
 22 23  2  0  0  0  0
 22 24  1  0  0  0  0
 24 25  1  0  0  0  0
 24 26  1  0  0  0  0
 26 27  1  0  0  0  0
 26 28  1  0  0  0  0
 26 29  1  0  0  0  0
M  END
$$$$

  -OEChem-04042215593D

 29 29  0     1  0  0  0  0  0999 V2000
   -2.5817   -4.3880    0.4056 H   0  0  0  0  0  0  0  0  0  0  0  0
   -2.6872   -3.3788   -0.0030 C   0  0  0  0  0  0  0  0  0  0  0  0
   -3.4191   -2.8316    0.5959 H   0  0  0  0  0  0  0  0  0  0  0  0
   -3.0484   -3.4537   -1.0315 H   0  0  0  0  0  0  0  0  0  0  0  0
   -1.3505   -2.6614    0.0277 C   0  0  0  0  0  0  0  0  0  0  0  0
   -0.3740   -3.2221    0.4896 O   0  0  0  0  0  0  0  0  0  0  0  0
   -1.2481   -1.3827   -0.4842 N   0  0  0  0  0  0  0  0  0  0  0  0
   -2.0836   -0.9892   -0.9056 H   0  0  0  0  0  0  0  0  0  0  0  0
   -0.0001   -0.5958   -0.5272 C   0  0  1  0  0  0  0  0  0  0  0  0
    0.7577   -1.1469   -1.0949 H   0  0  0  0  0  0  0  0  0  0  0  0
   -0.3368    0.7087   -1.2918 C   0  0  0  0  0  0  0  0  0  0  0  0
   -0.2222    0.5355   -2.3654 H   0  0  0  0  0  0  0  0  0  0  0  0
   -1.3863    0.9623   -1.1143 H   0  0  0  0  0  0  0  0  0  0  0  0
    0.4537    1.9327   -0.9147 C   0  0  0  0  0  0  0  0  0  0  0  0
   -0.1507    3.1676   -0.7168 N   0  0  0  0  0  0  0  0  0  0  0  0
    0.8128    4.0089   -0.4233 C   0  0  0  0  0  0  0  0  0  0  0  0
    0.6699    5.0631   -0.2033 H   0  0  0  0  0  0  0  0  0  0  0  0
    2.0311    3.3580   -0.4381 N   0  0  0  0  0  0  0  0  0  0  0  0
    2.9309    3.7827   -0.2218 H   0  0  0  0  0  0  0  0  0  0  0  0
    1.8079    2.0373   -0.7594 C   0  0  0  0  0  0  0  0  0  0  0  0
    2.5359    1.2342   -0.8479 H   0  0  0  0  0  0  0  0  0  0  0  0
    0.5916   -0.3538    0.8864 C   0  0  0  0  0  0  0  0  0  0  0  0
    1.8010   -0.4305    1.0696 O   0  0  0  0  0  0  0  0  0  0  0  0
   -0.2280    0.0353    1.9311 N   0  0  0  0  0  0  0  0  0  0  0  0
   -1.2233    0.0896    1.7437 H   0  0  0  0  0  0  0  0  0  0  0  0
    0.2563    0.2781    3.2830 C   0  0  0  0  0  0  0  0  0  0  0  0
    1.0039    1.0782    3.2845 H   0  0  0  0  0  0  0  0  0  0  0  0
   -0.5717    0.5774    3.9325 H   0  0  0  0  0  0  0  0  0  0  0  0
    0.7094   -0.6299    3.6948 H   0  0  0  0  0  0  0  0  0  0  0  0
  1  2  1  0  0  0  0
  2  3  1  0  0  0  0
  2  4  1  0  0  0  0
  2  5  1  0  0  0  0
  5  6  2  0  0  0  0
  5  7  1  0  0  0  0
  7  8  1  0  0  0  0
  7  9  1  0  0  0  0
  9 10  1  0  0  0  0
  9 11  1  0  0  0  0
  9 22  1  0  0  0  0
 11 12  1  0  0  0  0
 11 13  1  0  0  0  0
 11 14  1  0  0  0  0
 14 15  1  0  0  0  0
 14 20  2  0  0  0  0
 15 16  2  0  0  0  0
 16 17  1  0  0  0  0
 16 18  1  0  0  0  0
 18 19  1  0  0  0  0
 18 20  1  0  0  0  0
 20 21  1  0  0  0  0
 22 23  2  0  0  0  0
 22 24  1  0  0  0  0
 24 25  1  0  0  0  0
 24 26  1  0  0  0  0
 26 27  1  0  0  0  0
 26 28  1  0  0  0  0
 26 29  1  0  0  0  0
M  END
$$$$

  -OEChem-04042215593D

 29 29  0     1  0  0  0  0  0999 V2000
   -2.5587   -4.4027    0.4302 H   0  0  0  0  0  0  0  0  0  0  0  0
   -2.6755   -3.3998    0.0095 C   0  0  0  0  0  0  0  0  0  0  0  0
   -3.3930   -2.8450    0.6185 H   0  0  0  0  0  0  0  0  0  0  0  0
   -3.0615   -3.4890   -1.0087 H   0  0  0  0  0  0  0  0  0  0  0  0
   -1.3395   -2.6813   -0.0033 C   0  0  0  0  0  0  0  0  0  0  0  0
   -0.3452   -3.2437    0.4172 O   0  0  0  0  0  0  0  0  0  0  0  0
   -1.2570   -1.4003   -0.5118 N   0  0  0  0  0  0  0  0  0  0  0  0
   -2.1115   -0.9965   -0.8818 H   0  0  0  0  0  0  0  0  0  0  0  0
   -0.0194   -0.5988   -0.5568 C   0  0  1  0  0  0  0  0  0  0  0  0
    0.7405   -1.1441   -1.1276 H   0  0  0  0  0  0  0  0  0  0  0  0
   -0.3637    0.7022   -1.3203 C   0  0  0  0  0  0  0  0  0  0  0  0
   -0.2306    0.5337   -2.3924 H   0  0  0  0  0  0  0  0  0  0  0  0
   -1.4158    0.9549   -1.1579 H   0  0  0  0  0  0  0  0  0  0  0  0
    0.4353    1.9083   -0.9138 C   0  0  0  0  0  0  0  0  0  0  0  0
   -0.1496    3.0596   -0.4035 N   0  0  0  0  0  0  0  0  0  0  0  0
    0.8356    3.8904   -0.1544 C   0  0  0  0  0  0  0  0  0  0  0  0
    0.7166    4.8850    0.2657 H   0  0  0  0  0  0  0  0  0  0  0  0
    2.0428    3.3164   -0.5048 N   0  0  0  0  0  0  0  0  0  0  0  0
    2.9583    3.7437   -0.3777 H   0  0  0  0  0  0  0  0  0  0  0  0
    1.7916    2.0527   -0.9927 C   0  0  0  0  0  0  0  0  0  0  0  0
    2.5054    1.3067   -1.3319 H   0  0  0  0  0  0  0  0  0  0  0  0
    0.5862   -0.3460    0.8490 C   0  0  0  0  0  0  0  0  0  0  0  0
    1.8007   -0.3832    1.0092 O   0  0  0  0  0  0  0  0  0  0  0  0
   -0.2259    0.0348    1.9026 N   0  0  0  0  0  0  0  0  0  0  0  0
   -1.2151    0.1445    1.7074 H   0  0  0  0  0  0  0  0  0  0  0  0
    0.2844    0.3989    3.2170 C   0  0  0  0  0  0  0  0  0  0  0  0
    0.9352    1.2765    3.1443 H   0  0  0  0  0  0  0  0  0  0  0  0
   -0.5440    0.6357    3.8913 H   0  0  0  0  0  0  0  0  0  0  0  0
    0.8551   -0.4301    3.6486 H   0  0  0  0  0  0  0  0  0  0  0  0
  1  2  1  0  0  0  0
  2  3  1  0  0  0  0
  2  4  1  0  0  0  0
  2  5  1  0  0  0  0
  5  6  2  0  0  0  0
  5  7  1  0  0  0  0
  7  8  1  0  0  0  0
  7  9  1  0  0  0  0
  9 10  1  0  0  0  0
  9 11  1  0  0  0  0
  9 22  1  0  0  0  0
 11 12  1  0  0  0  0
 11 13  1  0  0  0  0
 11 14  1  0  0  0  0
 14 15  1  0  0  0  0
 14 20  2  0  0  0  0
 15 16  2  0  0  0  0
 16 17  1  0  0  0  0
 16 18  1  0  0  0  0
 18 19  1  0  0  0  0
 18 20  1  0  0  0  0
 20 21  1  0  0  0  0
 22 23  2  0  0  0  0
 22 24  1  0  0  0  0
 24 25  1  0  0  0  0
 24 26  1  0  0  0  0
 26 27  1  0  0  0  0
 26 28  1  0  0  0  0
 26 29  1  0  0  0  0
M  END
$$$$

  -OEChem-04042215593D

 29 29  0     1  0  0  0  0  0999 V2000
   -2.5398   -4.4205    0.4215 H   0  0  0  0  0  0  0  0  0  0  0  0
   -2.6693   -3.4116    0.0192 C   0  0  0  0  0  0  0  0  0  0  0  0
   -3.3659   -2.8650    0.6592 H   0  0  0  0  0  0  0  0  0  0  0  0
   -3.0884   -3.4864   -0.9871 H   0  0  0  0  0  0  0  0  0  0  0  0
   -1.3336   -2.6934   -0.0267 C   0  0  0  0  0  0  0  0  0  0  0  0
   -0.3275   -3.2607    0.3577 O   0  0  0  0  0  0  0  0  0  0  0  0
   -1.2638   -1.4098   -0.5308 N   0  0  0  0  0  0  0  0  0  0  0  0
   -2.1332   -0.9905   -0.8437 H   0  0  0  0  0  0  0  0  0  0  0  0
   -0.0326   -0.5991   -0.5711 C   0  0  1  0  0  0  0  0  0  0  0  0
    0.7296   -1.1431   -1.1400 H   0  0  0  0  0  0  0  0  0  0  0  0
   -0.3748    0.6963   -1.3430 C   0  0  0  0  0  0  0  0  0  0  0  0
   -0.2184    0.5234   -2.4115 H   0  0  0  0  0  0  0  0  0  0  0  0
   -1.4293    0.9512   -1.2028 H   0  0  0  0  0  0  0  0  0  0  0  0
    0.4260    1.8915   -0.9165 C   0  0  0  0  0  0  0  0  0  0  0  0
   -0.1008    2.9121   -0.1367 N   0  0  0  0  0  0  0  0  0  0  0  0
    0.8793    3.7642    0.0535 C   0  0  0  0  0  0  0  0  0  0  0  0
    0.8020    4.6767    0.6377 H   0  0  0  0  0  0  0  0  0  0  0  0
    2.0198    3.3339   -0.5985 N   0  0  0  0  0  0  0  0  0  0  0  0
    2.9249    3.7999   -0.5718 H   0  0  0  0  0  0  0  0  0  0  0  0
    1.7336    2.1386   -1.2216 C   0  0  0  0  0  0  0  0  0  0  0  0
    2.3984    1.5016   -1.7975 H   0  0  0  0  0  0  0  0  0  0  0  0
    0.5799   -0.3398    0.8307 C   0  0  0  0  0  0  0  0  0  0  0  0
    1.7963   -0.3623    0.9795 O   0  0  0  0  0  0  0  0  0  0  0  0
   -0.2277    0.0356    1.8901 N   0  0  0  0  0  0  0  0  0  0  0  0
   -1.2031    0.2145    1.6780 H   0  0  0  0  0  0  0  0  0  0  0  0
    0.3010    0.4674    3.1765 C   0  0  0  0  0  0  0  0  0  0  0  0
    0.8803    1.3893    3.0605 H   0  0  0  0  0  0  0  0  0  0  0  0
   -0.5178    0.6559    3.8773 H   0  0  0  0  0  0  0  0  0  0  0  0
    0.9478   -0.3064    3.6036 H   0  0  0  0  0  0  0  0  0  0  0  0
  1  2  1  0  0  0  0
  2  3  1  0  0  0  0
  2  4  1  0  0  0  0
  2  5  1  0  0  0  0
  5  6  2  0  0  0  0
  5  7  1  0  0  0  0
  7  8  1  0  0  0  0
  7  9  1  0  0  0  0
  9 10  1  0  0  0  0
  9 11  1  0  0  0  0
  9 22  1  0  0  0  0
 11 12  1  0  0  0  0
 11 13  1  0  0  0  0
 11 14  1  0  0  0  0
 14 15  1  0  0  0  0
 14 20  2  0  0  0  0
 15 16  2  0  0  0  0
 16 17  1  0  0  0  0
 16 18  1  0  0  0  0
 18 19  1  0  0  0  0
 18 20  1  0  0  0  0
 20 21  1  0  0  0  0
 22 23  2  0  0  0  0
 22 24  1  0  0  0  0
 24 25  1  0  0  0  0
 24 26  1  0  0  0  0
 26 27  1  0  0  0  0
 26 28  1  0  0  0  0
 26 29  1  0  0  0  0
M  END
$$$$

  -OEChem-04042215593D

 29 29  0     1  0  0  0  0  0999 V2000
   -2.5273   -4.4163    0.4435 H   0  0  0  0  0  0  0  0  0  0  0  0
   -2.6636   -3.4069    0.0450 C   0  0  0  0  0  0  0  0  0  0  0  0
   -3.3301   -2.8538    0.7110 H   0  0  0  0  0  0  0  0  0  0  0  0
   -3.1226   -3.4792   -0.9439 H   0  0  0  0  0  0  0  0  0  0  0  0
   -1.3241   -2.7005   -0.0534 C   0  0  0  0  0  0  0  0  0  0  0  0
   -0.3081   -3.2796    0.2850 O   0  0  0  0  0  0  0  0  0  0  0  0
   -1.2636   -1.4132   -0.5494 N   0  0  0  0  0  0  0  0  0  0  0  0
   -2.1448   -0.9758   -0.7972 H   0  0  0  0  0  0  0  0  0  0  0  0
   -0.0367   -0.5954   -0.5802 C   0  0  1  0  0  0  0  0  0  0  0  0
    0.7303   -1.1400   -1.1425 H   0  0  0  0  0  0  0  0  0  0  0  0
   -0.3702    0.6927   -1.3685 C   0  0  0  0  0  0  0  0  0  0  0  0
   -0.1936    0.5079   -2.4319 H   0  0  0  0  0  0  0  0  0  0  0  0
   -1.4271    0.9477   -1.2498 H   0  0  0  0  0  0  0  0  0  0  0  0
    0.4223    1.8908   -0.9357 C   0  0  0  0  0  0  0  0  0  0  0  0
   -0.0053    2.7572    0.0618 N   0  0  0  0  0  0  0  0  0  0  0  0
    0.9447    3.6528    0.1945 C   0  0  0  0  0  0  0  0  0  0  0  0
    0.9293    4.4704    0.9093 H   0  0  0  0  0  0  0  0  0  0  0  0
    1.9619    3.4067   -0.7091 N   0  0  0  0  0  0  0  0  0  0  0  0
    2.8278    3.9382   -0.7786 H   0  0  0  0  0  0  0  0  0  0  0  0
    1.6303    2.2834   -1.4359 C   0  0  0  0  0  0  0  0  0  0  0  0
    2.2068    1.7865   -2.2105 H   0  0  0  0  0  0  0  0  0  0  0  0
    0.5735   -0.3398    0.8238 C   0  0  0  0  0  0  0  0  0  0  0  0
    1.7900   -0.3644    0.9730 O   0  0  0  0  0  0  0  0  0  0  0  0
   -0.2354    0.0254    1.8863 N   0  0  0  0  0  0  0  0  0  0  0  0
   -1.1962    0.2551    1.6577 H   0  0  0  0  0  0  0  0  0  0  0  0
    0.3005    0.4773    3.1632 C   0  0  0  0  0  0  0  0  0  0  0  0
    0.8581    1.4105    3.0329 H   0  0  0  0  0  0  0  0  0  0  0  0
   -0.5131    0.6526    3.8734 H   0  0  0  0  0  0  0  0  0  0  0  0
    0.9698   -0.2784    3.5880 H   0  0  0  0  0  0  0  0  0  0  0  0
  1  2  1  0  0  0  0
  2  3  1  0  0  0  0
  2  4  1  0  0  0  0
  2  5  1  0  0  0  0
  5  6  2  0  0  0  0
  5  7  1  0  0  0  0
  7  8  1  0  0  0  0
  7  9  1  0  0  0  0
  9 10  1  0  0  0  0
  9 11  1  0  0  0  0
  9 22  1  0  0  0  0
 11 12  1  0  0  0  0
 11 13  1  0  0  0  0
 11 14  1  0  0  0  0
 14 15  1  0  0  0  0
 14 20  2  0  0  0  0
 15 16  2  0  0  0  0
 16 17  1  0  0  0  0
 16 18  1  0  0  0  0
 18 19  1  0  0  0  0
 18 20  1  0  0  0  0
 20 21  1  0  0  0  0
 22 23  2  0  0  0  0
 22 24  1  0  0  0  0
 24 25  1  0  0  0  0
 24 26  1  0  0  0  0
 26 27  1  0  0  0  0
 26 28  1  0  0  0  0
 26 29  1  0  0  0  0
M  END
$$$$

  -OEChem-04042215593D

 29 29  0     1  0  0  0  0  0999 V2000
   -2.5195   -4.4132    0.4366 H   0  0  0  0  0  0  0  0  0  0  0  0
   -2.6585   -3.3991    0.0509 C   0  0  0  0  0  0  0  0  0  0  0  0
   -3.3079   -2.8495    0.7363 H   0  0  0  0  0  0  0  0  0  0  0  0
   -3.1376   -3.4585   -0.9292 H   0  0  0  0  0  0  0  0  0  0  0  0
   -1.3174   -2.6996   -0.0691 C   0  0  0  0  0  0  0  0  0  0  0  0
   -0.2976   -3.2901    0.2364 O   0  0  0  0  0  0  0  0  0  0  0  0
   -1.2615   -1.4065   -0.5502 N   0  0  0  0  0  0  0  0  0  0  0  0
   -2.1481   -0.9565   -0.7512 H   0  0  0  0  0  0  0  0  0  0  0  0
   -0.0366   -0.5853   -0.5664 C   0  0  1  0  0  0  0  0  0  0  0  0
    0.7346   -1.1343   -1.1192 H   0  0  0  0  0  0  0  0  0  0  0  0
   -0.3549    0.6942   -1.3774 C   0  0  0  0  0  0  0  0  0  0  0  0
   -0.1661    0.4919   -2.4356 H   0  0  0  0  0  0  0  0  0  0  0  0
   -1.4146    0.9445   -1.2760 H   0  0  0  0  0  0  0  0  0  0  0  0
    0.4152    1.9137   -0.9595 C   0  0  0  0  0  0  0  0  0  0  0  0
    0.1397    2.6402    0.1919 N   0  0  0  0  0  0  0  0  0  0  0  0
    1.0393    3.5937    0.2468 C   0  0  0  0  0  0  0  0  0  0  0  0
    1.1126    4.3320    1.0402 H   0  0  0  0  0  0  0  0  0  0  0  0
    1.8733    3.5238   -0.8535 N   0  0  0  0  0  0  0  0  0  0  0  0
    2.6722    4.1317   -1.0245 H   0  0  0  0  0  0  0  0  0  0  0  0
    1.4772    2.4537   -1.6270 C   0  0  0  0  0  0  0  0  0  0  0  0
    1.9223    2.0865   -2.5468 H   0  0  0  0  0  0  0  0  0  0  0  0
    0.5681   -0.3440    0.8420 C   0  0  0  0  0  0  0  0  0  0  0  0
    1.7827   -0.3950    1.0005 O   0  0  0  0  0  0  0  0  0  0  0  0
   -0.2447    0.0069    1.9065 N   0  0  0  0  0  0  0  0  0  0  0  0
   -1.1915    0.2790    1.6681 H   0  0  0  0  0  0  0  0  0  0  0  0
    0.2915    0.4305    3.1924 C   0  0  0  0  0  0  0  0  0  0  0  0
    0.8507    1.3655    3.0824 H   0  0  0  0  0  0  0  0  0  0  0  0
   -0.5220    0.5914    3.9058 H   0  0  0  0  0  0  0  0  0  0  0  0
    0.9596   -0.3354    3.6003 H   0  0  0  0  0  0  0  0  0  0  0  0
  1  2  1  0  0  0  0
  2  3  1  0  0  0  0
  2  4  1  0  0  0  0
  2  5  1  0  0  0  0
  5  6  2  0  0  0  0
  5  7  1  0  0  0  0
  7  8  1  0  0  0  0
  7  9  1  0  0  0  0
  9 10  1  0  0  0  0
  9 11  1  0  0  0  0
  9 22  1  0  0  0  0
 11 12  1  0  0  0  0
 11 13  1  0  0  0  0
 11 14  1  0  0  0  0
 14 15  1  0  0  0  0
 14 20  2  0  0  0  0
 15 16  2  0  0  0  0
 16 17  1  0  0  0  0
 16 18  1  0  0  0  0
 18 19  1  0  0  0  0
 18 20  1  0  0  0  0
 20 21  1  0  0  0  0
 22 23  2  0  0  0  0
 22 24  1  0  0  0  0
 24 25  1  0  0  0  0
 24 26  1  0  0  0  0
 26 27  1  0  0  0  0
 26 28  1  0  0  0  0
 26 29  1  0  0  0  0
M  END
$$$$

  -OEChem-04042215593D

 29 29  0     1  0  0  0  0  0999 V2000
   -2.5181   -4.4048    0.4191 H   0  0  0  0  0  0  0  0  0  0  0  0
   -2.6535   -3.3867    0.0427 C   0  0  0  0  0  0  0  0  0  0  0  0
   -3.2939   -2.8382    0.7374 H   0  0  0  0  0  0  0  0  0  0  0  0
   -3.1407   -3.4351   -0.9341 H   0  0  0  0  0  0  0  0  0  0  0  0
   -1.3093   -2.6943   -0.0810 C   0  0  0  0  0  0  0  0  0  0  0  0
   -0.2908   -3.2955    0.2075 O   0  0  0  0  0  0  0  0  0  0  0  0
   -1.2512   -1.3948   -0.5443 N   0  0  0  0  0  0  0  0  0  0  0  0
   -2.1381   -0.9385   -0.7277 H   0  0  0  0  0  0  0  0  0  0  0  0
   -0.0256   -0.5739   -0.5420 C   0  0  1  0  0  0  0  0  0  0  0  0
    0.7500   -1.1227   -1.0886 H   0  0  0  0  0  0  0  0  0  0  0  0
   -0.3328    0.7021   -1.3666 C   0  0  0  0  0  0  0  0  0  0  0  0
   -0.1417    0.4857   -2.4215 H   0  0  0  0  0  0  0  0  0  0  0  0
   -1.3948    0.9439   -1.2707 H   0  0  0  0  0  0  0  0  0  0  0  0
    0.4093    1.9501   -0.9727 C   0  0  0  0  0  0  0  0  0  0  0  0
    0.3415    2.5573    0.2746 N   0  0  0  0  0  0  0  0  0  0  0  0
    1.1688    3.5742    0.2403 C   0  0  0  0  0  0  0  0  0  0  0  0
    1.3602    4.2473    1.0711 H   0  0  0  0  0  0  0  0  0  0  0  0
    1.7532    3.6652   -1.0085 N   0  0  0  0  0  0  0  0  0  0  0  0
    2.4525    4.3537   -1.2806 H   0  0  0  0  0  0  0  0  0  0  0  0
    1.2733    2.6312   -1.7838 C   0  0  0  0  0  0  0  0  0  0  0  0
    1.5389    2.3804   -2.8065 H   0  0  0  0  0  0  0  0  0  0  0  0
    0.5659   -0.3553    0.8757 C   0  0  0  0  0  0  0  0  0  0  0  0
    1.7754   -0.4490    1.0528 O   0  0  0  0  0  0  0  0  0  0  0  0
   -0.2557   -0.0204    1.9394 N   0  0  0  0  0  0  0  0  0  0  0  0
   -1.1928    0.2796    1.6971 H   0  0  0  0  0  0  0  0  0  0  0  0
    0.2708    0.3487    3.2464 C   0  0  0  0  0  0  0  0  0  0  0  0
    0.8693    1.2627    3.1726 H   0  0  0  0  0  0  0  0  0  0  0  0
   -0.5499    0.5248    3.9479 H   0  0  0  0  0  0  0  0  0  0  0  0
    0.8989   -0.4538    3.6473 H   0  0  0  0  0  0  0  0  0  0  0  0
  1  2  1  0  0  0  0
  2  3  1  0  0  0  0
  2  4  1  0  0  0  0
  2  5  1  0  0  0  0
  5  6  2  0  0  0  0
  5  7  1  0  0  0  0
  7  8  1  0  0  0  0
  7  9  1  0  0  0  0
  9 10  1  0  0  0  0
  9 11  1  0  0  0  0
  9 22  1  0  0  0  0
 11 12  1  0  0  0  0
 11 13  1  0  0  0  0
 11 14  1  0  0  0  0
 14 15  1  0  0  0  0
 14 20  2  0  0  0  0
 15 16  2  0  0  0  0
 16 17  1  0  0  0  0
 16 18  1  0  0  0  0
 18 19  1  0  0  0  0
 18 20  1  0  0  0  0
 20 21  1  0  0  0  0
 22 23  2  0  0  0  0
 22 24  1  0  0  0  0
 24 25  1  0  0  0  0
 24 26  1  0  0  0  0
 26 27  1  0  0  0  0
 26 28  1  0  0  0  0
 26 29  1  0  0  0  0
M  END
$$$$

  -OEChem-04042215593D

 29 29  0     1  0  0  0  0  0999 V2000
   -2.5162   -4.4011    0.3921 H   0  0  0  0  0  0  0  0  0  0  0  0
   -2.6490   -3.3787    0.0265 C   0  0  0  0  0  0  0  0  0  0  0  0
   -3.2891   -2.8365    0.7263 H   0  0  0  0  0  0  0  0  0  0  0  0
   -3.1353   -3.4157   -0.9511 H   0  0  0  0  0  0  0  0  0  0  0  0
   -1.3028   -2.6883   -0.0888 C   0  0  0  0  0  0  0  0  0  0  0  0
   -0.2864   -3.2992    0.1857 O   0  0  0  0  0  0  0  0  0  0  0  0
   -1.2415   -1.3826   -0.5354 N   0  0  0  0  0  0  0  0  0  0  0  0
   -2.1280   -0.9223   -0.7098 H   0  0  0  0  0  0  0  0  0  0  0  0
   -0.0139   -0.5629   -0.5185 C   0  0  1  0  0  0  0  0  0  0  0  0
    0.7652   -1.1060   -1.0652 H   0  0  0  0  0  0  0  0  0  0  0  0
   -0.3186    0.7191   -1.3402 C   0  0  0  0  0  0  0  0  0  0  0  0
   -0.1354    0.5011   -2.3962 H   0  0  0  0  0  0  0  0  0  0  0  0
   -1.3822    0.9509   -1.2376 H   0  0  0  0  0  0  0  0  0  0  0  0
    0.4014    1.9902   -0.9655 C   0  0  0  0  0  0  0  0  0  0  0  0
    0.5870    2.4908    0.3162 N   0  0  0  0  0  0  0  0  0  0  0  0
    1.3310    3.5640    0.2044 C   0  0  0  0  0  0  0  0  0  0  0  0
    1.6658    4.1783    1.0353 H   0  0  0  0  0  0  0  0  0  0  0  0
    1.6189    3.7966   -1.1260 N   0  0  0  0  0  0  0  0  0  0  0  0
    2.2031    4.5535   -1.4765 H   0  0  0  0  0  0  0  0  0  0  0  0
    1.0350    2.7951   -1.8723 C   0  0  0  0  0  0  0  0  0  0  0  0
    1.0863    2.6463   -2.9468 H   0  0  0  0  0  0  0  0  0  0  0  0
    0.5655   -0.3689    0.9071 C   0  0  0  0  0  0  0  0  0  0  0  0
    1.7680   -0.5060    1.1030 O   0  0  0  0  0  0  0  0  0  0  0  0
   -0.2675   -0.0492    1.9669 N   0  0  0  0  0  0  0  0  0  0  0  0
   -1.1999    0.2616    1.7221 H   0  0  0  0  0  0  0  0  0  0  0  0
    0.2459    0.2752    3.2905 C   0  0  0  0  0  0  0  0  0  0  0  0
    0.8802    1.1665    3.2449 H   0  0  0  0  0  0  0  0  0  0  0  0
   -0.5811    0.4703    3.9795 H   0  0  0  0  0  0  0  0  0  0  0  0
    0.8352   -0.5582    3.6871 H   0  0  0  0  0  0  0  0  0  0  0  0
  1  2  1  0  0  0  0
  2  3  1  0  0  0  0
  2  4  1  0  0  0  0
  2  5  1  0  0  0  0
  5  6  2  0  0  0  0
  5  7  1  0  0  0  0
  7  8  1  0  0  0  0
  7  9  1  0  0  0  0
  9 10  1  0  0  0  0
  9 11  1  0  0  0  0
  9 22  1  0  0  0  0
 11 12  1  0  0  0  0
 11 13  1  0  0  0  0
 11 14  1  0  0  0  0
 14 15  1  0  0  0  0
 14 20  2  0  0  0  0
 15 16  2  0  0  0  0
 16 17  1  0  0  0  0
 16 18  1  0  0  0  0
 18 19  1  0  0  0  0
 18 20  1  0  0  0  0
 20 21  1  0  0  0  0
 22 23  2  0  0  0  0
 22 24  1  0  0  0  0
 24 25  1  0  0  0  0
 24 26  1  0  0  0  0
 26 27  1  0  0  0  0
 26 28  1  0  0  0  0
 26 29  1  0  0  0  0
M  END
$$$$

  -OEChem-04042215593D

 29 29  0     1  0  0  0  0  0999 V2000
   -2.5385   -4.3828    0.3653 H   0  0  0  0  0  0  0  0  0  0  0  0
   -2.6581   -3.3559    0.0085 C   0  0  0  0  0  0  0  0  0  0  0  0
   -3.2979   -2.8137    0.7086 H   0  0  0  0  0  0  0  0  0  0  0  0
   -3.1367   -3.3788   -0.9733 H   0  0  0  0  0  0  0  0  0  0  0  0
   -1.3044   -2.6779   -0.0892 C   0  0  0  0  0  0  0  0  0  0  0  0
   -0.2977   -3.3006    0.1933 O   0  0  0  0  0  0  0  0  0  0  0  0
   -1.2259   -1.3704   -0.5280 N   0  0  0  0  0  0  0  0  0  0  0  0
   -2.1059   -0.9023   -0.7133 H   0  0  0  0  0  0  0  0  0  0  0  0
    0.0100   -0.5623   -0.4994 C   0  0  1  0  0  0  0  0  0  0  0  0
    0.7899   -1.1038   -1.0472 H   0  0  0  0  0  0  0  0  0  0  0  0
   -0.2957    0.7282   -1.3116 C   0  0  0  0  0  0  0  0  0  0  0  0
   -0.1224    0.5126   -2.3700 H   0  0  0  0  0  0  0  0  0  0  0  0
   -1.3590    0.9562   -1.1987 H   0  0  0  0  0  0  0  0  0  0  0  0
    0.4128    2.0128   -0.9519 C   0  0  0  0  0  0  0  0  0  0  0  0
    0.8690    2.4153    0.2950 N   0  0  0  0  0  0  0  0  0  0  0  0
    1.5000    3.5516    0.1327 C   0  0  0  0  0  0  0  0  0  0  0  0
    1.9835    4.1137    0.9265 H   0  0  0  0  0  0  0  0  0  0  0  0
    1.4528    3.9225   -1.1962 N   0  0  0  0  0  0  0  0  0  0  0  0
    1.8901    4.7538   -1.5895 H   0  0  0  0  0  0  0  0  0  0  0  0
    0.7708    2.9445   -1.8890 C   0  0  0  0  0  0  0  0  0  0  0  0
    0.5772    2.8961   -2.9563 H   0  0  0  0  0  0  0  0  0  0  0  0
    0.5753   -0.3870    0.9347 C   0  0  0  0  0  0  0  0  0  0  0  0
    1.7664   -0.5786    1.1526 O   0  0  0  0  0  0  0  0  0  0  0  0
   -0.2665   -0.0671    1.9881 N   0  0  0  0  0  0  0  0  0  0  0  0
   -1.1980    0.2449    1.7420 H   0  0  0  0  0  0  0  0  0  0  0  0
    0.2299    0.2064    3.3299 C   0  0  0  0  0  0  0  0  0  0  0  0
    0.8919    1.0787    3.3209 H   0  0  0  0  0  0  0  0  0  0  0  0
   -0.6041    0.4081    4.0082 H   0  0  0  0  0  0  0  0  0  0  0  0
    0.7862   -0.6547    3.7152 H   0  0  0  0  0  0  0  0  0  0  0  0
  1  2  1  0  0  0  0
  2  3  1  0  0  0  0
  2  4  1  0  0  0  0
  2  5  1  0  0  0  0
  5  6  2  0  0  0  0
  5  7  1  0  0  0  0
  7  8  1  0  0  0  0
  7  9  1  0  0  0  0
  9 10  1  0  0  0  0
  9 11  1  0  0  0  0
  9 22  1  0  0  0  0
 11 12  1  0  0  0  0
 11 13  1  0  0  0  0
 11 14  1  0  0  0  0
 14 15  1  0  0  0  0
 14 20  2  0  0  0  0
 15 16  2  0  0  0  0
 16 17  1  0  0  0  0
 16 18  1  0  0  0  0
 18 19  1  0  0  0  0
 18 20  1  0  0  0  0
 20 21  1  0  0  0  0
 22 23  2  0  0  0  0
 22 24  1  0  0  0  0
 24 25  1  0  0  0  0
 24 26  1  0  0  0  0
 26 27  1  0  0  0  0
 26 28  1  0  0  0  0
 26 29  1  0  0  0  0
M  END
$$$$

  -OEChem-04042215593D

 29 29  0     1  0  0  0  0  0999 V2000
   -2.5729   -4.3473    0.3772 H   0  0  0  0  0  0  0  0  0  0  0  0
   -2.6730   -3.3231    0.0063 C   0  0  0  0  0  0  0  0  0  0  0  0
   -3.3167   -2.7640    0.6895 H   0  0  0  0  0  0  0  0  0  0  0  0
   -3.1360   -3.3515   -0.9830 H   0  0  0  0  0  0  0  0  0  0  0  0
   -1.3086   -2.6645   -0.0768 C   0  0  0  0  0  0  0  0  0  0  0  0
   -0.3150   -3.3007    0.2204 O   0  0  0  0  0  0  0  0  0  0  0  0
   -1.2074   -1.3599   -0.5199 N   0  0  0  0  0  0  0  0  0  0  0  0
   -2.0774   -0.8873   -0.7371 H   0  0  0  0  0  0  0  0  0  0  0  0
    0.0395   -0.5673   -0.4930 C   0  0  1  0  0  0  0  0  0  0  0  0
    0.8167   -1.1091   -1.0440 H   0  0  0  0  0  0  0  0  0  0  0  0
   -0.2722    0.7316   -1.2914 C   0  0  0  0  0  0  0  0  0  0  0  0
   -0.1091    0.5222   -2.3525 H   0  0  0  0  0  0  0  0  0  0  0  0
   -1.3343    0.9594   -1.1674 H   0  0  0  0  0  0  0  0  0  0  0  0
    0.4384    2.0189   -0.9439 C   0  0  0  0  0  0  0  0  0  0  0  0
    1.1654    2.3309    0.1947 N   0  0  0  0  0  0  0  0  0  0  0  0
    1.6637    3.5306    0.0293 C   0  0  0  0  0  0  0  0  0  0  0  0
    2.2904    4.0497    0.7489 H   0  0  0  0  0  0  0  0  0  0  0  0
    1.2692    4.0293   -1.1958 N   0  0  0  0  0  0  0  0  0  0  0  0
    1.5410    4.9339   -1.5763 H   0  0  0  0  0  0  0  0  0  0  0  0
    0.4983    3.0706   -1.8189 C   0  0  0  0  0  0  0  0  0  0  0  0
    0.0475    3.1166   -2.8057 H   0  0  0  0  0  0  0  0  0  0  0  0
    0.5954   -0.3995    0.9460 C   0  0  0  0  0  0  0  0  0  0  0  0
    1.7724   -0.6436    1.1858 O   0  0  0  0  0  0  0  0  0  0  0  0
   -0.2527   -0.0672    1.9905 N   0  0  0  0  0  0  0  0  0  0  0  0
   -1.1890    0.2295    1.7448 H   0  0  0  0  0  0  0  0  0  0  0  0
    0.2220    0.1480    3.3505 C   0  0  0  0  0  0  0  0  0  0  0  0
    0.9509    0.9648    3.3742 H   0  0  0  0  0  0  0  0  0  0  0  0
   -0.6137    0.4073    4.0069 H   0  0  0  0  0  0  0  0  0  0  0  0
    0.6964   -0.7599    3.7378 H   0  0  0  0  0  0  0  0  0  0  0  0
  1  2  1  0  0  0  0
  2  3  1  0  0  0  0
  2  4  1  0  0  0  0
  2  5  1  0  0  0  0
  5  6  2  0  0  0  0
  5  7  1  0  0  0  0
  7  8  1  0  0  0  0
  7  9  1  0  0  0  0
  9 10  1  0  0  0  0
  9 11  1  0  0  0  0
  9 22  1  0  0  0  0
 11 12  1  0  0  0  0
 11 13  1  0  0  0  0
 11 14  1  0  0  0  0
 14 15  1  0  0  0  0
 14 20  2  0  0  0  0
 15 16  2  0  0  0  0
 16 17  1  0  0  0  0
 16 18  1  0  0  0  0
 18 19  1  0  0  0  0
 18 20  1  0  0  0  0
 20 21  1  0  0  0  0
 22 23  2  0  0  0  0
 22 24  1  0  0  0  0
 24 25  1  0  0  0  0
 24 26  1  0  0  0  0
 26 27  1  0  0  0  0
 26 28  1  0  0  0  0
 26 29  1  0  0  0  0
M  END
$$$$

  -OEChem-04042215593D

 29 29  0     1  0  0  0  0  0999 V2000
   -2.6005   -4.3143    0.4156 H   0  0  0  0  0  0  0  0  0  0  0  0
   -2.6846   -3.2956    0.0257 C   0  0  0  0  0  0  0  0  0  0  0  0
   -3.3417   -2.7220    0.6833 H   0  0  0  0  0  0  0  0  0  0  0  0
   -3.1228   -3.3377   -0.9741 H   0  0  0  0  0  0  0  0  0  0  0  0
   -1.3145   -2.6468   -0.0345 C   0  0  0  0  0  0  0  0  0  0  0  0
   -0.3351   -3.2806    0.3100 O   0  0  0  0  0  0  0  0  0  0  0  0
   -1.1932   -1.3545   -0.5080 N   0  0  0  0  0  0  0  0  0  0  0  0
   -2.0491   -0.8941   -0.7956 H   0  0  0  0  0  0  0  0  0  0  0  0
    0.0651   -0.5783   -0.5097 C   0  0  1  0  0  0  0  0  0  0  0  0
    0.8343   -1.1269   -1.0651 H   0  0  0  0  0  0  0  0  0  0  0  0
   -0.2602    0.7236   -1.2986 C   0  0  0  0  0  0  0  0  0  0  0  0
   -0.1072    0.5139   -2.3613 H   0  0  0  0  0  0  0  0  0  0  0  0
   -1.3199    0.9574   -1.1636 H   0  0  0  0  0  0  0  0  0  0  0  0
    0.4723    2.0027   -0.9680 C   0  0  0  0  0  0  0  0  0  0  0  0
    1.4520    2.2207   -0.0130 N   0  0  0  0  0  0  0  0  0  0  0  0
    1.8187    3.4744   -0.0992 C   0  0  0  0  0  0  0  0  0  0  0  0
    2.5788    3.9447    0.5183 H   0  0  0  0  0  0  0  0  0  0  0  0
    1.0902    4.0997   -1.0913 N   0  0  0  0  0  0  0  0  0  0  0  0
    1.1929    5.0739   -1.3691 H   0  0  0  0  0  0  0  0  0  0  0  0
    0.2362    3.1690   -1.6456 C   0  0  0  0  0  0  0  0  0  0  0  0
   -0.4709    3.3134   -2.4568 H   0  0  0  0  0  0  0  0  0  0  0  0
    0.6223   -0.3927    0.9276 C   0  0  0  0  0  0  0  0  0  0  0  0
    1.7870   -0.6734    1.1857 O   0  0  0  0  0  0  0  0  0  0  0  0
   -0.2264   -0.0286    1.9610 N   0  0  0  0  0  0  0  0  0  0  0  0
   -1.1802    0.2085    1.7183 H   0  0  0  0  0  0  0  0  0  0  0  0
    0.2216    0.1361    3.3368 C   0  0  0  0  0  0  0  0  0  0  0  0
    1.0118    0.8922    3.3925 H   0  0  0  0  0  0  0  0  0  0  0  0
   -0.6105    0.4569    3.9705 H   0  0  0  0  0  0  0  0  0  0  0  0
    0.6102   -0.8104    3.7269 H   0  0  0  0  0  0  0  0  0  0  0  0
  1  2  1  0  0  0  0
  2  3  1  0  0  0  0
  2  4  1  0  0  0  0
  2  5  1  0  0  0  0
  5  6  2  0  0  0  0
  5  7  1  0  0  0  0
  7  8  1  0  0  0  0
  7  9  1  0  0  0  0
  9 10  1  0  0  0  0
  9 11  1  0  0  0  0
  9 22  1  0  0  0  0
 11 12  1  0  0  0  0
 11 13  1  0  0  0  0
 11 14  1  0  0  0  0
 14 15  1  0  0  0  0
 14 20  2  0  0  0  0
 15 16  2  0  0  0  0
 16 17  1  0  0  0  0
 16 18  1  0  0  0  0
 18 19  1  0  0  0  0
 18 20  1  0  0  0  0
 20 21  1  0  0  0  0
 22 23  2  0  0  0  0
 22 24  1  0  0  0  0
 24 25  1  0  0  0  0
 24 26  1  0  0  0  0
 26 27  1  0  0  0  0
 26 28  1  0  0  0  0
 26 29  1  0  0  0  0
M  END
$$$$

  -OEChem-04042215593D

 29 29  0     1  0  0  0  0  0999 V2000
   -2.6064   -4.3028    0.4442 H   0  0  0  0  0  0  0  0  0  0  0  0
   -2.6853   -3.2911    0.0358 C   0  0  0  0  0  0  0  0  0  0  0  0
   -3.3796   -2.7169    0.6538 H   0  0  0  0  0  0  0  0  0  0  0  0
   -3.0771   -3.3534   -0.9820 H   0  0  0  0  0  0  0  0  0  0  0  0
   -1.3222   -2.6244    0.0285 C   0  0  0  0  0  0  0  0  0  0  0  0
   -0.3575   -3.2291    0.4558 O   0  0  0  0  0  0  0  0  0  0  0  0
   -1.1933   -1.3483   -0.4851 N   0  0  0  0  0  0  0  0  0  0  0  0
   -2.0278   -0.9347   -0.8852 H   0  0  0  0  0  0  0  0  0  0  0  0
    0.0681   -0.5775   -0.5268 C   0  0  1  0  0  0  0  0  0  0  0  0
    0.8295   -1.1338   -1.0847 H   0  0  0  0  0  0  0  0  0  0  0  0
   -0.2804    0.7156   -1.3192 C   0  0  0  0  0  0  0  0  0  0  0  0
   -0.1363    0.4968   -2.3812 H   0  0  0  0  0  0  0  0  0  0  0  0
   -1.3392    0.9496   -1.1762 H   0  0  0  0  0  0  0  0  0  0  0  0
    0.4716    1.9882   -1.0107 C   0  0  0  0  0  0  0  0  0  0  0  0
    1.6518    2.1296   -0.2999 N   0  0  0  0  0  0  0  0  0  0  0  0
    1.9346    3.4068   -0.2524 C   0  0  0  0  0  0  0  0  0  0  0  0
    2.8044    3.8346    0.2381 H   0  0  0  0  0  0  0  0  0  0  0  0
    0.9580    4.1197   -0.9191 N   0  0  0  0  0  0  0  0  0  0  0  0
    0.9450    5.1316   -1.0322 H   0  0  0  0  0  0  0  0  0  0  0  0
    0.0257    3.2233   -1.3992 C   0  0  0  0  0  0  0  0  0  0  0  0
   -0.8743    3.4382   -1.9669 H   0  0  0  0  0  0  0  0  0  0  0  0
    0.6418   -0.3505    0.8988 C   0  0  0  0  0  0  0  0  0  0  0  0
    1.8068   -0.6269    1.1590 O   0  0  0  0  0  0  0  0  0  0  0  0
   -0.1980    0.0483    1.9267 N   0  0  0  0  0  0  0  0  0  0  0  0
   -1.1777    0.1709    1.7024 H   0  0  0  0  0  0  0  0  0  0  0  0
    0.2370    0.1594    3.3123 C   0  0  0  0  0  0  0  0  0  0  0  0
    1.0703    0.8651    3.3948 H   0  0  0  0  0  0  0  0  0  0  0  0
   -0.5838    0.5189    3.9396 H   0  0  0  0  0  0  0  0  0  0  0  0
    0.5622   -0.8158    3.6897 H   0  0  0  0  0  0  0  0  0  0  0  0
  1  2  1  0  0  0  0
  2  3  1  0  0  0  0
  2  4  1  0  0  0  0
  2  5  1  0  0  0  0
  5  6  2  0  0  0  0
  5  7  1  0  0  0  0
  7  8  1  0  0  0  0
  7  9  1  0  0  0  0
  9 10  1  0  0  0  0
  9 11  1  0  0  0  0
  9 22  1  0  0  0  0
 11 12  1  0  0  0  0
 11 13  1  0  0  0  0
 11 14  1  0  0  0  0
 14 15  1  0  0  0  0
 14 20  2  0  0  0  0
 15 16  2  0  0  0  0
 16 17  1  0  0  0  0
 16 18  1  0  0  0  0
 18 19  1  0  0  0  0
 18 20  1  0  0  0  0
 20 21  1  0  0  0  0
 22 23  2  0  0  0  0
 22 24  1  0  0  0  0
 24 25  1  0  0  0  0
 24 26  1  0  0  0  0
 26 27  1  0  0  0  0
 26 28  1  0  0  0  0
 26 29  1  0  0  0  0
M  END
$$$$

  -OEChem-04042215593D

 29 29  0     1  0  0  0  0  0999 V2000
   -2.5543   -4.3299    0.4635 H   0  0  0  0  0  0  0  0  0  0  0  0
   -2.6540   -3.3282    0.0356 C   0  0  0  0  0  0  0  0  0  0  0  0
   -3.4000   -2.7740    0.6100 H   0  0  0  0  0  0  0  0  0  0  0  0
   -2.9930   -3.4218   -0.9988 H   0  0  0  0  0  0  0  0  0  0  0  0
   -1.3199   -2.6069    0.0839 C   0  0  0  0  0  0  0  0  0  0  0  0
   -0.3617   -3.1562    0.5922 O   0  0  0  0  0  0  0  0  0  0  0  0
   -1.2113   -1.3437   -0.4655 N   0  0  0  0  0  0  0  0  0  0  0  0
   -2.0248   -1.0008   -0.9642 H   0  0  0  0  0  0  0  0  0  0  0  0
    0.0419   -0.5616   -0.5470 C   0  0  1  0  0  0  0  0  0  0  0  0
    0.8010   -1.1145   -1.1114 H   0  0  0  0  0  0  0  0  0  0  0  0
   -0.3396    0.7219   -1.3372 C   0  0  0  0  0  0  0  0  0  0  0  0
   -0.2124    0.5038   -2.4011 H   0  0  0  0  0  0  0  0  0  0  0  0
   -1.3964    0.9515   -1.1736 H   0  0  0  0  0  0  0  0  0  0  0  0
    0.4281    1.9840   -1.0349 C   0  0  0  0  0  0  0  0  0  0  0  0
    1.7444    2.0612   -0.6125 N   0  0  0  0  0  0  0  0  0  0  0  0
    2.0173    3.3260   -0.4136 C   0  0  0  0  0  0  0  0  0  0  0  0
    2.9747    3.7100   -0.0732 H   0  0  0  0  0  0  0  0  0  0  0  0
    0.9040    4.0905   -0.7043 N   0  0  0  0  0  0  0  0  0  0  0  0
    0.8544    5.1048   -0.6295 H   0  0  0  0  0  0  0  0  0  0  0  0
   -0.1108    3.2411   -1.0940 C   0  0  0  0  0  0  0  0  0  0  0  0
   -1.1252    3.5006   -1.3802 H   0  0  0  0  0  0  0  0  0  0  0  0
    0.6345   -0.2917    0.8643 C   0  0  0  0  0  0  0  0  0  0  0  0
    1.8096   -0.5307    1.1146 O   0  0  0  0  0  0  0  0  0  0  0  0
   -0.1982    0.1253    1.8907 N   0  0  0  0  0  0  0  0  0  0  0  0
   -1.1902    0.1496    1.6878 H   0  0  0  0  0  0  0  0  0  0  0  0
    0.2427    0.2202    3.2759 C   0  0  0  0  0  0  0  0  0  0  0  0
    1.0963    0.9014    3.3595 H   0  0  0  0  0  0  0  0  0  0  0  0
   -0.5661    0.6021    3.9054 H   0  0  0  0  0  0  0  0  0  0  0  0
    0.5398   -0.7652    3.6501 H   0  0  0  0  0  0  0  0  0  0  0  0
  1  2  1  0  0  0  0
  2  3  1  0  0  0  0
  2  4  1  0  0  0  0
  2  5  1  0  0  0  0
  5  6  2  0  0  0  0
  5  7  1  0  0  0  0
  7  8  1  0  0  0  0
  7  9  1  0  0  0  0
  9 10  1  0  0  0  0
  9 11  1  0  0  0  0
  9 22  1  0  0  0  0
 11 12  1  0  0  0  0
 11 13  1  0  0  0  0
 11 14  1  0  0  0  0
 14 15  1  0  0  0  0
 14 20  2  0  0  0  0
 15 16  2  0  0  0  0
 16 17  1  0  0  0  0
 16 18  1  0  0  0  0
 18 19  1  0  0  0  0
 18 20  1  0  0  0  0
 20 21  1  0  0  0  0
 22 23  2  0  0  0  0
 22 24  1  0  0  0  0
 24 25  1  0  0  0  0
 24 26  1  0  0  0  0
 26 27  1  0  0  0  0
 26 28  1  0  0  0  0
 26 29  1  0  0  0  0
M  END
$$$$

  -OEChem-04042215593D

 29 29  0     1  0  0  0  0  0999 V2000
   -2.4885   -4.3764    0.4514 H   0  0  0  0  0  0  0  0  0  0  0  0
   -2.6152   -3.3799    0.0183 C   0  0  0  0  0  0  0  0  0  0  0  0
   -3.4038   -2.8571    0.5645 H   0  0  0  0  0  0  0  0  0  0  0  0
   -2.9131   -3.4881   -1.0274 H   0  0  0  0  0  0  0  0  0  0  0  0
   -1.3152   -2.6025    0.1116 C   0  0  0  0  0  0  0  0  0  0  0  0
   -0.3598   -3.1006    0.6754 O   0  0  0  0  0  0  0  0  0  0  0  0
   -1.2355   -1.3447   -0.4557 N   0  0  0  0  0  0  0  0  0  0  0  0
   -2.0344   -1.0581   -1.0107 H   0  0  0  0  0  0  0  0  0  0  0  0
    0.0036   -0.5432   -0.5598 C   0  0  1  0  0  0  0  0  0  0  0  0
    0.7644   -1.0870   -1.1307 H   0  0  0  0  0  0  0  0  0  0  0  0
   -0.4046    0.7336   -1.3441 C   0  0  0  0  0  0  0  0  0  0  0  0
   -0.2941    0.5273   -2.4123 H   0  0  0  0  0  0  0  0  0  0  0  0
   -1.4588    0.9580   -1.1590 H   0  0  0  0  0  0  0  0  0  0  0  0
    0.3738    1.9822   -1.0278 C   0  0  0  0  0  0  0  0  0  0  0  0
    1.7518    2.0391   -0.9076 N   0  0  0  0  0  0  0  0  0  0  0  0
    2.0562    3.2667   -0.5691 C   0  0  0  0  0  0  0  0  0  0  0  0
    3.0642    3.6290   -0.3891 H   0  0  0  0  0  0  0  0  0  0  0  0
    0.9043    4.0259   -0.4830 N   0  0  0  0  0  0  0  0  0  0  0  0
    0.8705    5.0113   -0.2289 H   0  0  0  0  0  0  0  0  0  0  0  0
   -0.1711    3.2109   -0.7716 C   0  0  0  0  0  0  0  0  0  0  0  0
   -1.2247    3.4713   -0.7799 H   0  0  0  0  0  0  0  0  0  0  0  0
    0.6113   -0.2416    0.8389 C   0  0  0  0  0  0  0  0  0  0  0  0
    1.8025   -0.4118    1.0671 O   0  0  0  0  0  0  0  0  0  0  0  0
   -0.2163    0.1761    1.8688 N   0  0  0  0  0  0  0  0  0  0  0  0
   -1.2123    0.1264    1.6901 H   0  0  0  0  0  0  0  0  0  0  0  0
    0.2441    0.2980    3.2455 C   0  0  0  0  0  0  0  0  0  0  0  0
    1.0724    1.0115    3.3102 H   0  0  0  0  0  0  0  0  0  0  0  0
   -0.5680    0.6540    3.8860 H   0  0  0  0  0  0  0  0  0  0  0  0
    0.5846   -0.6729    3.6206 H   0  0  0  0  0  0  0  0  0  0  0  0
  1  2  1  0  0  0  0
  2  3  1  0  0  0  0
  2  4  1  0  0  0  0
  2  5  1  0  0  0  0
  5  6  2  0  0  0  0
  5  7  1  0  0  0  0
  7  8  1  0  0  0  0
  7  9  1  0  0  0  0
  9 10  1  0  0  0  0
  9 11  1  0  0  0  0
  9 22  1  0  0  0  0
 11 12  1  0  0  0  0
 11 13  1  0  0  0  0
 11 14  1  0  0  0  0
 14 15  1  0  0  0  0
 14 20  2  0  0  0  0
 15 16  2  0  0  0  0
 16 17  1  0  0  0  0
 16 18  1  0  0  0  0
 18 19  1  0  0  0  0
 18 20  1  0  0  0  0
 20 21  1  0  0  0  0
 22 23  2  0  0  0  0
 22 24  1  0  0  0  0
 24 25  1  0  0  0  0
 24 26  1  0  0  0  0
 26 27  1  0  0  0  0
 26 28  1  0  0  0  0
 26 29  1  0  0  0  0
M  END
$$$$

  -OEChem-04042215593D

 29 29  0     1  0  0  0  0  0999 V2000
   -2.4368   -4.4129    0.4423 H   0  0  0  0  0  0  0  0  0  0  0  0
   -2.5841   -3.4249   -0.0031 C   0  0  0  0  0  0  0  0  0  0  0  0
   -3.4000   -2.9218    0.5209 H   0  0  0  0  0  0  0  0  0  0  0  0
   -2.8554   -3.5517   -1.0539 H   0  0  0  0  0  0  0  0  0  0  0  0
   -1.3108   -2.6077    0.1111 C   0  0  0  0  0  0  0  0  0  0  0  0
   -0.3533   -3.0707    0.7007 O   0  0  0  0  0  0  0  0  0  0  0  0
   -1.2588   -1.3491   -0.4572 N   0  0  0  0  0  0  0  0  0  0  0  0
   -2.0505   -1.0959   -1.0388 H   0  0  0  0  0  0  0  0  0  0  0  0
   -0.0338   -0.5281   -0.5677 C   0  0  1  0  0  0  0  0  0  0  0  0
    0.7307   -1.0617   -1.1432 H   0  0  0  0  0  0  0  0  0  0  0  0
   -0.4534    0.7477   -1.3438 C   0  0  0  0  0  0  0  0  0  0  0  0
   -0.3508    0.5575   -2.4158 H   0  0  0  0  0  0  0  0  0  0  0  0
   -1.5059    0.9696   -1.1461 H   0  0  0  0  0  0  0  0  0  0  0  0
    0.3338    1.9812   -1.0016 C   0  0  0  0  0  0  0  0  0  0  0  0
    1.7045    2.0806   -1.1723 N   0  0  0  0  0  0  0  0  0  0  0  0
    2.0553    3.2573   -0.7159 C   0  0  0  0  0  0  0  0  0  0  0  0
    3.0731    3.6363   -0.6950 H   0  0  0  0  0  0  0  0  0  0  0  0
    0.9377    3.9423   -0.2749 N   0  0  0  0  0  0  0  0  0  0  0  0
    0.9475    4.8718    0.1404 H   0  0  0  0  0  0  0  0  0  0  0  0
   -0.1641    3.1317   -0.4548 C   0  0  0  0  0  0  0  0  0  0  0  0
   -1.1979    3.3381   -0.1970 H   0  0  0  0  0  0  0  0  0  0  0  0
    0.5818   -0.2136    0.8248 C   0  0  0  0  0  0  0  0  0  0  0  0
    1.7877   -0.2923    1.0212 O   0  0  0  0  0  0  0  0  0  0  0  0
   -0.2429    0.1919    1.8619 N   0  0  0  0  0  0  0  0  0  0  0  0
   -1.2377    0.0695    1.7113 H   0  0  0  0  0  0  0  0  0  0  0  0
    0.2415    0.3681    3.2246 C   0  0  0  0  0  0  0  0  0  0  0  0
    1.0407    1.1162    3.2536 H   0  0  0  0  0  0  0  0  0  0  0  0
   -0.5707    0.7068    3.8743 H   0  0  0  0  0  0  0  0  0  0  0  0
    0.6296   -0.5780    3.6164 H   0  0  0  0  0  0  0  0  0  0  0  0
  1  2  1  0  0  0  0
  2  3  1  0  0  0  0
  2  4  1  0  0  0  0
  2  5  1  0  0  0  0
  5  6  2  0  0  0  0
  5  7  1  0  0  0  0
  7  8  1  0  0  0  0
  7  9  1  0  0  0  0
  9 10  1  0  0  0  0
  9 11  1  0  0  0  0
  9 22  1  0  0  0  0
 11 12  1  0  0  0  0
 11 13  1  0  0  0  0
 11 14  1  0  0  0  0
 14 15  1  0  0  0  0
 14 20  2  0  0  0  0
 15 16  2  0  0  0  0
 16 17  1  0  0  0  0
 16 18  1  0  0  0  0
 18 19  1  0  0  0  0
 18 20  1  0  0  0  0
 20 21  1  0  0  0  0
 22 23  2  0  0  0  0
 22 24  1  0  0  0  0
 24 25  1  0  0  0  0
 24 26  1  0  0  0  0
 26 27  1  0  0  0  0
 26 28  1  0  0  0  0
 26 29  1  0  0  0  0
M  END
$$$$

  -OEChem-04042215593D

 29 29  0     1  0  0  0  0  0999 V2000
   -2.4192   -4.4390    0.4143 H   0  0  0  0  0  0  0  0  0  0  0  0
   -2.5751   -3.4511   -0.0291 C   0  0  0  0  0  0  0  0  0  0  0  0
   -3.4051   -2.9617    0.4860 H   0  0  0  0  0  0  0  0  0  0  0  0
   -2.8315   -3.5778   -1.0836 H   0  0  0  0  0  0  0  0  0  0  0  0
   -1.3153   -2.6158    0.1036 C   0  0  0  0  0  0  0  0  0  0  0  0
   -0.3568   -3.0662    0.7019 O   0  0  0  0  0  0  0  0  0  0  0  0
   -1.2760   -1.3517   -0.4533 N   0  0  0  0  0  0  0  0  0  0  0  0
   -2.0642   -1.1066   -1.0434 H   0  0  0  0  0  0  0  0  0  0  0  0
   -0.0578   -0.5207   -0.5586 C   0  0  1  0  0  0  0  0  0  0  0  0
    0.7082   -1.0500   -1.1366 H   0  0  0  0  0  0  0  0  0  0  0  0
   -0.4725    0.7579   -1.3302 C   0  0  0  0  0  0  0  0  0  0  0  0
   -0.3746    0.5798   -2.4049 H   0  0  0  0  0  0  0  0  0  0  0  0
   -1.5233    0.9824   -1.1263 H   0  0  0  0  0  0  0  0  0  0  0  0
    0.3194    1.9812   -0.9671 C   0  0  0  0  0  0  0  0  0  0  0  0
    1.6209    2.1872   -1.3949 N   0  0  0  0  0  0  0  0  0  0  0  0
    2.0124    3.3174   -0.8594 C   0  0  0  0  0  0  0  0  0  0  0  0
    2.9986    3.7548   -0.9862 H   0  0  0  0  0  0  0  0  0  0  0  0
    0.9827    3.8719   -0.1209 N   0  0  0  0  0  0  0  0  0  0  0  0
    1.0444    4.7377    0.4110 H   0  0  0  0  0  0  0  0  0  0  0  0
   -0.1031    3.0244   -0.1905 C   0  0  0  0  0  0  0  0  0  0  0  0
   -1.0713    3.1322    0.2874 H   0  0  0  0  0  0  0  0  0  0  0  0
    0.5638   -0.2108    0.8314 C   0  0  0  0  0  0  0  0  0  0  0  0
    1.7765   -0.2175    0.9987 O   0  0  0  0  0  0  0  0  0  0  0  0
   -0.2571    0.1803    1.8766 N   0  0  0  0  0  0  0  0  0  0  0  0
   -1.2474    0.0050    1.7486 H   0  0  0  0  0  0  0  0  0  0  0  0
    0.2450    0.3917    3.2279 C   0  0  0  0  0  0  0  0  0  0  0  0
    1.0161    1.1694    3.2327 H   0  0  0  0  0  0  0  0  0  0  0  0
   -0.5676    0.7085    3.8883 H   0  0  0  0  0  0  0  0  0  0  0  0
    0.6759   -0.5341    3.6237 H   0  0  0  0  0  0  0  0  0  0  0  0
  1  2  1  0  0  0  0
  2  3  1  0  0  0  0
  2  4  1  0  0  0  0
  2  5  1  0  0  0  0
  5  6  2  0  0  0  0
  5  7  1  0  0  0  0
  7  8  1  0  0  0  0
  7  9  1  0  0  0  0
  9 10  1  0  0  0  0
  9 11  1  0  0  0  0
  9 22  1  0  0  0  0
 11 12  1  0  0  0  0
 11 13  1  0  0  0  0
 11 14  1  0  0  0  0
 14 15  1  0  0  0  0
 14 20  2  0  0  0  0
 15 16  2  0  0  0  0
 16 17  1  0  0  0  0
 16 18  1  0  0  0  0
 18 19  1  0  0  0  0
 18 20  1  0  0  0  0
 20 21  1  0  0  0  0
 22 23  2  0  0  0  0
 22 24  1  0  0  0  0
 24 25  1  0  0  0  0
 24 26  1  0  0  0  0
 26 27  1  0  0  0  0
 26 28  1  0  0  0  0
 26 29  1  0  0  0  0
M  END
$$$$

  -OEChem-04042215593D

 29 29  0     1  0  0  0  0  0999 V2000
   -2.4317   -4.4522    0.3823 H   0  0  0  0  0  0  0  0  0  0  0  0
   -2.5843   -3.4624   -0.0579 C   0  0  0  0  0  0  0  0  0  0  0  0
   -3.4218   -2.9773    0.4488 H   0  0  0  0  0  0  0  0  0  0  0  0
   -2.8267   -3.5844   -1.1162 H   0  0  0  0  0  0  0  0  0  0  0  0
   -1.3282   -2.6247    0.0947 C   0  0  0  0  0  0  0  0  0  0  0  0
   -0.3725   -3.0782    0.6954 O   0  0  0  0  0  0  0  0  0  0  0  0
   -1.2881   -1.3529   -0.4442 N   0  0  0  0  0  0  0  0  0  0  0  0
   -2.0728   -1.1016   -1.0367 H   0  0  0  0  0  0  0  0  0  0  0  0
   -0.0685   -0.5231   -0.5372 C   0  0  1  0  0  0  0  0  0  0  0  0
    0.6950   -1.0542   -1.1167 H   0  0  0  0  0  0  0  0  0  0  0  0
   -0.4639    0.7622   -1.3068 C   0  0  0  0  0  0  0  0  0  0  0  0
   -0.3644    0.5880   -2.3822 H   0  0  0  0  0  0  0  0  0  0  0  0
   -1.5137    0.9939   -1.1063 H   0  0  0  0  0  0  0  0  0  0  0  0
    0.3292    1.9829   -0.9341 C   0  0  0  0  0  0  0  0  0  0  0  0
    1.5056    2.3335   -1.5777 N   0  0  0  0  0  0  0  0  0  0  0  0
    1.9309    3.4298   -0.9982 C   0  0  0  0  0  0  0  0  0  0  0  0
    2.8463    3.9534   -1.2582 H   0  0  0  0  0  0  0  0  0  0  0  0
    1.0381    3.8251   -0.0192 N   0  0  0  0  0  0  0  0  0  0  0  0
    1.1560    4.6326    0.5894 H   0  0  0  0  0  0  0  0  0  0  0  0
    0.0071    2.9104    0.0182 C   0  0  0  0  0  0  0  0  0  0  0  0
   -0.8567    2.8979    0.6751 H   0  0  0  0  0  0  0  0  0  0  0  0
    0.5569   -0.2322    0.8539 C   0  0  0  0  0  0  0  0  0  0  0  0
    1.7717   -0.1980    1.0013 O   0  0  0  0  0  0  0  0  0  0  0  0
   -0.2594    0.1464    1.9073 N   0  0  0  0  0  0  0  0  0  0  0  0
   -1.2465   -0.0563    1.7930 H   0  0  0  0  0  0  0  0  0  0  0  0
    0.2547    0.3726    3.2518 C   0  0  0  0  0  0  0  0  0  0  0  0
    1.0058    1.1695    3.2455 H   0  0  0  0  0  0  0  0  0  0  0  0
   -0.5569    0.6703    3.9222 H   0  0  0  0  0  0  0  0  0  0  0  0
    0.7141   -0.5409    3.6440 H   0  0  0  0  0  0  0  0  0  0  0  0
  1  2  1  0  0  0  0
  2  3  1  0  0  0  0
  2  4  1  0  0  0  0
  2  5  1  0  0  0  0
  5  6  2  0  0  0  0
  5  7  1  0  0  0  0
  7  8  1  0  0  0  0
  7  9  1  0  0  0  0
  9 10  1  0  0  0  0
  9 11  1  0  0  0  0
  9 22  1  0  0  0  0
 11 12  1  0  0  0  0
 11 13  1  0  0  0  0
 11 14  1  0  0  0  0
 14 15  1  0  0  0  0
 14 20  2  0  0  0  0
 15 16  2  0  0  0  0
 16 17  1  0  0  0  0
 16 18  1  0  0  0  0
 18 19  1  0  0  0  0
 18 20  1  0  0  0  0
 20 21  1  0  0  0  0
 22 23  2  0  0  0  0
 22 24  1  0  0  0  0
 24 25  1  0  0  0  0
 24 26  1  0  0  0  0
 26 27  1  0  0  0  0
 26 28  1  0  0  0  0
 26 29  1  0  0  0  0
M  END
$$$$

  -OEChem-04042215593D

 29 29  0     1  0  0  0  0  0999 V2000
   -2.4561   -4.4557    0.3463 H   0  0  0  0  0  0  0  0  0  0  0  0
   -2.6012   -3.4602   -0.0835 C   0  0  0  0  0  0  0  0  0  0  0  0
   -3.4387   -2.9765    0.4248 H   0  0  0  0  0  0  0  0  0  0  0  0
   -2.8387   -3.5682   -1.1447 H   0  0  0  0  0  0  0  0  0  0  0  0
   -1.3418   -2.6311    0.0856 C   0  0  0  0  0  0  0  0  0  0  0  0
   -0.3894   -3.0984    0.6811 O   0  0  0  0  0  0  0  0  0  0  0  0
   -1.2943   -1.3503   -0.4307 N   0  0  0  0  0  0  0  0  0  0  0  0
   -2.0773   -1.0834   -1.0190 H   0  0  0  0  0  0  0  0  0  0  0  0
   -0.0689   -0.5275   -0.5088 C   0  0  1  0  0  0  0  0  0  0  0  0
    0.6910   -1.0647   -1.0876 H   0  0  0  0  0  0  0  0  0  0  0  0
   -0.4367    0.7641   -1.2827 C   0  0  0  0  0  0  0  0  0  0  0  0
   -0.3283    0.5844   -2.3566 H   0  0  0  0  0  0  0  0  0  0  0  0
   -1.4869    1.0058   -1.0963 H   0  0  0  0  0  0  0  0  0  0  0  0
    0.3535    1.9895   -0.9115 C   0  0  0  0  0  0  0  0  0  0  0  0
    1.3554    2.4953   -1.7272 N   0  0  0  0  0  0  0  0  0  0  0  0
    1.8172    3.5662   -1.1281 C   0  0  0  0  0  0  0  0  0  0  0  0
    2.6297    4.1833   -1.5010 H   0  0  0  0  0  0  0  0  0  0  0  0
    1.1099    3.7988    0.0363 N   0  0  0  0  0  0  0  0  0  0  0  0
    1.2898    4.5578    0.6904 H   0  0  0  0  0  0  0  0  0  0  0  0
    0.1629    2.8060    0.1699 C   0  0  0  0  0  0  0  0  0  0  0  0
   -0.5622    2.6734    0.9666 H   0  0  0  0  0  0  0  0  0  0  0  0
    0.5575   -0.2664    0.8866 C   0  0  0  0  0  0  0  0  0  0  0  0
    1.7727   -0.2115    1.0240 O   0  0  0  0  0  0  0  0  0  0  0  0
   -0.2562    0.0980    1.9470 N   0  0  0  0  0  0  0  0  0  0  0  0
   -1.2403   -0.1228    1.8382 H   0  0  0  0  0  0  0  0  0  0  0  0
    0.2633    0.3130    3.2915 C   0  0  0  0  0  0  0  0  0  0  0  0
    1.0129    1.1114    3.2898 H   0  0  0  0  0  0  0  0  0  0  0  0
   -0.5463    0.6028    3.9678 H   0  0  0  0  0  0  0  0  0  0  0  0
    0.7261   -0.6032    3.6732 H   0  0  0  0  0  0  0  0  0  0  0  0
  1  2  1  0  0  0  0
  2  3  1  0  0  0  0
  2  4  1  0  0  0  0
  2  5  1  0  0  0  0
  5  6  2  0  0  0  0
  5  7  1  0  0  0  0
  7  8  1  0  0  0  0
  7  9  1  0  0  0  0
  9 10  1  0  0  0  0
  9 11  1  0  0  0  0
  9 22  1  0  0  0  0
 11 12  1  0  0  0  0
 11 13  1  0  0  0  0
 11 14  1  0  0  0  0
 14 15  1  0  0  0  0
 14 20  2  0  0  0  0
 15 16  2  0  0  0  0
 16 17  1  0  0  0  0
 16 18  1  0  0  0  0
 18 19  1  0  0  0  0
 18 20  1  0  0  0  0
 20 21  1  0  0  0  0
 22 23  2  0  0  0  0
 22 24  1  0  0  0  0
 24 25  1  0  0  0  0
 24 26  1  0  0  0  0
 26 27  1  0  0  0  0
 26 28  1  0  0  0  0
 26 29  1  0  0  0  0
M  END
$$$$

  -OEChem-04042215593D

 29 29  0     1  0  0  0  0  0999 V2000
   -2.4823   -4.4547    0.2921 H   0  0  0  0  0  0  0  0  0  0  0  0
   -2.6224   -3.4453   -0.1058 C   0  0  0  0  0  0  0  0  0  0  0  0
   -3.4516   -2.9708    0.4243 H   0  0  0  0  0  0  0  0  0  0  0  0
   -2.8703   -3.5193   -1.1674 H   0  0  0  0  0  0  0  0  0  0  0  0
   -1.3541   -2.6326    0.0772 C   0  0  0  0  0  0  0  0  0  0  0  0
   -0.4063   -3.1206    0.6636 O   0  0  0  0  0  0  0  0  0  0  0  0
   -1.2912   -1.3425   -0.4144 N   0  0  0  0  0  0  0  0  0  0  0  0
   -2.0733   -1.0512   -0.9923 H   0  0  0  0  0  0  0  0  0  0  0  0
   -0.0576   -0.5305   -0.4721 C   0  0  1  0  0  0  0  0  0  0  0  0
    0.6995   -1.0776   -1.0455 H   0  0  0  0  0  0  0  0  0  0  0  0
   -0.3923    0.7642   -1.2585 C   0  0  0  0  0  0  0  0  0  0  0  0
   -0.2609    0.5665   -2.3267 H   0  0  0  0  0  0  0  0  0  0  0  0
   -1.4455    1.0132   -1.1029 H   0  0  0  0  0  0  0  0  0  0  0  0
    0.3848    2.0062   -0.9034 C   0  0  0  0  0  0  0  0  0  0  0  0
    1.1653    2.6579   -1.8493 N   0  0  0  0  0  0  0  0  0  0  0  0
    1.6699    3.7144   -1.2593 C   0  0  0  0  0  0  0  0  0  0  0  0
    2.3461    4.4237   -1.7279 H   0  0  0  0  0  0  0  0  0  0  0  0
    1.2036    3.7965    0.0379 N   0  0  0  0  0  0  0  0  0  0  0  0
    1.4635    4.5139    0.7118 H   0  0  0  0  0  0  0  0  0  0  0  0
    0.3667    2.7247    0.2621 C   0  0  0  0  0  0  0  0  0  0  0  0
   -0.1794    2.4875    1.1691 H   0  0  0  0  0  0  0  0  0  0  0  0
    0.5623   -0.3042    0.9308 C   0  0  0  0  0  0  0  0  0  0  0  0
    1.7772   -0.2506    1.0706 O   0  0  0  0  0  0  0  0  0  0  0  0
   -0.2528    0.0459    1.9951 N   0  0  0  0  0  0  0  0  0  0  0  0
   -1.2382   -0.1647    1.8753 H   0  0  0  0  0  0  0  0  0  0  0  0
    0.2606    0.2052    3.3500 C   0  0  0  0  0  0  0  0  0  0  0  0
    1.0305    0.9835    3.3807 H   0  0  0  0  0  0  0  0  0  0  0  0
   -0.5475    0.4944    4.0284 H   0  0  0  0  0  0  0  0  0  0  0  0
    0.6955   -0.7348    3.7063 H   0  0  0  0  0  0  0  0  0  0  0  0
  1  2  1  0  0  0  0
  2  3  1  0  0  0  0
  2  4  1  0  0  0  0
  2  5  1  0  0  0  0
  5  6  2  0  0  0  0
  5  7  1  0  0  0  0
  7  8  1  0  0  0  0
  7  9  1  0  0  0  0
  9 10  1  0  0  0  0
  9 11  1  0  0  0  0
  9 22  1  0  0  0  0
 11 12  1  0  0  0  0
 11 13  1  0  0  0  0
 11 14  1  0  0  0  0
 14 15  1  0  0  0  0
 14 20  2  0  0  0  0
 15 16  2  0  0  0  0
 16 17  1  0  0  0  0
 16 18  1  0  0  0  0
 18 19  1  0  0  0  0
 18 20  1  0  0  0  0
 20 21  1  0  0  0  0
 22 23  2  0  0  0  0
 22 24  1  0  0  0  0
 24 25  1  0  0  0  0
 24 26  1  0  0  0  0
 26 27  1  0  0  0  0
 26 28  1  0  0  0  0
 26 29  1  0  0  0  0
M  END
$$$$

  -OEChem-04042215593D

 29 29  0     1  0  0  0  0  0999 V2000
   -2.5280   -4.4359    0.2550 H   0  0  0  0  0  0  0  0  0  0  0  0
   -2.6448   -3.4190   -0.1310 C   0  0  0  0  0  0  0  0  0  0  0  0
   -3.4633   -2.9318    0.4041 H   0  0  0  0  0  0  0  0  0  0  0  0
   -2.8932   -3.4748   -1.1936 H   0  0  0  0  0  0  0  0  0  0  0  0
   -1.3592   -2.6365    0.0613 C   0  0  0  0  0  0  0  0  0  0  0  0
   -0.4176   -3.1546    0.6319 O   0  0  0  0  0  0  0  0  0  0  0  0
   -1.2745   -1.3389   -0.4062 N   0  0  0  0  0  0  0  0  0  0  0  0
   -2.0557   -1.0196   -0.9706 H   0  0  0  0  0  0  0  0  0  0  0  0
   -0.0321   -0.5389   -0.4393 C   0  0  1  0  0  0  0  0  0  0  0  0
    0.7265   -1.0856   -1.0107 H   0  0  0  0  0  0  0  0  0  0  0  0
   -0.3515    0.7658   -1.2180 C   0  0  0  0  0  0  0  0  0  0  0  0
   -0.2047    0.5584   -2.2824 H   0  0  0  0  0  0  0  0  0  0  0  0
   -1.4084    1.0105   -1.0825 H   0  0  0  0  0  0  0  0  0  0  0  0
    0.4004    2.0345   -0.8854 C   0  0  0  0  0  0  0  0  0  0  0  0
    0.8910    2.8222   -1.9206 N   0  0  0  0  0  0  0  0  0  0  0  0
    1.4752    3.8592   -1.3715 C   0  0  0  0  0  0  0  0  0  0  0  0
    1.9723    4.6550   -1.9187 H   0  0  0  0  0  0  0  0  0  0  0  0
    1.3554    3.7913    0.0010 N   0  0  0  0  0  0  0  0  0  0  0  0
    1.7439    4.4633    0.6599 H   0  0  0  0  0  0  0  0  0  0  0  0
    0.6616    2.6429    0.3150 C   0  0  0  0  0  0  0  0  0  0  0  0
    0.3929    2.2947    1.3059 H   0  0  0  0  0  0  0  0  0  0  0  0
    0.5658   -0.3515    0.9767 C   0  0  0  0  0  0  0  0  0  0  0  0
    1.7785   -0.3091    1.1368 O   0  0  0  0  0  0  0  0  0  0  0  0
   -0.2630   -0.0159    2.0352 N   0  0  0  0  0  0  0  0  0  0  0  0
   -1.2510   -0.1963    1.8900 H   0  0  0  0  0  0  0  0  0  0  0  0
    0.2259    0.0951    3.4040 C   0  0  0  0  0  0  0  0  0  0  0  0
    1.0140    0.8523    3.4723 H   0  0  0  0  0  0  0  0  0  0  0  0
   -0.5888    0.3863    4.0737 H   0  0  0  0  0  0  0  0  0  0  0  0
    0.6298   -0.8648    3.7430 H   0  0  0  0  0  0  0  0  0  0  0  0
  1  2  1  0  0  0  0
  2  3  1  0  0  0  0
  2  4  1  0  0  0  0
  2  5  1  0  0  0  0
  5  6  2  0  0  0  0
  5  7  1  0  0  0  0
  7  8  1  0  0  0  0
  7  9  1  0  0  0  0
  9 10  1  0  0  0  0
  9 11  1  0  0  0  0
  9 22  1  0  0  0  0
 11 12  1  0  0  0  0
 11 13  1  0  0  0  0
 11 14  1  0  0  0  0
 14 15  1  0  0  0  0
 14 20  2  0  0  0  0
 15 16  2  0  0  0  0
 16 17  1  0  0  0  0
 16 18  1  0  0  0  0
 18 19  1  0  0  0  0
 18 20  1  0  0  0  0
 20 21  1  0  0  0  0
 22 23  2  0  0  0  0
 22 24  1  0  0  0  0
 24 25  1  0  0  0  0
 24 26  1  0  0  0  0
 26 27  1  0  0  0  0
 26 28  1  0  0  0  0
 26 29  1  0  0  0  0
M  END
$$$$

  -OEChem-04042215593D

 29 29  0     1  0  0  0  0  0999 V2000
   -2.5865   -4.4095    0.2239 H   0  0  0  0  0  0  0  0  0  0  0  0
   -2.6793   -3.3875   -0.1551 C   0  0  0  0  0  0  0  0  0  0  0  0
   -3.4886   -2.8860    0.3807 H   0  0  0  0  0  0  0  0  0  0  0  0
   -2.9252   -3.4300   -1.2188 H   0  0  0  0  0  0  0  0  0  0  0  0
   -1.3772   -2.6356    0.0478 C   0  0  0  0  0  0  0  0  0  0  0  0
   -0.4464   -3.1819    0.6098 O   0  0  0  0  0  0  0  0  0  0  0  0
   -1.2630   -1.3354   -0.4058 N   0  0  0  0  0  0  0  0  0  0  0  0
   -2.0391   -0.9881   -0.9610 H   0  0  0  0  0  0  0  0  0  0  0  0
   -0.0065   -0.5572   -0.4177 C   0  0  1  0  0  0  0  0  0  0  0  0
    0.7504   -1.1031   -0.9923 H   0  0  0  0  0  0  0  0  0  0  0  0
   -0.3194    0.7632   -1.1754 C   0  0  0  0  0  0  0  0  0  0  0  0
   -0.1686    0.5602   -2.2402 H   0  0  0  0  0  0  0  0  0  0  0  0
   -1.3775    1.0051   -1.0436 H   0  0  0  0  0  0  0  0  0  0  0  0
    0.4179    2.0469   -0.8547 C   0  0  0  0  0  0  0  0  0  0  0  0
    0.5920    2.9654   -1.8849 N   0  0  0  0  0  0  0  0  0  0  0  0
    1.2628    3.9789   -1.3949 C   0  0  0  0  0  0  0  0  0  0  0  0
    1.5642    4.8569   -1.9588 H   0  0  0  0  0  0  0  0  0  0  0  0
    1.5248    3.7614   -0.0590 N   0  0  0  0  0  0  0  0  0  0  0  0
    2.0583    4.3831    0.5457 H   0  0  0  0  0  0  0  0  0  0  0  0
    0.9902    2.5406    0.2909 C   0  0  0  0  0  0  0  0  0  0  0  0
    1.0371    2.0757    1.2696 H   0  0  0  0  0  0  0  0  0  0  0  0
    0.5736   -0.3969    1.0072 C   0  0  0  0  0  0  0  0  0  0  0  0
    1.7847   -0.4012    1.1878 O   0  0  0  0  0  0  0  0  0  0  0  0
   -0.2614   -0.0569    2.0586 N   0  0  0  0  0  0  0  0  0  0  0  0
   -1.2541   -0.1854    1.8914 H   0  0  0  0  0  0  0  0  0  0  0  0
    0.2053    0.0216    3.4373 C   0  0  0  0  0  0  0  0  0  0  0  0
    1.0132    0.7548    3.5301 H   0  0  0  0  0  0  0  0  0  0  0  0
   -0.6129    0.3273    4.0963 H   0  0  0  0  0  0  0  0  0  0  0  0
    0.5752   -0.9539    3.7701 H   0  0  0  0  0  0  0  0  0  0  0  0
  1  2  1  0  0  0  0
  2  3  1  0  0  0  0
  2  4  1  0  0  0  0
  2  5  1  0  0  0  0
  5  6  2  0  0  0  0
  5  7  1  0  0  0  0
  7  8  1  0  0  0  0
  7  9  1  0  0  0  0
  9 10  1  0  0  0  0
  9 11  1  0  0  0  0
  9 22  1  0  0  0  0
 11 12  1  0  0  0  0
 11 13  1  0  0  0  0
 11 14  1  0  0  0  0
 14 15  1  0  0  0  0
 14 20  2  0  0  0  0
 15 16  2  0  0  0  0
 16 17  1  0  0  0  0
 16 18  1  0  0  0  0
 18 19  1  0  0  0  0
 18 20  1  0  0  0  0
 20 21  1  0  0  0  0
 22 23  2  0  0  0  0
 22 24  1  0  0  0  0
 24 25  1  0  0  0  0
 24 26  1  0  0  0  0
 26 27  1  0  0  0  0
 26 28  1  0  0  0  0
 26 29  1  0  0  0  0
M  END
$$$$

  -OEChem-04042215593D

 29 29  0     1  0  0  0  0  0999 V2000
   -2.6438   -4.3745    0.2271 H   0  0  0  0  0  0  0  0  0  0  0  0
   -2.7166   -3.3495   -0.1476 C   0  0  0  0  0  0  0  0  0  0  0  0
   -3.5036   -2.8286    0.4028 H   0  0  0  0  0  0  0  0  0  0  0  0
   -2.9807   -3.3829   -1.2072 H   0  0  0  0  0  0  0  0  0  0  0  0
   -1.3921   -2.6330    0.0360 C   0  0  0  0  0  0  0  0  0  0  0  0
   -0.4652   -3.2083    0.5751 O   0  0  0  0  0  0  0  0  0  0  0  0
   -1.2500   -1.3345   -0.4146 N   0  0  0  0  0  0  0  0  0  0  0  0
   -2.0261   -0.9590   -0.9511 H   0  0  0  0  0  0  0  0  0  0  0  0
    0.0205   -0.5794   -0.4143 C   0  0  1  0  0  0  0  0  0  0  0  0
    0.7732   -1.1296   -0.9903 H   0  0  0  0  0  0  0  0  0  0  0  0
   -0.2835    0.7518   -1.1577 C   0  0  0  0  0  0  0  0  0  0  0  0
   -0.1454    0.5580   -2.2257 H   0  0  0  0  0  0  0  0  0  0  0  0
   -1.3390    0.9991   -1.0120 H   0  0  0  0  0  0  0  0  0  0  0  0
    0.4546    2.0364   -0.8406 C   0  0  0  0  0  0  0  0  0  0  0  0
    0.3383    3.0712   -1.7632 N   0  0  0  0  0  0  0  0  0  0  0  0
    1.0696    4.0682   -1.3291 C   0  0  0  0  0  0  0  0  0  0  0  0
    1.1877    5.0216   -1.8359 H   0  0  0  0  0  0  0  0  0  0  0  0
    1.6648    3.7214   -0.1354 N   0  0  0  0  0  0  0  0  0  0  0  0
    2.3038    4.3087    0.3973 H   0  0  0  0  0  0  0  0  0  0  0  0
    1.2844    2.4347    0.1782 C   0  0  0  0  0  0  0  0  0  0  0  0
    1.6037    1.8704    1.0474 H   0  0  0  0  0  0  0  0  0  0  0  0
    0.5880   -0.4335    1.0171 C   0  0  0  0  0  0  0  0  0  0  0  0
    1.7932   -0.5232    1.2173 O   0  0  0  0  0  0  0  0  0  0  0  0
   -0.2466   -0.0795    2.0632 N   0  0  0  0  0  0  0  0  0  0  0  0
   -1.2425   -0.1417    1.8786 H   0  0  0  0  0  0  0  0  0  0  0  0
    0.2040   -0.0220    3.4479 C   0  0  0  0  0  0  0  0  0  0  0  0
    1.0322    0.6864    3.5543 H   0  0  0  0  0  0  0  0  0  0  0  0
   -0.6131    0.3049    4.0980 H   0  0  0  0  0  0  0  0  0  0  0  0
    0.5397   -1.0098    3.7806 H   0  0  0  0  0  0  0  0  0  0  0  0
  1  2  1  0  0  0  0
  2  3  1  0  0  0  0
  2  4  1  0  0  0  0
  2  5  1  0  0  0  0
  5  6  2  0  0  0  0
  5  7  1  0  0  0  0
  7  8  1  0  0  0  0
  7  9  1  0  0  0  0
  9 10  1  0  0  0  0
  9 11  1  0  0  0  0
  9 22  1  0  0  0  0
 11 12  1  0  0  0  0
 11 13  1  0  0  0  0
 11 14  1  0  0  0  0
 14 15  1  0  0  0  0
 14 20  2  0  0  0  0
 15 16  2  0  0  0  0
 16 17  1  0  0  0  0
 16 18  1  0  0  0  0
 18 19  1  0  0  0  0
 18 20  1  0  0  0  0
 20 21  1  0  0  0  0
 22 23  2  0  0  0  0
 22 24  1  0  0  0  0
 24 25  1  0  0  0  0
 24 26  1  0  0  0  0
 26 27  1  0  0  0  0
 26 28  1  0  0  0  0
 26 29  1  0  0  0  0
M  END
$$$$

  -OEChem-04042215593D

 29 29  0     1  0  0  0  0  0999 V2000
   -2.6483   -4.3321    0.3516 H   0  0  0  0  0  0  0  0  0  0  0  0
   -2.7100   -3.3184   -0.0547 C   0  0  0  0  0  0  0  0  0  0  0  0
   -3.4685   -2.7624    0.5014 H   0  0  0  0  0  0  0  0  0  0  0  0
   -3.0067   -3.3795   -1.1046 H   0  0  0  0  0  0  0  0  0  0  0  0
   -1.3657   -2.6258    0.0673 C   0  0  0  0  0  0  0  0  0  0  0  0
   -0.4398   -3.1979    0.6112 O   0  0  0  0  0  0  0  0  0  0  0  0
   -1.2033   -1.3552   -0.4503 N   0  0  0  0  0  0  0  0  0  0  0  0
   -1.9852   -0.9782   -0.9770 H   0  0  0  0  0  0  0  0  0  0  0  0
    0.0697   -0.6061   -0.4625 C   0  0  1  0  0  0  0  0  0  0  0  0
    0.8339   -1.1580   -1.0207 H   0  0  0  0  0  0  0  0  0  0  0  0
   -0.2635    0.7107   -1.2046 C   0  0  0  0  0  0  0  0  0  0  0  0
   -0.4112    0.4783   -2.2633 H   0  0  0  0  0  0  0  0  0  0  0  0
   -1.2139    1.0901   -0.8171 H   0  0  0  0  0  0  0  0  0  0  0  0
    0.6952    1.8745   -1.1276 C   0  0  0  0  0  0  0  0  0  0  0  0
    0.3689    3.0461   -1.8015 N   0  0  0  0  0  0  0  0  0  0  0  0
    1.3769    3.8709   -1.6501 C   0  0  0  0  0  0  0  0  0  0  0  0
    1.4250    4.8762   -2.0584 H   0  0  0  0  0  0  0  0  0  0  0  0
    2.3674    3.2657   -0.9052 N   0  0  0  0  0  0  0  0  0  0  0  0
    3.2644    3.6837   -0.6651 H   0  0  0  0  0  0  0  0  0  0  0  0
    1.9504    1.9910   -0.5903 C   0  0  0  0  0  0  0  0  0  0  0  0
    2.5208    1.2375   -0.0575 H   0  0  0  0  0  0  0  0  0  0  0  0
    0.5984   -0.3863    0.9792 C   0  0  0  0  0  0  0  0  0  0  0  0
    1.7817   -0.5566    1.2455 O   0  0  0  0  0  0  0  0  0  0  0  0
   -0.2646    0.0268    1.9794 N   0  0  0  0  0  0  0  0  0  0  0  0
   -1.2528    0.0316    1.7506 H   0  0  0  0  0  0  0  0  0  0  0  0
    0.1330    0.1311    3.3772 C   0  0  0  0  0  0  0  0  0  0  0  0
    0.9624    0.8374    3.4880 H   0  0  0  0  0  0  0  0  0  0  0  0
   -0.7054    0.4872    3.9834 H   0  0  0  0  0  0  0  0  0  0  0  0
    0.4478   -0.8462    3.7582 H   0  0  0  0  0  0  0  0  0  0  0  0
  1  2  1  0  0  0  0
  2  3  1  0  0  0  0
  2  4  1  0  0  0  0
  2  5  1  0  0  0  0
  5  6  2  0  0  0  0
  5  7  1  0  0  0  0
  7  8  1  0  0  0  0
  7  9  1  0  0  0  0
  9 10  1  0  0  0  0
  9 11  1  0  0  0  0
  9 22  1  0  0  0  0
 11 12  1  0  0  0  0
 11 13  1  0  0  0  0
 11 14  1  0  0  0  0
 14 15  1  0  0  0  0
 14 20  2  0  0  0  0
 15 16  2  0  0  0  0
 16 17  1  0  0  0  0
 16 18  1  0  0  0  0
 18 19  1  0  0  0  0
 18 20  1  0  0  0  0
 20 21  1  0  0  0  0
 22 23  2  0  0  0  0
 22 24  1  0  0  0  0
 24 25  1  0  0  0  0
 24 26  1  0  0  0  0
 26 27  1  0  0  0  0
 26 28  1  0  0  0  0
 26 29  1  0  0  0  0
M  END
$$$$

  -OEChem-04042215593D

 29 29  0     1  0  0  0  0  0999 V2000
   -2.6272   -4.3476    0.3993 H   0  0  0  0  0  0  0  0  0  0  0  0
   -2.7047   -3.3389   -0.0167 C   0  0  0  0  0  0  0  0  0  0  0  0
   -3.4496   -2.7798    0.5543 H   0  0  0  0  0  0  0  0  0  0  0  0
   -3.0310   -3.4129   -1.0569 H   0  0  0  0  0  0  0  0  0  0  0  0
   -1.3604   -2.6395    0.0599 C   0  0  0  0  0  0  0  0  0  0  0  0
   -0.4163   -3.2028    0.5815 O   0  0  0  0  0  0  0  0  0  0  0  0
   -1.2166   -1.3720   -0.4705 N   0  0  0  0  0  0  0  0  0  0  0  0
   -2.0166   -0.9932   -0.9678 H   0  0  0  0  0  0  0  0  0  0  0  0
    0.0487   -0.6110   -0.4981 C   0  0  1  0  0  0  0  0  0  0  0  0
    0.8105   -1.1653   -1.0575 H   0  0  0  0  0  0  0  0  0  0  0  0
   -0.2871    0.6998   -1.2466 C   0  0  0  0  0  0  0  0  0  0  0  0
   -0.4425    0.4746   -2.3054 H   0  0  0  0  0  0  0  0  0  0  0  0
   -1.2314    1.0860   -0.8507 H   0  0  0  0  0  0  0  0  0  0  0  0
    0.6934    1.8413   -1.1548 C   0  0  0  0  0  0  0  0  0  0  0  0
    0.3054    3.1207   -1.5339 N   0  0  0  0  0  0  0  0  0  0  0  0
    1.3597    3.8904   -1.4047 C   0  0  0  0  0  0  0  0  0  0  0  0
    1.3817    4.9553   -1.6183 H   0  0  0  0  0  0  0  0  0  0  0  0
    2.4351    3.1444   -0.9664 N   0  0  0  0  0  0  0  0  0  0  0  0
    3.3716    3.5039   -0.7909 H   0  0  0  0  0  0  0  0  0  0  0  0
    2.0217    1.8381   -0.8234 C   0  0  0  0  0  0  0  0  0  0  0  0
    2.6245    0.9844   -0.5250 H   0  0  0  0  0  0  0  0  0  0  0  0
    0.5965   -0.3667    0.9332 C   0  0  0  0  0  0  0  0  0  0  0  0
    1.7894   -0.5017    1.1766 O   0  0  0  0  0  0  0  0  0  0  0  0
   -0.2547    0.0509    1.9416 N   0  0  0  0  0  0  0  0  0  0  0  0
   -1.2459    0.0603    1.7273 H   0  0  0  0  0  0  0  0  0  0  0  0
    0.1697    0.2139    3.3259 C   0  0  0  0  0  0  0  0  0  0  0  0
    0.9879    0.9385    3.3933 H   0  0  0  0  0  0  0  0  0  0  0  0
   -0.6628    0.5774    3.9356 H   0  0  0  0  0  0  0  0  0  0  0  0
    0.5103   -0.7426    3.7363 H   0  0  0  0  0  0  0  0  0  0  0  0
  1  2  1  0  0  0  0
  2  3  1  0  0  0  0
  2  4  1  0  0  0  0
  2  5  1  0  0  0  0
  5  6  2  0  0  0  0
  5  7  1  0  0  0  0
  7  8  1  0  0  0  0
  7  9  1  0  0  0  0
  9 10  1  0  0  0  0
  9 11  1  0  0  0  0
  9 22  1  0  0  0  0
 11 12  1  0  0  0  0
 11 13  1  0  0  0  0
 11 14  1  0  0  0  0
 14 15  1  0  0  0  0
 14 20  2  0  0  0  0
 15 16  2  0  0  0  0
 16 17  1  0  0  0  0
 16 18  1  0  0  0  0
 18 19  1  0  0  0  0
 18 20  1  0  0  0  0
 20 21  1  0  0  0  0
 22 23  2  0  0  0  0
 22 24  1  0  0  0  0
 24 25  1  0  0  0  0
 24 26  1  0  0  0  0
 26 27  1  0  0  0  0
 26 28  1  0  0  0  0
 26 29  1  0  0  0  0
M  END
$$$$

  -OEChem-04042215593D

 29 29  0     1  0  0  0  0  0999 V2000
   -2.5972   -4.3666    0.4288 H   0  0  0  0  0  0  0  0  0  0  0  0
   -2.6916   -3.3631    0.0039 C   0  0  0  0  0  0  0  0  0  0  0  0
   -3.4327   -2.8054    0.5812 H   0  0  0  0  0  0  0  0  0  0  0  0
   -3.0336   -3.4509   -1.0301 H   0  0  0  0  0  0  0  0  0  0  0  0
   -1.3533   -2.6501    0.0504 C   0  0  0  0  0  0  0  0  0  0  0  0
   -0.3920   -3.2007    0.5543 O   0  0  0  0  0  0  0  0  0  0  0  0
   -1.2341   -1.3838   -0.4878 N   0  0  0  0  0  0  0  0  0  0  0  0
   -2.0527   -1.0067   -0.9553 H   0  0  0  0  0  0  0  0  0  0  0  0
    0.0198   -0.6070   -0.5326 C   0  0  1  0  0  0  0  0  0  0  0  0
    0.7782   -1.1639   -1.0939 H   0  0  0  0  0  0  0  0  0  0  0  0
   -0.3227    0.6915   -1.2963 C   0  0  0  0  0  0  0  0  0  0  0  0
   -0.4750    0.4615   -2.3545 H   0  0  0  0  0  0  0  0  0  0  0  0
   -1.2671    1.0818   -0.9048 H   0  0  0  0  0  0  0  0  0  0  0  0
    0.6734    1.8158   -1.1938 C   0  0  0  0  0  0  0  0  0  0  0  0
    0.2718    3.1434   -1.2686 N   0  0  0  0  0  0  0  0  0  0  0  0
    1.3592    3.8691   -1.1557 C   0  0  0  0  0  0  0  0  0  0  0  0
    1.3847    4.9550   -1.1663 H   0  0  0  0  0  0  0  0  0  0  0  0
    2.4628    3.0496   -1.0232 N   0  0  0  0  0  0  0  0  0  0  0  0
    3.4223    3.3661   -0.8968 H   0  0  0  0  0  0  0  0  0  0  0  0
    2.0318    1.7416   -1.0541 C   0  0  0  0  0  0  0  0  0  0  0  0
    2.6307    0.8382   -0.9656 H   0  0  0  0  0  0  0  0  0  0  0  0
    0.5967   -0.3378    0.8820 C   0  0  0  0  0  0  0  0  0  0  0  0
    1.8008   -0.4316    1.0881 O   0  0  0  0  0  0  0  0  0  0  0  0
   -0.2346    0.0800    1.9063 N   0  0  0  0  0  0  0  0  0  0  0  0
   -1.2311    0.0780    1.7183 H   0  0  0  0  0  0  0  0  0  0  0  0
    0.2275    0.2964    3.2708 C   0  0  0  0  0  0  0  0  0  0  0  0
    1.0277    1.0437    3.2904 H   0  0  0  0  0  0  0  0  0  0  0  0
   -0.5953    0.6566    3.8955 H   0  0  0  0  0  0  0  0  0  0  0  0
    0.6061   -0.6379    3.6984 H   0  0  0  0  0  0  0  0  0  0  0  0
  1  2  1  0  0  0  0
  2  3  1  0  0  0  0
  2  4  1  0  0  0  0
  2  5  1  0  0  0  0
  5  6  2  0  0  0  0
  5  7  1  0  0  0  0
  7  8  1  0  0  0  0
  7  9  1  0  0  0  0
  9 10  1  0  0  0  0
  9 11  1  0  0  0  0
  9 22  1  0  0  0  0
 11 12  1  0  0  0  0
 11 13  1  0  0  0  0
 11 14  1  0  0  0  0
 14 15  1  0  0  0  0
 14 20  2  0  0  0  0
 15 16  2  0  0  0  0
 16 17  1  0  0  0  0
 16 18  1  0  0  0  0
 18 19  1  0  0  0  0
 18 20  1  0  0  0  0
 20 21  1  0  0  0  0
 22 23  2  0  0  0  0
 22 24  1  0  0  0  0
 24 25  1  0  0  0  0
 24 26  1  0  0  0  0
 26 27  1  0  0  0  0
 26 28  1  0  0  0  0
 26 29  1  0  0  0  0
M  END
$$$$

  -OEChem-04042215593D

 29 29  0     1  0  0  0  0  0999 V2000
   -2.5634   -4.3890    0.4464 H   0  0  0  0  0  0  0  0  0  0  0  0
   -2.6744   -3.3918    0.0110 C   0  0  0  0  0  0  0  0  0  0  0  0
   -3.4166   -2.8365    0.5894 H   0  0  0  0  0  0  0  0  0  0  0  0
   -3.0252   -3.4958   -1.0185 H   0  0  0  0  0  0  0  0  0  0  0  0
   -1.3452   -2.6612    0.0353 C   0  0  0  0  0  0  0  0  0  0  0  0
   -0.3670   -3.2008    0.5182 O   0  0  0  0  0  0  0  0  0  0  0  0
   -1.2522   -1.3930   -0.5032 N   0  0  0  0  0  0  0  0  0  0  0  0
   -2.0863   -1.0210   -0.9466 H   0  0  0  0  0  0  0  0  0  0  0  0
   -0.0103   -0.5992   -0.5614 C   0  0  1  0  0  0  0  0  0  0  0  0
    0.7458   -1.1525   -1.1292 H   0  0  0  0  0  0  0  0  0  0  0  0
   -0.3643    0.6914   -1.3296 C   0  0  0  0  0  0  0  0  0  0  0  0
   -0.5111    0.4602   -2.3881 H   0  0  0  0  0  0  0  0  0  0  0  0
   -1.3100    1.0821   -0.9414 H   0  0  0  0  0  0  0  0  0  0  0  0
    0.6430    1.8016   -1.2128 C   0  0  0  0  0  0  0  0  0  0  0  0
    0.2700    3.1174   -0.9734 N   0  0  0  0  0  0  0  0  0  0  0  0
    1.3830    3.8089   -0.9012 C   0  0  0  0  0  0  0  0  0  0  0  0
    1.4380    4.8773   -0.7129 H   0  0  0  0  0  0  0  0  0  0  0  0
    2.4707    2.9800   -1.0989 N   0  0  0  0  0  0  0  0  0  0  0  0
    3.4468    3.2656   -1.0495 H   0  0  0  0  0  0  0  0  0  0  0  0
    2.0035    1.6990   -1.2962 C   0  0  0  0  0  0  0  0  0  0  0  0
    2.5794    0.7891   -1.4442 H   0  0  0  0  0  0  0  0  0  0  0  0
    0.5941   -0.3131    0.8377 C   0  0  0  0  0  0  0  0  0  0  0  0
    1.8060   -0.3724    1.0095 O   0  0  0  0  0  0  0  0  0  0  0  0
   -0.2192    0.0986    1.8785 N   0  0  0  0  0  0  0  0  0  0  0  0
   -1.2183    0.1168    1.7058 H   0  0  0  0  0  0  0  0  0  0  0  0
    0.2766    0.3824    3.2182 C   0  0  0  0  0  0  0  0  0  0  0  0
    1.0275    1.1790    3.1879 H   0  0  0  0  0  0  0  0  0  0  0  0
   -0.5445    0.7067    3.8644 H   0  0  0  0  0  0  0  0  0  0  0  0
    0.7293   -0.5140    3.6549 H   0  0  0  0  0  0  0  0  0  0  0  0
  1  2  1  0  0  0  0
  2  3  1  0  0  0  0
  2  4  1  0  0  0  0
  2  5  1  0  0  0  0
  5  6  2  0  0  0  0
  5  7  1  0  0  0  0
  7  8  1  0  0  0  0
  7  9  1  0  0  0  0
  9 10  1  0  0  0  0
  9 11  1  0  0  0  0
  9 22  1  0  0  0  0
 11 12  1  0  0  0  0
 11 13  1  0  0  0  0
 11 14  1  0  0  0  0
 14 15  1  0  0  0  0
 14 20  2  0  0  0  0
 15 16  2  0  0  0  0
 16 17  1  0  0  0  0
 16 18  1  0  0  0  0
 18 19  1  0  0  0  0
 18 20  1  0  0  0  0
 20 21  1  0  0  0  0
 22 23  2  0  0  0  0
 22 24  1  0  0  0  0
 24 25  1  0  0  0  0
 24 26  1  0  0  0  0
 26 27  1  0  0  0  0
 26 28  1  0  0  0  0
 26 29  1  0  0  0  0
M  END
$$$$

  -OEChem-04042215593D

 29 29  0     1  0  0  0  0  0999 V2000
   -2.5343   -4.4079    0.4635 H   0  0  0  0  0  0  0  0  0  0  0  0
   -2.6611   -3.4167    0.0186 C   0  0  0  0  0  0  0  0  0  0  0  0
   -3.3941   -2.8594    0.6067 H   0  0  0  0  0  0  0  0  0  0  0  0
   -3.0341   -3.5350   -1.0015 H   0  0  0  0  0  0  0  0  0  0  0  0
   -1.3355   -2.6787    0.0048 C   0  0  0  0  0  0  0  0  0  0  0  0
   -0.3383   -3.2183    0.4473 O   0  0  0  0  0  0  0  0  0  0  0  0
   -1.2655   -1.4057   -0.5259 N   0  0  0  0  0  0  0  0  0  0  0  0
   -2.1183   -1.0249   -0.9230 H   0  0  0  0  0  0  0  0  0  0  0  0
   -0.0346   -0.5959   -0.5867 C   0  0  1  0  0  0  0  0  0  0  0  0
    0.7223   -1.1408   -1.1618 H   0  0  0  0  0  0  0  0  0  0  0  0
   -0.3992    0.6938   -1.3490 C   0  0  0  0  0  0  0  0  0  0  0  0
   -0.5314    0.4668   -2.4104 H   0  0  0  0  0  0  0  0  0  0  0  0
   -1.3497    1.0820   -0.9704 H   0  0  0  0  0  0  0  0  0  0  0  0
    0.6171    1.7899   -1.2076 C   0  0  0  0  0  0  0  0  0  0  0  0
    0.3124    3.0287   -0.6603 N   0  0  0  0  0  0  0  0  0  0  0  0
    1.4354    3.7073   -0.6457 C   0  0  0  0  0  0  0  0  0  0  0  0
    1.5428    4.7186   -0.2641 H   0  0  0  0  0  0  0  0  0  0  0  0
    2.4573    2.9485   -1.1847 N   0  0  0  0  0  0  0  0  0  0  0  0
    3.4338    3.2314   -1.2407 H   0  0  0  0  0  0  0  0  0  0  0  0
    1.9400    1.7221   -1.5416 C   0  0  0  0  0  0  0  0  0  0  0  0
    2.4644    0.8646   -1.9534 H   0  0  0  0  0  0  0  0  0  0  0  0
    0.5861   -0.3048    0.8041 C   0  0  0  0  0  0  0  0  0  0  0  0
    1.8020   -0.3369    0.9523 O   0  0  0  0  0  0  0  0  0  0  0  0
   -0.2156    0.0940    1.8591 N   0  0  0  0  0  0  0  0  0  0  0  0
   -1.2115    0.1683    1.6839 H   0  0  0  0  0  0  0  0  0  0  0  0
    0.3081    0.4705    3.1647 C   0  0  0  0  0  0  0  0  0  0  0  0
    0.9689    1.3390    3.0747 H   0  0  0  0  0  0  0  0  0  0  0  0
   -0.5121    0.7275    3.8414 H   0  0  0  0  0  0  0  0  0  0  0  0
    0.8720   -0.3592    3.6038 H   0  0  0  0  0  0  0  0  0  0  0  0
  1  2  1  0  0  0  0
  2  3  1  0  0  0  0
  2  4  1  0  0  0  0
  2  5  1  0  0  0  0
  5  6  2  0  0  0  0
  5  7  1  0  0  0  0
  7  8  1  0  0  0  0
  7  9  1  0  0  0  0
  9 10  1  0  0  0  0
  9 11  1  0  0  0  0
  9 22  1  0  0  0  0
 11 12  1  0  0  0  0
 11 13  1  0  0  0  0
 11 14  1  0  0  0  0
 14 15  1  0  0  0  0
 14 20  2  0  0  0  0
 15 16  2  0  0  0  0
 16 17  1  0  0  0  0
 16 18  1  0  0  0  0
 18 19  1  0  0  0  0
 18 20  1  0  0  0  0
 20 21  1  0  0  0  0
 22 23  2  0  0  0  0
 22 24  1  0  0  0  0
 24 25  1  0  0  0  0
 24 26  1  0  0  0  0
 26 27  1  0  0  0  0
 26 28  1  0  0  0  0
 26 29  1  0  0  0  0
M  END
$$$$

  -OEChem-04042215593D

 29 29  0     1  0  0  0  0  0999 V2000
   -2.5126   -4.4267    0.4533 H   0  0  0  0  0  0  0  0  0  0  0  0
   -2.6521   -3.4297    0.0252 C   0  0  0  0  0  0  0  0  0  0  0  0
   -3.3672   -2.8802    0.6419 H   0  0  0  0  0  0  0  0  0  0  0  0
   -3.0549   -3.5346   -0.9851 H   0  0  0  0  0  0  0  0  0  0  0  0
   -1.3272   -2.6913   -0.0173 C   0  0  0  0  0  0  0  0  0  0  0  0
   -0.3182   -3.2365    0.3902 O   0  0  0  0  0  0  0  0  0  0  0  0
   -1.2709   -1.4142   -0.5396 N   0  0  0  0  0  0  0  0  0  0  0  0
   -2.1385   -1.0206   -0.8891 H   0  0  0  0  0  0  0  0  0  0  0  0
   -0.0471   -0.5940   -0.5967 C   0  0  1  0  0  0  0  0  0  0  0  0
    0.7130   -1.1328   -1.1733 H   0  0  0  0  0  0  0  0  0  0  0  0
   -0.4155    0.6938   -1.3596 C   0  0  0  0  0  0  0  0  0  0  0  0
   -0.5293    0.4633   -2.4225 H   0  0  0  0  0  0  0  0  0  0  0  0
   -1.3719    1.0822   -0.9969 H   0  0  0  0  0  0  0  0  0  0  0  0
    0.6057    1.7807   -1.1987 C   0  0  0  0  0  0  0  0  0  0  0  0
    0.4047    2.8883   -0.3869 N   0  0  0  0  0  0  0  0  0  0  0  0
    1.5126    3.5888   -0.4492 C   0  0  0  0  0  0  0  0  0  0  0  0
    1.6908    4.5152    0.0893 H   0  0  0  0  0  0  0  0  0  0  0  0
    2.4154    2.9789   -1.3006 N   0  0  0  0  0  0  0  0  0  0  0  0
    3.3636    3.3030   -1.4816 H   0  0  0  0  0  0  0  0  0  0  0  0
    1.8398    1.8226   -1.7821 C   0  0  0  0  0  0  0  0  0  0  0  0
    2.2731    1.0792   -2.4446 H   0  0  0  0  0  0  0  0  0  0  0  0
    0.5788   -0.3035    0.7921 C   0  0  0  0  0  0  0  0  0  0  0  0
    1.7961   -0.3275    0.9318 O   0  0  0  0  0  0  0  0  0  0  0  0
   -0.2199    0.0841    1.8538 N   0  0  0  0  0  0  0  0  0  0  0  0
   -1.2072    0.2133    1.6640 H   0  0  0  0  0  0  0  0  0  0  0  0
    0.3167    0.5189    3.1360 C   0  0  0  0  0  0  0  0  0  0  0  0
    0.9210    1.4233    3.0100 H   0  0  0  0  0  0  0  0  0  0  0  0
   -0.4983    0.7394    3.8317 H   0  0  0  0  0  0  0  0  0  0  0  0
    0.9420   -0.2659    3.5746 H   0  0  0  0  0  0  0  0  0  0  0  0
  1  2  1  0  0  0  0
  2  3  1  0  0  0  0
  2  4  1  0  0  0  0
  2  5  1  0  0  0  0
  5  6  2  0  0  0  0
  5  7  1  0  0  0  0
  7  8  1  0  0  0  0
  7  9  1  0  0  0  0
  9 10  1  0  0  0  0
  9 11  1  0  0  0  0
  9 22  1  0  0  0  0
 11 12  1  0  0  0  0
 11 13  1  0  0  0  0
 11 14  1  0  0  0  0
 14 15  1  0  0  0  0
 14 20  2  0  0  0  0
 15 16  2  0  0  0  0
 16 17  1  0  0  0  0
 16 18  1  0  0  0  0
 18 19  1  0  0  0  0
 18 20  1  0  0  0  0
 20 21  1  0  0  0  0
 22 23  2  0  0  0  0
 22 24  1  0  0  0  0
 24 25  1  0  0  0  0
 24 26  1  0  0  0  0
 26 27  1  0  0  0  0
 26 28  1  0  0  0  0
 26 29  1  0  0  0  0
M  END
$$$$

  -OEChem-04042215593D

 29 29  0     1  0  0  0  0  0999 V2000
   -2.5116   -4.4236    0.4561 H   0  0  0  0  0  0  0  0  0  0  0  0
   -2.6512   -3.4223    0.0387 C   0  0  0  0  0  0  0  0  0  0  0  0
   -3.3422   -2.8687    0.6788 H   0  0  0  0  0  0  0  0  0  0  0  0
   -3.0832   -3.5156   -0.9606 H   0  0  0  0  0  0  0  0  0  0  0  0
   -1.3197   -2.6989   -0.0367 C   0  0  0  0  0  0  0  0  0  0  0  0
   -0.3049   -3.2598    0.3334 O   0  0  0  0  0  0  0  0  0  0  0  0
   -1.2657   -1.4180   -0.5493 N   0  0  0  0  0  0  0  0  0  0  0  0
   -2.1434   -1.0041   -0.8454 H   0  0  0  0  0  0  0  0  0  0  0  0
   -0.0436   -0.5943   -0.5963 C   0  0  1  0  0  0  0  0  0  0  0  0
    0.7216   -1.1319   -1.1675 H   0  0  0  0  0  0  0  0  0  0  0  0
   -0.4100    0.6865   -1.3733 C   0  0  0  0  0  0  0  0  0  0  0  0
   -0.5094    0.4425   -2.4348 H   0  0  0  0  0  0  0  0  0  0  0  0
   -1.3729    1.0739   -1.0277 H   0  0  0  0  0  0  0  0  0  0  0  0
    0.6021    1.7809   -1.2092 C   0  0  0  0  0  0  0  0  0  0  0  0
    0.5318    2.7306   -0.1993 N   0  0  0  0  0  0  0  0  0  0  0  0
    1.5976    3.4837   -0.3345 C   0  0  0  0  0  0  0  0  0  0  0  0
    1.8550    4.3157    0.3147 H   0  0  0  0  0  0  0  0  0  0  0  0
    2.3388    3.0684   -1.4255 N   0  0  0  0  0  0  0  0  0  0  0  0
    3.2295    3.4672   -1.7157 H   0  0  0  0  0  0  0  0  0  0  0  0
    1.7047    1.9821   -1.9894 C   0  0  0  0  0  0  0  0  0  0  0  0
    2.0194    1.3849   -2.8398 H   0  0  0  0  0  0  0  0  0  0  0  0
    0.5778   -0.3120    0.7965 C   0  0  0  0  0  0  0  0  0  0  0  0
    1.7940   -0.3537    0.9442 O   0  0  0  0  0  0  0  0  0  0  0  0
   -0.2254    0.0662    1.8585 N   0  0  0  0  0  0  0  0  0  0  0  0
   -1.2014    0.2424    1.6506 H   0  0  0  0  0  0  0  0  0  0  0  0
    0.3136    0.5191    3.1334 C   0  0  0  0  0  0  0  0  0  0  0  0
    0.8934    1.4379    2.9962 H   0  0  0  0  0  0  0  0  0  0  0  0
   -0.4992    0.7212    3.8372 H   0  0  0  0  0  0  0  0  0  0  0  0
    0.9631   -0.2476    3.5690 H   0  0  0  0  0  0  0  0  0  0  0  0
  1  2  1  0  0  0  0
  2  3  1  0  0  0  0
  2  4  1  0  0  0  0
  2  5  1  0  0  0  0
  5  6  2  0  0  0  0
  5  7  1  0  0  0  0
  7  8  1  0  0  0  0
  7  9  1  0  0  0  0
  9 10  1  0  0  0  0
  9 11  1  0  0  0  0
  9 22  1  0  0  0  0
 11 12  1  0  0  0  0
 11 13  1  0  0  0  0
 11 14  1  0  0  0  0
 14 15  1  0  0  0  0
 14 20  2  0  0  0  0
 15 16  2  0  0  0  0
 16 17  1  0  0  0  0
 16 18  1  0  0  0  0
 18 19  1  0  0  0  0
 18 20  1  0  0  0  0
 20 21  1  0  0  0  0
 22 23  2  0  0  0  0
 22 24  1  0  0  0  0
 24 25  1  0  0  0  0
 24 26  1  0  0  0  0
 26 27  1  0  0  0  0
 26 28  1  0  0  0  0
 26 29  1  0  0  0  0
M  END
$$$$

  -OEChem-04042215593D

 29 29  0     1  0  0  0  0  0999 V2000
   -2.5116   -4.4122    0.4577 H   0  0  0  0  0  0  0  0  0  0  0  0
   -2.6485   -3.4068    0.0488 C   0  0  0  0  0  0  0  0  0  0  0  0
   -3.3219   -2.8503    0.7050 H   0  0  0  0  0  0  0  0  0  0  0  0
   -3.0992   -3.4889   -0.9432 H   0  0  0  0  0  0  0  0  0  0  0  0
   -1.3108   -2.6968   -0.0462 C   0  0  0  0  0  0  0  0  0  0  0  0
   -0.2956   -3.2718    0.3005 O   0  0  0  0  0  0  0  0  0  0  0  0
   -1.2535   -1.4125   -0.5507 N   0  0  0  0  0  0  0  0  0  0  0  0
   -2.1342   -0.9851   -0.8163 H   0  0  0  0  0  0  0  0  0  0  0  0
   -0.0302   -0.5894   -0.5839 C   0  0  1  0  0  0  0  0  0  0  0  0
    0.7405   -1.1293   -1.1456 H   0  0  0  0  0  0  0  0  0  0  0  0
   -0.3889    0.6839   -1.3807 C   0  0  0  0  0  0  0  0  0  0  0  0
   -0.4812    0.4230   -2.4388 H   0  0  0  0  0  0  0  0  0  0  0  0
   -1.3571    1.0673   -1.0462 H   0  0  0  0  0  0  0  0  0  0  0  0
    0.6017    1.8020   -1.2301 C   0  0  0  0  0  0  0  0  0  0  0  0
    0.7028    2.5958   -0.0958 N   0  0  0  0  0  0  0  0  0  0  0  0
    1.7042    3.4156   -0.3078 C   0  0  0  0  0  0  0  0  0  0  0  0
    2.0574    4.1589    0.4011 H   0  0  0  0  0  0  0  0  0  0  0  0
    2.2351    3.1993   -1.5660 N   0  0  0  0  0  0  0  0  0  0  0  0
    3.0389    3.6884   -1.9553 H   0  0  0  0  0  0  0  0  0  0  0  0
    1.5330    2.1714   -2.1590 C   0  0  0  0  0  0  0  0  0  0  0  0
    1.6953    1.7202   -3.1331 H   0  0  0  0  0  0  0  0  0  0  0  0
    0.5772   -0.3195    0.8172 C   0  0  0  0  0  0  0  0  0  0  0  0
    1.7881   -0.4056    0.9875 O   0  0  0  0  0  0  0  0  0  0  0  0
   -0.2363    0.0510    1.8745 N   0  0  0  0  0  0  0  0  0  0  0  0
   -1.2001    0.2678    1.6504 H   0  0  0  0  0  0  0  0  0  0  0  0
    0.2931    0.4644    3.1667 C   0  0  0  0  0  0  0  0  0  0  0  0
    0.9134    1.3599    3.0552 H   0  0  0  0  0  0  0  0  0  0  0  0
   -0.5258    0.6911    3.8557 H   0  0  0  0  0  0  0  0  0  0  0  0
    0.9011   -0.3342    3.6047 H   0  0  0  0  0  0  0  0  0  0  0  0
  1  2  1  0  0  0  0
  2  3  1  0  0  0  0
  2  4  1  0  0  0  0
  2  5  1  0  0  0  0
  5  6  2  0  0  0  0
  5  7  1  0  0  0  0
  7  8  1  0  0  0  0
  7  9  1  0  0  0  0
  9 10  1  0  0  0  0
  9 11  1  0  0  0  0
  9 22  1  0  0  0  0
 11 12  1  0  0  0  0
 11 13  1  0  0  0  0
 11 14  1  0  0  0  0
 14 15  1  0  0  0  0
 14 20  2  0  0  0  0
 15 16  2  0  0  0  0
 16 17  1  0  0  0  0
 16 18  1  0  0  0  0
 18 19  1  0  0  0  0
 18 20  1  0  0  0  0
 20 21  1  0  0  0  0
 22 23  2  0  0  0  0
 22 24  1  0  0  0  0
 24 25  1  0  0  0  0
 24 26  1  0  0  0  0
 26 27  1  0  0  0  0
 26 28  1  0  0  0  0
 26 29  1  0  0  0  0
M  END
$$$$

  -OEChem-04042215593D

 29 29  0     1  0  0  0  0  0999 V2000
   -2.5195   -4.3998    0.4369 H   0  0  0  0  0  0  0  0  0  0  0  0
   -2.6485   -3.3884    0.0407 C   0  0  0  0  0  0  0  0  0  0  0  0
   -3.3154   -2.8339    0.7050 H   0  0  0  0  0  0  0  0  0  0  0  0
   -3.1022   -3.4550   -0.9509 H   0  0  0  0  0  0  0  0  0  0  0  0
   -1.3050   -2.6891   -0.0489 C   0  0  0  0  0  0  0  0  0  0  0  0
   -0.2954   -3.2764    0.2928 O   0  0  0  0  0  0  0  0  0  0  0  0
   -1.2380   -1.4017   -0.5443 N   0  0  0  0  0  0  0  0  0  0  0  0
   -2.1166   -0.9658   -0.8017 H   0  0  0  0  0  0  0  0  0  0  0  0
   -0.0109   -0.5828   -0.5616 C   0  0  1  0  0  0  0  0  0  0  0  0
    0.7647   -1.1241   -1.1152 H   0  0  0  0  0  0  0  0  0  0  0  0
   -0.3634    0.6864   -1.3729 C   0  0  0  0  0  0  0  0  0  0  0  0
   -0.4568    0.4124   -2.4277 H   0  0  0  0  0  0  0  0  0  0  0  0
   -1.3349    1.0626   -1.0402 H   0  0  0  0  0  0  0  0  0  0  0  0
    0.6013    1.8336   -1.2430 C   0  0  0  0  0  0  0  0  0  0  0  0
    0.9130    2.4805   -0.0554 N   0  0  0  0  0  0  0  0  0  0  0  0
    1.8339    3.3684   -0.3401 C   0  0  0  0  0  0  0  0  0  0  0  0
    2.3028    4.0301    0.3825 H   0  0  0  0  0  0  0  0  0  0  0  0
    2.1108    3.3400   -1.6937 N   0  0  0  0  0  0  0  0  0  0  0  0
    2.8099    3.9140   -2.1611 H   0  0  0  0  0  0  0  0  0  0  0  0
    1.3287    2.3628   -2.2726 C   0  0  0  0  0  0  0  0  0  0  0  0
    1.3086    2.0484   -3.3116 H   0  0  0  0  0  0  0  0  0  0  0  0
    0.5794   -0.3287    0.8498 C   0  0  0  0  0  0  0  0  0  0  0  0
    1.7816   -0.4663    1.0466 O   0  0  0  0  0  0  0  0  0  0  0  0
   -0.2464    0.0359    1.9003 N   0  0  0  0  0  0  0  0  0  0  0  0
   -1.2011    0.2789    1.6653 H   0  0  0  0  0  0  0  0  0  0  0  0
    0.2672    0.3970    3.2142 C   0  0  0  0  0  0  0  0  0  0  0  0
    0.8966    1.2903    3.1445 H   0  0  0  0  0  0  0  0  0  0  0  0
   -0.5597    0.6053    3.8994 H   0  0  0  0  0  0  0  0  0  0  0  0
    0.8618   -0.4228    3.6311 H   0  0  0  0  0  0  0  0  0  0  0  0
  1  2  1  0  0  0  0
  2  3  1  0  0  0  0
  2  4  1  0  0  0  0
  2  5  1  0  0  0  0
  5  6  2  0  0  0  0
  5  7  1  0  0  0  0
  7  8  1  0  0  0  0
  7  9  1  0  0  0  0
  9 10  1  0  0  0  0
  9 11  1  0  0  0  0
  9 22  1  0  0  0  0
 11 12  1  0  0  0  0
 11 13  1  0  0  0  0
 11 14  1  0  0  0  0
 14 15  1  0  0  0  0
 14 20  2  0  0  0  0
 15 16  2  0  0  0  0
 16 17  1  0  0  0  0
 16 18  1  0  0  0  0
 18 19  1  0  0  0  0
 18 20  1  0  0  0  0
 20 21  1  0  0  0  0
 22 23  2  0  0  0  0
 22 24  1  0  0  0  0
 24 25  1  0  0  0  0
 24 26  1  0  0  0  0
 26 27  1  0  0  0  0
 26 28  1  0  0  0  0
 26 29  1  0  0  0  0
M  END
$$$$

  -OEChem-04042215593D

 29 29  0     1  0  0  0  0  0999 V2000
   -2.5290   -4.3774    0.4240 H   0  0  0  0  0  0  0  0  0  0  0  0
   -2.6469   -3.3630    0.0320 C   0  0  0  0  0  0  0  0  0  0  0  0
   -3.3155   -2.8067    0.6933 H   0  0  0  0  0  0  0  0  0  0  0  0
   -3.0923   -3.4214   -0.9640 H   0  0  0  0  0  0  0  0  0  0  0  0
   -1.2971   -2.6738   -0.0424 C   0  0  0  0  0  0  0  0  0  0  0  0
   -0.2961   -3.2728    0.3033 O   0  0  0  0  0  0  0  0  0  0  0  0
   -1.2149   -1.3854   -0.5338 N   0  0  0  0  0  0  0  0  0  0  0  0
   -2.0877   -0.9437   -0.8005 H   0  0  0  0  0  0  0  0  0  0  0  0
    0.0195   -0.5751   -0.5394 C   0  0  1  0  0  0  0  0  0  0  0  0
    0.7989   -1.1160   -1.0880 H   0  0  0  0  0  0  0  0  0  0  0  0
   -0.3312    0.6968   -1.3517 C   0  0  0  0  0  0  0  0  0  0  0  0
   -0.4360    0.4187   -2.4044 H   0  0  0  0  0  0  0  0  0  0  0  0
   -1.3015    1.0668   -1.0087 H   0  0  0  0  0  0  0  0  0  0  0  0
    0.6128    1.8667   -1.2431 C   0  0  0  0  0  0  0  0  0  0  0  0
    1.1674    2.3738   -0.0775 N   0  0  0  0  0  0  0  0  0  0  0  0
    1.9868    3.3345   -0.4265 C   0  0  0  0  0  0  0  0  0  0  0  0
    2.5872    3.9211    0.2632 H   0  0  0  0  0  0  0  0  0  0  0  0
    1.9662    3.4883   -1.7990 N   0  0  0  0  0  0  0  0  0  0  0  0
    2.5330    4.1519   -2.3234 H   0  0  0  0  0  0  0  0  0  0  0  0
    1.0979    2.5536   -2.3225 C   0  0  0  0  0  0  0  0  0  0  0  0
    0.8626    2.3709   -3.3667 H   0  0  0  0  0  0  0  0  0  0  0  0
    0.5887   -0.3368    0.8837 C   0  0  0  0  0  0  0  0  0  0  0  0
    1.7764   -0.5329    1.1151 O   0  0  0  0  0  0  0  0  0  0  0  0
   -0.2540    0.0269    1.9212 N   0  0  0  0  0  0  0  0  0  0  0  0
   -1.2058    0.2703    1.6766 H   0  0  0  0  0  0  0  0  0  0  0  0
    0.2251    0.3089    3.2669 C   0  0  0  0  0  0  0  0  0  0  0  0
    0.9177    1.1570    3.2547 H   0  0  0  0  0  0  0  0  0  0  0  0
   -0.6145    0.5536    3.9240 H   0  0  0  0  0  0  0  0  0  0  0  0
    0.7425   -0.5640    3.6785 H   0  0  0  0  0  0  0  0  0  0  0  0
  1  2  1  0  0  0  0
  2  3  1  0  0  0  0
  2  4  1  0  0  0  0
  2  5  1  0  0  0  0
  5  6  2  0  0  0  0
  5  7  1  0  0  0  0
  7  8  1  0  0  0  0
  7  9  1  0  0  0  0
  9 10  1  0  0  0  0
  9 11  1  0  0  0  0
  9 22  1  0  0  0  0
 11 12  1  0  0  0  0
 11 13  1  0  0  0  0
 11 14  1  0  0  0  0
 14 15  1  0  0  0  0
 14 20  2  0  0  0  0
 15 16  2  0  0  0  0
 16 17  1  0  0  0  0
 16 18  1  0  0  0  0
 18 19  1  0  0  0  0
 18 20  1  0  0  0  0
 20 21  1  0  0  0  0
 22 23  2  0  0  0  0
 22 24  1  0  0  0  0
 24 25  1  0  0  0  0
 24 26  1  0  0  0  0
 26 27  1  0  0  0  0
 26 28  1  0  0  0  0
 26 29  1  0  0  0  0
M  END
$$$$

  -OEChem-04042215593D

 29 29  0     1  0  0  0  0  0999 V2000
   -2.5541   -4.3455    0.4220 H   0  0  0  0  0  0  0  0  0  0  0  0
   -2.6539   -3.3306    0.0261 C   0  0  0  0  0  0  0  0  0  0  0  0
   -3.3270   -2.7654    0.6751 H   0  0  0  0  0  0  0  0  0  0  0  0
   -3.0835   -3.3862   -0.9768 H   0  0  0  0  0  0  0  0  0  0  0  0
   -1.2955   -2.6561   -0.0269 C   0  0  0  0  0  0  0  0  0  0  0  0
   -0.3086   -3.2640    0.3422 O   0  0  0  0  0  0  0  0  0  0  0  0
   -1.1912   -1.3710   -0.5230 N   0  0  0  0  0  0  0  0  0  0  0  0
   -2.0518   -0.9283   -0.8249 H   0  0  0  0  0  0  0  0  0  0  0  0
    0.0526   -0.5740   -0.5243 C   0  0  1  0  0  0  0  0  0  0  0  0
    0.8330   -1.1164   -1.0699 H   0  0  0  0  0  0  0  0  0  0  0  0
   -0.2991    0.7019   -1.3320 C   0  0  0  0  0  0  0  0  0  0  0  0
   -0.4169    0.4249   -2.3838 H   0  0  0  0  0  0  0  0  0  0  0  0
   -1.2659    1.0693   -0.9766 H   0  0  0  0  0  0  0  0  0  0  0  0
    0.6351    1.8832   -1.2415 C   0  0  0  0  0  0  0  0  0  0  0  0
    1.4315    2.2511   -0.1688 N   0  0  0  0  0  0  0  0  0  0  0  0
    2.1356    3.2904   -0.5413 C   0  0  0  0  0  0  0  0  0  0  0  0
    2.8621    3.8059    0.0805 H   0  0  0  0  0  0  0  0  0  0  0  0
    1.8100    3.6283   -1.8400 N   0  0  0  0  0  0  0  0  0  0  0  0
    2.2299    4.3886   -2.3714 H   0  0  0  0  0  0  0  0  0  0  0  0
    0.8629    2.7329   -2.2905 C   0  0  0  0  0  0  0  0  0  0  0  0
    0.4040    2.6866   -3.2734 H   0  0  0  0  0  0  0  0  0  0  0  0
    0.6053   -0.3416    0.9071 C   0  0  0  0  0  0  0  0  0  0  0  0
    1.7771   -0.5877    1.1686 O   0  0  0  0  0  0  0  0  0  0  0  0
   -0.2493    0.0331    1.9315 N   0  0  0  0  0  0  0  0  0  0  0  0
   -1.2070    0.2481    1.6830 H   0  0  0  0  0  0  0  0  0  0  0  0
    0.1940    0.2337    3.3042 C   0  0  0  0  0  0  0  0  0  0  0  0
    0.9581    1.0170    3.3478 H   0  0  0  0  0  0  0  0  0  0  0  0
   -0.6480    0.5343    3.9343 H   0  0  0  0  0  0  0  0  0  0  0  0
    0.6152   -0.6928    3.7085 H   0  0  0  0  0  0  0  0  0  0  0  0
  1  2  1  0  0  0  0
  2  3  1  0  0  0  0
  2  4  1  0  0  0  0
  2  5  1  0  0  0  0
  5  6  2  0  0  0  0
  5  7  1  0  0  0  0
  7  8  1  0  0  0  0
  7  9  1  0  0  0  0
  9 10  1  0  0  0  0
  9 11  1  0  0  0  0
  9 22  1  0  0  0  0
 11 12  1  0  0  0  0
 11 13  1  0  0  0  0
 11 14  1  0  0  0  0
 14 15  1  0  0  0  0
 14 20  2  0  0  0  0
 15 16  2  0  0  0  0
 16 17  1  0  0  0  0
 16 18  1  0  0  0  0
 18 19  1  0  0  0  0
 18 20  1  0  0  0  0
 20 21  1  0  0  0  0
 22 23  2  0  0  0  0
 22 24  1  0  0  0  0
 24 25  1  0  0  0  0
 24 26  1  0  0  0  0
 26 27  1  0  0  0  0
 26 28  1  0  0  0  0
 26 29  1  0  0  0  0
M  END
$$$$

  -OEChem-04042215593D

 29 29  0     1  0  0  0  0  0999 V2000
   -2.5816   -4.3173    0.4248 H   0  0  0  0  0  0  0  0  0  0  0  0
   -2.6652   -3.3038    0.0216 C   0  0  0  0  0  0  0  0  0  0  0  0
   -3.3596   -2.7347    0.6441 H   0  0  0  0  0  0  0  0  0  0  0  0
   -3.0595   -3.3628   -0.9956 H   0  0  0  0  0  0  0  0  0  0  0  0
   -1.3042   -2.6330    0.0142 C   0  0  0  0  0  0  0  0  0  0  0  0
   -0.3371   -3.2345    0.4408 O   0  0  0  0  0  0  0  0  0  0  0  0
   -1.1782   -1.3574   -0.5012 N   0  0  0  0  0  0  0  0  0  0  0  0
   -2.0192   -0.9337   -0.8766 H   0  0  0  0  0  0  0  0  0  0  0  0
    0.0761   -0.5761   -0.5186 C   0  0  1  0  0  0  0  0  0  0  0  0
    0.8510   -1.1247   -1.0654 H   0  0  0  0  0  0  0  0  0  0  0  0
   -0.2813    0.7028   -1.3206 C   0  0  0  0  0  0  0  0  0  0  0  0
   -0.4112    0.4264   -2.3709 H   0  0  0  0  0  0  0  0  0  0  0  0
   -1.2427    1.0742   -0.9544 H   0  0  0  0  0  0  0  0  0  0  0  0
    0.6599    1.8802   -1.2510 C   0  0  0  0  0  0  0  0  0  0  0  0
    1.6805    2.1040   -0.3424 N   0  0  0  0  0  0  0  0  0  0  0  0
    2.2744    3.2199   -0.6821 C   0  0  0  0  0  0  0  0  0  0  0  0
    3.1210    3.6579   -0.1611 H   0  0  0  0  0  0  0  0  0  0  0  0
    1.6589    3.7482   -1.7995 N   0  0  0  0  0  0  0  0  0  0  0  0
    1.9383    4.6053   -2.2728 H   0  0  0  0  0  0  0  0  0  0  0  0
    0.6379    2.8969   -2.1679 C   0  0  0  0  0  0  0  0  0  0  0  0
   -0.0378    2.9927   -3.0124 H   0  0  0  0  0  0  0  0  0  0  0  0
    0.6268   -0.3333    0.9129 C   0  0  0  0  0  0  0  0  0  0  0  0
    1.7878   -0.6076    1.1929 O   0  0  0  0  0  0  0  0  0  0  0  0
   -0.2303    0.0651    1.9263 N   0  0  0  0  0  0  0  0  0  0  0  0
   -1.2027    0.2074    1.6834 H   0  0  0  0  0  0  0  0  0  0  0  0
    0.1838    0.1900    3.3171 C   0  0  0  0  0  0  0  0  0  0  0  0
    0.9948    0.9200    3.4097 H   0  0  0  0  0  0  0  0  0  0  0  0
   -0.6555    0.5248    3.9337 H   0  0  0  0  0  0  0  0  0  0  0  0
    0.5324   -0.7752    3.6994 H   0  0  0  0  0  0  0  0  0  0  0  0
  1  2  1  0  0  0  0
  2  3  1  0  0  0  0
  2  4  1  0  0  0  0
  2  5  1  0  0  0  0
  5  6  2  0  0  0  0
  5  7  1  0  0  0  0
  7  8  1  0  0  0  0
  7  9  1  0  0  0  0
  9 10  1  0  0  0  0
  9 11  1  0  0  0  0
  9 22  1  0  0  0  0
 11 12  1  0  0  0  0
 11 13  1  0  0  0  0
 11 14  1  0  0  0  0
 14 15  1  0  0  0  0
 14 20  2  0  0  0  0
 15 16  2  0  0  0  0
 16 17  1  0  0  0  0
 16 18  1  0  0  0  0
 18 19  1  0  0  0  0
 18 20  1  0  0  0  0
 20 21  1  0  0  0  0
 22 23  2  0  0  0  0
 22 24  1  0  0  0  0
 24 25  1  0  0  0  0
 24 26  1  0  0  0  0
 26 27  1  0  0  0  0
 26 28  1  0  0  0  0
 26 29  1  0  0  0  0
M  END
$$$$

  -OEChem-04042215593D

 29 29  0     1  0  0  0  0  0999 V2000
   -2.5968   -4.3016    0.4556 H   0  0  0  0  0  0  0  0  0  0  0  0
   -2.6734   -3.2948    0.0348 C   0  0  0  0  0  0  0  0  0  0  0  0
   -3.3885   -2.7201    0.6280 H   0  0  0  0  0  0  0  0  0  0  0  0
   -3.0375   -3.3707   -0.9924 H   0  0  0  0  0  0  0  0  0  0  0  0
   -1.3160   -2.6170    0.0573 C   0  0  0  0  0  0  0  0  0  0  0  0
   -0.3644   -3.1995    0.5409 O   0  0  0  0  0  0  0  0  0  0  0  0
   -1.1779   -1.3549   -0.4879 N   0  0  0  0  0  0  0  0  0  0  0  0
   -1.9964   -0.9675   -0.9440 H   0  0  0  0  0  0  0  0  0  0  0  0
    0.0846   -0.5864   -0.5334 C   0  0  1  0  0  0  0  0  0  0  0  0
    0.8513   -1.1427   -1.0841 H   0  0  0  0  0  0  0  0  0  0  0  0
   -0.2813    0.6944   -1.3278 C   0  0  0  0  0  0  0  0  0  0  0  0
   -0.4181    0.4161   -2.3767 H   0  0  0  0  0  0  0  0  0  0  0  0
   -1.2384    1.0720   -0.9564 H   0  0  0  0  0  0  0  0  0  0  0  0
    0.6755    1.8591   -1.2777 C   0  0  0  0  0  0  0  0  0  0  0  0
    1.8773    1.9422   -0.5961 N   0  0  0  0  0  0  0  0  0  0  0  0
    2.3805    3.1283   -0.8277 C   0  0  0  0  0  0  0  0  0  0  0  0
    3.3227    3.4938   -0.4292 H   0  0  0  0  0  0  0  0  0  0  0  0
    1.5303    3.8368   -1.6537 N   0  0  0  0  0  0  0  0  0  0  0  0
    1.6925    4.7850   -1.9877 H   0  0  0  0  0  0  0  0  0  0  0  0
    0.4464    3.0338   -1.9424 C   0  0  0  0  0  0  0  0  0  0  0  0
   -0.4110    3.2696   -2.5650 H   0  0  0  0  0  0  0  0  0  0  0  0
    0.6449   -0.3194    0.8908 C   0  0  0  0  0  0  0  0  0  0  0  0
    1.8023   -0.5992    1.1789 O   0  0  0  0  0  0  0  0  0  0  0  0
   -0.2089    0.1086    1.8950 N   0  0  0  0  0  0  0  0  0  0  0  0
   -1.1909    0.1826    1.6595 H   0  0  0  0  0  0  0  0  0  0  0  0
    0.1937    0.2000    3.2919 C   0  0  0  0  0  0  0  0  0  0  0  0
    1.0477    0.8769    3.4000 H   0  0  0  0  0  0  0  0  0  0  0  0
   -0.6306    0.5848    3.8995 H   0  0  0  0  0  0  0  0  0  0  0  0
    0.4759   -0.7873    3.6723 H   0  0  0  0  0  0  0  0  0  0  0  0
  1  2  1  0  0  0  0
  2  3  1  0  0  0  0
  2  4  1  0  0  0  0
  2  5  1  0  0  0  0
  5  6  2  0  0  0  0
  5  7  1  0  0  0  0
  7  8  1  0  0  0  0
  7  9  1  0  0  0  0
  9 10  1  0  0  0  0
  9 11  1  0  0  0  0
  9 22  1  0  0  0  0
 11 12  1  0  0  0  0
 11 13  1  0  0  0  0
 11 14  1  0  0  0  0
 14 15  1  0  0  0  0
 14 20  2  0  0  0  0
 15 16  2  0  0  0  0
 16 17  1  0  0  0  0
 16 18  1  0  0  0  0
 18 19  1  0  0  0  0
 18 20  1  0  0  0  0
 20 21  1  0  0  0  0
 22 23  2  0  0  0  0
 22 24  1  0  0  0  0
 24 25  1  0  0  0  0
 24 26  1  0  0  0  0
 26 27  1  0  0  0  0
 26 28  1  0  0  0  0
 26 29  1  0  0  0  0
M  END
$$$$

  -OEChem-04042215593D

 29 29  0     1  0  0  0  0  0999 V2000
   -2.5674   -4.3199    0.4761 H   0  0  0  0  0  0  0  0  0  0  0  0
   -2.6563   -3.3239    0.0326 C   0  0  0  0  0  0  0  0  0  0  0  0
   -3.4140   -2.7611    0.5826 H   0  0  0  0  0  0  0  0  0  0  0  0
   -2.9723   -3.4313   -1.0077 H   0  0  0  0  0  0  0  0  0  0  0  0
   -1.3223   -2.6038    0.0999 C   0  0  0  0  0  0  0  0  0  0  0  0
   -0.3784   -3.1441    0.6436 O   0  0  0  0  0  0  0  0  0  0  0  0
   -1.1976   -1.3527   -0.4736 N   0  0  0  0  0  0  0  0  0  0  0  0
   -1.9982   -1.0191   -0.9989 H   0  0  0  0  0  0  0  0  0  0  0  0
    0.0615   -0.5817   -0.5554 C   0  0  1  0  0  0  0  0  0  0  0  0
    0.8215   -1.1376   -1.1156 H   0  0  0  0  0  0  0  0  0  0  0  0
   -0.3271    0.6960   -1.3415 C   0  0  0  0  0  0  0  0  0  0  0  0
   -0.4720    0.4162   -2.3886 H   0  0  0  0  0  0  0  0  0  0  0  0
   -1.2807    1.0745   -0.9619 H   0  0  0  0  0  0  0  0  0  0  0  0
    0.6458    1.8457   -1.3050 C   0  0  0  0  0  0  0  0  0  0  0  0
    1.9676    1.7973   -0.8974 N   0  0  0  0  0  0  0  0  0  0  0  0
    2.4464    3.0129   -0.9787 C   0  0  0  0  0  0  0  0  0  0  0  0
    3.4626    3.2994   -0.7230 H   0  0  0  0  0  0  0  0  0  0  0  0
    1.4633    3.8671   -1.4394 N   0  0  0  0  0  0  0  0  0  0  0  0
    1.5796    4.8674   -1.5896 H   0  0  0  0  0  0  0  0  0  0  0  0
    0.3148    3.1302   -1.6426 C   0  0  0  0  0  0  0  0  0  0  0  0
   -0.6525    3.4818   -1.9882 H   0  0  0  0  0  0  0  0  0  0  0  0
    0.6433   -0.2843    0.8551 C   0  0  0  0  0  0  0  0  0  0  0  0
    1.8107   -0.5323    1.1304 O   0  0  0  0  0  0  0  0  0  0  0  0
   -0.1992    0.1612    1.8615 N   0  0  0  0  0  0  0  0  0  0  0  0
   -1.1889    0.1765    1.6465 H   0  0  0  0  0  0  0  0  0  0  0  0
    0.2197    0.2596    3.2535 C   0  0  0  0  0  0  0  0  0  0  0  0
    1.0833    0.9266    3.3470 H   0  0  0  0  0  0  0  0  0  0  0  0
   -0.5930    0.6606    3.8662 H   0  0  0  0  0  0  0  0  0  0  0  0
    0.4933   -0.7280    3.6397 H   0  0  0  0  0  0  0  0  0  0  0  0
  1  2  1  0  0  0  0
  2  3  1  0  0  0  0
  2  4  1  0  0  0  0
  2  5  1  0  0  0  0
  5  6  2  0  0  0  0
  5  7  1  0  0  0  0
  7  8  1  0  0  0  0
  7  9  1  0  0  0  0
  9 10  1  0  0  0  0
  9 11  1  0  0  0  0
  9 22  1  0  0  0  0
 11 12  1  0  0  0  0
 11 13  1  0  0  0  0
 11 14  1  0  0  0  0
 14 15  1  0  0  0  0
 14 20  2  0  0  0  0
 15 16  2  0  0  0  0
 16 17  1  0  0  0  0
 16 18  1  0  0  0  0
 18 19  1  0  0  0  0
 18 20  1  0  0  0  0
 20 21  1  0  0  0  0
 22 23  2  0  0  0  0
 22 24  1  0  0  0  0
 24 25  1  0  0  0  0
 24 26  1  0  0  0  0
 26 27  1  0  0  0  0
 26 28  1  0  0  0  0
 26 29  1  0  0  0  0
M  END
$$$$

  -OEChem-04042215593D

 29 29  0     1  0  0  0  0  0999 V2000
   -2.5227   -4.3436    0.5203 H   0  0  0  0  0  0  0  0  0  0  0  0
   -2.6238   -3.3721    0.0277 C   0  0  0  0  0  0  0  0  0  0  0  0
   -3.4224   -2.8111    0.5188 H   0  0  0  0  0  0  0  0  0  0  0  0
   -2.8910   -3.5364   -1.0189 H   0  0  0  0  0  0  0  0  0  0  0  0
   -1.3179   -2.6042    0.1161 C   0  0  0  0  0  0  0  0  0  0  0  0
   -0.3713   -3.0990    0.6974 O   0  0  0  0  0  0  0  0  0  0  0  0
   -1.2234   -1.3585   -0.4748 N   0  0  0  0  0  0  0  0  0  0  0  0
   -2.0151   -1.0760   -1.0424 H   0  0  0  0  0  0  0  0  0  0  0  0
    0.0229   -0.5705   -0.5857 C   0  0  1  0  0  0  0  0  0  0  0  0
    0.7803   -1.1172   -1.1586 H   0  0  0  0  0  0  0  0  0  0  0  0
   -0.3936    0.7074   -1.3540 C   0  0  0  0  0  0  0  0  0  0  0  0
   -0.5509    0.4379   -2.4020 H   0  0  0  0  0  0  0  0  0  0  0  0
   -1.3422    1.0799   -0.9566 H   0  0  0  0  0  0  0  0  0  0  0  0
    0.5924    1.8435   -1.3134 C   0  0  0  0  0  0  0  0  0  0  0  0
    1.9660    1.7038   -1.2112 N   0  0  0  0  0  0  0  0  0  0  0  0
    2.4702    2.9090   -1.1242 C   0  0  0  0  0  0  0  0  0  0  0  0
    3.5282    3.1345   -1.0263 H   0  0  0  0  0  0  0  0  0  0  0  0
    1.4532    3.8435   -1.1785 N   0  0  0  0  0  0  0  0  0  0  0  0
    1.5806    4.8516   -1.1140 H   0  0  0  0  0  0  0  0  0  0  0  0
    0.2548    3.1692   -1.2909 C   0  0  0  0  0  0  0  0  0  0  0  0
   -0.7462    3.5869   -1.3308 H   0  0  0  0  0  0  0  0  0  0  0  0
    0.6257   -0.2462    0.8103 C   0  0  0  0  0  0  0  0  0  0  0  0
    1.8130   -0.4187    1.0556 O   0  0  0  0  0  0  0  0  0  0  0  0
   -0.2076    0.1995    1.8241 N   0  0  0  0  0  0  0  0  0  0  0  0
   -1.2024    0.1429    1.6403 H   0  0  0  0  0  0  0  0  0  0  0  0
    0.2418    0.3539    3.2016 C   0  0  0  0  0  0  0  0  0  0  0  0
    1.0843    1.0516    3.2534 H   0  0  0  0  0  0  0  0  0  0  0  0
   -0.5687    0.7466    3.8227 H   0  0  0  0  0  0  0  0  0  0  0  0
    0.5580   -0.6118    3.6101 H   0  0  0  0  0  0  0  0  0  0  0  0
  1  2  1  0  0  0  0
  2  3  1  0  0  0  0
  2  4  1  0  0  0  0
  2  5  1  0  0  0  0
  5  6  2  0  0  0  0
  5  7  1  0  0  0  0
  7  8  1  0  0  0  0
  7  9  1  0  0  0  0
  9 10  1  0  0  0  0
  9 11  1  0  0  0  0
  9 22  1  0  0  0  0
 11 12  1  0  0  0  0
 11 13  1  0  0  0  0
 11 14  1  0  0  0  0
 14 15  1  0  0  0  0
 14 20  2  0  0  0  0
 15 16  2  0  0  0  0
 16 17  1  0  0  0  0
 16 18  1  0  0  0  0
 18 19  1  0  0  0  0
 18 20  1  0  0  0  0
 20 21  1  0  0  0  0
 22 23  2  0  0  0  0
 22 24  1  0  0  0  0
 24 25  1  0  0  0  0
 24 26  1  0  0  0  0
 26 27  1  0  0  0  0
 26 28  1  0  0  0  0
 26 29  1  0  0  0  0
M  END
$$$$

  -OEChem-04042215593D

 29 29  0     1  0  0  0  0  0999 V2000
   -2.4581   -4.3931    0.4868 H   0  0  0  0  0  0  0  0  0  0  0  0
   -2.5899   -3.4194    0.0058 C   0  0  0  0  0  0  0  0  0  0  0  0
   -3.4112   -2.8928    0.4975 H   0  0  0  0  0  0  0  0  0  0  0  0
   -2.8439   -3.5797   -1.0447 H   0  0  0  0  0  0  0  0  0  0  0  0
   -1.3123   -2.6077    0.1141 C   0  0  0  0  0  0  0  0  0  0  0  0
   -0.3612   -3.0659    0.7178 O   0  0  0  0  0  0  0  0  0  0  0  0
   -1.2502   -1.3591   -0.4747 N   0  0  0  0  0  0  0  0  0  0  0  0
   -2.0374   -1.1107   -1.0644 H   0  0  0  0  0  0  0  0  0  0  0  0
   -0.0203   -0.5481   -0.5952 C   0  0  1  0  0  0  0  0  0  0  0  0
    0.7392   -1.0814   -1.1777 H   0  0  0  0  0  0  0  0  0  0  0  0
   -0.4544    0.7290   -1.3518 C   0  0  0  0  0  0  0  0  0  0  0  0
   -0.6161    0.4749   -2.4030 H   0  0  0  0  0  0  0  0  0  0  0  0
   -1.4016    1.0940   -0.9438 H   0  0  0  0  0  0  0  0  0  0  0  0
    0.5416    1.8526   -1.2891 C   0  0  0  0  0  0  0  0  0  0  0  0
    1.9031    1.6893   -1.4848 N   0  0  0  0  0  0  0  0  0  0  0  0
    2.4583    2.8559   -1.2686 C   0  0  0  0  0  0  0  0  0  0  0  0
    3.5241    3.0572   -1.3284 H   0  0  0  0  0  0  0  0  0  0  0  0
    1.4847    3.7878   -0.9599 N   0  0  0  0  0  0  0  0  0  0  0  0
    1.6611    4.7635   -0.7295 H   0  0  0  0  0  0  0  0  0  0  0  0
    0.2608    3.1512   -0.9656 C   0  0  0  0  0  0  0  0  0  0  0  0
   -0.7139    3.5696   -0.7355 H   0  0  0  0  0  0  0  0  0  0  0  0
    0.5977   -0.2116    0.7910 C   0  0  0  0  0  0  0  0  0  0  0  0
    1.8023   -0.2907    0.9954 O   0  0  0  0  0  0  0  0  0  0  0  0
   -0.2272    0.2180    1.8180 N   0  0  0  0  0  0  0  0  0  0  0  0
   -1.2219    0.0921    1.6695 H   0  0  0  0  0  0  0  0  0  0  0  0
    0.2550    0.4255    3.1772 C   0  0  0  0  0  0  0  0  0  0  0  0
    1.0540    1.1742    3.1891 H   0  0  0  0  0  0  0  0  0  0  0  0
   -0.5581    0.7799    3.8174 H   0  0  0  0  0  0  0  0  0  0  0  0
    0.6428   -0.5111    3.5917 H   0  0  0  0  0  0  0  0  0  0  0  0
  1  2  1  0  0  0  0
  2  3  1  0  0  0  0
  2  4  1  0  0  0  0
  2  5  1  0  0  0  0
  5  6  2  0  0  0  0
  5  7  1  0  0  0  0
  7  8  1  0  0  0  0
  7  9  1  0  0  0  0
  9 10  1  0  0  0  0
  9 11  1  0  0  0  0
  9 22  1  0  0  0  0
 11 12  1  0  0  0  0
 11 13  1  0  0  0  0
 11 14  1  0  0  0  0
 14 15  1  0  0  0  0
 14 20  2  0  0  0  0
 15 16  2  0  0  0  0
 16 17  1  0  0  0  0
 16 18  1  0  0  0  0
 18 19  1  0  0  0  0
 18 20  1  0  0  0  0
 20 21  1  0  0  0  0
 22 23  2  0  0  0  0
 22 24  1  0  0  0  0
 24 25  1  0  0  0  0
 24 26  1  0  0  0  0
 26 27  1  0  0  0  0
 26 28  1  0  0  0  0
 26 29  1  0  0  0  0
M  END
$$$$

  -OEChem-04042215593D

 29 29  0     1  0  0  0  0  0999 V2000
   -2.4078   -4.4296    0.4483 H   0  0  0  0  0  0  0  0  0  0  0  0
   -2.5636   -3.4513   -0.0153 C   0  0  0  0  0  0  0  0  0  0  0  0
   -3.3961   -2.9529    0.4870 H   0  0  0  0  0  0  0  0  0  0  0  0
   -2.8156   -3.5995   -1.0680 H   0  0  0  0  0  0  0  0  0  0  0  0
   -1.3058   -2.6111    0.1052 C   0  0  0  0  0  0  0  0  0  0  0  0
   -0.3490   -3.0472    0.7167 O   0  0  0  0  0  0  0  0  0  0  0  0
   -1.2688   -1.3569   -0.4735 N   0  0  0  0  0  0  0  0  0  0  0  0
   -2.0549   -1.1255   -1.0718 H   0  0  0  0  0  0  0  0  0  0  0  0
   -0.0524   -0.5266   -0.5934 C   0  0  1  0  0  0  0  0  0  0  0  0
    0.7101   -1.0494   -1.1822 H   0  0  0  0  0  0  0  0  0  0  0  0
   -0.4932    0.7510   -1.3416 C   0  0  0  0  0  0  0  0  0  0  0  0
   -0.6594    0.5131   -2.3960 H   0  0  0  0  0  0  0  0  0  0  0  0
   -1.4375    1.1119   -0.9237 H   0  0  0  0  0  0  0  0  0  0  0  0
    0.5110    1.8633   -1.2536 C   0  0  0  0  0  0  0  0  0  0  0  0
    1.8073    1.7474   -1.7286 N   0  0  0  0  0  0  0  0  0  0  0  0
    2.4172    2.8649   -1.4183 C   0  0  0  0  0  0  0  0  0  0  0  0
    3.4583    3.0847   -1.6369 H   0  0  0  0  0  0  0  0  0  0  0  0
    1.5376    3.7215   -0.7817 N   0  0  0  0  0  0  0  0  0  0  0  0
    1.7776    4.6414   -0.4176 H   0  0  0  0  0  0  0  0  0  0  0  0
    0.3185    3.0857   -0.6727 C   0  0  0  0  0  0  0  0  0  0  0  0
   -0.5887    3.4486   -0.2002 H   0  0  0  0  0  0  0  0  0  0  0  0
    0.5740   -0.1890    0.7878 C   0  0  0  0  0  0  0  0  0  0  0  0
    1.7865   -0.1880    0.9574 O   0  0  0  0  0  0  0  0  0  0  0  0
   -0.2469    0.2210    1.8257 N   0  0  0  0  0  0  0  0  0  0  0  0
   -1.2369    0.0410    1.7012 H   0  0  0  0  0  0  0  0  0  0  0  0
    0.2541    0.4583    3.1734 C   0  0  0  0  0  0  0  0  0  0  0  0
    1.0272    1.2340    3.1643 H   0  0  0  0  0  0  0  0  0  0  0  0
   -0.5586    0.7903    3.8260 H   0  0  0  0  0  0  0  0  0  0  0  0
    0.6814   -0.4606    3.5887 H   0  0  0  0  0  0  0  0  0  0  0  0
  1  2  1  0  0  0  0
  2  3  1  0  0  0  0
  2  4  1  0  0  0  0
  2  5  1  0  0  0  0
  5  6  2  0  0  0  0
  5  7  1  0  0  0  0
  7  8  1  0  0  0  0
  7  9  1  0  0  0  0
  9 10  1  0  0  0  0
  9 11  1  0  0  0  0
  9 22  1  0  0  0  0
 11 12  1  0  0  0  0
 11 13  1  0  0  0  0
 11 14  1  0  0  0  0
 14 15  1  0  0  0  0
 14 20  2  0  0  0  0
 15 16  2  0  0  0  0
 16 17  1  0  0  0  0
 16 18  1  0  0  0  0
 18 19  1  0  0  0  0
 18 20  1  0  0  0  0
 20 21  1  0  0  0  0
 22 23  2  0  0  0  0
 22 24  1  0  0  0  0
 24 25  1  0  0  0  0
 24 26  1  0  0  0  0
 26 27  1  0  0  0  0
 26 28  1  0  0  0  0
 26 29  1  0  0  0  0
M  END
$$$$

  -OEChem-04042215593D

 29 29  0     1  0  0  0  0  0999 V2000
   -2.3958   -4.4510    0.4078 H   0  0  0  0  0  0  0  0  0  0  0  0
   -2.5603   -3.4681   -0.0436 C   0  0  0  0  0  0  0  0  0  0  0  0
   -3.4029   -2.9869    0.4586 H   0  0  0  0  0  0  0  0  0  0  0  0
   -2.8028   -3.6051   -1.1001 H   0  0  0  0  0  0  0  0  0  0  0  0
   -1.3136   -2.6146    0.0982 C   0  0  0  0  0  0  0  0  0  0  0  0
   -0.3574   -3.0462    0.7141 O   0  0  0  0  0  0  0  0  0  0  0  0
   -1.2834   -1.3536   -0.4660 N   0  0  0  0  0  0  0  0  0  0  0  0
   -2.0669   -1.1225   -1.0682 H   0  0  0  0  0  0  0  0  0  0  0  0
   -0.0695   -0.5185   -0.5762 C   0  0  1  0  0  0  0  0  0  0  0  0
    0.6926   -1.0394   -1.1671 H   0  0  0  0  0  0  0  0  0  0  0  0
   -0.4998    0.7632   -1.3223 C   0  0  0  0  0  0  0  0  0  0  0  0
   -0.6658    0.5364   -2.3792 H   0  0  0  0  0  0  0  0  0  0  0  0
   -1.4424    1.1268   -0.9035 H   0  0  0  0  0  0  0  0  0  0  0  0
    0.5097    1.8685   -1.2162 C   0  0  0  0  0  0  0  0  0  0  0  0
    1.6966    1.8666   -1.9319 N   0  0  0  0  0  0  0  0  0  0  0  0
    2.3490    2.9427   -1.5642 C   0  0  0  0  0  0  0  0  0  0  0  0
    3.3327    3.2253   -1.9283 H   0  0  0  0  0  0  0  0  0  0  0  0
    1.5974    3.6655   -0.6557 N   0  0  0  0  0  0  0  0  0  0  0  0
    1.8983    4.5238   -0.1983 H   0  0  0  0  0  0  0  0  0  0  0  0
    0.4189    2.9850   -0.4325 C   0  0  0  0  0  0  0  0  0  0  0  0
   -0.3913    3.2456    0.2411 H   0  0  0  0  0  0  0  0  0  0  0  0
    0.5612   -0.1917    0.8049 C   0  0  0  0  0  0  0  0  0  0  0  0
    1.7759   -0.1463    0.9518 O   0  0  0  0  0  0  0  0  0  0  0  0
   -0.2553    0.2056    1.8510 N   0  0  0  0  0  0  0  0  0  0  0  0
   -1.2417   -0.0024    1.7412 H   0  0  0  0  0  0  0  0  0  0  0  0
    0.2574    0.4579    3.1915 C   0  0  0  0  0  0  0  0  0  0  0  0
    1.0113    1.2516    3.1706 H   0  0  0  0  0  0  0  0  0  0  0  0
   -0.5543    0.7727    3.8538 H   0  0  0  0  0  0  0  0  0  0  0  0
    0.7121   -0.4492    3.6035 H   0  0  0  0  0  0  0  0  0  0  0  0
  1  2  1  0  0  0  0
  2  3  1  0  0  0  0
  2  4  1  0  0  0  0
  2  5  1  0  0  0  0
  5  6  2  0  0  0  0
  5  7  1  0  0  0  0
  7  8  1  0  0  0  0
  7  9  1  0  0  0  0
  9 10  1  0  0  0  0
  9 11  1  0  0  0  0
  9 22  1  0  0  0  0
 11 12  1  0  0  0  0
 11 13  1  0  0  0  0
 11 14  1  0  0  0  0
 14 15  1  0  0  0  0
 14 20  2  0  0  0  0
 15 16  2  0  0  0  0
 16 17  1  0  0  0  0
 16 18  1  0  0  0  0
 18 19  1  0  0  0  0
 18 20  1  0  0  0  0
 20 21  1  0  0  0  0
 22 23  2  0  0  0  0
 22 24  1  0  0  0  0
 24 25  1  0  0  0  0
 24 26  1  0  0  0  0
 26 27  1  0  0  0  0
 26 28  1  0  0  0  0
 26 29  1  0  0  0  0
M  END
$$$$

  -OEChem-04042215593D

 29 29  0     1  0  0  0  0  0999 V2000
   -2.4216   -4.4504    0.3816 H   0  0  0  0  0  0  0  0  0  0  0  0
   -2.5758   -3.4647   -0.0667 C   0  0  0  0  0  0  0  0  0  0  0  0
   -3.4224   -2.9821    0.4274 H   0  0  0  0  0  0  0  0  0  0  0  0
   -2.8054   -3.5951   -1.1271 H   0  0  0  0  0  0  0  0  0  0  0  0
   -1.3276   -2.6175    0.0949 C   0  0  0  0  0  0  0  0  0  0  0  0
   -0.3787   -3.0568    0.7166 O   0  0  0  0  0  0  0  0  0  0  0  0
   -1.2877   -1.3513   -0.4566 N   0  0  0  0  0  0  0  0  0  0  0  0
   -2.0653   -1.1113   -1.0633 H   0  0  0  0  0  0  0  0  0  0  0  0
   -0.0681   -0.5235   -0.5528 C   0  0  1  0  0  0  0  0  0  0  0  0
    0.6924   -1.0498   -1.1408 H   0  0  0  0  0  0  0  0  0  0  0  0
   -0.4786    0.7620   -1.3031 C   0  0  0  0  0  0  0  0  0  0  0  0
   -0.6426    0.5370   -2.3608 H   0  0  0  0  0  0  0  0  0  0  0  0
   -1.4208    1.1327   -0.8893 H   0  0  0  0  0  0  0  0  0  0  0  0
    0.5312    1.8675   -1.1906 C   0  0  0  0  0  0  0  0  0  0  0  0
    1.5686    2.0263   -2.0969 N   0  0  0  0  0  0  0  0  0  0  0  0
    2.2517    3.0705   -1.6934 C   0  0  0  0  0  0  0  0  0  0  0  0
    3.1467    3.4502   -2.1780 H   0  0  0  0  0  0  0  0  0  0  0  0
    1.6602    3.6200   -0.5708 N   0  0  0  0  0  0  0  0  0  0  0  0
    2.0195    4.4171   -0.0494 H   0  0  0  0  0  0  0  0  0  0  0  0
    0.5545    2.8611   -0.2516 C   0  0  0  0  0  0  0  0  0  0  0  0
   -0.1326    2.9885    0.5791 H   0  0  0  0  0  0  0  0  0  0  0  0
    0.5607   -0.2134    0.8317 C   0  0  0  0  0  0  0  0  0  0  0  0
    1.7758   -0.1575    0.9715 O   0  0  0  0  0  0  0  0  0  0  0  0
   -0.2541    0.1799    1.8806 N   0  0  0  0  0  0  0  0  0  0  0  0
   -1.2393   -0.0377    1.7750 H   0  0  0  0  0  0  0  0  0  0  0  0
    0.2632    0.4271    3.2205 C   0  0  0  0  0  0  0  0  0  0  0  0
    1.0124    1.2257    3.2015 H   0  0  0  0  0  0  0  0  0  0  0  0
   -0.5474    0.7321    3.8889 H   0  0  0  0  0  0  0  0  0  0  0  0
    0.7254   -0.4798    3.6245 H   0  0  0  0  0  0  0  0  0  0  0  0
  1  2  1  0  0  0  0
  2  3  1  0  0  0  0
  2  4  1  0  0  0  0
  2  5  1  0  0  0  0
  5  6  2  0  0  0  0
  5  7  1  0  0  0  0
  7  8  1  0  0  0  0
  7  9  1  0  0  0  0
  9 10  1  0  0  0  0
  9 11  1  0  0  0  0
  9 22  1  0  0  0  0
 11 12  1  0  0  0  0
 11 13  1  0  0  0  0
 11 14  1  0  0  0  0
 14 15  1  0  0  0  0
 14 20  2  0  0  0  0
 15 16  2  0  0  0  0
 16 17  1  0  0  0  0
 16 18  1  0  0  0  0
 18 19  1  0  0  0  0
 18 20  1  0  0  0  0
 20 21  1  0  0  0  0
 22 23  2  0  0  0  0
 22 24  1  0  0  0  0
 24 25  1  0  0  0  0
 24 26  1  0  0  0  0
 26 27  1  0  0  0  0
 26 28  1  0  0  0  0
 26 29  1  0  0  0  0
M  END
$$$$

  -OEChem-04042215593D

 29 29  0     1  0  0  0  0  0999 V2000
   -2.4569   -4.4425    0.3558 H   0  0  0  0  0  0  0  0  0  0  0  0
   -2.5977   -3.4502   -0.0822 C   0  0  0  0  0  0  0  0  0  0  0  0
   -3.4405   -2.9627    0.4137 H   0  0  0  0  0  0  0  0  0  0  0  0
   -2.8249   -3.5661   -1.1447 H   0  0  0  0  0  0  0  0  0  0  0  0
   -1.3398   -2.6199    0.0927 C   0  0  0  0  0  0  0  0  0  0  0  0
   -0.3971   -3.0778    0.7106 O   0  0  0  0  0  0  0  0  0  0  0  0
   -1.2820   -1.3488   -0.4456 N   0  0  0  0  0  0  0  0  0  0  0  0
   -2.0556   -1.0906   -1.0500 H   0  0  0  0  0  0  0  0  0  0  0  0
   -0.0527   -0.5338   -0.5256 C   0  0  1  0  0  0  0  0  0  0  0  0
    0.7063   -1.0687   -1.1079 H   0  0  0  0  0  0  0  0  0  0  0  0
   -0.4390    0.7559   -1.2835 C   0  0  0  0  0  0  0  0  0  0  0  0
   -0.5974    0.5251   -2.3410 H   0  0  0  0  0  0  0  0  0  0  0  0
   -1.3829    1.1344   -0.8811 H   0  0  0  0  0  0  0  0  0  0  0  0
    0.5649    1.8704   -1.1751 C   0  0  0  0  0  0  0  0  0  0  0  0
    1.4100    2.2050   -2.2236 N   0  0  0  0  0  0  0  0  0  0  0  0
    2.1270    3.2224   -1.8105 C   0  0  0  0  0  0  0  0  0  0  0  0
    2.9030    3.7109   -2.3928 H   0  0  0  0  0  0  0  0  0  0  0  0
    1.7427    3.5863   -0.5340 N   0  0  0  0  0  0  0  0  0  0  0  0
    2.1689    4.3271    0.0192 H   0  0  0  0  0  0  0  0  0  0  0  0
    0.7341    2.7379   -0.1308 C   0  0  0  0  0  0  0  0  0  0  0  0
    0.2036    2.7282    0.8165 H   0  0  0  0  0  0  0  0  0  0  0  0
    0.5665   -0.2472    0.8667 C   0  0  0  0  0  0  0  0  0  0  0  0
    1.7810   -0.1991    1.0131 O   0  0  0  0  0  0  0  0  0  0  0  0
   -0.2523    0.1431    1.9135 N   0  0  0  0  0  0  0  0  0  0  0  0
   -1.2390   -0.0628    1.7970 H   0  0  0  0  0  0  0  0  0  0  0  0
    0.2557    0.3626    3.2619 C   0  0  0  0  0  0  0  0  0  0  0  0
    1.0191    1.1479    3.2620 H   0  0  0  0  0  0  0  0  0  0  0  0
   -0.5564    0.6728    3.9263 H   0  0  0  0  0  0  0  0  0  0  0  0
    0.6976   -0.5581    3.6577 H   0  0  0  0  0  0  0  0  0  0  0  0
  1  2  1  0  0  0  0
  2  3  1  0  0  0  0
  2  4  1  0  0  0  0
  2  5  1  0  0  0  0
  5  6  2  0  0  0  0
  5  7  1  0  0  0  0
  7  8  1  0  0  0  0
  7  9  1  0  0  0  0
  9 10  1  0  0  0  0
  9 11  1  0  0  0  0
  9 22  1  0  0  0  0
 11 12  1  0  0  0  0
 11 13  1  0  0  0  0
 11 14  1  0  0  0  0
 14 15  1  0  0  0  0
 14 20  2  0  0  0  0
 15 16  2  0  0  0  0
 16 17  1  0  0  0  0
 16 18  1  0  0  0  0
 18 19  1  0  0  0  0
 18 20  1  0  0  0  0
 20 21  1  0  0  0  0
 22 23  2  0  0  0  0
 22 24  1  0  0  0  0
 24 25  1  0  0  0  0
 24 26  1  0  0  0  0
 26 27  1  0  0  0  0
 26 28  1  0  0  0  0
 26 29  1  0  0  0  0
M  END
$$$$

  -OEChem-04042215593D

 29 29  0     1  0  0  0  0  0999 V2000
   -2.5060   -4.4244    0.3313 H   0  0  0  0  0  0  0  0  0  0  0  0
   -2.6259   -3.4251   -0.0973 C   0  0  0  0  0  0  0  0  0  0  0  0
   -3.4577   -2.9249    0.4043 H   0  0  0  0  0  0  0  0  0  0  0  0
   -2.8563   -3.5261   -1.1607 H   0  0  0  0  0  0  0  0  0  0  0  0
   -1.3507   -2.6232    0.0850 C   0  0  0  0  0  0  0  0  0  0  0  0
   -0.4158   -3.1077    0.6947 O   0  0  0  0  0  0  0  0  0  0  0  0
   -1.2670   -1.3470   -0.4374 N   0  0  0  0  0  0  0  0  0  0  0  0
   -2.0384   -1.0611   -1.0324 H   0  0  0  0  0  0  0  0  0  0  0  0
   -0.0258   -0.5482   -0.4952 C   0  0  1  0  0  0  0  0  0  0  0  0
    0.7334   -1.0922   -1.0684 H   0  0  0  0  0  0  0  0  0  0  0  0
   -0.3873    0.7455   -1.2627 C   0  0  0  0  0  0  0  0  0  0  0  0
   -0.5292    0.4995   -2.3194 H   0  0  0  0  0  0  0  0  0  0  0  0
   -1.3391    1.1281   -0.8837 H   0  0  0  0  0  0  0  0  0  0  0  0
    0.5997    1.8807   -1.1677 C   0  0  0  0  0  0  0  0  0  0  0  0
    1.2110    2.3946   -2.3043 N   0  0  0  0  0  0  0  0  0  0  0  0
    1.9725    3.3854   -1.9064 C   0  0  0  0  0  0  0  0  0  0  0  0
    2.6001    3.9863   -2.5582 H   0  0  0  0  0  0  0  0  0  0  0  0
    1.8494    3.5562   -0.5416 N   0  0  0  0  0  0  0  0  0  0  0  0
    2.3586    4.2401    0.0147 H   0  0  0  0  0  0  0  0  0  0  0  0
    0.9620    2.6137   -0.0696 C   0  0  0  0  0  0  0  0  0  0  0  0
    0.6333    2.4638    0.9543 H   0  0  0  0  0  0  0  0  0  0  0  0
    0.5753   -0.2906    0.9093 C   0  0  0  0  0  0  0  0  0  0  0  0
    1.7882   -0.2572    1.0725 O   0  0  0  0  0  0  0  0  0  0  0  0
   -0.2529    0.0963    1.9498 N   0  0  0  0  0  0  0  0  0  0  0  0
   -1.2417   -0.0857    1.8126 H   0  0  0  0  0  0  0  0  0  0  0  0
    0.2351    0.2809    3.3108 C   0  0  0  0  0  0  0  0  0  0  0  0
    1.0176    1.0462    3.3386 H   0  0  0  0  0  0  0  0  0  0  0  0
   -0.5815    0.6006    3.9649 H   0  0  0  0  0  0  0  0  0  0  0  0
    0.6457   -0.6571    3.6990 H   0  0  0  0  0  0  0  0  0  0  0  0
  1  2  1  0  0  0  0
  2  3  1  0  0  0  0
  2  4  1  0  0  0  0
  2  5  1  0  0  0  0
  5  6  2  0  0  0  0
  5  7  1  0  0  0  0
  7  8  1  0  0  0  0
  7  9  1  0  0  0  0
  9 10  1  0  0  0  0
  9 11  1  0  0  0  0
  9 22  1  0  0  0  0
 11 12  1  0  0  0  0
 11 13  1  0  0  0  0
 11 14  1  0  0  0  0
 14 15  1  0  0  0  0
 14 20  2  0  0  0  0
 15 16  2  0  0  0  0
 16 17  1  0  0  0  0
 16 18  1  0  0  0  0
 18 19  1  0  0  0  0
 18 20  1  0  0  0  0
 20 21  1  0  0  0  0
 22 23  2  0  0  0  0
 22 24  1  0  0  0  0
 24 25  1  0  0  0  0
 24 26  1  0  0  0  0
 26 27  1  0  0  0  0
 26 28  1  0  0  0  0
 26 29  1  0  0  0  0
M  END
$$$$

  -OEChem-04042215593D

 29 29  0     1  0  0  0  0  0999 V2000
   -2.5572   -4.4026    0.3023 H   0  0  0  0  0  0  0  0  0  0  0  0
   -2.6538   -3.3981   -0.1199 C   0  0  0  0  0  0  0  0  0  0  0  0
   -3.4772   -2.8839    0.3811 H   0  0  0  0  0  0  0  0  0  0  0  0
   -2.8807   -3.4865   -1.1851 H   0  0  0  0  0  0  0  0  0  0  0  0
   -1.3633   -2.6244    0.0742 C   0  0  0  0  0  0  0  0  0  0  0  0
   -0.4379   -3.1372    0.6750 O   0  0  0  0  0  0  0  0  0  0  0  0
   -1.2524   -1.3435   -0.4319 N   0  0  0  0  0  0  0  0  0  0  0  0
   -2.0184   -1.0301   -1.0201 H   0  0  0  0  0  0  0  0  0  0  0  0
    0.0012   -0.5628   -0.4640 C   0  0  1  0  0  0  0  0  0  0  0  0
    0.7615   -1.1118   -1.0310 H   0  0  0  0  0  0  0  0  0  0  0  0
   -0.3394    0.7386   -1.2313 C   0  0  0  0  0  0  0  0  0  0  0  0
   -0.4638    0.4804   -2.2875 H   0  0  0  0  0  0  0  0  0  0  0  0
   -1.3001    1.1199   -0.8739 H   0  0  0  0  0  0  0  0  0  0  0  0
    0.6262    1.8982   -1.1505 C   0  0  0  0  0  0  0  0  0  0  0  0
    0.9649    2.5858   -2.3105 N   0  0  0  0  0  0  0  0  0  0  0  0
    1.7934    3.5403   -1.9624 C   0  0  0  0  0  0  0  0  0  0  0  0
    2.2511    4.2473   -2.6483 H   0  0  0  0  0  0  0  0  0  0  0  0
    1.9902    3.5150   -0.5971 N   0  0  0  0  0  0  0  0  0  0  0  0
    2.6085    4.1364   -0.0792 H   0  0  0  0  0  0  0  0  0  0  0  0
    1.2413    2.4833   -0.0743 C   0  0  0  0  0  0  0  0  0  0  0  0
    1.1687    2.1911    0.9688 H   0  0  0  0  0  0  0  0  0  0  0  0
    0.5787   -0.3357    0.9541 C   0  0  0  0  0  0  0  0  0  0  0  0
    1.7886   -0.3414    1.1425 O   0  0  0  0  0  0  0  0  0  0  0  0
   -0.2600    0.0492    1.9865 N   0  0  0  0  0  0  0  0  0  0  0  0
   -1.2516   -0.0930    1.8249 H   0  0  0  0  0  0  0  0  0  0  0  0
    0.2041    0.2028    3.3595 C   0  0  0  0  0  0  0  0  0  0  0  0
    0.9996    0.9532    3.4154 H   0  0  0  0  0  0  0  0  0  0  0  0
   -0.6196    0.5263    4.0029 H   0  0  0  0  0  0  0  0  0  0  0  0
    0.5902   -0.7488    3.7397 H   0  0  0  0  0  0  0  0  0  0  0  0
  1  2  1  0  0  0  0
  2  3  1  0  0  0  0
  2  4  1  0  0  0  0
  2  5  1  0  0  0  0
  5  6  2  0  0  0  0
  5  7  1  0  0  0  0
  7  8  1  0  0  0  0
  7  9  1  0  0  0  0
  9 10  1  0  0  0  0
  9 11  1  0  0  0  0
  9 22  1  0  0  0  0
 11 12  1  0  0  0  0
 11 13  1  0  0  0  0
 11 14  1  0  0  0  0
 14 15  1  0  0  0  0
 14 20  2  0  0  0  0
 15 16  2  0  0  0  0
 16 17  1  0  0  0  0
 16 18  1  0  0  0  0
 18 19  1  0  0  0  0
 18 20  1  0  0  0  0
 20 21  1  0  0  0  0
 22 23  2  0  0  0  0
 22 24  1  0  0  0  0
 24 25  1  0  0  0  0
 24 26  1  0  0  0  0
 26 27  1  0  0  0  0
 26 28  1  0  0  0  0
 26 29  1  0  0  0  0
M  END
$$$$

  -OEChem-04042215593D

 29 29  0     1  0  0  0  0  0999 V2000
   -2.6181   -4.3676    0.2874 H   0  0  0  0  0  0  0  0  0  0  0  0
   -2.6874   -3.3589   -0.1300 C   0  0  0  0  0  0  0  0  0  0  0  0
   -3.4946   -2.8239    0.3757 H   0  0  0  0  0  0  0  0  0  0  0  0
   -2.9199   -3.4359   -1.1949 H   0  0  0  0  0  0  0  0  0  0  0  0
   -1.3747   -2.6233    0.0642 C   0  0  0  0  0  0  0  0  0  0  0  0
   -0.4594   -3.1694    0.6510 O   0  0  0  0  0  0  0  0  0  0  0  0
   -1.2301   -1.3423   -0.4329 N   0  0  0  0  0  0  0  0  0  0  0  0
   -1.9928   -0.9970   -1.0074 H   0  0  0  0  0  0  0  0  0  0  0  0
    0.0372   -0.5832   -0.4407 C   0  0  1  0  0  0  0  0  0  0  0  0
    0.7993   -1.1362   -1.0011 H   0  0  0  0  0  0  0  0  0  0  0  0
   -0.2893    0.7261   -1.2023 C   0  0  0  0  0  0  0  0  0  0  0  0
   -0.4007    0.4637   -2.2589 H   0  0  0  0  0  0  0  0  0  0  0  0
   -1.2561    1.1039   -0.8572 H   0  0  0  0  0  0  0  0  0  0  0  0
    0.6585    1.9034   -1.1318 C   0  0  0  0  0  0  0  0  0  0  0  0
    0.7196    2.7579   -2.2277 N   0  0  0  0  0  0  0  0  0  0  0  0
    1.6067    3.6823   -1.9505 C   0  0  0  0  0  0  0  0  0  0  0  0
    1.8876    4.4951   -2.6143 H   0  0  0  0  0  0  0  0  0  0  0  0
    2.1256    3.4669   -0.6914 N   0  0  0  0  0  0  0  0  0  0  0  0
    2.8463    4.0316   -0.2459 H   0  0  0  0  0  0  0  0  0  0  0  0
    1.5273    2.3428   -0.1653 C   0  0  0  0  0  0  0  0  0  0  0  0
    1.7208    1.9088    0.8101 H   0  0  0  0  0  0  0  0  0  0  0  0
    0.5885   -0.3766    0.9902 C   0  0  0  0  0  0  0  0  0  0  0  0
    1.7896   -0.4667    1.2133 O   0  0  0  0  0  0  0  0  0  0  0  0
   -0.2605    0.0166    2.0101 N   0  0  0  0  0  0  0  0  0  0  0  0
   -1.2537   -0.0597    1.8168 H   0  0  0  0  0  0  0  0  0  0  0  0
    0.1736    0.1341    3.3960 C   0  0  0  0  0  0  0  0  0  0  0  0
    0.9931    0.8552    3.4822 H   0  0  0  0  0  0  0  0  0  0  0  0
   -0.6542    0.4779    4.0235 H   0  0  0  0  0  0  0  0  0  0  0  0
    0.5164   -0.8359    3.7708 H   0  0  0  0  0  0  0  0  0  0  0  0
  1  2  1  0  0  0  0
  2  3  1  0  0  0  0
  2  4  1  0  0  0  0
  2  5  1  0  0  0  0
  5  6  2  0  0  0  0
  5  7  1  0  0  0  0
  7  8  1  0  0  0  0
  7  9  1  0  0  0  0
  9 10  1  0  0  0  0
  9 11  1  0  0  0  0
  9 22  1  0  0  0  0
 11 12  1  0  0  0  0
 11 13  1  0  0  0  0
 11 14  1  0  0  0  0
 14 15  1  0  0  0  0
 14 20  2  0  0  0  0
 15 16  2  0  0  0  0
 16 17  1  0  0  0  0
 16 18  1  0  0  0  0
 18 19  1  0  0  0  0
 18 20  1  0  0  0  0
 20 21  1  0  0  0  0
 22 23  2  0  0  0  0
 22 24  1  0  0  0  0
 24 25  1  0  0  0  0
 24 26  1  0  0  0  0
 26 27  1  0  0  0  0
 26 28  1  0  0  0  0
 26 29  1  0  0  0  0
M  END
$$$$

  -OEChem-04042215593D

 29 29  0     1  0  0  0  0  0999 V2000
   -2.6372   -4.3438    0.2952 H   0  0  0  0  0  0  0  0  0  0  0  0
   -2.7035   -3.3206   -0.0863 C   0  0  0  0  0  0  0  0  0  0  0  0
   -3.4705   -2.7846    0.4777 H   0  0  0  0  0  0  0  0  0  0  0  0
   -2.9924   -3.3580   -1.1394 H   0  0  0  0  0  0  0  0  0  0  0  0
   -1.3655   -2.6210    0.0628 C   0  0  0  0  0  0  0  0  0  0  0  0
   -0.4477   -3.1903    0.6231 O   0  0  0  0  0  0  0  0  0  0  0  0
   -1.2015   -1.3455   -0.4427 N   0  0  0  0  0  0  0  0  0  0  0  0
   -1.9727   -0.9748   -0.9893 H   0  0  0  0  0  0  0  0  0  0  0  0
    0.0722   -0.5970   -0.4417 C   0  0  1  0  0  0  0  0  0  0  0  0
    0.8384   -1.1511   -0.9953 H   0  0  0  0  0  0  0  0  0  0  0  0
   -0.2516    0.7160   -1.1968 C   0  0  0  0  0  0  0  0  0  0  0  0
   -0.3713    0.4620   -2.2543 H   0  0  0  0  0  0  0  0  0  0  0  0
   -1.2152    1.0925   -0.8410 H   0  0  0  0  0  0  0  0  0  0  0  0
    0.6909    1.8966   -1.1288 C   0  0  0  0  0  0  0  0  0  0  0  0
    0.5142    2.9116   -2.0632 N   0  0  0  0  0  0  0  0  0  0  0  0
    1.4571    3.7985   -1.8575 C   0  0  0  0  0  0  0  0  0  0  0  0
    1.5887    4.7123   -2.4298 H   0  0  0  0  0  0  0  0  0  0  0  0
    2.2561    3.3927   -0.8099 N   0  0  0  0  0  0  0  0  0  0  0  0
    3.0732    3.8921   -0.4636 H   0  0  0  0  0  0  0  0  0  0  0  0
    1.7836    2.1826   -0.3505 C   0  0  0  0  0  0  0  0  0  0  0  0
    2.2147    1.5901    0.4483 H   0  0  0  0  0  0  0  0  0  0  0  0
    0.5960   -0.3896    1.0010 C   0  0  0  0  0  0  0  0  0  0  0  0
    1.7804   -0.5571    1.2648 O   0  0  0  0  0  0  0  0  0  0  0  0
   -0.2691    0.0157    2.0024 N   0  0  0  0  0  0  0  0  0  0  0  0
   -1.2569    0.0103    1.7720 H   0  0  0  0  0  0  0  0  0  0  0  0
    0.1214    0.0852    3.4043 C   0  0  0  0  0  0  0  0  0  0  0  0
    0.9558    0.7817    3.5365 H   0  0  0  0  0  0  0  0  0  0  0  0
   -0.7179    0.4341    4.0131 H   0  0  0  0  0  0  0  0  0  0  0  0
    0.4257   -0.9031    3.7652 H   0  0  0  0  0  0  0  0  0  0  0  0
  1  2  1  0  0  0  0
  2  3  1  0  0  0  0
  2  4  1  0  0  0  0
  2  5  1  0  0  0  0
  5  6  2  0  0  0  0
  5  7  1  0  0  0  0
  7  8  1  0  0  0  0
  7  9  1  0  0  0  0
  9 10  1  0  0  0  0
  9 11  1  0  0  0  0
  9 22  1  0  0  0  0
 11 12  1  0  0  0  0
 11 13  1  0  0  0  0
 11 14  1  0  0  0  0
 14 15  1  0  0  0  0
 14 20  2  0  0  0  0
 15 16  2  0  0  0  0
 16 17  1  0  0  0  0
 16 18  1  0  0  0  0
 18 19  1  0  0  0  0
 18 20  1  0  0  0  0
 20 21  1  0  0  0  0
 22 23  2  0  0  0  0
 22 24  1  0  0  0  0
 24 25  1  0  0  0  0
 24 26  1  0  0  0  0
 26 27  1  0  0  0  0
 26 28  1  0  0  0  0
 26 29  1  0  0  0  0
M  END
$$$$
