default_name
  -OEChem-02102213163D

 29 29  0     1  0  0  0  0  0999 V2000
   -2.9561   -3.9186    1.3887 H   0  0  0  0  0  0  0  0  0  0  0  0
   -3.1191   -2.9346    0.9517 C   0  0  0  0  0  0  0  0  0  0  0  0
   -3.7811   -2.3546    1.5917 H   0  0  0  0  0  0  0  0  0  0  0  0
   -3.5591   -3.0406   -0.0383 H   0  0  0  0  0  0  0  0  0  0  0  0
   -1.7921   -2.2226    0.8327 C   0  0  0  0  0  0  0  0  0  0  0  0
   -0.7611   -2.7766    1.1927 O   0  0  0  0  0  0  0  0  0  0  0  0
   -1.8201   -0.9926    0.3247 N   0  0  0  0  0  0  0  0  0  0  0  0
   -2.7141   -0.5816    0.0927 H   0  0  0  0  0  0  0  0  0  0  0  0
   -0.6481   -0.1156    0.2017 C   0  0  1  0  0  0  0  0  0  0  0  0
    0.1042   -0.6345   -0.3958 H   0  0  0  0  0  0  0  0  0  0  0  0
   -1.0420    1.1781   -0.5372 C   0  0  0  0  0  0  0  0  0  0  0  0
   -1.4085    0.9360   -1.5359 H   0  0  0  0  0  0  0  0  0  0  0  0
   -1.8516    1.6767   -0.0025 H   0  0  0  0  0  0  0  0  0  0  0  0
    0.1141    2.1341   -0.7032 C   0  0  0  0  0  0  0  0  0  0  0  0
    0.0611    3.3802   -1.3292 N   0  0  0  0  0  0  0  0  0  0  0  0
    1.2886    3.9066   -1.2087 C   0  0  0  0  0  0  0  0  0  0  0  0
    1.5831    4.8709   -1.6032 H   0  0  0  0  0  0  0  0  0  0  0  0
    2.0911    3.0740   -0.5245 N   0  0  0  0  0  0  0  0  0  0  0  0
    3.0569    3.2543   -0.2867 H   0  0  0  0  0  0  0  0  0  0  0  0
    1.3661    1.9510   -0.1932 C   0  0  0  0  0  0  0  0  0  0  0  0
    1.6997    1.0930    0.3768 H   0  0  0  0  0  0  0  0  0  0  0  0
   -0.0283    0.1609    1.5831 C   0  0  0  0  0  0  0  0  0  0  0  0
    1.1923    0.1056    1.7329 O   0  0  0  0  0  0  0  0  0  0  0  0
   -0.8586    0.4659    2.5853 N   0  0  0  0  0  0  0  0  0  0  0  0
   -1.8521    0.3848    2.4000 H   0  0  0  0  0  0  0  0  0  0  0  0
   -0.4403    0.7694    3.9518 C   0  0  0  0  0  0  0  0  0  0  0  0
    0.5066    1.3154    3.9421 H   0  0  0  0  0  0  0  0  0  0  0  0
   -1.1988    1.3789    4.4452 H   0  0  0  0  0  0  0  0  0  0  0  0
   -0.3053   -0.1600    4.5075 H   0  0  0  0  0  0  0  0  0  0  0  0
  5  6  2  0  0  0  0
  5  7  1  0  0  0  0
  2  3  1  0  0  0  0
  2  4  1  0  0  0  0
  2  5  1  0  0  0  0
  1  2  1  0  0  0  0
 22 23  2  0  0  0  0
 22 24  1  0  0  0  0
 20 21  1  0  0  0  0
 18 19  1  0  0  0  0
 18 20  1  0  0  0  0
 16 17  1  0  0  0  0
 16 18  1  0  0  0  0
 15 16  2  0  0  0  0
 14 15  1  0  0  0  0
 14 20  2  0  0  0  0
 11 12  1  0  0  0  0
 11 13  1  0  0  0  0
 11 14  1  0  0  0  0
  9 10  1  0  0  0  0
  9 11  1  0  0  0  0
  9 22  1  0  0  0  0
  7  8  1  0  0  0  0
  7  9  1  0  0  0  0
 26 27  1  0  0  0  0
 26 28  1  0  0  0  0
 26 29  1  0  0  0  0
 24 25  1  0  0  0  0
 24 26  1  0  0  0  0
M  END
$$$$
default_name
  -OEChem-02102213163D

 29 29  0     1  0  0  0  0  0999 V2000
   -2.9561   -3.9186    1.3887 H   0  0  0  0  0  0  0  0  0  0  0  0
   -3.1191   -2.9346    0.9517 C   0  0  0  0  0  0  0  0  0  0  0  0
   -3.7811   -2.3546    1.5917 H   0  0  0  0  0  0  0  0  0  0  0  0
   -3.5591   -3.0406   -0.0383 H   0  0  0  0  0  0  0  0  0  0  0  0
   -1.7921   -2.2226    0.8327 C   0  0  0  0  0  0  0  0  0  0  0  0
   -0.7611   -2.7766    1.1927 O   0  0  0  0  0  0  0  0  0  0  0  0
   -1.8201   -0.9926    0.3247 N   0  0  0  0  0  0  0  0  0  0  0  0
   -2.7141   -0.5816    0.0927 H   0  0  0  0  0  0  0  0  0  0  0  0
   -0.6481   -0.1156    0.2017 C   0  0  1  0  0  0  0  0  0  0  0  0
    0.1042   -0.6345   -0.3958 H   0  0  0  0  0  0  0  0  0  0  0  0
   -1.0420    1.1781   -0.5372 C   0  0  0  0  0  0  0  0  0  0  0  0
   -1.4085    0.9360   -1.5359 H   0  0  0  0  0  0  0  0  0  0  0  0
   -1.8516    1.6767   -0.0025 H   0  0  0  0  0  0  0  0  0  0  0  0
    0.1141    2.1341   -0.7032 C   0  0  0  0  0  0  0  0  0  0  0  0
    0.0171    3.4810   -1.0552 N   0  0  0  0  0  0  0  0  0  0  0  0
    1.2704    3.9578   -1.0404 C   0  0  0  0  0  0  0  0  0  0  0  0
    1.5406    4.9781   -1.2819 H   0  0  0  0  0  0  0  0  0  0  0  0
    2.1344    2.9954   -0.6762 N   0  0  0  0  0  0  0  0  0  0  0  0
    3.1330    3.1128   -0.5722 H   0  0  0  0  0  0  0  0  0  0  0  0
    1.4224    1.8375   -0.4551 C   0  0  0  0  0  0  0  0  0  0  0  0
    1.8045    0.8786   -0.1280 H   0  0  0  0  0  0  0  0  0  0  0  0
   -0.0283    0.1609    1.5831 C   0  0  0  0  0  0  0  0  0  0  0  0
    1.1923    0.1056    1.7329 O   0  0  0  0  0  0  0  0  0  0  0  0
   -0.8586    0.4659    2.5853 N   0  0  0  0  0  0  0  0  0  0  0  0
   -1.8521    0.3848    2.4000 H   0  0  0  0  0  0  0  0  0  0  0  0
   -0.4403    0.7694    3.9518 C   0  0  0  0  0  0  0  0  0  0  0  0
    0.5066    1.3154    3.9421 H   0  0  0  0  0  0  0  0  0  0  0  0
   -1.1988    1.3789    4.4452 H   0  0  0  0  0  0  0  0  0  0  0  0
   -0.3053   -0.1600    4.5075 H   0  0  0  0  0  0  0  0  0  0  0  0
  5  6  2  0  0  0  0
  5  7  1  0  0  0  0
  2  3  1  0  0  0  0
  2  4  1  0  0  0  0
  2  5  1  0  0  0  0
  1  2  1  0  0  0  0
 22 23  2  0  0  0  0
 22 24  1  0  0  0  0
 20 21  1  0  0  0  0
 18 19  1  0  0  0  0
 18 20  1  0  0  0  0
 16 17  1  0  0  0  0
 16 18  1  0  0  0  0
 15 16  2  0  0  0  0
 14 15  1  0  0  0  0
 14 20  2  0  0  0  0
 11 12  1  0  0  0  0
 11 13  1  0  0  0  0
 11 14  1  0  0  0  0
  9 10  1  0  0  0  0
  9 11  1  0  0  0  0
  9 22  1  0  0  0  0
  7  8  1  0  0  0  0
  7  9  1  0  0  0  0
 26 27  1  0  0  0  0
 26 28  1  0  0  0  0
 26 29  1  0  0  0  0
 24 25  1  0  0  0  0
 24 26  1  0  0  0  0
M  END
$$$$
default_name
  -OEChem-02102213163D

 29 29  0     1  0  0  0  0  0999 V2000
   -2.9561   -3.9186    1.3887 H   0  0  0  0  0  0  0  0  0  0  0  0
   -3.1191   -2.9346    0.9517 C   0  0  0  0  0  0  0  0  0  0  0  0
   -3.7811   -2.3546    1.5917 H   0  0  0  0  0  0  0  0  0  0  0  0
   -3.5591   -3.0406   -0.0383 H   0  0  0  0  0  0  0  0  0  0  0  0
   -1.7921   -2.2226    0.8327 C   0  0  0  0  0  0  0  0  0  0  0  0
   -0.7611   -2.7766    1.1927 O   0  0  0  0  0  0  0  0  0  0  0  0
   -1.8201   -0.9926    0.3247 N   0  0  0  0  0  0  0  0  0  0  0  0
   -2.7141   -0.5816    0.0927 H   0  0  0  0  0  0  0  0  0  0  0  0
   -0.6481   -0.1156    0.2017 C   0  0  1  0  0  0  0  0  0  0  0  0
    0.1042   -0.6345   -0.3958 H   0  0  0  0  0  0  0  0  0  0  0  0
   -1.0420    1.1781   -0.5372 C   0  0  0  0  0  0  0  0  0  0  0  0
   -1.4085    0.9360   -1.5359 H   0  0  0  0  0  0  0  0  0  0  0  0
   -1.8516    1.6767   -0.0025 H   0  0  0  0  0  0  0  0  0  0  0  0
    0.1141    2.1341   -0.7032 C   0  0  0  0  0  0  0  0  0  0  0  0
    0.0223    3.5253   -0.7634 N   0  0  0  0  0  0  0  0  0  0  0  0
    1.2818    3.9744   -0.8648 C   0  0  0  0  0  0  0  0  0  0  0  0
    1.5552    5.0191   -0.9433 H   0  0  0  0  0  0  0  0  0  0  0  0
    2.1490    2.9483   -0.8454 N   0  0  0  0  0  0  0  0  0  0  0  0
    3.1556    3.0305   -0.8885 H   0  0  0  0  0  0  0  0  0  0  0  0
    1.4306    1.7781   -0.7398 C   0  0  0  0  0  0  0  0  0  0  0  0
    1.8168    0.7687   -0.6752 H   0  0  0  0  0  0  0  0  0  0  0  0
   -0.0283    0.1609    1.5831 C   0  0  0  0  0  0  0  0  0  0  0  0
    1.1923    0.1056    1.7329 O   0  0  0  0  0  0  0  0  0  0  0  0
   -0.8586    0.4659    2.5853 N   0  0  0  0  0  0  0  0  0  0  0  0
   -1.8521    0.3848    2.4000 H   0  0  0  0  0  0  0  0  0  0  0  0
   -0.4403    0.7694    3.9518 C   0  0  0  0  0  0  0  0  0  0  0  0
    0.5066    1.3154    3.9421 H   0  0  0  0  0  0  0  0  0  0  0  0
   -1.1988    1.3789    4.4452 H   0  0  0  0  0  0  0  0  0  0  0  0
   -0.3053   -0.1600    4.5075 H   0  0  0  0  0  0  0  0  0  0  0  0
  5  6  2  0  0  0  0
  5  7  1  0  0  0  0
  2  3  1  0  0  0  0
  2  4  1  0  0  0  0
  2  5  1  0  0  0  0
  1  2  1  0  0  0  0
 22 23  2  0  0  0  0
 22 24  1  0  0  0  0
 20 21  1  0  0  0  0
 18 19  1  0  0  0  0
 18 20  1  0  0  0  0
 16 17  1  0  0  0  0
 16 18  1  0  0  0  0
 15 16  2  0  0  0  0
 14 15  1  0  0  0  0
 14 20  2  0  0  0  0
 11 12  1  0  0  0  0
 11 13  1  0  0  0  0
 11 14  1  0  0  0  0
  9 10  1  0  0  0  0
  9 11  1  0  0  0  0
  9 22  1  0  0  0  0
  7  8  1  0  0  0  0
  7  9  1  0  0  0  0
 26 27  1  0  0  0  0
 26 28  1  0  0  0  0
 26 29  1  0  0  0  0
 24 25  1  0  0  0  0
 24 26  1  0  0  0  0
M  END
$$$$
default_name
  -OEChem-02102213163D

 29 29  0     1  0  0  0  0  0999 V2000
   -2.9561   -3.9186    1.3887 H   0  0  0  0  0  0  0  0  0  0  0  0
   -3.1191   -2.9346    0.9517 C   0  0  0  0  0  0  0  0  0  0  0  0
   -3.7811   -2.3546    1.5917 H   0  0  0  0  0  0  0  0  0  0  0  0
   -3.5591   -3.0406   -0.0383 H   0  0  0  0  0  0  0  0  0  0  0  0
   -1.7921   -2.2226    0.8327 C   0  0  0  0  0  0  0  0  0  0  0  0
   -0.7611   -2.7766    1.1927 O   0  0  0  0  0  0  0  0  0  0  0  0
   -1.8201   -0.9926    0.3247 N   0  0  0  0  0  0  0  0  0  0  0  0
   -2.7141   -0.5816    0.0927 H   0  0  0  0  0  0  0  0  0  0  0  0
   -0.6481   -0.1156    0.2017 C   0  0  1  0  0  0  0  0  0  0  0  0
    0.1042   -0.6345   -0.3958 H   0  0  0  0  0  0  0  0  0  0  0  0
   -1.0420    1.1781   -0.5372 C   0  0  0  0  0  0  0  0  0  0  0  0
   -1.4085    0.9360   -1.5359 H   0  0  0  0  0  0  0  0  0  0  0  0
   -1.8516    1.6767   -0.0025 H   0  0  0  0  0  0  0  0  0  0  0  0
    0.1141    2.1341   -0.7032 C   0  0  0  0  0  0  0  0  0  0  0  0
    0.0765    3.5101   -0.4736 N   0  0  0  0  0  0  0  0  0  0  0  0
    1.3222    3.9553   -0.6936 C   0  0  0  0  0  0  0  0  0  0  0  0
    1.6261    4.9912   -0.6105 H   0  0  0  0  0  0  0  0  0  0  0  0
    2.1341    2.9359   -1.0206 N   0  0  0  0  0  0  0  0  0  0  0  0
    3.1233    3.0131   -1.2140 H   0  0  0  0  0  0  0  0  0  0  0  0
    1.3901    1.7770   -1.0279 C   0  0  0  0  0  0  0  0  0  0  0  0
    1.7359    0.7706   -1.2277 H   0  0  0  0  0  0  0  0  0  0  0  0
   -0.0283    0.1609    1.5831 C   0  0  0  0  0  0  0  0  0  0  0  0
    1.1923    0.1056    1.7329 O   0  0  0  0  0  0  0  0  0  0  0  0
   -0.8586    0.4659    2.5853 N   0  0  0  0  0  0  0  0  0  0  0  0
   -1.8521    0.3848    2.4000 H   0  0  0  0  0  0  0  0  0  0  0  0
   -0.4403    0.7694    3.9518 C   0  0  0  0  0  0  0  0  0  0  0  0
    0.5066    1.3154    3.9421 H   0  0  0  0  0  0  0  0  0  0  0  0
   -1.1988    1.3789    4.4452 H   0  0  0  0  0  0  0  0  0  0  0  0
   -0.3053   -0.1600    4.5075 H   0  0  0  0  0  0  0  0  0  0  0  0
  5  6  2  0  0  0  0
  5  7  1  0  0  0  0
  2  3  1  0  0  0  0
  2  4  1  0  0  0  0
  2  5  1  0  0  0  0
  1  2  1  0  0  0  0
 22 23  2  0  0  0  0
 22 24  1  0  0  0  0
 20 21  1  0  0  0  0
 18 19  1  0  0  0  0
 18 20  1  0  0  0  0
 16 17  1  0  0  0  0
 16 18  1  0  0  0  0
 15 16  2  0  0  0  0
 14 15  1  0  0  0  0
 14 20  2  0  0  0  0
 11 12  1  0  0  0  0
 11 13  1  0  0  0  0
 11 14  1  0  0  0  0
  9 10  1  0  0  0  0
  9 11  1  0  0  0  0
  9 22  1  0  0  0  0
  7  8  1  0  0  0  0
  7  9  1  0  0  0  0
 26 27  1  0  0  0  0
 26 28  1  0  0  0  0
 26 29  1  0  0  0  0
 24 25  1  0  0  0  0
 24 26  1  0  0  0  0
M  END
$$$$
default_name
  -OEChem-02102213163D

 29 29  0     1  0  0  0  0  0999 V2000
   -2.9561   -3.9186    1.3887 H   0  0  0  0  0  0  0  0  0  0  0  0
   -3.1191   -2.9346    0.9517 C   0  0  0  0  0  0  0  0  0  0  0  0
   -3.7811   -2.3546    1.5917 H   0  0  0  0  0  0  0  0  0  0  0  0
   -3.5591   -3.0406   -0.0383 H   0  0  0  0  0  0  0  0  0  0  0  0
   -1.7921   -2.2226    0.8327 C   0  0  0  0  0  0  0  0  0  0  0  0
   -0.7611   -2.7766    1.1927 O   0  0  0  0  0  0  0  0  0  0  0  0
   -1.8201   -0.9926    0.3247 N   0  0  0  0  0  0  0  0  0  0  0  0
   -2.7141   -0.5816    0.0927 H   0  0  0  0  0  0  0  0  0  0  0  0
   -0.6481   -0.1156    0.2017 C   0  0  1  0  0  0  0  0  0  0  0  0
    0.1042   -0.6345   -0.3958 H   0  0  0  0  0  0  0  0  0  0  0  0
   -1.0420    1.1781   -0.5372 C   0  0  0  0  0  0  0  0  0  0  0  0
   -1.4085    0.9360   -1.5359 H   0  0  0  0  0  0  0  0  0  0  0  0
   -1.8516    1.6767   -0.0025 H   0  0  0  0  0  0  0  0  0  0  0  0
    0.1141    2.1341   -0.7032 C   0  0  0  0  0  0  0  0  0  0  0  0
    0.1760    3.4364   -0.2055 N   0  0  0  0  0  0  0  0  0  0  0  0
    1.3887    3.9018   -0.5388 C   0  0  0  0  0  0  0  0  0  0  0  0
    1.7483    4.8963   -0.3062 H   0  0  0  0  0  0  0  0  0  0  0  0
    2.0906    2.9591   -1.1898 N   0  0  0  0  0  0  0  0  0  0  0  0
    3.0382    3.0617   -1.5266 H   0  0  0  0  0  0  0  0  0  0  0  0
    1.3038    1.8342   -1.2998 C   0  0  0  0  0  0  0  0  0  0  0  0
    1.5673    0.8843   -1.7476 H   0  0  0  0  0  0  0  0  0  0  0  0
   -0.0283    0.1609    1.5831 C   0  0  0  0  0  0  0  0  0  0  0  0
    1.1923    0.1056    1.7329 O   0  0  0  0  0  0  0  0  0  0  0  0
   -0.8586    0.4659    2.5853 N   0  0  0  0  0  0  0  0  0  0  0  0
   -1.8521    0.3848    2.4000 H   0  0  0  0  0  0  0  0  0  0  0  0
   -0.4403    0.7694    3.9518 C   0  0  0  0  0  0  0  0  0  0  0  0
    0.5066    1.3154    3.9421 H   0  0  0  0  0  0  0  0  0  0  0  0
   -1.1988    1.3789    4.4452 H   0  0  0  0  0  0  0  0  0  0  0  0
   -0.3053   -0.1600    4.5075 H   0  0  0  0  0  0  0  0  0  0  0  0
  5  6  2  0  0  0  0
  5  7  1  0  0  0  0
  2  3  1  0  0  0  0
  2  4  1  0  0  0  0
  2  5  1  0  0  0  0
  1  2  1  0  0  0  0
 22 23  2  0  0  0  0
 22 24  1  0  0  0  0
 20 21  1  0  0  0  0
 18 19  1  0  0  0  0
 18 20  1  0  0  0  0
 16 17  1  0  0  0  0
 16 18  1  0  0  0  0
 15 16  2  0  0  0  0
 14 15  1  0  0  0  0
 14 20  2  0  0  0  0
 11 12  1  0  0  0  0
 11 13  1  0  0  0  0
 11 14  1  0  0  0  0
  9 10  1  0  0  0  0
  9 11  1  0  0  0  0
  9 22  1  0  0  0  0
  7  8  1  0  0  0  0
  7  9  1  0  0  0  0
 26 27  1  0  0  0  0
 26 28  1  0  0  0  0
 26 29  1  0  0  0  0
 24 25  1  0  0  0  0
 24 26  1  0  0  0  0
M  END
$$$$
default_name
  -OEChem-02102213163D

 29 29  0     1  0  0  0  0  0999 V2000
   -2.9561   -3.9186    1.3887 H   0  0  0  0  0  0  0  0  0  0  0  0
   -3.1191   -2.9346    0.9517 C   0  0  0  0  0  0  0  0  0  0  0  0
   -3.7811   -2.3546    1.5917 H   0  0  0  0  0  0  0  0  0  0  0  0
   -3.5591   -3.0406   -0.0383 H   0  0  0  0  0  0  0  0  0  0  0  0
   -1.7921   -2.2226    0.8327 C   0  0  0  0  0  0  0  0  0  0  0  0
   -0.7611   -2.7766    1.1927 O   0  0  0  0  0  0  0  0  0  0  0  0
   -1.8201   -0.9926    0.3247 N   0  0  0  0  0  0  0  0  0  0  0  0
   -2.7141   -0.5816    0.0927 H   0  0  0  0  0  0  0  0  0  0  0  0
   -0.6481   -0.1156    0.2017 C   0  0  1  0  0  0  0  0  0  0  0  0
    0.1042   -0.6345   -0.3958 H   0  0  0  0  0  0  0  0  0  0  0  0
   -1.0420    1.1781   -0.5372 C   0  0  0  0  0  0  0  0  0  0  0  0
   -1.4085    0.9360   -1.5359 H   0  0  0  0  0  0  0  0  0  0  0  0
   -1.8516    1.6767   -0.0025 H   0  0  0  0  0  0  0  0  0  0  0  0
    0.1141    2.1341   -0.7032 C   0  0  0  0  0  0  0  0  0  0  0  0
    0.3139    3.3092    0.0225 N   0  0  0  0  0  0  0  0  0  0  0  0
    1.4767    3.8176   -0.4107 C   0  0  0  0  0  0  0  0  0  0  0  0
    1.9135    4.7408   -0.0512 H   0  0  0  0  0  0  0  0  0  0  0  0
    2.0215    3.0163   -1.3415 N   0  0  0  0  0  0  0  0  0  0  0  0
    2.9061    3.1731   -1.8050 H   0  0  0  0  0  0  0  0  0  0  0  0
    1.1775    1.9458   -1.5369 C   0  0  0  0  0  0  0  0  0  0  0  0
    1.3223    1.1020   -2.1997 H   0  0  0  0  0  0  0  0  0  0  0  0
   -0.0283    0.1609    1.5831 C   0  0  0  0  0  0  0  0  0  0  0  0
    1.1923    0.1056    1.7329 O   0  0  0  0  0  0  0  0  0  0  0  0
   -0.8586    0.4659    2.5853 N   0  0  0  0  0  0  0  0  0  0  0  0
   -1.8521    0.3848    2.4000 H   0  0  0  0  0  0  0  0  0  0  0  0
   -0.4403    0.7694    3.9518 C   0  0  0  0  0  0  0  0  0  0  0  0
    0.5066    1.3154    3.9421 H   0  0  0  0  0  0  0  0  0  0  0  0
   -1.1988    1.3789    4.4452 H   0  0  0  0  0  0  0  0  0  0  0  0
   -0.3053   -0.1600    4.5075 H   0  0  0  0  0  0  0  0  0  0  0  0
  5  6  2  0  0  0  0
  5  7  1  0  0  0  0
  2  3  1  0  0  0  0
  2  4  1  0  0  0  0
  2  5  1  0  0  0  0
  1  2  1  0  0  0  0
 22 23  2  0  0  0  0
 22 24  1  0  0  0  0
 20 21  1  0  0  0  0
 18 19  1  0  0  0  0
 18 20  1  0  0  0  0
 16 17  1  0  0  0  0
 16 18  1  0  0  0  0
 15 16  2  0  0  0  0
 14 15  1  0  0  0  0
 14 20  2  0  0  0  0
 11 12  1  0  0  0  0
 11 13  1  0  0  0  0
 11 14  1  0  0  0  0
  9 10  1  0  0  0  0
  9 11  1  0  0  0  0
  9 22  1  0  0  0  0
  7  8  1  0  0  0  0
  7  9  1  0  0  0  0
 26 27  1  0  0  0  0
 26 28  1  0  0  0  0
 26 29  1  0  0  0  0
 24 25  1  0  0  0  0
 24 26  1  0  0  0  0
M  END
$$$$
default_name
  -OEChem-02102213163D

 29 29  0     1  0  0  0  0  0999 V2000
   -2.9561   -3.9186    1.3887 H   0  0  0  0  0  0  0  0  0  0  0  0
   -3.1191   -2.9346    0.9517 C   0  0  0  0  0  0  0  0  0  0  0  0
   -3.7811   -2.3546    1.5917 H   0  0  0  0  0  0  0  0  0  0  0  0
   -3.5591   -3.0406   -0.0383 H   0  0  0  0  0  0  0  0  0  0  0  0
   -1.7921   -2.2226    0.8327 C   0  0  0  0  0  0  0  0  0  0  0  0
   -0.7611   -2.7766    1.1927 O   0  0  0  0  0  0  0  0  0  0  0  0
   -1.8201   -0.9926    0.3247 N   0  0  0  0  0  0  0  0  0  0  0  0
   -2.7141   -0.5816    0.0927 H   0  0  0  0  0  0  0  0  0  0  0  0
   -0.6481   -0.1156    0.2017 C   0  0  1  0  0  0  0  0  0  0  0  0
    0.1042   -0.6345   -0.3958 H   0  0  0  0  0  0  0  0  0  0  0  0
   -1.0420    1.1781   -0.5372 C   0  0  0  0  0  0  0  0  0  0  0  0
   -1.4085    0.9360   -1.5359 H   0  0  0  0  0  0  0  0  0  0  0  0
   -1.8516    1.6767   -0.0025 H   0  0  0  0  0  0  0  0  0  0  0  0
    0.1141    2.1341   -0.7032 C   0  0  0  0  0  0  0  0  0  0  0  0
    0.4808    3.1373    0.1949 N   0  0  0  0  0  0  0  0  0  0  0  0
    1.5804    3.7083   -0.3181 C   0  0  0  0  0  0  0  0  0  0  0  0
    2.1105    4.5353    0.1373 H   0  0  0  0  0  0  0  0  0  0  0  0
    1.9315    3.1036   -1.4654 N   0  0  0  0  0  0  0  0  0  0  0  0
    2.7361    3.3396   -2.0301 H   0  0  0  0  0  0  0  0  0  0  0  0
    1.0197    2.1042   -1.7231 C   0  0  0  0  0  0  0  0  0  0  0  0
    1.0178    1.4088   -2.5530 H   0  0  0  0  0  0  0  0  0  0  0  0
   -0.0283    0.1609    1.5831 C   0  0  0  0  0  0  0  0  0  0  0  0
    1.1923    0.1056    1.7329 O   0  0  0  0  0  0  0  0  0  0  0  0
   -0.8586    0.4659    2.5853 N   0  0  0  0  0  0  0  0  0  0  0  0
   -1.8521    0.3848    2.4000 H   0  0  0  0  0  0  0  0  0  0  0  0
   -0.4403    0.7694    3.9518 C   0  0  0  0  0  0  0  0  0  0  0  0
    0.5066    1.3154    3.9421 H   0  0  0  0  0  0  0  0  0  0  0  0
   -1.1988    1.3789    4.4452 H   0  0  0  0  0  0  0  0  0  0  0  0
   -0.3053   -0.1600    4.5075 H   0  0  0  0  0  0  0  0  0  0  0  0
  5  6  2  0  0  0  0
  5  7  1  0  0  0  0
  2  3  1  0  0  0  0
  2  4  1  0  0  0  0
  2  5  1  0  0  0  0
  1  2  1  0  0  0  0
 22 23  2  0  0  0  0
 22 24  1  0  0  0  0
 20 21  1  0  0  0  0
 18 19  1  0  0  0  0
 18 20  1  0  0  0  0
 16 17  1  0  0  0  0
 16 18  1  0  0  0  0
 15 16  2  0  0  0  0
 14 15  1  0  0  0  0
 14 20  2  0  0  0  0
 11 12  1  0  0  0  0
 11 13  1  0  0  0  0
 11 14  1  0  0  0  0
  9 10  1  0  0  0  0
  9 11  1  0  0  0  0
  9 22  1  0  0  0  0
  7  8  1  0  0  0  0
  7  9  1  0  0  0  0
 26 27  1  0  0  0  0
 26 28  1  0  0  0  0
 26 29  1  0  0  0  0
 24 25  1  0  0  0  0
 24 26  1  0  0  0  0
M  END
$$$$
default_name
  -OEChem-02102213163D

 29 29  0     1  0  0  0  0  0999 V2000
   -2.9561   -3.9186    1.3887 H   0  0  0  0  0  0  0  0  0  0  0  0
   -3.1191   -2.9346    0.9517 C   0  0  0  0  0  0  0  0  0  0  0  0
   -3.7811   -2.3546    1.5917 H   0  0  0  0  0  0  0  0  0  0  0  0
   -3.5591   -3.0406   -0.0383 H   0  0  0  0  0  0  0  0  0  0  0  0
   -1.7921   -2.2226    0.8327 C   0  0  0  0  0  0  0  0  0  0  0  0
   -0.7611   -2.7766    1.1927 O   0  0  0  0  0  0  0  0  0  0  0  0
   -1.8201   -0.9926    0.3247 N   0  0  0  0  0  0  0  0  0  0  0  0
   -2.7141   -0.5816    0.0927 H   0  0  0  0  0  0  0  0  0  0  0  0
   -0.6481   -0.1156    0.2017 C   0  0  1  0  0  0  0  0  0  0  0  0
    0.1042   -0.6345   -0.3958 H   0  0  0  0  0  0  0  0  0  0  0  0
   -1.0420    1.1781   -0.5372 C   0  0  0  0  0  0  0  0  0  0  0  0
   -1.4085    0.9360   -1.5359 H   0  0  0  0  0  0  0  0  0  0  0  0
   -1.8516    1.6767   -0.0025 H   0  0  0  0  0  0  0  0  0  0  0  0
    0.1141    2.1341   -0.7032 C   0  0  0  0  0  0  0  0  0  0  0  0
    0.6654    2.9323    0.3000 N   0  0  0  0  0  0  0  0  0  0  0  0
    1.6926    3.5814   -0.2673 C   0  0  0  0  0  0  0  0  0  0  0  0
    2.3258    4.2939    0.2463 H   0  0  0  0  0  0  0  0  0  0  0  0
    1.8268    3.2151   -1.5530 N   0  0  0  0  0  0  0  0  0  0  0  0
    2.5397    3.5499   -2.1867 H   0  0  0  0  0  0  0  0  0  0  0  0
    0.8414    2.2986   -1.8457 C   0  0  0  0  0  0  0  0  0  0  0  0
    0.6745    1.7839   -2.7836 H   0  0  0  0  0  0  0  0  0  0  0  0
   -0.0283    0.1609    1.5831 C   0  0  0  0  0  0  0  0  0  0  0  0
    1.1923    0.1056    1.7329 O   0  0  0  0  0  0  0  0  0  0  0  0
   -0.8586    0.4659    2.5853 N   0  0  0  0  0  0  0  0  0  0  0  0
   -1.8521    0.3848    2.4000 H   0  0  0  0  0  0  0  0  0  0  0  0
   -0.4403    0.7694    3.9518 C   0  0  0  0  0  0  0  0  0  0  0  0
    0.5066    1.3154    3.9421 H   0  0  0  0  0  0  0  0  0  0  0  0
   -1.1988    1.3789    4.4452 H   0  0  0  0  0  0  0  0  0  0  0  0
   -0.3053   -0.1600    4.5075 H   0  0  0  0  0  0  0  0  0  0  0  0
  5  6  2  0  0  0  0
  5  7  1  0  0  0  0
  2  3  1  0  0  0  0
  2  4  1  0  0  0  0
  2  5  1  0  0  0  0
  1  2  1  0  0  0  0
 22 23  2  0  0  0  0
 22 24  1  0  0  0  0
 20 21  1  0  0  0  0
 18 19  1  0  0  0  0
 18 20  1  0  0  0  0
 16 17  1  0  0  0  0
 16 18  1  0  0  0  0
 15 16  2  0  0  0  0
 14 15  1  0  0  0  0
 14 20  2  0  0  0  0
 11 12  1  0  0  0  0
 11 13  1  0  0  0  0
 11 14  1  0  0  0  0
  9 10  1  0  0  0  0
  9 11  1  0  0  0  0
  9 22  1  0  0  0  0
  7  8  1  0  0  0  0
  7  9  1  0  0  0  0
 26 27  1  0  0  0  0
 26 28  1  0  0  0  0
 26 29  1  0  0  0  0
 24 25  1  0  0  0  0
 24 26  1  0  0  0  0
M  END
$$$$
default_name
  -OEChem-02102213163D

 29 29  0     1  0  0  0  0  0999 V2000
   -2.9561   -3.9186    1.3887 H   0  0  0  0  0  0  0  0  0  0  0  0
   -3.1191   -2.9346    0.9517 C   0  0  0  0  0  0  0  0  0  0  0  0
   -3.7811   -2.3546    1.5917 H   0  0  0  0  0  0  0  0  0  0  0  0
   -3.5591   -3.0406   -0.0383 H   0  0  0  0  0  0  0  0  0  0  0  0
   -1.7921   -2.2226    0.8327 C   0  0  0  0  0  0  0  0  0  0  0  0
   -0.7611   -2.7766    1.1927 O   0  0  0  0  0  0  0  0  0  0  0  0
   -1.8201   -0.9926    0.3247 N   0  0  0  0  0  0  0  0  0  0  0  0
   -2.7141   -0.5816    0.0927 H   0  0  0  0  0  0  0  0  0  0  0  0
   -0.6481   -0.1156    0.2017 C   0  0  1  0  0  0  0  0  0  0  0  0
    0.1042   -0.6345   -0.3958 H   0  0  0  0  0  0  0  0  0  0  0  0
   -1.0420    1.1781   -0.5372 C   0  0  0  0  0  0  0  0  0  0  0  0
   -1.4085    0.9360   -1.5359 H   0  0  0  0  0  0  0  0  0  0  0  0
   -1.8516    1.6767   -0.0025 H   0  0  0  0  0  0  0  0  0  0  0  0
    0.1141    2.1341   -0.7032 C   0  0  0  0  0  0  0  0  0  0  0  0
    0.8552    2.7081    0.3306 N   0  0  0  0  0  0  0  0  0  0  0  0
    1.8057    3.4456   -0.2618 C   0  0  0  0  0  0  0  0  0  0  0  0
    2.5447    4.0329    0.2685 H   0  0  0  0  0  0  0  0  0  0  0  0
    1.7144    3.3431   -1.5984 N   0  0  0  0  0  0  0  0  0  0  0  0
    2.3303    3.7897   -2.2641 H   0  0  0  0  0  0  0  0  0  0  0  0
    0.6545    2.5158   -1.8963 C   0  0  0  0  0  0  0  0  0  0  0  0
    0.3158    2.2018   -2.8756 H   0  0  0  0  0  0  0  0  0  0  0  0
   -0.0283    0.1609    1.5831 C   0  0  0  0  0  0  0  0  0  0  0  0
    1.1923    0.1056    1.7329 O   0  0  0  0  0  0  0  0  0  0  0  0
   -0.8586    0.4659    2.5853 N   0  0  0  0  0  0  0  0  0  0  0  0
   -1.8521    0.3848    2.4000 H   0  0  0  0  0  0  0  0  0  0  0  0
   -0.4403    0.7694    3.9518 C   0  0  0  0  0  0  0  0  0  0  0  0
    0.5066    1.3154    3.9421 H   0  0  0  0  0  0  0  0  0  0  0  0
   -1.1988    1.3789    4.4452 H   0  0  0  0  0  0  0  0  0  0  0  0
   -0.3053   -0.1600    4.5075 H   0  0  0  0  0  0  0  0  0  0  0  0
  5  6  2  0  0  0  0
  5  7  1  0  0  0  0
  2  3  1  0  0  0  0
  2  4  1  0  0  0  0
  2  5  1  0  0  0  0
  1  2  1  0  0  0  0
 22 23  2  0  0  0  0
 22 24  1  0  0  0  0
 20 21  1  0  0  0  0
 18 19  1  0  0  0  0
 18 20  1  0  0  0  0
 16 17  1  0  0  0  0
 16 18  1  0  0  0  0
 15 16  2  0  0  0  0
 14 15  1  0  0  0  0
 14 20  2  0  0  0  0
 11 12  1  0  0  0  0
 11 13  1  0  0  0  0
 11 14  1  0  0  0  0
  9 10  1  0  0  0  0
  9 11  1  0  0  0  0
  9 22  1  0  0  0  0
  7  8  1  0  0  0  0
  7  9  1  0  0  0  0
 26 27  1  0  0  0  0
 26 28  1  0  0  0  0
 26 29  1  0  0  0  0
 24 25  1  0  0  0  0
 24 26  1  0  0  0  0
M  END
$$$$
default_name
  -OEChem-02102213163D

 29 29  0     1  0  0  0  0  0999 V2000
   -2.9561   -3.9186    1.3887 H   0  0  0  0  0  0  0  0  0  0  0  0
   -3.1191   -2.9346    0.9517 C   0  0  0  0  0  0  0  0  0  0  0  0
   -3.7811   -2.3546    1.5917 H   0  0  0  0  0  0  0  0  0  0  0  0
   -3.5591   -3.0406   -0.0383 H   0  0  0  0  0  0  0  0  0  0  0  0
   -1.7921   -2.2226    0.8327 C   0  0  0  0  0  0  0  0  0  0  0  0
   -0.7611   -2.7766    1.1927 O   0  0  0  0  0  0  0  0  0  0  0  0
   -1.8201   -0.9926    0.3247 N   0  0  0  0  0  0  0  0  0  0  0  0
   -2.7141   -0.5816    0.0927 H   0  0  0  0  0  0  0  0  0  0  0  0
   -0.6481   -0.1156    0.2017 C   0  0  1  0  0  0  0  0  0  0  0  0
    0.1042   -0.6345   -0.3958 H   0  0  0  0  0  0  0  0  0  0  0  0
   -1.0420    1.1781   -0.5372 C   0  0  0  0  0  0  0  0  0  0  0  0
   -1.4085    0.9360   -1.5359 H   0  0  0  0  0  0  0  0  0  0  0  0
   -1.8516    1.6767   -0.0025 H   0  0  0  0  0  0  0  0  0  0  0  0
    0.1141    2.1341   -0.7032 C   0  0  0  0  0  0  0  0  0  0  0  0
    1.0371    2.4802    0.2846 N   0  0  0  0  0  0  0  0  0  0  0  0
    1.9120    3.3101   -0.3020 C   0  0  0  0  0  0  0  0  0  0  0  0
    2.7525    3.7702    0.2022 H   0  0  0  0  0  0  0  0  0  0  0  0
    1.6021    3.4789   -1.5984 N   0  0  0  0  0  0  0  0  0  0  0  0
    2.1222    4.0426   -2.2569 H   0  0  0  0  0  0  0  0  0  0  0  0
    0.4719    2.7409   -1.8716 C   0  0  0  0  0  0  0  0  0  0  0  0
   -0.0339    2.6338   -2.8229 H   0  0  0  0  0  0  0  0  0  0  0  0
   -0.0283    0.1609    1.5831 C   0  0  0  0  0  0  0  0  0  0  0  0
    1.1923    0.1056    1.7329 O   0  0  0  0  0  0  0  0  0  0  0  0
   -0.8586    0.4659    2.5853 N   0  0  0  0  0  0  0  0  0  0  0  0
   -1.8521    0.3848    2.4000 H   0  0  0  0  0  0  0  0  0  0  0  0
   -0.4403    0.7694    3.9518 C   0  0  0  0  0  0  0  0  0  0  0  0
    0.5066    1.3154    3.9421 H   0  0  0  0  0  0  0  0  0  0  0  0
   -1.1988    1.3789    4.4452 H   0  0  0  0  0  0  0  0  0  0  0  0
   -0.3053   -0.1600    4.5075 H   0  0  0  0  0  0  0  0  0  0  0  0
  5  6  2  0  0  0  0
  5  7  1  0  0  0  0
  2  3  1  0  0  0  0
  2  4  1  0  0  0  0
  2  5  1  0  0  0  0
  1  2  1  0  0  0  0
 22 23  2  0  0  0  0
 22 24  1  0  0  0  0
 20 21  1  0  0  0  0
 18 19  1  0  0  0  0
 18 20  1  0  0  0  0
 16 17  1  0  0  0  0
 16 18  1  0  0  0  0
 15 16  2  0  0  0  0
 14 15  1  0  0  0  0
 14 20  2  0  0  0  0
 11 12  1  0  0  0  0
 11 13  1  0  0  0  0
 11 14  1  0  0  0  0
  9 10  1  0  0  0  0
  9 11  1  0  0  0  0
  9 22  1  0  0  0  0
  7  8  1  0  0  0  0
  7  9  1  0  0  0  0
 26 27  1  0  0  0  0
 26 28  1  0  0  0  0
 26 29  1  0  0  0  0
 24 25  1  0  0  0  0
 24 26  1  0  0  0  0
M  END
$$$$
default_name
  -OEChem-02102213163D

 29 29  0     1  0  0  0  0  0999 V2000
   -2.9561   -3.9186    1.3887 H   0  0  0  0  0  0  0  0  0  0  0  0
   -3.1191   -2.9346    0.9517 C   0  0  0  0  0  0  0  0  0  0  0  0
   -3.7811   -2.3546    1.5917 H   0  0  0  0  0  0  0  0  0  0  0  0
   -3.5591   -3.0406   -0.0383 H   0  0  0  0  0  0  0  0  0  0  0  0
   -1.7921   -2.2226    0.8327 C   0  0  0  0  0  0  0  0  0  0  0  0
   -0.7611   -2.7766    1.1927 O   0  0  0  0  0  0  0  0  0  0  0  0
   -1.8201   -0.9926    0.3247 N   0  0  0  0  0  0  0  0  0  0  0  0
   -2.7141   -0.5816    0.0927 H   0  0  0  0  0  0  0  0  0  0  0  0
   -0.6481   -0.1156    0.2017 C   0  0  1  0  0  0  0  0  0  0  0  0
    0.1042   -0.6345   -0.3958 H   0  0  0  0  0  0  0  0  0  0  0  0
   -1.0420    1.1781   -0.5372 C   0  0  0  0  0  0  0  0  0  0  0  0
   -1.4085    0.9360   -1.5359 H   0  0  0  0  0  0  0  0  0  0  0  0
   -1.8516    1.6767   -0.0025 H   0  0  0  0  0  0  0  0  0  0  0  0
    0.1141    2.1341   -0.7032 C   0  0  0  0  0  0  0  0  0  0  0  0
    1.1987    2.2639    0.1652 N   0  0  0  0  0  0  0  0  0  0  0  0
    2.0042    3.1841   -0.3851 C   0  0  0  0  0  0  0  0  0  0  0  0
    2.9348    3.5237    0.0521 H   0  0  0  0  0  0  0  0  0  0  0  0
    1.4975    3.6133   -1.5531 N   0  0  0  0  0  0  0  0  0  0  0  0
    1.9295    4.2914   -2.1658 H   0  0  0  0  0  0  0  0  0  0  0  0
    0.3060    2.9587   -1.7731 C   0  0  0  0  0  0  0  0  0  0  0  0
   -0.3507    3.0506   -2.6290 H   0  0  0  0  0  0  0  0  0  0  0  0
   -0.0283    0.1609    1.5831 C   0  0  0  0  0  0  0  0  0  0  0  0
    1.1923    0.1056    1.7329 O   0  0  0  0  0  0  0  0  0  0  0  0
   -0.8586    0.4659    2.5853 N   0  0  0  0  0  0  0  0  0  0  0  0
   -1.8521    0.3848    2.4000 H   0  0  0  0  0  0  0  0  0  0  0  0
   -0.4403    0.7694    3.9518 C   0  0  0  0  0  0  0  0  0  0  0  0
    0.5066    1.3154    3.9421 H   0  0  0  0  0  0  0  0  0  0  0  0
   -1.1988    1.3789    4.4452 H   0  0  0  0  0  0  0  0  0  0  0  0
   -0.3053   -0.1600    4.5075 H   0  0  0  0  0  0  0  0  0  0  0  0
  5  6  2  0  0  0  0
  5  7  1  0  0  0  0
  2  3  1  0  0  0  0
  2  4  1  0  0  0  0
  2  5  1  0  0  0  0
  1  2  1  0  0  0  0
 22 23  2  0  0  0  0
 22 24  1  0  0  0  0
 20 21  1  0  0  0  0
 18 19  1  0  0  0  0
 18 20  1  0  0  0  0
 16 17  1  0  0  0  0
 16 18  1  0  0  0  0
 15 16  2  0  0  0  0
 14 15  1  0  0  0  0
 14 20  2  0  0  0  0
 11 12  1  0  0  0  0
 11 13  1  0  0  0  0
 11 14  1  0  0  0  0
  9 10  1  0  0  0  0
  9 11  1  0  0  0  0
  9 22  1  0  0  0  0
  7  8  1  0  0  0  0
  7  9  1  0  0  0  0
 26 27  1  0  0  0  0
 26 28  1  0  0  0  0
 26 29  1  0  0  0  0
 24 25  1  0  0  0  0
 24 26  1  0  0  0  0
M  END
$$$$
default_name
  -OEChem-02102213163D

 29 29  0     1  0  0  0  0  0999 V2000
   -2.9561   -3.9186    1.3887 H   0  0  0  0  0  0  0  0  0  0  0  0
   -3.1191   -2.9346    0.9517 C   0  0  0  0  0  0  0  0  0  0  0  0
   -3.7811   -2.3546    1.5917 H   0  0  0  0  0  0  0  0  0  0  0  0
   -3.5591   -3.0406   -0.0383 H   0  0  0  0  0  0  0  0  0  0  0  0
   -1.7921   -2.2226    0.8327 C   0  0  0  0  0  0  0  0  0  0  0  0
   -0.7611   -2.7766    1.1927 O   0  0  0  0  0  0  0  0  0  0  0  0
   -1.8201   -0.9926    0.3247 N   0  0  0  0  0  0  0  0  0  0  0  0
   -2.7141   -0.5816    0.0927 H   0  0  0  0  0  0  0  0  0  0  0  0
   -0.6481   -0.1156    0.2017 C   0  0  1  0  0  0  0  0  0  0  0  0
    0.1042   -0.6345   -0.3958 H   0  0  0  0  0  0  0  0  0  0  0  0
   -1.0420    1.1781   -0.5372 C   0  0  0  0  0  0  0  0  0  0  0  0
   -1.4085    0.9360   -1.5359 H   0  0  0  0  0  0  0  0  0  0  0  0
   -1.8516    1.6767   -0.0025 H   0  0  0  0  0  0  0  0  0  0  0  0
    0.1141    2.1341   -0.7032 C   0  0  0  0  0  0  0  0  0  0  0  0
    1.3292    2.0741   -0.0196 N   0  0  0  0  0  0  0  0  0  0  0  0
    2.0761    3.0763   -0.5054 C   0  0  0  0  0  0  0  0  0  0  0  0
    3.0792    3.3102   -0.1717 H   0  0  0  0  0  0  0  0  0  0  0  0
    1.4077    3.7371   -1.4655 N   0  0  0  0  0  0  0  0  0  0  0  0
    1.7655    4.5191   -1.9968 H   0  0  0  0  0  0  0  0  0  0  0  0
    0.1681    3.1542   -1.6076 C   0  0  0  0  0  0  0  0  0  0  0  0
   -0.6131    3.4238   -2.3071 H   0  0  0  0  0  0  0  0  0  0  0  0
   -0.0283    0.1609    1.5831 C   0  0  0  0  0  0  0  0  0  0  0  0
    1.1923    0.1056    1.7329 O   0  0  0  0  0  0  0  0  0  0  0  0
   -0.8586    0.4659    2.5853 N   0  0  0  0  0  0  0  0  0  0  0  0
   -1.8521    0.3848    2.4000 H   0  0  0  0  0  0  0  0  0  0  0  0
   -0.4403    0.7694    3.9518 C   0  0  0  0  0  0  0  0  0  0  0  0
    0.5066    1.3154    3.9421 H   0  0  0  0  0  0  0  0  0  0  0  0
   -1.1988    1.3789    4.4452 H   0  0  0  0  0  0  0  0  0  0  0  0
   -0.3053   -0.1600    4.5075 H   0  0  0  0  0  0  0  0  0  0  0  0
  5  6  2  0  0  0  0
  5  7  1  0  0  0  0
  2  3  1  0  0  0  0
  2  4  1  0  0  0  0
  2  5  1  0  0  0  0
  1  2  1  0  0  0  0
 22 23  2  0  0  0  0
 22 24  1  0  0  0  0
 20 21  1  0  0  0  0
 18 19  1  0  0  0  0
 18 20  1  0  0  0  0
 16 17  1  0  0  0  0
 16 18  1  0  0  0  0
 15 16  2  0  0  0  0
 14 15  1  0  0  0  0
 14 20  2  0  0  0  0
 11 12  1  0  0  0  0
 11 13  1  0  0  0  0
 11 14  1  0  0  0  0
  9 10  1  0  0  0  0
  9 11  1  0  0  0  0
  9 22  1  0  0  0  0
  7  8  1  0  0  0  0
  7  9  1  0  0  0  0
 26 27  1  0  0  0  0
 26 28  1  0  0  0  0
 26 29  1  0  0  0  0
 24 25  1  0  0  0  0
 24 26  1  0  0  0  0
M  END
$$$$
default_name
  -OEChem-02102213163D

 29 29  0     1  0  0  0  0  0999 V2000
   -2.9561   -3.9186    1.3887 H   0  0  0  0  0  0  0  0  0  0  0  0
   -3.1191   -2.9346    0.9517 C   0  0  0  0  0  0  0  0  0  0  0  0
   -3.7811   -2.3546    1.5917 H   0  0  0  0  0  0  0  0  0  0  0  0
   -3.5591   -3.0406   -0.0383 H   0  0  0  0  0  0  0  0  0  0  0  0
   -1.7921   -2.2226    0.8327 C   0  0  0  0  0  0  0  0  0  0  0  0
   -0.7611   -2.7766    1.1927 O   0  0  0  0  0  0  0  0  0  0  0  0
   -1.8201   -0.9926    0.3247 N   0  0  0  0  0  0  0  0  0  0  0  0
   -2.7141   -0.5816    0.0927 H   0  0  0  0  0  0  0  0  0  0  0  0
   -0.6481   -0.1156    0.2017 C   0  0  1  0  0  0  0  0  0  0  0  0
    0.1042   -0.6345   -0.3958 H   0  0  0  0  0  0  0  0  0  0  0  0
   -1.0420    1.1781   -0.5372 C   0  0  0  0  0  0  0  0  0  0  0  0
   -1.4085    0.9360   -1.5359 H   0  0  0  0  0  0  0  0  0  0  0  0
   -1.8516    1.6767   -0.0025 H   0  0  0  0  0  0  0  0  0  0  0  0
    0.1141    2.1341   -0.7032 C   0  0  0  0  0  0  0  0  0  0  0  0
    1.4195    1.9237   -0.2570 N   0  0  0  0  0  0  0  0  0  0  0  0
    2.1227    2.9940   -0.6548 C   0  0  0  0  0  0  0  0  0  0  0  0
    3.1760    3.1441   -0.4538 H   0  0  0  0  0  0  0  0  0  0  0  0
    1.3388    3.8419   -1.3417 N   0  0  0  0  0  0  0  0  0  0  0  0
    1.6412    4.7103   -1.7616 H   0  0  0  0  0  0  0  0  0  0  0  0
    0.0675    3.3142   -1.3863 C   0  0  0  0  0  0  0  0  0  0  0  0
   -0.8032    3.7280   -1.8792 H   0  0  0  0  0  0  0  0  0  0  0  0
   -0.0283    0.1609    1.5831 C   0  0  0  0  0  0  0  0  0  0  0  0
    1.1923    0.1056    1.7329 O   0  0  0  0  0  0  0  0  0  0  0  0
   -0.8586    0.4659    2.5853 N   0  0  0  0  0  0  0  0  0  0  0  0
   -1.8521    0.3848    2.4000 H   0  0  0  0  0  0  0  0  0  0  0  0
   -0.4403    0.7694    3.9518 C   0  0  0  0  0  0  0  0  0  0  0  0
    0.5066    1.3154    3.9421 H   0  0  0  0  0  0  0  0  0  0  0  0
   -1.1988    1.3789    4.4452 H   0  0  0  0  0  0  0  0  0  0  0  0
   -0.3053   -0.1600    4.5075 H   0  0  0  0  0  0  0  0  0  0  0  0
  5  6  2  0  0  0  0
  5  7  1  0  0  0  0
  2  3  1  0  0  0  0
  2  4  1  0  0  0  0
  2  5  1  0  0  0  0
  1  2  1  0  0  0  0
 22 23  2  0  0  0  0
 22 24  1  0  0  0  0
 20 21  1  0  0  0  0
 18 19  1  0  0  0  0
 18 20  1  0  0  0  0
 16 17  1  0  0  0  0
 16 18  1  0  0  0  0
 15 16  2  0  0  0  0
 14 15  1  0  0  0  0
 14 20  2  0  0  0  0
 11 12  1  0  0  0  0
 11 13  1  0  0  0  0
 11 14  1  0  0  0  0
  9 10  1  0  0  0  0
  9 11  1  0  0  0  0
  9 22  1  0  0  0  0
  7  8  1  0  0  0  0
  7  9  1  0  0  0  0
 26 27  1  0  0  0  0
 26 28  1  0  0  0  0
 26 29  1  0  0  0  0
 24 25  1  0  0  0  0
 24 26  1  0  0  0  0
M  END
$$$$
default_name
  -OEChem-02102213163D

 29 29  0     1  0  0  0  0  0999 V2000
   -2.9561   -3.9186    1.3887 H   0  0  0  0  0  0  0  0  0  0  0  0
   -3.1191   -2.9346    0.9517 C   0  0  0  0  0  0  0  0  0  0  0  0
   -3.7811   -2.3546    1.5917 H   0  0  0  0  0  0  0  0  0  0  0  0
   -3.5591   -3.0406   -0.0383 H   0  0  0  0  0  0  0  0  0  0  0  0
   -1.7921   -2.2226    0.8327 C   0  0  0  0  0  0  0  0  0  0  0  0
   -0.7611   -2.7766    1.1927 O   0  0  0  0  0  0  0  0  0  0  0  0
   -1.8201   -0.9926    0.3247 N   0  0  0  0  0  0  0  0  0  0  0  0
   -2.7141   -0.5816    0.0927 H   0  0  0  0  0  0  0  0  0  0  0  0
   -0.6481   -0.1156    0.2017 C   0  0  1  0  0  0  0  0  0  0  0  0
    0.1042   -0.6345   -0.3958 H   0  0  0  0  0  0  0  0  0  0  0  0
   -1.0420    1.1781   -0.5372 C   0  0  0  0  0  0  0  0  0  0  0  0
   -1.4085    0.9360   -1.5359 H   0  0  0  0  0  0  0  0  0  0  0  0
   -1.8516    1.6767   -0.0025 H   0  0  0  0  0  0  0  0  0  0  0  0
    0.1141    2.1341   -0.7032 C   0  0  0  0  0  0  0  0  0  0  0  0
    1.4635    1.8229   -0.5310 N   0  0  0  0  0  0  0  0  0  0  0  0
    2.1409    2.9428   -0.8231 C   0  0  0  0  0  0  0  0  0  0  0  0
    3.2185    3.0370   -0.7751 H   0  0  0  0  0  0  0  0  0  0  0  0
    1.2956    3.9205   -1.1900 N   0  0  0  0  0  0  0  0  0  0  0  0
    1.5651    4.8518   -1.4761 H   0  0  0  0  0  0  0  0  0  0  0  0
    0.0113    3.4277   -1.1244 C   0  0  0  0  0  0  0  0  0  0  0  0
   -0.9080    3.9423   -1.3744 H   0  0  0  0  0  0  0  0  0  0  0  0
   -0.0283    0.1609    1.5831 C   0  0  0  0  0  0  0  0  0  0  0  0
    1.1923    0.1056    1.7329 O   0  0  0  0  0  0  0  0  0  0  0  0
   -0.8586    0.4659    2.5853 N   0  0  0  0  0  0  0  0  0  0  0  0
   -1.8521    0.3848    2.4000 H   0  0  0  0  0  0  0  0  0  0  0  0
   -0.4403    0.7694    3.9518 C   0  0  0  0  0  0  0  0  0  0  0  0
    0.5066    1.3154    3.9421 H   0  0  0  0  0  0  0  0  0  0  0  0
   -1.1988    1.3789    4.4452 H   0  0  0  0  0  0  0  0  0  0  0  0
   -0.3053   -0.1600    4.5075 H   0  0  0  0  0  0  0  0  0  0  0  0
  5  6  2  0  0  0  0
  5  7  1  0  0  0  0
  2  3  1  0  0  0  0
  2  4  1  0  0  0  0
  2  5  1  0  0  0  0
  1  2  1  0  0  0  0
 22 23  2  0  0  0  0
 22 24  1  0  0  0  0
 20 21  1  0  0  0  0
 18 19  1  0  0  0  0
 18 20  1  0  0  0  0
 16 17  1  0  0  0  0
 16 18  1  0  0  0  0
 15 16  2  0  0  0  0
 14 15  1  0  0  0  0
 14 20  2  0  0  0  0
 11 12  1  0  0  0  0
 11 13  1  0  0  0  0
 11 14  1  0  0  0  0
  9 10  1  0  0  0  0
  9 11  1  0  0  0  0
  9 22  1  0  0  0  0
  7  8  1  0  0  0  0
  7  9  1  0  0  0  0
 26 27  1  0  0  0  0
 26 28  1  0  0  0  0
 26 29  1  0  0  0  0
 24 25  1  0  0  0  0
 24 26  1  0  0  0  0
M  END
$$$$
default_name
  -OEChem-02102213163D

 29 29  0     1  0  0  0  0  0999 V2000
   -2.9561   -3.9186    1.3887 H   0  0  0  0  0  0  0  0  0  0  0  0
   -3.1191   -2.9346    0.9517 C   0  0  0  0  0  0  0  0  0  0  0  0
   -3.7811   -2.3546    1.5917 H   0  0  0  0  0  0  0  0  0  0  0  0
   -3.5591   -3.0406   -0.0383 H   0  0  0  0  0  0  0  0  0  0  0  0
   -1.7921   -2.2226    0.8327 C   0  0  0  0  0  0  0  0  0  0  0  0
   -0.7611   -2.7766    1.1927 O   0  0  0  0  0  0  0  0  0  0  0  0
   -1.8201   -0.9926    0.3247 N   0  0  0  0  0  0  0  0  0  0  0  0
   -2.7141   -0.5816    0.0927 H   0  0  0  0  0  0  0  0  0  0  0  0
   -0.6481   -0.1156    0.2017 C   0  0  1  0  0  0  0  0  0  0  0  0
    0.1042   -0.6345   -0.3958 H   0  0  0  0  0  0  0  0  0  0  0  0
   -1.0420    1.1781   -0.5372 C   0  0  0  0  0  0  0  0  0  0  0  0
   -1.4085    0.9360   -1.5359 H   0  0  0  0  0  0  0  0  0  0  0  0
   -1.8516    1.6767   -0.0025 H   0  0  0  0  0  0  0  0  0  0  0  0
    0.1141    2.1341   -0.7032 C   0  0  0  0  0  0  0  0  0  0  0  0
    1.4582    1.7786   -0.8229 N   0  0  0  0  0  0  0  0  0  0  0  0
    2.1295    2.9261   -0.9987 C   0  0  0  0  0  0  0  0  0  0  0  0
    3.2038    2.9959   -1.1137 H   0  0  0  0  0  0  0  0  0  0  0  0
    1.2809    3.9676   -1.0208 N   0  0  0  0  0  0  0  0  0  0  0  0
    1.5425    4.9341   -1.1598 H   0  0  0  0  0  0  0  0  0  0  0  0
    0.0031    3.4870   -0.8397 C   0  0  0  0  0  0  0  0  0  0  0  0
   -0.9203    4.0523   -0.8272 H   0  0  0  0  0  0  0  0  0  0  0  0
   -0.0283    0.1609    1.5831 C   0  0  0  0  0  0  0  0  0  0  0  0
    1.1923    0.1056    1.7329 O   0  0  0  0  0  0  0  0  0  0  0  0
   -0.8586    0.4659    2.5853 N   0  0  0  0  0  0  0  0  0  0  0  0
   -1.8521    0.3848    2.4000 H   0  0  0  0  0  0  0  0  0  0  0  0
   -0.4403    0.7694    3.9518 C   0  0  0  0  0  0  0  0  0  0  0  0
    0.5066    1.3154    3.9421 H   0  0  0  0  0  0  0  0  0  0  0  0
   -1.1988    1.3789    4.4452 H   0  0  0  0  0  0  0  0  0  0  0  0
   -0.3053   -0.1600    4.5075 H   0  0  0  0  0  0  0  0  0  0  0  0
  5  6  2  0  0  0  0
  5  7  1  0  0  0  0
  2  3  1  0  0  0  0
  2  4  1  0  0  0  0
  2  5  1  0  0  0  0
  1  2  1  0  0  0  0
 22 23  2  0  0  0  0
 22 24  1  0  0  0  0
 20 21  1  0  0  0  0
 18 19  1  0  0  0  0
 18 20  1  0  0  0  0
 16 17  1  0  0  0  0
 16 18  1  0  0  0  0
 15 16  2  0  0  0  0
 14 15  1  0  0  0  0
 14 20  2  0  0  0  0
 11 12  1  0  0  0  0
 11 13  1  0  0  0  0
 11 14  1  0  0  0  0
  9 10  1  0  0  0  0
  9 11  1  0  0  0  0
  9 22  1  0  0  0  0
  7  8  1  0  0  0  0
  7  9  1  0  0  0  0
 26 27  1  0  0  0  0
 26 28  1  0  0  0  0
 26 29  1  0  0  0  0
 24 25  1  0  0  0  0
 24 26  1  0  0  0  0
M  END
$$$$
default_name
  -OEChem-02102213163D

 29 29  0     1  0  0  0  0  0999 V2000
   -2.9561   -3.9186    1.3887 H   0  0  0  0  0  0  0  0  0  0  0  0
   -3.1191   -2.9346    0.9517 C   0  0  0  0  0  0  0  0  0  0  0  0
   -3.7811   -2.3546    1.5917 H   0  0  0  0  0  0  0  0  0  0  0  0
   -3.5591   -3.0406   -0.0383 H   0  0  0  0  0  0  0  0  0  0  0  0
   -1.7921   -2.2226    0.8327 C   0  0  0  0  0  0  0  0  0  0  0  0
   -0.7611   -2.7766    1.1927 O   0  0  0  0  0  0  0  0  0  0  0  0
   -1.8201   -0.9926    0.3247 N   0  0  0  0  0  0  0  0  0  0  0  0
   -2.7141   -0.5816    0.0927 H   0  0  0  0  0  0  0  0  0  0  0  0
   -0.6481   -0.1156    0.2017 C   0  0  1  0  0  0  0  0  0  0  0  0
    0.1042   -0.6345   -0.3958 H   0  0  0  0  0  0  0  0  0  0  0  0
   -1.0420    1.1781   -0.5372 C   0  0  0  0  0  0  0  0  0  0  0  0
   -1.4085    0.9360   -1.5359 H   0  0  0  0  0  0  0  0  0  0  0  0
   -1.8516    1.6767   -0.0025 H   0  0  0  0  0  0  0  0  0  0  0  0
    0.1141    2.1341   -0.7032 C   0  0  0  0  0  0  0  0  0  0  0  0
    1.4040    1.7938   -1.1127 N   0  0  0  0  0  0  0  0  0  0  0  0
    2.0891    2.9452   -1.1698 C   0  0  0  0  0  0  0  0  0  0  0  0
    3.1330    3.0238   -1.4465 H   0  0  0  0  0  0  0  0  0  0  0  0
    1.2958    3.9800   -0.8456 N   0  0  0  0  0  0  0  0  0  0  0  0
    1.5748    4.9515   -0.8342 H   0  0  0  0  0  0  0  0  0  0  0  0
    0.0435    3.4881   -0.5516 C   0  0  0  0  0  0  0  0  0  0  0  0
   -0.8394    4.0503   -0.2747 H   0  0  0  0  0  0  0  0  0  0  0  0
   -0.0283    0.1609    1.5831 C   0  0  0  0  0  0  0  0  0  0  0  0
    1.1923    0.1056    1.7329 O   0  0  0  0  0  0  0  0  0  0  0  0
   -0.8586    0.4659    2.5853 N   0  0  0  0  0  0  0  0  0  0  0  0
   -1.8521    0.3848    2.4000 H   0  0  0  0  0  0  0  0  0  0  0  0
   -0.4403    0.7694    3.9518 C   0  0  0  0  0  0  0  0  0  0  0  0
    0.5066    1.3154    3.9421 H   0  0  0  0  0  0  0  0  0  0  0  0
   -1.1988    1.3789    4.4452 H   0  0  0  0  0  0  0  0  0  0  0  0
   -0.3053   -0.1600    4.5075 H   0  0  0  0  0  0  0  0  0  0  0  0
  5  6  2  0  0  0  0
  5  7  1  0  0  0  0
  2  3  1  0  0  0  0
  2  4  1  0  0  0  0
  2  5  1  0  0  0  0
  1  2  1  0  0  0  0
 22 23  2  0  0  0  0
 22 24  1  0  0  0  0
 20 21  1  0  0  0  0
 18 19  1  0  0  0  0
 18 20  1  0  0  0  0
 16 17  1  0  0  0  0
 16 18  1  0  0  0  0
 15 16  2  0  0  0  0
 14 15  1  0  0  0  0
 14 20  2  0  0  0  0
 11 12  1  0  0  0  0
 11 13  1  0  0  0  0
 11 14  1  0  0  0  0
  9 10  1  0  0  0  0
  9 11  1  0  0  0  0
  9 22  1  0  0  0  0
  7  8  1  0  0  0  0
  7  9  1  0  0  0  0
 26 27  1  0  0  0  0
 26 28  1  0  0  0  0
 26 29  1  0  0  0  0
 24 25  1  0  0  0  0
 24 26  1  0  0  0  0
M  END
$$$$
default_name
  -OEChem-02102213163D

 29 29  0     1  0  0  0  0  0999 V2000
   -2.9561   -3.9186    1.3887 H   0  0  0  0  0  0  0  0  0  0  0  0
   -3.1191   -2.9346    0.9517 C   0  0  0  0  0  0  0  0  0  0  0  0
   -3.7811   -2.3546    1.5917 H   0  0  0  0  0  0  0  0  0  0  0  0
   -3.5591   -3.0406   -0.0383 H   0  0  0  0  0  0  0  0  0  0  0  0
   -1.7921   -2.2226    0.8327 C   0  0  0  0  0  0  0  0  0  0  0  0
   -0.7611   -2.7766    1.1927 O   0  0  0  0  0  0  0  0  0  0  0  0
   -1.8201   -0.9926    0.3247 N   0  0  0  0  0  0  0  0  0  0  0  0
   -2.7141   -0.5816    0.0927 H   0  0  0  0  0  0  0  0  0  0  0  0
   -0.6481   -0.1156    0.2017 C   0  0  1  0  0  0  0  0  0  0  0  0
    0.1042   -0.6345   -0.3958 H   0  0  0  0  0  0  0  0  0  0  0  0
   -1.0420    1.1781   -0.5372 C   0  0  0  0  0  0  0  0  0  0  0  0
   -1.4085    0.9360   -1.5359 H   0  0  0  0  0  0  0  0  0  0  0  0
   -1.8516    1.6767   -0.0025 H   0  0  0  0  0  0  0  0  0  0  0  0
    0.1141    2.1341   -0.7032 C   0  0  0  0  0  0  0  0  0  0  0  0
    1.3046    1.8675   -1.3807 N   0  0  0  0  0  0  0  0  0  0  0  0
    2.0227    2.9987   -1.3247 C   0  0  0  0  0  0  0  0  0  0  0  0
    3.0108    3.1188   -1.7508 H   0  0  0  0  0  0  0  0  0  0  0  0
    1.3393    3.9568   -0.6764 N   0  0  0  0  0  0  0  0  0  0  0  0
    1.6599    4.9029   -0.5216 H   0  0  0  0  0  0  0  0  0  0  0  0
    0.1299    3.4309   -0.2798 C   0  0  0  0  0  0  0  0  0  0  0  0
   -0.6708    3.9367    0.2452 H   0  0  0  0  0  0  0  0  0  0  0  0
   -0.0283    0.1609    1.5831 C   0  0  0  0  0  0  0  0  0  0  0  0
    1.1923    0.1056    1.7329 O   0  0  0  0  0  0  0  0  0  0  0  0
   -0.8586    0.4659    2.5853 N   0  0  0  0  0  0  0  0  0  0  0  0
   -1.8521    0.3848    2.4000 H   0  0  0  0  0  0  0  0  0  0  0  0
   -0.4403    0.7694    3.9518 C   0  0  0  0  0  0  0  0  0  0  0  0
    0.5066    1.3154    3.9421 H   0  0  0  0  0  0  0  0  0  0  0  0
   -1.1988    1.3789    4.4452 H   0  0  0  0  0  0  0  0  0  0  0  0
   -0.3053   -0.1600    4.5075 H   0  0  0  0  0  0  0  0  0  0  0  0
  5  6  2  0  0  0  0
  5  7  1  0  0  0  0
  2  3  1  0  0  0  0
  2  4  1  0  0  0  0
  2  5  1  0  0  0  0
  1  2  1  0  0  0  0
 22 23  2  0  0  0  0
 22 24  1  0  0  0  0
 20 21  1  0  0  0  0
 18 19  1  0  0  0  0
 18 20  1  0  0  0  0
 16 17  1  0  0  0  0
 16 18  1  0  0  0  0
 15 16  2  0  0  0  0
 14 15  1  0  0  0  0
 14 20  2  0  0  0  0
 11 12  1  0  0  0  0
 11 13  1  0  0  0  0
 11 14  1  0  0  0  0
  9 10  1  0  0  0  0
  9 11  1  0  0  0  0
  9 22  1  0  0  0  0
  7  8  1  0  0  0  0
  7  9  1  0  0  0  0
 26 27  1  0  0  0  0
 26 28  1  0  0  0  0
 26 29  1  0  0  0  0
 24 25  1  0  0  0  0
 24 26  1  0  0  0  0
M  END
$$$$
default_name
  -OEChem-02102213163D

 29 29  0     1  0  0  0  0  0999 V2000
   -2.9561   -3.9186    1.3887 H   0  0  0  0  0  0  0  0  0  0  0  0
   -3.1191   -2.9346    0.9517 C   0  0  0  0  0  0  0  0  0  0  0  0
   -3.7811   -2.3546    1.5917 H   0  0  0  0  0  0  0  0  0  0  0  0
   -3.5591   -3.0406   -0.0383 H   0  0  0  0  0  0  0  0  0  0  0  0
   -1.7921   -2.2226    0.8327 C   0  0  0  0  0  0  0  0  0  0  0  0
   -0.7611   -2.7766    1.1927 O   0  0  0  0  0  0  0  0  0  0  0  0
   -1.8201   -0.9926    0.3247 N   0  0  0  0  0  0  0  0  0  0  0  0
   -2.7141   -0.5816    0.0927 H   0  0  0  0  0  0  0  0  0  0  0  0
   -0.6481   -0.1156    0.2017 C   0  0  1  0  0  0  0  0  0  0  0  0
    0.1042   -0.6345   -0.3958 H   0  0  0  0  0  0  0  0  0  0  0  0
   -1.0420    1.1781   -0.5372 C   0  0  0  0  0  0  0  0  0  0  0  0
   -1.4085    0.9360   -1.5359 H   0  0  0  0  0  0  0  0  0  0  0  0
   -1.8516    1.6767   -0.0025 H   0  0  0  0  0  0  0  0  0  0  0  0
    0.1141    2.1341   -0.7032 C   0  0  0  0  0  0  0  0  0  0  0  0
    1.1667    1.9947   -1.6087 N   0  0  0  0  0  0  0  0  0  0  0  0
    1.9346    3.0830   -1.4528 C   0  0  0  0  0  0  0  0  0  0  0  0
    2.8456    3.2743   -2.0058 H   0  0  0  0  0  0  0  0  0  0  0  0
    1.4084    3.8996   -0.5246 N   0  0  0  0  0  0  0  0  0  0  0  0
    1.7920    4.7915   -0.2433 H   0  0  0  0  0  0  0  0  0  0  0  0
    0.2562    3.3193   -0.0426 C   0  0  0  0  0  0  0  0  0  0  0  0
   -0.4258    3.7190    0.6973 H   0  0  0  0  0  0  0  0  0  0  0  0
   -0.0283    0.1609    1.5831 C   0  0  0  0  0  0  0  0  0  0  0  0
    1.1923    0.1056    1.7329 O   0  0  0  0  0  0  0  0  0  0  0  0
   -0.8586    0.4659    2.5853 N   0  0  0  0  0  0  0  0  0  0  0  0
   -1.8521    0.3848    2.4000 H   0  0  0  0  0  0  0  0  0  0  0  0
   -0.4403    0.7694    3.9518 C   0  0  0  0  0  0  0  0  0  0  0  0
    0.5066    1.3154    3.9421 H   0  0  0  0  0  0  0  0  0  0  0  0
   -1.1988    1.3789    4.4452 H   0  0  0  0  0  0  0  0  0  0  0  0
   -0.3053   -0.1600    4.5075 H   0  0  0  0  0  0  0  0  0  0  0  0
  5  6  2  0  0  0  0
  5  7  1  0  0  0  0
  2  3  1  0  0  0  0
  2  4  1  0  0  0  0
  2  5  1  0  0  0  0
  1  2  1  0  0  0  0
 22 23  2  0  0  0  0
 22 24  1  0  0  0  0
 20 21  1  0  0  0  0
 18 19  1  0  0  0  0
 18 20  1  0  0  0  0
 16 17  1  0  0  0  0
 16 18  1  0  0  0  0
 15 16  2  0  0  0  0
 14 15  1  0  0  0  0
 14 20  2  0  0  0  0
 11 12  1  0  0  0  0
 11 13  1  0  0  0  0
 11 14  1  0  0  0  0
  9 10  1  0  0  0  0
  9 11  1  0  0  0  0
  9 22  1  0  0  0  0
  7  8  1  0  0  0  0
  7  9  1  0  0  0  0
 26 27  1  0  0  0  0
 26 28  1  0  0  0  0
 26 29  1  0  0  0  0
 24 25  1  0  0  0  0
 24 26  1  0  0  0  0
M  END
$$$$
default_name
  -OEChem-02102213163D

 29 29  0     1  0  0  0  0  0999 V2000
   -2.9561   -3.9186    1.3887 H   0  0  0  0  0  0  0  0  0  0  0  0
   -3.1191   -2.9346    0.9517 C   0  0  0  0  0  0  0  0  0  0  0  0
   -3.7811   -2.3546    1.5917 H   0  0  0  0  0  0  0  0  0  0  0  0
   -3.5591   -3.0406   -0.0383 H   0  0  0  0  0  0  0  0  0  0  0  0
   -1.7921   -2.2226    0.8327 C   0  0  0  0  0  0  0  0  0  0  0  0
   -0.7611   -2.7766    1.1927 O   0  0  0  0  0  0  0  0  0  0  0  0
   -1.8201   -0.9926    0.3247 N   0  0  0  0  0  0  0  0  0  0  0  0
   -2.7141   -0.5816    0.0927 H   0  0  0  0  0  0  0  0  0  0  0  0
   -0.6481   -0.1156    0.2017 C   0  0  1  0  0  0  0  0  0  0  0  0
    0.1042   -0.6345   -0.3958 H   0  0  0  0  0  0  0  0  0  0  0  0
   -1.0420    1.1781   -0.5372 C   0  0  0  0  0  0  0  0  0  0  0  0
   -1.4085    0.9360   -1.5359 H   0  0  0  0  0  0  0  0  0  0  0  0
   -1.8516    1.6767   -0.0025 H   0  0  0  0  0  0  0  0  0  0  0  0
    0.1141    2.1341   -0.7032 C   0  0  0  0  0  0  0  0  0  0  0  0
    0.9998    2.1666   -1.7812 N   0  0  0  0  0  0  0  0  0  0  0  0
    1.8309    3.1923   -1.5454 C   0  0  0  0  0  0  0  0  0  0  0  0
    2.6486    3.4797   -2.1943 H   0  0  0  0  0  0  0  0  0  0  0  0
    1.4984    3.8123   -0.4007 N   0  0  0  0  0  0  0  0  0  0  0  0
    1.9620    4.6250   -0.0181 H   0  0  0  0  0  0  0  0  0  0  0  0
    0.4139    3.1609    0.1436 C   0  0  0  0  0  0  0  0  0  0  0  0
   -0.1213    3.4121    1.0506 H   0  0  0  0  0  0  0  0  0  0  0  0
   -0.0283    0.1609    1.5831 C   0  0  0  0  0  0  0  0  0  0  0  0
    1.1923    0.1056    1.7329 O   0  0  0  0  0  0  0  0  0  0  0  0
   -0.8586    0.4659    2.5853 N   0  0  0  0  0  0  0  0  0  0  0  0
   -1.8521    0.3848    2.4000 H   0  0  0  0  0  0  0  0  0  0  0  0
   -0.4403    0.7694    3.9518 C   0  0  0  0  0  0  0  0  0  0  0  0
    0.5066    1.3154    3.9421 H   0  0  0  0  0  0  0  0  0  0  0  0
   -1.1988    1.3789    4.4452 H   0  0  0  0  0  0  0  0  0  0  0  0
   -0.3053   -0.1600    4.5075 H   0  0  0  0  0  0  0  0  0  0  0  0
  5  6  2  0  0  0  0
  5  7  1  0  0  0  0
  2  3  1  0  0  0  0
  2  4  1  0  0  0  0
  2  5  1  0  0  0  0
  1  2  1  0  0  0  0
 22 23  2  0  0  0  0
 22 24  1  0  0  0  0
 20 21  1  0  0  0  0
 18 19  1  0  0  0  0
 18 20  1  0  0  0  0
 16 17  1  0  0  0  0
 16 18  1  0  0  0  0
 15 16  2  0  0  0  0
 14 15  1  0  0  0  0
 14 20  2  0  0  0  0
 11 12  1  0  0  0  0
 11 13  1  0  0  0  0
 11 14  1  0  0  0  0
  9 10  1  0  0  0  0
  9 11  1  0  0  0  0
  9 22  1  0  0  0  0
  7  8  1  0  0  0  0
  7  9  1  0  0  0  0
 26 27  1  0  0  0  0
 26 28  1  0  0  0  0
 26 29  1  0  0  0  0
 24 25  1  0  0  0  0
 24 26  1  0  0  0  0
M  END
$$$$
default_name
  -OEChem-02102213163D

 29 29  0     1  0  0  0  0  0999 V2000
   -2.9561   -3.9186    1.3887 H   0  0  0  0  0  0  0  0  0  0  0  0
   -3.1191   -2.9346    0.9517 C   0  0  0  0  0  0  0  0  0  0  0  0
   -3.7811   -2.3546    1.5917 H   0  0  0  0  0  0  0  0  0  0  0  0
   -3.5591   -3.0406   -0.0383 H   0  0  0  0  0  0  0  0  0  0  0  0
   -1.7921   -2.2226    0.8327 C   0  0  0  0  0  0  0  0  0  0  0  0
   -0.7611   -2.7766    1.1927 O   0  0  0  0  0  0  0  0  0  0  0  0
   -1.8201   -0.9926    0.3247 N   0  0  0  0  0  0  0  0  0  0  0  0
   -2.7141   -0.5816    0.0927 H   0  0  0  0  0  0  0  0  0  0  0  0
   -0.6481   -0.1156    0.2017 C   0  0  1  0  0  0  0  0  0  0  0  0
    0.1042   -0.6345   -0.3958 H   0  0  0  0  0  0  0  0  0  0  0  0
   -1.0420    1.1781   -0.5372 C   0  0  0  0  0  0  0  0  0  0  0  0
   -1.4085    0.9360   -1.5359 H   0  0  0  0  0  0  0  0  0  0  0  0
   -1.8516    1.6767   -0.0025 H   0  0  0  0  0  0  0  0  0  0  0  0
    0.1141    2.1341   -0.7032 C   0  0  0  0  0  0  0  0  0  0  0  0
    0.8151    2.3717   -1.8862 N   0  0  0  0  0  0  0  0  0  0  0  0
    1.7187    3.3192   -1.5962 C   0  0  0  0  0  0  0  0  0  0  0  0
    2.4333    3.7212   -2.3033 H   0  0  0  0  0  0  0  0  0  0  0  0
    1.6031    3.7009   -0.3131 N   0  0  0  0  0  0  0  0  0  0  0  0
    2.1584    4.4147    0.1385 H   0  0  0  0  0  0  0  0  0  0  0  0
    0.5923    2.9665    0.2662 C   0  0  0  0  0  0  0  0  0  0  0  0
    0.2220    3.0370    1.2812 H   0  0  0  0  0  0  0  0  0  0  0  0
   -0.0283    0.1609    1.5831 C   0  0  0  0  0  0  0  0  0  0  0  0
    1.1923    0.1056    1.7329 O   0  0  0  0  0  0  0  0  0  0  0  0
   -0.8586    0.4659    2.5853 N   0  0  0  0  0  0  0  0  0  0  0  0
   -1.8521    0.3848    2.4000 H   0  0  0  0  0  0  0  0  0  0  0  0
   -0.4403    0.7694    3.9518 C   0  0  0  0  0  0  0  0  0  0  0  0
    0.5066    1.3154    3.9421 H   0  0  0  0  0  0  0  0  0  0  0  0
   -1.1988    1.3789    4.4452 H   0  0  0  0  0  0  0  0  0  0  0  0
   -0.3053   -0.1600    4.5075 H   0  0  0  0  0  0  0  0  0  0  0  0
  5  6  2  0  0  0  0
  5  7  1  0  0  0  0
  2  3  1  0  0  0  0
  2  4  1  0  0  0  0
  2  5  1  0  0  0  0
  1  2  1  0  0  0  0
 22 23  2  0  0  0  0
 22 24  1  0  0  0  0
 20 21  1  0  0  0  0
 18 19  1  0  0  0  0
 18 20  1  0  0  0  0
 16 17  1  0  0  0  0
 16 18  1  0  0  0  0
 15 16  2  0  0  0  0
 14 15  1  0  0  0  0
 14 20  2  0  0  0  0
 11 12  1  0  0  0  0
 11 13  1  0  0  0  0
 11 14  1  0  0  0  0
  9 10  1  0  0  0  0
  9 11  1  0  0  0  0
  9 22  1  0  0  0  0
  7  8  1  0  0  0  0
  7  9  1  0  0  0  0
 26 27  1  0  0  0  0
 26 28  1  0  0  0  0
 26 29  1  0  0  0  0
 24 25  1  0  0  0  0
 24 26  1  0  0  0  0
M  END
$$$$
default_name
  -OEChem-02102213163D

 29 29  0     1  0  0  0  0  0999 V2000
   -2.9561   -3.9186    1.3887 H   0  0  0  0  0  0  0  0  0  0  0  0
   -3.1191   -2.9346    0.9517 C   0  0  0  0  0  0  0  0  0  0  0  0
   -3.7811   -2.3546    1.5917 H   0  0  0  0  0  0  0  0  0  0  0  0
   -3.5591   -3.0406   -0.0383 H   0  0  0  0  0  0  0  0  0  0  0  0
   -1.7921   -2.2226    0.8327 C   0  0  0  0  0  0  0  0  0  0  0  0
   -0.7611   -2.7766    1.1927 O   0  0  0  0  0  0  0  0  0  0  0  0
   -1.8201   -0.9926    0.3247 N   0  0  0  0  0  0  0  0  0  0  0  0
   -2.7141   -0.5816    0.0927 H   0  0  0  0  0  0  0  0  0  0  0  0
   -0.6481   -0.1156    0.2017 C   0  0  1  0  0  0  0  0  0  0  0  0
    0.1042   -0.6345   -0.3958 H   0  0  0  0  0  0  0  0  0  0  0  0
   -1.0420    1.1781   -0.5372 C   0  0  0  0  0  0  0  0  0  0  0  0
   -1.4085    0.9360   -1.5359 H   0  0  0  0  0  0  0  0  0  0  0  0
   -1.8516    1.6767   -0.0025 H   0  0  0  0  0  0  0  0  0  0  0  0
    0.1141    2.1341   -0.7032 C   0  0  0  0  0  0  0  0  0  0  0  0
    0.6254    2.5958   -1.9168 N   0  0  0  0  0  0  0  0  0  0  0  0
    1.6056    3.4550   -1.6017 C   0  0  0  0  0  0  0  0  0  0  0  0
    2.2143    3.9821   -2.3255 H   0  0  0  0  0  0  0  0  0  0  0  0
    1.7155    3.5729   -0.2678 N   0  0  0  0  0  0  0  0  0  0  0  0
    2.3678    4.1749    0.2158 H   0  0  0  0  0  0  0  0  0  0  0  0
    0.7792    2.7493    0.3168 C   0  0  0  0  0  0  0  0  0  0  0  0
    0.5807    2.6192    1.3732 H   0  0  0  0  0  0  0  0  0  0  0  0
   -0.0283    0.1609    1.5831 C   0  0  0  0  0  0  0  0  0  0  0  0
    1.1923    0.1056    1.7329 O   0  0  0  0  0  0  0  0  0  0  0  0
   -0.8586    0.4659    2.5853 N   0  0  0  0  0  0  0  0  0  0  0  0
   -1.8521    0.3848    2.4000 H   0  0  0  0  0  0  0  0  0  0  0  0
   -0.4403    0.7694    3.9518 C   0  0  0  0  0  0  0  0  0  0  0  0
    0.5066    1.3154    3.9421 H   0  0  0  0  0  0  0  0  0  0  0  0
   -1.1988    1.3789    4.4452 H   0  0  0  0  0  0  0  0  0  0  0  0
   -0.3053   -0.1600    4.5075 H   0  0  0  0  0  0  0  0  0  0  0  0
  5  6  2  0  0  0  0
  5  7  1  0  0  0  0
  2  3  1  0  0  0  0
  2  4  1  0  0  0  0
  2  5  1  0  0  0  0
  1  2  1  0  0  0  0
 22 23  2  0  0  0  0
 22 24  1  0  0  0  0
 20 21  1  0  0  0  0
 18 19  1  0  0  0  0
 18 20  1  0  0  0  0
 16 17  1  0  0  0  0
 16 18  1  0  0  0  0
 15 16  2  0  0  0  0
 14 15  1  0  0  0  0
 14 20  2  0  0  0  0
 11 12  1  0  0  0  0
 11 13  1  0  0  0  0
 11 14  1  0  0  0  0
  9 10  1  0  0  0  0
  9 11  1  0  0  0  0
  9 22  1  0  0  0  0
  7  8  1  0  0  0  0
  7  9  1  0  0  0  0
 26 27  1  0  0  0  0
 26 28  1  0  0  0  0
 26 29  1  0  0  0  0
 24 25  1  0  0  0  0
 24 26  1  0  0  0  0
M  END
$$$$
default_name
  -OEChem-02102213163D

 29 29  0     1  0  0  0  0  0999 V2000
   -2.9561   -3.9186    1.3887 H   0  0  0  0  0  0  0  0  0  0  0  0
   -3.1191   -2.9346    0.9517 C   0  0  0  0  0  0  0  0  0  0  0  0
   -3.7811   -2.3546    1.5917 H   0  0  0  0  0  0  0  0  0  0  0  0
   -3.5591   -3.0406   -0.0383 H   0  0  0  0  0  0  0  0  0  0  0  0
   -1.7921   -2.2226    0.8327 C   0  0  0  0  0  0  0  0  0  0  0  0
   -0.7611   -2.7766    1.1927 O   0  0  0  0  0  0  0  0  0  0  0  0
   -1.8201   -0.9926    0.3247 N   0  0  0  0  0  0  0  0  0  0  0  0
   -2.7141   -0.5816    0.0927 H   0  0  0  0  0  0  0  0  0  0  0  0
   -0.6481   -0.1156    0.2017 C   0  0  1  0  0  0  0  0  0  0  0  0
    0.1042   -0.6345   -0.3958 H   0  0  0  0  0  0  0  0  0  0  0  0
   -1.0420    1.1781   -0.5372 C   0  0  0  0  0  0  0  0  0  0  0  0
   -1.4085    0.9360   -1.5359 H   0  0  0  0  0  0  0  0  0  0  0  0
   -1.8516    1.6767   -0.0025 H   0  0  0  0  0  0  0  0  0  0  0  0
    0.1141    2.1341   -0.7032 C   0  0  0  0  0  0  0  0  0  0  0  0
    0.4435    2.8237   -1.8709 N   0  0  0  0  0  0  0  0  0  0  0  0
    1.4993    3.5905   -1.5615 C   0  0  0  0  0  0  0  0  0  0  0  0
    2.0066    4.2448   -2.2592 H   0  0  0  0  0  0  0  0  0  0  0  0
    1.8278    3.4370   -0.2677 N   0  0  0  0  0  0  0  0  0  0  0  0
    2.5759    3.9220    0.2087 H   0  0  0  0  0  0  0  0  0  0  0  0
    0.9618    2.5242    0.2920 C   0  0  0  0  0  0  0  0  0  0  0  0
    0.9304    2.1871    1.3205 H   0  0  0  0  0  0  0  0  0  0  0  0
   -0.0283    0.1609    1.5831 C   0  0  0  0  0  0  0  0  0  0  0  0
    1.1923    0.1056    1.7329 O   0  0  0  0  0  0  0  0  0  0  0  0
   -0.8586    0.4659    2.5853 N   0  0  0  0  0  0  0  0  0  0  0  0
   -1.8521    0.3848    2.4000 H   0  0  0  0  0  0  0  0  0  0  0  0
   -0.4403    0.7694    3.9518 C   0  0  0  0  0  0  0  0  0  0  0  0
    0.5066    1.3154    3.9421 H   0  0  0  0  0  0  0  0  0  0  0  0
   -1.1988    1.3789    4.4452 H   0  0  0  0  0  0  0  0  0  0  0  0
   -0.3053   -0.1600    4.5075 H   0  0  0  0  0  0  0  0  0  0  0  0
  5  6  2  0  0  0  0
  5  7  1  0  0  0  0
  2  3  1  0  0  0  0
  2  4  1  0  0  0  0
  2  5  1  0  0  0  0
  1  2  1  0  0  0  0
 22 23  2  0  0  0  0
 22 24  1  0  0  0  0
 20 21  1  0  0  0  0
 18 19  1  0  0  0  0
 18 20  1  0  0  0  0
 16 17  1  0  0  0  0
 16 18  1  0  0  0  0
 15 16  2  0  0  0  0
 14 15  1  0  0  0  0
 14 20  2  0  0  0  0
 11 12  1  0  0  0  0
 11 13  1  0  0  0  0
 11 14  1  0  0  0  0
  9 10  1  0  0  0  0
  9 11  1  0  0  0  0
  9 22  1  0  0  0  0
  7  8  1  0  0  0  0
  7  9  1  0  0  0  0
 26 27  1  0  0  0  0
 26 28  1  0  0  0  0
 26 29  1  0  0  0  0
 24 25  1  0  0  0  0
 24 26  1  0  0  0  0
M  END
$$$$
default_name
  -OEChem-02102213163D

 29 29  0     1  0  0  0  0  0999 V2000
   -2.9561   -3.9186    1.3887 H   0  0  0  0  0  0  0  0  0  0  0  0
   -3.1191   -2.9346    0.9517 C   0  0  0  0  0  0  0  0  0  0  0  0
   -3.7811   -2.3546    1.5917 H   0  0  0  0  0  0  0  0  0  0  0  0
   -3.5591   -3.0406   -0.0383 H   0  0  0  0  0  0  0  0  0  0  0  0
   -1.7921   -2.2226    0.8327 C   0  0  0  0  0  0  0  0  0  0  0  0
   -0.7611   -2.7766    1.1927 O   0  0  0  0  0  0  0  0  0  0  0  0
   -1.8201   -0.9926    0.3247 N   0  0  0  0  0  0  0  0  0  0  0  0
   -2.7141   -0.5816    0.0927 H   0  0  0  0  0  0  0  0  0  0  0  0
   -0.6481   -0.1156    0.2017 C   0  0  1  0  0  0  0  0  0  0  0  0
    0.1042   -0.6345   -0.3958 H   0  0  0  0  0  0  0  0  0  0  0  0
   -1.0420    1.1781   -0.5372 C   0  0  0  0  0  0  0  0  0  0  0  0
   -1.4085    0.9360   -1.5359 H   0  0  0  0  0  0  0  0  0  0  0  0
   -1.8516    1.6767   -0.0025 H   0  0  0  0  0  0  0  0  0  0  0  0
    0.1141    2.1341   -0.7032 C   0  0  0  0  0  0  0  0  0  0  0  0
    0.2818    3.0400   -1.7514 N   0  0  0  0  0  0  0  0  0  0  0  0
    1.4071    3.7164   -1.4784 C   0  0  0  0  0  0  0  0  0  0  0  0
    1.8243    4.4913   -2.1091 H   0  0  0  0  0  0  0  0  0  0  0  0
    1.9324    3.3026   -0.3131 N   0  0  0  0  0  0  0  0  0  0  0  0
    2.7686    3.6732    0.1175 H   0  0  0  0  0  0  0  0  0  0  0  0
    1.1277    2.3065    0.1935 C   0  0  0  0  0  0  0  0  0  0  0  0
    1.2472    1.7703    1.1266 H   0  0  0  0  0  0  0  0  0  0  0  0
   -0.0283    0.1609    1.5831 C   0  0  0  0  0  0  0  0  0  0  0  0
    1.1923    0.1056    1.7329 O   0  0  0  0  0  0  0  0  0  0  0  0
   -0.8586    0.4659    2.5853 N   0  0  0  0  0  0  0  0  0  0  0  0
   -1.8521    0.3848    2.4000 H   0  0  0  0  0  0  0  0  0  0  0  0
   -0.4403    0.7694    3.9518 C   0  0  0  0  0  0  0  0  0  0  0  0
    0.5066    1.3154    3.9421 H   0  0  0  0  0  0  0  0  0  0  0  0
   -1.1988    1.3789    4.4452 H   0  0  0  0  0  0  0  0  0  0  0  0
   -0.3053   -0.1600    4.5075 H   0  0  0  0  0  0  0  0  0  0  0  0
  5  6  2  0  0  0  0
  5  7  1  0  0  0  0
  2  3  1  0  0  0  0
  2  4  1  0  0  0  0
  2  5  1  0  0  0  0
  1  2  1  0  0  0  0
 22 23  2  0  0  0  0
 22 24  1  0  0  0  0
 20 21  1  0  0  0  0
 18 19  1  0  0  0  0
 18 20  1  0  0  0  0
 16 17  1  0  0  0  0
 16 18  1  0  0  0  0
 15 16  2  0  0  0  0
 14 15  1  0  0  0  0
 14 20  2  0  0  0  0
 11 12  1  0  0  0  0
 11 13  1  0  0  0  0
 11 14  1  0  0  0  0
  9 10  1  0  0  0  0
  9 11  1  0  0  0  0
  9 22  1  0  0  0  0
  7  8  1  0  0  0  0
  7  9  1  0  0  0  0
 26 27  1  0  0  0  0
 26 28  1  0  0  0  0
 26 29  1  0  0  0  0
 24 25  1  0  0  0  0
 24 26  1  0  0  0  0
M  END
$$$$
default_name
  -OEChem-02102213163D

 29 29  0     1  0  0  0  0  0999 V2000
   -2.9561   -3.9186    1.3887 H   0  0  0  0  0  0  0  0  0  0  0  0
   -3.1191   -2.9346    0.9517 C   0  0  0  0  0  0  0  0  0  0  0  0
   -3.7811   -2.3546    1.5917 H   0  0  0  0  0  0  0  0  0  0  0  0
   -3.5591   -3.0406   -0.0383 H   0  0  0  0  0  0  0  0  0  0  0  0
   -1.7921   -2.2226    0.8327 C   0  0  0  0  0  0  0  0  0  0  0  0
   -0.7611   -2.7766    1.1927 O   0  0  0  0  0  0  0  0  0  0  0  0
   -1.8201   -0.9926    0.3247 N   0  0  0  0  0  0  0  0  0  0  0  0
   -2.7141   -0.5816    0.0927 H   0  0  0  0  0  0  0  0  0  0  0  0
   -0.6481   -0.1156    0.2017 C   0  0  1  0  0  0  0  0  0  0  0  0
    0.1042   -0.6345   -0.3958 H   0  0  0  0  0  0  0  0  0  0  0  0
   -1.0420    1.1781   -0.5372 C   0  0  0  0  0  0  0  0  0  0  0  0
   -1.4085    0.9360   -1.5359 H   0  0  0  0  0  0  0  0  0  0  0  0
   -1.8516    1.6767   -0.0025 H   0  0  0  0  0  0  0  0  0  0  0  0
    0.1141    2.1341   -0.7032 C   0  0  0  0  0  0  0  0  0  0  0  0
    0.1514    3.2298   -1.5667 N   0  0  0  0  0  0  0  0  0  0  0  0
    1.3352    3.8242   -1.3581 C   0  0  0  0  0  0  0  0  0  0  0  0
    1.6798    4.7049   -1.8853 H   0  0  0  0  0  0  0  0  0  0  0  0
    2.0222    3.1788   -0.4006 N   0  0  0  0  0  0  0  0  0  0  0  0
    2.9326    3.4455   -0.0514 H   0  0  0  0  0  0  0  0  0  0  0  0
    1.2656    2.1110    0.0280 C   0  0  0  0  0  0  0  0  0  0  0  0
    1.5096    1.3971    0.8047 H   0  0  0  0  0  0  0  0  0  0  0  0
   -0.0283    0.1609    1.5831 C   0  0  0  0  0  0  0  0  0  0  0  0
    1.1923    0.1056    1.7329 O   0  0  0  0  0  0  0  0  0  0  0  0
   -0.8586    0.4659    2.5853 N   0  0  0  0  0  0  0  0  0  0  0  0
   -1.8521    0.3848    2.4000 H   0  0  0  0  0  0  0  0  0  0  0  0
   -0.4403    0.7694    3.9518 C   0  0  0  0  0  0  0  0  0  0  0  0
    0.5066    1.3154    3.9421 H   0  0  0  0  0  0  0  0  0  0  0  0
   -1.1988    1.3789    4.4452 H   0  0  0  0  0  0  0  0  0  0  0  0
   -0.3053   -0.1600    4.5075 H   0  0  0  0  0  0  0  0  0  0  0  0
  5  6  2  0  0  0  0
  5  7  1  0  0  0  0
  2  3  1  0  0  0  0
  2  4  1  0  0  0  0
  2  5  1  0  0  0  0
  1  2  1  0  0  0  0
 22 23  2  0  0  0  0
 22 24  1  0  0  0  0
 20 21  1  0  0  0  0
 18 19  1  0  0  0  0
 18 20  1  0  0  0  0
 16 17  1  0  0  0  0
 16 18  1  0  0  0  0
 15 16  2  0  0  0  0
 14 15  1  0  0  0  0
 14 20  2  0  0  0  0
 11 12  1  0  0  0  0
 11 13  1  0  0  0  0
 11 14  1  0  0  0  0
  9 10  1  0  0  0  0
  9 11  1  0  0  0  0
  9 22  1  0  0  0  0
  7  8  1  0  0  0  0
  7  9  1  0  0  0  0
 26 27  1  0  0  0  0
 26 28  1  0  0  0  0
 26 29  1  0  0  0  0
 24 25  1  0  0  0  0
 24 26  1  0  0  0  0
M  END
$$$$
default_name
  -OEChem-02102213163D

 29 29  0     1  0  0  0  0  0999 V2000
   -2.9561   -3.9186    1.3887 H   0  0  0  0  0  0  0  0  0  0  0  0
   -3.1191   -2.9346    0.9517 C   0  0  0  0  0  0  0  0  0  0  0  0
   -3.7811   -2.3546    1.5917 H   0  0  0  0  0  0  0  0  0  0  0  0
   -3.5591   -3.0406   -0.0383 H   0  0  0  0  0  0  0  0  0  0  0  0
   -1.7921   -2.2226    0.8327 C   0  0  0  0  0  0  0  0  0  0  0  0
   -0.7611   -2.7766    1.1927 O   0  0  0  0  0  0  0  0  0  0  0  0
   -1.8201   -0.9926    0.3247 N   0  0  0  0  0  0  0  0  0  0  0  0
   -2.7141   -0.5816    0.0927 H   0  0  0  0  0  0  0  0  0  0  0  0
   -0.6481   -0.1156    0.2017 C   0  0  1  0  0  0  0  0  0  0  0  0
    0.1042   -0.6345   -0.3958 H   0  0  0  0  0  0  0  0  0  0  0  0
   -1.0420    1.1781   -0.5372 C   0  0  0  0  0  0  0  0  0  0  0  0
   -1.6463    0.9342   -1.4122 H   0  0  0  0  0  0  0  0  0  0  0  0
   -1.6491    1.8061    0.1162 H   0  0  0  0  0  0  0  0  0  0  0  0
    0.1522    1.9639   -1.0216 C   0  0  0  0  0  0  0  0  0  0  0  0
    0.1077    3.1716   -1.7194 N   0  0  0  0  0  0  0  0  0  0  0  0
    1.3843    3.5376   -1.9056 C   0  0  0  0  0  0  0  0  0  0  0  0
    1.6947    4.4329   -2.4296 H   0  0  0  0  0  0  0  0  0  0  0  0
    2.2156    2.6439   -1.3439 N   0  0  0  0  0  0  0  0  0  0  0  0
    3.2243    2.7079   -1.3326 H   0  0  0  0  0  0  0  0  0  0  0  0
    1.4559    1.6448   -0.7771 C   0  0  0  0  0  0  0  0  0  0  0  0
    1.8048    0.7815   -0.2246 H   0  0  0  0  0  0  0  0  0  0  0  0
   -0.0283    0.1609    1.5831 C   0  0  0  0  0  0  0  0  0  0  0  0
    1.1923    0.1056    1.7329 O   0  0  0  0  0  0  0  0  0  0  0  0
   -0.8586    0.4659    2.5853 N   0  0  0  0  0  0  0  0  0  0  0  0
   -1.8521    0.3848    2.4000 H   0  0  0  0  0  0  0  0  0  0  0  0
   -0.4403    0.7694    3.9518 C   0  0  0  0  0  0  0  0  0  0  0  0
    0.5066    1.3154    3.9421 H   0  0  0  0  0  0  0  0  0  0  0  0
   -1.1988    1.3789    4.4452 H   0  0  0  0  0  0  0  0  0  0  0  0
   -0.3053   -0.1600    4.5075 H   0  0  0  0  0  0  0  0  0  0  0  0
  5  6  2  0  0  0  0
  5  7  1  0  0  0  0
  2  3  1  0  0  0  0
  2  4  1  0  0  0  0
  2  5  1  0  0  0  0
  1  2  1  0  0  0  0
 22 23  2  0  0  0  0
 22 24  1  0  0  0  0
 20 21  1  0  0  0  0
 18 19  1  0  0  0  0
 18 20  1  0  0  0  0
 16 17  1  0  0  0  0
 16 18  1  0  0  0  0
 15 16  2  0  0  0  0
 14 15  1  0  0  0  0
 14 20  2  0  0  0  0
 11 12  1  0  0  0  0
 11 13  1  0  0  0  0
 11 14  1  0  0  0  0
  9 10  1  0  0  0  0
  9 11  1  0  0  0  0
  9 22  1  0  0  0  0
  7  8  1  0  0  0  0
  7  9  1  0  0  0  0
 26 27  1  0  0  0  0
 26 28  1  0  0  0  0
 26 29  1  0  0  0  0
 24 25  1  0  0  0  0
 24 26  1  0  0  0  0
M  END
$$$$
default_name
  -OEChem-02102213163D

 29 29  0     1  0  0  0  0  0999 V2000
   -2.9561   -3.9186    1.3887 H   0  0  0  0  0  0  0  0  0  0  0  0
   -3.1191   -2.9346    0.9517 C   0  0  0  0  0  0  0  0  0  0  0  0
   -3.7811   -2.3546    1.5917 H   0  0  0  0  0  0  0  0  0  0  0  0
   -3.5591   -3.0406   -0.0383 H   0  0  0  0  0  0  0  0  0  0  0  0
   -1.7921   -2.2226    0.8327 C   0  0  0  0  0  0  0  0  0  0  0  0
   -0.7611   -2.7766    1.1927 O   0  0  0  0  0  0  0  0  0  0  0  0
   -1.8201   -0.9926    0.3247 N   0  0  0  0  0  0  0  0  0  0  0  0
   -2.7141   -0.5816    0.0927 H   0  0  0  0  0  0  0  0  0  0  0  0
   -0.6481   -0.1156    0.2017 C   0  0  1  0  0  0  0  0  0  0  0  0
    0.1042   -0.6345   -0.3958 H   0  0  0  0  0  0  0  0  0  0  0  0
   -1.0420    1.1781   -0.5372 C   0  0  0  0  0  0  0  0  0  0  0  0
   -1.6463    0.9342   -1.4122 H   0  0  0  0  0  0  0  0  0  0  0  0
   -1.6491    1.8061    0.1162 H   0  0  0  0  0  0  0  0  0  0  0  0
    0.1522    1.9639   -1.0216 C   0  0  0  0  0  0  0  0  0  0  0  0
    0.1376    3.2915   -1.4513 N   0  0  0  0  0  0  0  0  0  0  0  0
    1.4099    3.5996   -1.7420 C   0  0  0  0  0  0  0  0  0  0  0  0
    1.7372    4.5614   -2.1162 H   0  0  0  0  0  0  0  0  0  0  0  0
    2.2147    2.5524   -1.4946 N   0  0  0  0  0  0  0  0  0  0  0  0
    3.2182    2.5428   -1.6155 H   0  0  0  0  0  0  0  0  0  0  0  0
    1.4391    1.5113   -1.0351 C   0  0  0  0  0  0  0  0  0  0  0  0
    1.7695    0.5290   -0.7214 H   0  0  0  0  0  0  0  0  0  0  0  0
   -0.0283    0.1609    1.5831 C   0  0  0  0  0  0  0  0  0  0  0  0
    1.1923    0.1056    1.7329 O   0  0  0  0  0  0  0  0  0  0  0  0
   -0.8586    0.4659    2.5853 N   0  0  0  0  0  0  0  0  0  0  0  0
   -1.8521    0.3848    2.4000 H   0  0  0  0  0  0  0  0  0  0  0  0
   -0.4403    0.7694    3.9518 C   0  0  0  0  0  0  0  0  0  0  0  0
    0.5066    1.3154    3.9421 H   0  0  0  0  0  0  0  0  0  0  0  0
   -1.1988    1.3789    4.4452 H   0  0  0  0  0  0  0  0  0  0  0  0
   -0.3053   -0.1600    4.5075 H   0  0  0  0  0  0  0  0  0  0  0  0
  5  6  2  0  0  0  0
  5  7  1  0  0  0  0
  2  3  1  0  0  0  0
  2  4  1  0  0  0  0
  2  5  1  0  0  0  0
  1  2  1  0  0  0  0
 22 23  2  0  0  0  0
 22 24  1  0  0  0  0
 20 21  1  0  0  0  0
 18 19  1  0  0  0  0
 18 20  1  0  0  0  0
 16 17  1  0  0  0  0
 16 18  1  0  0  0  0
 15 16  2  0  0  0  0
 14 15  1  0  0  0  0
 14 20  2  0  0  0  0
 11 12  1  0  0  0  0
 11 13  1  0  0  0  0
 11 14  1  0  0  0  0
  9 10  1  0  0  0  0
  9 11  1  0  0  0  0
  9 22  1  0  0  0  0
  7  8  1  0  0  0  0
  7  9  1  0  0  0  0
 26 27  1  0  0  0  0
 26 28  1  0  0  0  0
 26 29  1  0  0  0  0
 24 25  1  0  0  0  0
 24 26  1  0  0  0  0
M  END
$$$$
default_name
  -OEChem-02102213163D

 29 29  0     1  0  0  0  0  0999 V2000
   -2.9561   -3.9186    1.3887 H   0  0  0  0  0  0  0  0  0  0  0  0
   -3.1191   -2.9346    0.9517 C   0  0  0  0  0  0  0  0  0  0  0  0
   -3.7811   -2.3546    1.5917 H   0  0  0  0  0  0  0  0  0  0  0  0
   -3.5591   -3.0406   -0.0383 H   0  0  0  0  0  0  0  0  0  0  0  0
   -1.7921   -2.2226    0.8327 C   0  0  0  0  0  0  0  0  0  0  0  0
   -0.7611   -2.7766    1.1927 O   0  0  0  0  0  0  0  0  0  0  0  0
   -1.8201   -0.9926    0.3247 N   0  0  0  0  0  0  0  0  0  0  0  0
   -2.7141   -0.5816    0.0927 H   0  0  0  0  0  0  0  0  0  0  0  0
   -0.6481   -0.1156    0.2017 C   0  0  1  0  0  0  0  0  0  0  0  0
    0.1042   -0.6345   -0.3958 H   0  0  0  0  0  0  0  0  0  0  0  0
   -1.0420    1.1781   -0.5372 C   0  0  0  0  0  0  0  0  0  0  0  0
   -1.6463    0.9342   -1.4122 H   0  0  0  0  0  0  0  0  0  0  0  0
   -1.6491    1.8061    0.1162 H   0  0  0  0  0  0  0  0  0  0  0  0
    0.1522    1.9639   -1.0216 C   0  0  0  0  0  0  0  0  0  0  0  0
    0.2125    3.3500   -1.1717 N   0  0  0  0  0  0  0  0  0  0  0  0
    1.4619    3.6237   -1.5747 C   0  0  0  0  0  0  0  0  0  0  0  0
    1.8312    4.6179   -1.7929 H   0  0  0  0  0  0  0  0  0  0  0  0
    2.1859    2.4950   -1.6587 N   0  0  0  0  0  0  0  0  0  0  0  0
    3.1605    2.4418   -1.9217 H   0  0  0  0  0  0  0  0  0  0  0  0
    1.3771    1.4365   -1.3093 C   0  0  0  0  0  0  0  0  0  0  0  0
    1.6474    0.3899   -1.2481 H   0  0  0  0  0  0  0  0  0  0  0  0
   -0.0283    0.1609    1.5831 C   0  0  0  0  0  0  0  0  0  0  0  0
    1.1923    0.1056    1.7329 O   0  0  0  0  0  0  0  0  0  0  0  0
   -0.8586    0.4659    2.5853 N   0  0  0  0  0  0  0  0  0  0  0  0
   -1.8521    0.3848    2.4000 H   0  0  0  0  0  0  0  0  0  0  0  0
   -0.4403    0.7694    3.9518 C   0  0  0  0  0  0  0  0  0  0  0  0
    0.5066    1.3154    3.9421 H   0  0  0  0  0  0  0  0  0  0  0  0
   -1.1988    1.3789    4.4452 H   0  0  0  0  0  0  0  0  0  0  0  0
   -0.3053   -0.1600    4.5075 H   0  0  0  0  0  0  0  0  0  0  0  0
  5  6  2  0  0  0  0
  5  7  1  0  0  0  0
  2  3  1  0  0  0  0
  2  4  1  0  0  0  0
  2  5  1  0  0  0  0
  1  2  1  0  0  0  0
 22 23  2  0  0  0  0
 22 24  1  0  0  0  0
 20 21  1  0  0  0  0
 18 19  1  0  0  0  0
 18 20  1  0  0  0  0
 16 17  1  0  0  0  0
 16 18  1  0  0  0  0
 15 16  2  0  0  0  0
 14 15  1  0  0  0  0
 14 20  2  0  0  0  0
 11 12  1  0  0  0  0
 11 13  1  0  0  0  0
 11 14  1  0  0  0  0
  9 10  1  0  0  0  0
  9 11  1  0  0  0  0
  9 22  1  0  0  0  0
  7  8  1  0  0  0  0
  7  9  1  0  0  0  0
 26 27  1  0  0  0  0
 26 28  1  0  0  0  0
 26 29  1  0  0  0  0
 24 25  1  0  0  0  0
 24 26  1  0  0  0  0
M  END
$$$$
default_name
  -OEChem-02102213163D

 29 29  0     1  0  0  0  0  0999 V2000
   -2.9561   -3.9186    1.3887 H   0  0  0  0  0  0  0  0  0  0  0  0
   -3.1191   -2.9346    0.9517 C   0  0  0  0  0  0  0  0  0  0  0  0
   -3.7811   -2.3546    1.5917 H   0  0  0  0  0  0  0  0  0  0  0  0
   -3.5591   -3.0406   -0.0383 H   0  0  0  0  0  0  0  0  0  0  0  0
   -1.7921   -2.2226    0.8327 C   0  0  0  0  0  0  0  0  0  0  0  0
   -0.7611   -2.7766    1.1927 O   0  0  0  0  0  0  0  0  0  0  0  0
   -1.8201   -0.9926    0.3247 N   0  0  0  0  0  0  0  0  0  0  0  0
   -2.7141   -0.5816    0.0927 H   0  0  0  0  0  0  0  0  0  0  0  0
   -0.6481   -0.1156    0.2017 C   0  0  1  0  0  0  0  0  0  0  0  0
    0.1042   -0.6345   -0.3958 H   0  0  0  0  0  0  0  0  0  0  0  0
   -1.0420    1.1781   -0.5372 C   0  0  0  0  0  0  0  0  0  0  0  0
   -1.6463    0.9342   -1.4122 H   0  0  0  0  0  0  0  0  0  0  0  0
   -1.6491    1.8061    0.1162 H   0  0  0  0  0  0  0  0  0  0  0  0
    0.1522    1.9639   -1.0216 C   0  0  0  0  0  0  0  0  0  0  0  0
    0.3274    3.3430   -0.8999 N   0  0  0  0  0  0  0  0  0  0  0  0
    1.5366    3.6085   -1.4152 C   0  0  0  0  0  0  0  0  0  0  0  0
    1.9702    4.5984   -1.4817 H   0  0  0  0  0  0  0  0  0  0  0  0
    2.1312    2.4755   -1.8251 N   0  0  0  0  0  0  0  0  0  0  0  0
    3.0550    2.4118   -2.2304 H   0  0  0  0  0  0  0  0  0  0  0  0
    1.2740    1.4256   -1.5812 C   0  0  0  0  0  0  0  0  0  0  0  0
    1.4469    0.3734   -1.7690 H   0  0  0  0  0  0  0  0  0  0  0  0
   -0.0283    0.1609    1.5831 C   0  0  0  0  0  0  0  0  0  0  0  0
    1.1923    0.1056    1.7329 O   0  0  0  0  0  0  0  0  0  0  0  0
   -0.8586    0.4659    2.5853 N   0  0  0  0  0  0  0  0  0  0  0  0
   -1.8521    0.3848    2.4000 H   0  0  0  0  0  0  0  0  0  0  0  0
   -0.4403    0.7694    3.9518 C   0  0  0  0  0  0  0  0  0  0  0  0
    0.5066    1.3154    3.9421 H   0  0  0  0  0  0  0  0  0  0  0  0
   -1.1988    1.3789    4.4452 H   0  0  0  0  0  0  0  0  0  0  0  0
   -0.3053   -0.1600    4.5075 H   0  0  0  0  0  0  0  0  0  0  0  0
  5  6  2  0  0  0  0
  5  7  1  0  0  0  0
  2  3  1  0  0  0  0
  2  4  1  0  0  0  0
  2  5  1  0  0  0  0
  1  2  1  0  0  0  0
 22 23  2  0  0  0  0
 22 24  1  0  0  0  0
 20 21  1  0  0  0  0
 18 19  1  0  0  0  0
 18 20  1  0  0  0  0
 16 17  1  0  0  0  0
 16 18  1  0  0  0  0
 15 16  2  0  0  0  0
 14 15  1  0  0  0  0
 14 20  2  0  0  0  0
 11 12  1  0  0  0  0
 11 13  1  0  0  0  0
 11 14  1  0  0  0  0
  9 10  1  0  0  0  0
  9 11  1  0  0  0  0
  9 22  1  0  0  0  0
  7  8  1  0  0  0  0
  7  9  1  0  0  0  0
 26 27  1  0  0  0  0
 26 28  1  0  0  0  0
 26 29  1  0  0  0  0
 24 25  1  0  0  0  0
 24 26  1  0  0  0  0
M  END
$$$$
default_name
  -OEChem-02102213163D

 29 29  0     1  0  0  0  0  0999 V2000
   -2.9561   -3.9186    1.3887 H   0  0  0  0  0  0  0  0  0  0  0  0
   -3.1191   -2.9346    0.9517 C   0  0  0  0  0  0  0  0  0  0  0  0
   -3.7811   -2.3546    1.5917 H   0  0  0  0  0  0  0  0  0  0  0  0
   -3.5591   -3.0406   -0.0383 H   0  0  0  0  0  0  0  0  0  0  0  0
   -1.7921   -2.2226    0.8327 C   0  0  0  0  0  0  0  0  0  0  0  0
   -0.7611   -2.7766    1.1927 O   0  0  0  0  0  0  0  0  0  0  0  0
   -1.8201   -0.9926    0.3247 N   0  0  0  0  0  0  0  0  0  0  0  0
   -2.7141   -0.5816    0.0927 H   0  0  0  0  0  0  0  0  0  0  0  0
   -0.6481   -0.1156    0.2017 C   0  0  1  0  0  0  0  0  0  0  0  0
    0.1042   -0.6345   -0.3958 H   0  0  0  0  0  0  0  0  0  0  0  0
   -1.0420    1.1781   -0.5372 C   0  0  0  0  0  0  0  0  0  0  0  0
   -1.6463    0.9342   -1.4122 H   0  0  0  0  0  0  0  0  0  0  0  0
   -1.6491    1.8061    0.1162 H   0  0  0  0  0  0  0  0  0  0  0  0
    0.1522    1.9639   -1.0216 C   0  0  0  0  0  0  0  0  0  0  0  0
    0.4744    3.2710   -0.6541 N   0  0  0  0  0  0  0  0  0  0  0  0
    1.6290    3.5549   -1.2742 C   0  0  0  0  0  0  0  0  0  0  0  0
    2.1448    4.5043   -1.2039 H   0  0  0  0  0  0  0  0  0  0  0  0
    2.0543    2.4953   -1.9825 N   0  0  0  0  0  0  0  0  0  0  0  0
    2.9091    2.4547   -2.5206 H   0  0  0  0  0  0  0  0  0  0  0  0
    1.1368    1.4794   -1.8321 C   0  0  0  0  0  0  0  0  0  0  0  0
    1.1818    0.4809   -2.2484 H   0  0  0  0  0  0  0  0  0  0  0  0
   -0.0283    0.1609    1.5831 C   0  0  0  0  0  0  0  0  0  0  0  0
    1.1923    0.1056    1.7329 O   0  0  0  0  0  0  0  0  0  0  0  0
   -0.8586    0.4659    2.5853 N   0  0  0  0  0  0  0  0  0  0  0  0
   -1.8521    0.3848    2.4000 H   0  0  0  0  0  0  0  0  0  0  0  0
   -0.4403    0.7694    3.9518 C   0  0  0  0  0  0  0  0  0  0  0  0
    0.5066    1.3154    3.9421 H   0  0  0  0  0  0  0  0  0  0  0  0
   -1.1988    1.3789    4.4452 H   0  0  0  0  0  0  0  0  0  0  0  0
   -0.3053   -0.1600    4.5075 H   0  0  0  0  0  0  0  0  0  0  0  0
  5  6  2  0  0  0  0
  5  7  1  0  0  0  0
  2  3  1  0  0  0  0
  2  4  1  0  0  0  0
  2  5  1  0  0  0  0
  1  2  1  0  0  0  0
 22 23  2  0  0  0  0
 22 24  1  0  0  0  0
 20 21  1  0  0  0  0
 18 19  1  0  0  0  0
 18 20  1  0  0  0  0
 16 17  1  0  0  0  0
 16 18  1  0  0  0  0
 15 16  2  0  0  0  0
 14 15  1  0  0  0  0
 14 20  2  0  0  0  0
 11 12  1  0  0  0  0
 11 13  1  0  0  0  0
 11 14  1  0  0  0  0
  9 10  1  0  0  0  0
  9 11  1  0  0  0  0
  9 22  1  0  0  0  0
  7  8  1  0  0  0  0
  7  9  1  0  0  0  0
 26 27  1  0  0  0  0
 26 28  1  0  0  0  0
 26 29  1  0  0  0  0
 24 25  1  0  0  0  0
 24 26  1  0  0  0  0
M  END
$$$$
default_name
  -OEChem-02102213163D

 29 29  0     1  0  0  0  0  0999 V2000
   -2.9561   -3.9186    1.3887 H   0  0  0  0  0  0  0  0  0  0  0  0
   -3.1191   -2.9346    0.9517 C   0  0  0  0  0  0  0  0  0  0  0  0
   -3.7811   -2.3546    1.5917 H   0  0  0  0  0  0  0  0  0  0  0  0
   -3.5591   -3.0406   -0.0383 H   0  0  0  0  0  0  0  0  0  0  0  0
   -1.7921   -2.2226    0.8327 C   0  0  0  0  0  0  0  0  0  0  0  0
   -0.7611   -2.7766    1.1927 O   0  0  0  0  0  0  0  0  0  0  0  0
   -1.8201   -0.9926    0.3247 N   0  0  0  0  0  0  0  0  0  0  0  0
   -2.7141   -0.5816    0.0927 H   0  0  0  0  0  0  0  0  0  0  0  0
   -0.6481   -0.1156    0.2017 C   0  0  1  0  0  0  0  0  0  0  0  0
    0.1042   -0.6345   -0.3958 H   0  0  0  0  0  0  0  0  0  0  0  0
   -1.0420    1.1781   -0.5372 C   0  0  0  0  0  0  0  0  0  0  0  0
   -1.6463    0.9342   -1.4122 H   0  0  0  0  0  0  0  0  0  0  0  0
   -1.6491    1.8061    0.1162 H   0  0  0  0  0  0  0  0  0  0  0  0
    0.1522    1.9639   -1.0216 C   0  0  0  0  0  0  0  0  0  0  0  0
    0.6435    3.1390   -0.4514 N   0  0  0  0  0  0  0  0  0  0  0  0
    1.7328    3.4667   -1.1615 C   0  0  0  0  0  0  0  0  0  0  0  0
    2.3431    4.3420   -0.9783 H   0  0  0  0  0  0  0  0  0  0  0  0
    1.9605    2.5531   -2.1201 N   0  0  0  0  0  0  0  0  0  0  0  0
    2.7326    2.5677   -2.7724 H   0  0  0  0  0  0  0  0  0  0  0  0
    0.9751    1.5940   -2.0450 C   0  0  0  0  0  0  0  0  0  0  0  0
    0.8700    0.7049   -2.6538 H   0  0  0  0  0  0  0  0  0  0  0  0
   -0.0283    0.1609    1.5831 C   0  0  0  0  0  0  0  0  0  0  0  0
    1.1923    0.1056    1.7329 O   0  0  0  0  0  0  0  0  0  0  0  0
   -0.8586    0.4659    2.5853 N   0  0  0  0  0  0  0  0  0  0  0  0
   -1.8521    0.3848    2.4000 H   0  0  0  0  0  0  0  0  0  0  0  0
   -0.4403    0.7694    3.9518 C   0  0  0  0  0  0  0  0  0  0  0  0
    0.5066    1.3154    3.9421 H   0  0  0  0  0  0  0  0  0  0  0  0
   -1.1988    1.3789    4.4452 H   0  0  0  0  0  0  0  0  0  0  0  0
   -0.3053   -0.1600    4.5075 H   0  0  0  0  0  0  0  0  0  0  0  0
  5  6  2  0  0  0  0
  5  7  1  0  0  0  0
  2  3  1  0  0  0  0
  2  4  1  0  0  0  0
  2  5  1  0  0  0  0
  1  2  1  0  0  0  0
 22 23  2  0  0  0  0
 22 24  1  0  0  0  0
 20 21  1  0  0  0  0
 18 19  1  0  0  0  0
 18 20  1  0  0  0  0
 16 17  1  0  0  0  0
 16 18  1  0  0  0  0
 15 16  2  0  0  0  0
 14 15  1  0  0  0  0
 14 20  2  0  0  0  0
 11 12  1  0  0  0  0
 11 13  1  0  0  0  0
 11 14  1  0  0  0  0
  9 10  1  0  0  0  0
  9 11  1  0  0  0  0
  9 22  1  0  0  0  0
  7  8  1  0  0  0  0
  7  9  1  0  0  0  0
 26 27  1  0  0  0  0
 26 28  1  0  0  0  0
 26 29  1  0  0  0  0
 24 25  1  0  0  0  0
 24 26  1  0  0  0  0
M  END
$$$$
default_name
  -OEChem-02102213163D

 29 29  0     1  0  0  0  0  0999 V2000
   -2.9561   -3.9186    1.3887 H   0  0  0  0  0  0  0  0  0  0  0  0
   -3.1191   -2.9346    0.9517 C   0  0  0  0  0  0  0  0  0  0  0  0
   -3.7811   -2.3546    1.5917 H   0  0  0  0  0  0  0  0  0  0  0  0
   -3.5591   -3.0406   -0.0383 H   0  0  0  0  0  0  0  0  0  0  0  0
   -1.7921   -2.2226    0.8327 C   0  0  0  0  0  0  0  0  0  0  0  0
   -0.7611   -2.7766    1.1927 O   0  0  0  0  0  0  0  0  0  0  0  0
   -1.8201   -0.9926    0.3247 N   0  0  0  0  0  0  0  0  0  0  0  0
   -2.7141   -0.5816    0.0927 H   0  0  0  0  0  0  0  0  0  0  0  0
   -0.6481   -0.1156    0.2017 C   0  0  1  0  0  0  0  0  0  0  0  0
    0.1042   -0.6345   -0.3958 H   0  0  0  0  0  0  0  0  0  0  0  0
   -1.0420    1.1781   -0.5372 C   0  0  0  0  0  0  0  0  0  0  0  0
   -1.6463    0.9342   -1.4122 H   0  0  0  0  0  0  0  0  0  0  0  0
   -1.6491    1.8061    0.1162 H   0  0  0  0  0  0  0  0  0  0  0  0
    0.1522    1.9639   -1.0216 C   0  0  0  0  0  0  0  0  0  0  0  0
    0.8233    2.9559   -0.3053 N   0  0  0  0  0  0  0  0  0  0  0  0
    1.8409    3.3497   -1.0847 C   0  0  0  0  0  0  0  0  0  0  0  0
    2.5515    4.1226   -0.8203 H   0  0  0  0  0  0  0  0  0  0  0  0
    1.8562    2.6448   -2.2285 N   0  0  0  0  0  0  0  0  0  0  0  0
    2.5376    2.7431   -2.9687 H   0  0  0  0  0  0  0  0  0  0  0  0
    0.7996    1.7618   -2.2053 C   0  0  0  0  0  0  0  0  0  0  0  0
    0.5328    1.0301   -2.9575 H   0  0  0  0  0  0  0  0  0  0  0  0
   -0.0283    0.1609    1.5831 C   0  0  0  0  0  0  0  0  0  0  0  0
    1.1923    0.1056    1.7329 O   0  0  0  0  0  0  0  0  0  0  0  0
   -0.8586    0.4659    2.5853 N   0  0  0  0  0  0  0  0  0  0  0  0
   -1.8521    0.3848    2.4000 H   0  0  0  0  0  0  0  0  0  0  0  0
   -0.4403    0.7694    3.9518 C   0  0  0  0  0  0  0  0  0  0  0  0
    0.5066    1.3154    3.9421 H   0  0  0  0  0  0  0  0  0  0  0  0
   -1.1988    1.3789    4.4452 H   0  0  0  0  0  0  0  0  0  0  0  0
   -0.3053   -0.1600    4.5075 H   0  0  0  0  0  0  0  0  0  0  0  0
  5  6  2  0  0  0  0
  5  7  1  0  0  0  0
  2  3  1  0  0  0  0
  2  4  1  0  0  0  0
  2  5  1  0  0  0  0
  1  2  1  0  0  0  0
 22 23  2  0  0  0  0
 22 24  1  0  0  0  0
 20 21  1  0  0  0  0
 18 19  1  0  0  0  0
 18 20  1  0  0  0  0
 16 17  1  0  0  0  0
 16 18  1  0  0  0  0
 15 16  2  0  0  0  0
 14 15  1  0  0  0  0
 14 20  2  0  0  0  0
 11 12  1  0  0  0  0
 11 13  1  0  0  0  0
 11 14  1  0  0  0  0
  9 10  1  0  0  0  0
  9 11  1  0  0  0  0
  9 22  1  0  0  0  0
  7  8  1  0  0  0  0
  7  9  1  0  0  0  0
 26 27  1  0  0  0  0
 26 28  1  0  0  0  0
 26 29  1  0  0  0  0
 24 25  1  0  0  0  0
 24 26  1  0  0  0  0
M  END
$$$$
default_name
  -OEChem-02102213163D

 29 29  0     1  0  0  0  0  0999 V2000
   -2.9561   -3.9186    1.3887 H   0  0  0  0  0  0  0  0  0  0  0  0
   -3.1191   -2.9346    0.9517 C   0  0  0  0  0  0  0  0  0  0  0  0
   -3.7811   -2.3546    1.5917 H   0  0  0  0  0  0  0  0  0  0  0  0
   -3.5591   -3.0406   -0.0383 H   0  0  0  0  0  0  0  0  0  0  0  0
   -1.7921   -2.2226    0.8327 C   0  0  0  0  0  0  0  0  0  0  0  0
   -0.7611   -2.7766    1.1927 O   0  0  0  0  0  0  0  0  0  0  0  0
   -1.8201   -0.9926    0.3247 N   0  0  0  0  0  0  0  0  0  0  0  0
   -2.7141   -0.5816    0.0927 H   0  0  0  0  0  0  0  0  0  0  0  0
   -0.6481   -0.1156    0.2017 C   0  0  1  0  0  0  0  0  0  0  0  0
    0.1042   -0.6345   -0.3958 H   0  0  0  0  0  0  0  0  0  0  0  0
   -1.0420    1.1781   -0.5372 C   0  0  0  0  0  0  0  0  0  0  0  0
   -1.6463    0.9342   -1.4122 H   0  0  0  0  0  0  0  0  0  0  0  0
   -1.6491    1.8061    0.1162 H   0  0  0  0  0  0  0  0  0  0  0  0
    0.1522    1.9639   -1.0216 C   0  0  0  0  0  0  0  0  0  0  0  0
    1.0013    2.7341   -0.2259 N   0  0  0  0  0  0  0  0  0  0  0  0
    1.9460    3.2120   -1.0491 C   0  0  0  0  0  0  0  0  0  0  0  0
    2.7559    3.8610   -0.7408 H   0  0  0  0  0  0  0  0  0  0  0  0
    1.7484    2.7643   -2.3004 N   0  0  0  0  0  0  0  0  0  0  0  0
    2.3373    2.9689   -3.0961 H   0  0  0  0  0  0  0  0  0  0  0  0
    0.6225    1.9713   -2.3022 C   0  0  0  0  0  0  0  0  0  0  0  0
    0.1932    1.4345   -3.1388 H   0  0  0  0  0  0  0  0  0  0  0  0
   -0.0283    0.1609    1.5831 C   0  0  0  0  0  0  0  0  0  0  0  0
    1.1923    0.1056    1.7329 O   0  0  0  0  0  0  0  0  0  0  0  0
   -0.8586    0.4659    2.5853 N   0  0  0  0  0  0  0  0  0  0  0  0
   -1.8521    0.3848    2.4000 H   0  0  0  0  0  0  0  0  0  0  0  0
   -0.4403    0.7694    3.9518 C   0  0  0  0  0  0  0  0  0  0  0  0
    0.5066    1.3154    3.9421 H   0  0  0  0  0  0  0  0  0  0  0  0
   -1.1988    1.3789    4.4452 H   0  0  0  0  0  0  0  0  0  0  0  0
   -0.3053   -0.1600    4.5075 H   0  0  0  0  0  0  0  0  0  0  0  0
  5  6  2  0  0  0  0
  5  7  1  0  0  0  0
  2  3  1  0  0  0  0
  2  4  1  0  0  0  0
  2  5  1  0  0  0  0
  1  2  1  0  0  0  0
 22 23  2  0  0  0  0
 22 24  1  0  0  0  0
 20 21  1  0  0  0  0
 18 19  1  0  0  0  0
 18 20  1  0  0  0  0
 16 17  1  0  0  0  0
 16 18  1  0  0  0  0
 15 16  2  0  0  0  0
 14 15  1  0  0  0  0
 14 20  2  0  0  0  0
 11 12  1  0  0  0  0
 11 13  1  0  0  0  0
 11 14  1  0  0  0  0
  9 10  1  0  0  0  0
  9 11  1  0  0  0  0
  9 22  1  0  0  0  0
  7  8  1  0  0  0  0
  7  9  1  0  0  0  0
 26 27  1  0  0  0  0
 26 28  1  0  0  0  0
 26 29  1  0  0  0  0
 24 25  1  0  0  0  0
 24 26  1  0  0  0  0
M  END
$$$$
default_name
  -OEChem-02102213163D

 29 29  0     1  0  0  0  0  0999 V2000
   -2.9561   -3.9186    1.3887 H   0  0  0  0  0  0  0  0  0  0  0  0
   -3.1191   -2.9346    0.9517 C   0  0  0  0  0  0  0  0  0  0  0  0
   -3.7811   -2.3546    1.5917 H   0  0  0  0  0  0  0  0  0  0  0  0
   -3.5591   -3.0406   -0.0383 H   0  0  0  0  0  0  0  0  0  0  0  0
   -1.7921   -2.2226    0.8327 C   0  0  0  0  0  0  0  0  0  0  0  0
   -0.7611   -2.7766    1.1927 O   0  0  0  0  0  0  0  0  0  0  0  0
   -1.8201   -0.9926    0.3247 N   0  0  0  0  0  0  0  0  0  0  0  0
   -2.7141   -0.5816    0.0927 H   0  0  0  0  0  0  0  0  0  0  0  0
   -0.6481   -0.1156    0.2017 C   0  0  1  0  0  0  0  0  0  0  0  0
    0.1042   -0.6345   -0.3958 H   0  0  0  0  0  0  0  0  0  0  0  0
   -1.0420    1.1781   -0.5372 C   0  0  0  0  0  0  0  0  0  0  0  0
   -1.6463    0.9342   -1.4122 H   0  0  0  0  0  0  0  0  0  0  0  0
   -1.6491    1.8061    0.1162 H   0  0  0  0  0  0  0  0  0  0  0  0
    0.1522    1.9639   -1.0216 C   0  0  0  0  0  0  0  0  0  0  0  0
    1.1656    2.4889   -0.2187 N   0  0  0  0  0  0  0  0  0  0  0  0
    2.0409    3.0630   -1.0570 C   0  0  0  0  0  0  0  0  0  0  0  0
    2.9423    3.5751   -0.7450 H   0  0  0  0  0  0  0  0  0  0  0  0
    1.6445    2.9034   -2.3309 N   0  0  0  0  0  0  0  0  0  0  0  0
    2.1455    3.2297   -3.1460 H   0  0  0  0  0  0  0  0  0  0  0  0
    0.4557    2.2081   -2.3290 C   0  0  0  0  0  0  0  0  0  0  0  0
   -0.1257    1.8904   -3.1854 H   0  0  0  0  0  0  0  0  0  0  0  0
   -0.0283    0.1609    1.5831 C   0  0  0  0  0  0  0  0  0  0  0  0
    1.1923    0.1056    1.7329 O   0  0  0  0  0  0  0  0  0  0  0  0
   -0.8586    0.4659    2.5853 N   0  0  0  0  0  0  0  0  0  0  0  0
   -1.8521    0.3848    2.4000 H   0  0  0  0  0  0  0  0  0  0  0  0
   -0.4403    0.7694    3.9518 C   0  0  0  0  0  0  0  0  0  0  0  0
    0.5066    1.3154    3.9421 H   0  0  0  0  0  0  0  0  0  0  0  0
   -1.1988    1.3789    4.4452 H   0  0  0  0  0  0  0  0  0  0  0  0
   -0.3053   -0.1600    4.5075 H   0  0  0  0  0  0  0  0  0  0  0  0
  5  6  2  0  0  0  0
  5  7  1  0  0  0  0
  2  3  1  0  0  0  0
  2  4  1  0  0  0  0
  2  5  1  0  0  0  0
  1  2  1  0  0  0  0
 22 23  2  0  0  0  0
 22 24  1  0  0  0  0
 20 21  1  0  0  0  0
 18 19  1  0  0  0  0
 18 20  1  0  0  0  0
 16 17  1  0  0  0  0
 16 18  1  0  0  0  0
 15 16  2  0  0  0  0
 14 15  1  0  0  0  0
 14 20  2  0  0  0  0
 11 12  1  0  0  0  0
 11 13  1  0  0  0  0
 11 14  1  0  0  0  0
  9 10  1  0  0  0  0
  9 11  1  0  0  0  0
  9 22  1  0  0  0  0
  7  8  1  0  0  0  0
  7  9  1  0  0  0  0
 26 27  1  0  0  0  0
 26 28  1  0  0  0  0
 26 29  1  0  0  0  0
 24 25  1  0  0  0  0
 24 26  1  0  0  0  0
M  END
$$$$
default_name
  -OEChem-02102213163D

 29 29  0     1  0  0  0  0  0999 V2000
   -2.9561   -3.9186    1.3887 H   0  0  0  0  0  0  0  0  0  0  0  0
   -3.1191   -2.9346    0.9517 C   0  0  0  0  0  0  0  0  0  0  0  0
   -3.7811   -2.3546    1.5917 H   0  0  0  0  0  0  0  0  0  0  0  0
   -3.5591   -3.0406   -0.0383 H   0  0  0  0  0  0  0  0  0  0  0  0
   -1.7921   -2.2226    0.8327 C   0  0  0  0  0  0  0  0  0  0  0  0
   -0.7611   -2.7766    1.1927 O   0  0  0  0  0  0  0  0  0  0  0  0
   -1.8201   -0.9926    0.3247 N   0  0  0  0  0  0  0  0  0  0  0  0
   -2.7141   -0.5816    0.0927 H   0  0  0  0  0  0  0  0  0  0  0  0
   -0.6481   -0.1156    0.2017 C   0  0  1  0  0  0  0  0  0  0  0  0
    0.1042   -0.6345   -0.3958 H   0  0  0  0  0  0  0  0  0  0  0  0
   -1.0420    1.1781   -0.5372 C   0  0  0  0  0  0  0  0  0  0  0  0
   -1.6463    0.9342   -1.4122 H   0  0  0  0  0  0  0  0  0  0  0  0
   -1.6491    1.8061    0.1162 H   0  0  0  0  0  0  0  0  0  0  0  0
    0.1522    1.9639   -1.0216 C   0  0  0  0  0  0  0  0  0  0  0  0
    1.3049    2.2370   -0.2840 N   0  0  0  0  0  0  0  0  0  0  0  0
    2.1190    2.9128   -1.1079 C   0  0  0  0  0  0  0  0  0  0  0  0
    3.0981    3.2843   -0.8328 H   0  0  0  0  0  0  0  0  0  0  0  0
    1.5516    3.0526   -2.3178 N   0  0  0  0  0  0  0  0  0  0  0  0
    1.9751    3.5078   -3.1149 H   0  0  0  0  0  0  0  0  0  0  0  0
    0.3107    2.4563   -2.2840 C   0  0  0  0  0  0  0  0  0  0  0  0
   -0.4022    2.3668   -3.0940 H   0  0  0  0  0  0  0  0  0  0  0  0
   -0.0283    0.1609    1.5831 C   0  0  0  0  0  0  0  0  0  0  0  0
    1.1923    0.1056    1.7329 O   0  0  0  0  0  0  0  0  0  0  0  0
   -0.8586    0.4659    2.5853 N   0  0  0  0  0  0  0  0  0  0  0  0
   -1.8521    0.3848    2.4000 H   0  0  0  0  0  0  0  0  0  0  0  0
   -0.4403    0.7694    3.9518 C   0  0  0  0  0  0  0  0  0  0  0  0
    0.5066    1.3154    3.9421 H   0  0  0  0  0  0  0  0  0  0  0  0
   -1.1988    1.3789    4.4452 H   0  0  0  0  0  0  0  0  0  0  0  0
   -0.3053   -0.1600    4.5075 H   0  0  0  0  0  0  0  0  0  0  0  0
  5  6  2  0  0  0  0
  5  7  1  0  0  0  0
  2  3  1  0  0  0  0
  2  4  1  0  0  0  0
  2  5  1  0  0  0  0
  1  2  1  0  0  0  0
 22 23  2  0  0  0  0
 22 24  1  0  0  0  0
 20 21  1  0  0  0  0
 18 19  1  0  0  0  0
 18 20  1  0  0  0  0
 16 17  1  0  0  0  0
 16 18  1  0  0  0  0
 15 16  2  0  0  0  0
 14 15  1  0  0  0  0
 14 20  2  0  0  0  0
 11 12  1  0  0  0  0
 11 13  1  0  0  0  0
 11 14  1  0  0  0  0
  9 10  1  0  0  0  0
  9 11  1  0  0  0  0
  9 22  1  0  0  0  0
  7  8  1  0  0  0  0
  7  9  1  0  0  0  0
 26 27  1  0  0  0  0
 26 28  1  0  0  0  0
 26 29  1  0  0  0  0
 24 25  1  0  0  0  0
 24 26  1  0  0  0  0
M  END
$$$$
default_name
  -OEChem-02102213163D

 29 29  0     1  0  0  0  0  0999 V2000
   -2.9561   -3.9186    1.3887 H   0  0  0  0  0  0  0  0  0  0  0  0
   -3.1191   -2.9346    0.9517 C   0  0  0  0  0  0  0  0  0  0  0  0
   -3.7811   -2.3546    1.5917 H   0  0  0  0  0  0  0  0  0  0  0  0
   -3.5591   -3.0406   -0.0383 H   0  0  0  0  0  0  0  0  0  0  0  0
   -1.7921   -2.2226    0.8327 C   0  0  0  0  0  0  0  0  0  0  0  0
   -0.7611   -2.7766    1.1927 O   0  0  0  0  0  0  0  0  0  0  0  0
   -1.8201   -0.9926    0.3247 N   0  0  0  0  0  0  0  0  0  0  0  0
   -2.7141   -0.5816    0.0927 H   0  0  0  0  0  0  0  0  0  0  0  0
   -0.6481   -0.1156    0.2017 C   0  0  1  0  0  0  0  0  0  0  0  0
    0.1042   -0.6345   -0.3958 H   0  0  0  0  0  0  0  0  0  0  0  0
   -1.0420    1.1781   -0.5372 C   0  0  0  0  0  0  0  0  0  0  0  0
   -1.6463    0.9342   -1.4122 H   0  0  0  0  0  0  0  0  0  0  0  0
   -1.6491    1.8061    0.1162 H   0  0  0  0  0  0  0  0  0  0  0  0
    0.1522    1.9639   -1.0216 C   0  0  0  0  0  0  0  0  0  0  0  0
    1.4097    1.9954   -0.4175 N   0  0  0  0  0  0  0  0  0  0  0  0
    2.1752    2.7716   -1.1984 C   0  0  0  0  0  0  0  0  0  0  0  0
    3.2126    3.0084   -0.9982 H   0  0  0  0  0  0  0  0  0  0  0  0
    1.4760    3.2018   -2.2621 N   0  0  0  0  0  0  0  0  0  0  0  0
    1.8378    3.7842   -3.0049 H   0  0  0  0  0  0  0  0  0  0  0  0
    0.1973    2.6988   -2.1701 C   0  0  0  0  0  0  0  0  0  0  0  0
   -0.6173    2.8313   -2.8710 H   0  0  0  0  0  0  0  0  0  0  0  0
   -0.0283    0.1609    1.5831 C   0  0  0  0  0  0  0  0  0  0  0  0
    1.1923    0.1056    1.7329 O   0  0  0  0  0  0  0  0  0  0  0  0
   -0.8586    0.4659    2.5853 N   0  0  0  0  0  0  0  0  0  0  0  0
   -1.8521    0.3848    2.4000 H   0  0  0  0  0  0  0  0  0  0  0  0
   -0.4403    0.7694    3.9518 C   0  0  0  0  0  0  0  0  0  0  0  0
    0.5066    1.3154    3.9421 H   0  0  0  0  0  0  0  0  0  0  0  0
   -1.1988    1.3789    4.4452 H   0  0  0  0  0  0  0  0  0  0  0  0
   -0.3053   -0.1600    4.5075 H   0  0  0  0  0  0  0  0  0  0  0  0
  5  6  2  0  0  0  0
  5  7  1  0  0  0  0
  2  3  1  0  0  0  0
  2  4  1  0  0  0  0
  2  5  1  0  0  0  0
  1  2  1  0  0  0  0
 22 23  2  0  0  0  0
 22 24  1  0  0  0  0
 20 21  1  0  0  0  0
 18 19  1  0  0  0  0
 18 20  1  0  0  0  0
 16 17  1  0  0  0  0
 16 18  1  0  0  0  0
 15 16  2  0  0  0  0
 14 15  1  0  0  0  0
 14 20  2  0  0  0  0
 11 12  1  0  0  0  0
 11 13  1  0  0  0  0
 11 14  1  0  0  0  0
  9 10  1  0  0  0  0
  9 11  1  0  0  0  0
  9 22  1  0  0  0  0
  7  8  1  0  0  0  0
  7  9  1  0  0  0  0
 26 27  1  0  0  0  0
 26 28  1  0  0  0  0
 26 29  1  0  0  0  0
 24 25  1  0  0  0  0
 24 26  1  0  0  0  0
M  END
$$$$
default_name
  -OEChem-02102213163D

 29 29  0     1  0  0  0  0  0999 V2000
   -2.9561   -3.9186    1.3887 H   0  0  0  0  0  0  0  0  0  0  0  0
   -3.1191   -2.9346    0.9517 C   0  0  0  0  0  0  0  0  0  0  0  0
   -3.7811   -2.3546    1.5917 H   0  0  0  0  0  0  0  0  0  0  0  0
   -3.5591   -3.0406   -0.0383 H   0  0  0  0  0  0  0  0  0  0  0  0
   -1.7921   -2.2226    0.8327 C   0  0  0  0  0  0  0  0  0  0  0  0
   -0.7611   -2.7766    1.1927 O   0  0  0  0  0  0  0  0  0  0  0  0
   -1.8201   -0.9926    0.3247 N   0  0  0  0  0  0  0  0  0  0  0  0
   -2.7141   -0.5816    0.0927 H   0  0  0  0  0  0  0  0  0  0  0  0
   -0.6481   -0.1156    0.2017 C   0  0  1  0  0  0  0  0  0  0  0  0
    0.1042   -0.6345   -0.3958 H   0  0  0  0  0  0  0  0  0  0  0  0
   -1.0420    1.1781   -0.5372 C   0  0  0  0  0  0  0  0  0  0  0  0
   -1.6463    0.9342   -1.4122 H   0  0  0  0  0  0  0  0  0  0  0  0
   -1.6491    1.8061    0.1162 H   0  0  0  0  0  0  0  0  0  0  0  0
    0.1522    1.9639   -1.0216 C   0  0  0  0  0  0  0  0  0  0  0  0
    1.4729    1.7807   -0.6100 N   0  0  0  0  0  0  0  0  0  0  0  0
    2.2056    2.6491   -1.3223 C   0  0  0  0  0  0  0  0  0  0  0  0
    3.2779    2.7663   -1.2298 H   0  0  0  0  0  0  0  0  0  0  0  0
    1.4229    3.3408   -2.1676 N   0  0  0  0  0  0  0  0  0  0  0  0
    1.7430    4.0401   -2.8236 H   0  0  0  0  0  0  0  0  0  0  0  0
    0.1233    2.9192   -1.9952 C   0  0  0  0  0  0  0  0  0  0  0  0
   -0.7565    3.2521   -2.5314 H   0  0  0  0  0  0  0  0  0  0  0  0
   -0.0283    0.1609    1.5831 C   0  0  0  0  0  0  0  0  0  0  0  0
    1.1923    0.1056    1.7329 O   0  0  0  0  0  0  0  0  0  0  0  0
   -0.8586    0.4659    2.5853 N   0  0  0  0  0  0  0  0  0  0  0  0
   -1.8521    0.3848    2.4000 H   0  0  0  0  0  0  0  0  0  0  0  0
   -0.4403    0.7694    3.9518 C   0  0  0  0  0  0  0  0  0  0  0  0
    0.5066    1.3154    3.9421 H   0  0  0  0  0  0  0  0  0  0  0  0
   -1.1988    1.3789    4.4452 H   0  0  0  0  0  0  0  0  0  0  0  0
   -0.3053   -0.1600    4.5075 H   0  0  0  0  0  0  0  0  0  0  0  0
  5  6  2  0  0  0  0
  5  7  1  0  0  0  0
  2  3  1  0  0  0  0
  2  4  1  0  0  0  0
  2  5  1  0  0  0  0
  1  2  1  0  0  0  0
 22 23  2  0  0  0  0
 22 24  1  0  0  0  0
 20 21  1  0  0  0  0
 18 19  1  0  0  0  0
 18 20  1  0  0  0  0
 16 17  1  0  0  0  0
 16 18  1  0  0  0  0
 15 16  2  0  0  0  0
 14 15  1  0  0  0  0
 14 20  2  0  0  0  0
 11 12  1  0  0  0  0
 11 13  1  0  0  0  0
 11 14  1  0  0  0  0
  9 10  1  0  0  0  0
  9 11  1  0  0  0  0
  9 22  1  0  0  0  0
  7  8  1  0  0  0  0
  7  9  1  0  0  0  0
 26 27  1  0  0  0  0
 26 28  1  0  0  0  0
 26 29  1  0  0  0  0
 24 25  1  0  0  0  0
 24 26  1  0  0  0  0
M  END
$$$$
default_name
  -OEChem-02102213163D

 29 29  0     1  0  0  0  0  0999 V2000
   -2.9561   -3.9186    1.3887 H   0  0  0  0  0  0  0  0  0  0  0  0
   -3.1191   -2.9346    0.9517 C   0  0  0  0  0  0  0  0  0  0  0  0
   -3.7811   -2.3546    1.5917 H   0  0  0  0  0  0  0  0  0  0  0  0
   -3.5591   -3.0406   -0.0383 H   0  0  0  0  0  0  0  0  0  0  0  0
   -1.7921   -2.2226    0.8327 C   0  0  0  0  0  0  0  0  0  0  0  0
   -0.7611   -2.7766    1.1927 O   0  0  0  0  0  0  0  0  0  0  0  0
   -1.8201   -0.9926    0.3247 N   0  0  0  0  0  0  0  0  0  0  0  0
   -2.7141   -0.5816    0.0927 H   0  0  0  0  0  0  0  0  0  0  0  0
   -0.6481   -0.1156    0.2017 C   0  0  1  0  0  0  0  0  0  0  0  0
    0.1042   -0.6345   -0.3958 H   0  0  0  0  0  0  0  0  0  0  0  0
   -1.0420    1.1781   -0.5372 C   0  0  0  0  0  0  0  0  0  0  0  0
   -1.6463    0.9342   -1.4122 H   0  0  0  0  0  0  0  0  0  0  0  0
   -1.6491    1.8061    0.1162 H   0  0  0  0  0  0  0  0  0  0  0  0
    0.1522    1.9639   -1.0216 C   0  0  0  0  0  0  0  0  0  0  0  0
    1.4902    1.6074   -0.8485 N   0  0  0  0  0  0  0  0  0  0  0  0
    2.2080    2.5537   -1.4712 C   0  0  0  0  0  0  0  0  0  0  0  0
    3.2897    2.5744   -1.5119 H   0  0  0  0  0  0  0  0  0  0  0  0
    1.3959    3.4600   -2.0407 N   0  0  0  0  0  0  0  0  0  0  0  0
    1.6971    4.2580   -2.5833 H   0  0  0  0  0  0  0  0  0  0  0  0
    0.0936    3.1023   -1.7711 C   0  0  0  0  0  0  0  0  0  0  0  0
   -0.8102    3.6006   -2.0985 H   0  0  0  0  0  0  0  0  0  0  0  0
   -0.0283    0.1609    1.5831 C   0  0  0  0  0  0  0  0  0  0  0  0
    1.1923    0.1056    1.7329 O   0  0  0  0  0  0  0  0  0  0  0  0
   -0.8586    0.4659    2.5853 N   0  0  0  0  0  0  0  0  0  0  0  0
   -1.8521    0.3848    2.4000 H   0  0  0  0  0  0  0  0  0  0  0  0
   -0.4403    0.7694    3.9518 C   0  0  0  0  0  0  0  0  0  0  0  0
    0.5066    1.3154    3.9421 H   0  0  0  0  0  0  0  0  0  0  0  0
   -1.1988    1.3789    4.4452 H   0  0  0  0  0  0  0  0  0  0  0  0
   -0.3053   -0.1600    4.5075 H   0  0  0  0  0  0  0  0  0  0  0  0
  5  6  2  0  0  0  0
  5  7  1  0  0  0  0
  2  3  1  0  0  0  0
  2  4  1  0  0  0  0
  2  5  1  0  0  0  0
  1  2  1  0  0  0  0
 22 23  2  0  0  0  0
 22 24  1  0  0  0  0
 20 21  1  0  0  0  0
 18 19  1  0  0  0  0
 18 20  1  0  0  0  0
 16 17  1  0  0  0  0
 16 18  1  0  0  0  0
 15 16  2  0  0  0  0
 14 15  1  0  0  0  0
 14 20  2  0  0  0  0
 11 12  1  0  0  0  0
 11 13  1  0  0  0  0
 11 14  1  0  0  0  0
  9 10  1  0  0  0  0
  9 11  1  0  0  0  0
  9 22  1  0  0  0  0
  7  8  1  0  0  0  0
  7  9  1  0  0  0  0
 26 27  1  0  0  0  0
 26 28  1  0  0  0  0
 26 29  1  0  0  0  0
 24 25  1  0  0  0  0
 24 26  1  0  0  0  0
M  END
$$$$
default_name
  -OEChem-02102213163D

 29 29  0     1  0  0  0  0  0999 V2000
   -2.9561   -3.9186    1.3887 H   0  0  0  0  0  0  0  0  0  0  0  0
   -3.1191   -2.9346    0.9517 C   0  0  0  0  0  0  0  0  0  0  0  0
   -3.7811   -2.3546    1.5917 H   0  0  0  0  0  0  0  0  0  0  0  0
   -3.5591   -3.0406   -0.0383 H   0  0  0  0  0  0  0  0  0  0  0  0
   -1.7921   -2.2226    0.8327 C   0  0  0  0  0  0  0  0  0  0  0  0
   -0.7611   -2.7766    1.1927 O   0  0  0  0  0  0  0  0  0  0  0  0
   -1.8201   -0.9926    0.3247 N   0  0  0  0  0  0  0  0  0  0  0  0
   -2.7141   -0.5816    0.0927 H   0  0  0  0  0  0  0  0  0  0  0  0
   -0.6481   -0.1156    0.2017 C   0  0  1  0  0  0  0  0  0  0  0  0
    0.1042   -0.6345   -0.3958 H   0  0  0  0  0  0  0  0  0  0  0  0
   -1.0420    1.1781   -0.5372 C   0  0  0  0  0  0  0  0  0  0  0  0
   -1.6463    0.9342   -1.4122 H   0  0  0  0  0  0  0  0  0  0  0  0
   -1.6491    1.8061    0.1162 H   0  0  0  0  0  0  0  0  0  0  0  0
    0.1522    1.9639   -1.0216 C   0  0  0  0  0  0  0  0  0  0  0  0
    1.4604    1.4875   -1.1166 N   0  0  0  0  0  0  0  0  0  0  0  0
    2.1824    2.4917   -1.6348 C   0  0  0  0  0  0  0  0  0  0  0  0
    3.2472    2.4459   -1.8253 H   0  0  0  0  0  0  0  0  0  0  0  0
    1.3969    3.5515   -1.8900 N   0  0  0  0  0  0  0  0  0  0  0  0
    1.7032    4.4230   -2.3004 H   0  0  0  0  0  0  0  0  0  0  0  0
    0.1104    3.2359   -1.5131 C   0  0  0  0  0  0  0  0  0  0  0  0
   -0.7748    3.8530   -1.6018 H   0  0  0  0  0  0  0  0  0  0  0  0
   -0.0283    0.1609    1.5831 C   0  0  0  0  0  0  0  0  0  0  0  0
    1.1923    0.1056    1.7329 O   0  0  0  0  0  0  0  0  0  0  0  0
   -0.8586    0.4659    2.5853 N   0  0  0  0  0  0  0  0  0  0  0  0
   -1.8521    0.3848    2.4000 H   0  0  0  0  0  0  0  0  0  0  0  0
   -0.4403    0.7694    3.9518 C   0  0  0  0  0  0  0  0  0  0  0  0
    0.5066    1.3154    3.9421 H   0  0  0  0  0  0  0  0  0  0  0  0
   -1.1988    1.3789    4.4452 H   0  0  0  0  0  0  0  0  0  0  0  0
   -0.3053   -0.1600    4.5075 H   0  0  0  0  0  0  0  0  0  0  0  0
  5  6  2  0  0  0  0
  5  7  1  0  0  0  0
  2  3  1  0  0  0  0
  2  4  1  0  0  0  0
  2  5  1  0  0  0  0
  1  2  1  0  0  0  0
 22 23  2  0  0  0  0
 22 24  1  0  0  0  0
 20 21  1  0  0  0  0
 18 19  1  0  0  0  0
 18 20  1  0  0  0  0
 16 17  1  0  0  0  0
 16 18  1  0  0  0  0
 15 16  2  0  0  0  0
 14 15  1  0  0  0  0
 14 20  2  0  0  0  0
 11 12  1  0  0  0  0
 11 13  1  0  0  0  0
 11 14  1  0  0  0  0
  9 10  1  0  0  0  0
  9 11  1  0  0  0  0
  9 22  1  0  0  0  0
  7  8  1  0  0  0  0
  7  9  1  0  0  0  0
 26 27  1  0  0  0  0
 26 28  1  0  0  0  0
 26 29  1  0  0  0  0
 24 25  1  0  0  0  0
 24 26  1  0  0  0  0
M  END
$$$$
default_name
  -OEChem-02102213163D

 29 29  0     1  0  0  0  0  0999 V2000
   -2.9561   -3.9186    1.3887 H   0  0  0  0  0  0  0  0  0  0  0  0
   -3.1191   -2.9346    0.9517 C   0  0  0  0  0  0  0  0  0  0  0  0
   -3.7811   -2.3546    1.5917 H   0  0  0  0  0  0  0  0  0  0  0  0
   -3.5591   -3.0406   -0.0383 H   0  0  0  0  0  0  0  0  0  0  0  0
   -1.7921   -2.2226    0.8327 C   0  0  0  0  0  0  0  0  0  0  0  0
   -0.7611   -2.7766    1.1927 O   0  0  0  0  0  0  0  0  0  0  0  0
   -1.8201   -0.9926    0.3247 N   0  0  0  0  0  0  0  0  0  0  0  0
   -2.7141   -0.5816    0.0927 H   0  0  0  0  0  0  0  0  0  0  0  0
   -0.6481   -0.1156    0.2017 C   0  0  1  0  0  0  0  0  0  0  0  0
    0.1042   -0.6345   -0.3958 H   0  0  0  0  0  0  0  0  0  0  0  0
   -1.0420    1.1781   -0.5372 C   0  0  0  0  0  0  0  0  0  0  0  0
   -1.6463    0.9342   -1.4122 H   0  0  0  0  0  0  0  0  0  0  0  0
   -1.6491    1.8061    0.1162 H   0  0  0  0  0  0  0  0  0  0  0  0
    0.1522    1.9639   -1.0216 C   0  0  0  0  0  0  0  0  0  0  0  0
    1.3855    1.4290   -1.3961 N   0  0  0  0  0  0  0  0  0  0  0  0
    2.1304    2.4676   -1.8021 C   0  0  0  0  0  0  0  0  0  0  0  0
    3.1532    2.3895   -2.1485 H   0  0  0  0  0  0  0  0  0  0  0  0
    1.4256    3.6089   -1.7259 N   0  0  0  0  0  0  0  0  0  0  0  0
    1.7610    4.5241   -1.9942 H   0  0  0  0  0  0  0  0  0  0  0  0
    0.1725    3.3106   -1.2389 C   0  0  0  0  0  0  0  0  0  0  0  0
   -0.6527    3.9922   -1.0750 H   0  0  0  0  0  0  0  0  0  0  0  0
   -0.0283    0.1609    1.5831 C   0  0  0  0  0  0  0  0  0  0  0  0
    1.1923    0.1056    1.7329 O   0  0  0  0  0  0  0  0  0  0  0  0
   -0.8586    0.4659    2.5853 N   0  0  0  0  0  0  0  0  0  0  0  0
   -1.8521    0.3848    2.4000 H   0  0  0  0  0  0  0  0  0  0  0  0
   -0.4403    0.7694    3.9518 C   0  0  0  0  0  0  0  0  0  0  0  0
    0.5066    1.3154    3.9421 H   0  0  0  0  0  0  0  0  0  0  0  0
   -1.1988    1.3789    4.4452 H   0  0  0  0  0  0  0  0  0  0  0  0
   -0.3053   -0.1600    4.5075 H   0  0  0  0  0  0  0  0  0  0  0  0
  5  6  2  0  0  0  0
  5  7  1  0  0  0  0
  2  3  1  0  0  0  0
  2  4  1  0  0  0  0
  2  5  1  0  0  0  0
  1  2  1  0  0  0  0
 22 23  2  0  0  0  0
 22 24  1  0  0  0  0
 20 21  1  0  0  0  0
 18 19  1  0  0  0  0
 18 20  1  0  0  0  0
 16 17  1  0  0  0  0
 16 18  1  0  0  0  0
 15 16  2  0  0  0  0
 14 15  1  0  0  0  0
 14 20  2  0  0  0  0
 11 12  1  0  0  0  0
 11 13  1  0  0  0  0
 11 14  1  0  0  0  0
  9 10  1  0  0  0  0
  9 11  1  0  0  0  0
  9 22  1  0  0  0  0
  7  8  1  0  0  0  0
  7  9  1  0  0  0  0
 26 27  1  0  0  0  0
 26 28  1  0  0  0  0
 26 29  1  0  0  0  0
 24 25  1  0  0  0  0
 24 26  1  0  0  0  0
M  END
$$$$
default_name
  -OEChem-02102213163D

 29 29  0     1  0  0  0  0  0999 V2000
   -2.9561   -3.9186    1.3887 H   0  0  0  0  0  0  0  0  0  0  0  0
   -3.1191   -2.9346    0.9517 C   0  0  0  0  0  0  0  0  0  0  0  0
   -3.7811   -2.3546    1.5917 H   0  0  0  0  0  0  0  0  0  0  0  0
   -3.5591   -3.0406   -0.0383 H   0  0  0  0  0  0  0  0  0  0  0  0
   -1.7921   -2.2226    0.8327 C   0  0  0  0  0  0  0  0  0  0  0  0
   -0.7611   -2.7766    1.1927 O   0  0  0  0  0  0  0  0  0  0  0  0
   -1.8201   -0.9926    0.3247 N   0  0  0  0  0  0  0  0  0  0  0  0
   -2.7141   -0.5816    0.0927 H   0  0  0  0  0  0  0  0  0  0  0  0
   -0.6481   -0.1156    0.2017 C   0  0  1  0  0  0  0  0  0  0  0  0
    0.1042   -0.6345   -0.3958 H   0  0  0  0  0  0  0  0  0  0  0  0
   -1.0420    1.1781   -0.5372 C   0  0  0  0  0  0  0  0  0  0  0  0
   -1.6463    0.9342   -1.4122 H   0  0  0  0  0  0  0  0  0  0  0  0
   -1.6491    1.8061    0.1162 H   0  0  0  0  0  0  0  0  0  0  0  0
    0.1522    1.9639   -1.0216 C   0  0  0  0  0  0  0  0  0  0  0  0
    1.2706    1.4360   -1.6680 N   0  0  0  0  0  0  0  0  0  0  0  0
    2.0557    2.4828   -1.9616 C   0  0  0  0  0  0  0  0  0  0  0  0
    3.0142    2.4089   -2.4597 H   0  0  0  0  0  0  0  0  0  0  0  0
    1.4803    3.6284   -1.5595 N   0  0  0  0  0  0  0  0  0  0  0  0
    1.8664    4.5541   -1.6855 H   0  0  0  0  0  0  0  0  0  0  0  0
    0.2756    3.3215   -0.9671 C   0  0  0  0  0  0  0  0  0  0  0  0
   -0.4523    4.0086   -0.5542 H   0  0  0  0  0  0  0  0  0  0  0  0
   -0.0283    0.1609    1.5831 C   0  0  0  0  0  0  0  0  0  0  0  0
    1.1923    0.1056    1.7329 O   0  0  0  0  0  0  0  0  0  0  0  0
   -0.8586    0.4659    2.5853 N   0  0  0  0  0  0  0  0  0  0  0  0
   -1.8521    0.3848    2.4000 H   0  0  0  0  0  0  0  0  0  0  0  0
   -0.4403    0.7694    3.9518 C   0  0  0  0  0  0  0  0  0  0  0  0
    0.5066    1.3154    3.9421 H   0  0  0  0  0  0  0  0  0  0  0  0
   -1.1988    1.3789    4.4452 H   0  0  0  0  0  0  0  0  0  0  0  0
   -0.3053   -0.1600    4.5075 H   0  0  0  0  0  0  0  0  0  0  0  0
  5  6  2  0  0  0  0
  5  7  1  0  0  0  0
  2  3  1  0  0  0  0
  2  4  1  0  0  0  0
  2  5  1  0  0  0  0
  1  2  1  0  0  0  0
 22 23  2  0  0  0  0
 22 24  1  0  0  0  0
 20 21  1  0  0  0  0
 18 19  1  0  0  0  0
 18 20  1  0  0  0  0
 16 17  1  0  0  0  0
 16 18  1  0  0  0  0
 15 16  2  0  0  0  0
 14 15  1  0  0  0  0
 14 20  2  0  0  0  0
 11 12  1  0  0  0  0
 11 13  1  0  0  0  0
 11 14  1  0  0  0  0
  9 10  1  0  0  0  0
  9 11  1  0  0  0  0
  9 22  1  0  0  0  0
  7  8  1  0  0  0  0
  7  9  1  0  0  0  0
 26 27  1  0  0  0  0
 26 28  1  0  0  0  0
 26 29  1  0  0  0  0
 24 25  1  0  0  0  0
 24 26  1  0  0  0  0
M  END
$$$$
default_name
  -OEChem-02102213163D

 29 29  0     1  0  0  0  0  0999 V2000
   -2.9561   -3.9186    1.3887 H   0  0  0  0  0  0  0  0  0  0  0  0
   -3.1191   -2.9346    0.9517 C   0  0  0  0  0  0  0  0  0  0  0  0
   -3.7811   -2.3546    1.5917 H   0  0  0  0  0  0  0  0  0  0  0  0
   -3.5591   -3.0406   -0.0383 H   0  0  0  0  0  0  0  0  0  0  0  0
   -1.7921   -2.2226    0.8327 C   0  0  0  0  0  0  0  0  0  0  0  0
   -0.7611   -2.7766    1.1927 O   0  0  0  0  0  0  0  0  0  0  0  0
   -1.8201   -0.9926    0.3247 N   0  0  0  0  0  0  0  0  0  0  0  0
   -2.7141   -0.5816    0.0927 H   0  0  0  0  0  0  0  0  0  0  0  0
   -0.6481   -0.1156    0.2017 C   0  0  1  0  0  0  0  0  0  0  0  0
    0.1042   -0.6345   -0.3958 H   0  0  0  0  0  0  0  0  0  0  0  0
   -1.0420    1.1781   -0.5372 C   0  0  0  0  0  0  0  0  0  0  0  0
   -1.6463    0.9342   -1.4122 H   0  0  0  0  0  0  0  0  0  0  0  0
   -1.6491    1.8061    0.1162 H   0  0  0  0  0  0  0  0  0  0  0  0
    0.1522    1.9639   -1.0216 C   0  0  0  0  0  0  0  0  0  0  0  0
    1.1236    1.5080   -1.9137 N   0  0  0  0  0  0  0  0  0  0  0  0
    1.9633    2.5364   -2.1026 C   0  0  0  0  0  0  0  0  0  0  0  0
    2.8396    2.5030   -2.7376 H   0  0  0  0  0  0  0  0  0  0  0  0
    1.5572    3.6086   -1.4021 N   0  0  0  0  0  0  0  0  0  0  0  0
    2.0123    4.5112   -1.3953 H   0  0  0  0  0  0  0  0  0  0  0  0
    0.4127    3.2678   -0.7162 C   0  0  0  0  0  0  0  0  0  0  0  0
   -0.1871    3.9012   -0.0747 H   0  0  0  0  0  0  0  0  0  0  0  0
   -0.0283    0.1609    1.5831 C   0  0  0  0  0  0  0  0  0  0  0  0
    1.1923    0.1056    1.7329 O   0  0  0  0  0  0  0  0  0  0  0  0
   -0.8586    0.4659    2.5853 N   0  0  0  0  0  0  0  0  0  0  0  0
   -1.8521    0.3848    2.4000 H   0  0  0  0  0  0  0  0  0  0  0  0
   -0.4403    0.7694    3.9518 C   0  0  0  0  0  0  0  0  0  0  0  0
    0.5066    1.3154    3.9421 H   0  0  0  0  0  0  0  0  0  0  0  0
   -1.1988    1.3789    4.4452 H   0  0  0  0  0  0  0  0  0  0  0  0
   -0.3053   -0.1600    4.5075 H   0  0  0  0  0  0  0  0  0  0  0  0
  5  6  2  0  0  0  0
  5  7  1  0  0  0  0
  2  3  1  0  0  0  0
  2  4  1  0  0  0  0
  2  5  1  0  0  0  0
  1  2  1  0  0  0  0
 22 23  2  0  0  0  0
 22 24  1  0  0  0  0
 20 21  1  0  0  0  0
 18 19  1  0  0  0  0
 18 20  1  0  0  0  0
 16 17  1  0  0  0  0
 16 18  1  0  0  0  0
 15 16  2  0  0  0  0
 14 15  1  0  0  0  0
 14 20  2  0  0  0  0
 11 12  1  0  0  0  0
 11 13  1  0  0  0  0
 11 14  1  0  0  0  0
  9 10  1  0  0  0  0
  9 11  1  0  0  0  0
  9 22  1  0  0  0  0
  7  8  1  0  0  0  0
  7  9  1  0  0  0  0
 26 27  1  0  0  0  0
 26 28  1  0  0  0  0
 26 29  1  0  0  0  0
 24 25  1  0  0  0  0
 24 26  1  0  0  0  0
M  END
$$$$
default_name
  -OEChem-02102213163D

 29 29  0     1  0  0  0  0  0999 V2000
   -2.9561   -3.9186    1.3887 H   0  0  0  0  0  0  0  0  0  0  0  0
   -3.1191   -2.9346    0.9517 C   0  0  0  0  0  0  0  0  0  0  0  0
   -3.7811   -2.3546    1.5917 H   0  0  0  0  0  0  0  0  0  0  0  0
   -3.5591   -3.0406   -0.0383 H   0  0  0  0  0  0  0  0  0  0  0  0
   -1.7921   -2.2226    0.8327 C   0  0  0  0  0  0  0  0  0  0  0  0
   -0.7611   -2.7766    1.1927 O   0  0  0  0  0  0  0  0  0  0  0  0
   -1.8201   -0.9926    0.3247 N   0  0  0  0  0  0  0  0  0  0  0  0
   -2.7141   -0.5816    0.0927 H   0  0  0  0  0  0  0  0  0  0  0  0
   -0.6481   -0.1156    0.2017 C   0  0  1  0  0  0  0  0  0  0  0  0
    0.1042   -0.6345   -0.3958 H   0  0  0  0  0  0  0  0  0  0  0  0
   -1.0420    1.1781   -0.5372 C   0  0  0  0  0  0  0  0  0  0  0  0
   -1.6463    0.9342   -1.4122 H   0  0  0  0  0  0  0  0  0  0  0  0
   -1.6491    1.8061    0.1162 H   0  0  0  0  0  0  0  0  0  0  0  0
    0.1522    1.9639   -1.0216 C   0  0  0  0  0  0  0  0  0  0  0  0
    0.9544    1.6400   -2.1165 N   0  0  0  0  0  0  0  0  0  0  0  0
    1.8595    2.6246   -2.2153 C   0  0  0  0  0  0  0  0  0  0  0  0
    2.6413    2.6653   -2.9631 H   0  0  0  0  0  0  0  0  0  0  0  0
    1.6510    3.5509   -1.2645 N   0  0  0  0  0  0  0  0  0  0  0  0
    2.1888    4.3982   -1.1435 H   0  0  0  0  0  0  0  0  0  0  0  0
    0.5745    3.1531   -0.5033 C   0  0  0  0  0  0  0  0  0  0  0  0
    0.1247    3.6772    0.3306 H   0  0  0  0  0  0  0  0  0  0  0  0
   -0.0283    0.1609    1.5831 C   0  0  0  0  0  0  0  0  0  0  0  0
    1.1923    0.1056    1.7329 O   0  0  0  0  0  0  0  0  0  0  0  0
   -0.8586    0.4659    2.5853 N   0  0  0  0  0  0  0  0  0  0  0  0
   -1.8521    0.3848    2.4000 H   0  0  0  0  0  0  0  0  0  0  0  0
   -0.4403    0.7694    3.9518 C   0  0  0  0  0  0  0  0  0  0  0  0
    0.5066    1.3154    3.9421 H   0  0  0  0  0  0  0  0  0  0  0  0
   -1.1988    1.3789    4.4452 H   0  0  0  0  0  0  0  0  0  0  0  0
   -0.3053   -0.1600    4.5075 H   0  0  0  0  0  0  0  0  0  0  0  0
  5  6  2  0  0  0  0
  5  7  1  0  0  0  0
  2  3  1  0  0  0  0
  2  4  1  0  0  0  0
  2  5  1  0  0  0  0
  1  2  1  0  0  0  0
 22 23  2  0  0  0  0
 22 24  1  0  0  0  0
 20 21  1  0  0  0  0
 18 19  1  0  0  0  0
 18 20  1  0  0  0  0
 16 17  1  0  0  0  0
 16 18  1  0  0  0  0
 15 16  2  0  0  0  0
 14 15  1  0  0  0  0
 14 20  2  0  0  0  0
 11 12  1  0  0  0  0
 11 13  1  0  0  0  0
 11 14  1  0  0  0  0
  9 10  1  0  0  0  0
  9 11  1  0  0  0  0
  9 22  1  0  0  0  0
  7  8  1  0  0  0  0
  7  9  1  0  0  0  0
 26 27  1  0  0  0  0
 26 28  1  0  0  0  0
 26 29  1  0  0  0  0
 24 25  1  0  0  0  0
 24 26  1  0  0  0  0
M  END
$$$$
default_name
  -OEChem-02102213163D

 29 29  0     1  0  0  0  0  0999 V2000
   -2.9561   -3.9186    1.3887 H   0  0  0  0  0  0  0  0  0  0  0  0
   -3.1191   -2.9346    0.9517 C   0  0  0  0  0  0  0  0  0  0  0  0
   -3.7811   -2.3546    1.5917 H   0  0  0  0  0  0  0  0  0  0  0  0
   -3.5591   -3.0406   -0.0383 H   0  0  0  0  0  0  0  0  0  0  0  0
   -1.7921   -2.2226    0.8327 C   0  0  0  0  0  0  0  0  0  0  0  0
   -0.7611   -2.7766    1.1927 O   0  0  0  0  0  0  0  0  0  0  0  0
   -1.8201   -0.9926    0.3247 N   0  0  0  0  0  0  0  0  0  0  0  0
   -2.7141   -0.5816    0.0927 H   0  0  0  0  0  0  0  0  0  0  0  0
   -0.6481   -0.1156    0.2017 C   0  0  1  0  0  0  0  0  0  0  0  0
    0.1042   -0.6345   -0.3958 H   0  0  0  0  0  0  0  0  0  0  0  0
   -1.0420    1.1781   -0.5372 C   0  0  0  0  0  0  0  0  0  0  0  0
   -1.6463    0.9342   -1.4122 H   0  0  0  0  0  0  0  0  0  0  0  0
   -1.6491    1.8061    0.1162 H   0  0  0  0  0  0  0  0  0  0  0  0
    0.1522    1.9639   -1.0216 C   0  0  0  0  0  0  0  0  0  0  0  0
    0.7747    1.8231   -2.2626 N   0  0  0  0  0  0  0  0  0  0  0  0
    1.7514    2.7416   -2.2921 C   0  0  0  0  0  0  0  0  0  0  0  0
    2.4329    2.8847   -3.1211 H   0  0  0  0  0  0  0  0  0  0  0  0
    1.7553    3.4591   -1.1561 N   0  0  0  0  0  0  0  0  0  0  0  0
    2.3839    4.2228   -0.9472 H   0  0  0  0  0  0  0  0  0  0  0  0
    0.7499    2.9853   -0.3429 C   0  0  0  0  0  0  0  0  0  0  0  0
    0.4619    3.3519    0.6343 H   0  0  0  0  0  0  0  0  0  0  0  0
   -0.0283    0.1609    1.5831 C   0  0  0  0  0  0  0  0  0  0  0  0
    1.1923    0.1056    1.7329 O   0  0  0  0  0  0  0  0  0  0  0  0
   -0.8586    0.4659    2.5853 N   0  0  0  0  0  0  0  0  0  0  0  0
   -1.8521    0.3848    2.4000 H   0  0  0  0  0  0  0  0  0  0  0  0
   -0.4403    0.7694    3.9518 C   0  0  0  0  0  0  0  0  0  0  0  0
    0.5066    1.3154    3.9421 H   0  0  0  0  0  0  0  0  0  0  0  0
   -1.1988    1.3789    4.4452 H   0  0  0  0  0  0  0  0  0  0  0  0
   -0.3053   -0.1600    4.5075 H   0  0  0  0  0  0  0  0  0  0  0  0
  5  6  2  0  0  0  0
  5  7  1  0  0  0  0
  2  3  1  0  0  0  0
  2  4  1  0  0  0  0
  2  5  1  0  0  0  0
  1  2  1  0  0  0  0
 22 23  2  0  0  0  0
 22 24  1  0  0  0  0
 20 21  1  0  0  0  0
 18 19  1  0  0  0  0
 18 20  1  0  0  0  0
 16 17  1  0  0  0  0
 16 18  1  0  0  0  0
 15 16  2  0  0  0  0
 14 15  1  0  0  0  0
 14 20  2  0  0  0  0
 11 12  1  0  0  0  0
 11 13  1  0  0  0  0
 11 14  1  0  0  0  0
  9 10  1  0  0  0  0
  9 11  1  0  0  0  0
  9 22  1  0  0  0  0
  7  8  1  0  0  0  0
  7  9  1  0  0  0  0
 26 27  1  0  0  0  0
 26 28  1  0  0  0  0
 26 29  1  0  0  0  0
 24 25  1  0  0  0  0
 24 26  1  0  0  0  0
M  END
$$$$
default_name
  -OEChem-02102213163D

 29 29  0     1  0  0  0  0  0999 V2000
   -2.9561   -3.9186    1.3887 H   0  0  0  0  0  0  0  0  0  0  0  0
   -3.1191   -2.9346    0.9517 C   0  0  0  0  0  0  0  0  0  0  0  0
   -3.7811   -2.3546    1.5917 H   0  0  0  0  0  0  0  0  0  0  0  0
   -3.5591   -3.0406   -0.0383 H   0  0  0  0  0  0  0  0  0  0  0  0
   -1.7921   -2.2226    0.8327 C   0  0  0  0  0  0  0  0  0  0  0  0
   -0.7611   -2.7766    1.1927 O   0  0  0  0  0  0  0  0  0  0  0  0
   -1.8201   -0.9926    0.3247 N   0  0  0  0  0  0  0  0  0  0  0  0
   -2.7141   -0.5816    0.0927 H   0  0  0  0  0  0  0  0  0  0  0  0
   -0.6481   -0.1156    0.2017 C   0  0  1  0  0  0  0  0  0  0  0  0
    0.1042   -0.6345   -0.3958 H   0  0  0  0  0  0  0  0  0  0  0  0
   -1.0420    1.1781   -0.5372 C   0  0  0  0  0  0  0  0  0  0  0  0
   -1.6463    0.9342   -1.4122 H   0  0  0  0  0  0  0  0  0  0  0  0
   -1.6491    1.8061    0.1162 H   0  0  0  0  0  0  0  0  0  0  0  0
    0.1522    1.9639   -1.0216 C   0  0  0  0  0  0  0  0  0  0  0  0
    0.5966    2.0449   -2.3419 N   0  0  0  0  0  0  0  0  0  0  0  0
    1.6463    2.8793   -2.3277 C   0  0  0  0  0  0  0  0  0  0  0  0
    2.2285    3.1463   -3.2007 H   0  0  0  0  0  0  0  0  0  0  0  0
    1.8631    3.3396   -1.0842 N   0  0  0  0  0  0  0  0  0  0  0  0
    2.5841    3.9970   -0.8198 H   0  0  0  0  0  0  0  0  0  0  0  0
    0.9270    2.7759   -0.2460 C   0  0  0  0  0  0  0  0  0  0  0  0
    0.8015    2.9475    0.8156 H   0  0  0  0  0  0  0  0  0  0  0  0
   -0.0283    0.1609    1.5831 C   0  0  0  0  0  0  0  0  0  0  0  0
    1.1923    0.1056    1.7329 O   0  0  0  0  0  0  0  0  0  0  0  0
   -0.8586    0.4659    2.5853 N   0  0  0  0  0  0  0  0  0  0  0  0
   -1.8521    0.3848    2.4000 H   0  0  0  0  0  0  0  0  0  0  0  0
   -0.4403    0.7694    3.9518 C   0  0  0  0  0  0  0  0  0  0  0  0
    0.5066    1.3154    3.9421 H   0  0  0  0  0  0  0  0  0  0  0  0
   -1.1988    1.3789    4.4452 H   0  0  0  0  0  0  0  0  0  0  0  0
   -0.3053   -0.1600    4.5075 H   0  0  0  0  0  0  0  0  0  0  0  0
  5  6  2  0  0  0  0
  5  7  1  0  0  0  0
  2  3  1  0  0  0  0
  2  4  1  0  0  0  0
  2  5  1  0  0  0  0
  1  2  1  0  0  0  0
 22 23  2  0  0  0  0
 22 24  1  0  0  0  0
 20 21  1  0  0  0  0
 18 19  1  0  0  0  0
 18 20  1  0  0  0  0
 16 17  1  0  0  0  0
 16 18  1  0  0  0  0
 15 16  2  0  0  0  0
 14 15  1  0  0  0  0
 14 20  2  0  0  0  0
 11 12  1  0  0  0  0
 11 13  1  0  0  0  0
 11 14  1  0  0  0  0
  9 10  1  0  0  0  0
  9 11  1  0  0  0  0
  9 22  1  0  0  0  0
  7  8  1  0  0  0  0
  7  9  1  0  0  0  0
 26 27  1  0  0  0  0
 26 28  1  0  0  0  0
 26 29  1  0  0  0  0
 24 25  1  0  0  0  0
 24 26  1  0  0  0  0
M  END
$$$$
default_name
  -OEChem-02102213163D

 29 29  0     1  0  0  0  0  0999 V2000
   -2.9561   -3.9186    1.3887 H   0  0  0  0  0  0  0  0  0  0  0  0
   -3.1191   -2.9346    0.9517 C   0  0  0  0  0  0  0  0  0  0  0  0
   -3.7811   -2.3546    1.5917 H   0  0  0  0  0  0  0  0  0  0  0  0
   -3.5591   -3.0406   -0.0383 H   0  0  0  0  0  0  0  0  0  0  0  0
   -1.7921   -2.2226    0.8327 C   0  0  0  0  0  0  0  0  0  0  0  0
   -0.7611   -2.7766    1.1927 O   0  0  0  0  0  0  0  0  0  0  0  0
   -1.8201   -0.9926    0.3247 N   0  0  0  0  0  0  0  0  0  0  0  0
   -2.7141   -0.5816    0.0927 H   0  0  0  0  0  0  0  0  0  0  0  0
   -0.6481   -0.1156    0.2017 C   0  0  1  0  0  0  0  0  0  0  0  0
    0.1042   -0.6345   -0.3958 H   0  0  0  0  0  0  0  0  0  0  0  0
   -1.0420    1.1781   -0.5372 C   0  0  0  0  0  0  0  0  0  0  0  0
   -1.6463    0.9342   -1.4122 H   0  0  0  0  0  0  0  0  0  0  0  0
   -1.6491    1.8061    0.1162 H   0  0  0  0  0  0  0  0  0  0  0  0
    0.1522    1.9639   -1.0216 C   0  0  0  0  0  0  0  0  0  0  0  0
    0.4323    2.2901   -2.3492 N   0  0  0  0  0  0  0  0  0  0  0  0
    1.5515    3.0283   -2.3198 C   0  0  0  0  0  0  0  0  0  0  0  0
    2.0421    3.4322   -3.1964 H   0  0  0  0  0  0  0  0  0  0  0  0
    1.9670    3.2005   -1.0537 N   0  0  0  0  0  0  0  0  0  0  0  0
    2.7760    3.7362   -0.7699 H   0  0  0  0  0  0  0  0  0  0  0  0
    1.0938    2.5390   -0.2192 C   0  0  0  0  0  0  0  0  0  0  0  0
    1.1204    2.4916    0.8622 H   0  0  0  0  0  0  0  0  0  0  0  0
   -0.0283    0.1609    1.5831 C   0  0  0  0  0  0  0  0  0  0  0  0
    1.1923    0.1056    1.7329 O   0  0  0  0  0  0  0  0  0  0  0  0
   -0.8586    0.4659    2.5853 N   0  0  0  0  0  0  0  0  0  0  0  0
   -1.8521    0.3848    2.4000 H   0  0  0  0  0  0  0  0  0  0  0  0
   -0.4403    0.7694    3.9518 C   0  0  0  0  0  0  0  0  0  0  0  0
    0.5066    1.3154    3.9421 H   0  0  0  0  0  0  0  0  0  0  0  0
   -1.1988    1.3789    4.4452 H   0  0  0  0  0  0  0  0  0  0  0  0
   -0.3053   -0.1600    4.5075 H   0  0  0  0  0  0  0  0  0  0  0  0
  5  6  2  0  0  0  0
  5  7  1  0  0  0  0
  2  3  1  0  0  0  0
  2  4  1  0  0  0  0
  2  5  1  0  0  0  0
  1  2  1  0  0  0  0
 22 23  2  0  0  0  0
 22 24  1  0  0  0  0
 20 21  1  0  0  0  0
 18 19  1  0  0  0  0
 18 20  1  0  0  0  0
 16 17  1  0  0  0  0
 16 18  1  0  0  0  0
 15 16  2  0  0  0  0
 14 15  1  0  0  0  0
 14 20  2  0  0  0  0
 11 12  1  0  0  0  0
 11 13  1  0  0  0  0
 11 14  1  0  0  0  0
  9 10  1  0  0  0  0
  9 11  1  0  0  0  0
  9 22  1  0  0  0  0
  7  8  1  0  0  0  0
  7  9  1  0  0  0  0
 26 27  1  0  0  0  0
 26 28  1  0  0  0  0
 26 29  1  0  0  0  0
 24 25  1  0  0  0  0
 24 26  1  0  0  0  0
M  END
$$$$
default_name
  -OEChem-02102213163D

 29 29  0     1  0  0  0  0  0999 V2000
   -2.9561   -3.9186    1.3887 H   0  0  0  0  0  0  0  0  0  0  0  0
   -3.1191   -2.9346    0.9517 C   0  0  0  0  0  0  0  0  0  0  0  0
   -3.7811   -2.3546    1.5917 H   0  0  0  0  0  0  0  0  0  0  0  0
   -3.5591   -3.0406   -0.0383 H   0  0  0  0  0  0  0  0  0  0  0  0
   -1.7921   -2.2226    0.8327 C   0  0  0  0  0  0  0  0  0  0  0  0
   -0.7611   -2.7766    1.1927 O   0  0  0  0  0  0  0  0  0  0  0  0
   -1.8201   -0.9926    0.3247 N   0  0  0  0  0  0  0  0  0  0  0  0
   -2.7141   -0.5816    0.0927 H   0  0  0  0  0  0  0  0  0  0  0  0
   -0.6481   -0.1156    0.2017 C   0  0  1  0  0  0  0  0  0  0  0  0
    0.1042   -0.6345   -0.3958 H   0  0  0  0  0  0  0  0  0  0  0  0
   -1.0420    1.1781   -0.5372 C   0  0  0  0  0  0  0  0  0  0  0  0
   -1.6463    0.9342   -1.4122 H   0  0  0  0  0  0  0  0  0  0  0  0
   -1.6491    1.8061    0.1162 H   0  0  0  0  0  0  0  0  0  0  0  0
    0.1522    1.9639   -1.0216 C   0  0  0  0  0  0  0  0  0  0  0  0
    0.2930    2.5420   -2.2838 N   0  0  0  0  0  0  0  0  0  0  0  0
    1.4733    3.1785   -2.2689 C   0  0  0  0  0  0  0  0  0  0  0  0
    1.8863    3.7230   -3.1086 H   0  0  0  0  0  0  0  0  0  0  0  0
    2.0599    3.0513   -1.0668 N   0  0  0  0  0  0  0  0  0  0  0  0
    2.9463    3.4581   -0.8010 H   0  0  0  0  0  0  0  0  0  0  0  0
    1.2388    2.2908   -0.2642 C   0  0  0  0  0  0  0  0  0  0  0  0
    1.3968    2.0152    0.7708 H   0  0  0  0  0  0  0  0  0  0  0  0
   -0.0283    0.1609    1.5831 C   0  0  0  0  0  0  0  0  0  0  0  0
    1.1923    0.1056    1.7329 O   0  0  0  0  0  0  0  0  0  0  0  0
   -0.8586    0.4659    2.5853 N   0  0  0  0  0  0  0  0  0  0  0  0
   -1.8521    0.3848    2.4000 H   0  0  0  0  0  0  0  0  0  0  0  0
   -0.4403    0.7694    3.9518 C   0  0  0  0  0  0  0  0  0  0  0  0
    0.5066    1.3154    3.9421 H   0  0  0  0  0  0  0  0  0  0  0  0
   -1.1988    1.3789    4.4452 H   0  0  0  0  0  0  0  0  0  0  0  0
   -0.3053   -0.1600    4.5075 H   0  0  0  0  0  0  0  0  0  0  0  0
  5  6  2  0  0  0  0
  5  7  1  0  0  0  0
  2  3  1  0  0  0  0
  2  4  1  0  0  0  0
  2  5  1  0  0  0  0
  1  2  1  0  0  0  0
 22 23  2  0  0  0  0
 22 24  1  0  0  0  0
 20 21  1  0  0  0  0
 18 19  1  0  0  0  0
 18 20  1  0  0  0  0
 16 17  1  0  0  0  0
 16 18  1  0  0  0  0
 15 16  2  0  0  0  0
 14 15  1  0  0  0  0
 14 20  2  0  0  0  0
 11 12  1  0  0  0  0
 11 13  1  0  0  0  0
 11 14  1  0  0  0  0
  9 10  1  0  0  0  0
  9 11  1  0  0  0  0
  9 22  1  0  0  0  0
  7  8  1  0  0  0  0
  7  9  1  0  0  0  0
 26 27  1  0  0  0  0
 26 28  1  0  0  0  0
 26 29  1  0  0  0  0
 24 25  1  0  0  0  0
 24 26  1  0  0  0  0
M  END
$$$$
default_name
  -OEChem-02102213163D

 29 29  0     1  0  0  0  0  0999 V2000
   -2.9561   -3.9186    1.3887 H   0  0  0  0  0  0  0  0  0  0  0  0
   -3.1191   -2.9346    0.9517 C   0  0  0  0  0  0  0  0  0  0  0  0
   -3.7811   -2.3546    1.5917 H   0  0  0  0  0  0  0  0  0  0  0  0
   -3.5591   -3.0406   -0.0383 H   0  0  0  0  0  0  0  0  0  0  0  0
   -1.7921   -2.2226    0.8327 C   0  0  0  0  0  0  0  0  0  0  0  0
   -0.7611   -2.7766    1.1927 O   0  0  0  0  0  0  0  0  0  0  0  0
   -1.8201   -0.9926    0.3247 N   0  0  0  0  0  0  0  0  0  0  0  0
   -2.7141   -0.5816    0.0927 H   0  0  0  0  0  0  0  0  0  0  0  0
   -0.6481   -0.1156    0.2017 C   0  0  1  0  0  0  0  0  0  0  0  0
    0.1042   -0.6345   -0.3958 H   0  0  0  0  0  0  0  0  0  0  0  0
   -1.0420    1.1781   -0.5372 C   0  0  0  0  0  0  0  0  0  0  0  0
   -1.6463    0.9342   -1.4122 H   0  0  0  0  0  0  0  0  0  0  0  0
   -1.6491    1.8061    0.1162 H   0  0  0  0  0  0  0  0  0  0  0  0
    0.1522    1.9639   -1.0216 C   0  0  0  0  0  0  0  0  0  0  0  0
    0.1882    2.7836   -2.1504 N   0  0  0  0  0  0  0  0  0  0  0  0
    1.4171    3.3197   -2.1784 C   0  0  0  0  0  0  0  0  0  0  0  0
    1.7719    3.9989   -2.9433 H   0  0  0  0  0  0  0  0  0  0  0  0
    2.1355    2.9021   -1.1225 N   0  0  0  0  0  0  0  0  0  0  0  0
    3.0836    3.1817   -0.9110 H   0  0  0  0  0  0  0  0  0  0  0  0
    1.3522    2.0483   -0.3781 C   0  0  0  0  0  0  0  0  0  0  0  0
    1.6119    1.5508    0.5478 H   0  0  0  0  0  0  0  0  0  0  0  0
   -0.0283    0.1609    1.5831 C   0  0  0  0  0  0  0  0  0  0  0  0
    1.1923    0.1056    1.7329 O   0  0  0  0  0  0  0  0  0  0  0  0
   -0.8586    0.4659    2.5853 N   0  0  0  0  0  0  0  0  0  0  0  0
   -1.8521    0.3848    2.4000 H   0  0  0  0  0  0  0  0  0  0  0  0
   -0.4403    0.7694    3.9518 C   0  0  0  0  0  0  0  0  0  0  0  0
    0.5066    1.3154    3.9421 H   0  0  0  0  0  0  0  0  0  0  0  0
   -1.1988    1.3789    4.4452 H   0  0  0  0  0  0  0  0  0  0  0  0
   -0.3053   -0.1600    4.5075 H   0  0  0  0  0  0  0  0  0  0  0  0
  5  6  2  0  0  0  0
  5  7  1  0  0  0  0
  2  3  1  0  0  0  0
  2  4  1  0  0  0  0
  2  5  1  0  0  0  0
  1  2  1  0  0  0  0
 22 23  2  0  0  0  0
 22 24  1  0  0  0  0
 20 21  1  0  0  0  0
 18 19  1  0  0  0  0
 18 20  1  0  0  0  0
 16 17  1  0  0  0  0
 16 18  1  0  0  0  0
 15 16  2  0  0  0  0
 14 15  1  0  0  0  0
 14 20  2  0  0  0  0
 11 12  1  0  0  0  0
 11 13  1  0  0  0  0
 11 14  1  0  0  0  0
  9 10  1  0  0  0  0
  9 11  1  0  0  0  0
  9 22  1  0  0  0  0
  7  8  1  0  0  0  0
  7  9  1  0  0  0  0
 26 27  1  0  0  0  0
 26 28  1  0  0  0  0
 26 29  1  0  0  0  0
 24 25  1  0  0  0  0
 24 26  1  0  0  0  0
M  END
$$$$
default_name
  -OEChem-02102213163D

 29 29  0     1  0  0  0  0  0999 V2000
   -2.9561   -3.9186    1.3887 H   0  0  0  0  0  0  0  0  0  0  0  0
   -3.1191   -2.9346    0.9517 C   0  0  0  0  0  0  0  0  0  0  0  0
   -3.7811   -2.3546    1.5917 H   0  0  0  0  0  0  0  0  0  0  0  0
   -3.5591   -3.0406   -0.0383 H   0  0  0  0  0  0  0  0  0  0  0  0
   -1.7921   -2.2226    0.8327 C   0  0  0  0  0  0  0  0  0  0  0  0
   -0.7611   -2.7766    1.1927 O   0  0  0  0  0  0  0  0  0  0  0  0
   -1.8201   -0.9926    0.3247 N   0  0  0  0  0  0  0  0  0  0  0  0
   -2.7141   -0.5816    0.0927 H   0  0  0  0  0  0  0  0  0  0  0  0
   -0.6481   -0.1156    0.2017 C   0  0  1  0  0  0  0  0  0  0  0  0
    0.1042   -0.6345   -0.3958 H   0  0  0  0  0  0  0  0  0  0  0  0
   -1.0420    1.1781   -0.5372 C   0  0  0  0  0  0  0  0  0  0  0  0
   -1.6463    0.9342   -1.4122 H   0  0  0  0  0  0  0  0  0  0  0  0
   -1.6491    1.8061    0.1162 H   0  0  0  0  0  0  0  0  0  0  0  0
    0.1522    1.9639   -1.0216 C   0  0  0  0  0  0  0  0  0  0  0  0
    0.1250    2.9983   -1.9578 N   0  0  0  0  0  0  0  0  0  0  0  0
    1.3868    3.4422   -2.0545 C   0  0  0  0  0  0  0  0  0  0  0  0
    1.7065    4.2410   -2.7117 H   0  0  0  0  0  0  0  0  0  0  0  0
    2.1886    2.7632   -1.2170 N   0  0  0  0  0  0  0  0  0  0  0  0
    3.1784    2.9258   -1.0923 H   0  0  0  0  0  0  0  0  0  0  0  0
    1.4262    1.8280   -0.5531 C   0  0  0  0  0  0  0  0  0  0  0  0
    1.7511    1.1300    0.2083 H   0  0  0  0  0  0  0  0  0  0  0  0
   -0.0283    0.1609    1.5831 C   0  0  0  0  0  0  0  0  0  0  0  0
    1.1923    0.1056    1.7329 O   0  0  0  0  0  0  0  0  0  0  0  0
   -0.8586    0.4659    2.5853 N   0  0  0  0  0  0  0  0  0  0  0  0
   -1.8521    0.3848    2.4000 H   0  0  0  0  0  0  0  0  0  0  0  0
   -0.4403    0.7694    3.9518 C   0  0  0  0  0  0  0  0  0  0  0  0
    0.5066    1.3154    3.9421 H   0  0  0  0  0  0  0  0  0  0  0  0
   -1.1988    1.3789    4.4452 H   0  0  0  0  0  0  0  0  0  0  0  0
   -0.3053   -0.1600    4.5075 H   0  0  0  0  0  0  0  0  0  0  0  0
  5  6  2  0  0  0  0
  5  7  1  0  0  0  0
  2  3  1  0  0  0  0
  2  4  1  0  0  0  0
  2  5  1  0  0  0  0
  1  2  1  0  0  0  0
 22 23  2  0  0  0  0
 22 24  1  0  0  0  0
 20 21  1  0  0  0  0
 18 19  1  0  0  0  0
 18 20  1  0  0  0  0
 16 17  1  0  0  0  0
 16 18  1  0  0  0  0
 15 16  2  0  0  0  0
 14 15  1  0  0  0  0
 14 20  2  0  0  0  0
 11 12  1  0  0  0  0
 11 13  1  0  0  0  0
 11 14  1  0  0  0  0
  9 10  1  0  0  0  0
  9 11  1  0  0  0  0
  9 22  1  0  0  0  0
  7  8  1  0  0  0  0
  7  9  1  0  0  0  0
 26 27  1  0  0  0  0
 26 28  1  0  0  0  0
 26 29  1  0  0  0  0
 24 25  1  0  0  0  0
 24 26  1  0  0  0  0
M  END
$$$$
default_name
  -OEChem-02102213163D

 29 29  0     1  0  0  0  0  0999 V2000
   -2.9561   -3.9186    1.3887 H   0  0  0  0  0  0  0  0  0  0  0  0
   -3.1191   -2.9346    0.9517 C   0  0  0  0  0  0  0  0  0  0  0  0
   -3.7811   -2.3546    1.5917 H   0  0  0  0  0  0  0  0  0  0  0  0
   -3.5591   -3.0406   -0.0383 H   0  0  0  0  0  0  0  0  0  0  0  0
   -1.7921   -2.2226    0.8327 C   0  0  0  0  0  0  0  0  0  0  0  0
   -0.7611   -2.7766    1.1927 O   0  0  0  0  0  0  0  0  0  0  0  0
   -1.8201   -0.9926    0.3247 N   0  0  0  0  0  0  0  0  0  0  0  0
   -2.7141   -0.5816    0.0927 H   0  0  0  0  0  0  0  0  0  0  0  0
   -0.6481   -0.1156    0.2017 C   0  0  1  0  0  0  0  0  0  0  0  0
    0.1042   -0.6345   -0.3958 H   0  0  0  0  0  0  0  0  0  0  0  0
   -1.0420    1.1781   -0.5372 C   0  0  0  0  0  0  0  0  0  0  0  0
   -1.8493    0.9702   -1.2410 H   0  0  0  0  0  0  0  0  0  0  0  0
   -1.4117    1.9139    0.1783 H   0  0  0  0  0  0  0  0  0  0  0  0
    0.0986    1.7737   -1.3261 C   0  0  0  0  0  0  0  0  0  0  0  0
    0.0422    2.9384   -2.0926 N   0  0  0  0  0  0  0  0  0  0  0  0
    1.2796    3.1233   -2.5752 C   0  0  0  0  0  0  0  0  0  0  0  0
    1.5686    3.9413   -3.2230 H   0  0  0  0  0  0  0  0  0  0  0  0
    2.1044    2.1588   -2.1340 N   0  0  0  0  0  0  0  0  0  0  0  0
    3.0910    2.0902   -2.3430 H   0  0  0  0  0  0  0  0  0  0  0  0
    1.3777    1.2993   -1.3404 C   0  0  0  0  0  0  0  0  0  0  0  0
    1.7371    0.4277   -0.8078 H   0  0  0  0  0  0  0  0  0  0  0  0
   -0.0283    0.1609    1.5831 C   0  0  0  0  0  0  0  0  0  0  0  0
    1.1923    0.1056    1.7329 O   0  0  0  0  0  0  0  0  0  0  0  0
   -0.8586    0.4659    2.5853 N   0  0  0  0  0  0  0  0  0  0  0  0
   -1.8521    0.3848    2.4000 H   0  0  0  0  0  0  0  0  0  0  0  0
   -0.4403    0.7694    3.9518 C   0  0  0  0  0  0  0  0  0  0  0  0
    0.5066    1.3154    3.9421 H   0  0  0  0  0  0  0  0  0  0  0  0
   -1.1988    1.3789    4.4452 H   0  0  0  0  0  0  0  0  0  0  0  0
   -0.3053   -0.1600    4.5075 H   0  0  0  0  0  0  0  0  0  0  0  0
  5  6  2  0  0  0  0
  5  7  1  0  0  0  0
  2  3  1  0  0  0  0
  2  4  1  0  0  0  0
  2  5  1  0  0  0  0
  1  2  1  0  0  0  0
 22 23  2  0  0  0  0
 22 24  1  0  0  0  0
 20 21  1  0  0  0  0
 18 19  1  0  0  0  0
 18 20  1  0  0  0  0
 16 17  1  0  0  0  0
 16 18  1  0  0  0  0
 15 16  2  0  0  0  0
 14 15  1  0  0  0  0
 14 20  2  0  0  0  0
 11 12  1  0  0  0  0
 11 13  1  0  0  0  0
 11 14  1  0  0  0  0
  9 10  1  0  0  0  0
  9 11  1  0  0  0  0
  9 22  1  0  0  0  0
  7  8  1  0  0  0  0
  7  9  1  0  0  0  0
 26 27  1  0  0  0  0
 26 28  1  0  0  0  0
 26 29  1  0  0  0  0
 24 25  1  0  0  0  0
 24 26  1  0  0  0  0
M  END
$$$$
default_name
  -OEChem-02102213163D

 29 29  0     1  0  0  0  0  0999 V2000
   -2.9561   -3.9186    1.3887 H   0  0  0  0  0  0  0  0  0  0  0  0
   -3.1191   -2.9346    0.9517 C   0  0  0  0  0  0  0  0  0  0  0  0
   -3.7811   -2.3546    1.5917 H   0  0  0  0  0  0  0  0  0  0  0  0
   -3.5591   -3.0406   -0.0383 H   0  0  0  0  0  0  0  0  0  0  0  0
   -1.7921   -2.2226    0.8327 C   0  0  0  0  0  0  0  0  0  0  0  0
   -0.7611   -2.7766    1.1927 O   0  0  0  0  0  0  0  0  0  0  0  0
   -1.8201   -0.9926    0.3247 N   0  0  0  0  0  0  0  0  0  0  0  0
   -2.7141   -0.5816    0.0927 H   0  0  0  0  0  0  0  0  0  0  0  0
   -0.6481   -0.1156    0.2017 C   0  0  1  0  0  0  0  0  0  0  0  0
    0.1042   -0.6345   -0.3958 H   0  0  0  0  0  0  0  0  0  0  0  0
   -1.0420    1.1781   -0.5372 C   0  0  0  0  0  0  0  0  0  0  0  0
   -1.8493    0.9702   -1.2410 H   0  0  0  0  0  0  0  0  0  0  0  0
   -1.4117    1.9139    0.1783 H   0  0  0  0  0  0  0  0  0  0  0  0
    0.0986    1.7737   -1.3261 C   0  0  0  0  0  0  0  0  0  0  0  0
    0.1444    3.0673   -1.8474 N   0  0  0  0  0  0  0  0  0  0  0  0
    1.3479    3.1898   -2.4263 C   0  0  0  0  0  0  0  0  0  0  0  0
    1.6942    4.0794   -2.9372 H   0  0  0  0  0  0  0  0  0  0  0  0
    2.0594    2.0604   -2.2732 N   0  0  0  0  0  0  0  0  0  0  0  0
    3.0031    1.9127   -2.6040 H   0  0  0  0  0  0  0  0  0  0  0  0
    1.2887    1.1558   -1.5774 C   0  0  0  0  0  0  0  0  0  0  0  0
    1.5633    0.1564   -1.2639 H   0  0  0  0  0  0  0  0  0  0  0  0
   -0.0283    0.1609    1.5831 C   0  0  0  0  0  0  0  0  0  0  0  0
    1.1923    0.1056    1.7329 O   0  0  0  0  0  0  0  0  0  0  0  0
   -0.8586    0.4659    2.5853 N   0  0  0  0  0  0  0  0  0  0  0  0
   -1.8521    0.3848    2.4000 H   0  0  0  0  0  0  0  0  0  0  0  0
   -0.4403    0.7694    3.9518 C   0  0  0  0  0  0  0  0  0  0  0  0
    0.5066    1.3154    3.9421 H   0  0  0  0  0  0  0  0  0  0  0  0
   -1.1988    1.3789    4.4452 H   0  0  0  0  0  0  0  0  0  0  0  0
   -0.3053   -0.1600    4.5075 H   0  0  0  0  0  0  0  0  0  0  0  0
  5  6  2  0  0  0  0
  5  7  1  0  0  0  0
  2  3  1  0  0  0  0
  2  4  1  0  0  0  0
  2  5  1  0  0  0  0
  1  2  1  0  0  0  0
 22 23  2  0  0  0  0
 22 24  1  0  0  0  0
 20 21  1  0  0  0  0
 18 19  1  0  0  0  0
 18 20  1  0  0  0  0
 16 17  1  0  0  0  0
 16 18  1  0  0  0  0
 15 16  2  0  0  0  0
 14 15  1  0  0  0  0
 14 20  2  0  0  0  0
 11 12  1  0  0  0  0
 11 13  1  0  0  0  0
 11 14  1  0  0  0  0
  9 10  1  0  0  0  0
  9 11  1  0  0  0  0
  9 22  1  0  0  0  0
  7  8  1  0  0  0  0
  7  9  1  0  0  0  0
 26 27  1  0  0  0  0
 26 28  1  0  0  0  0
 26 29  1  0  0  0  0
 24 25  1  0  0  0  0
 24 26  1  0  0  0  0
M  END
$$$$
default_name
  -OEChem-02102213163D

 29 29  0     1  0  0  0  0  0999 V2000
   -2.9561   -3.9186    1.3887 H   0  0  0  0  0  0  0  0  0  0  0  0
   -3.1191   -2.9346    0.9517 C   0  0  0  0  0  0  0  0  0  0  0  0
   -3.7811   -2.3546    1.5917 H   0  0  0  0  0  0  0  0  0  0  0  0
   -3.5591   -3.0406   -0.0383 H   0  0  0  0  0  0  0  0  0  0  0  0
   -1.7921   -2.2226    0.8327 C   0  0  0  0  0  0  0  0  0  0  0  0
   -0.7611   -2.7766    1.1927 O   0  0  0  0  0  0  0  0  0  0  0  0
   -1.8201   -0.9926    0.3247 N   0  0  0  0  0  0  0  0  0  0  0  0
   -2.7141   -0.5816    0.0927 H   0  0  0  0  0  0  0  0  0  0  0  0
   -0.6481   -0.1156    0.2017 C   0  0  1  0  0  0  0  0  0  0  0  0
    0.1042   -0.6345   -0.3958 H   0  0  0  0  0  0  0  0  0  0  0  0
   -1.0420    1.1781   -0.5372 C   0  0  0  0  0  0  0  0  0  0  0  0
   -1.8493    0.9702   -1.2410 H   0  0  0  0  0  0  0  0  0  0  0  0
   -1.4117    1.9139    0.1783 H   0  0  0  0  0  0  0  0  0  0  0  0
    0.0986    1.7737   -1.3261 C   0  0  0  0  0  0  0  0  0  0  0  0
    0.2857    3.1300   -1.5959 N   0  0  0  0  0  0  0  0  0  0  0  0
    1.4380    3.2157   -2.2764 C   0  0  0  0  0  0  0  0  0  0  0  0
    1.8633    4.1398   -2.6469 H   0  0  0  0  0  0  0  0  0  0  0  0
    1.9885    1.9987   -2.4223 N   0  0  0  0  0  0  0  0  0  0  0  0
    2.8676    1.8043   -2.8819 H   0  0  0  0  0  0  0  0  0  0  0  0
    1.1592    1.0756   -1.8252 C   0  0  0  0  0  0  0  0  0  0  0  0
    1.3122    0.0071   -1.7396 H   0  0  0  0  0  0  0  0  0  0  0  0
   -0.0283    0.1609    1.5831 C   0  0  0  0  0  0  0  0  0  0  0  0
    1.1923    0.1056    1.7329 O   0  0  0  0  0  0  0  0  0  0  0  0
   -0.8586    0.4659    2.5853 N   0  0  0  0  0  0  0  0  0  0  0  0
   -1.8521    0.3848    2.4000 H   0  0  0  0  0  0  0  0  0  0  0  0
   -0.4403    0.7694    3.9518 C   0  0  0  0  0  0  0  0  0  0  0  0
    0.5066    1.3154    3.9421 H   0  0  0  0  0  0  0  0  0  0  0  0
   -1.1988    1.3789    4.4452 H   0  0  0  0  0  0  0  0  0  0  0  0
   -0.3053   -0.1600    4.5075 H   0  0  0  0  0  0  0  0  0  0  0  0
  5  6  2  0  0  0  0
  5  7  1  0  0  0  0
  2  3  1  0  0  0  0
  2  4  1  0  0  0  0
  2  5  1  0  0  0  0
  1  2  1  0  0  0  0
 22 23  2  0  0  0  0
 22 24  1  0  0  0  0
 20 21  1  0  0  0  0
 18 19  1  0  0  0  0
 18 20  1  0  0  0  0
 16 17  1  0  0  0  0
 16 18  1  0  0  0  0
 15 16  2  0  0  0  0
 14 15  1  0  0  0  0
 14 20  2  0  0  0  0
 11 12  1  0  0  0  0
 11 13  1  0  0  0  0
 11 14  1  0  0  0  0
  9 10  1  0  0  0  0
  9 11  1  0  0  0  0
  9 22  1  0  0  0  0
  7  8  1  0  0  0  0
  7  9  1  0  0  0  0
 26 27  1  0  0  0  0
 26 28  1  0  0  0  0
 26 29  1  0  0  0  0
 24 25  1  0  0  0  0
 24 26  1  0  0  0  0
M  END
$$$$
default_name
  -OEChem-02102213163D

 29 29  0     1  0  0  0  0  0999 V2000
   -2.9561   -3.9186    1.3887 H   0  0  0  0  0  0  0  0  0  0  0  0
   -3.1191   -2.9346    0.9517 C   0  0  0  0  0  0  0  0  0  0  0  0
   -3.7811   -2.3546    1.5917 H   0  0  0  0  0  0  0  0  0  0  0  0
   -3.5591   -3.0406   -0.0383 H   0  0  0  0  0  0  0  0  0  0  0  0
   -1.7921   -2.2226    0.8327 C   0  0  0  0  0  0  0  0  0  0  0  0
   -0.7611   -2.7766    1.1927 O   0  0  0  0  0  0  0  0  0  0  0  0
   -1.8201   -0.9926    0.3247 N   0  0  0  0  0  0  0  0  0  0  0  0
   -2.7141   -0.5816    0.0927 H   0  0  0  0  0  0  0  0  0  0  0  0
   -0.6481   -0.1156    0.2017 C   0  0  1  0  0  0  0  0  0  0  0  0
    0.1042   -0.6345   -0.3958 H   0  0  0  0  0  0  0  0  0  0  0  0
   -1.0420    1.1781   -0.5372 C   0  0  0  0  0  0  0  0  0  0  0  0
   -1.8493    0.9702   -1.2410 H   0  0  0  0  0  0  0  0  0  0  0  0
   -1.4117    1.9139    0.1783 H   0  0  0  0  0  0  0  0  0  0  0  0
    0.0986    1.7737   -1.3261 C   0  0  0  0  0  0  0  0  0  0  0  0
    0.4563    3.1222   -1.3551 N   0  0  0  0  0  0  0  0  0  0  0  0
    1.5439    3.1992   -2.1357 C   0  0  0  0  0  0  0  0  0  0  0  0
    2.0646    4.1186   -2.3720 H   0  0  0  0  0  0  0  0  0  0  0  0
    1.8964    1.9779   -2.5712 N   0  0  0  0  0  0  0  0  0  0  0  0
    2.6937    1.7722   -3.1576 H   0  0  0  0  0  0  0  0  0  0  0  0
    0.9979    1.0641   -2.0671 C   0  0  0  0  0  0  0  0  0  0  0  0
    1.0009   -0.0101   -2.2028 H   0  0  0  0  0  0  0  0  0  0  0  0
   -0.0283    0.1609    1.5831 C   0  0  0  0  0  0  0  0  0  0  0  0
    1.1923    0.1056    1.7329 O   0  0  0  0  0  0  0  0  0  0  0  0
   -0.8586    0.4659    2.5853 N   0  0  0  0  0  0  0  0  0  0  0  0
   -1.8521    0.3848    2.4000 H   0  0  0  0  0  0  0  0  0  0  0  0
   -0.4403    0.7694    3.9518 C   0  0  0  0  0  0  0  0  0  0  0  0
    0.5066    1.3154    3.9421 H   0  0  0  0  0  0  0  0  0  0  0  0
   -1.1988    1.3789    4.4452 H   0  0  0  0  0  0  0  0  0  0  0  0
   -0.3053   -0.1600    4.5075 H   0  0  0  0  0  0  0  0  0  0  0  0
  5  6  2  0  0  0  0
  5  7  1  0  0  0  0
  2  3  1  0  0  0  0
  2  4  1  0  0  0  0
  2  5  1  0  0  0  0
  1  2  1  0  0  0  0
 22 23  2  0  0  0  0
 22 24  1  0  0  0  0
 20 21  1  0  0  0  0
 18 19  1  0  0  0  0
 18 20  1  0  0  0  0
 16 17  1  0  0  0  0
 16 18  1  0  0  0  0
 15 16  2  0  0  0  0
 14 15  1  0  0  0  0
 14 20  2  0  0  0  0
 11 12  1  0  0  0  0
 11 13  1  0  0  0  0
 11 14  1  0  0  0  0
  9 10  1  0  0  0  0
  9 11  1  0  0  0  0
  9 22  1  0  0  0  0
  7  8  1  0  0  0  0
  7  9  1  0  0  0  0
 26 27  1  0  0  0  0
 26 28  1  0  0  0  0
 26 29  1  0  0  0  0
 24 25  1  0  0  0  0
 24 26  1  0  0  0  0
M  END
$$$$
default_name
  -OEChem-02102213163D

 29 29  0     1  0  0  0  0  0999 V2000
   -2.9561   -3.9186    1.3887 H   0  0  0  0  0  0  0  0  0  0  0  0
   -3.1191   -2.9346    0.9517 C   0  0  0  0  0  0  0  0  0  0  0  0
   -3.7811   -2.3546    1.5917 H   0  0  0  0  0  0  0  0  0  0  0  0
   -3.5591   -3.0406   -0.0383 H   0  0  0  0  0  0  0  0  0  0  0  0
   -1.7921   -2.2226    0.8327 C   0  0  0  0  0  0  0  0  0  0  0  0
   -0.7611   -2.7766    1.1927 O   0  0  0  0  0  0  0  0  0  0  0  0
   -1.8201   -0.9926    0.3247 N   0  0  0  0  0  0  0  0  0  0  0  0
   -2.7141   -0.5816    0.0927 H   0  0  0  0  0  0  0  0  0  0  0  0
   -0.6481   -0.1156    0.2017 C   0  0  1  0  0  0  0  0  0  0  0  0
    0.1042   -0.6345   -0.3958 H   0  0  0  0  0  0  0  0  0  0  0  0
   -1.0420    1.1781   -0.5372 C   0  0  0  0  0  0  0  0  0  0  0  0
   -1.8493    0.9702   -1.2410 H   0  0  0  0  0  0  0  0  0  0  0  0
   -1.4117    1.9139    0.1783 H   0  0  0  0  0  0  0  0  0  0  0  0
    0.0986    1.7737   -1.3261 C   0  0  0  0  0  0  0  0  0  0  0  0
    0.6446    3.0446   -1.1414 N   0  0  0  0  0  0  0  0  0  0  0  0
    1.6583    3.1414   -2.0139 C   0  0  0  0  0  0  0  0  0  0  0  0
    2.2842    4.0171   -2.1311 H   0  0  0  0  0  0  0  0  0  0  0  0
    1.7895    1.9994   -2.7096 N   0  0  0  0  0  0  0  0  0  0  0  0
    2.4931    1.8186   -3.4125 H   0  0  0  0  0  0  0  0  0  0  0  0
    0.8159    1.1221   -2.2865 C   0  0  0  0  0  0  0  0  0  0  0  0
    0.6506    0.1059   -2.6217 H   0  0  0  0  0  0  0  0  0  0  0  0
   -0.0283    0.1609    1.5831 C   0  0  0  0  0  0  0  0  0  0  0  0
    1.1923    0.1056    1.7329 O   0  0  0  0  0  0  0  0  0  0  0  0
   -0.8586    0.4659    2.5853 N   0  0  0  0  0  0  0  0  0  0  0  0
   -1.8521    0.3848    2.4000 H   0  0  0  0  0  0  0  0  0  0  0  0
   -0.4403    0.7694    3.9518 C   0  0  0  0  0  0  0  0  0  0  0  0
    0.5066    1.3154    3.9421 H   0  0  0  0  0  0  0  0  0  0  0  0
   -1.1988    1.3789    4.4452 H   0  0  0  0  0  0  0  0  0  0  0  0
   -0.3053   -0.1600    4.5075 H   0  0  0  0  0  0  0  0  0  0  0  0
  5  6  2  0  0  0  0
  5  7  1  0  0  0  0
  2  3  1  0  0  0  0
  2  4  1  0  0  0  0
  2  5  1  0  0  0  0
  1  2  1  0  0  0  0
 22 23  2  0  0  0  0
 22 24  1  0  0  0  0
 20 21  1  0  0  0  0
 18 19  1  0  0  0  0
 18 20  1  0  0  0  0
 16 17  1  0  0  0  0
 16 18  1  0  0  0  0
 15 16  2  0  0  0  0
 14 15  1  0  0  0  0
 14 20  2  0  0  0  0
 11 12  1  0  0  0  0
 11 13  1  0  0  0  0
 11 14  1  0  0  0  0
  9 10  1  0  0  0  0
  9 11  1  0  0  0  0
  9 22  1  0  0  0  0
  7  8  1  0  0  0  0
  7  9  1  0  0  0  0
 26 27  1  0  0  0  0
 26 28  1  0  0  0  0
 26 29  1  0  0  0  0
 24 25  1  0  0  0  0
 24 26  1  0  0  0  0
M  END
$$$$
default_name
  -OEChem-02102213163D

 29 29  0     1  0  0  0  0  0999 V2000
   -2.9561   -3.9186    1.3887 H   0  0  0  0  0  0  0  0  0  0  0  0
   -3.1191   -2.9346    0.9517 C   0  0  0  0  0  0  0  0  0  0  0  0
   -3.7811   -2.3546    1.5917 H   0  0  0  0  0  0  0  0  0  0  0  0
   -3.5591   -3.0406   -0.0383 H   0  0  0  0  0  0  0  0  0  0  0  0
   -1.7921   -2.2226    0.8327 C   0  0  0  0  0  0  0  0  0  0  0  0
   -0.7611   -2.7766    1.1927 O   0  0  0  0  0  0  0  0  0  0  0  0
   -1.8201   -0.9926    0.3247 N   0  0  0  0  0  0  0  0  0  0  0  0
   -2.7141   -0.5816    0.0927 H   0  0  0  0  0  0  0  0  0  0  0  0
   -0.6481   -0.1156    0.2017 C   0  0  1  0  0  0  0  0  0  0  0  0
    0.1042   -0.6345   -0.3958 H   0  0  0  0  0  0  0  0  0  0  0  0
   -1.0420    1.1781   -0.5372 C   0  0  0  0  0  0  0  0  0  0  0  0
   -1.8493    0.9702   -1.2410 H   0  0  0  0  0  0  0  0  0  0  0  0
   -1.4117    1.9139    0.1783 H   0  0  0  0  0  0  0  0  0  0  0  0
    0.0986    1.7737   -1.3261 C   0  0  0  0  0  0  0  0  0  0  0  0
    0.8379    2.9022   -0.9694 N   0  0  0  0  0  0  0  0  0  0  0  0
    1.7735    3.0463   -1.9193 C   0  0  0  0  0  0  0  0  0  0  0  0
    2.5071    3.8422   -1.9408 H   0  0  0  0  0  0  0  0  0  0  0  0
    1.6749    2.0617   -2.8282 N   0  0  0  0  0  0  0  0  0  0  0  0
    2.2797    1.9405   -3.6291 H   0  0  0  0  0  0  0  0  0  0  0  0
    0.6255    1.2457   -2.4685 C   0  0  0  0  0  0  0  0  0  0  0  0
    0.2851    0.3474   -2.9679 H   0  0  0  0  0  0  0  0  0  0  0  0
   -0.0283    0.1609    1.5831 C   0  0  0  0  0  0  0  0  0  0  0  0
    1.1923    0.1056    1.7329 O   0  0  0  0  0  0  0  0  0  0  0  0
   -0.8586    0.4659    2.5853 N   0  0  0  0  0  0  0  0  0  0  0  0
   -1.8521    0.3848    2.4000 H   0  0  0  0  0  0  0  0  0  0  0  0
   -0.4403    0.7694    3.9518 C   0  0  0  0  0  0  0  0  0  0  0  0
    0.5066    1.3154    3.9421 H   0  0  0  0  0  0  0  0  0  0  0  0
   -1.1988    1.3789    4.4452 H   0  0  0  0  0  0  0  0  0  0  0  0
   -0.3053   -0.1600    4.5075 H   0  0  0  0  0  0  0  0  0  0  0  0
  5  6  2  0  0  0  0
  5  7  1  0  0  0  0
  2  3  1  0  0  0  0
  2  4  1  0  0  0  0
  2  5  1  0  0  0  0
  1  2  1  0  0  0  0
 22 23  2  0  0  0  0
 22 24  1  0  0  0  0
 20 21  1  0  0  0  0
 18 19  1  0  0  0  0
 18 20  1  0  0  0  0
 16 17  1  0  0  0  0
 16 18  1  0  0  0  0
 15 16  2  0  0  0  0
 14 15  1  0  0  0  0
 14 20  2  0  0  0  0
 11 12  1  0  0  0  0
 11 13  1  0  0  0  0
 11 14  1  0  0  0  0
  9 10  1  0  0  0  0
  9 11  1  0  0  0  0
  9 22  1  0  0  0  0
  7  8  1  0  0  0  0
  7  9  1  0  0  0  0
 26 27  1  0  0  0  0
 26 28  1  0  0  0  0
 26 29  1  0  0  0  0
 24 25  1  0  0  0  0
 24 26  1  0  0  0  0
M  END
$$$$
default_name
  -OEChem-02102213163D

 29 29  0     1  0  0  0  0  0999 V2000
   -2.9561   -3.9186    1.3887 H   0  0  0  0  0  0  0  0  0  0  0  0
   -3.1191   -2.9346    0.9517 C   0  0  0  0  0  0  0  0  0  0  0  0
   -3.7811   -2.3546    1.5917 H   0  0  0  0  0  0  0  0  0  0  0  0
   -3.5591   -3.0406   -0.0383 H   0  0  0  0  0  0  0  0  0  0  0  0
   -1.7921   -2.2226    0.8327 C   0  0  0  0  0  0  0  0  0  0  0  0
   -0.7611   -2.7766    1.1927 O   0  0  0  0  0  0  0  0  0  0  0  0
   -1.8201   -0.9926    0.3247 N   0  0  0  0  0  0  0  0  0  0  0  0
   -2.7141   -0.5816    0.0927 H   0  0  0  0  0  0  0  0  0  0  0  0
   -0.6481   -0.1156    0.2017 C   0  0  1  0  0  0  0  0  0  0  0  0
    0.1042   -0.6345   -0.3958 H   0  0  0  0  0  0  0  0  0  0  0  0
   -1.0420    1.1781   -0.5372 C   0  0  0  0  0  0  0  0  0  0  0  0
   -1.8493    0.9702   -1.2410 H   0  0  0  0  0  0  0  0  0  0  0  0
   -1.4117    1.9139    0.1783 H   0  0  0  0  0  0  0  0  0  0  0  0
    0.0986    1.7737   -1.3261 C   0  0  0  0  0  0  0  0  0  0  0  0
    1.0228    2.7050   -0.8509 N   0  0  0  0  0  0  0  0  0  0  0  0
    1.8815    2.9203   -1.8582 C   0  0  0  0  0  0  0  0  0  0  0  0
    2.7183    3.6059   -1.8139 H   0  0  0  0  0  0  0  0  0  0  0  0
    1.5606    2.1605   -2.9189 N   0  0  0  0  0  0  0  0  0  0  0  0
    2.0679    2.1294   -3.7927 H   0  0  0  0  0  0  0  0  0  0  0  0
    0.4397    1.4264   -2.6006 C   0  0  0  0  0  0  0  0  0  0  0  0
   -0.0706    0.6978   -3.2178 H   0  0  0  0  0  0  0  0  0  0  0  0
   -0.0283    0.1609    1.5831 C   0  0  0  0  0  0  0  0  0  0  0  0
    1.1923    0.1056    1.7329 O   0  0  0  0  0  0  0  0  0  0  0  0
   -0.8586    0.4659    2.5853 N   0  0  0  0  0  0  0  0  0  0  0  0
   -1.8521    0.3848    2.4000 H   0  0  0  0  0  0  0  0  0  0  0  0
   -0.4403    0.7694    3.9518 C   0  0  0  0  0  0  0  0  0  0  0  0
    0.5066    1.3154    3.9421 H   0  0  0  0  0  0  0  0  0  0  0  0
   -1.1988    1.3789    4.4452 H   0  0  0  0  0  0  0  0  0  0  0  0
   -0.3053   -0.1600    4.5075 H   0  0  0  0  0  0  0  0  0  0  0  0
  5  6  2  0  0  0  0
  5  7  1  0  0  0  0
  2  3  1  0  0  0  0
  2  4  1  0  0  0  0
  2  5  1  0  0  0  0
  1  2  1  0  0  0  0
 22 23  2  0  0  0  0
 22 24  1  0  0  0  0
 20 21  1  0  0  0  0
 18 19  1  0  0  0  0
 18 20  1  0  0  0  0
 16 17  1  0  0  0  0
 16 18  1  0  0  0  0
 15 16  2  0  0  0  0
 14 15  1  0  0  0  0
 14 20  2  0  0  0  0
 11 12  1  0  0  0  0
 11 13  1  0  0  0  0
 11 14  1  0  0  0  0
  9 10  1  0  0  0  0
  9 11  1  0  0  0  0
  9 22  1  0  0  0  0
  7  8  1  0  0  0  0
  7  9  1  0  0  0  0
 26 27  1  0  0  0  0
 26 28  1  0  0  0  0
 26 29  1  0  0  0  0
 24 25  1  0  0  0  0
 24 26  1  0  0  0  0
M  END
$$$$
default_name
  -OEChem-02102213163D

 29 29  0     1  0  0  0  0  0999 V2000
   -2.9561   -3.9186    1.3887 H   0  0  0  0  0  0  0  0  0  0  0  0
   -3.1191   -2.9346    0.9517 C   0  0  0  0  0  0  0  0  0  0  0  0
   -3.7811   -2.3546    1.5917 H   0  0  0  0  0  0  0  0  0  0  0  0
   -3.5591   -3.0406   -0.0383 H   0  0  0  0  0  0  0  0  0  0  0  0
   -1.7921   -2.2226    0.8327 C   0  0  0  0  0  0  0  0  0  0  0  0
   -0.7611   -2.7766    1.1927 O   0  0  0  0  0  0  0  0  0  0  0  0
   -1.8201   -0.9926    0.3247 N   0  0  0  0  0  0  0  0  0  0  0  0
   -2.7141   -0.5816    0.0927 H   0  0  0  0  0  0  0  0  0  0  0  0
   -0.6481   -0.1156    0.2017 C   0  0  1  0  0  0  0  0  0  0  0  0
    0.1042   -0.6345   -0.3958 H   0  0  0  0  0  0  0  0  0  0  0  0
   -1.0420    1.1781   -0.5372 C   0  0  0  0  0  0  0  0  0  0  0  0
   -1.8493    0.9702   -1.2410 H   0  0  0  0  0  0  0  0  0  0  0  0
   -1.4117    1.9139    0.1783 H   0  0  0  0  0  0  0  0  0  0  0  0
    0.0986    1.7737   -1.3261 C   0  0  0  0  0  0  0  0  0  0  0  0
    1.1869    2.4663   -0.7938 N   0  0  0  0  0  0  0  0  0  0  0  0
    1.9750    2.7720   -1.8348 C   0  0  0  0  0  0  0  0  0  0  0  0
    2.9032    3.3243   -1.7590 H   0  0  0  0  0  0  0  0  0  0  0  0
    1.4543    2.2892   -2.9755 N   0  0  0  0  0  0  0  0  0  0  0  0
    1.8722    2.3726   -3.8921 H   0  0  0  0  0  0  0  0  0  0  0  0
    0.2712    1.6520   -2.6740 C   0  0  0  0  0  0  0  0  0  0  0  0
   -0.3924    1.1332   -3.3542 H   0  0  0  0  0  0  0  0  0  0  0  0
   -0.0283    0.1609    1.5831 C   0  0  0  0  0  0  0  0  0  0  0  0
    1.1923    0.1056    1.7329 O   0  0  0  0  0  0  0  0  0  0  0  0
   -0.8586    0.4659    2.5853 N   0  0  0  0  0  0  0  0  0  0  0  0
   -1.8521    0.3848    2.4000 H   0  0  0  0  0  0  0  0  0  0  0  0
   -0.4403    0.7694    3.9518 C   0  0  0  0  0  0  0  0  0  0  0  0
    0.5066    1.3154    3.9421 H   0  0  0  0  0  0  0  0  0  0  0  0
   -1.1988    1.3789    4.4452 H   0  0  0  0  0  0  0  0  0  0  0  0
   -0.3053   -0.1600    4.5075 H   0  0  0  0  0  0  0  0  0  0  0  0
  5  6  2  0  0  0  0
  5  7  1  0  0  0  0
  2  3  1  0  0  0  0
  2  4  1  0  0  0  0
  2  5  1  0  0  0  0
  1  2  1  0  0  0  0
 22 23  2  0  0  0  0
 22 24  1  0  0  0  0
 20 21  1  0  0  0  0
 18 19  1  0  0  0  0
 18 20  1  0  0  0  0
 16 17  1  0  0  0  0
 16 18  1  0  0  0  0
 15 16  2  0  0  0  0
 14 15  1  0  0  0  0
 14 20  2  0  0  0  0
 11 12  1  0  0  0  0
 11 13  1  0  0  0  0
 11 14  1  0  0  0  0
  9 10  1  0  0  0  0
  9 11  1  0  0  0  0
  9 22  1  0  0  0  0
  7  8  1  0  0  0  0
  7  9  1  0  0  0  0
 26 27  1  0  0  0  0
 26 28  1  0  0  0  0
 26 29  1  0  0  0  0
 24 25  1  0  0  0  0
 24 26  1  0  0  0  0
M  END
$$$$
default_name
  -OEChem-02102213163D

 29 29  0     1  0  0  0  0  0999 V2000
   -2.9561   -3.9186    1.3887 H   0  0  0  0  0  0  0  0  0  0  0  0
   -3.1191   -2.9346    0.9517 C   0  0  0  0  0  0  0  0  0  0  0  0
   -3.7811   -2.3546    1.5917 H   0  0  0  0  0  0  0  0  0  0  0  0
   -3.5591   -3.0406   -0.0383 H   0  0  0  0  0  0  0  0  0  0  0  0
   -1.7921   -2.2226    0.8327 C   0  0  0  0  0  0  0  0  0  0  0  0
   -0.7611   -2.7766    1.1927 O   0  0  0  0  0  0  0  0  0  0  0  0
   -1.8201   -0.9926    0.3247 N   0  0  0  0  0  0  0  0  0  0  0  0
   -2.7141   -0.5816    0.0927 H   0  0  0  0  0  0  0  0  0  0  0  0
   -0.6481   -0.1156    0.2017 C   0  0  1  0  0  0  0  0  0  0  0  0
    0.1042   -0.6345   -0.3958 H   0  0  0  0  0  0  0  0  0  0  0  0
   -1.0420    1.1781   -0.5372 C   0  0  0  0  0  0  0  0  0  0  0  0
   -1.8493    0.9702   -1.2410 H   0  0  0  0  0  0  0  0  0  0  0  0
   -1.4117    1.9139    0.1783 H   0  0  0  0  0  0  0  0  0  0  0  0
    0.0986    1.7737   -1.3261 C   0  0  0  0  0  0  0  0  0  0  0  0
    1.3189    2.2023   -0.8022 N   0  0  0  0  0  0  0  0  0  0  0  0
    2.0477    2.6116   -1.8509 C   0  0  0  0  0  0  0  0  0  0  0  0
    3.0494    3.0165   -1.7801 H   0  0  0  0  0  0  0  0  0  0  0  0
    1.3632    2.4390   -2.9941 N   0  0  0  0  0  0  0  0  0  0  0  0
    1.7059    2.6534   -3.9206 H   0  0  0  0  0  0  0  0  0  0  0  0
    0.1315    1.9070   -2.6835 C   0  0  0  0  0  0  0  0  0  0  0  0
   -0.6582    1.6240   -3.3680 H   0  0  0  0  0  0  0  0  0  0  0  0
   -0.0283    0.1609    1.5831 C   0  0  0  0  0  0  0  0  0  0  0  0
    1.1923    0.1056    1.7329 O   0  0  0  0  0  0  0  0  0  0  0  0
   -0.8586    0.4659    2.5853 N   0  0  0  0  0  0  0  0  0  0  0  0
   -1.8521    0.3848    2.4000 H   0  0  0  0  0  0  0  0  0  0  0  0
   -0.4403    0.7694    3.9518 C   0  0  0  0  0  0  0  0  0  0  0  0
    0.5066    1.3154    3.9421 H   0  0  0  0  0  0  0  0  0  0  0  0
   -1.1988    1.3789    4.4452 H   0  0  0  0  0  0  0  0  0  0  0  0
   -0.3053   -0.1600    4.5075 H   0  0  0  0  0  0  0  0  0  0  0  0
  5  6  2  0  0  0  0
  5  7  1  0  0  0  0
  2  3  1  0  0  0  0
  2  4  1  0  0  0  0
  2  5  1  0  0  0  0
  1  2  1  0  0  0  0
 22 23  2  0  0  0  0
 22 24  1  0  0  0  0
 20 21  1  0  0  0  0
 18 19  1  0  0  0  0
 18 20  1  0  0  0  0
 16 17  1  0  0  0  0
 16 18  1  0  0  0  0
 15 16  2  0  0  0  0
 14 15  1  0  0  0  0
 14 20  2  0  0  0  0
 11 12  1  0  0  0  0
 11 13  1  0  0  0  0
 11 14  1  0  0  0  0
  9 10  1  0  0  0  0
  9 11  1  0  0  0  0
  9 22  1  0  0  0  0
  7  8  1  0  0  0  0
  7  9  1  0  0  0  0
 26 27  1  0  0  0  0
 26 28  1  0  0  0  0
 26 29  1  0  0  0  0
 24 25  1  0  0  0  0
 24 26  1  0  0  0  0
M  END
$$$$
default_name
  -OEChem-02102213163D

 29 29  0     1  0  0  0  0  0999 V2000
   -2.9561   -3.9186    1.3887 H   0  0  0  0  0  0  0  0  0  0  0  0
   -3.1191   -2.9346    0.9517 C   0  0  0  0  0  0  0  0  0  0  0  0
   -3.7811   -2.3546    1.5917 H   0  0  0  0  0  0  0  0  0  0  0  0
   -3.5591   -3.0406   -0.0383 H   0  0  0  0  0  0  0  0  0  0  0  0
   -1.7921   -2.2226    0.8327 C   0  0  0  0  0  0  0  0  0  0  0  0
   -0.7611   -2.7766    1.1927 O   0  0  0  0  0  0  0  0  0  0  0  0
   -1.8201   -0.9926    0.3247 N   0  0  0  0  0  0  0  0  0  0  0  0
   -2.7141   -0.5816    0.0927 H   0  0  0  0  0  0  0  0  0  0  0  0
   -0.6481   -0.1156    0.2017 C   0  0  1  0  0  0  0  0  0  0  0  0
    0.1042   -0.6345   -0.3958 H   0  0  0  0  0  0  0  0  0  0  0  0
   -1.0420    1.1781   -0.5372 C   0  0  0  0  0  0  0  0  0  0  0  0
   -1.8493    0.9702   -1.2410 H   0  0  0  0  0  0  0  0  0  0  0  0
   -1.4117    1.9139    0.1783 H   0  0  0  0  0  0  0  0  0  0  0  0
    0.0986    1.7737   -1.3261 C   0  0  0  0  0  0  0  0  0  0  0  0
    1.4099    1.9312   -0.8754 N   0  0  0  0  0  0  0  0  0  0  0  0
    2.0946    2.4500   -1.9051 C   0  0  0  0  0  0  0  0  0  0  0  0
    3.1468    2.7035   -1.8755 H   0  0  0  0  0  0  0  0  0  0  0  0
    1.2936    2.5996   -2.9735 N   0  0  0  0  0  0  0  0  0  0  0  0
    1.5803    2.9527   -3.8762 H   0  0  0  0  0  0  0  0  0  0  0  0
    0.0301    2.1741   -2.6285 C   0  0  0  0  0  0  0  0  0  0  0  0
   -0.8499    2.1367   -3.2582 H   0  0  0  0  0  0  0  0  0  0  0  0
   -0.0283    0.1609    1.5831 C   0  0  0  0  0  0  0  0  0  0  0  0
    1.1923    0.1056    1.7329 O   0  0  0  0  0  0  0  0  0  0  0  0
   -0.8586    0.4659    2.5853 N   0  0  0  0  0  0  0  0  0  0  0  0
   -1.8521    0.3848    2.4000 H   0  0  0  0  0  0  0  0  0  0  0  0
   -0.4403    0.7694    3.9518 C   0  0  0  0  0  0  0  0  0  0  0  0
    0.5066    1.3154    3.9421 H   0  0  0  0  0  0  0  0  0  0  0  0
   -1.1988    1.3789    4.4452 H   0  0  0  0  0  0  0  0  0  0  0  0
   -0.3053   -0.1600    4.5075 H   0  0  0  0  0  0  0  0  0  0  0  0
  5  6  2  0  0  0  0
  5  7  1  0  0  0  0
  2  3  1  0  0  0  0
  2  4  1  0  0  0  0
  2  5  1  0  0  0  0
  1  2  1  0  0  0  0
 22 23  2  0  0  0  0
 22 24  1  0  0  0  0
 20 21  1  0  0  0  0
 18 19  1  0  0  0  0
 18 20  1  0  0  0  0
 16 17  1  0  0  0  0
 16 18  1  0  0  0  0
 15 16  2  0  0  0  0
 14 15  1  0  0  0  0
 14 20  2  0  0  0  0
 11 12  1  0  0  0  0
 11 13  1  0  0  0  0
 11 14  1  0  0  0  0
  9 10  1  0  0  0  0
  9 11  1  0  0  0  0
  9 22  1  0  0  0  0
  7  8  1  0  0  0  0
  7  9  1  0  0  0  0
 26 27  1  0  0  0  0
 26 28  1  0  0  0  0
 26 29  1  0  0  0  0
 24 25  1  0  0  0  0
 24 26  1  0  0  0  0
M  END
$$$$
default_name
  -OEChem-02102213163D

 29 29  0     1  0  0  0  0  0999 V2000
   -2.9561   -3.9186    1.3887 H   0  0  0  0  0  0  0  0  0  0  0  0
   -3.1191   -2.9346    0.9517 C   0  0  0  0  0  0  0  0  0  0  0  0
   -3.7811   -2.3546    1.5917 H   0  0  0  0  0  0  0  0  0  0  0  0
   -3.5591   -3.0406   -0.0383 H   0  0  0  0  0  0  0  0  0  0  0  0
   -1.7921   -2.2226    0.8327 C   0  0  0  0  0  0  0  0  0  0  0  0
   -0.7611   -2.7766    1.1927 O   0  0  0  0  0  0  0  0  0  0  0  0
   -1.8201   -0.9926    0.3247 N   0  0  0  0  0  0  0  0  0  0  0  0
   -2.7141   -0.5816    0.0927 H   0  0  0  0  0  0  0  0  0  0  0  0
   -0.6481   -0.1156    0.2017 C   0  0  1  0  0  0  0  0  0  0  0  0
    0.1042   -0.6345   -0.3958 H   0  0  0  0  0  0  0  0  0  0  0  0
   -1.0420    1.1781   -0.5372 C   0  0  0  0  0  0  0  0  0  0  0  0
   -1.8493    0.9702   -1.2410 H   0  0  0  0  0  0  0  0  0  0  0  0
   -1.4117    1.9139    0.1783 H   0  0  0  0  0  0  0  0  0  0  0  0
    0.0986    1.7737   -1.3261 C   0  0  0  0  0  0  0  0  0  0  0  0
    1.4536    1.6712   -1.0084 N   0  0  0  0  0  0  0  0  0  0  0  0
    2.1124    2.2981   -1.9939 C   0  0  0  0  0  0  0  0  0  0  0  0
    3.1887    2.4067   -2.0389 H   0  0  0  0  0  0  0  0  0  0  0  0
    1.2502    2.7601   -2.9151 N   0  0  0  0  0  0  0  0  0  0  0  0
    1.5040    3.2501   -3.7620 H   0  0  0  0  0  0  0  0  0  0  0  0
   -0.0261    2.4350   -2.5128 C   0  0  0  0  0  0  0  0  0  0  0  0
   -0.9546    2.6365   -3.0323 H   0  0  0  0  0  0  0  0  0  0  0  0
   -0.0283    0.1609    1.5831 C   0  0  0  0  0  0  0  0  0  0  0  0
    1.1923    0.1056    1.7329 O   0  0  0  0  0  0  0  0  0  0  0  0
   -0.8586    0.4659    2.5853 N   0  0  0  0  0  0  0  0  0  0  0  0
   -1.8521    0.3848    2.4000 H   0  0  0  0  0  0  0  0  0  0  0  0
   -0.4403    0.7694    3.9518 C   0  0  0  0  0  0  0  0  0  0  0  0
    0.5066    1.3154    3.9421 H   0  0  0  0  0  0  0  0  0  0  0  0
   -1.1988    1.3789    4.4452 H   0  0  0  0  0  0  0  0  0  0  0  0
   -0.3053   -0.1600    4.5075 H   0  0  0  0  0  0  0  0  0  0  0  0
  5  6  2  0  0  0  0
  5  7  1  0  0  0  0
  2  3  1  0  0  0  0
  2  4  1  0  0  0  0
  2  5  1  0  0  0  0
  1  2  1  0  0  0  0
 22 23  2  0  0  0  0
 22 24  1  0  0  0  0
 20 21  1  0  0  0  0
 18 19  1  0  0  0  0
 18 20  1  0  0  0  0
 16 17  1  0  0  0  0
 16 18  1  0  0  0  0
 15 16  2  0  0  0  0
 14 15  1  0  0  0  0
 14 20  2  0  0  0  0
 11 12  1  0  0  0  0
 11 13  1  0  0  0  0
 11 14  1  0  0  0  0
  9 10  1  0  0  0  0
  9 11  1  0  0  0  0
  9 22  1  0  0  0  0
  7  8  1  0  0  0  0
  7  9  1  0  0  0  0
 26 27  1  0  0  0  0
 26 28  1  0  0  0  0
 26 29  1  0  0  0  0
 24 25  1  0  0  0  0
 24 26  1  0  0  0  0
M  END
$$$$
default_name
  -OEChem-02102213163D

 29 29  0     1  0  0  0  0  0999 V2000
   -2.9561   -3.9186    1.3887 H   0  0  0  0  0  0  0  0  0  0  0  0
   -3.1191   -2.9346    0.9517 C   0  0  0  0  0  0  0  0  0  0  0  0
   -3.7811   -2.3546    1.5917 H   0  0  0  0  0  0  0  0  0  0  0  0
   -3.5591   -3.0406   -0.0383 H   0  0  0  0  0  0  0  0  0  0  0  0
   -1.7921   -2.2226    0.8327 C   0  0  0  0  0  0  0  0  0  0  0  0
   -0.7611   -2.7766    1.1927 O   0  0  0  0  0  0  0  0  0  0  0  0
   -1.8201   -0.9926    0.3247 N   0  0  0  0  0  0  0  0  0  0  0  0
   -2.7141   -0.5816    0.0927 H   0  0  0  0  0  0  0  0  0  0  0  0
   -0.6481   -0.1156    0.2017 C   0  0  1  0  0  0  0  0  0  0  0  0
    0.1042   -0.6345   -0.3958 H   0  0  0  0  0  0  0  0  0  0  0  0
   -1.0420    1.1781   -0.5372 C   0  0  0  0  0  0  0  0  0  0  0  0
   -1.8493    0.9702   -1.2410 H   0  0  0  0  0  0  0  0  0  0  0  0
   -1.4117    1.9139    0.1783 H   0  0  0  0  0  0  0  0  0  0  0  0
    0.0986    1.7737   -1.3261 C   0  0  0  0  0  0  0  0  0  0  0  0
    1.4471    1.4403   -1.1922 N   0  0  0  0  0  0  0  0  0  0  0  0
    2.1001    2.1664   -2.1113 C   0  0  0  0  0  0  0  0  0  0  0  0
    3.1725    2.1463   -2.2590 H   0  0  0  0  0  0  0  0  0  0  0  0
    1.2360    2.9096   -2.8228 N   0  0  0  0  0  0  0  0  0  0  0  0
    1.4822    3.5254   -3.5857 H   0  0  0  0  0  0  0  0  0  0  0  0
   -0.0334    2.6721   -2.3443 C   0  0  0  0  0  0  0  0  0  0  0  0
   -0.9650    3.0891   -2.7056 H   0  0  0  0  0  0  0  0  0  0  0  0
   -0.0283    0.1609    1.5831 C   0  0  0  0  0  0  0  0  0  0  0  0
    1.1923    0.1056    1.7329 O   0  0  0  0  0  0  0  0  0  0  0  0
   -0.8586    0.4659    2.5853 N   0  0  0  0  0  0  0  0  0  0  0  0
   -1.8521    0.3848    2.4000 H   0  0  0  0  0  0  0  0  0  0  0  0
   -0.4403    0.7694    3.9518 C   0  0  0  0  0  0  0  0  0  0  0  0
    0.5066    1.3154    3.9421 H   0  0  0  0  0  0  0  0  0  0  0  0
   -1.1988    1.3789    4.4452 H   0  0  0  0  0  0  0  0  0  0  0  0
   -0.3053   -0.1600    4.5075 H   0  0  0  0  0  0  0  0  0  0  0  0
  5  6  2  0  0  0  0
  5  7  1  0  0  0  0
  2  3  1  0  0  0  0
  2  4  1  0  0  0  0
  2  5  1  0  0  0  0
  1  2  1  0  0  0  0
 22 23  2  0  0  0  0
 22 24  1  0  0  0  0
 20 21  1  0  0  0  0
 18 19  1  0  0  0  0
 18 20  1  0  0  0  0
 16 17  1  0  0  0  0
 16 18  1  0  0  0  0
 15 16  2  0  0  0  0
 14 15  1  0  0  0  0
 14 20  2  0  0  0  0
 11 12  1  0  0  0  0
 11 13  1  0  0  0  0
 11 14  1  0  0  0  0
  9 10  1  0  0  0  0
  9 11  1  0  0  0  0
  9 22  1  0  0  0  0
  7  8  1  0  0  0  0
  7  9  1  0  0  0  0
 26 27  1  0  0  0  0
 26 28  1  0  0  0  0
 26 29  1  0  0  0  0
 24 25  1  0  0  0  0
 24 26  1  0  0  0  0
M  END
$$$$
default_name
  -OEChem-02102213163D

 29 29  0     1  0  0  0  0  0999 V2000
   -2.9561   -3.9186    1.3887 H   0  0  0  0  0  0  0  0  0  0  0  0
   -3.1191   -2.9346    0.9517 C   0  0  0  0  0  0  0  0  0  0  0  0
   -3.7811   -2.3546    1.5917 H   0  0  0  0  0  0  0  0  0  0  0  0
   -3.5591   -3.0406   -0.0383 H   0  0  0  0  0  0  0  0  0  0  0  0
   -1.7921   -2.2226    0.8327 C   0  0  0  0  0  0  0  0  0  0  0  0
   -0.7611   -2.7766    1.1927 O   0  0  0  0  0  0  0  0  0  0  0  0
   -1.8201   -0.9926    0.3247 N   0  0  0  0  0  0  0  0  0  0  0  0
   -2.7141   -0.5816    0.0927 H   0  0  0  0  0  0  0  0  0  0  0  0
   -0.6481   -0.1156    0.2017 C   0  0  1  0  0  0  0  0  0  0  0  0
    0.1042   -0.6345   -0.3958 H   0  0  0  0  0  0  0  0  0  0  0  0
   -1.0420    1.1781   -0.5372 C   0  0  0  0  0  0  0  0  0  0  0  0
   -1.8493    0.9702   -1.2410 H   0  0  0  0  0  0  0  0  0  0  0  0
   -1.4117    1.9139    0.1783 H   0  0  0  0  0  0  0  0  0  0  0  0
    0.0986    1.7737   -1.3261 C   0  0  0  0  0  0  0  0  0  0  0  0
    1.3908    1.2540   -1.4142 N   0  0  0  0  0  0  0  0  0  0  0  0
    2.0583    2.0638   -2.2491 C   0  0  0  0  0  0  0  0  0  0  0  0
    3.0990    1.9400   -2.5209 H   0  0  0  0  0  0  0  0  0  0  0  0
    1.2519    3.0379   -2.7030 N   0  0  0  0  0  0  0  0  0  0  0  0
    1.5164    3.7597   -3.3593 H   0  0  0  0  0  0  0  0  0  0  0  0
    0.0090    2.8691   -2.1344 C   0  0  0  0  0  0  0  0  0  0  0  0
   -0.8804    3.4639   -2.3004 H   0  0  0  0  0  0  0  0  0  0  0  0
   -0.0283    0.1609    1.5831 C   0  0  0  0  0  0  0  0  0  0  0  0
    1.1923    0.1056    1.7329 O   0  0  0  0  0  0  0  0  0  0  0  0
   -0.8586    0.4659    2.5853 N   0  0  0  0  0  0  0  0  0  0  0  0
   -1.8521    0.3848    2.4000 H   0  0  0  0  0  0  0  0  0  0  0  0
   -0.4403    0.7694    3.9518 C   0  0  0  0  0  0  0  0  0  0  0  0
    0.5066    1.3154    3.9421 H   0  0  0  0  0  0  0  0  0  0  0  0
   -1.1988    1.3789    4.4452 H   0  0  0  0  0  0  0  0  0  0  0  0
   -0.3053   -0.1600    4.5075 H   0  0  0  0  0  0  0  0  0  0  0  0
  5  6  2  0  0  0  0
  5  7  1  0  0  0  0
  2  3  1  0  0  0  0
  2  4  1  0  0  0  0
  2  5  1  0  0  0  0
  1  2  1  0  0  0  0
 22 23  2  0  0  0  0
 22 24  1  0  0  0  0
 20 21  1  0  0  0  0
 18 19  1  0  0  0  0
 18 20  1  0  0  0  0
 16 17  1  0  0  0  0
 16 18  1  0  0  0  0
 15 16  2  0  0  0  0
 14 15  1  0  0  0  0
 14 20  2  0  0  0  0
 11 12  1  0  0  0  0
 11 13  1  0  0  0  0
 11 14  1  0  0  0  0
  9 10  1  0  0  0  0
  9 11  1  0  0  0  0
  9 22  1  0  0  0  0
  7  8  1  0  0  0  0
  7  9  1  0  0  0  0
 26 27  1  0  0  0  0
 26 28  1  0  0  0  0
 26 29  1  0  0  0  0
 24 25  1  0  0  0  0
 24 26  1  0  0  0  0
M  END
$$$$
default_name
  -OEChem-02102213163D

 29 29  0     1  0  0  0  0  0999 V2000
   -2.9561   -3.9186    1.3887 H   0  0  0  0  0  0  0  0  0  0  0  0
   -3.1191   -2.9346    0.9517 C   0  0  0  0  0  0  0  0  0  0  0  0
   -3.7811   -2.3546    1.5917 H   0  0  0  0  0  0  0  0  0  0  0  0
   -3.5591   -3.0406   -0.0383 H   0  0  0  0  0  0  0  0  0  0  0  0
   -1.7921   -2.2226    0.8327 C   0  0  0  0  0  0  0  0  0  0  0  0
   -0.7611   -2.7766    1.1927 O   0  0  0  0  0  0  0  0  0  0  0  0
   -1.8201   -0.9926    0.3247 N   0  0  0  0  0  0  0  0  0  0  0  0
   -2.7141   -0.5816    0.0927 H   0  0  0  0  0  0  0  0  0  0  0  0
   -0.6481   -0.1156    0.2017 C   0  0  1  0  0  0  0  0  0  0  0  0
    0.1042   -0.6345   -0.3958 H   0  0  0  0  0  0  0  0  0  0  0  0
   -1.0420    1.1781   -0.5372 C   0  0  0  0  0  0  0  0  0  0  0  0
   -1.8493    0.9702   -1.2410 H   0  0  0  0  0  0  0  0  0  0  0  0
   -1.4117    1.9139    0.1783 H   0  0  0  0  0  0  0  0  0  0  0  0
    0.0986    1.7737   -1.3261 C   0  0  0  0  0  0  0  0  0  0  0  0
    1.2885    1.1252   -1.6594 N   0  0  0  0  0  0  0  0  0  0  0  0
    1.9900    1.9973   -2.3980 C   0  0  0  0  0  0  0  0  0  0  0  0
    2.9734    1.8020   -2.8068 H   0  0  0  0  0  0  0  0  0  0  0  0
    1.2968    3.1362   -2.5638 N   0  0  0  0  0  0  0  0  0  0  0  0
    1.6043    3.9372   -3.0983 H   0  0  0  0  0  0  0  0  0  0  0  0
    0.0979    3.0125   -1.8975 C   0  0  0  0  0  0  0  0  0  0  0  0
   -0.7067    3.7352   -1.8444 H   0  0  0  0  0  0  0  0  0  0  0  0
   -0.0283    0.1609    1.5831 C   0  0  0  0  0  0  0  0  0  0  0  0
    1.1923    0.1056    1.7329 O   0  0  0  0  0  0  0  0  0  0  0  0
   -0.8586    0.4659    2.5853 N   0  0  0  0  0  0  0  0  0  0  0  0
   -1.8521    0.3848    2.4000 H   0  0  0  0  0  0  0  0  0  0  0  0
   -0.4403    0.7694    3.9518 C   0  0  0  0  0  0  0  0  0  0  0  0
    0.5066    1.3154    3.9421 H   0  0  0  0  0  0  0  0  0  0  0  0
   -1.1988    1.3789    4.4452 H   0  0  0  0  0  0  0  0  0  0  0  0
   -0.3053   -0.1600    4.5075 H   0  0  0  0  0  0  0  0  0  0  0  0
  5  6  2  0  0  0  0
  5  7  1  0  0  0  0
  2  3  1  0  0  0  0
  2  4  1  0  0  0  0
  2  5  1  0  0  0  0
  1  2  1  0  0  0  0
 22 23  2  0  0  0  0
 22 24  1  0  0  0  0
 20 21  1  0  0  0  0
 18 19  1  0  0  0  0
 18 20  1  0  0  0  0
 16 17  1  0  0  0  0
 16 18  1  0  0  0  0
 15 16  2  0  0  0  0
 14 15  1  0  0  0  0
 14 20  2  0  0  0  0
 11 12  1  0  0  0  0
 11 13  1  0  0  0  0
 11 14  1  0  0  0  0
  9 10  1  0  0  0  0
  9 11  1  0  0  0  0
  9 22  1  0  0  0  0
  7  8  1  0  0  0  0
  7  9  1  0  0  0  0
 26 27  1  0  0  0  0
 26 28  1  0  0  0  0
 26 29  1  0  0  0  0
 24 25  1  0  0  0  0
 24 26  1  0  0  0  0
M  END
$$$$
default_name
  -OEChem-02102213163D

 29 29  0     1  0  0  0  0  0999 V2000
   -2.9561   -3.9186    1.3887 H   0  0  0  0  0  0  0  0  0  0  0  0
   -3.1191   -2.9346    0.9517 C   0  0  0  0  0  0  0  0  0  0  0  0
   -3.7811   -2.3546    1.5917 H   0  0  0  0  0  0  0  0  0  0  0  0
   -3.5591   -3.0406   -0.0383 H   0  0  0  0  0  0  0  0  0  0  0  0
   -1.7921   -2.2226    0.8327 C   0  0  0  0  0  0  0  0  0  0  0  0
   -0.7611   -2.7766    1.1927 O   0  0  0  0  0  0  0  0  0  0  0  0
   -1.8201   -0.9926    0.3247 N   0  0  0  0  0  0  0  0  0  0  0  0
   -2.7141   -0.5816    0.0927 H   0  0  0  0  0  0  0  0  0  0  0  0
   -0.6481   -0.1156    0.2017 C   0  0  1  0  0  0  0  0  0  0  0  0
    0.1042   -0.6345   -0.3958 H   0  0  0  0  0  0  0  0  0  0  0  0
   -1.0420    1.1781   -0.5372 C   0  0  0  0  0  0  0  0  0  0  0  0
   -1.8493    0.9702   -1.2410 H   0  0  0  0  0  0  0  0  0  0  0  0
   -1.4117    1.9139    0.1783 H   0  0  0  0  0  0  0  0  0  0  0  0
    0.0986    1.7737   -1.3261 C   0  0  0  0  0  0  0  0  0  0  0  0
    1.1472    1.0625   -1.9109 N   0  0  0  0  0  0  0  0  0  0  0  0
    1.8999    1.9714   -2.5479 C   0  0  0  0  0  0  0  0  0  0  0  0
    2.8043    1.7415   -3.0970 H   0  0  0  0  0  0  0  0  0  0  0  0
    1.3677    3.1979   -2.4147 N   0  0  0  0  0  0  0  0  0  0  0  0
    1.7398    4.0457   -2.8205 H   0  0  0  0  0  0  0  0  0  0  0  0
    0.2275    3.0928   -1.6496 C   0  0  0  0  0  0  0  0  0  0  0  0
   -0.4556    3.8845   -1.3686 H   0  0  0  0  0  0  0  0  0  0  0  0
   -0.0283    0.1609    1.5831 C   0  0  0  0  0  0  0  0  0  0  0  0
    1.1923    0.1056    1.7329 O   0  0  0  0  0  0  0  0  0  0  0  0
   -0.8586    0.4659    2.5853 N   0  0  0  0  0  0  0  0  0  0  0  0
   -1.8521    0.3848    2.4000 H   0  0  0  0  0  0  0  0  0  0  0  0
   -0.4403    0.7694    3.9518 C   0  0  0  0  0  0  0  0  0  0  0  0
    0.5066    1.3154    3.9421 H   0  0  0  0  0  0  0  0  0  0  0  0
   -1.1988    1.3789    4.4452 H   0  0  0  0  0  0  0  0  0  0  0  0
   -0.3053   -0.1600    4.5075 H   0  0  0  0  0  0  0  0  0  0  0  0
  5  6  2  0  0  0  0
  5  7  1  0  0  0  0
  2  3  1  0  0  0  0
  2  4  1  0  0  0  0
  2  5  1  0  0  0  0
  1  2  1  0  0  0  0
 22 23  2  0  0  0  0
 22 24  1  0  0  0  0
 20 21  1  0  0  0  0
 18 19  1  0  0  0  0
 18 20  1  0  0  0  0
 16 17  1  0  0  0  0
 16 18  1  0  0  0  0
 15 16  2  0  0  0  0
 14 15  1  0  0  0  0
 14 20  2  0  0  0  0
 11 12  1  0  0  0  0
 11 13  1  0  0  0  0
 11 14  1  0  0  0  0
  9 10  1  0  0  0  0
  9 11  1  0  0  0  0
  9 22  1  0  0  0  0
  7  8  1  0  0  0  0
  7  9  1  0  0  0  0
 26 27  1  0  0  0  0
 26 28  1  0  0  0  0
 26 29  1  0  0  0  0
 24 25  1  0  0  0  0
 24 26  1  0  0  0  0
M  END
$$$$
default_name
  -OEChem-02102213163D

 29 29  0     1  0  0  0  0  0999 V2000
   -2.9561   -3.9186    1.3887 H   0  0  0  0  0  0  0  0  0  0  0  0
   -3.1191   -2.9346    0.9517 C   0  0  0  0  0  0  0  0  0  0  0  0
   -3.7811   -2.3546    1.5917 H   0  0  0  0  0  0  0  0  0  0  0  0
   -3.5591   -3.0406   -0.0383 H   0  0  0  0  0  0  0  0  0  0  0  0
   -1.7921   -2.2226    0.8327 C   0  0  0  0  0  0  0  0  0  0  0  0
   -0.7611   -2.7766    1.1927 O   0  0  0  0  0  0  0  0  0  0  0  0
   -1.8201   -0.9926    0.3247 N   0  0  0  0  0  0  0  0  0  0  0  0
   -2.7141   -0.5816    0.0927 H   0  0  0  0  0  0  0  0  0  0  0  0
   -0.6481   -0.1156    0.2017 C   0  0  1  0  0  0  0  0  0  0  0  0
    0.1042   -0.6345   -0.3958 H   0  0  0  0  0  0  0  0  0  0  0  0
   -1.0420    1.1781   -0.5372 C   0  0  0  0  0  0  0  0  0  0  0  0
   -1.8493    0.9702   -1.2410 H   0  0  0  0  0  0  0  0  0  0  0  0
   -1.4117    1.9139    0.1783 H   0  0  0  0  0  0  0  0  0  0  0  0
    0.0986    1.7737   -1.3261 C   0  0  0  0  0  0  0  0  0  0  0  0
    0.9766    1.0702   -2.1518 N   0  0  0  0  0  0  0  0  0  0  0  0
    1.7940    1.9879   -2.6886 C   0  0  0  0  0  0  0  0  0  0  0  0
    2.6030    1.7627   -3.3720 H   0  0  0  0  0  0  0  0  0  0  0  0
    1.4598    3.2187   -2.2658 N   0  0  0  0  0  0  0  0  0  0  0  0
    1.9138    4.0777   -2.5447 H   0  0  0  0  0  0  0  0  0  0  0  0
    0.3887    3.1042   -1.4078 C   0  0  0  0  0  0  0  0  0  0  0  0
   -0.1443    3.9017   -0.9055 H   0  0  0  0  0  0  0  0  0  0  0  0
   -0.0283    0.1609    1.5831 C   0  0  0  0  0  0  0  0  0  0  0  0
    1.1923    0.1056    1.7329 O   0  0  0  0  0  0  0  0  0  0  0  0
   -0.8586    0.4659    2.5853 N   0  0  0  0  0  0  0  0  0  0  0  0
   -1.8521    0.3848    2.4000 H   0  0  0  0  0  0  0  0  0  0  0  0
   -0.4403    0.7694    3.9518 C   0  0  0  0  0  0  0  0  0  0  0  0
    0.5066    1.3154    3.9421 H   0  0  0  0  0  0  0  0  0  0  0  0
   -1.1988    1.3789    4.4452 H   0  0  0  0  0  0  0  0  0  0  0  0
   -0.3053   -0.1600    4.5075 H   0  0  0  0  0  0  0  0  0  0  0  0
  5  6  2  0  0  0  0
  5  7  1  0  0  0  0
  2  3  1  0  0  0  0
  2  4  1  0  0  0  0
  2  5  1  0  0  0  0
  1  2  1  0  0  0  0
 22 23  2  0  0  0  0
 22 24  1  0  0  0  0
 20 21  1  0  0  0  0
 18 19  1  0  0  0  0
 18 20  1  0  0  0  0
 16 17  1  0  0  0  0
 16 18  1  0  0  0  0
 15 16  2  0  0  0  0
 14 15  1  0  0  0  0
 14 20  2  0  0  0  0
 11 12  1  0  0  0  0
 11 13  1  0  0  0  0
 11 14  1  0  0  0  0
  9 10  1  0  0  0  0
  9 11  1  0  0  0  0
  9 22  1  0  0  0  0
  7  8  1  0  0  0  0
  7  9  1  0  0  0  0
 26 27  1  0  0  0  0
 26 28  1  0  0  0  0
 26 29  1  0  0  0  0
 24 25  1  0  0  0  0
 24 26  1  0  0  0  0
M  END
$$$$
default_name
  -OEChem-02102213163D

 29 29  0     1  0  0  0  0  0999 V2000
   -2.9561   -3.9186    1.3887 H   0  0  0  0  0  0  0  0  0  0  0  0
   -3.1191   -2.9346    0.9517 C   0  0  0  0  0  0  0  0  0  0  0  0
   -3.7811   -2.3546    1.5917 H   0  0  0  0  0  0  0  0  0  0  0  0
   -3.5591   -3.0406   -0.0383 H   0  0  0  0  0  0  0  0  0  0  0  0
   -1.7921   -2.2226    0.8327 C   0  0  0  0  0  0  0  0  0  0  0  0
   -0.7611   -2.7766    1.1927 O   0  0  0  0  0  0  0  0  0  0  0  0
   -1.8201   -0.9926    0.3247 N   0  0  0  0  0  0  0  0  0  0  0  0
   -2.7141   -0.5816    0.0927 H   0  0  0  0  0  0  0  0  0  0  0  0
   -0.6481   -0.1156    0.2017 C   0  0  1  0  0  0  0  0  0  0  0  0
    0.1042   -0.6345   -0.3958 H   0  0  0  0  0  0  0  0  0  0  0  0
   -1.0420    1.1781   -0.5372 C   0  0  0  0  0  0  0  0  0  0  0  0
   -1.8493    0.9702   -1.2410 H   0  0  0  0  0  0  0  0  0  0  0  0
   -1.4117    1.9139    0.1783 H   0  0  0  0  0  0  0  0  0  0  0  0
    0.0986    1.7737   -1.3261 C   0  0  0  0  0  0  0  0  0  0  0  0
    0.7883    1.1479   -2.3654 N   0  0  0  0  0  0  0  0  0  0  0  0
    1.6796    2.0457   -2.8104 C   0  0  0  0  0  0  0  0  0  0  0  0
    2.3834    1.8642   -3.6128 H   0  0  0  0  0  0  0  0  0  0  0  0
    1.5667    3.1972   -2.1274 N   0  0  0  0  0  0  0  0  0  0  0  0
    2.1143    4.0313   -2.2899 H   0  0  0  0  0  0  0  0  0  0  0  0
    0.5708    3.0462   -1.1884 C   0  0  0  0  0  0  0  0  0  0  0  0
    0.2061    3.7857   -0.4865 H   0  0  0  0  0  0  0  0  0  0  0  0
   -0.0283    0.1609    1.5831 C   0  0  0  0  0  0  0  0  0  0  0  0
    1.1923    0.1056    1.7329 O   0  0  0  0  0  0  0  0  0  0  0  0
   -0.8586    0.4659    2.5853 N   0  0  0  0  0  0  0  0  0  0  0  0
   -1.8521    0.3848    2.4000 H   0  0  0  0  0  0  0  0  0  0  0  0
   -0.4403    0.7694    3.9518 C   0  0  0  0  0  0  0  0  0  0  0  0
    0.5066    1.3154    3.9421 H   0  0  0  0  0  0  0  0  0  0  0  0
   -1.1988    1.3789    4.4452 H   0  0  0  0  0  0  0  0  0  0  0  0
   -0.3053   -0.1600    4.5075 H   0  0  0  0  0  0  0  0  0  0  0  0
  5  6  2  0  0  0  0
  5  7  1  0  0  0  0
  2  3  1  0  0  0  0
  2  4  1  0  0  0  0
  2  5  1  0  0  0  0
  1  2  1  0  0  0  0
 22 23  2  0  0  0  0
 22 24  1  0  0  0  0
 20 21  1  0  0  0  0
 18 19  1  0  0  0  0
 18 20  1  0  0  0  0
 16 17  1  0  0  0  0
 16 18  1  0  0  0  0
 15 16  2  0  0  0  0
 14 15  1  0  0  0  0
 14 20  2  0  0  0  0
 11 12  1  0  0  0  0
 11 13  1  0  0  0  0
 11 14  1  0  0  0  0
  9 10  1  0  0  0  0
  9 11  1  0  0  0  0
  9 22  1  0  0  0  0
  7  8  1  0  0  0  0
  7  9  1  0  0  0  0
 26 27  1  0  0  0  0
 26 28  1  0  0  0  0
 26 29  1  0  0  0  0
 24 25  1  0  0  0  0
 24 26  1  0  0  0  0
M  END
$$$$
default_name
  -OEChem-02102213163D

 29 29  0     1  0  0  0  0  0999 V2000
   -2.9561   -3.9186    1.3887 H   0  0  0  0  0  0  0  0  0  0  0  0
   -3.1191   -2.9346    0.9517 C   0  0  0  0  0  0  0  0  0  0  0  0
   -3.7811   -2.3546    1.5917 H   0  0  0  0  0  0  0  0  0  0  0  0
   -3.5591   -3.0406   -0.0383 H   0  0  0  0  0  0  0  0  0  0  0  0
   -1.7921   -2.2226    0.8327 C   0  0  0  0  0  0  0  0  0  0  0  0
   -0.7611   -2.7766    1.1927 O   0  0  0  0  0  0  0  0  0  0  0  0
   -1.8201   -0.9926    0.3247 N   0  0  0  0  0  0  0  0  0  0  0  0
   -2.7141   -0.5816    0.0927 H   0  0  0  0  0  0  0  0  0  0  0  0
   -0.6481   -0.1156    0.2017 C   0  0  1  0  0  0  0  0  0  0  0  0
    0.1042   -0.6345   -0.3958 H   0  0  0  0  0  0  0  0  0  0  0  0
   -1.0420    1.1781   -0.5372 C   0  0  0  0  0  0  0  0  0  0  0  0
   -1.8493    0.9702   -1.2410 H   0  0  0  0  0  0  0  0  0  0  0  0
   -1.4117    1.9139    0.1783 H   0  0  0  0  0  0  0  0  0  0  0  0
    0.0986    1.7737   -1.3261 C   0  0  0  0  0  0  0  0  0  0  0  0
    0.5951    1.2902   -2.5374 N   0  0  0  0  0  0  0  0  0  0  0  0
    1.5644    2.1408   -2.9051 C   0  0  0  0  0  0  0  0  0  0  0  0
    2.1605    2.0391   -3.8032 H   0  0  0  0  0  0  0  0  0  0  0  0
    1.6813    3.1350   -2.0088 N   0  0  0  0  0  0  0  0  0  0  0  0
    2.3277    3.9094   -2.0733 H   0  0  0  0  0  0  0  0  0  0  0  0
    0.7612    2.9226   -1.0064 C   0  0  0  0  0  0  0  0  0  0  0  0
    0.5716    3.5442   -0.1403 H   0  0  0  0  0  0  0  0  0  0  0  0
   -0.0283    0.1609    1.5831 C   0  0  0  0  0  0  0  0  0  0  0  0
    1.1923    0.1056    1.7329 O   0  0  0  0  0  0  0  0  0  0  0  0
   -0.8586    0.4659    2.5853 N   0  0  0  0  0  0  0  0  0  0  0  0
   -1.8521    0.3848    2.4000 H   0  0  0  0  0  0  0  0  0  0  0  0
   -0.4403    0.7694    3.9518 C   0  0  0  0  0  0  0  0  0  0  0  0
    0.5066    1.3154    3.9421 H   0  0  0  0  0  0  0  0  0  0  0  0
   -1.1988    1.3789    4.4452 H   0  0  0  0  0  0  0  0  0  0  0  0
   -0.3053   -0.1600    4.5075 H   0  0  0  0  0  0  0  0  0  0  0  0
  5  6  2  0  0  0  0
  5  7  1  0  0  0  0
  2  3  1  0  0  0  0
  2  4  1  0  0  0  0
  2  5  1  0  0  0  0
  1  2  1  0  0  0  0
 22 23  2  0  0  0  0
 22 24  1  0  0  0  0
 20 21  1  0  0  0  0
 18 19  1  0  0  0  0
 18 20  1  0  0  0  0
 16 17  1  0  0  0  0
 16 18  1  0  0  0  0
 15 16  2  0  0  0  0
 14 15  1  0  0  0  0
 14 20  2  0  0  0  0
 11 12  1  0  0  0  0
 11 13  1  0  0  0  0
 11 14  1  0  0  0  0
  9 10  1  0  0  0  0
  9 11  1  0  0  0  0
  9 22  1  0  0  0  0
  7  8  1  0  0  0  0
  7  9  1  0  0  0  0
 26 27  1  0  0  0  0
 26 28  1  0  0  0  0
 26 29  1  0  0  0  0
 24 25  1  0  0  0  0
 24 26  1  0  0  0  0
M  END
$$$$
default_name
  -OEChem-02102213163D

 29 29  0     1  0  0  0  0  0999 V2000
   -2.9561   -3.9186    1.3887 H   0  0  0  0  0  0  0  0  0  0  0  0
   -3.1191   -2.9346    0.9517 C   0  0  0  0  0  0  0  0  0  0  0  0
   -3.7811   -2.3546    1.5917 H   0  0  0  0  0  0  0  0  0  0  0  0
   -3.5591   -3.0406   -0.0383 H   0  0  0  0  0  0  0  0  0  0  0  0
   -1.7921   -2.2226    0.8327 C   0  0  0  0  0  0  0  0  0  0  0  0
   -0.7611   -2.7766    1.1927 O   0  0  0  0  0  0  0  0  0  0  0  0
   -1.8201   -0.9926    0.3247 N   0  0  0  0  0  0  0  0  0  0  0  0
   -2.7141   -0.5816    0.0927 H   0  0  0  0  0  0  0  0  0  0  0  0
   -0.6481   -0.1156    0.2017 C   0  0  1  0  0  0  0  0  0  0  0  0
    0.1042   -0.6345   -0.3958 H   0  0  0  0  0  0  0  0  0  0  0  0
   -1.0420    1.1781   -0.5372 C   0  0  0  0  0  0  0  0  0  0  0  0
   -1.8493    0.9702   -1.2410 H   0  0  0  0  0  0  0  0  0  0  0  0
   -1.4117    1.9139    0.1783 H   0  0  0  0  0  0  0  0  0  0  0  0
    0.0986    1.7737   -1.3261 C   0  0  0  0  0  0  0  0  0  0  0  0
    0.4101    1.4875   -2.6560 N   0  0  0  0  0  0  0  0  0  0  0  0
    1.4564    2.2668   -2.9661 C   0  0  0  0  0  0  0  0  0  0  0  0
    1.9493    2.2754   -3.9301 H   0  0  0  0  0  0  0  0  0  0  0  0
    1.7956    3.0361   -1.9181 N   0  0  0  0  0  0  0  0  0  0  0  0
    2.5395    3.7205   -1.9097 H   0  0  0  0  0  0  0  0  0  0  0  0
    0.9469    2.7419   -0.8742 C   0  0  0  0  0  0  0  0  0  0  0  0
    0.9273    3.1938    0.1095 H   0  0  0  0  0  0  0  0  0  0  0  0
   -0.0283    0.1609    1.5831 C   0  0  0  0  0  0  0  0  0  0  0  0
    1.1923    0.1056    1.7329 O   0  0  0  0  0  0  0  0  0  0  0  0
   -0.8586    0.4659    2.5853 N   0  0  0  0  0  0  0  0  0  0  0  0
   -1.8521    0.3848    2.4000 H   0  0  0  0  0  0  0  0  0  0  0  0
   -0.4403    0.7694    3.9518 C   0  0  0  0  0  0  0  0  0  0  0  0
    0.5066    1.3154    3.9421 H   0  0  0  0  0  0  0  0  0  0  0  0
   -1.1988    1.3789    4.4452 H   0  0  0  0  0  0  0  0  0  0  0  0
   -0.3053   -0.1600    4.5075 H   0  0  0  0  0  0  0  0  0  0  0  0
  5  6  2  0  0  0  0
  5  7  1  0  0  0  0
  2  3  1  0  0  0  0
  2  4  1  0  0  0  0
  2  5  1  0  0  0  0
  1  2  1  0  0  0  0
 22 23  2  0  0  0  0
 22 24  1  0  0  0  0
 20 21  1  0  0  0  0
 18 19  1  0  0  0  0
 18 20  1  0  0  0  0
 16 17  1  0  0  0  0
 16 18  1  0  0  0  0
 15 16  2  0  0  0  0
 14 15  1  0  0  0  0
 14 20  2  0  0  0  0
 11 12  1  0  0  0  0
 11 13  1  0  0  0  0
 11 14  1  0  0  0  0
  9 10  1  0  0  0  0
  9 11  1  0  0  0  0
  9 22  1  0  0  0  0
  7  8  1  0  0  0  0
  7  9  1  0  0  0  0
 26 27  1  0  0  0  0
 26 28  1  0  0  0  0
 26 29  1  0  0  0  0
 24 25  1  0  0  0  0
 24 26  1  0  0  0  0
M  END
$$$$
default_name
  -OEChem-02102213163D

 29 29  0     1  0  0  0  0  0999 V2000
   -2.9561   -3.9186    1.3887 H   0  0  0  0  0  0  0  0  0  0  0  0
   -3.1191   -2.9346    0.9517 C   0  0  0  0  0  0  0  0  0  0  0  0
   -3.7811   -2.3546    1.5917 H   0  0  0  0  0  0  0  0  0  0  0  0
   -3.5591   -3.0406   -0.0383 H   0  0  0  0  0  0  0  0  0  0  0  0
   -1.7921   -2.2226    0.8327 C   0  0  0  0  0  0  0  0  0  0  0  0
   -0.7611   -2.7766    1.1927 O   0  0  0  0  0  0  0  0  0  0  0  0
   -1.8201   -0.9926    0.3247 N   0  0  0  0  0  0  0  0  0  0  0  0
   -2.7141   -0.5816    0.0927 H   0  0  0  0  0  0  0  0  0  0  0  0
   -0.6481   -0.1156    0.2017 C   0  0  1  0  0  0  0  0  0  0  0  0
    0.1042   -0.6345   -0.3958 H   0  0  0  0  0  0  0  0  0  0  0  0
   -1.0420    1.1781   -0.5372 C   0  0  0  0  0  0  0  0  0  0  0  0
   -1.8493    0.9702   -1.2410 H   0  0  0  0  0  0  0  0  0  0  0  0
   -1.4117    1.9139    0.1783 H   0  0  0  0  0  0  0  0  0  0  0  0
    0.0986    1.7737   -1.3261 C   0  0  0  0  0  0  0  0  0  0  0  0
    0.2460    1.7262   -2.7130 N   0  0  0  0  0  0  0  0  0  0  0  0
    1.3629    2.4150   -2.9895 C   0  0  0  0  0  0  0  0  0  0  0  0
    1.7644    2.5570   -3.9849 H   0  0  0  0  0  0  0  0  0  0  0  0
    1.9019    2.9074   -1.8615 N   0  0  0  0  0  0  0  0  0  0  0  0
    2.7353    3.4773   -1.8102 H   0  0  0  0  0  0  0  0  0  0  0  0
    1.1154    2.5163   -0.8009 C   0  0  0  0  0  0  0  0  0  0  0  0
    1.2490    2.7584    0.2460 H   0  0  0  0  0  0  0  0  0  0  0  0
   -0.0283    0.1609    1.5831 C   0  0  0  0  0  0  0  0  0  0  0  0
    1.1923    0.1056    1.7329 O   0  0  0  0  0  0  0  0  0  0  0  0
   -0.8586    0.4659    2.5853 N   0  0  0  0  0  0  0  0  0  0  0  0
   -1.8521    0.3848    2.4000 H   0  0  0  0  0  0  0  0  0  0  0  0
   -0.4403    0.7694    3.9518 C   0  0  0  0  0  0  0  0  0  0  0  0
    0.5066    1.3154    3.9421 H   0  0  0  0  0  0  0  0  0  0  0  0
   -1.1988    1.3789    4.4452 H   0  0  0  0  0  0  0  0  0  0  0  0
   -0.3053   -0.1600    4.5075 H   0  0  0  0  0  0  0  0  0  0  0  0
  5  6  2  0  0  0  0
  5  7  1  0  0  0  0
  2  3  1  0  0  0  0
  2  4  1  0  0  0  0
  2  5  1  0  0  0  0
  1  2  1  0  0  0  0
 22 23  2  0  0  0  0
 22 24  1  0  0  0  0
 20 21  1  0  0  0  0
 18 19  1  0  0  0  0
 18 20  1  0  0  0  0
 16 17  1  0  0  0  0
 16 18  1  0  0  0  0
 15 16  2  0  0  0  0
 14 15  1  0  0  0  0
 14 20  2  0  0  0  0
 11 12  1  0  0  0  0
 11 13  1  0  0  0  0
 11 14  1  0  0  0  0
  9 10  1  0  0  0  0
  9 11  1  0  0  0  0
  9 22  1  0  0  0  0
  7  8  1  0  0  0  0
  7  9  1  0  0  0  0
 26 27  1  0  0  0  0
 26 28  1  0  0  0  0
 26 29  1  0  0  0  0
 24 25  1  0  0  0  0
 24 26  1  0  0  0  0
M  END
$$$$
default_name
  -OEChem-02102213163D

 29 29  0     1  0  0  0  0  0999 V2000
   -2.9561   -3.9186    1.3887 H   0  0  0  0  0  0  0  0  0  0  0  0
   -3.1191   -2.9346    0.9517 C   0  0  0  0  0  0  0  0  0  0  0  0
   -3.7811   -2.3546    1.5917 H   0  0  0  0  0  0  0  0  0  0  0  0
   -3.5591   -3.0406   -0.0383 H   0  0  0  0  0  0  0  0  0  0  0  0
   -1.7921   -2.2226    0.8327 C   0  0  0  0  0  0  0  0  0  0  0  0
   -0.7611   -2.7766    1.1927 O   0  0  0  0  0  0  0  0  0  0  0  0
   -1.8201   -0.9926    0.3247 N   0  0  0  0  0  0  0  0  0  0  0  0
   -2.7141   -0.5816    0.0927 H   0  0  0  0  0  0  0  0  0  0  0  0
   -0.6481   -0.1156    0.2017 C   0  0  1  0  0  0  0  0  0  0  0  0
    0.1042   -0.6345   -0.3958 H   0  0  0  0  0  0  0  0  0  0  0  0
   -1.0420    1.1781   -0.5372 C   0  0  0  0  0  0  0  0  0  0  0  0
   -1.8493    0.9702   -1.2410 H   0  0  0  0  0  0  0  0  0  0  0  0
   -1.4117    1.9139    0.1783 H   0  0  0  0  0  0  0  0  0  0  0  0
    0.0986    1.7737   -1.3261 C   0  0  0  0  0  0  0  0  0  0  0  0
    0.1140    1.9901   -2.7046 N   0  0  0  0  0  0  0  0  0  0  0  0
    1.2902    2.5754   -2.9735 C   0  0  0  0  0  0  0  0  0  0  0  0
    1.6182    2.8648   -3.9639 H   0  0  0  0  0  0  0  0  0  0  0  0
    1.9930    2.7577   -1.8429 N   0  0  0  0  0  0  0  0  0  0  0  0
    2.9016    3.1965   -1.7817 H   0  0  0  0  0  0  0  0  0  0  0  0
    1.2551    2.2613   -0.7914 C   0  0  0  0  0  0  0  0  0  0  0  0
    1.5148    2.2676    0.2598 H   0  0  0  0  0  0  0  0  0  0  0  0
   -0.0283    0.1609    1.5831 C   0  0  0  0  0  0  0  0  0  0  0  0
    1.1923    0.1056    1.7329 O   0  0  0  0  0  0  0  0  0  0  0  0
   -0.8586    0.4659    2.5853 N   0  0  0  0  0  0  0  0  0  0  0  0
   -1.8521    0.3848    2.4000 H   0  0  0  0  0  0  0  0  0  0  0  0
   -0.4403    0.7694    3.9518 C   0  0  0  0  0  0  0  0  0  0  0  0
    0.5066    1.3154    3.9421 H   0  0  0  0  0  0  0  0  0  0  0  0
   -1.1988    1.3789    4.4452 H   0  0  0  0  0  0  0  0  0  0  0  0
   -0.3053   -0.1600    4.5075 H   0  0  0  0  0  0  0  0  0  0  0  0
  5  6  2  0  0  0  0
  5  7  1  0  0  0  0
  2  3  1  0  0  0  0
  2  4  1  0  0  0  0
  2  5  1  0  0  0  0
  1  2  1  0  0  0  0
 22 23  2  0  0  0  0
 22 24  1  0  0  0  0
 20 21  1  0  0  0  0
 18 19  1  0  0  0  0
 18 20  1  0  0  0  0
 16 17  1  0  0  0  0
 16 18  1  0  0  0  0
 15 16  2  0  0  0  0
 14 15  1  0  0  0  0
 14 20  2  0  0  0  0
 11 12  1  0  0  0  0
 11 13  1  0  0  0  0
 11 14  1  0  0  0  0
  9 10  1  0  0  0  0
  9 11  1  0  0  0  0
  9 22  1  0  0  0  0
  7  8  1  0  0  0  0
  7  9  1  0  0  0  0
 26 27  1  0  0  0  0
 26 28  1  0  0  0  0
 26 29  1  0  0  0  0
 24 25  1  0  0  0  0
 24 26  1  0  0  0  0
M  END
$$$$
default_name
  -OEChem-02102213163D

 29 29  0     1  0  0  0  0  0999 V2000
   -2.9561   -3.9186    1.3887 H   0  0  0  0  0  0  0  0  0  0  0  0
   -3.1191   -2.9346    0.9517 C   0  0  0  0  0  0  0  0  0  0  0  0
   -3.7811   -2.3546    1.5917 H   0  0  0  0  0  0  0  0  0  0  0  0
   -3.5591   -3.0406   -0.0383 H   0  0  0  0  0  0  0  0  0  0  0  0
   -1.7921   -2.2226    0.8327 C   0  0  0  0  0  0  0  0  0  0  0  0
   -0.7611   -2.7766    1.1927 O   0  0  0  0  0  0  0  0  0  0  0  0
   -1.8201   -0.9926    0.3247 N   0  0  0  0  0  0  0  0  0  0  0  0
   -2.7141   -0.5816    0.0927 H   0  0  0  0  0  0  0  0  0  0  0  0
   -0.6481   -0.1156    0.2017 C   0  0  1  0  0  0  0  0  0  0  0  0
    0.1042   -0.6345   -0.3958 H   0  0  0  0  0  0  0  0  0  0  0  0
   -1.0420    1.1781   -0.5372 C   0  0  0  0  0  0  0  0  0  0  0  0
   -1.8493    0.9702   -1.2410 H   0  0  0  0  0  0  0  0  0  0  0  0
   -1.4117    1.9139    0.1783 H   0  0  0  0  0  0  0  0  0  0  0  0
    0.0986    1.7737   -1.3261 C   0  0  0  0  0  0  0  0  0  0  0  0
    0.0230    2.2613   -2.6314 N   0  0  0  0  0  0  0  0  0  0  0  0
    1.2433    2.7371   -2.9192 C   0  0  0  0  0  0  0  0  0  0  0  0
    1.5208    3.1778   -3.8684 H   0  0  0  0  0  0  0  0  0  0  0  0
    2.0626    2.5971   -1.8635 N   0  0  0  0  0  0  0  0  0  0  0  0
    3.0272    2.8972   -1.8261 H   0  0  0  0  0  0  0  0  0  0  0  0
    1.3566    1.9942   -0.8463 C   0  0  0  0  0  0  0  0  0  0  0  0
    1.7066    1.7549    0.1499 H   0  0  0  0  0  0  0  0  0  0  0  0
   -0.0283    0.1609    1.5831 C   0  0  0  0  0  0  0  0  0  0  0  0
    1.1923    0.1056    1.7329 O   0  0  0  0  0  0  0  0  0  0  0  0
   -0.8586    0.4659    2.5853 N   0  0  0  0  0  0  0  0  0  0  0  0
   -1.8521    0.3848    2.4000 H   0  0  0  0  0  0  0  0  0  0  0  0
   -0.4403    0.7694    3.9518 C   0  0  0  0  0  0  0  0  0  0  0  0
    0.5066    1.3154    3.9421 H   0  0  0  0  0  0  0  0  0  0  0  0
   -1.1988    1.3789    4.4452 H   0  0  0  0  0  0  0  0  0  0  0  0
   -0.3053   -0.1600    4.5075 H   0  0  0  0  0  0  0  0  0  0  0  0
  5  6  2  0  0  0  0
  5  7  1  0  0  0  0
  2  3  1  0  0  0  0
  2  4  1  0  0  0  0
  2  5  1  0  0  0  0
  1  2  1  0  0  0  0
 22 23  2  0  0  0  0
 22 24  1  0  0  0  0
 20 21  1  0  0  0  0
 18 19  1  0  0  0  0
 18 20  1  0  0  0  0
 16 17  1  0  0  0  0
 16 18  1  0  0  0  0
 15 16  2  0  0  0  0
 14 15  1  0  0  0  0
 14 20  2  0  0  0  0
 11 12  1  0  0  0  0
 11 13  1  0  0  0  0
 11 14  1  0  0  0  0
  9 10  1  0  0  0  0
  9 11  1  0  0  0  0
  9 22  1  0  0  0  0
  7  8  1  0  0  0  0
  7  9  1  0  0  0  0
 26 27  1  0  0  0  0
 26 28  1  0  0  0  0
 26 29  1  0  0  0  0
 24 25  1  0  0  0  0
 24 26  1  0  0  0  0
M  END
$$$$
default_name
  -OEChem-02102213163D

 29 29  0     1  0  0  0  0  0999 V2000
   -2.9561   -3.9186    1.3887 H   0  0  0  0  0  0  0  0  0  0  0  0
   -3.1191   -2.9346    0.9517 C   0  0  0  0  0  0  0  0  0  0  0  0
   -3.7811   -2.3546    1.5917 H   0  0  0  0  0  0  0  0  0  0  0  0
   -3.5591   -3.0406   -0.0383 H   0  0  0  0  0  0  0  0  0  0  0  0
   -1.7921   -2.2226    0.8327 C   0  0  0  0  0  0  0  0  0  0  0  0
   -0.7611   -2.7766    1.1927 O   0  0  0  0  0  0  0  0  0  0  0  0
   -1.8201   -0.9926    0.3247 N   0  0  0  0  0  0  0  0  0  0  0  0
   -2.7141   -0.5816    0.0927 H   0  0  0  0  0  0  0  0  0  0  0  0
   -0.6481   -0.1156    0.2017 C   0  0  1  0  0  0  0  0  0  0  0  0
    0.1042   -0.6345   -0.3958 H   0  0  0  0  0  0  0  0  0  0  0  0
   -1.0420    1.1781   -0.5372 C   0  0  0  0  0  0  0  0  0  0  0  0
   -1.8493    0.9702   -1.2410 H   0  0  0  0  0  0  0  0  0  0  0  0
   -1.4117    1.9139    0.1783 H   0  0  0  0  0  0  0  0  0  0  0  0
    0.0986    1.7737   -1.3261 C   0  0  0  0  0  0  0  0  0  0  0  0
   -0.0207    2.5212   -2.4984 N   0  0  0  0  0  0  0  0  0  0  0  0
    1.2255    2.8889   -2.8304 C   0  0  0  0  0  0  0  0  0  0  0  0
    1.4789    3.4746   -3.7051 H   0  0  0  0  0  0  0  0  0  0  0  0
    2.1060    2.4365   -1.9219 N   0  0  0  0  0  0  0  0  0  0  0  0
    3.1034    2.5998   -1.9404 H   0  0  0  0  0  0  0  0  0  0  0  0
    1.4128    1.7333   -0.9620 C   0  0  0  0  0  0  0  0  0  0  0  0
    1.8112    1.2551   -0.0760 H   0  0  0  0  0  0  0  0  0  0  0  0
   -0.0283    0.1609    1.5831 C   0  0  0  0  0  0  0  0  0  0  0  0
    1.1923    0.1056    1.7329 O   0  0  0  0  0  0  0  0  0  0  0  0
   -0.8586    0.4659    2.5853 N   0  0  0  0  0  0  0  0  0  0  0  0
   -1.8521    0.3848    2.4000 H   0  0  0  0  0  0  0  0  0  0  0  0
   -0.4403    0.7694    3.9518 C   0  0  0  0  0  0  0  0  0  0  0  0
    0.5066    1.3154    3.9421 H   0  0  0  0  0  0  0  0  0  0  0  0
   -1.1988    1.3789    4.4452 H   0  0  0  0  0  0  0  0  0  0  0  0
   -0.3053   -0.1600    4.5075 H   0  0  0  0  0  0  0  0  0  0  0  0
  5  6  2  0  0  0  0
  5  7  1  0  0  0  0
  2  3  1  0  0  0  0
  2  4  1  0  0  0  0
  2  5  1  0  0  0  0
  1  2  1  0  0  0  0
 22 23  2  0  0  0  0
 22 24  1  0  0  0  0
 20 21  1  0  0  0  0
 18 19  1  0  0  0  0
 18 20  1  0  0  0  0
 16 17  1  0  0  0  0
 16 18  1  0  0  0  0
 15 16  2  0  0  0  0
 14 15  1  0  0  0  0
 14 20  2  0  0  0  0
 11 12  1  0  0  0  0
 11 13  1  0  0  0  0
 11 14  1  0  0  0  0
  9 10  1  0  0  0  0
  9 11  1  0  0  0  0
  9 22  1  0  0  0  0
  7  8  1  0  0  0  0
  7  9  1  0  0  0  0
 26 27  1  0  0  0  0
 26 28  1  0  0  0  0
 26 29  1  0  0  0  0
 24 25  1  0  0  0  0
 24 26  1  0  0  0  0
M  END
$$$$
default_name
  -OEChem-02102213163D

 29 29  0     1  0  0  0  0  0999 V2000
   -2.9561   -3.9186    1.3887 H   0  0  0  0  0  0  0  0  0  0  0  0
   -3.1191   -2.9346    0.9517 C   0  0  0  0  0  0  0  0  0  0  0  0
   -3.7811   -2.3546    1.5917 H   0  0  0  0  0  0  0  0  0  0  0  0
   -3.5591   -3.0406   -0.0383 H   0  0  0  0  0  0  0  0  0  0  0  0
   -1.7921   -2.2226    0.8327 C   0  0  0  0  0  0  0  0  0  0  0  0
   -0.7611   -2.7766    1.1927 O   0  0  0  0  0  0  0  0  0  0  0  0
   -1.8201   -0.9926    0.3247 N   0  0  0  0  0  0  0  0  0  0  0  0
   -2.7141   -0.5816    0.0927 H   0  0  0  0  0  0  0  0  0  0  0  0
   -0.6481   -0.1156    0.2017 C   0  0  1  0  0  0  0  0  0  0  0  0
    0.1042   -0.6345   -0.3958 H   0  0  0  0  0  0  0  0  0  0  0  0
   -1.0420    1.1781   -0.5372 C   0  0  0  0  0  0  0  0  0  0  0  0
   -1.8493    0.9702   -1.2410 H   0  0  0  0  0  0  0  0  0  0  0  0
   -1.4117    1.9139    0.1783 H   0  0  0  0  0  0  0  0  0  0  0  0
    0.0986    1.7737   -1.3261 C   0  0  0  0  0  0  0  0  0  0  0  0
   -0.0142    2.7522   -2.3146 N   0  0  0  0  0  0  0  0  0  0  0  0
    1.2378    3.0207   -2.7131 C   0  0  0  0  0  0  0  0  0  0  0  0
    1.4951    3.7350   -3.4849 H   0  0  0  0  0  0  0  0  0  0  0  0
    2.1203    2.2870   -2.0142 N   0  0  0  0  0  0  0  0  0  0  0  0
    3.1252    2.3245   -2.1167 H   0  0  0  0  0  0  0  0  0  0  0  0
    1.4200    1.4962   -1.1305 C   0  0  0  0  0  0  0  0  0  0  0  0
    1.8216    0.8025   -0.4027 H   0  0  0  0  0  0  0  0  0  0  0  0
   -0.0283    0.1609    1.5831 C   0  0  0  0  0  0  0  0  0  0  0  0
    1.1923    0.1056    1.7329 O   0  0  0  0  0  0  0  0  0  0  0  0
   -0.8586    0.4659    2.5853 N   0  0  0  0  0  0  0  0  0  0  0  0
   -1.8521    0.3848    2.4000 H   0  0  0  0  0  0  0  0  0  0  0  0
   -0.4403    0.7694    3.9518 C   0  0  0  0  0  0  0  0  0  0  0  0
    0.5066    1.3154    3.9421 H   0  0  0  0  0  0  0  0  0  0  0  0
   -1.1988    1.3789    4.4452 H   0  0  0  0  0  0  0  0  0  0  0  0
   -0.3053   -0.1600    4.5075 H   0  0  0  0  0  0  0  0  0  0  0  0
  5  6  2  0  0  0  0
  5  7  1  0  0  0  0
  2  3  1  0  0  0  0
  2  4  1  0  0  0  0
  2  5  1  0  0  0  0
  1  2  1  0  0  0  0
 22 23  2  0  0  0  0
 22 24  1  0  0  0  0
 20 21  1  0  0  0  0
 18 19  1  0  0  0  0
 18 20  1  0  0  0  0
 16 17  1  0  0  0  0
 16 18  1  0  0  0  0
 15 16  2  0  0  0  0
 14 15  1  0  0  0  0
 14 20  2  0  0  0  0
 11 12  1  0  0  0  0
 11 13  1  0  0  0  0
 11 14  1  0  0  0  0
  9 10  1  0  0  0  0
  9 11  1  0  0  0  0
  9 22  1  0  0  0  0
  7  8  1  0  0  0  0
  7  9  1  0  0  0  0
 26 27  1  0  0  0  0
 26 28  1  0  0  0  0
 26 29  1  0  0  0  0
 24 25  1  0  0  0  0
 24 26  1  0  0  0  0
M  END
$$$$
default_name
  -OEChem-02102213163D

 29 29  0     1  0  0  0  0  0999 V2000
   -2.9561   -3.9186    1.3887 H   0  0  0  0  0  0  0  0  0  0  0  0
   -3.1191   -2.9346    0.9517 C   0  0  0  0  0  0  0  0  0  0  0  0
   -3.7811   -2.3546    1.5917 H   0  0  0  0  0  0  0  0  0  0  0  0
   -3.5591   -3.0406   -0.0383 H   0  0  0  0  0  0  0  0  0  0  0  0
   -1.7921   -2.2226    0.8327 C   0  0  0  0  0  0  0  0  0  0  0  0
   -0.7611   -2.7766    1.1927 O   0  0  0  0  0  0  0  0  0  0  0  0
   -1.8201   -0.9926    0.3247 N   0  0  0  0  0  0  0  0  0  0  0  0
   -2.7141   -0.5816    0.0927 H   0  0  0  0  0  0  0  0  0  0  0  0
   -0.6481   -0.1156    0.2017 C   0  0  1  0  0  0  0  0  0  0  0  0
    0.1042   -0.6345   -0.3958 H   0  0  0  0  0  0  0  0  0  0  0  0
   -1.0420    1.1781   -0.5372 C   0  0  0  0  0  0  0  0  0  0  0  0
   -2.0037    1.0415   -1.0339 H   0  0  0  0  0  0  0  0  0  0  0  0
   -1.1556    1.9926    0.1795 H   0  0  0  0  0  0  0  0  0  0  0  0
   -0.0428    1.5764   -1.5961 C   0  0  0  0  0  0  0  0  0  0  0  0
   -0.1312    2.6967   -2.4234 N   0  0  0  0  0  0  0  0  0  0  0  0
    0.9815    2.6918   -3.1718 C   0  0  0  0  0  0  0  0  0  0  0  0
    1.2134    3.4296   -3.9296 H   0  0  0  0  0  0  0  0  0  0  0  0
    1.7651    1.6517   -2.8409 N   0  0  0  0  0  0  0  0  0  0  0  0
    2.6660    1.4432   -3.2493 H   0  0  0  0  0  0  0  0  0  0  0  0
    1.1369    0.9379   -1.8447 C   0  0  0  0  0  0  0  0  0  0  0  0
    1.5010    0.0559   -1.3330 H   0  0  0  0  0  0  0  0  0  0  0  0
   -0.0283    0.1609    1.5831 C   0  0  0  0  0  0  0  0  0  0  0  0
    1.1923    0.1056    1.7329 O   0  0  0  0  0  0  0  0  0  0  0  0
   -0.8586    0.4659    2.5853 N   0  0  0  0  0  0  0  0  0  0  0  0
   -1.8521    0.3848    2.4000 H   0  0  0  0  0  0  0  0  0  0  0  0
   -0.4403    0.7694    3.9518 C   0  0  0  0  0  0  0  0  0  0  0  0
    0.5066    1.3154    3.9421 H   0  0  0  0  0  0  0  0  0  0  0  0
   -1.1988    1.3789    4.4452 H   0  0  0  0  0  0  0  0  0  0  0  0
   -0.3053   -0.1600    4.5075 H   0  0  0  0  0  0  0  0  0  0  0  0
  5  6  2  0  0  0  0
  5  7  1  0  0  0  0
  2  3  1  0  0  0  0
  2  4  1  0  0  0  0
  2  5  1  0  0  0  0
  1  2  1  0  0  0  0
 22 23  2  0  0  0  0
 22 24  1  0  0  0  0
 20 21  1  0  0  0  0
 18 19  1  0  0  0  0
 18 20  1  0  0  0  0
 16 17  1  0  0  0  0
 16 18  1  0  0  0  0
 15 16  2  0  0  0  0
 14 15  1  0  0  0  0
 14 20  2  0  0  0  0
 11 12  1  0  0  0  0
 11 13  1  0  0  0  0
 11 14  1  0  0  0  0
  9 10  1  0  0  0  0
  9 11  1  0  0  0  0
  9 22  1  0  0  0  0
  7  8  1  0  0  0  0
  7  9  1  0  0  0  0
 26 27  1  0  0  0  0
 26 28  1  0  0  0  0
 26 29  1  0  0  0  0
 24 25  1  0  0  0  0
 24 26  1  0  0  0  0
M  END
$$$$
default_name
  -OEChem-02102213163D

 29 29  0     1  0  0  0  0  0999 V2000
   -2.9561   -3.9186    1.3887 H   0  0  0  0  0  0  0  0  0  0  0  0
   -3.1191   -2.9346    0.9517 C   0  0  0  0  0  0  0  0  0  0  0  0
   -3.7811   -2.3546    1.5917 H   0  0  0  0  0  0  0  0  0  0  0  0
   -3.5591   -3.0406   -0.0383 H   0  0  0  0  0  0  0  0  0  0  0  0
   -1.7921   -2.2226    0.8327 C   0  0  0  0  0  0  0  0  0  0  0  0
   -0.7611   -2.7766    1.1927 O   0  0  0  0  0  0  0  0  0  0  0  0
   -1.8201   -0.9926    0.3247 N   0  0  0  0  0  0  0  0  0  0  0  0
   -2.7141   -0.5816    0.0927 H   0  0  0  0  0  0  0  0  0  0  0  0
   -0.6481   -0.1156    0.2017 C   0  0  1  0  0  0  0  0  0  0  0  0
    0.1042   -0.6345   -0.3958 H   0  0  0  0  0  0  0  0  0  0  0  0
   -1.0420    1.1781   -0.5372 C   0  0  0  0  0  0  0  0  0  0  0  0
   -2.0037    1.0415   -1.0339 H   0  0  0  0  0  0  0  0  0  0  0  0
   -1.1556    1.9926    0.1795 H   0  0  0  0  0  0  0  0  0  0  0  0
   -0.0428    1.5764   -1.5961 C   0  0  0  0  0  0  0  0  0  0  0  0
    0.0371    2.8237   -2.2168 N   0  0  0  0  0  0  0  0  0  0  0  0
    1.0883    2.7565   -3.0467 C   0  0  0  0  0  0  0  0  0  0  0  0
    1.4144    3.5648   -3.6890 H   0  0  0  0  0  0  0  0  0  0  0  0
    1.6793    1.5530   -2.9591 N   0  0  0  0  0  0  0  0  0  0  0  0
    2.5024    1.2654   -3.4705 H   0  0  0  0  0  0  0  0  0  0  0  0
    0.9816    0.7952   -2.0450 C   0  0  0  0  0  0  0  0  0  0  0  0
    1.2001   -0.2138   -1.7184 H   0  0  0  0  0  0  0  0  0  0  0  0
   -0.0283    0.1609    1.5831 C   0  0  0  0  0  0  0  0  0  0  0  0
    1.1923    0.1056    1.7329 O   0  0  0  0  0  0  0  0  0  0  0  0
   -0.8586    0.4659    2.5853 N   0  0  0  0  0  0  0  0  0  0  0  0
   -1.8521    0.3848    2.4000 H   0  0  0  0  0  0  0  0  0  0  0  0
   -0.4403    0.7694    3.9518 C   0  0  0  0  0  0  0  0  0  0  0  0
    0.5066    1.3154    3.9421 H   0  0  0  0  0  0  0  0  0  0  0  0
   -1.1988    1.3789    4.4452 H   0  0  0  0  0  0  0  0  0  0  0  0
   -0.3053   -0.1600    4.5075 H   0  0  0  0  0  0  0  0  0  0  0  0
  5  6  2  0  0  0  0
  5  7  1  0  0  0  0
  2  3  1  0  0  0  0
  2  4  1  0  0  0  0
  2  5  1  0  0  0  0
  1  2  1  0  0  0  0
 22 23  2  0  0  0  0
 22 24  1  0  0  0  0
 20 21  1  0  0  0  0
 18 19  1  0  0  0  0
 18 20  1  0  0  0  0
 16 17  1  0  0  0  0
 16 18  1  0  0  0  0
 15 16  2  0  0  0  0
 14 15  1  0  0  0  0
 14 20  2  0  0  0  0
 11 12  1  0  0  0  0
 11 13  1  0  0  0  0
 11 14  1  0  0  0  0
  9 10  1  0  0  0  0
  9 11  1  0  0  0  0
  9 22  1  0  0  0  0
  7  8  1  0  0  0  0
  7  9  1  0  0  0  0
 26 27  1  0  0  0  0
 26 28  1  0  0  0  0
 26 29  1  0  0  0  0
 24 25  1  0  0  0  0
 24 26  1  0  0  0  0
M  END
$$$$
default_name
  -OEChem-02102213163D

 29 29  0     1  0  0  0  0  0999 V2000
   -2.9561   -3.9186    1.3887 H   0  0  0  0  0  0  0  0  0  0  0  0
   -3.1191   -2.9346    0.9517 C   0  0  0  0  0  0  0  0  0  0  0  0
   -3.7811   -2.3546    1.5917 H   0  0  0  0  0  0  0  0  0  0  0  0
   -3.5591   -3.0406   -0.0383 H   0  0  0  0  0  0  0  0  0  0  0  0
   -1.7921   -2.2226    0.8327 C   0  0  0  0  0  0  0  0  0  0  0  0
   -0.7611   -2.7766    1.1927 O   0  0  0  0  0  0  0  0  0  0  0  0
   -1.8201   -0.9926    0.3247 N   0  0  0  0  0  0  0  0  0  0  0  0
   -2.7141   -0.5816    0.0927 H   0  0  0  0  0  0  0  0  0  0  0  0
   -0.6481   -0.1156    0.2017 C   0  0  1  0  0  0  0  0  0  0  0  0
    0.1042   -0.6345   -0.3958 H   0  0  0  0  0  0  0  0  0  0  0  0
   -1.0420    1.1781   -0.5372 C   0  0  0  0  0  0  0  0  0  0  0  0
   -2.0037    1.0415   -1.0339 H   0  0  0  0  0  0  0  0  0  0  0  0
   -1.1556    1.9926    0.1795 H   0  0  0  0  0  0  0  0  0  0  0  0
   -0.0428    1.5764   -1.5961 C   0  0  0  0  0  0  0  0  0  0  0  0
    0.2369    2.8804   -2.0069 N   0  0  0  0  0  0  0  0  0  0  0  0
    1.2119    2.7781   -2.9220 C   0  0  0  0  0  0  0  0  0  0  0  0
    1.6495    3.6176   -3.4473 H   0  0  0  0  0  0  0  0  0  0  0  0
    1.5704    1.4934   -3.0842 N   0  0  0  0  0  0  0  0  0  0  0  0
    2.2970    1.1612   -3.7035 H   0  0  0  0  0  0  0  0  0  0  0  0
    0.7919    0.7198   -2.2523 C   0  0  0  0  0  0  0  0  0  0  0  0
    0.8342   -0.3536   -2.1163 H   0  0  0  0  0  0  0  0  0  0  0  0
   -0.0283    0.1609    1.5831 C   0  0  0  0  0  0  0  0  0  0  0  0
    1.1923    0.1056    1.7329 O   0  0  0  0  0  0  0  0  0  0  0  0
   -0.8586    0.4659    2.5853 N   0  0  0  0  0  0  0  0  0  0  0  0
   -1.8521    0.3848    2.4000 H   0  0  0  0  0  0  0  0  0  0  0  0
   -0.4403    0.7694    3.9518 C   0  0  0  0  0  0  0  0  0  0  0  0
    0.5066    1.3154    3.9421 H   0  0  0  0  0  0  0  0  0  0  0  0
   -1.1988    1.3789    4.4452 H   0  0  0  0  0  0  0  0  0  0  0  0
   -0.3053   -0.1600    4.5075 H   0  0  0  0  0  0  0  0  0  0  0  0
  5  6  2  0  0  0  0
  5  7  1  0  0  0  0
  2  3  1  0  0  0  0
  2  4  1  0  0  0  0
  2  5  1  0  0  0  0
  1  2  1  0  0  0  0
 22 23  2  0  0  0  0
 22 24  1  0  0  0  0
 20 21  1  0  0  0  0
 18 19  1  0  0  0  0
 18 20  1  0  0  0  0
 16 17  1  0  0  0  0
 16 18  1  0  0  0  0
 15 16  2  0  0  0  0
 14 15  1  0  0  0  0
 14 20  2  0  0  0  0
 11 12  1  0  0  0  0
 11 13  1  0  0  0  0
 11 14  1  0  0  0  0
  9 10  1  0  0  0  0
  9 11  1  0  0  0  0
  9 22  1  0  0  0  0
  7  8  1  0  0  0  0
  7  9  1  0  0  0  0
 26 27  1  0  0  0  0
 26 28  1  0  0  0  0
 26 29  1  0  0  0  0
 24 25  1  0  0  0  0
 24 26  1  0  0  0  0
M  END
$$$$
default_name
  -OEChem-02102213163D

 29 29  0     1  0  0  0  0  0999 V2000
   -2.9561   -3.9186    1.3887 H   0  0  0  0  0  0  0  0  0  0  0  0
   -3.1191   -2.9346    0.9517 C   0  0  0  0  0  0  0  0  0  0  0  0
   -3.7811   -2.3546    1.5917 H   0  0  0  0  0  0  0  0  0  0  0  0
   -3.5591   -3.0406   -0.0383 H   0  0  0  0  0  0  0  0  0  0  0  0
   -1.7921   -2.2226    0.8327 C   0  0  0  0  0  0  0  0  0  0  0  0
   -0.7611   -2.7766    1.1927 O   0  0  0  0  0  0  0  0  0  0  0  0
   -1.8201   -0.9926    0.3247 N   0  0  0  0  0  0  0  0  0  0  0  0
   -2.7141   -0.5816    0.0927 H   0  0  0  0  0  0  0  0  0  0  0  0
   -0.6481   -0.1156    0.2017 C   0  0  1  0  0  0  0  0  0  0  0  0
    0.1042   -0.6345   -0.3958 H   0  0  0  0  0  0  0  0  0  0  0  0
   -1.0420    1.1781   -0.5372 C   0  0  0  0  0  0  0  0  0  0  0  0
   -2.0037    1.0415   -1.0339 H   0  0  0  0  0  0  0  0  0  0  0  0
   -1.1556    1.9926    0.1795 H   0  0  0  0  0  0  0  0  0  0  0  0
   -0.0428    1.5764   -1.5961 C   0  0  0  0  0  0  0  0  0  0  0  0
    0.4545    2.8629   -1.8082 N   0  0  0  0  0  0  0  0  0  0  0  0
    1.3436    2.7552   -2.8063 C   0  0  0  0  0  0  0  0  0  0  0  0
    1.9027    3.5846   -3.2207 H   0  0  0  0  0  0  0  0  0  0  0  0
    1.4458    1.4771   -3.2079 N   0  0  0  0  0  0  0  0  0  0  0  0
    2.0638    1.1379   -3.9324 H   0  0  0  0  0  0  0  0  0  0  0  0
    0.5809    0.7169   -2.4525 C   0  0  0  0  0  0  0  0  0  0  0  0
    0.4282   -0.3540   -2.4995 H   0  0  0  0  0  0  0  0  0  0  0  0
   -0.0283    0.1609    1.5831 C   0  0  0  0  0  0  0  0  0  0  0  0
    1.1923    0.1056    1.7329 O   0  0  0  0  0  0  0  0  0  0  0  0
   -0.8586    0.4659    2.5853 N   0  0  0  0  0  0  0  0  0  0  0  0
   -1.8521    0.3848    2.4000 H   0  0  0  0  0  0  0  0  0  0  0  0
   -0.4403    0.7694    3.9518 C   0  0  0  0  0  0  0  0  0  0  0  0
    0.5066    1.3154    3.9421 H   0  0  0  0  0  0  0  0  0  0  0  0
   -1.1988    1.3789    4.4452 H   0  0  0  0  0  0  0  0  0  0  0  0
   -0.3053   -0.1600    4.5075 H   0  0  0  0  0  0  0  0  0  0  0  0
  5  6  2  0  0  0  0
  5  7  1  0  0  0  0
  2  3  1  0  0  0  0
  2  4  1  0  0  0  0
  2  5  1  0  0  0  0
  1  2  1  0  0  0  0
 22 23  2  0  0  0  0
 22 24  1  0  0  0  0
 20 21  1  0  0  0  0
 18 19  1  0  0  0  0
 18 20  1  0  0  0  0
 16 17  1  0  0  0  0
 16 18  1  0  0  0  0
 15 16  2  0  0  0  0
 14 15  1  0  0  0  0
 14 20  2  0  0  0  0
 11 12  1  0  0  0  0
 11 13  1  0  0  0  0
 11 14  1  0  0  0  0
  9 10  1  0  0  0  0
  9 11  1  0  0  0  0
  9 22  1  0  0  0  0
  7  8  1  0  0  0  0
  7  9  1  0  0  0  0
 26 27  1  0  0  0  0
 26 28  1  0  0  0  0
 26 29  1  0  0  0  0
 24 25  1  0  0  0  0
 24 26  1  0  0  0  0
M  END
$$$$
default_name
  -OEChem-02102213163D

 29 29  0     1  0  0  0  0  0999 V2000
   -2.9561   -3.9186    1.3887 H   0  0  0  0  0  0  0  0  0  0  0  0
   -3.1191   -2.9346    0.9517 C   0  0  0  0  0  0  0  0  0  0  0  0
   -3.7811   -2.3546    1.5917 H   0  0  0  0  0  0  0  0  0  0  0  0
   -3.5591   -3.0406   -0.0383 H   0  0  0  0  0  0  0  0  0  0  0  0
   -1.7921   -2.2226    0.8327 C   0  0  0  0  0  0  0  0  0  0  0  0
   -0.7611   -2.7766    1.1927 O   0  0  0  0  0  0  0  0  0  0  0  0
   -1.8201   -0.9926    0.3247 N   0  0  0  0  0  0  0  0  0  0  0  0
   -2.7141   -0.5816    0.0927 H   0  0  0  0  0  0  0  0  0  0  0  0
   -0.6481   -0.1156    0.2017 C   0  0  1  0  0  0  0  0  0  0  0  0
    0.1042   -0.6345   -0.3958 H   0  0  0  0  0  0  0  0  0  0  0  0
   -1.0420    1.1781   -0.5372 C   0  0  0  0  0  0  0  0  0  0  0  0
   -2.0037    1.0415   -1.0339 H   0  0  0  0  0  0  0  0  0  0  0  0
   -1.1556    1.9926    0.1795 H   0  0  0  0  0  0  0  0  0  0  0  0
   -0.0428    1.5764   -1.5961 C   0  0  0  0  0  0  0  0  0  0  0  0
    0.6751    2.7725   -1.6340 N   0  0  0  0  0  0  0  0  0  0  0  0
    1.4746    2.6893   -2.7074 C   0  0  0  0  0  0  0  0  0  0  0  0
    2.1568    3.4679   -3.0249 H   0  0  0  0  0  0  0  0  0  0  0  0
    1.3141    1.5051   -3.3216 N   0  0  0  0  0  0  0  0  0  0  0  0
    1.8186    1.1969   -4.1415 H   0  0  0  0  0  0  0  0  0  0  0  0
    0.3628    0.7868   -2.6320 C   0  0  0  0  0  0  0  0  0  0  0  0
    0.0098   -0.2150   -2.8421 H   0  0  0  0  0  0  0  0  0  0  0  0
   -0.0283    0.1609    1.5831 C   0  0  0  0  0  0  0  0  0  0  0  0
    1.1923    0.1056    1.7329 O   0  0  0  0  0  0  0  0  0  0  0  0
   -0.8586    0.4659    2.5853 N   0  0  0  0  0  0  0  0  0  0  0  0
   -1.8521    0.3848    2.4000 H   0  0  0  0  0  0  0  0  0  0  0  0
   -0.4403    0.7694    3.9518 C   0  0  0  0  0  0  0  0  0  0  0  0
    0.5066    1.3154    3.9421 H   0  0  0  0  0  0  0  0  0  0  0  0
   -1.1988    1.3789    4.4452 H   0  0  0  0  0  0  0  0  0  0  0  0
   -0.3053   -0.1600    4.5075 H   0  0  0  0  0  0  0  0  0  0  0  0
  5  6  2  0  0  0  0
  5  7  1  0  0  0  0
  2  3  1  0  0  0  0
  2  4  1  0  0  0  0
  2  5  1  0  0  0  0
  1  2  1  0  0  0  0
 22 23  2  0  0  0  0
 22 24  1  0  0  0  0
 20 21  1  0  0  0  0
 18 19  1  0  0  0  0
 18 20  1  0  0  0  0
 16 17  1  0  0  0  0
 16 18  1  0  0  0  0
 15 16  2  0  0  0  0
 14 15  1  0  0  0  0
 14 20  2  0  0  0  0
 11 12  1  0  0  0  0
 11 13  1  0  0  0  0
 11 14  1  0  0  0  0
  9 10  1  0  0  0  0
  9 11  1  0  0  0  0
  9 22  1  0  0  0  0
  7  8  1  0  0  0  0
  7  9  1  0  0  0  0
 26 27  1  0  0  0  0
 26 28  1  0  0  0  0
 26 29  1  0  0  0  0
 24 25  1  0  0  0  0
 24 26  1  0  0  0  0
M  END
$$$$
default_name
  -OEChem-02102213163D

 29 29  0     1  0  0  0  0  0999 V2000
   -2.9561   -3.9186    1.3887 H   0  0  0  0  0  0  0  0  0  0  0  0
   -3.1191   -2.9346    0.9517 C   0  0  0  0  0  0  0  0  0  0  0  0
   -3.7811   -2.3546    1.5917 H   0  0  0  0  0  0  0  0  0  0  0  0
   -3.5591   -3.0406   -0.0383 H   0  0  0  0  0  0  0  0  0  0  0  0
   -1.7921   -2.2226    0.8327 C   0  0  0  0  0  0  0  0  0  0  0  0
   -0.7611   -2.7766    1.1927 O   0  0  0  0  0  0  0  0  0  0  0  0
   -1.8201   -0.9926    0.3247 N   0  0  0  0  0  0  0  0  0  0  0  0
   -2.7141   -0.5816    0.0927 H   0  0  0  0  0  0  0  0  0  0  0  0
   -0.6481   -0.1156    0.2017 C   0  0  1  0  0  0  0  0  0  0  0  0
    0.1042   -0.6345   -0.3958 H   0  0  0  0  0  0  0  0  0  0  0  0
   -1.0420    1.1781   -0.5372 C   0  0  0  0  0  0  0  0  0  0  0  0
   -2.0037    1.0415   -1.0339 H   0  0  0  0  0  0  0  0  0  0  0  0
   -1.1556    1.9926    0.1795 H   0  0  0  0  0  0  0  0  0  0  0  0
   -0.0428    1.5764   -1.5961 C   0  0  0  0  0  0  0  0  0  0  0  0
    0.8837    2.6152   -1.4964 N   0  0  0  0  0  0  0  0  0  0  0  0
    1.5959    2.5850   -2.6322 C   0  0  0  0  0  0  0  0  0  0  0  0
    2.3944    3.2754   -2.8730 H   0  0  0  0  0  0  0  0  0  0  0  0
    1.1843    1.5756   -3.4176 N   0  0  0  0  0  0  0  0  0  0  0  0
    1.5782    1.3342   -4.3167 H   0  0  0  0  0  0  0  0  0  0  0  0
    0.1526    0.9246   -2.7785 C   0  0  0  0  0  0  0  0  0  0  0  0
   -0.3925    0.0539   -3.1206 H   0  0  0  0  0  0  0  0  0  0  0  0
   -0.0283    0.1609    1.5831 C   0  0  0  0  0  0  0  0  0  0  0  0
    1.1923    0.1056    1.7329 O   0  0  0  0  0  0  0  0  0  0  0  0
   -0.8586    0.4659    2.5853 N   0  0  0  0  0  0  0  0  0  0  0  0
   -1.8521    0.3848    2.4000 H   0  0  0  0  0  0  0  0  0  0  0  0
   -0.4403    0.7694    3.9518 C   0  0  0  0  0  0  0  0  0  0  0  0
    0.5066    1.3154    3.9421 H   0  0  0  0  0  0  0  0  0  0  0  0
   -1.1988    1.3789    4.4452 H   0  0  0  0  0  0  0  0  0  0  0  0
   -0.3053   -0.1600    4.5075 H   0  0  0  0  0  0  0  0  0  0  0  0
  5  6  2  0  0  0  0
  5  7  1  0  0  0  0
  2  3  1  0  0  0  0
  2  4  1  0  0  0  0
  2  5  1  0  0  0  0
  1  2  1  0  0  0  0
 22 23  2  0  0  0  0
 22 24  1  0  0  0  0
 20 21  1  0  0  0  0
 18 19  1  0  0  0  0
 18 20  1  0  0  0  0
 16 17  1  0  0  0  0
 16 18  1  0  0  0  0
 15 16  2  0  0  0  0
 14 15  1  0  0  0  0
 14 20  2  0  0  0  0
 11 12  1  0  0  0  0
 11 13  1  0  0  0  0
 11 14  1  0  0  0  0
  9 10  1  0  0  0  0
  9 11  1  0  0  0  0
  9 22  1  0  0  0  0
  7  8  1  0  0  0  0
  7  9  1  0  0  0  0
 26 27  1  0  0  0  0
 26 28  1  0  0  0  0
 26 29  1  0  0  0  0
 24 25  1  0  0  0  0
 24 26  1  0  0  0  0
M  END
$$$$
default_name
  -OEChem-02102213163D

 29 29  0     1  0  0  0  0  0999 V2000
   -2.9561   -3.9186    1.3887 H   0  0  0  0  0  0  0  0  0  0  0  0
   -3.1191   -2.9346    0.9517 C   0  0  0  0  0  0  0  0  0  0  0  0
   -3.7811   -2.3546    1.5917 H   0  0  0  0  0  0  0  0  0  0  0  0
   -3.5591   -3.0406   -0.0383 H   0  0  0  0  0  0  0  0  0  0  0  0
   -1.7921   -2.2226    0.8327 C   0  0  0  0  0  0  0  0  0  0  0  0
   -0.7611   -2.7766    1.1927 O   0  0  0  0  0  0  0  0  0  0  0  0
   -1.8201   -0.9926    0.3247 N   0  0  0  0  0  0  0  0  0  0  0  0
   -2.7141   -0.5816    0.0927 H   0  0  0  0  0  0  0  0  0  0  0  0
   -0.6481   -0.1156    0.2017 C   0  0  1  0  0  0  0  0  0  0  0  0
    0.1042   -0.6345   -0.3958 H   0  0  0  0  0  0  0  0  0  0  0  0
   -1.0420    1.1781   -0.5372 C   0  0  0  0  0  0  0  0  0  0  0  0
   -2.0037    1.0415   -1.0339 H   0  0  0  0  0  0  0  0  0  0  0  0
   -1.1556    1.9926    0.1795 H   0  0  0  0  0  0  0  0  0  0  0  0
   -0.0428    1.5764   -1.5961 C   0  0  0  0  0  0  0  0  0  0  0  0
    1.0659    2.4019   -1.4046 N   0  0  0  0  0  0  0  0  0  0  0  0
    1.6993    2.4493   -2.5857 C   0  0  0  0  0  0  0  0  0  0  0  0
    2.5994    3.0204   -2.7756 H   0  0  0  0  0  0  0  0  0  0  0  0
    1.0650    1.6837   -3.4895 N   0  0  0  0  0  0  0  0  0  0  0  0
    1.3590    1.5405   -4.4460 H   0  0  0  0  0  0  0  0  0  0  0  0
   -0.0354    1.1210   -2.8821 C   0  0  0  0  0  0  0  0  0  0  0  0
   -0.7513    0.4344   -3.3161 H   0  0  0  0  0  0  0  0  0  0  0  0
   -0.0283    0.1609    1.5831 C   0  0  0  0  0  0  0  0  0  0  0  0
    1.1923    0.1056    1.7329 O   0  0  0  0  0  0  0  0  0  0  0  0
   -0.8586    0.4659    2.5853 N   0  0  0  0  0  0  0  0  0  0  0  0
   -1.8521    0.3848    2.4000 H   0  0  0  0  0  0  0  0  0  0  0  0
   -0.4403    0.7694    3.9518 C   0  0  0  0  0  0  0  0  0  0  0  0
    0.5066    1.3154    3.9421 H   0  0  0  0  0  0  0  0  0  0  0  0
   -1.1988    1.3789    4.4452 H   0  0  0  0  0  0  0  0  0  0  0  0
   -0.3053   -0.1600    4.5075 H   0  0  0  0  0  0  0  0  0  0  0  0
  5  6  2  0  0  0  0
  5  7  1  0  0  0  0
  2  3  1  0  0  0  0
  2  4  1  0  0  0  0
  2  5  1  0  0  0  0
  1  2  1  0  0  0  0
 22 23  2  0  0  0  0
 22 24  1  0  0  0  0
 20 21  1  0  0  0  0
 18 19  1  0  0  0  0
 18 20  1  0  0  0  0
 16 17  1  0  0  0  0
 16 18  1  0  0  0  0
 15 16  2  0  0  0  0
 14 15  1  0  0  0  0
 14 20  2  0  0  0  0
 11 12  1  0  0  0  0
 11 13  1  0  0  0  0
 11 14  1  0  0  0  0
  9 10  1  0  0  0  0
  9 11  1  0  0  0  0
  9 22  1  0  0  0  0
  7  8  1  0  0  0  0
  7  9  1  0  0  0  0
 26 27  1  0  0  0  0
 26 28  1  0  0  0  0
 26 29  1  0  0  0  0
 24 25  1  0  0  0  0
 24 26  1  0  0  0  0
M  END
$$$$
default_name
  -OEChem-02102213163D

 29 29  0     1  0  0  0  0  0999 V2000
   -2.9561   -3.9186    1.3887 H   0  0  0  0  0  0  0  0  0  0  0  0
   -3.1191   -2.9346    0.9517 C   0  0  0  0  0  0  0  0  0  0  0  0
   -3.7811   -2.3546    1.5917 H   0  0  0  0  0  0  0  0  0  0  0  0
   -3.5591   -3.0406   -0.0383 H   0  0  0  0  0  0  0  0  0  0  0  0
   -1.7921   -2.2226    0.8327 C   0  0  0  0  0  0  0  0  0  0  0  0
   -0.7611   -2.7766    1.1927 O   0  0  0  0  0  0  0  0  0  0  0  0
   -1.8201   -0.9926    0.3247 N   0  0  0  0  0  0  0  0  0  0  0  0
   -2.7141   -0.5816    0.0927 H   0  0  0  0  0  0  0  0  0  0  0  0
   -0.6481   -0.1156    0.2017 C   0  0  1  0  0  0  0  0  0  0  0  0
    0.1042   -0.6345   -0.3958 H   0  0  0  0  0  0  0  0  0  0  0  0
   -1.0420    1.1781   -0.5372 C   0  0  0  0  0  0  0  0  0  0  0  0
   -2.0037    1.0415   -1.0339 H   0  0  0  0  0  0  0  0  0  0  0  0
   -1.1556    1.9926    0.1795 H   0  0  0  0  0  0  0  0  0  0  0  0
   -0.0428    1.5764   -1.5961 C   0  0  0  0  0  0  0  0  0  0  0  0
    1.2095    2.1470   -1.3650 N   0  0  0  0  0  0  0  0  0  0  0  0
    1.7777    2.2915   -2.5710 C   0  0  0  0  0  0  0  0  0  0  0  0
    2.7577    2.7202   -2.7391 H   0  0  0  0  0  0  0  0  0  0  0  0
    0.9646    1.8221   -3.5322 N   0  0  0  0  0  0  0  0  0  0  0  0
    1.1759    1.8017   -4.5205 H   0  0  0  0  0  0  0  0  0  0  0  0
   -0.1884    1.3626   -2.9356 C   0  0  0  0  0  0  0  0  0  0  0  0
   -1.0422    0.9006   -3.4152 H   0  0  0  0  0  0  0  0  0  0  0  0
   -0.0283    0.1609    1.5831 C   0  0  0  0  0  0  0  0  0  0  0  0
    1.1923    0.1056    1.7329 O   0  0  0  0  0  0  0  0  0  0  0  0
   -0.8586    0.4659    2.5853 N   0  0  0  0  0  0  0  0  0  0  0  0
   -1.8521    0.3848    2.4000 H   0  0  0  0  0  0  0  0  0  0  0  0
   -0.4403    0.7694    3.9518 C   0  0  0  0  0  0  0  0  0  0  0  0
    0.5066    1.3154    3.9421 H   0  0  0  0  0  0  0  0  0  0  0  0
   -1.1988    1.3789    4.4452 H   0  0  0  0  0  0  0  0  0  0  0  0
   -0.3053   -0.1600    4.5075 H   0  0  0  0  0  0  0  0  0  0  0  0
  5  6  2  0  0  0  0
  5  7  1  0  0  0  0
  2  3  1  0  0  0  0
  2  4  1  0  0  0  0
  2  5  1  0  0  0  0
  1  2  1  0  0  0  0
 22 23  2  0  0  0  0
 22 24  1  0  0  0  0
 20 21  1  0  0  0  0
 18 19  1  0  0  0  0
 18 20  1  0  0  0  0
 16 17  1  0  0  0  0
 16 18  1  0  0  0  0
 15 16  2  0  0  0  0
 14 15  1  0  0  0  0
 14 20  2  0  0  0  0
 11 12  1  0  0  0  0
 11 13  1  0  0  0  0
 11 14  1  0  0  0  0
  9 10  1  0  0  0  0
  9 11  1  0  0  0  0
  9 22  1  0  0  0  0
  7  8  1  0  0  0  0
  7  9  1  0  0  0  0
 26 27  1  0  0  0  0
 26 28  1  0  0  0  0
 26 29  1  0  0  0  0
 24 25  1  0  0  0  0
 24 26  1  0  0  0  0
M  END
$$$$
default_name
  -OEChem-02102213163D

 29 29  0     1  0  0  0  0  0999 V2000
   -2.9561   -3.9186    1.3887 H   0  0  0  0  0  0  0  0  0  0  0  0
   -3.1191   -2.9346    0.9517 C   0  0  0  0  0  0  0  0  0  0  0  0
   -3.7811   -2.3546    1.5917 H   0  0  0  0  0  0  0  0  0  0  0  0
   -3.5591   -3.0406   -0.0383 H   0  0  0  0  0  0  0  0  0  0  0  0
   -1.7921   -2.2226    0.8327 C   0  0  0  0  0  0  0  0  0  0  0  0
   -0.7611   -2.7766    1.1927 O   0  0  0  0  0  0  0  0  0  0  0  0
   -1.8201   -0.9926    0.3247 N   0  0  0  0  0  0  0  0  0  0  0  0
   -2.7141   -0.5816    0.0927 H   0  0  0  0  0  0  0  0  0  0  0  0
   -0.6481   -0.1156    0.2017 C   0  0  1  0  0  0  0  0  0  0  0  0
    0.1042   -0.6345   -0.3958 H   0  0  0  0  0  0  0  0  0  0  0  0
   -1.0420    1.1781   -0.5372 C   0  0  0  0  0  0  0  0  0  0  0  0
   -2.0037    1.0415   -1.0339 H   0  0  0  0  0  0  0  0  0  0  0  0
   -1.1556    1.9926    0.1795 H   0  0  0  0  0  0  0  0  0  0  0  0
   -0.0428    1.5764   -1.5961 C   0  0  0  0  0  0  0  0  0  0  0  0
    1.3047    1.8679   -1.3802 N   0  0  0  0  0  0  0  0  0  0  0  0
    1.8258    2.1223   -2.5893 C   0  0  0  0  0  0  0  0  0  0  0  0
    2.8585    2.3952   -2.7662 H   0  0  0  0  0  0  0  0  0  0  0  0
    0.8898    1.9814   -3.5429 N   0  0  0  0  0  0  0  0  0  0  0  0
    1.0414    2.1001   -4.5352 H   0  0  0  0  0  0  0  0  0  0  0  0
   -0.2960    1.6329   -2.9354 C   0  0  0  0  0  0  0  0  0  0  0  0
   -1.2452    1.4206   -3.4112 H   0  0  0  0  0  0  0  0  0  0  0  0
   -0.0283    0.1609    1.5831 C   0  0  0  0  0  0  0  0  0  0  0  0
    1.1923    0.1056    1.7329 O   0  0  0  0  0  0  0  0  0  0  0  0
   -0.8586    0.4659    2.5853 N   0  0  0  0  0  0  0  0  0  0  0  0
   -1.8521    0.3848    2.4000 H   0  0  0  0  0  0  0  0  0  0  0  0
   -0.4403    0.7694    3.9518 C   0  0  0  0  0  0  0  0  0  0  0  0
    0.5066    1.3154    3.9421 H   0  0  0  0  0  0  0  0  0  0  0  0
   -1.1988    1.3789    4.4452 H   0  0  0  0  0  0  0  0  0  0  0  0
   -0.3053   -0.1600    4.5075 H   0  0  0  0  0  0  0  0  0  0  0  0
  5  6  2  0  0  0  0
  5  7  1  0  0  0  0
  2  3  1  0  0  0  0
  2  4  1  0  0  0  0
  2  5  1  0  0  0  0
  1  2  1  0  0  0  0
 22 23  2  0  0  0  0
 22 24  1  0  0  0  0
 20 21  1  0  0  0  0
 18 19  1  0  0  0  0
 18 20  1  0  0  0  0
 16 17  1  0  0  0  0
 16 18  1  0  0  0  0
 15 16  2  0  0  0  0
 14 15  1  0  0  0  0
 14 20  2  0  0  0  0
 11 12  1  0  0  0  0
 11 13  1  0  0  0  0
 11 14  1  0  0  0  0
  9 10  1  0  0  0  0
  9 11  1  0  0  0  0
  9 22  1  0  0  0  0
  7  8  1  0  0  0  0
  7  9  1  0  0  0  0
 26 27  1  0  0  0  0
 26 28  1  0  0  0  0
 26 29  1  0  0  0  0
 24 25  1  0  0  0  0
 24 26  1  0  0  0  0
M  END
$$$$
default_name
  -OEChem-02102213163D

 29 29  0     1  0  0  0  0  0999 V2000
   -2.9561   -3.9186    1.3887 H   0  0  0  0  0  0  0  0  0  0  0  0
   -3.1191   -2.9346    0.9517 C   0  0  0  0  0  0  0  0  0  0  0  0
   -3.7811   -2.3546    1.5917 H   0  0  0  0  0  0  0  0  0  0  0  0
   -3.5591   -3.0406   -0.0383 H   0  0  0  0  0  0  0  0  0  0  0  0
   -1.7921   -2.2226    0.8327 C   0  0  0  0  0  0  0  0  0  0  0  0
   -0.7611   -2.7766    1.1927 O   0  0  0  0  0  0  0  0  0  0  0  0
   -1.8201   -0.9926    0.3247 N   0  0  0  0  0  0  0  0  0  0  0  0
   -2.7141   -0.5816    0.0927 H   0  0  0  0  0  0  0  0  0  0  0  0
   -0.6481   -0.1156    0.2017 C   0  0  1  0  0  0  0  0  0  0  0  0
    0.1042   -0.6345   -0.3958 H   0  0  0  0  0  0  0  0  0  0  0  0
   -1.0420    1.1781   -0.5372 C   0  0  0  0  0  0  0  0  0  0  0  0
   -2.0037    1.0415   -1.0339 H   0  0  0  0  0  0  0  0  0  0  0  0
   -1.1556    1.9926    0.1795 H   0  0  0  0  0  0  0  0  0  0  0  0
   -0.0428    1.5764   -1.5961 C   0  0  0  0  0  0  0  0  0  0  0  0
    1.3449    1.5836   -1.4492 N   0  0  0  0  0  0  0  0  0  0  0  0
    1.8403    1.9533   -2.6392 C   0  0  0  0  0  0  0  0  0  0  0  0
    2.8951    2.0675   -2.8549 H   0  0  0  0  0  0  0  0  0  0  0  0
    0.8457    2.1506   -3.5208 N   0  0  0  0  0  0  0  0  0  0  0  0
    0.9646    2.4152   -4.4892 H   0  0  0  0  0  0  0  0  0  0  0  0
   -0.3509    1.9135   -2.8816 C   0  0  0  0  0  0  0  0  0  0  0  0
   -1.3467    1.9592   -3.3043 H   0  0  0  0  0  0  0  0  0  0  0  0
   -0.0283    0.1609    1.5831 C   0  0  0  0  0  0  0  0  0  0  0  0
    1.1923    0.1056    1.7329 O   0  0  0  0  0  0  0  0  0  0  0  0
   -0.8586    0.4659    2.5853 N   0  0  0  0  0  0  0  0  0  0  0  0
   -1.8521    0.3848    2.4000 H   0  0  0  0  0  0  0  0  0  0  0  0
   -0.4403    0.7694    3.9518 C   0  0  0  0  0  0  0  0  0  0  0  0
    0.5066    1.3154    3.9421 H   0  0  0  0  0  0  0  0  0  0  0  0
   -1.1988    1.3789    4.4452 H   0  0  0  0  0  0  0  0  0  0  0  0
   -0.3053   -0.1600    4.5075 H   0  0  0  0  0  0  0  0  0  0  0  0
  5  6  2  0  0  0  0
  5  7  1  0  0  0  0
  2  3  1  0  0  0  0
  2  4  1  0  0  0  0
  2  5  1  0  0  0  0
  1  2  1  0  0  0  0
 22 23  2  0  0  0  0
 22 24  1  0  0  0  0
 20 21  1  0  0  0  0
 18 19  1  0  0  0  0
 18 20  1  0  0  0  0
 16 17  1  0  0  0  0
 16 18  1  0  0  0  0
 15 16  2  0  0  0  0
 14 15  1  0  0  0  0
 14 20  2  0  0  0  0
 11 12  1  0  0  0  0
 11 13  1  0  0  0  0
 11 14  1  0  0  0  0
  9 10  1  0  0  0  0
  9 11  1  0  0  0  0
  9 22  1  0  0  0  0
  7  8  1  0  0  0  0
  7  9  1  0  0  0  0
 26 27  1  0  0  0  0
 26 28  1  0  0  0  0
 26 29  1  0  0  0  0
 24 25  1  0  0  0  0
 24 26  1  0  0  0  0
M  END
$$$$
default_name
  -OEChem-02102213163D

 29 29  0     1  0  0  0  0  0999 V2000
   -2.9561   -3.9186    1.3887 H   0  0  0  0  0  0  0  0  0  0  0  0
   -3.1191   -2.9346    0.9517 C   0  0  0  0  0  0  0  0  0  0  0  0
   -3.7811   -2.3546    1.5917 H   0  0  0  0  0  0  0  0  0  0  0  0
   -3.5591   -3.0406   -0.0383 H   0  0  0  0  0  0  0  0  0  0  0  0
   -1.7921   -2.2226    0.8327 C   0  0  0  0  0  0  0  0  0  0  0  0
   -0.7611   -2.7766    1.1927 O   0  0  0  0  0  0  0  0  0  0  0  0
   -1.8201   -0.9926    0.3247 N   0  0  0  0  0  0  0  0  0  0  0  0
   -2.7141   -0.5816    0.0927 H   0  0  0  0  0  0  0  0  0  0  0  0
   -0.6481   -0.1156    0.2017 C   0  0  1  0  0  0  0  0  0  0  0  0
    0.1042   -0.6345   -0.3958 H   0  0  0  0  0  0  0  0  0  0  0  0
   -1.0420    1.1781   -0.5372 C   0  0  0  0  0  0  0  0  0  0  0  0
   -2.0037    1.0415   -1.0339 H   0  0  0  0  0  0  0  0  0  0  0  0
   -1.1556    1.9926    0.1795 H   0  0  0  0  0  0  0  0  0  0  0  0
   -0.0428    1.5764   -1.5961 C   0  0  0  0  0  0  0  0  0  0  0  0
    1.3274    1.3136   -1.5672 N   0  0  0  0  0  0  0  0  0  0  0  0
    1.8202    1.7959   -2.7174 C   0  0  0  0  0  0  0  0  0  0  0  0
    2.8649    1.7597   -2.9992 H   0  0  0  0  0  0  0  0  0  0  0  0
    0.8354    2.3183   -3.4675 N   0  0  0  0  0  0  0  0  0  0  0  0
    0.9508    2.7256   -4.3854 H   0  0  0  0  0  0  0  0  0  0  0  0
   -0.3492    2.1853   -2.7778 C   0  0  0  0  0  0  0  0  0  0  0  0
   -1.3396    2.4795   -3.1019 H   0  0  0  0  0  0  0  0  0  0  0  0
   -0.0283    0.1609    1.5831 C   0  0  0  0  0  0  0  0  0  0  0  0
    1.1923    0.1056    1.7329 O   0  0  0  0  0  0  0  0  0  0  0  0
   -0.8586    0.4659    2.5853 N   0  0  0  0  0  0  0  0  0  0  0  0
   -1.8521    0.3848    2.4000 H   0  0  0  0  0  0  0  0  0  0  0  0
   -0.4403    0.7694    3.9518 C   0  0  0  0  0  0  0  0  0  0  0  0
    0.5066    1.3154    3.9421 H   0  0  0  0  0  0  0  0  0  0  0  0
   -1.1988    1.3789    4.4452 H   0  0  0  0  0  0  0  0  0  0  0  0
   -0.3053   -0.1600    4.5075 H   0  0  0  0  0  0  0  0  0  0  0  0
  5  6  2  0  0  0  0
  5  7  1  0  0  0  0
  2  3  1  0  0  0  0
  2  4  1  0  0  0  0
  2  5  1  0  0  0  0
  1  2  1  0  0  0  0
 22 23  2  0  0  0  0
 22 24  1  0  0  0  0
 20 21  1  0  0  0  0
 18 19  1  0  0  0  0
 18 20  1  0  0  0  0
 16 17  1  0  0  0  0
 16 18  1  0  0  0  0
 15 16  2  0  0  0  0
 14 15  1  0  0  0  0
 14 20  2  0  0  0  0
 11 12  1  0  0  0  0
 11 13  1  0  0  0  0
 11 14  1  0  0  0  0
  9 10  1  0  0  0  0
  9 11  1  0  0  0  0
  9 22  1  0  0  0  0
  7  8  1  0  0  0  0
  7  9  1  0  0  0  0
 26 27  1  0  0  0  0
 26 28  1  0  0  0  0
 26 29  1  0  0  0  0
 24 25  1  0  0  0  0
 24 26  1  0  0  0  0
M  END
$$$$
default_name
  -OEChem-02102213163D

 29 29  0     1  0  0  0  0  0999 V2000
   -2.9561   -3.9186    1.3887 H   0  0  0  0  0  0  0  0  0  0  0  0
   -3.1191   -2.9346    0.9517 C   0  0  0  0  0  0  0  0  0  0  0  0
   -3.7811   -2.3546    1.5917 H   0  0  0  0  0  0  0  0  0  0  0  0
   -3.5591   -3.0406   -0.0383 H   0  0  0  0  0  0  0  0  0  0  0  0
   -1.7921   -2.2226    0.8327 C   0  0  0  0  0  0  0  0  0  0  0  0
   -0.7611   -2.7766    1.1927 O   0  0  0  0  0  0  0  0  0  0  0  0
   -1.8201   -0.9926    0.3247 N   0  0  0  0  0  0  0  0  0  0  0  0
   -2.7141   -0.5816    0.0927 H   0  0  0  0  0  0  0  0  0  0  0  0
   -0.6481   -0.1156    0.2017 C   0  0  1  0  0  0  0  0  0  0  0  0
    0.1042   -0.6345   -0.3958 H   0  0  0  0  0  0  0  0  0  0  0  0
   -1.0420    1.1781   -0.5372 C   0  0  0  0  0  0  0  0  0  0  0  0
   -2.0037    1.0415   -1.0339 H   0  0  0  0  0  0  0  0  0  0  0  0
   -1.1556    1.9926    0.1795 H   0  0  0  0  0  0  0  0  0  0  0  0
   -0.0428    1.5764   -1.5961 C   0  0  0  0  0  0  0  0  0  0  0  0
    1.2534    1.0762   -1.7264 N   0  0  0  0  0  0  0  0  0  0  0  0
    1.7668    1.6610   -2.8185 C   0  0  0  0  0  0  0  0  0  0  0  0
    2.7700    1.4925   -3.1893 H   0  0  0  0  0  0  0  0  0  0  0  0
    0.8595    2.4730   -3.3866 N   0  0  0  0  0  0  0  0  0  0  0  0
    1.0009    3.0102   -4.2311 H   0  0  0  0  0  0  0  0  0  0  0  0
   -0.2912    2.4297   -2.6311 C   0  0  0  0  0  0  0  0  0  0  0  0
   -1.2244    2.9461   -2.8177 H   0  0  0  0  0  0  0  0  0  0  0  0
   -0.0283    0.1609    1.5831 C   0  0  0  0  0  0  0  0  0  0  0  0
    1.1923    0.1056    1.7329 O   0  0  0  0  0  0  0  0  0  0  0  0
   -0.8586    0.4659    2.5853 N   0  0  0  0  0  0  0  0  0  0  0  0
   -1.8521    0.3848    2.4000 H   0  0  0  0  0  0  0  0  0  0  0  0
   -0.4403    0.7694    3.9518 C   0  0  0  0  0  0  0  0  0  0  0  0
    0.5066    1.3154    3.9421 H   0  0  0  0  0  0  0  0  0  0  0  0
   -1.1988    1.3789    4.4452 H   0  0  0  0  0  0  0  0  0  0  0  0
   -0.3053   -0.1600    4.5075 H   0  0  0  0  0  0  0  0  0  0  0  0
  5  6  2  0  0  0  0
  5  7  1  0  0  0  0
  2  3  1  0  0  0  0
  2  4  1  0  0  0  0
  2  5  1  0  0  0  0
  1  2  1  0  0  0  0
 22 23  2  0  0  0  0
 22 24  1  0  0  0  0
 20 21  1  0  0  0  0
 18 19  1  0  0  0  0
 18 20  1  0  0  0  0
 16 17  1  0  0  0  0
 16 18  1  0  0  0  0
 15 16  2  0  0  0  0
 14 15  1  0  0  0  0
 14 20  2  0  0  0  0
 11 12  1  0  0  0  0
 11 13  1  0  0  0  0
 11 14  1  0  0  0  0
  9 10  1  0  0  0  0
  9 11  1  0  0  0  0
  9 22  1  0  0  0  0
  7  8  1  0  0  0  0
  7  9  1  0  0  0  0
 26 27  1  0  0  0  0
 26 28  1  0  0  0  0
 26 29  1  0  0  0  0
 24 25  1  0  0  0  0
 24 26  1  0  0  0  0
M  END
$$$$
default_name
  -OEChem-02102213163D

 29 29  0     1  0  0  0  0  0999 V2000
   -2.9561   -3.9186    1.3887 H   0  0  0  0  0  0  0  0  0  0  0  0
   -3.1191   -2.9346    0.9517 C   0  0  0  0  0  0  0  0  0  0  0  0
   -3.7811   -2.3546    1.5917 H   0  0  0  0  0  0  0  0  0  0  0  0
   -3.5591   -3.0406   -0.0383 H   0  0  0  0  0  0  0  0  0  0  0  0
   -1.7921   -2.2226    0.8327 C   0  0  0  0  0  0  0  0  0  0  0  0
   -0.7611   -2.7766    1.1927 O   0  0  0  0  0  0  0  0  0  0  0  0
   -1.8201   -0.9926    0.3247 N   0  0  0  0  0  0  0  0  0  0  0  0
   -2.7141   -0.5816    0.0927 H   0  0  0  0  0  0  0  0  0  0  0  0
   -0.6481   -0.1156    0.2017 C   0  0  1  0  0  0  0  0  0  0  0  0
    0.1042   -0.6345   -0.3958 H   0  0  0  0  0  0  0  0  0  0  0  0
   -1.0420    1.1781   -0.5372 C   0  0  0  0  0  0  0  0  0  0  0  0
   -2.0037    1.0415   -1.0339 H   0  0  0  0  0  0  0  0  0  0  0  0
   -1.1556    1.9926    0.1795 H   0  0  0  0  0  0  0  0  0  0  0  0
   -0.0428    1.5764   -1.5961 C   0  0  0  0  0  0  0  0  0  0  0  0
    1.1279    0.8876   -1.9157 N   0  0  0  0  0  0  0  0  0  0  0  0
    1.6839    1.5577   -2.9356 C   0  0  0  0  0  0  0  0  0  0  0  0
    2.6168    1.2842   -3.4122 H   0  0  0  0  0  0  0  0  0  0  0  0
    0.9164    2.6042   -3.2835 N   0  0  0  0  0  0  0  0  0  0  0  0
    1.1115    3.2496   -4.0367 H   0  0  0  0  0  0  0  0  0  0  0  0
   -0.1807    2.6302   -2.4515 C   0  0  0  0  0  0  0  0  0  0  0  0
   -1.0091    3.3272   -2.4712 H   0  0  0  0  0  0  0  0  0  0  0  0
   -0.0283    0.1609    1.5831 C   0  0  0  0  0  0  0  0  0  0  0  0
    1.1923    0.1056    1.7329 O   0  0  0  0  0  0  0  0  0  0  0  0
   -0.8586    0.4659    2.5853 N   0  0  0  0  0  0  0  0  0  0  0  0
   -1.8521    0.3848    2.4000 H   0  0  0  0  0  0  0  0  0  0  0  0
   -0.4403    0.7694    3.9518 C   0  0  0  0  0  0  0  0  0  0  0  0
    0.5066    1.3154    3.9421 H   0  0  0  0  0  0  0  0  0  0  0  0
   -1.1988    1.3789    4.4452 H   0  0  0  0  0  0  0  0  0  0  0  0
   -0.3053   -0.1600    4.5075 H   0  0  0  0  0  0  0  0  0  0  0  0
  5  6  2  0  0  0  0
  5  7  1  0  0  0  0
  2  3  1  0  0  0  0
  2  4  1  0  0  0  0
  2  5  1  0  0  0  0
  1  2  1  0  0  0  0
 22 23  2  0  0  0  0
 22 24  1  0  0  0  0
 20 21  1  0  0  0  0
 18 19  1  0  0  0  0
 18 20  1  0  0  0  0
 16 17  1  0  0  0  0
 16 18  1  0  0  0  0
 15 16  2  0  0  0  0
 14 15  1  0  0  0  0
 14 20  2  0  0  0  0
 11 12  1  0  0  0  0
 11 13  1  0  0  0  0
 11 14  1  0  0  0  0
  9 10  1  0  0  0  0
  9 11  1  0  0  0  0
  9 22  1  0  0  0  0
  7  8  1  0  0  0  0
  7  9  1  0  0  0  0
 26 27  1  0  0  0  0
 26 28  1  0  0  0  0
 26 29  1  0  0  0  0
 24 25  1  0  0  0  0
 24 26  1  0  0  0  0
M  END
$$$$
default_name
  -OEChem-02102213163D

 29 29  0     1  0  0  0  0  0999 V2000
   -2.9561   -3.9186    1.3887 H   0  0  0  0  0  0  0  0  0  0  0  0
   -3.1191   -2.9346    0.9517 C   0  0  0  0  0  0  0  0  0  0  0  0
   -3.7811   -2.3546    1.5917 H   0  0  0  0  0  0  0  0  0  0  0  0
   -3.5591   -3.0406   -0.0383 H   0  0  0  0  0  0  0  0  0  0  0  0
   -1.7921   -2.2226    0.8327 C   0  0  0  0  0  0  0  0  0  0  0  0
   -0.7611   -2.7766    1.1927 O   0  0  0  0  0  0  0  0  0  0  0  0
   -1.8201   -0.9926    0.3247 N   0  0  0  0  0  0  0  0  0  0  0  0
   -2.7141   -0.5816    0.0927 H   0  0  0  0  0  0  0  0  0  0  0  0
   -0.6481   -0.1156    0.2017 C   0  0  1  0  0  0  0  0  0  0  0  0
    0.1042   -0.6345   -0.3958 H   0  0  0  0  0  0  0  0  0  0  0  0
   -1.0420    1.1781   -0.5372 C   0  0  0  0  0  0  0  0  0  0  0  0
   -2.0037    1.0415   -1.0339 H   0  0  0  0  0  0  0  0  0  0  0  0
   -1.1556    1.9926    0.1795 H   0  0  0  0  0  0  0  0  0  0  0  0
   -0.0428    1.5764   -1.5961 C   0  0  0  0  0  0  0  0  0  0  0  0
    0.9596    0.7606   -2.1223 N   0  0  0  0  0  0  0  0  0  0  0  0
    1.5771    1.4930   -3.0608 C   0  0  0  0  0  0  0  0  0  0  0  0
    2.4158    1.1490   -3.6527 H   0  0  0  0  0  0  0  0  0  0  0  0
    1.0022    2.7029   -3.1654 N   0  0  0  0  0  0  0  0  0  0  0  0
    1.2751    3.4274   -3.8154 H   0  0  0  0  0  0  0  0  0  0  0  0
   -0.0254    2.7730   -2.2512 C   0  0  0  0  0  0  0  0  0  0  0  0
   -0.7082    3.5968   -2.0858 H   0  0  0  0  0  0  0  0  0  0  0  0
   -0.0283    0.1609    1.5831 C   0  0  0  0  0  0  0  0  0  0  0  0
    1.1923    0.1056    1.7329 O   0  0  0  0  0  0  0  0  0  0  0  0
   -0.8586    0.4659    2.5853 N   0  0  0  0  0  0  0  0  0  0  0  0
   -1.8521    0.3848    2.4000 H   0  0  0  0  0  0  0  0  0  0  0  0
   -0.4403    0.7694    3.9518 C   0  0  0  0  0  0  0  0  0  0  0  0
    0.5066    1.3154    3.9421 H   0  0  0  0  0  0  0  0  0  0  0  0
   -1.1988    1.3789    4.4452 H   0  0  0  0  0  0  0  0  0  0  0  0
   -0.3053   -0.1600    4.5075 H   0  0  0  0  0  0  0  0  0  0  0  0
  5  6  2  0  0  0  0
  5  7  1  0  0  0  0
  2  3  1  0  0  0  0
  2  4  1  0  0  0  0
  2  5  1  0  0  0  0
  1  2  1  0  0  0  0
 22 23  2  0  0  0  0
 22 24  1  0  0  0  0
 20 21  1  0  0  0  0
 18 19  1  0  0  0  0
 18 20  1  0  0  0  0
 16 17  1  0  0  0  0
 16 18  1  0  0  0  0
 15 16  2  0  0  0  0
 14 15  1  0  0  0  0
 14 20  2  0  0  0  0
 11 12  1  0  0  0  0
 11 13  1  0  0  0  0
 11 14  1  0  0  0  0
  9 10  1  0  0  0  0
  9 11  1  0  0  0  0
  9 22  1  0  0  0  0
  7  8  1  0  0  0  0
  7  9  1  0  0  0  0
 26 27  1  0  0  0  0
 26 28  1  0  0  0  0
 26 29  1  0  0  0  0
 24 25  1  0  0  0  0
 24 26  1  0  0  0  0
M  END
$$$$
default_name
  -OEChem-02102213163D

 29 29  0     1  0  0  0  0  0999 V2000
   -2.9561   -3.9186    1.3887 H   0  0  0  0  0  0  0  0  0  0  0  0
   -3.1191   -2.9346    0.9517 C   0  0  0  0  0  0  0  0  0  0  0  0
   -3.7811   -2.3546    1.5917 H   0  0  0  0  0  0  0  0  0  0  0  0
   -3.5591   -3.0406   -0.0383 H   0  0  0  0  0  0  0  0  0  0  0  0
   -1.7921   -2.2226    0.8327 C   0  0  0  0  0  0  0  0  0  0  0  0
   -0.7611   -2.7766    1.1927 O   0  0  0  0  0  0  0  0  0  0  0  0
   -1.8201   -0.9926    0.3247 N   0  0  0  0  0  0  0  0  0  0  0  0
   -2.7141   -0.5816    0.0927 H   0  0  0  0  0  0  0  0  0  0  0  0
   -0.6481   -0.1156    0.2017 C   0  0  1  0  0  0  0  0  0  0  0  0
    0.1042   -0.6345   -0.3958 H   0  0  0  0  0  0  0  0  0  0  0  0
   -1.0420    1.1781   -0.5372 C   0  0  0  0  0  0  0  0  0  0  0  0
   -2.0037    1.0415   -1.0339 H   0  0  0  0  0  0  0  0  0  0  0  0
   -1.1556    1.9926    0.1795 H   0  0  0  0  0  0  0  0  0  0  0  0
   -0.0428    1.5764   -1.5961 C   0  0  0  0  0  0  0  0  0  0  0  0
    0.7598    0.7039   -2.3322 N   0  0  0  0  0  0  0  0  0  0  0  0
    1.4535    1.4714   -3.1854 C   0  0  0  0  0  0  0  0  0  0  0  0
    2.1807    1.0961   -3.8945 H   0  0  0  0  0  0  0  0  0  0  0  0
    1.1111    2.7625   -3.0403 N   0  0  0  0  0  0  0  0  0  0  0  0
    1.4805    3.5315   -3.5824 H   0  0  0  0  0  0  0  0  0  0  0  0
    0.1643    2.8483   -2.0439 C   0  0  0  0  0  0  0  0  0  0  0  0
   -0.3423    3.7366   -1.6879 H   0  0  0  0  0  0  0  0  0  0  0  0
   -0.0283    0.1609    1.5831 C   0  0  0  0  0  0  0  0  0  0  0  0
    1.1923    0.1056    1.7329 O   0  0  0  0  0  0  0  0  0  0  0  0
   -0.8586    0.4659    2.5853 N   0  0  0  0  0  0  0  0  0  0  0  0
   -1.8521    0.3848    2.4000 H   0  0  0  0  0  0  0  0  0  0  0  0
   -0.4403    0.7694    3.9518 C   0  0  0  0  0  0  0  0  0  0  0  0
    0.5066    1.3154    3.9421 H   0  0  0  0  0  0  0  0  0  0  0  0
   -1.1988    1.3789    4.4452 H   0  0  0  0  0  0  0  0  0  0  0  0
   -0.3053   -0.1600    4.5075 H   0  0  0  0  0  0  0  0  0  0  0  0
  5  6  2  0  0  0  0
  5  7  1  0  0  0  0
  2  3  1  0  0  0  0
  2  4  1  0  0  0  0
  2  5  1  0  0  0  0
  1  2  1  0  0  0  0
 22 23  2  0  0  0  0
 22 24  1  0  0  0  0
 20 21  1  0  0  0  0
 18 19  1  0  0  0  0
 18 20  1  0  0  0  0
 16 17  1  0  0  0  0
 16 18  1  0  0  0  0
 15 16  2  0  0  0  0
 14 15  1  0  0  0  0
 14 20  2  0  0  0  0
 11 12  1  0  0  0  0
 11 13  1  0  0  0  0
 11 14  1  0  0  0  0
  9 10  1  0  0  0  0
  9 11  1  0  0  0  0
  9 22  1  0  0  0  0
  7  8  1  0  0  0  0
  7  9  1  0  0  0  0
 26 27  1  0  0  0  0
 26 28  1  0  0  0  0
 26 29  1  0  0  0  0
 24 25  1  0  0  0  0
 24 26  1  0  0  0  0
M  END
$$$$
default_name
  -OEChem-02102213163D

 29 29  0     1  0  0  0  0  0999 V2000
   -2.9561   -3.9186    1.3887 H   0  0  0  0  0  0  0  0  0  0  0  0
   -3.1191   -2.9346    0.9517 C   0  0  0  0  0  0  0  0  0  0  0  0
   -3.7811   -2.3546    1.5917 H   0  0  0  0  0  0  0  0  0  0  0  0
   -3.5591   -3.0406   -0.0383 H   0  0  0  0  0  0  0  0  0  0  0  0
   -1.7921   -2.2226    0.8327 C   0  0  0  0  0  0  0  0  0  0  0  0
   -0.7611   -2.7766    1.1927 O   0  0  0  0  0  0  0  0  0  0  0  0
   -1.8201   -0.9926    0.3247 N   0  0  0  0  0  0  0  0  0  0  0  0
   -2.7141   -0.5816    0.0927 H   0  0  0  0  0  0  0  0  0  0  0  0
   -0.6481   -0.1156    0.2017 C   0  0  1  0  0  0  0  0  0  0  0  0
    0.1042   -0.6345   -0.3958 H   0  0  0  0  0  0  0  0  0  0  0  0
   -1.0420    1.1781   -0.5372 C   0  0  0  0  0  0  0  0  0  0  0  0
   -2.0037    1.0415   -1.0339 H   0  0  0  0  0  0  0  0  0  0  0  0
   -1.1556    1.9926    0.1795 H   0  0  0  0  0  0  0  0  0  0  0  0
   -0.0428    1.5764   -1.5961 C   0  0  0  0  0  0  0  0  0  0  0  0
    0.5422    0.7214   -2.5310 N   0  0  0  0  0  0  0  0  0  0  0  0
    1.3218    1.4943   -3.3012 C   0  0  0  0  0  0  0  0  0  0  0  0
    1.9275    1.1292   -4.1210 H   0  0  0  0  0  0  0  0  0  0  0  0
    1.2356    2.7788   -2.9166 N   0  0  0  0  0  0  0  0  0  0  0  0
    1.7137    3.5549   -3.3535 H   0  0  0  0  0  0  0  0  0  0  0  0
    0.3753    2.8512   -1.8436 C   0  0  0  0  0  0  0  0  0  0  0  0
    0.0637    3.7370   -1.3047 H   0  0  0  0  0  0  0  0  0  0  0  0
   -0.0283    0.1609    1.5831 C   0  0  0  0  0  0  0  0  0  0  0  0
    1.1923    0.1056    1.7329 O   0  0  0  0  0  0  0  0  0  0  0  0
   -0.8586    0.4659    2.5853 N   0  0  0  0  0  0  0  0  0  0  0  0
   -1.8521    0.3848    2.4000 H   0  0  0  0  0  0  0  0  0  0  0  0
   -0.4403    0.7694    3.9518 C   0  0  0  0  0  0  0  0  0  0  0  0
    0.5066    1.3154    3.9421 H   0  0  0  0  0  0  0  0  0  0  0  0
   -1.1988    1.3789    4.4452 H   0  0  0  0  0  0  0  0  0  0  0  0
   -0.3053   -0.1600    4.5075 H   0  0  0  0  0  0  0  0  0  0  0  0
  5  6  2  0  0  0  0
  5  7  1  0  0  0  0
  2  3  1  0  0  0  0
  2  4  1  0  0  0  0
  2  5  1  0  0  0  0
  1  2  1  0  0  0  0
 22 23  2  0  0  0  0
 22 24  1  0  0  0  0
 20 21  1  0  0  0  0
 18 19  1  0  0  0  0
 18 20  1  0  0  0  0
 16 17  1  0  0  0  0
 16 18  1  0  0  0  0
 15 16  2  0  0  0  0
 14 15  1  0  0  0  0
 14 20  2  0  0  0  0
 11 12  1  0  0  0  0
 11 13  1  0  0  0  0
 11 14  1  0  0  0  0
  9 10  1  0  0  0  0
  9 11  1  0  0  0  0
  9 22  1  0  0  0  0
  7  8  1  0  0  0  0
  7  9  1  0  0  0  0
 26 27  1  0  0  0  0
 26 28  1  0  0  0  0
 26 29  1  0  0  0  0
 24 25  1  0  0  0  0
 24 26  1  0  0  0  0
M  END
$$$$
default_name
  -OEChem-02102213163D

 29 29  0     1  0  0  0  0  0999 V2000
   -2.9561   -3.9186    1.3887 H   0  0  0  0  0  0  0  0  0  0  0  0
   -3.1191   -2.9346    0.9517 C   0  0  0  0  0  0  0  0  0  0  0  0
   -3.7811   -2.3546    1.5917 H   0  0  0  0  0  0  0  0  0  0  0  0
   -3.5591   -3.0406   -0.0383 H   0  0  0  0  0  0  0  0  0  0  0  0
   -1.7921   -2.2226    0.8327 C   0  0  0  0  0  0  0  0  0  0  0  0
   -0.7611   -2.7766    1.1927 O   0  0  0  0  0  0  0  0  0  0  0  0
   -1.8201   -0.9926    0.3247 N   0  0  0  0  0  0  0  0  0  0  0  0
   -2.7141   -0.5816    0.0927 H   0  0  0  0  0  0  0  0  0  0  0  0
   -0.6481   -0.1156    0.2017 C   0  0  1  0  0  0  0  0  0  0  0  0
    0.1042   -0.6345   -0.3958 H   0  0  0  0  0  0  0  0  0  0  0  0
   -1.0420    1.1781   -0.5372 C   0  0  0  0  0  0  0  0  0  0  0  0
   -2.0037    1.0415   -1.0339 H   0  0  0  0  0  0  0  0  0  0  0  0
   -1.1556    1.9926    0.1795 H   0  0  0  0  0  0  0  0  0  0  0  0
   -0.0428    1.5764   -1.5961 C   0  0  0  0  0  0  0  0  0  0  0  0
    0.3216    0.8118   -2.7051 N   0  0  0  0  0  0  0  0  0  0  0  0
    1.1908    1.5601   -3.4000 C   0  0  0  0  0  0  0  0  0  0  0  0
    1.6734    1.2459   -4.3169 H   0  0  0  0  0  0  0  0  0  0  0  0
    1.3673    2.7507   -2.8029 N   0  0  0  0  0  0  0  0  0  0  0  0
    1.9589    3.4959   -3.1444 H   0  0  0  0  0  0  0  0  0  0  0  0
    0.5934    2.7813   -1.6642 C   0  0  0  0  0  0  0  0  0  0  0  0
    0.4821    3.5981   -0.9621 H   0  0  0  0  0  0  0  0  0  0  0  0
   -0.0283    0.1609    1.5831 C   0  0  0  0  0  0  0  0  0  0  0  0
    1.1923    0.1056    1.7329 O   0  0  0  0  0  0  0  0  0  0  0  0
   -0.8586    0.4659    2.5853 N   0  0  0  0  0  0  0  0  0  0  0  0
   -1.8521    0.3848    2.4000 H   0  0  0  0  0  0  0  0  0  0  0  0
   -0.4403    0.7694    3.9518 C   0  0  0  0  0  0  0  0  0  0  0  0
    0.5066    1.3154    3.9421 H   0  0  0  0  0  0  0  0  0  0  0  0
   -1.1988    1.3789    4.4452 H   0  0  0  0  0  0  0  0  0  0  0  0
   -0.3053   -0.1600    4.5075 H   0  0  0  0  0  0  0  0  0  0  0  0
  5  6  2  0  0  0  0
  5  7  1  0  0  0  0
  2  3  1  0  0  0  0
  2  4  1  0  0  0  0
  2  5  1  0  0  0  0
  1  2  1  0  0  0  0
 22 23  2  0  0  0  0
 22 24  1  0  0  0  0
 20 21  1  0  0  0  0
 18 19  1  0  0  0  0
 18 20  1  0  0  0  0
 16 17  1  0  0  0  0
 16 18  1  0  0  0  0
 15 16  2  0  0  0  0
 14 15  1  0  0  0  0
 14 20  2  0  0  0  0
 11 12  1  0  0  0  0
 11 13  1  0  0  0  0
 11 14  1  0  0  0  0
  9 10  1  0  0  0  0
  9 11  1  0  0  0  0
  9 22  1  0  0  0  0
  7  8  1  0  0  0  0
  7  9  1  0  0  0  0
 26 27  1  0  0  0  0
 26 28  1  0  0  0  0
 26 29  1  0  0  0  0
 24 25  1  0  0  0  0
 24 26  1  0  0  0  0
M  END
$$$$
default_name
  -OEChem-02102213163D

 29 29  0     1  0  0  0  0  0999 V2000
   -2.9561   -3.9186    1.3887 H   0  0  0  0  0  0  0  0  0  0  0  0
   -3.1191   -2.9346    0.9517 C   0  0  0  0  0  0  0  0  0  0  0  0
   -3.7811   -2.3546    1.5917 H   0  0  0  0  0  0  0  0  0  0  0  0
   -3.5591   -3.0406   -0.0383 H   0  0  0  0  0  0  0  0  0  0  0  0
   -1.7921   -2.2226    0.8327 C   0  0  0  0  0  0  0  0  0  0  0  0
   -0.7611   -2.7766    1.1927 O   0  0  0  0  0  0  0  0  0  0  0  0
   -1.8201   -0.9926    0.3247 N   0  0  0  0  0  0  0  0  0  0  0  0
   -2.7141   -0.5816    0.0927 H   0  0  0  0  0  0  0  0  0  0  0  0
   -0.6481   -0.1156    0.2017 C   0  0  1  0  0  0  0  0  0  0  0  0
    0.1042   -0.6345   -0.3958 H   0  0  0  0  0  0  0  0  0  0  0  0
   -1.0420    1.1781   -0.5372 C   0  0  0  0  0  0  0  0  0  0  0  0
   -2.0037    1.0415   -1.0339 H   0  0  0  0  0  0  0  0  0  0  0  0
   -1.1556    1.9926    0.1795 H   0  0  0  0  0  0  0  0  0  0  0  0
   -0.0428    1.5764   -1.5961 C   0  0  0  0  0  0  0  0  0  0  0  0
    0.1131    0.9691   -2.8427 N   0  0  0  0  0  0  0  0  0  0  0  0
    1.0695    1.6644   -3.4753 C   0  0  0  0  0  0  0  0  0  0  0  0
    1.4358    1.4383   -4.4687 H   0  0  0  0  0  0  0  0  0  0  0  0
    1.4972    2.6802   -2.7068 N   0  0  0  0  0  0  0  0  0  0  0  0
    2.1993    3.3586   -2.9692 H   0  0  0  0  0  0  0  0  0  0  0  0
    0.8036    2.6435   -1.5176 C   0  0  0  0  0  0  0  0  0  0  0  0
    0.8844    3.3292   -0.6836 H   0  0  0  0  0  0  0  0  0  0  0  0
   -0.0283    0.1609    1.5831 C   0  0  0  0  0  0  0  0  0  0  0  0
    1.1923    0.1056    1.7329 O   0  0  0  0  0  0  0  0  0  0  0  0
   -0.8586    0.4659    2.5853 N   0  0  0  0  0  0  0  0  0  0  0  0
   -1.8521    0.3848    2.4000 H   0  0  0  0  0  0  0  0  0  0  0  0
   -0.4403    0.7694    3.9518 C   0  0  0  0  0  0  0  0  0  0  0  0
    0.5066    1.3154    3.9421 H   0  0  0  0  0  0  0  0  0  0  0  0
   -1.1988    1.3789    4.4452 H   0  0  0  0  0  0  0  0  0  0  0  0
   -0.3053   -0.1600    4.5075 H   0  0  0  0  0  0  0  0  0  0  0  0
  5  6  2  0  0  0  0
  5  7  1  0  0  0  0
  2  3  1  0  0  0  0
  2  4  1  0  0  0  0
  2  5  1  0  0  0  0
  1  2  1  0  0  0  0
 22 23  2  0  0  0  0
 22 24  1  0  0  0  0
 20 21  1  0  0  0  0
 18 19  1  0  0  0  0
 18 20  1  0  0  0  0
 16 17  1  0  0  0  0
 16 18  1  0  0  0  0
 15 16  2  0  0  0  0
 14 15  1  0  0  0  0
 14 20  2  0  0  0  0
 11 12  1  0  0  0  0
 11 13  1  0  0  0  0
 11 14  1  0  0  0  0
  9 10  1  0  0  0  0
  9 11  1  0  0  0  0
  9 22  1  0  0  0  0
  7  8  1  0  0  0  0
  7  9  1  0  0  0  0
 26 27  1  0  0  0  0
 26 28  1  0  0  0  0
 26 29  1  0  0  0  0
 24 25  1  0  0  0  0
 24 26  1  0  0  0  0
M  END
$$$$
default_name
  -OEChem-02102213163D

 29 29  0     1  0  0  0  0  0999 V2000
   -2.9561   -3.9186    1.3887 H   0  0  0  0  0  0  0  0  0  0  0  0
   -3.1191   -2.9346    0.9517 C   0  0  0  0  0  0  0  0  0  0  0  0
   -3.7811   -2.3546    1.5917 H   0  0  0  0  0  0  0  0  0  0  0  0
   -3.5591   -3.0406   -0.0383 H   0  0  0  0  0  0  0  0  0  0  0  0
   -1.7921   -2.2226    0.8327 C   0  0  0  0  0  0  0  0  0  0  0  0
   -0.7611   -2.7766    1.1927 O   0  0  0  0  0  0  0  0  0  0  0  0
   -1.8201   -0.9926    0.3247 N   0  0  0  0  0  0  0  0  0  0  0  0
   -2.7141   -0.5816    0.0927 H   0  0  0  0  0  0  0  0  0  0  0  0
   -0.6481   -0.1156    0.2017 C   0  0  1  0  0  0  0  0  0  0  0  0
    0.1042   -0.6345   -0.3958 H   0  0  0  0  0  0  0  0  0  0  0  0
   -1.0420    1.1781   -0.5372 C   0  0  0  0  0  0  0  0  0  0  0  0
   -2.0037    1.0415   -1.0339 H   0  0  0  0  0  0  0  0  0  0  0  0
   -1.1556    1.9926    0.1795 H   0  0  0  0  0  0  0  0  0  0  0  0
   -0.0428    1.5764   -1.5961 C   0  0  0  0  0  0  0  0  0  0  0  0
   -0.0692    1.1824   -2.9345 N   0  0  0  0  0  0  0  0  0  0  0  0
    0.9661    1.8001   -3.5218 C   0  0  0  0  0  0  0  0  0  0  0  0
    1.2308    1.6934   -4.5662 H   0  0  0  0  0  0  0  0  0  0  0  0
    1.6164    2.5721   -2.6350 N   0  0  0  0  0  0  0  0  0  0  0  0
    2.4185    3.1523   -2.8399 H   0  0  0  0  0  0  0  0  0  0  0  0
    0.9916    2.4471   -1.4141 C   0  0  0  0  0  0  0  0  0  0  0  0
    1.2432    2.9487   -0.4881 H   0  0  0  0  0  0  0  0  0  0  0  0
   -0.0283    0.1609    1.5831 C   0  0  0  0  0  0  0  0  0  0  0  0
    1.1923    0.1056    1.7329 O   0  0  0  0  0  0  0  0  0  0  0  0
   -0.8586    0.4659    2.5853 N   0  0  0  0  0  0  0  0  0  0  0  0
   -1.8521    0.3848    2.4000 H   0  0  0  0  0  0  0  0  0  0  0  0
   -0.4403    0.7694    3.9518 C   0  0  0  0  0  0  0  0  0  0  0  0
    0.5066    1.3154    3.9421 H   0  0  0  0  0  0  0  0  0  0  0  0
   -1.1988    1.3789    4.4452 H   0  0  0  0  0  0  0  0  0  0  0  0
   -0.3053   -0.1600    4.5075 H   0  0  0  0  0  0  0  0  0  0  0  0
  5  6  2  0  0  0  0
  5  7  1  0  0  0  0
  2  3  1  0  0  0  0
  2  4  1  0  0  0  0
  2  5  1  0  0  0  0
  1  2  1  0  0  0  0
 22 23  2  0  0  0  0
 22 24  1  0  0  0  0
 20 21  1  0  0  0  0
 18 19  1  0  0  0  0
 18 20  1  0  0  0  0
 16 17  1  0  0  0  0
 16 18  1  0  0  0  0
 15 16  2  0  0  0  0
 14 15  1  0  0  0  0
 14 20  2  0  0  0  0
 11 12  1  0  0  0  0
 11 13  1  0  0  0  0
 11 14  1  0  0  0  0
  9 10  1  0  0  0  0
  9 11  1  0  0  0  0
  9 22  1  0  0  0  0
  7  8  1  0  0  0  0
  7  9  1  0  0  0  0
 26 27  1  0  0  0  0
 26 28  1  0  0  0  0
 26 29  1  0  0  0  0
 24 25  1  0  0  0  0
 24 26  1  0  0  0  0
M  END
$$$$
default_name
  -OEChem-02102213163D

 29 29  0     1  0  0  0  0  0999 V2000
   -2.9561   -3.9186    1.3887 H   0  0  0  0  0  0  0  0  0  0  0  0
   -3.1191   -2.9346    0.9517 C   0  0  0  0  0  0  0  0  0  0  0  0
   -3.7811   -2.3546    1.5917 H   0  0  0  0  0  0  0  0  0  0  0  0
   -3.5591   -3.0406   -0.0383 H   0  0  0  0  0  0  0  0  0  0  0  0
   -1.7921   -2.2226    0.8327 C   0  0  0  0  0  0  0  0  0  0  0  0
   -0.7611   -2.7766    1.1927 O   0  0  0  0  0  0  0  0  0  0  0  0
   -1.8201   -0.9926    0.3247 N   0  0  0  0  0  0  0  0  0  0  0  0
   -2.7141   -0.5816    0.0927 H   0  0  0  0  0  0  0  0  0  0  0  0
   -0.6481   -0.1156    0.2017 C   0  0  1  0  0  0  0  0  0  0  0  0
    0.1042   -0.6345   -0.3958 H   0  0  0  0  0  0  0  0  0  0  0  0
   -1.0420    1.1781   -0.5372 C   0  0  0  0  0  0  0  0  0  0  0  0
   -2.0037    1.0415   -1.0339 H   0  0  0  0  0  0  0  0  0  0  0  0
   -1.1556    1.9926    0.1795 H   0  0  0  0  0  0  0  0  0  0  0  0
   -0.0428    1.5764   -1.5961 C   0  0  0  0  0  0  0  0  0  0  0  0
   -0.2128    1.4373   -2.9742 N   0  0  0  0  0  0  0  0  0  0  0  0
    0.8877    1.9580   -3.5364 C   0  0  0  0  0  0  0  0  0  0  0  0
    1.0725    1.9936   -4.6026 H   0  0  0  0  0  0  0  0  0  0  0  0
    1.7169    2.4337   -2.5923 N   0  0  0  0  0  0  0  0  0  0  0  0
    2.6016    2.8910   -2.7654 H   0  0  0  0  0  0  0  0  0  0  0  0
    1.1446    2.2055   -1.3606 C   0  0  0  0  0  0  0  0  0  0  0  0
    1.5341    2.4825   -0.3890 H   0  0  0  0  0  0  0  0  0  0  0  0
   -0.0283    0.1609    1.5831 C   0  0  0  0  0  0  0  0  0  0  0  0
    1.1923    0.1056    1.7329 O   0  0  0  0  0  0  0  0  0  0  0  0
   -0.8586    0.4659    2.5853 N   0  0  0  0  0  0  0  0  0  0  0  0
   -1.8521    0.3848    2.4000 H   0  0  0  0  0  0  0  0  0  0  0  0
   -0.4403    0.7694    3.9518 C   0  0  0  0  0  0  0  0  0  0  0  0
    0.5066    1.3154    3.9421 H   0  0  0  0  0  0  0  0  0  0  0  0
   -1.1988    1.3789    4.4452 H   0  0  0  0  0  0  0  0  0  0  0  0
   -0.3053   -0.1600    4.5075 H   0  0  0  0  0  0  0  0  0  0  0  0
  5  6  2  0  0  0  0
  5  7  1  0  0  0  0
  2  3  1  0  0  0  0
  2  4  1  0  0  0  0
  2  5  1  0  0  0  0
  1  2  1  0  0  0  0
 22 23  2  0  0  0  0
 22 24  1  0  0  0  0
 20 21  1  0  0  0  0
 18 19  1  0  0  0  0
 18 20  1  0  0  0  0
 16 17  1  0  0  0  0
 16 18  1  0  0  0  0
 15 16  2  0  0  0  0
 14 15  1  0  0  0  0
 14 20  2  0  0  0  0
 11 12  1  0  0  0  0
 11 13  1  0  0  0  0
 11 14  1  0  0  0  0
  9 10  1  0  0  0  0
  9 11  1  0  0  0  0
  9 22  1  0  0  0  0
  7  8  1  0  0  0  0
  7  9  1  0  0  0  0
 26 27  1  0  0  0  0
 26 28  1  0  0  0  0
 26 29  1  0  0  0  0
 24 25  1  0  0  0  0
 24 26  1  0  0  0  0
M  END
$$$$
default_name
  -OEChem-02102213163D

 29 29  0     1  0  0  0  0  0999 V2000
   -2.9561   -3.9186    1.3887 H   0  0  0  0  0  0  0  0  0  0  0  0
   -3.1191   -2.9346    0.9517 C   0  0  0  0  0  0  0  0  0  0  0  0
   -3.7811   -2.3546    1.5917 H   0  0  0  0  0  0  0  0  0  0  0  0
   -3.5591   -3.0406   -0.0383 H   0  0  0  0  0  0  0  0  0  0  0  0
   -1.7921   -2.2226    0.8327 C   0  0  0  0  0  0  0  0  0  0  0  0
   -0.7611   -2.7766    1.1927 O   0  0  0  0  0  0  0  0  0  0  0  0
   -1.8201   -0.9926    0.3247 N   0  0  0  0  0  0  0  0  0  0  0  0
   -2.7141   -0.5816    0.0927 H   0  0  0  0  0  0  0  0  0  0  0  0
   -0.6481   -0.1156    0.2017 C   0  0  1  0  0  0  0  0  0  0  0  0
    0.1042   -0.6345   -0.3958 H   0  0  0  0  0  0  0  0  0  0  0  0
   -1.0420    1.1781   -0.5372 C   0  0  0  0  0  0  0  0  0  0  0  0
   -2.0037    1.0415   -1.0339 H   0  0  0  0  0  0  0  0  0  0  0  0
   -1.1556    1.9926    0.1795 H   0  0  0  0  0  0  0  0  0  0  0  0
   -0.0428    1.5764   -1.5961 C   0  0  0  0  0  0  0  0  0  0  0  0
   -0.3080    1.7164   -2.9590 N   0  0  0  0  0  0  0  0  0  0  0  0
    0.8396    2.1272   -3.5181 C   0  0  0  0  0  0  0  0  0  0  0  0
    0.9716    2.3186   -4.5756 H   0  0  0  0  0  0  0  0  0  0  0  0
    1.7917    2.2745   -2.5816 N   0  0  0  0  0  0  0  0  0  0  0  0
    2.7361    2.5927   -2.7507 H   0  0  0  0  0  0  0  0  0  0  0  0
    1.2522    1.9352   -1.3607 C   0  0  0  0  0  0  0  0  0  0  0  0
    1.7371    1.9624   -0.3930 H   0  0  0  0  0  0  0  0  0  0  0  0
   -0.0283    0.1609    1.5831 C   0  0  0  0  0  0  0  0  0  0  0  0
    1.1923    0.1056    1.7329 O   0  0  0  0  0  0  0  0  0  0  0  0
   -0.8586    0.4659    2.5853 N   0  0  0  0  0  0  0  0  0  0  0  0
   -1.8521    0.3848    2.4000 H   0  0  0  0  0  0  0  0  0  0  0  0
   -0.4403    0.7694    3.9518 C   0  0  0  0  0  0  0  0  0  0  0  0
    0.5066    1.3154    3.9421 H   0  0  0  0  0  0  0  0  0  0  0  0
   -1.1988    1.3789    4.4452 H   0  0  0  0  0  0  0  0  0  0  0  0
   -0.3053   -0.1600    4.5075 H   0  0  0  0  0  0  0  0  0  0  0  0
  5  6  2  0  0  0  0
  5  7  1  0  0  0  0
  2  3  1  0  0  0  0
  2  4  1  0  0  0  0
  2  5  1  0  0  0  0
  1  2  1  0  0  0  0
 22 23  2  0  0  0  0
 22 24  1  0  0  0  0
 20 21  1  0  0  0  0
 18 19  1  0  0  0  0
 18 20  1  0  0  0  0
 16 17  1  0  0  0  0
 16 18  1  0  0  0  0
 15 16  2  0  0  0  0
 14 15  1  0  0  0  0
 14 20  2  0  0  0  0
 11 12  1  0  0  0  0
 11 13  1  0  0  0  0
 11 14  1  0  0  0  0
  9 10  1  0  0  0  0
  9 11  1  0  0  0  0
  9 22  1  0  0  0  0
  7  8  1  0  0  0  0
  7  9  1  0  0  0  0
 26 27  1  0  0  0  0
 26 28  1  0  0  0  0
 26 29  1  0  0  0  0
 24 25  1  0  0  0  0
 24 26  1  0  0  0  0
M  END
$$$$
default_name
  -OEChem-02102213163D

 29 29  0     1  0  0  0  0  0999 V2000
   -2.9561   -3.9186    1.3887 H   0  0  0  0  0  0  0  0  0  0  0  0
   -3.1191   -2.9346    0.9517 C   0  0  0  0  0  0  0  0  0  0  0  0
   -3.7811   -2.3546    1.5917 H   0  0  0  0  0  0  0  0  0  0  0  0
   -3.5591   -3.0406   -0.0383 H   0  0  0  0  0  0  0  0  0  0  0  0
   -1.7921   -2.2226    0.8327 C   0  0  0  0  0  0  0  0  0  0  0  0
   -0.7611   -2.7766    1.1927 O   0  0  0  0  0  0  0  0  0  0  0  0
   -1.8201   -0.9926    0.3247 N   0  0  0  0  0  0  0  0  0  0  0  0
   -2.7141   -0.5816    0.0927 H   0  0  0  0  0  0  0  0  0  0  0  0
   -0.6481   -0.1156    0.2017 C   0  0  1  0  0  0  0  0  0  0  0  0
    0.1042   -0.6345   -0.3958 H   0  0  0  0  0  0  0  0  0  0  0  0
   -1.0420    1.1781   -0.5372 C   0  0  0  0  0  0  0  0  0  0  0  0
   -2.0037    1.0415   -1.0339 H   0  0  0  0  0  0  0  0  0  0  0  0
   -1.1556    1.9926    0.1795 H   0  0  0  0  0  0  0  0  0  0  0  0
   -0.0428    1.5764   -1.5961 C   0  0  0  0  0  0  0  0  0  0  0  0
   -0.3482    2.0006   -2.8900 N   0  0  0  0  0  0  0  0  0  0  0  0
    0.8251    2.2962   -3.4682 C   0  0  0  0  0  0  0  0  0  0  0  0
    0.9351    2.6462   -4.4869 H   0  0  0  0  0  0  0  0  0  0  0  0
    1.8357    2.1053   -2.6036 N   0  0  0  0  0  0  0  0  0  0  0  0
    2.8129    2.2776   -2.7967 H   0  0  0  0  0  0  0  0  0  0  0  0
    1.3071    1.6546   -1.4145 C   0  0  0  0  0  0  0  0  0  0  0  0
    1.8386    1.4239   -0.4999 H   0  0  0  0  0  0  0  0  0  0  0  0
   -0.0283    0.1609    1.5831 C   0  0  0  0  0  0  0  0  0  0  0  0
    1.1923    0.1056    1.7329 O   0  0  0  0  0  0  0  0  0  0  0  0
   -0.8586    0.4659    2.5853 N   0  0  0  0  0  0  0  0  0  0  0  0
   -1.8521    0.3848    2.4000 H   0  0  0  0  0  0  0  0  0  0  0  0
   -0.4403    0.7694    3.9518 C   0  0  0  0  0  0  0  0  0  0  0  0
    0.5066    1.3154    3.9421 H   0  0  0  0  0  0  0  0  0  0  0  0
   -1.1988    1.3789    4.4452 H   0  0  0  0  0  0  0  0  0  0  0  0
   -0.3053   -0.1600    4.5075 H   0  0  0  0  0  0  0  0  0  0  0  0
  5  6  2  0  0  0  0
  5  7  1  0  0  0  0
  2  3  1  0  0  0  0
  2  4  1  0  0  0  0
  2  5  1  0  0  0  0
  1  2  1  0  0  0  0
 22 23  2  0  0  0  0
 22 24  1  0  0  0  0
 20 21  1  0  0  0  0
 18 19  1  0  0  0  0
 18 20  1  0  0  0  0
 16 17  1  0  0  0  0
 16 18  1  0  0  0  0
 15 16  2  0  0  0  0
 14 15  1  0  0  0  0
 14 20  2  0  0  0  0
 11 12  1  0  0  0  0
 11 13  1  0  0  0  0
 11 14  1  0  0  0  0
  9 10  1  0  0  0  0
  9 11  1  0  0  0  0
  9 22  1  0  0  0  0
  7  8  1  0  0  0  0
  7  9  1  0  0  0  0
 26 27  1  0  0  0  0
 26 28  1  0  0  0  0
 26 29  1  0  0  0  0
 24 25  1  0  0  0  0
 24 26  1  0  0  0  0
M  END
$$$$
default_name
  -OEChem-02102213163D

 29 29  0     1  0  0  0  0  0999 V2000
   -2.9561   -3.9186    1.3887 H   0  0  0  0  0  0  0  0  0  0  0  0
   -3.1191   -2.9346    0.9517 C   0  0  0  0  0  0  0  0  0  0  0  0
   -3.7811   -2.3546    1.5917 H   0  0  0  0  0  0  0  0  0  0  0  0
   -3.5591   -3.0406   -0.0383 H   0  0  0  0  0  0  0  0  0  0  0  0
   -1.7921   -2.2226    0.8327 C   0  0  0  0  0  0  0  0  0  0  0  0
   -0.7611   -2.7766    1.1927 O   0  0  0  0  0  0  0  0  0  0  0  0
   -1.8201   -0.9926    0.3247 N   0  0  0  0  0  0  0  0  0  0  0  0
   -2.7141   -0.5816    0.0927 H   0  0  0  0  0  0  0  0  0  0  0  0
   -0.6481   -0.1156    0.2017 C   0  0  1  0  0  0  0  0  0  0  0  0
    0.1042   -0.6345   -0.3958 H   0  0  0  0  0  0  0  0  0  0  0  0
   -1.0420    1.1781   -0.5372 C   0  0  0  0  0  0  0  0  0  0  0  0
   -2.0037    1.0415   -1.0339 H   0  0  0  0  0  0  0  0  0  0  0  0
   -1.1556    1.9926    0.1795 H   0  0  0  0  0  0  0  0  0  0  0  0
   -0.0428    1.5764   -1.5961 C   0  0  0  0  0  0  0  0  0  0  0  0
   -0.3307    2.2707   -2.7719 N   0  0  0  0  0  0  0  0  0  0  0  0
    0.8452    2.4535   -3.3900 C   0  0  0  0  0  0  0  0  0  0  0  0
    0.9653    2.9541   -4.3426 H   0  0  0  0  0  0  0  0  0  0  0  0
    1.8461    1.9376   -2.6570 N   0  0  0  0  0  0  0  0  0  0  0  0
    2.8267    1.9671   -2.9005 H   0  0  0  0  0  0  0  0  0  0  0  0
    1.3054    1.3828   -1.5183 C   0  0  0  0  0  0  0  0  0  0  0  0
    1.8315    0.9036   -0.7023 H   0  0  0  0  0  0  0  0  0  0  0  0
   -0.0283    0.1609    1.5831 C   0  0  0  0  0  0  0  0  0  0  0  0
    1.1923    0.1056    1.7329 O   0  0  0  0  0  0  0  0  0  0  0  0
   -0.8586    0.4659    2.5853 N   0  0  0  0  0  0  0  0  0  0  0  0
   -1.8521    0.3848    2.4000 H   0  0  0  0  0  0  0  0  0  0  0  0
   -0.4403    0.7694    3.9518 C   0  0  0  0  0  0  0  0  0  0  0  0
    0.5066    1.3154    3.9421 H   0  0  0  0  0  0  0  0  0  0  0  0
   -1.1988    1.3789    4.4452 H   0  0  0  0  0  0  0  0  0  0  0  0
   -0.3053   -0.1600    4.5075 H   0  0  0  0  0  0  0  0  0  0  0  0
  5  6  2  0  0  0  0
  5  7  1  0  0  0  0
  2  3  1  0  0  0  0
  2  4  1  0  0  0  0
  2  5  1  0  0  0  0
  1  2  1  0  0  0  0
 22 23  2  0  0  0  0
 22 24  1  0  0  0  0
 20 21  1  0  0  0  0
 18 19  1  0  0  0  0
 18 20  1  0  0  0  0
 16 17  1  0  0  0  0
 16 18  1  0  0  0  0
 15 16  2  0  0  0  0
 14 15  1  0  0  0  0
 14 20  2  0  0  0  0
 11 12  1  0  0  0  0
 11 13  1  0  0  0  0
 11 14  1  0  0  0  0
  9 10  1  0  0  0  0
  9 11  1  0  0  0  0
  9 22  1  0  0  0  0
  7  8  1  0  0  0  0
  7  9  1  0  0  0  0
 26 27  1  0  0  0  0
 26 28  1  0  0  0  0
 26 29  1  0  0  0  0
 24 25  1  0  0  0  0
 24 26  1  0  0  0  0
M  END
$$$$
default_name
  -OEChem-02102213163D

 29 29  0     1  0  0  0  0  0999 V2000
   -2.9561   -3.9186    1.3887 H   0  0  0  0  0  0  0  0  0  0  0  0
   -3.1191   -2.9346    0.9517 C   0  0  0  0  0  0  0  0  0  0  0  0
   -3.7811   -2.3546    1.5917 H   0  0  0  0  0  0  0  0  0  0  0  0
   -3.5591   -3.0406   -0.0383 H   0  0  0  0  0  0  0  0  0  0  0  0
   -1.7921   -2.2226    0.8327 C   0  0  0  0  0  0  0  0  0  0  0  0
   -0.7611   -2.7766    1.1927 O   0  0  0  0  0  0  0  0  0  0  0  0
   -1.8201   -0.9926    0.3247 N   0  0  0  0  0  0  0  0  0  0  0  0
   -2.7141   -0.5816    0.0927 H   0  0  0  0  0  0  0  0  0  0  0  0
   -0.6481   -0.1156    0.2017 C   0  0  1  0  0  0  0  0  0  0  0  0
    0.1042   -0.6345   -0.3958 H   0  0  0  0  0  0  0  0  0  0  0  0
   -1.0420    1.1781   -0.5372 C   0  0  0  0  0  0  0  0  0  0  0  0
   -2.0037    1.0415   -1.0339 H   0  0  0  0  0  0  0  0  0  0  0  0
   -1.1556    1.9926    0.1795 H   0  0  0  0  0  0  0  0  0  0  0  0
   -0.0428    1.5764   -1.5961 C   0  0  0  0  0  0  0  0  0  0  0  0
   -0.2567    2.5081   -2.6127 N   0  0  0  0  0  0  0  0  0  0  0  0
    0.8986    2.5884   -3.2890 C   0  0  0  0  0  0  0  0  0  0  0  0
    1.0602    3.2213   -4.1525 H   0  0  0  0  0  0  0  0  0  0  0  0
    1.8220    1.7829   -2.7379 N   0  0  0  0  0  0  0  0  0  0  0  0
    2.7766    1.6825   -3.0548 H   0  0  0  0  0  0  0  0  0  0  0  0
    1.2474    1.1384   -1.6650 C   0  0  0  0  0  0  0  0  0  0  0  0
    1.7164    0.4370   -0.9865 H   0  0  0  0  0  0  0  0  0  0  0  0
   -0.0283    0.1609    1.5831 C   0  0  0  0  0  0  0  0  0  0  0  0
    1.1923    0.1056    1.7329 O   0  0  0  0  0  0  0  0  0  0  0  0
   -0.8586    0.4659    2.5853 N   0  0  0  0  0  0  0  0  0  0  0  0
   -1.8521    0.3848    2.4000 H   0  0  0  0  0  0  0  0  0  0  0  0
   -0.4403    0.7694    3.9518 C   0  0  0  0  0  0  0  0  0  0  0  0
    0.5066    1.3154    3.9421 H   0  0  0  0  0  0  0  0  0  0  0  0
   -1.1988    1.3789    4.4452 H   0  0  0  0  0  0  0  0  0  0  0  0
   -0.3053   -0.1600    4.5075 H   0  0  0  0  0  0  0  0  0  0  0  0
  5  6  2  0  0  0  0
  5  7  1  0  0  0  0
  2  3  1  0  0  0  0
  2  4  1  0  0  0  0
  2  5  1  0  0  0  0
  1  2  1  0  0  0  0
 22 23  2  0  0  0  0
 22 24  1  0  0  0  0
 20 21  1  0  0  0  0
 18 19  1  0  0  0  0
 18 20  1  0  0  0  0
 16 17  1  0  0  0  0
 16 18  1  0  0  0  0
 15 16  2  0  0  0  0
 14 15  1  0  0  0  0
 14 20  2  0  0  0  0
 11 12  1  0  0  0  0
 11 13  1  0  0  0  0
 11 14  1  0  0  0  0
  9 10  1  0  0  0  0
  9 11  1  0  0  0  0
  9 22  1  0  0  0  0
  7  8  1  0  0  0  0
  7  9  1  0  0  0  0
 26 27  1  0  0  0  0
 26 28  1  0  0  0  0
 26 29  1  0  0  0  0
 24 25  1  0  0  0  0
 24 26  1  0  0  0  0
M  END
$$$$
default_name
  -OEChem-02102213163D

 29 29  0     1  0  0  0  0  0999 V2000
   -2.9561   -3.9186    1.3887 H   0  0  0  0  0  0  0  0  0  0  0  0
   -3.1191   -2.9346    0.9517 C   0  0  0  0  0  0  0  0  0  0  0  0
   -3.7811   -2.3546    1.5917 H   0  0  0  0  0  0  0  0  0  0  0  0
   -3.5591   -3.0406   -0.0383 H   0  0  0  0  0  0  0  0  0  0  0  0
   -1.7921   -2.2226    0.8327 C   0  0  0  0  0  0  0  0  0  0  0  0
   -0.7611   -2.7766    1.1927 O   0  0  0  0  0  0  0  0  0  0  0  0
   -1.8201   -0.9926    0.3247 N   0  0  0  0  0  0  0  0  0  0  0  0
   -2.7141   -0.5816    0.0927 H   0  0  0  0  0  0  0  0  0  0  0  0
   -0.6481   -0.1156    0.2017 C   0  0  1  0  0  0  0  0  0  0  0  0
    0.1042   -0.6345   -0.3958 H   0  0  0  0  0  0  0  0  0  0  0  0
   -1.0420    1.1781   -0.5372 C   0  0  0  0  0  0  0  0  0  0  0  0
   -2.0990    1.1432   -0.8050 H   0  0  0  0  0  0  0  0  0  0  0  0
   -0.8981    2.0369    0.1199 H   0  0  0  0  0  0  0  0  0  0  0  0
   -0.2626    1.3856   -1.8130 C   0  0  0  0  0  0  0  0  0  0  0  0
   -0.4006    2.4628   -2.6893 N   0  0  0  0  0  0  0  0  0  0  0  0
    0.5104    2.2725   -3.6548 C   0  0  0  0  0  0  0  0  0  0  0  0
    0.6532    2.9327   -4.5010 H   0  0  0  0  0  0  0  0  0  0  0  0
    1.2208    1.1572   -3.4165 N   0  0  0  0  0  0  0  0  0  0  0  0
    1.9783    0.8110   -3.9894 H   0  0  0  0  0  0  0  0  0  0  0  0
    0.7499    0.5855   -2.2555 C   0  0  0  0  0  0  0  0  0  0  0  0
    1.1127   -0.3087   -1.7645 H   0  0  0  0  0  0  0  0  0  0  0  0
   -0.0283    0.1609    1.5831 C   0  0  0  0  0  0  0  0  0  0  0  0
    1.1923    0.1056    1.7329 O   0  0  0  0  0  0  0  0  0  0  0  0
   -0.8586    0.4659    2.5853 N   0  0  0  0  0  0  0  0  0  0  0  0
   -1.8521    0.3848    2.4000 H   0  0  0  0  0  0  0  0  0  0  0  0
   -0.4403    0.7694    3.9518 C   0  0  0  0  0  0  0  0  0  0  0  0
    0.5066    1.3154    3.9421 H   0  0  0  0  0  0  0  0  0  0  0  0
   -1.1988    1.3789    4.4452 H   0  0  0  0  0  0  0  0  0  0  0  0
   -0.3053   -0.1600    4.5075 H   0  0  0  0  0  0  0  0  0  0  0  0
  5  6  2  0  0  0  0
  5  7  1  0  0  0  0
  2  3  1  0  0  0  0
  2  4  1  0  0  0  0
  2  5  1  0  0  0  0
  1  2  1  0  0  0  0
 22 23  2  0  0  0  0
 22 24  1  0  0  0  0
 20 21  1  0  0  0  0
 18 19  1  0  0  0  0
 18 20  1  0  0  0  0
 16 17  1  0  0  0  0
 16 18  1  0  0  0  0
 15 16  2  0  0  0  0
 14 15  1  0  0  0  0
 14 20  2  0  0  0  0
 11 12  1  0  0  0  0
 11 13  1  0  0  0  0
 11 14  1  0  0  0  0
  9 10  1  0  0  0  0
  9 11  1  0  0  0  0
  9 22  1  0  0  0  0
  7  8  1  0  0  0  0
  7  9  1  0  0  0  0
 26 27  1  0  0  0  0
 26 28  1  0  0  0  0
 26 29  1  0  0  0  0
 24 25  1  0  0  0  0
 24 26  1  0  0  0  0
M  END
$$$$
default_name
  -OEChem-02102213163D

 29 29  0     1  0  0  0  0  0999 V2000
   -2.9561   -3.9186    1.3887 H   0  0  0  0  0  0  0  0  0  0  0  0
   -3.1191   -2.9346    0.9517 C   0  0  0  0  0  0  0  0  0  0  0  0
   -3.7811   -2.3546    1.5917 H   0  0  0  0  0  0  0  0  0  0  0  0
   -3.5591   -3.0406   -0.0383 H   0  0  0  0  0  0  0  0  0  0  0  0
   -1.7921   -2.2226    0.8327 C   0  0  0  0  0  0  0  0  0  0  0  0
   -0.7611   -2.7766    1.1927 O   0  0  0  0  0  0  0  0  0  0  0  0
   -1.8201   -0.9926    0.3247 N   0  0  0  0  0  0  0  0  0  0  0  0
   -2.7141   -0.5816    0.0927 H   0  0  0  0  0  0  0  0  0  0  0  0
   -0.6481   -0.1156    0.2017 C   0  0  1  0  0  0  0  0  0  0  0  0
    0.1042   -0.6345   -0.3958 H   0  0  0  0  0  0  0  0  0  0  0  0
   -1.0420    1.1781   -0.5372 C   0  0  0  0  0  0  0  0  0  0  0  0
   -2.0990    1.1432   -0.8050 H   0  0  0  0  0  0  0  0  0  0  0  0
   -0.8981    2.0369    0.1199 H   0  0  0  0  0  0  0  0  0  0  0  0
   -0.2626    1.3856   -1.8130 C   0  0  0  0  0  0  0  0  0  0  0  0
   -0.1770    2.5773   -2.5341 N   0  0  0  0  0  0  0  0  0  0  0  0
    0.6491    2.3290   -3.5609 C   0  0  0  0  0  0  0  0  0  0  0  0
    0.9169    3.0527   -4.3204 H   0  0  0  0  0  0  0  0  0  0  0  0
    1.1001    1.0646   -3.5053 N   0  0  0  0  0  0  0  0  0  0  0  0
    1.7501    0.6449   -4.1558 H   0  0  0  0  0  0  0  0  0  0  0  0
    0.5385    0.4540   -2.4061 C   0  0  0  0  0  0  0  0  0  0  0  0
    0.7046   -0.5563   -2.0540 H   0  0  0  0  0  0  0  0  0  0  0  0
   -0.0283    0.1609    1.5831 C   0  0  0  0  0  0  0  0  0  0  0  0
    1.1923    0.1056    1.7329 O   0  0  0  0  0  0  0  0  0  0  0  0
   -0.8586    0.4659    2.5853 N   0  0  0  0  0  0  0  0  0  0  0  0
   -1.8521    0.3848    2.4000 H   0  0  0  0  0  0  0  0  0  0  0  0
   -0.4403    0.7694    3.9518 C   0  0  0  0  0  0  0  0  0  0  0  0
    0.5066    1.3154    3.9421 H   0  0  0  0  0  0  0  0  0  0  0  0
   -1.1988    1.3789    4.4452 H   0  0  0  0  0  0  0  0  0  0  0  0
   -0.3053   -0.1600    4.5075 H   0  0  0  0  0  0  0  0  0  0  0  0
  5  6  2  0  0  0  0
  5  7  1  0  0  0  0
  2  3  1  0  0  0  0
  2  4  1  0  0  0  0
  2  5  1  0  0  0  0
  1  2  1  0  0  0  0
 22 23  2  0  0  0  0
 22 24  1  0  0  0  0
 20 21  1  0  0  0  0
 18 19  1  0  0  0  0
 18 20  1  0  0  0  0
 16 17  1  0  0  0  0
 16 18  1  0  0  0  0
 15 16  2  0  0  0  0
 14 15  1  0  0  0  0
 14 20  2  0  0  0  0
 11 12  1  0  0  0  0
 11 13  1  0  0  0  0
 11 14  1  0  0  0  0
  9 10  1  0  0  0  0
  9 11  1  0  0  0  0
  9 22  1  0  0  0  0
  7  8  1  0  0  0  0
  7  9  1  0  0  0  0
 26 27  1  0  0  0  0
 26 28  1  0  0  0  0
 26 29  1  0  0  0  0
 24 25  1  0  0  0  0
 24 26  1  0  0  0  0
M  END
$$$$
default_name
  -OEChem-02102213163D

 29 29  0     1  0  0  0  0  0999 V2000
   -2.9561   -3.9186    1.3887 H   0  0  0  0  0  0  0  0  0  0  0  0
   -3.1191   -2.9346    0.9517 C   0  0  0  0  0  0  0  0  0  0  0  0
   -3.7811   -2.3546    1.5917 H   0  0  0  0  0  0  0  0  0  0  0  0
   -3.5591   -3.0406   -0.0383 H   0  0  0  0  0  0  0  0  0  0  0  0
   -1.7921   -2.2226    0.8327 C   0  0  0  0  0  0  0  0  0  0  0  0
   -0.7611   -2.7766    1.1927 O   0  0  0  0  0  0  0  0  0  0  0  0
   -1.8201   -0.9926    0.3247 N   0  0  0  0  0  0  0  0  0  0  0  0
   -2.7141   -0.5816    0.0927 H   0  0  0  0  0  0  0  0  0  0  0  0
   -0.6481   -0.1156    0.2017 C   0  0  1  0  0  0  0  0  0  0  0  0
    0.1042   -0.6345   -0.3958 H   0  0  0  0  0  0  0  0  0  0  0  0
   -1.0420    1.1781   -0.5372 C   0  0  0  0  0  0  0  0  0  0  0  0
   -2.0990    1.1432   -0.8050 H   0  0  0  0  0  0  0  0  0  0  0  0
   -0.8981    2.0369    0.1199 H   0  0  0  0  0  0  0  0  0  0  0  0
   -0.2626    1.3856   -1.8130 C   0  0  0  0  0  0  0  0  0  0  0  0
    0.0695    2.6181   -2.3768 N   0  0  0  0  0  0  0  0  0  0  0  0
    0.7988    2.3408   -3.4675 C   0  0  0  0  0  0  0  0  0  0  0  0
    1.2043    3.0868   -4.1393 H   0  0  0  0  0  0  0  0  0  0  0  0
    0.9600    1.0134   -3.5993 N   0  0  0  0  0  0  0  0  0  0  0  0
    1.4875    0.5566   -4.3306 H   0  0  0  0  0  0  0  0  0  0  0  0
    0.3002    0.3935   -2.5615 C   0  0  0  0  0  0  0  0  0  0  0  0
    0.2459   -0.6675   -2.3523 H   0  0  0  0  0  0  0  0  0  0  0  0
   -0.0283    0.1609    1.5831 C   0  0  0  0  0  0  0  0  0  0  0  0
    1.1923    0.1056    1.7329 O   0  0  0  0  0  0  0  0  0  0  0  0
   -0.8586    0.4659    2.5853 N   0  0  0  0  0  0  0  0  0  0  0  0
   -1.8521    0.3848    2.4000 H   0  0  0  0  0  0  0  0  0  0  0  0
   -0.4403    0.7694    3.9518 C   0  0  0  0  0  0  0  0  0  0  0  0
    0.5066    1.3154    3.9421 H   0  0  0  0  0  0  0  0  0  0  0  0
   -1.1988    1.3789    4.4452 H   0  0  0  0  0  0  0  0  0  0  0  0
   -0.3053   -0.1600    4.5075 H   0  0  0  0  0  0  0  0  0  0  0  0
  5  6  2  0  0  0  0
  5  7  1  0  0  0  0
  2  3  1  0  0  0  0
  2  4  1  0  0  0  0
  2  5  1  0  0  0  0
  1  2  1  0  0  0  0
 22 23  2  0  0  0  0
 22 24  1  0  0  0  0
 20 21  1  0  0  0  0
 18 19  1  0  0  0  0
 18 20  1  0  0  0  0
 16 17  1  0  0  0  0
 16 18  1  0  0  0  0
 15 16  2  0  0  0  0
 14 15  1  0  0  0  0
 14 20  2  0  0  0  0
 11 12  1  0  0  0  0
 11 13  1  0  0  0  0
 11 14  1  0  0  0  0
  9 10  1  0  0  0  0
  9 11  1  0  0  0  0
  9 22  1  0  0  0  0
  7  8  1  0  0  0  0
  7  9  1  0  0  0  0
 26 27  1  0  0  0  0
 26 28  1  0  0  0  0
 26 29  1  0  0  0  0
 24 25  1  0  0  0  0
 24 26  1  0  0  0  0
M  END
$$$$
default_name
  -OEChem-02102213163D

 29 29  0     1  0  0  0  0  0999 V2000
   -2.9561   -3.9186    1.3887 H   0  0  0  0  0  0  0  0  0  0  0  0
   -3.1191   -2.9346    0.9517 C   0  0  0  0  0  0  0  0  0  0  0  0
   -3.7811   -2.3546    1.5917 H   0  0  0  0  0  0  0  0  0  0  0  0
   -3.5591   -3.0406   -0.0383 H   0  0  0  0  0  0  0  0  0  0  0  0
   -1.7921   -2.2226    0.8327 C   0  0  0  0  0  0  0  0  0  0  0  0
   -0.7611   -2.7766    1.1927 O   0  0  0  0  0  0  0  0  0  0  0  0
   -1.8201   -0.9926    0.3247 N   0  0  0  0  0  0  0  0  0  0  0  0
   -2.7141   -0.5816    0.0927 H   0  0  0  0  0  0  0  0  0  0  0  0
   -0.6481   -0.1156    0.2017 C   0  0  1  0  0  0  0  0  0  0  0  0
    0.1042   -0.6345   -0.3958 H   0  0  0  0  0  0  0  0  0  0  0  0
   -1.0420    1.1781   -0.5372 C   0  0  0  0  0  0  0  0  0  0  0  0
   -2.0990    1.1432   -0.8050 H   0  0  0  0  0  0  0  0  0  0  0  0
   -0.8981    2.0369    0.1199 H   0  0  0  0  0  0  0  0  0  0  0  0
   -0.2626    1.3856   -1.8130 C   0  0  0  0  0  0  0  0  0  0  0  0
    0.3222    2.5827   -2.2283 N   0  0  0  0  0  0  0  0  0  0  0  0
    0.9493    2.3069   -3.3811 C   0  0  0  0  0  0  0  0  0  0  0  0
    1.4957    3.0327   -3.9700 H   0  0  0  0  0  0  0  0  0  0  0  0
    0.8101    1.0071   -3.6918 N   0  0  0  0  0  0  0  0  0  0  0  0
    1.2083    0.5521   -4.5019 H   0  0  0  0  0  0  0  0  0  0  0  0
    0.0512    0.4079   -2.7113 C   0  0  0  0  0  0  0  0  0  0  0  0
   -0.2321   -0.6347   -2.6390 H   0  0  0  0  0  0  0  0  0  0  0  0
   -0.0283    0.1609    1.5831 C   0  0  0  0  0  0  0  0  0  0  0  0
    1.1923    0.1056    1.7329 O   0  0  0  0  0  0  0  0  0  0  0  0
   -0.8586    0.4659    2.5853 N   0  0  0  0  0  0  0  0  0  0  0  0
   -1.8521    0.3848    2.4000 H   0  0  0  0  0  0  0  0  0  0  0  0
   -0.4403    0.7694    3.9518 C   0  0  0  0  0  0  0  0  0  0  0  0
    0.5066    1.3154    3.9421 H   0  0  0  0  0  0  0  0  0  0  0  0
   -1.1988    1.3789    4.4452 H   0  0  0  0  0  0  0  0  0  0  0  0
   -0.3053   -0.1600    4.5075 H   0  0  0  0  0  0  0  0  0  0  0  0
  5  6  2  0  0  0  0
  5  7  1  0  0  0  0
  2  3  1  0  0  0  0
  2  4  1  0  0  0  0
  2  5  1  0  0  0  0
  1  2  1  0  0  0  0
 22 23  2  0  0  0  0
 22 24  1  0  0  0  0
 20 21  1  0  0  0  0
 18 19  1  0  0  0  0
 18 20  1  0  0  0  0
 16 17  1  0  0  0  0
 16 18  1  0  0  0  0
 15 16  2  0  0  0  0
 14 15  1  0  0  0  0
 14 20  2  0  0  0  0
 11 12  1  0  0  0  0
 11 13  1  0  0  0  0
 11 14  1  0  0  0  0
  9 10  1  0  0  0  0
  9 11  1  0  0  0  0
  9 22  1  0  0  0  0
  7  8  1  0  0  0  0
  7  9  1  0  0  0  0
 26 27  1  0  0  0  0
 26 28  1  0  0  0  0
 26 29  1  0  0  0  0
 24 25  1  0  0  0  0
 24 26  1  0  0  0  0
M  END
$$$$
default_name
  -OEChem-02102213163D

 29 29  0     1  0  0  0  0  0999 V2000
   -2.9561   -3.9186    1.3887 H   0  0  0  0  0  0  0  0  0  0  0  0
   -3.1191   -2.9346    0.9517 C   0  0  0  0  0  0  0  0  0  0  0  0
   -3.7811   -2.3546    1.5917 H   0  0  0  0  0  0  0  0  0  0  0  0
   -3.5591   -3.0406   -0.0383 H   0  0  0  0  0  0  0  0  0  0  0  0
   -1.7921   -2.2226    0.8327 C   0  0  0  0  0  0  0  0  0  0  0  0
   -0.7611   -2.7766    1.1927 O   0  0  0  0  0  0  0  0  0  0  0  0
   -1.8201   -0.9926    0.3247 N   0  0  0  0  0  0  0  0  0  0  0  0
   -2.7141   -0.5816    0.0927 H   0  0  0  0  0  0  0  0  0  0  0  0
   -0.6481   -0.1156    0.2017 C   0  0  1  0  0  0  0  0  0  0  0  0
    0.1042   -0.6345   -0.3958 H   0  0  0  0  0  0  0  0  0  0  0  0
   -1.0420    1.1781   -0.5372 C   0  0  0  0  0  0  0  0  0  0  0  0
   -2.0990    1.1432   -0.8050 H   0  0  0  0  0  0  0  0  0  0  0  0
   -0.8981    2.0369    0.1199 H   0  0  0  0  0  0  0  0  0  0  0  0
   -0.2626    1.3856   -1.8130 C   0  0  0  0  0  0  0  0  0  0  0  0
    0.5637    2.4733   -2.0985 N   0  0  0  0  0  0  0  0  0  0  0  0
    1.0904    2.2296   -3.3075 C   0  0  0  0  0  0  0  0  0  0  0  0
    1.7715    2.8940   -3.8241 H   0  0  0  0  0  0  0  0  0  0  0  0
    0.6607    1.0462   -3.7767 N   0  0  0  0  0  0  0  0  0  0  0  0
    0.9315    0.6318   -4.6581 H   0  0  0  0  0  0  0  0  0  0  0  0
   -0.1915    0.4963   -2.8452 C   0  0  0  0  0  0  0  0  0  0  0  0
   -0.6968   -0.4601   -2.8945 H   0  0  0  0  0  0  0  0  0  0  0  0
   -0.0283    0.1609    1.5831 C   0  0  0  0  0  0  0  0  0  0  0  0
    1.1923    0.1056    1.7329 O   0  0  0  0  0  0  0  0  0  0  0  0
   -0.8586    0.4659    2.5853 N   0  0  0  0  0  0  0  0  0  0  0  0
   -1.8521    0.3848    2.4000 H   0  0  0  0  0  0  0  0  0  0  0  0
   -0.4403    0.7694    3.9518 C   0  0  0  0  0  0  0  0  0  0  0  0
    0.5066    1.3154    3.9421 H   0  0  0  0  0  0  0  0  0  0  0  0
   -1.1988    1.3789    4.4452 H   0  0  0  0  0  0  0  0  0  0  0  0
   -0.3053   -0.1600    4.5075 H   0  0  0  0  0  0  0  0  0  0  0  0
  5  6  2  0  0  0  0
  5  7  1  0  0  0  0
  2  3  1  0  0  0  0
  2  4  1  0  0  0  0
  2  5  1  0  0  0  0
  1  2  1  0  0  0  0
 22 23  2  0  0  0  0
 22 24  1  0  0  0  0
 20 21  1  0  0  0  0
 18 19  1  0  0  0  0
 18 20  1  0  0  0  0
 16 17  1  0  0  0  0
 16 18  1  0  0  0  0
 15 16  2  0  0  0  0
 14 15  1  0  0  0  0
 14 20  2  0  0  0  0
 11 12  1  0  0  0  0
 11 13  1  0  0  0  0
 11 14  1  0  0  0  0
  9 10  1  0  0  0  0
  9 11  1  0  0  0  0
  9 22  1  0  0  0  0
  7  8  1  0  0  0  0
  7  9  1  0  0  0  0
 26 27  1  0  0  0  0
 26 28  1  0  0  0  0
 26 29  1  0  0  0  0
 24 25  1  0  0  0  0
 24 26  1  0  0  0  0
M  END
$$$$
default_name
  -OEChem-02102213163D

 29 29  0     1  0  0  0  0  0999 V2000
   -2.9561   -3.9186    1.3887 H   0  0  0  0  0  0  0  0  0  0  0  0
   -3.1191   -2.9346    0.9517 C   0  0  0  0  0  0  0  0  0  0  0  0
   -3.7811   -2.3546    1.5917 H   0  0  0  0  0  0  0  0  0  0  0  0
   -3.5591   -3.0406   -0.0383 H   0  0  0  0  0  0  0  0  0  0  0  0
   -1.7921   -2.2226    0.8327 C   0  0  0  0  0  0  0  0  0  0  0  0
   -0.7611   -2.7766    1.1927 O   0  0  0  0  0  0  0  0  0  0  0  0
   -1.8201   -0.9926    0.3247 N   0  0  0  0  0  0  0  0  0  0  0  0
   -2.7141   -0.5816    0.0927 H   0  0  0  0  0  0  0  0  0  0  0  0
   -0.6481   -0.1156    0.2017 C   0  0  1  0  0  0  0  0  0  0  0  0
    0.1042   -0.6345   -0.3958 H   0  0  0  0  0  0  0  0  0  0  0  0
   -1.0420    1.1781   -0.5372 C   0  0  0  0  0  0  0  0  0  0  0  0
   -2.0990    1.1432   -0.8050 H   0  0  0  0  0  0  0  0  0  0  0  0
   -0.8981    2.0369    0.1199 H   0  0  0  0  0  0  0  0  0  0  0  0
   -0.2626    1.3856   -1.8130 C   0  0  0  0  0  0  0  0  0  0  0  0
    0.7778    2.2974   -1.9963 N   0  0  0  0  0  0  0  0  0  0  0  0
    1.2123    2.1144   -3.2517 C   0  0  0  0  0  0  0  0  0  0  0  0
    2.0126    2.6803   -3.7116 H   0  0  0  0  0  0  0  0  0  0  0  0
    0.5219    1.1280   -3.8482 N   0  0  0  0  0  0  0  0  0  0  0  0
    0.6760    0.7901   -4.7884 H   0  0  0  0  0  0  0  0  0  0  0  0
   -0.4114    0.6527   -2.9540 C   0  0  0  0  0  0  0  0  0  0  0  0
   -1.1166   -0.1556   -3.1014 H   0  0  0  0  0  0  0  0  0  0  0  0
   -0.0283    0.1609    1.5831 C   0  0  0  0  0  0  0  0  0  0  0  0
    1.1923    0.1056    1.7329 O   0  0  0  0  0  0  0  0  0  0  0  0
   -0.8586    0.4659    2.5853 N   0  0  0  0  0  0  0  0  0  0  0  0
   -1.8521    0.3848    2.4000 H   0  0  0  0  0  0  0  0  0  0  0  0
   -0.4403    0.7694    3.9518 C   0  0  0  0  0  0  0  0  0  0  0  0
    0.5066    1.3154    3.9421 H   0  0  0  0  0  0  0  0  0  0  0  0
   -1.1988    1.3789    4.4452 H   0  0  0  0  0  0  0  0  0  0  0  0
   -0.3053   -0.1600    4.5075 H   0  0  0  0  0  0  0  0  0  0  0  0
  5  6  2  0  0  0  0
  5  7  1  0  0  0  0
  2  3  1  0  0  0  0
  2  4  1  0  0  0  0
  2  5  1  0  0  0  0
  1  2  1  0  0  0  0
 22 23  2  0  0  0  0
 22 24  1  0  0  0  0
 20 21  1  0  0  0  0
 18 19  1  0  0  0  0
 18 20  1  0  0  0  0
 16 17  1  0  0  0  0
 16 18  1  0  0  0  0
 15 16  2  0  0  0  0
 14 15  1  0  0  0  0
 14 20  2  0  0  0  0
 11 12  1  0  0  0  0
 11 13  1  0  0  0  0
 11 14  1  0  0  0  0
  9 10  1  0  0  0  0
  9 11  1  0  0  0  0
  9 22  1  0  0  0  0
  7  8  1  0  0  0  0
  7  9  1  0  0  0  0
 26 27  1  0  0  0  0
 26 28  1  0  0  0  0
 26 29  1  0  0  0  0
 24 25  1  0  0  0  0
 24 26  1  0  0  0  0
M  END
$$$$
default_name
  -OEChem-02102213163D

 29 29  0     1  0  0  0  0  0999 V2000
   -2.9561   -3.9186    1.3887 H   0  0  0  0  0  0  0  0  0  0  0  0
   -3.1191   -2.9346    0.9517 C   0  0  0  0  0  0  0  0  0  0  0  0
   -3.7811   -2.3546    1.5917 H   0  0  0  0  0  0  0  0  0  0  0  0
   -3.5591   -3.0406   -0.0383 H   0  0  0  0  0  0  0  0  0  0  0  0
   -1.7921   -2.2226    0.8327 C   0  0  0  0  0  0  0  0  0  0  0  0
   -0.7611   -2.7766    1.1927 O   0  0  0  0  0  0  0  0  0  0  0  0
   -1.8201   -0.9926    0.3247 N   0  0  0  0  0  0  0  0  0  0  0  0
   -2.7141   -0.5816    0.0927 H   0  0  0  0  0  0  0  0  0  0  0  0
   -0.6481   -0.1156    0.2017 C   0  0  1  0  0  0  0  0  0  0  0  0
    0.1042   -0.6345   -0.3958 H   0  0  0  0  0  0  0  0  0  0  0  0
   -1.0420    1.1781   -0.5372 C   0  0  0  0  0  0  0  0  0  0  0  0
   -2.0990    1.1432   -0.8050 H   0  0  0  0  0  0  0  0  0  0  0  0
   -0.8981    2.0369    0.1199 H   0  0  0  0  0  0  0  0  0  0  0  0
   -0.2626    1.3856   -1.8130 C   0  0  0  0  0  0  0  0  0  0  0  0
    0.9496    2.0671   -1.9288 N   0  0  0  0  0  0  0  0  0  0  0  0
    1.3069    1.9689   -3.2176 C   0  0  0  0  0  0  0  0  0  0  0  0
    2.2029    2.4060   -3.6400 H   0  0  0  0  0  0  0  0  0  0  0  0
    0.4032    1.2470   -3.9014 N   0  0  0  0  0  0  0  0  0  0  0  0
    0.4593    1.0164   -4.8840 H   0  0  0  0  0  0  0  0  0  0  0  0
   -0.5934    0.8664   -3.0305 C   0  0  0  0  0  0  0  0  0  0  0  0
   -1.4628    0.2580   -3.2457 H   0  0  0  0  0  0  0  0  0  0  0  0
   -0.0283    0.1609    1.5831 C   0  0  0  0  0  0  0  0  0  0  0  0
    1.1923    0.1056    1.7329 O   0  0  0  0  0  0  0  0  0  0  0  0
   -0.8586    0.4659    2.5853 N   0  0  0  0  0  0  0  0  0  0  0  0
   -1.8521    0.3848    2.4000 H   0  0  0  0  0  0  0  0  0  0  0  0
   -0.4403    0.7694    3.9518 C   0  0  0  0  0  0  0  0  0  0  0  0
    0.5066    1.3154    3.9421 H   0  0  0  0  0  0  0  0  0  0  0  0
   -1.1988    1.3789    4.4452 H   0  0  0  0  0  0  0  0  0  0  0  0
   -0.3053   -0.1600    4.5075 H   0  0  0  0  0  0  0  0  0  0  0  0
  5  6  2  0  0  0  0
  5  7  1  0  0  0  0
  2  3  1  0  0  0  0
  2  4  1  0  0  0  0
  2  5  1  0  0  0  0
  1  2  1  0  0  0  0
 22 23  2  0  0  0  0
 22 24  1  0  0  0  0
 20 21  1  0  0  0  0
 18 19  1  0  0  0  0
 18 20  1  0  0  0  0
 16 17  1  0  0  0  0
 16 18  1  0  0  0  0
 15 16  2  0  0  0  0
 14 15  1  0  0  0  0
 14 20  2  0  0  0  0
 11 12  1  0  0  0  0
 11 13  1  0  0  0  0
 11 14  1  0  0  0  0
  9 10  1  0  0  0  0
  9 11  1  0  0  0  0
  9 22  1  0  0  0  0
  7  8  1  0  0  0  0
  7  9  1  0  0  0  0
 26 27  1  0  0  0  0
 26 28  1  0  0  0  0
 26 29  1  0  0  0  0
 24 25  1  0  0  0  0
 24 26  1  0  0  0  0
M  END
$$$$
default_name
  -OEChem-02102213163D

 29 29  0     1  0  0  0  0  0999 V2000
   -2.9561   -3.9186    1.3887 H   0  0  0  0  0  0  0  0  0  0  0  0
   -3.1191   -2.9346    0.9517 C   0  0  0  0  0  0  0  0  0  0  0  0
   -3.7811   -2.3546    1.5917 H   0  0  0  0  0  0  0  0  0  0  0  0
   -3.5591   -3.0406   -0.0383 H   0  0  0  0  0  0  0  0  0  0  0  0
   -1.7921   -2.2226    0.8327 C   0  0  0  0  0  0  0  0  0  0  0  0
   -0.7611   -2.7766    1.1927 O   0  0  0  0  0  0  0  0  0  0  0  0
   -1.8201   -0.9926    0.3247 N   0  0  0  0  0  0  0  0  0  0  0  0
   -2.7141   -0.5816    0.0927 H   0  0  0  0  0  0  0  0  0  0  0  0
   -0.6481   -0.1156    0.2017 C   0  0  1  0  0  0  0  0  0  0  0  0
    0.1042   -0.6345   -0.3958 H   0  0  0  0  0  0  0  0  0  0  0  0
   -1.0420    1.1781   -0.5372 C   0  0  0  0  0  0  0  0  0  0  0  0
   -2.0990    1.1432   -0.8050 H   0  0  0  0  0  0  0  0  0  0  0  0
   -0.8981    2.0369    0.1199 H   0  0  0  0  0  0  0  0  0  0  0  0
   -0.2626    1.3856   -1.8130 C   0  0  0  0  0  0  0  0  0  0  0  0
    1.0677    1.7979   -1.9004 N   0  0  0  0  0  0  0  0  0  0  0  0
    1.3676    1.8031   -3.2075 C   0  0  0  0  0  0  0  0  0  0  0  0
    2.3291    2.0899   -3.6142 H   0  0  0  0  0  0  0  0  0  0  0  0
    0.3127    1.3949   -3.9327 N   0  0  0  0  0  0  0  0  0  0  0  0
    0.2960    1.2951   -4.9384 H   0  0  0  0  0  0  0  0  0  0  0  0
   -0.7252    1.1228   -3.0693 C   0  0  0  0  0  0  0  0  0  0  0  0
   -1.7119    0.7525   -3.3175 H   0  0  0  0  0  0  0  0  0  0  0  0
   -0.0283    0.1609    1.5831 C   0  0  0  0  0  0  0  0  0  0  0  0
    1.1923    0.1056    1.7329 O   0  0  0  0  0  0  0  0  0  0  0  0
   -0.8586    0.4659    2.5853 N   0  0  0  0  0  0  0  0  0  0  0  0
   -1.8521    0.3848    2.4000 H   0  0  0  0  0  0  0  0  0  0  0  0
   -0.4403    0.7694    3.9518 C   0  0  0  0  0  0  0  0  0  0  0  0
    0.5066    1.3154    3.9421 H   0  0  0  0  0  0  0  0  0  0  0  0
   -1.1988    1.3789    4.4452 H   0  0  0  0  0  0  0  0  0  0  0  0
   -0.3053   -0.1600    4.5075 H   0  0  0  0  0  0  0  0  0  0  0  0
  5  6  2  0  0  0  0
  5  7  1  0  0  0  0
  2  3  1  0  0  0  0
  2  4  1  0  0  0  0
  2  5  1  0  0  0  0
  1  2  1  0  0  0  0
 22 23  2  0  0  0  0
 22 24  1  0  0  0  0
 20 21  1  0  0  0  0
 18 19  1  0  0  0  0
 18 20  1  0  0  0  0
 16 17  1  0  0  0  0
 16 18  1  0  0  0  0
 15 16  2  0  0  0  0
 14 15  1  0  0  0  0
 14 20  2  0  0  0  0
 11 12  1  0  0  0  0
 11 13  1  0  0  0  0
 11 14  1  0  0  0  0
  9 10  1  0  0  0  0
  9 11  1  0  0  0  0
  9 22  1  0  0  0  0
  7  8  1  0  0  0  0
  7  9  1  0  0  0  0
 26 27  1  0  0  0  0
 26 28  1  0  0  0  0
 26 29  1  0  0  0  0
 24 25  1  0  0  0  0
 24 26  1  0  0  0  0
M  END
$$$$
default_name
  -OEChem-02102213163D

 29 29  0     1  0  0  0  0  0999 V2000
   -2.9561   -3.9186    1.3887 H   0  0  0  0  0  0  0  0  0  0  0  0
   -3.1191   -2.9346    0.9517 C   0  0  0  0  0  0  0  0  0  0  0  0
   -3.7811   -2.3546    1.5917 H   0  0  0  0  0  0  0  0  0  0  0  0
   -3.5591   -3.0406   -0.0383 H   0  0  0  0  0  0  0  0  0  0  0  0
   -1.7921   -2.2226    0.8327 C   0  0  0  0  0  0  0  0  0  0  0  0
   -0.7611   -2.7766    1.1927 O   0  0  0  0  0  0  0  0  0  0  0  0
   -1.8201   -0.9926    0.3247 N   0  0  0  0  0  0  0  0  0  0  0  0
   -2.7141   -0.5816    0.0927 H   0  0  0  0  0  0  0  0  0  0  0  0
   -0.6481   -0.1156    0.2017 C   0  0  1  0  0  0  0  0  0  0  0  0
    0.1042   -0.6345   -0.3958 H   0  0  0  0  0  0  0  0  0  0  0  0
   -1.0420    1.1781   -0.5372 C   0  0  0  0  0  0  0  0  0  0  0  0
   -2.0990    1.1432   -0.8050 H   0  0  0  0  0  0  0  0  0  0  0  0
   -0.8981    2.0369    0.1199 H   0  0  0  0  0  0  0  0  0  0  0  0
   -0.2626    1.3856   -1.8130 C   0  0  0  0  0  0  0  0  0  0  0  0
    1.1238    1.5084   -1.9132 N   0  0  0  0  0  0  0  0  0  0  0  0
    1.3903    1.6283   -3.2220 C   0  0  0  0  0  0  0  0  0  0  0  0
    2.3828    1.7535   -3.6361 H   0  0  0  0  0  0  0  0  0  0  0  0
    0.2565    1.5618   -3.9398 N   0  0  0  0  0  0  0  0  0  0  0  0
    0.1973    1.6074   -4.9479 H   0  0  0  0  0  0  0  0  0  0  0  0
   -0.7978    1.4046   -3.0678 C   0  0  0  0  0  0  0  0  0  0  0  0
   -1.8469    1.2942   -3.3118 H   0  0  0  0  0  0  0  0  0  0  0  0
   -0.0283    0.1609    1.5831 C   0  0  0  0  0  0  0  0  0  0  0  0
    1.1923    0.1056    1.7329 O   0  0  0  0  0  0  0  0  0  0  0  0
   -0.8586    0.4659    2.5853 N   0  0  0  0  0  0  0  0  0  0  0  0
   -1.8521    0.3848    2.4000 H   0  0  0  0  0  0  0  0  0  0  0  0
   -0.4403    0.7694    3.9518 C   0  0  0  0  0  0  0  0  0  0  0  0
    0.5066    1.3154    3.9421 H   0  0  0  0  0  0  0  0  0  0  0  0
   -1.1988    1.3789    4.4452 H   0  0  0  0  0  0  0  0  0  0  0  0
   -0.3053   -0.1600    4.5075 H   0  0  0  0  0  0  0  0  0  0  0  0
  5  6  2  0  0  0  0
  5  7  1  0  0  0  0
  2  3  1  0  0  0  0
  2  4  1  0  0  0  0
  2  5  1  0  0  0  0
  1  2  1  0  0  0  0
 22 23  2  0  0  0  0
 22 24  1  0  0  0  0
 20 21  1  0  0  0  0
 18 19  1  0  0  0  0
 18 20  1  0  0  0  0
 16 17  1  0  0  0  0
 16 18  1  0  0  0  0
 15 16  2  0  0  0  0
 14 15  1  0  0  0  0
 14 20  2  0  0  0  0
 11 12  1  0  0  0  0
 11 13  1  0  0  0  0
 11 14  1  0  0  0  0
  9 10  1  0  0  0  0
  9 11  1  0  0  0  0
  9 22  1  0  0  0  0
  7  8  1  0  0  0  0
  7  9  1  0  0  0  0
 26 27  1  0  0  0  0
 26 28  1  0  0  0  0
 26 29  1  0  0  0  0
 24 25  1  0  0  0  0
 24 26  1  0  0  0  0
M  END
$$$$
default_name
  -OEChem-02102213163D

 29 29  0     1  0  0  0  0  0999 V2000
   -2.9561   -3.9186    1.3887 H   0  0  0  0  0  0  0  0  0  0  0  0
   -3.1191   -2.9346    0.9517 C   0  0  0  0  0  0  0  0  0  0  0  0
   -3.7811   -2.3546    1.5917 H   0  0  0  0  0  0  0  0  0  0  0  0
   -3.5591   -3.0406   -0.0383 H   0  0  0  0  0  0  0  0  0  0  0  0
   -1.7921   -2.2226    0.8327 C   0  0  0  0  0  0  0  0  0  0  0  0
   -0.7611   -2.7766    1.1927 O   0  0  0  0  0  0  0  0  0  0  0  0
   -1.8201   -0.9926    0.3247 N   0  0  0  0  0  0  0  0  0  0  0  0
   -2.7141   -0.5816    0.0927 H   0  0  0  0  0  0  0  0  0  0  0  0
   -0.6481   -0.1156    0.2017 C   0  0  1  0  0  0  0  0  0  0  0  0
    0.1042   -0.6345   -0.3958 H   0  0  0  0  0  0  0  0  0  0  0  0
   -1.0420    1.1781   -0.5372 C   0  0  0  0  0  0  0  0  0  0  0  0
   -2.0990    1.1432   -0.8050 H   0  0  0  0  0  0  0  0  0  0  0  0
   -0.8981    2.0369    0.1199 H   0  0  0  0  0  0  0  0  0  0  0  0
   -0.2626    1.3856   -1.8130 C   0  0  0  0  0  0  0  0  0  0  0  0
    1.1143    1.2181   -1.9663 N   0  0  0  0  0  0  0  0  0  0  0  0
    1.3735    1.4565   -3.2602 C   0  0  0  0  0  0  0  0  0  0  0  0
    2.3604    1.4197   -3.7041 H   0  0  0  0  0  0  0  0  0  0  0  0
    0.2385    1.7363   -3.9225 N   0  0  0  0  0  0  0  0  0  0  0  0
    0.1700    1.9318   -4.9119 H   0  0  0  0  0  0  0  0  0  0  0  0
   -0.8062    1.6924   -3.0261 C   0  0  0  0  0  0  0  0  0  0  0  0
   -1.8585    1.8463   -3.2292 H   0  0  0  0  0  0  0  0  0  0  0  0
   -0.0283    0.1609    1.5831 C   0  0  0  0  0  0  0  0  0  0  0  0
    1.1923    0.1056    1.7329 O   0  0  0  0  0  0  0  0  0  0  0  0
   -0.8586    0.4659    2.5853 N   0  0  0  0  0  0  0  0  0  0  0  0
   -1.8521    0.3848    2.4000 H   0  0  0  0  0  0  0  0  0  0  0  0
   -0.4403    0.7694    3.9518 C   0  0  0  0  0  0  0  0  0  0  0  0
    0.5066    1.3154    3.9421 H   0  0  0  0  0  0  0  0  0  0  0  0
   -1.1988    1.3789    4.4452 H   0  0  0  0  0  0  0  0  0  0  0  0
   -0.3053   -0.1600    4.5075 H   0  0  0  0  0  0  0  0  0  0  0  0
  5  6  2  0  0  0  0
  5  7  1  0  0  0  0
  2  3  1  0  0  0  0
  2  4  1  0  0  0  0
  2  5  1  0  0  0  0
  1  2  1  0  0  0  0
 22 23  2  0  0  0  0
 22 24  1  0  0  0  0
 20 21  1  0  0  0  0
 18 19  1  0  0  0  0
 18 20  1  0  0  0  0
 16 17  1  0  0  0  0
 16 18  1  0  0  0  0
 15 16  2  0  0  0  0
 14 15  1  0  0  0  0
 14 20  2  0  0  0  0
 11 12  1  0  0  0  0
 11 13  1  0  0  0  0
 11 14  1  0  0  0  0
  9 10  1  0  0  0  0
  9 11  1  0  0  0  0
  9 22  1  0  0  0  0
  7  8  1  0  0  0  0
  7  9  1  0  0  0  0
 26 27  1  0  0  0  0
 26 28  1  0  0  0  0
 26 29  1  0  0  0  0
 24 25  1  0  0  0  0
 24 26  1  0  0  0  0
M  END
$$$$
default_name
  -OEChem-02102213163D

 29 29  0     1  0  0  0  0  0999 V2000
   -2.9561   -3.9186    1.3887 H   0  0  0  0  0  0  0  0  0  0  0  0
   -3.1191   -2.9346    0.9517 C   0  0  0  0  0  0  0  0  0  0  0  0
   -3.7811   -2.3546    1.5917 H   0  0  0  0  0  0  0  0  0  0  0  0
   -3.5591   -3.0406   -0.0383 H   0  0  0  0  0  0  0  0  0  0  0  0
   -1.7921   -2.2226    0.8327 C   0  0  0  0  0  0  0  0  0  0  0  0
   -0.7611   -2.7766    1.1927 O   0  0  0  0  0  0  0  0  0  0  0  0
   -1.8201   -0.9926    0.3247 N   0  0  0  0  0  0  0  0  0  0  0  0
   -2.7141   -0.5816    0.0927 H   0  0  0  0  0  0  0  0  0  0  0  0
   -0.6481   -0.1156    0.2017 C   0  0  1  0  0  0  0  0  0  0  0  0
    0.1042   -0.6345   -0.3958 H   0  0  0  0  0  0  0  0  0  0  0  0
   -1.0420    1.1781   -0.5372 C   0  0  0  0  0  0  0  0  0  0  0  0
   -2.0990    1.1432   -0.8050 H   0  0  0  0  0  0  0  0  0  0  0  0
   -0.8981    2.0369    0.1199 H   0  0  0  0  0  0  0  0  0  0  0  0
   -0.2626    1.3856   -1.8130 C   0  0  0  0  0  0  0  0  0  0  0  0
    1.0397    0.9469   -2.0560 N   0  0  0  0  0  0  0  0  0  0  0  0
    1.3184    1.2993   -3.3195 C   0  0  0  0  0  0  0  0  0  0  0  0
    2.2632    1.1113   -3.8136 H   0  0  0  0  0  0  0  0  0  0  0  0
    0.2598    1.9064   -3.8817 N   0  0  0  0  0  0  0  0  0  0  0  0
    0.2158    2.2464   -4.8327 H   0  0  0  0  0  0  0  0  0  0  0  0
   -0.7498    1.9666   -2.9471 C   0  0  0  0  0  0  0  0  0  0  0  0
   -1.7461    2.3710   -3.0751 H   0  0  0  0  0  0  0  0  0  0  0  0
   -0.0283    0.1609    1.5831 C   0  0  0  0  0  0  0  0  0  0  0  0
    1.1923    0.1056    1.7329 O   0  0  0  0  0  0  0  0  0  0  0  0
   -0.8586    0.4659    2.5853 N   0  0  0  0  0  0  0  0  0  0  0  0
   -1.8521    0.3848    2.4000 H   0  0  0  0  0  0  0  0  0  0  0  0
   -0.4403    0.7694    3.9518 C   0  0  0  0  0  0  0  0  0  0  0  0
    0.5066    1.3154    3.9421 H   0  0  0  0  0  0  0  0  0  0  0  0
   -1.1988    1.3789    4.4452 H   0  0  0  0  0  0  0  0  0  0  0  0
   -0.3053   -0.1600    4.5075 H   0  0  0  0  0  0  0  0  0  0  0  0
  5  6  2  0  0  0  0
  5  7  1  0  0  0  0
  2  3  1  0  0  0  0
  2  4  1  0  0  0  0
  2  5  1  0  0  0  0
  1  2  1  0  0  0  0
 22 23  2  0  0  0  0
 22 24  1  0  0  0  0
 20 21  1  0  0  0  0
 18 19  1  0  0  0  0
 18 20  1  0  0  0  0
 16 17  1  0  0  0  0
 16 18  1  0  0  0  0
 15 16  2  0  0  0  0
 14 15  1  0  0  0  0
 14 20  2  0  0  0  0
 11 12  1  0  0  0  0
 11 13  1  0  0  0  0
 11 14  1  0  0  0  0
  9 10  1  0  0  0  0
  9 11  1  0  0  0  0
  9 22  1  0  0  0  0
  7  8  1  0  0  0  0
  7  9  1  0  0  0  0
 26 27  1  0  0  0  0
 26 28  1  0  0  0  0
 26 29  1  0  0  0  0
 24 25  1  0  0  0  0
 24 26  1  0  0  0  0
M  END
$$$$
default_name
  -OEChem-02102213163D

 29 29  0     1  0  0  0  0  0999 V2000
   -2.9561   -3.9186    1.3887 H   0  0  0  0  0  0  0  0  0  0  0  0
   -3.1191   -2.9346    0.9517 C   0  0  0  0  0  0  0  0  0  0  0  0
   -3.7811   -2.3546    1.5917 H   0  0  0  0  0  0  0  0  0  0  0  0
   -3.5591   -3.0406   -0.0383 H   0  0  0  0  0  0  0  0  0  0  0  0
   -1.7921   -2.2226    0.8327 C   0  0  0  0  0  0  0  0  0  0  0  0
   -0.7611   -2.7766    1.1927 O   0  0  0  0  0  0  0  0  0  0  0  0
   -1.8201   -0.9926    0.3247 N   0  0  0  0  0  0  0  0  0  0  0  0
   -2.7141   -0.5816    0.0927 H   0  0  0  0  0  0  0  0  0  0  0  0
   -0.6481   -0.1156    0.2017 C   0  0  1  0  0  0  0  0  0  0  0  0
    0.1042   -0.6345   -0.3958 H   0  0  0  0  0  0  0  0  0  0  0  0
   -1.0420    1.1781   -0.5372 C   0  0  0  0  0  0  0  0  0  0  0  0
   -2.0990    1.1432   -0.8050 H   0  0  0  0  0  0  0  0  0  0  0  0
   -0.8981    2.0369    0.1199 H   0  0  0  0  0  0  0  0  0  0  0  0
   -0.2626    1.3856   -1.8130 C   0  0  0  0  0  0  0  0  0  0  0  0
    0.9050    0.7132   -2.1762 N   0  0  0  0  0  0  0  0  0  0  0  0
    1.2286    1.1674   -3.3958 C   0  0  0  0  0  0  0  0  0  0  0  0
    2.0980    0.8493   -3.9572 H   0  0  0  0  0  0  0  0  0  0  0  0
    0.3192    2.0607   -3.8204 N   0  0  0  0  0  0  0  0  0  0  0  0
    0.3318    2.5297   -4.7158 H   0  0  0  0  0  0  0  0  0  0  0  0
   -0.6326    2.2087   -2.8362 C   0  0  0  0  0  0  0  0  0  0  0  0
   -1.5172    2.8327   -2.8602 H   0  0  0  0  0  0  0  0  0  0  0  0
   -0.0283    0.1609    1.5831 C   0  0  0  0  0  0  0  0  0  0  0  0
    1.1923    0.1056    1.7329 O   0  0  0  0  0  0  0  0  0  0  0  0
   -0.8586    0.4659    2.5853 N   0  0  0  0  0  0  0  0  0  0  0  0
   -1.8521    0.3848    2.4000 H   0  0  0  0  0  0  0  0  0  0  0  0
   -0.4403    0.7694    3.9518 C   0  0  0  0  0  0  0  0  0  0  0  0
    0.5066    1.3154    3.9421 H   0  0  0  0  0  0  0  0  0  0  0  0
   -1.1988    1.3789    4.4452 H   0  0  0  0  0  0  0  0  0  0  0  0
   -0.3053   -0.1600    4.5075 H   0  0  0  0  0  0  0  0  0  0  0  0
  5  6  2  0  0  0  0
  5  7  1  0  0  0  0
  2  3  1  0  0  0  0
  2  4  1  0  0  0  0
  2  5  1  0  0  0  0
  1  2  1  0  0  0  0
 22 23  2  0  0  0  0
 22 24  1  0  0  0  0
 20 21  1  0  0  0  0
 18 19  1  0  0  0  0
 18 20  1  0  0  0  0
 16 17  1  0  0  0  0
 16 18  1  0  0  0  0
 15 16  2  0  0  0  0
 14 15  1  0  0  0  0
 14 20  2  0  0  0  0
 11 12  1  0  0  0  0
 11 13  1  0  0  0  0
 11 14  1  0  0  0  0
  9 10  1  0  0  0  0
  9 11  1  0  0  0  0
  9 22  1  0  0  0  0
  7  8  1  0  0  0  0
  7  9  1  0  0  0  0
 26 27  1  0  0  0  0
 26 28  1  0  0  0  0
 26 29  1  0  0  0  0
 24 25  1  0  0  0  0
 24 26  1  0  0  0  0
M  END
$$$$
default_name
  -OEChem-02102213163D

 29 29  0     1  0  0  0  0  0999 V2000
   -2.9561   -3.9186    1.3887 H   0  0  0  0  0  0  0  0  0  0  0  0
   -3.1191   -2.9346    0.9517 C   0  0  0  0  0  0  0  0  0  0  0  0
   -3.7811   -2.3546    1.5917 H   0  0  0  0  0  0  0  0  0  0  0  0
   -3.5591   -3.0406   -0.0383 H   0  0  0  0  0  0  0  0  0  0  0  0
   -1.7921   -2.2226    0.8327 C   0  0  0  0  0  0  0  0  0  0  0  0
   -0.7611   -2.7766    1.1927 O   0  0  0  0  0  0  0  0  0  0  0  0
   -1.8201   -0.9926    0.3247 N   0  0  0  0  0  0  0  0  0  0  0  0
   -2.7141   -0.5816    0.0927 H   0  0  0  0  0  0  0  0  0  0  0  0
   -0.6481   -0.1156    0.2017 C   0  0  1  0  0  0  0  0  0  0  0  0
    0.1042   -0.6345   -0.3958 H   0  0  0  0  0  0  0  0  0  0  0  0
   -1.0420    1.1781   -0.5372 C   0  0  0  0  0  0  0  0  0  0  0  0
   -2.0990    1.1432   -0.8050 H   0  0  0  0  0  0  0  0  0  0  0  0
   -0.8981    2.0369    0.1199 H   0  0  0  0  0  0  0  0  0  0  0  0
   -0.2626    1.3856   -1.8130 C   0  0  0  0  0  0  0  0  0  0  0  0
    0.7196    0.5331   -2.3188 N   0  0  0  0  0  0  0  0  0  0  0  0
    1.1103    1.0699   -3.4839 C   0  0  0  0  0  0  0  0  0  0  0  0
    1.8760    0.6516   -4.1249 H   0  0  0  0  0  0  0  0  0  0  0  0
    0.4124    2.1885   -3.7427 N   0  0  0  0  0  0  0  0  0  0  0  0
    0.5099    2.7623   -4.5692 H   0  0  0  0  0  0  0  0  0  0  0  0
   -0.4625    2.4020   -2.7008 C   0  0  0  0  0  0  0  0  0  0  0  0
   -1.1874    3.1998   -2.5991 H   0  0  0  0  0  0  0  0  0  0  0  0
   -0.0283    0.1609    1.5831 C   0  0  0  0  0  0  0  0  0  0  0  0
    1.1923    0.1056    1.7329 O   0  0  0  0  0  0  0  0  0  0  0  0
   -0.8586    0.4659    2.5853 N   0  0  0  0  0  0  0  0  0  0  0  0
   -1.8521    0.3848    2.4000 H   0  0  0  0  0  0  0  0  0  0  0  0
   -0.4403    0.7694    3.9518 C   0  0  0  0  0  0  0  0  0  0  0  0
    0.5066    1.3154    3.9421 H   0  0  0  0  0  0  0  0  0  0  0  0
   -1.1988    1.3789    4.4452 H   0  0  0  0  0  0  0  0  0  0  0  0
   -0.3053   -0.1600    4.5075 H   0  0  0  0  0  0  0  0  0  0  0  0
  5  6  2  0  0  0  0
  5  7  1  0  0  0  0
  2  3  1  0  0  0  0
  2  4  1  0  0  0  0
  2  5  1  0  0  0  0
  1  2  1  0  0  0  0
 22 23  2  0  0  0  0
 22 24  1  0  0  0  0
 20 21  1  0  0  0  0
 18 19  1  0  0  0  0
 18 20  1  0  0  0  0
 16 17  1  0  0  0  0
 16 18  1  0  0  0  0
 15 16  2  0  0  0  0
 14 15  1  0  0  0  0
 14 20  2  0  0  0  0
 11 12  1  0  0  0  0
 11 13  1  0  0  0  0
 11 14  1  0  0  0  0
  9 10  1  0  0  0  0
  9 11  1  0  0  0  0
  9 22  1  0  0  0  0
  7  8  1  0  0  0  0
  7  9  1  0  0  0  0
 26 27  1  0  0  0  0
 26 28  1  0  0  0  0
 26 29  1  0  0  0  0
 24 25  1  0  0  0  0
 24 26  1  0  0  0  0
M  END
$$$$
default_name
  -OEChem-02102213163D

 29 29  0     1  0  0  0  0  0999 V2000
   -2.9561   -3.9186    1.3887 H   0  0  0  0  0  0  0  0  0  0  0  0
   -3.1191   -2.9346    0.9517 C   0  0  0  0  0  0  0  0  0  0  0  0
   -3.7811   -2.3546    1.5917 H   0  0  0  0  0  0  0  0  0  0  0  0
   -3.5591   -3.0406   -0.0383 H   0  0  0  0  0  0  0  0  0  0  0  0
   -1.7921   -2.2226    0.8327 C   0  0  0  0  0  0  0  0  0  0  0  0
   -0.7611   -2.7766    1.1927 O   0  0  0  0  0  0  0  0  0  0  0  0
   -1.8201   -0.9926    0.3247 N   0  0  0  0  0  0  0  0  0  0  0  0
   -2.7141   -0.5816    0.0927 H   0  0  0  0  0  0  0  0  0  0  0  0
   -0.6481   -0.1156    0.2017 C   0  0  1  0  0  0  0  0  0  0  0  0
    0.1042   -0.6345   -0.3958 H   0  0  0  0  0  0  0  0  0  0  0  0
   -1.0420    1.1781   -0.5372 C   0  0  0  0  0  0  0  0  0  0  0  0
   -2.0990    1.1432   -0.8050 H   0  0  0  0  0  0  0  0  0  0  0  0
   -0.8981    2.0369    0.1199 H   0  0  0  0  0  0  0  0  0  0  0  0
   -0.2626    1.3856   -1.8130 C   0  0  0  0  0  0  0  0  0  0  0  0
    0.4960    0.4186   -2.4739 N   0  0  0  0  0  0  0  0  0  0  0  0
    0.9716    1.0133   -3.5778 C   0  0  0  0  0  0  0  0  0  0  0  0
    1.6123    0.5315   -4.3055 H   0  0  0  0  0  0  0  0  0  0  0  0
    0.5332    2.2811   -3.6538 N   0  0  0  0  0  0  0  0  0  0  0  0
    0.7380    2.9284   -4.4028 H   0  0  0  0  0  0  0  0  0  0  0  0
   -0.2510    2.5334   -2.5502 C   0  0  0  0  0  0  0  0  0  0  0  0
   -0.7793    3.4474   -2.3095 H   0  0  0  0  0  0  0  0  0  0  0  0
   -0.0283    0.1609    1.5831 C   0  0  0  0  0  0  0  0  0  0  0  0
    1.1923    0.1056    1.7329 O   0  0  0  0  0  0  0  0  0  0  0  0
   -0.8586    0.4659    2.5853 N   0  0  0  0  0  0  0  0  0  0  0  0
   -1.8521    0.3848    2.4000 H   0  0  0  0  0  0  0  0  0  0  0  0
   -0.4403    0.7694    3.9518 C   0  0  0  0  0  0  0  0  0  0  0  0
    0.5066    1.3154    3.9421 H   0  0  0  0  0  0  0  0  0  0  0  0
   -1.1988    1.3789    4.4452 H   0  0  0  0  0  0  0  0  0  0  0  0
   -0.3053   -0.1600    4.5075 H   0  0  0  0  0  0  0  0  0  0  0  0
  5  6  2  0  0  0  0
  5  7  1  0  0  0  0
  2  3  1  0  0  0  0
  2  4  1  0  0  0  0
  2  5  1  0  0  0  0
  1  2  1  0  0  0  0
 22 23  2  0  0  0  0
 22 24  1  0  0  0  0
 20 21  1  0  0  0  0
 18 19  1  0  0  0  0
 18 20  1  0  0  0  0
 16 17  1  0  0  0  0
 16 18  1  0  0  0  0
 15 16  2  0  0  0  0
 14 15  1  0  0  0  0
 14 20  2  0  0  0  0
 11 12  1  0  0  0  0
 11 13  1  0  0  0  0
 11 14  1  0  0  0  0
  9 10  1  0  0  0  0
  9 11  1  0  0  0  0
  9 22  1  0  0  0  0
  7  8  1  0  0  0  0
  7  9  1  0  0  0  0
 26 27  1  0  0  0  0
 26 28  1  0  0  0  0
 26 29  1  0  0  0  0
 24 25  1  0  0  0  0
 24 26  1  0  0  0  0
M  END
$$$$
default_name
  -OEChem-02102213163D

 29 29  0     1  0  0  0  0  0999 V2000
   -2.9561   -3.9186    1.3887 H   0  0  0  0  0  0  0  0  0  0  0  0
   -3.1191   -2.9346    0.9517 C   0  0  0  0  0  0  0  0  0  0  0  0
   -3.7811   -2.3546    1.5917 H   0  0  0  0  0  0  0  0  0  0  0  0
   -3.5591   -3.0406   -0.0383 H   0  0  0  0  0  0  0  0  0  0  0  0
   -1.7921   -2.2226    0.8327 C   0  0  0  0  0  0  0  0  0  0  0  0
   -0.7611   -2.7766    1.1927 O   0  0  0  0  0  0  0  0  0  0  0  0
   -1.8201   -0.9926    0.3247 N   0  0  0  0  0  0  0  0  0  0  0  0
   -2.7141   -0.5816    0.0927 H   0  0  0  0  0  0  0  0  0  0  0  0
   -0.6481   -0.1156    0.2017 C   0  0  1  0  0  0  0  0  0  0  0  0
    0.1042   -0.6345   -0.3958 H   0  0  0  0  0  0  0  0  0  0  0  0
   -1.0420    1.1781   -0.5372 C   0  0  0  0  0  0  0  0  0  0  0  0
   -2.0990    1.1432   -0.8050 H   0  0  0  0  0  0  0  0  0  0  0  0
   -0.8981    2.0369    0.1199 H   0  0  0  0  0  0  0  0  0  0  0  0
   -0.2626    1.3856   -1.8130 C   0  0  0  0  0  0  0  0  0  0  0  0
    0.2495    0.3778   -2.6312 N   0  0  0  0  0  0  0  0  0  0  0  0
    0.8219    1.0016   -3.6712 C   0  0  0  0  0  0  0  0  0  0  0  0
    1.3250    0.4974   -4.4866 H   0  0  0  0  0  0  0  0  0  0  0  0
    0.6732    2.3323   -3.5599 N   0  0  0  0  0  0  0  0  0  0  0  0
    1.0006    3.0167   -4.2280 H   0  0  0  0  0  0  0  0  0  0  0  0
   -0.0127    2.5940   -2.3948 C   0  0  0  0  0  0  0  0  0  0  0  0
   -0.3206    3.5586   -2.0112 H   0  0  0  0  0  0  0  0  0  0  0  0
   -0.0283    0.1609    1.5831 C   0  0  0  0  0  0  0  0  0  0  0  0
    1.1923    0.1056    1.7329 O   0  0  0  0  0  0  0  0  0  0  0  0
   -0.8586    0.4659    2.5853 N   0  0  0  0  0  0  0  0  0  0  0  0
   -1.8521    0.3848    2.4000 H   0  0  0  0  0  0  0  0  0  0  0  0
   -0.4403    0.7694    3.9518 C   0  0  0  0  0  0  0  0  0  0  0  0
    0.5066    1.3154    3.9421 H   0  0  0  0  0  0  0  0  0  0  0  0
   -1.1988    1.3789    4.4452 H   0  0  0  0  0  0  0  0  0  0  0  0
   -0.3053   -0.1600    4.5075 H   0  0  0  0  0  0  0  0  0  0  0  0
  5  6  2  0  0  0  0
  5  7  1  0  0  0  0
  2  3  1  0  0  0  0
  2  4  1  0  0  0  0
  2  5  1  0  0  0  0
  1  2  1  0  0  0  0
 22 23  2  0  0  0  0
 22 24  1  0  0  0  0
 20 21  1  0  0  0  0
 18 19  1  0  0  0  0
 18 20  1  0  0  0  0
 16 17  1  0  0  0  0
 16 18  1  0  0  0  0
 15 16  2  0  0  0  0
 14 15  1  0  0  0  0
 14 20  2  0  0  0  0
 11 12  1  0  0  0  0
 11 13  1  0  0  0  0
 11 14  1  0  0  0  0
  9 10  1  0  0  0  0
  9 11  1  0  0  0  0
  9 22  1  0  0  0  0
  7  8  1  0  0  0  0
  7  9  1  0  0  0  0
 26 27  1  0  0  0  0
 26 28  1  0  0  0  0
 26 29  1  0  0  0  0
 24 25  1  0  0  0  0
 24 26  1  0  0  0  0
M  END
$$$$
default_name
  -OEChem-02102213163D

 29 29  0     1  0  0  0  0  0999 V2000
   -2.9561   -3.9186    1.3887 H   0  0  0  0  0  0  0  0  0  0  0  0
   -3.1191   -2.9346    0.9517 C   0  0  0  0  0  0  0  0  0  0  0  0
   -3.7811   -2.3546    1.5917 H   0  0  0  0  0  0  0  0  0  0  0  0
   -3.5591   -3.0406   -0.0383 H   0  0  0  0  0  0  0  0  0  0  0  0
   -1.7921   -2.2226    0.8327 C   0  0  0  0  0  0  0  0  0  0  0  0
   -0.7611   -2.7766    1.1927 O   0  0  0  0  0  0  0  0  0  0  0  0
   -1.8201   -0.9926    0.3247 N   0  0  0  0  0  0  0  0  0  0  0  0
   -2.7141   -0.5816    0.0927 H   0  0  0  0  0  0  0  0  0  0  0  0
   -0.6481   -0.1156    0.2017 C   0  0  1  0  0  0  0  0  0  0  0  0
    0.1042   -0.6345   -0.3958 H   0  0  0  0  0  0  0  0  0  0  0  0
   -1.0420    1.1781   -0.5372 C   0  0  0  0  0  0  0  0  0  0  0  0
   -2.0990    1.1432   -0.8050 H   0  0  0  0  0  0  0  0  0  0  0  0
   -0.8981    2.0369    0.1199 H   0  0  0  0  0  0  0  0  0  0  0  0
   -0.2626    1.3856   -1.8130 C   0  0  0  0  0  0  0  0  0  0  0  0
   -0.0031    0.4133   -2.7798 N   0  0  0  0  0  0  0  0  0  0  0  0
    0.6714    1.0355   -3.7576 C   0  0  0  0  0  0  0  0  0  0  0  0
    1.0335    0.5515   -4.6559 H   0  0  0  0  0  0  0  0  0  0  0  0
    0.8231    2.3386   -3.4674 N   0  0  0  0  0  0  0  0  0  0  0  0
    1.2799    3.0212   -4.0567 H   0  0  0  0  0  0  0  0  0  0  0  0
    0.2363    2.5796   -2.2450 C   0  0  0  0  0  0  0  0  0  0  0  0
    0.1574    3.5258   -1.7245 H   0  0  0  0  0  0  0  0  0  0  0  0
   -0.0283    0.1609    1.5831 C   0  0  0  0  0  0  0  0  0  0  0  0
    1.1923    0.1056    1.7329 O   0  0  0  0  0  0  0  0  0  0  0  0
   -0.8586    0.4659    2.5853 N   0  0  0  0  0  0  0  0  0  0  0  0
   -1.8521    0.3848    2.4000 H   0  0  0  0  0  0  0  0  0  0  0  0
   -0.4403    0.7694    3.9518 C   0  0  0  0  0  0  0  0  0  0  0  0
    0.5066    1.3154    3.9421 H   0  0  0  0  0  0  0  0  0  0  0  0
   -1.1988    1.3789    4.4452 H   0  0  0  0  0  0  0  0  0  0  0  0
   -0.3053   -0.1600    4.5075 H   0  0  0  0  0  0  0  0  0  0  0  0
  5  6  2  0  0  0  0
  5  7  1  0  0  0  0
  2  3  1  0  0  0  0
  2  4  1  0  0  0  0
  2  5  1  0  0  0  0
  1  2  1  0  0  0  0
 22 23  2  0  0  0  0
 22 24  1  0  0  0  0
 20 21  1  0  0  0  0
 18 19  1  0  0  0  0
 18 20  1  0  0  0  0
 16 17  1  0  0  0  0
 16 18  1  0  0  0  0
 15 16  2  0  0  0  0
 14 15  1  0  0  0  0
 14 20  2  0  0  0  0
 11 12  1  0  0  0  0
 11 13  1  0  0  0  0
 11 14  1  0  0  0  0
  9 10  1  0  0  0  0
  9 11  1  0  0  0  0
  9 22  1  0  0  0  0
  7  8  1  0  0  0  0
  7  9  1  0  0  0  0
 26 27  1  0  0  0  0
 26 28  1  0  0  0  0
 26 29  1  0  0  0  0
 24 25  1  0  0  0  0
 24 26  1  0  0  0  0
M  END
$$$$
default_name
  -OEChem-02102213163D

 29 29  0     1  0  0  0  0  0999 V2000
   -2.9561   -3.9186    1.3887 H   0  0  0  0  0  0  0  0  0  0  0  0
   -3.1191   -2.9346    0.9517 C   0  0  0  0  0  0  0  0  0  0  0  0
   -3.7811   -2.3546    1.5917 H   0  0  0  0  0  0  0  0  0  0  0  0
   -3.5591   -3.0406   -0.0383 H   0  0  0  0  0  0  0  0  0  0  0  0
   -1.7921   -2.2226    0.8327 C   0  0  0  0  0  0  0  0  0  0  0  0
   -0.7611   -2.7766    1.1927 O   0  0  0  0  0  0  0  0  0  0  0  0
   -1.8201   -0.9926    0.3247 N   0  0  0  0  0  0  0  0  0  0  0  0
   -2.7141   -0.5816    0.0927 H   0  0  0  0  0  0  0  0  0  0  0  0
   -0.6481   -0.1156    0.2017 C   0  0  1  0  0  0  0  0  0  0  0  0
    0.1042   -0.6345   -0.3958 H   0  0  0  0  0  0  0  0  0  0  0  0
   -1.0420    1.1781   -0.5372 C   0  0  0  0  0  0  0  0  0  0  0  0
   -2.0990    1.1432   -0.8050 H   0  0  0  0  0  0  0  0  0  0  0  0
   -0.8981    2.0369    0.1199 H   0  0  0  0  0  0  0  0  0  0  0  0
   -0.2626    1.3856   -1.8130 C   0  0  0  0  0  0  0  0  0  0  0  0
   -0.2447    0.5226   -2.9096 N   0  0  0  0  0  0  0  0  0  0  0  0
    0.5303    1.1127   -3.8312 C   0  0  0  0  0  0  0  0  0  0  0  0
    0.7578    0.6902   -4.8018 H   0  0  0  0  0  0  0  0  0  0  0  0
    0.9725    2.2995   -3.3824 N   0  0  0  0  0  0  0  0  0  0  0  0
    1.5566    2.9415   -3.9006 H   0  0  0  0  0  0  0  0  0  0  0  0
    0.4790    2.4912   -2.1111 C   0  0  0  0  0  0  0  0  0  0  0  0
    0.6221    3.3512   -1.4690 H   0  0  0  0  0  0  0  0  0  0  0  0
   -0.0283    0.1609    1.5831 C   0  0  0  0  0  0  0  0  0  0  0  0
    1.1923    0.1056    1.7329 O   0  0  0  0  0  0  0  0  0  0  0  0
   -0.8586    0.4659    2.5853 N   0  0  0  0  0  0  0  0  0  0  0  0
   -1.8521    0.3848    2.4000 H   0  0  0  0  0  0  0  0  0  0  0  0
   -0.4403    0.7694    3.9518 C   0  0  0  0  0  0  0  0  0  0  0  0
    0.5066    1.3154    3.9421 H   0  0  0  0  0  0  0  0  0  0  0  0
   -1.1988    1.3789    4.4452 H   0  0  0  0  0  0  0  0  0  0  0  0
   -0.3053   -0.1600    4.5075 H   0  0  0  0  0  0  0  0  0  0  0  0
  5  6  2  0  0  0  0
  5  7  1  0  0  0  0
  2  3  1  0  0  0  0
  2  4  1  0  0  0  0
  2  5  1  0  0  0  0
  1  2  1  0  0  0  0
 22 23  2  0  0  0  0
 22 24  1  0  0  0  0
 20 21  1  0  0  0  0
 18 19  1  0  0  0  0
 18 20  1  0  0  0  0
 16 17  1  0  0  0  0
 16 18  1  0  0  0  0
 15 16  2  0  0  0  0
 14 15  1  0  0  0  0
 14 20  2  0  0  0  0
 11 12  1  0  0  0  0
 11 13  1  0  0  0  0
 11 14  1  0  0  0  0
  9 10  1  0  0  0  0
  9 11  1  0  0  0  0
  9 22  1  0  0  0  0
  7  8  1  0  0  0  0
  7  9  1  0  0  0  0
 26 27  1  0  0  0  0
 26 28  1  0  0  0  0
 26 29  1  0  0  0  0
 24 25  1  0  0  0  0
 24 26  1  0  0  0  0
M  END
$$$$
default_name
  -OEChem-02102213163D

 29 29  0     1  0  0  0  0  0999 V2000
   -2.9561   -3.9186    1.3887 H   0  0  0  0  0  0  0  0  0  0  0  0
   -3.1191   -2.9346    0.9517 C   0  0  0  0  0  0  0  0  0  0  0  0
   -3.7811   -2.3546    1.5917 H   0  0  0  0  0  0  0  0  0  0  0  0
   -3.5591   -3.0406   -0.0383 H   0  0  0  0  0  0  0  0  0  0  0  0
   -1.7921   -2.2226    0.8327 C   0  0  0  0  0  0  0  0  0  0  0  0
   -0.7611   -2.7766    1.1927 O   0  0  0  0  0  0  0  0  0  0  0  0
   -1.8201   -0.9926    0.3247 N   0  0  0  0  0  0  0  0  0  0  0  0
   -2.7141   -0.5816    0.0927 H   0  0  0  0  0  0  0  0  0  0  0  0
   -0.6481   -0.1156    0.2017 C   0  0  1  0  0  0  0  0  0  0  0  0
    0.1042   -0.6345   -0.3958 H   0  0  0  0  0  0  0  0  0  0  0  0
   -1.0420    1.1781   -0.5372 C   0  0  0  0  0  0  0  0  0  0  0  0
   -2.0990    1.1432   -0.8050 H   0  0  0  0  0  0  0  0  0  0  0  0
   -0.8981    2.0369    0.1199 H   0  0  0  0  0  0  0  0  0  0  0  0
   -0.2626    1.3856   -1.8130 C   0  0  0  0  0  0  0  0  0  0  0  0
   -0.4587    0.6985   -3.0117 N   0  0  0  0  0  0  0  0  0  0  0  0
    0.4084    1.2280   -3.8870 C   0  0  0  0  0  0  0  0  0  0  0  0
    0.5166    0.9040   -4.9144 H   0  0  0  0  0  0  0  0  0  0  0  0
    1.1113    2.2177   -3.3110 N   0  0  0  0  0  0  0  0  0  0  0  0
    1.8121    2.7832   -3.7703 H   0  0  0  0  0  0  0  0  0  0  0  0
    0.6988    2.3348   -2.0023 C   0  0  0  0  0  0  0  0  0  0  0  0
    1.0419    3.0467   -1.2621 H   0  0  0  0  0  0  0  0  0  0  0  0
   -0.0283    0.1609    1.5831 C   0  0  0  0  0  0  0  0  0  0  0  0
    1.1923    0.1056    1.7329 O   0  0  0  0  0  0  0  0  0  0  0  0
   -0.8586    0.4659    2.5853 N   0  0  0  0  0  0  0  0  0  0  0  0
   -1.8521    0.3848    2.4000 H   0  0  0  0  0  0  0  0  0  0  0  0
   -0.4403    0.7694    3.9518 C   0  0  0  0  0  0  0  0  0  0  0  0
    0.5066    1.3154    3.9421 H   0  0  0  0  0  0  0  0  0  0  0  0
   -1.1988    1.3789    4.4452 H   0  0  0  0  0  0  0  0  0  0  0  0
   -0.3053   -0.1600    4.5075 H   0  0  0  0  0  0  0  0  0  0  0  0
  5  6  2  0  0  0  0
  5  7  1  0  0  0  0
  2  3  1  0  0  0  0
  2  4  1  0  0  0  0
  2  5  1  0  0  0  0
  1  2  1  0  0  0  0
 22 23  2  0  0  0  0
 22 24  1  0  0  0  0
 20 21  1  0  0  0  0
 18 19  1  0  0  0  0
 18 20  1  0  0  0  0
 16 17  1  0  0  0  0
 16 18  1  0  0  0  0
 15 16  2  0  0  0  0
 14 15  1  0  0  0  0
 14 20  2  0  0  0  0
 11 12  1  0  0  0  0
 11 13  1  0  0  0  0
 11 14  1  0  0  0  0
  9 10  1  0  0  0  0
  9 11  1  0  0  0  0
  9 22  1  0  0  0  0
  7  8  1  0  0  0  0
  7  9  1  0  0  0  0
 26 27  1  0  0  0  0
 26 28  1  0  0  0  0
 26 29  1  0  0  0  0
 24 25  1  0  0  0  0
 24 26  1  0  0  0  0
M  END
$$$$
default_name
  -OEChem-02102213163D

 29 29  0     1  0  0  0  0  0999 V2000
   -2.9561   -3.9186    1.3887 H   0  0  0  0  0  0  0  0  0  0  0  0
   -3.1191   -2.9346    0.9517 C   0  0  0  0  0  0  0  0  0  0  0  0
   -3.7811   -2.3546    1.5917 H   0  0  0  0  0  0  0  0  0  0  0  0
   -3.5591   -3.0406   -0.0383 H   0  0  0  0  0  0  0  0  0  0  0  0
   -1.7921   -2.2226    0.8327 C   0  0  0  0  0  0  0  0  0  0  0  0
   -0.7611   -2.7766    1.1927 O   0  0  0  0  0  0  0  0  0  0  0  0
   -1.8201   -0.9926    0.3247 N   0  0  0  0  0  0  0  0  0  0  0  0
   -2.7141   -0.5816    0.0927 H   0  0  0  0  0  0  0  0  0  0  0  0
   -0.6481   -0.1156    0.2017 C   0  0  1  0  0  0  0  0  0  0  0  0
    0.1042   -0.6345   -0.3958 H   0  0  0  0  0  0  0  0  0  0  0  0
   -1.0420    1.1781   -0.5372 C   0  0  0  0  0  0  0  0  0  0  0  0
   -2.0990    1.1432   -0.8050 H   0  0  0  0  0  0  0  0  0  0  0  0
   -0.8981    2.0369    0.1199 H   0  0  0  0  0  0  0  0  0  0  0  0
   -0.2626    1.3856   -1.8130 C   0  0  0  0  0  0  0  0  0  0  0  0
   -0.6306    0.9289   -3.0793 N   0  0  0  0  0  0  0  0  0  0  0  0
    0.3138    1.3735   -3.9211 C   0  0  0  0  0  0  0  0  0  0  0  0
    0.3264    1.1782   -4.9860 H   0  0  0  0  0  0  0  0  0  0  0  0
    1.2300    2.0987   -3.2578 N   0  0  0  0  0  0  0  0  0  0  0  0
    2.0289    2.5569   -3.6746 H   0  0  0  0  0  0  0  0  0  0  0  0
    0.8808    2.1211   -1.9258 C   0  0  0  0  0  0  0  0  0  0  0  0
    1.3881    2.6331   -1.1178 H   0  0  0  0  0  0  0  0  0  0  0  0
   -0.0283    0.1609    1.5831 C   0  0  0  0  0  0  0  0  0  0  0  0
    1.1923    0.1056    1.7329 O   0  0  0  0  0  0  0  0  0  0  0  0
   -0.8586    0.4659    2.5853 N   0  0  0  0  0  0  0  0  0  0  0  0
   -1.8521    0.3848    2.4000 H   0  0  0  0  0  0  0  0  0  0  0  0
   -0.4403    0.7694    3.9518 C   0  0  0  0  0  0  0  0  0  0  0  0
    0.5066    1.3154    3.9421 H   0  0  0  0  0  0  0  0  0  0  0  0
   -1.1988    1.3789    4.4452 H   0  0  0  0  0  0  0  0  0  0  0  0
   -0.3053   -0.1600    4.5075 H   0  0  0  0  0  0  0  0  0  0  0  0
  5  6  2  0  0  0  0
  5  7  1  0  0  0  0
  2  3  1  0  0  0  0
  2  4  1  0  0  0  0
  2  5  1  0  0  0  0
  1  2  1  0  0  0  0
 22 23  2  0  0  0  0
 22 24  1  0  0  0  0
 20 21  1  0  0  0  0
 18 19  1  0  0  0  0
 18 20  1  0  0  0  0
 16 17  1  0  0  0  0
 16 18  1  0  0  0  0
 15 16  2  0  0  0  0
 14 15  1  0  0  0  0
 14 20  2  0  0  0  0
 11 12  1  0  0  0  0
 11 13  1  0  0  0  0
 11 14  1  0  0  0  0
  9 10  1  0  0  0  0
  9 11  1  0  0  0  0
  9 22  1  0  0  0  0
  7  8  1  0  0  0  0
  7  9  1  0  0  0  0
 26 27  1  0  0  0  0
 26 28  1  0  0  0  0
 26 29  1  0  0  0  0
 24 25  1  0  0  0  0
 24 26  1  0  0  0  0
M  END
$$$$
default_name
  -OEChem-02102213163D

 29 29  0     1  0  0  0  0  0999 V2000
   -2.9561   -3.9186    1.3887 H   0  0  0  0  0  0  0  0  0  0  0  0
   -3.1191   -2.9346    0.9517 C   0  0  0  0  0  0  0  0  0  0  0  0
   -3.7811   -2.3546    1.5917 H   0  0  0  0  0  0  0  0  0  0  0  0
   -3.5591   -3.0406   -0.0383 H   0  0  0  0  0  0  0  0  0  0  0  0
   -1.7921   -2.2226    0.8327 C   0  0  0  0  0  0  0  0  0  0  0  0
   -0.7611   -2.7766    1.1927 O   0  0  0  0  0  0  0  0  0  0  0  0
   -1.8201   -0.9926    0.3247 N   0  0  0  0  0  0  0  0  0  0  0  0
   -2.7141   -0.5816    0.0927 H   0  0  0  0  0  0  0  0  0  0  0  0
   -0.6481   -0.1156    0.2017 C   0  0  1  0  0  0  0  0  0  0  0  0
    0.1042   -0.6345   -0.3958 H   0  0  0  0  0  0  0  0  0  0  0  0
   -1.0420    1.1781   -0.5372 C   0  0  0  0  0  0  0  0  0  0  0  0
   -2.0990    1.1432   -0.8050 H   0  0  0  0  0  0  0  0  0  0  0  0
   -0.8981    2.0369    0.1199 H   0  0  0  0  0  0  0  0  0  0  0  0
   -0.2626    1.3856   -1.8130 C   0  0  0  0  0  0  0  0  0  0  0  0
   -0.7486    1.1980   -3.1076 N   0  0  0  0  0  0  0  0  0  0  0  0
    0.2531    1.5393   -3.9312 C   0  0  0  0  0  0  0  0  0  0  0  0
    0.2001    1.4944   -5.0117 H   0  0  0  0  0  0  0  0  0  0  0  0
    1.3205    1.9508   -3.2265 N   0  0  0  0  0  0  0  0  0  0  0  0
    2.1922    2.2782   -3.6202 H   0  0  0  0  0  0  0  0  0  0  0  0
    1.0126    1.8647   -1.8870 C   0  0  0  0  0  0  0  0  0  0  0  0
    1.6372    2.1386   -1.0461 H   0  0  0  0  0  0  0  0  0  0  0  0
   -0.0283    0.1609    1.5831 C   0  0  0  0  0  0  0  0  0  0  0  0
    1.1923    0.1056    1.7329 O   0  0  0  0  0  0  0  0  0  0  0  0
   -0.8586    0.4659    2.5853 N   0  0  0  0  0  0  0  0  0  0  0  0
   -1.8521    0.3848    2.4000 H   0  0  0  0  0  0  0  0  0  0  0  0
   -0.4403    0.7694    3.9518 C   0  0  0  0  0  0  0  0  0  0  0  0
    0.5066    1.3154    3.9421 H   0  0  0  0  0  0  0  0  0  0  0  0
   -1.1988    1.3789    4.4452 H   0  0  0  0  0  0  0  0  0  0  0  0
   -0.3053   -0.1600    4.5075 H   0  0  0  0  0  0  0  0  0  0  0  0
  5  6  2  0  0  0  0
  5  7  1  0  0  0  0
  2  3  1  0  0  0  0
  2  4  1  0  0  0  0
  2  5  1  0  0  0  0
  1  2  1  0  0  0  0
 22 23  2  0  0  0  0
 22 24  1  0  0  0  0
 20 21  1  0  0  0  0
 18 19  1  0  0  0  0
 18 20  1  0  0  0  0
 16 17  1  0  0  0  0
 16 18  1  0  0  0  0
 15 16  2  0  0  0  0
 14 15  1  0  0  0  0
 14 20  2  0  0  0  0
 11 12  1  0  0  0  0
 11 13  1  0  0  0  0
 11 14  1  0  0  0  0
  9 10  1  0  0  0  0
  9 11  1  0  0  0  0
  9 22  1  0  0  0  0
  7  8  1  0  0  0  0
  7  9  1  0  0  0  0
 26 27  1  0  0  0  0
 26 28  1  0  0  0  0
 26 29  1  0  0  0  0
 24 25  1  0  0  0  0
 24 26  1  0  0  0  0
M  END
$$$$
default_name
  -OEChem-02102213163D

 29 29  0     1  0  0  0  0  0999 V2000
   -2.9561   -3.9186    1.3887 H   0  0  0  0  0  0  0  0  0  0  0  0
   -3.1191   -2.9346    0.9517 C   0  0  0  0  0  0  0  0  0  0  0  0
   -3.7811   -2.3546    1.5917 H   0  0  0  0  0  0  0  0  0  0  0  0
   -3.5591   -3.0406   -0.0383 H   0  0  0  0  0  0  0  0  0  0  0  0
   -1.7921   -2.2226    0.8327 C   0  0  0  0  0  0  0  0  0  0  0  0
   -0.7611   -2.7766    1.1927 O   0  0  0  0  0  0  0  0  0  0  0  0
   -1.8201   -0.9926    0.3247 N   0  0  0  0  0  0  0  0  0  0  0  0
   -2.7141   -0.5816    0.0927 H   0  0  0  0  0  0  0  0  0  0  0  0
   -0.6481   -0.1156    0.2017 C   0  0  1  0  0  0  0  0  0  0  0  0
    0.1042   -0.6345   -0.3958 H   0  0  0  0  0  0  0  0  0  0  0  0
   -1.0420    1.1781   -0.5372 C   0  0  0  0  0  0  0  0  0  0  0  0
   -2.0990    1.1432   -0.8050 H   0  0  0  0  0  0  0  0  0  0  0  0
   -0.8981    2.0369    0.1199 H   0  0  0  0  0  0  0  0  0  0  0  0
   -0.2626    1.3856   -1.8130 C   0  0  0  0  0  0  0  0  0  0  0  0
   -0.8048    1.4875   -3.0948 N   0  0  0  0  0  0  0  0  0  0  0  0
    0.2304    1.7140   -3.9167 C   0  0  0  0  0  0  0  0  0  0  0  0
    0.1464    1.8308   -4.9898 H   0  0  0  0  0  0  0  0  0  0  0  0
    1.3767    1.7839   -3.2194 N   0  0  0  0  0  0  0  0  0  0  0  0
    2.2908    1.9659   -3.6107 H   0  0  0  0  0  0  0  0  0  0  0  0
    1.0852    1.5829   -1.8885 C   0  0  0  0  0  0  0  0  0  0  0  0
    1.7722    1.5969   -1.0517 H   0  0  0  0  0  0  0  0  0  0  0  0
   -0.0283    0.1609    1.5831 C   0  0  0  0  0  0  0  0  0  0  0  0
    1.1923    0.1056    1.7329 O   0  0  0  0  0  0  0  0  0  0  0  0
   -0.8586    0.4659    2.5853 N   0  0  0  0  0  0  0  0  0  0  0  0
   -1.8521    0.3848    2.4000 H   0  0  0  0  0  0  0  0  0  0  0  0
   -0.4403    0.7694    3.9518 C   0  0  0  0  0  0  0  0  0  0  0  0
    0.5066    1.3154    3.9421 H   0  0  0  0  0  0  0  0  0  0  0  0
   -1.1988    1.3789    4.4452 H   0  0  0  0  0  0  0  0  0  0  0  0
   -0.3053   -0.1600    4.5075 H   0  0  0  0  0  0  0  0  0  0  0  0
  5  6  2  0  0  0  0
  5  7  1  0  0  0  0
  2  3  1  0  0  0  0
  2  4  1  0  0  0  0
  2  5  1  0  0  0  0
  1  2  1  0  0  0  0
 22 23  2  0  0  0  0
 22 24  1  0  0  0  0
 20 21  1  0  0  0  0
 18 19  1  0  0  0  0
 18 20  1  0  0  0  0
 16 17  1  0  0  0  0
 16 18  1  0  0  0  0
 15 16  2  0  0  0  0
 14 15  1  0  0  0  0
 14 20  2  0  0  0  0
 11 12  1  0  0  0  0
 11 13  1  0  0  0  0
 11 14  1  0  0  0  0
  9 10  1  0  0  0  0
  9 11  1  0  0  0  0
  9 22  1  0  0  0  0
  7  8  1  0  0  0  0
  7  9  1  0  0  0  0
 26 27  1  0  0  0  0
 26 28  1  0  0  0  0
 26 29  1  0  0  0  0
 24 25  1  0  0  0  0
 24 26  1  0  0  0  0
M  END
$$$$
default_name
  -OEChem-02102213163D

 29 29  0     1  0  0  0  0  0999 V2000
   -2.9561   -3.9186    1.3887 H   0  0  0  0  0  0  0  0  0  0  0  0
   -3.1191   -2.9346    0.9517 C   0  0  0  0  0  0  0  0  0  0  0  0
   -3.7811   -2.3546    1.5917 H   0  0  0  0  0  0  0  0  0  0  0  0
   -3.5591   -3.0406   -0.0383 H   0  0  0  0  0  0  0  0  0  0  0  0
   -1.7921   -2.2226    0.8327 C   0  0  0  0  0  0  0  0  0  0  0  0
   -0.7611   -2.7766    1.1927 O   0  0  0  0  0  0  0  0  0  0  0  0
   -1.8201   -0.9926    0.3247 N   0  0  0  0  0  0  0  0  0  0  0  0
   -2.7141   -0.5816    0.0927 H   0  0  0  0  0  0  0  0  0  0  0  0
   -0.6481   -0.1156    0.2017 C   0  0  1  0  0  0  0  0  0  0  0  0
    0.1042   -0.6345   -0.3958 H   0  0  0  0  0  0  0  0  0  0  0  0
   -1.0420    1.1781   -0.5372 C   0  0  0  0  0  0  0  0  0  0  0  0
   -2.0990    1.1432   -0.8050 H   0  0  0  0  0  0  0  0  0  0  0  0
   -0.8981    2.0369    0.1199 H   0  0  0  0  0  0  0  0  0  0  0  0
   -0.2626    1.3856   -1.8130 C   0  0  0  0  0  0  0  0  0  0  0  0
   -0.7952    1.7778   -3.0418 N   0  0  0  0  0  0  0  0  0  0  0  0
    0.2472    1.8859   -3.8785 C   0  0  0  0  0  0  0  0  0  0  0  0
    0.1689    2.1645   -4.9218 H   0  0  0  0  0  0  0  0  0  0  0  0
    1.3948    1.6094   -3.2367 N   0  0  0  0  0  0  0  0  0  0  0  0
    2.3182    1.6414   -3.6468 H   0  0  0  0  0  0  0  0  0  0  0  0
    1.0936    1.2951   -1.9302 C   0  0  0  0  0  0  0  0  0  0  0  0
    1.7838    1.0448   -1.1344 H   0  0  0  0  0  0  0  0  0  0  0  0
   -0.0283    0.1609    1.5831 C   0  0  0  0  0  0  0  0  0  0  0  0
    1.1923    0.1056    1.7329 O   0  0  0  0  0  0  0  0  0  0  0  0
   -0.8586    0.4659    2.5853 N   0  0  0  0  0  0  0  0  0  0  0  0
   -1.8521    0.3848    2.4000 H   0  0  0  0  0  0  0  0  0  0  0  0
   -0.4403    0.7694    3.9518 C   0  0  0  0  0  0  0  0  0  0  0  0
    0.5066    1.3154    3.9421 H   0  0  0  0  0  0  0  0  0  0  0  0
   -1.1988    1.3789    4.4452 H   0  0  0  0  0  0  0  0  0  0  0  0
   -0.3053   -0.1600    4.5075 H   0  0  0  0  0  0  0  0  0  0  0  0
  5  6  2  0  0  0  0
  5  7  1  0  0  0  0
  2  3  1  0  0  0  0
  2  4  1  0  0  0  0
  2  5  1  0  0  0  0
  1  2  1  0  0  0  0
 22 23  2  0  0  0  0
 22 24  1  0  0  0  0
 20 21  1  0  0  0  0
 18 19  1  0  0  0  0
 18 20  1  0  0  0  0
 16 17  1  0  0  0  0
 16 18  1  0  0  0  0
 15 16  2  0  0  0  0
 14 15  1  0  0  0  0
 14 20  2  0  0  0  0
 11 12  1  0  0  0  0
 11 13  1  0  0  0  0
 11 14  1  0  0  0  0
  9 10  1  0  0  0  0
  9 11  1  0  0  0  0
  9 22  1  0  0  0  0
  7  8  1  0  0  0  0
  7  9  1  0  0  0  0
 26 27  1  0  0  0  0
 26 28  1  0  0  0  0
 26 29  1  0  0  0  0
 24 25  1  0  0  0  0
 24 26  1  0  0  0  0
M  END
$$$$
default_name
  -OEChem-02102213163D

 29 29  0     1  0  0  0  0  0999 V2000
   -2.9561   -3.9186    1.3887 H   0  0  0  0  0  0  0  0  0  0  0  0
   -3.1191   -2.9346    0.9517 C   0  0  0  0  0  0  0  0  0  0  0  0
   -3.7811   -2.3546    1.5917 H   0  0  0  0  0  0  0  0  0  0  0  0
   -3.5591   -3.0406   -0.0383 H   0  0  0  0  0  0  0  0  0  0  0  0
   -1.7921   -2.2226    0.8327 C   0  0  0  0  0  0  0  0  0  0  0  0
   -0.7611   -2.7766    1.1927 O   0  0  0  0  0  0  0  0  0  0  0  0
   -1.8201   -0.9926    0.3247 N   0  0  0  0  0  0  0  0  0  0  0  0
   -2.7141   -0.5816    0.0927 H   0  0  0  0  0  0  0  0  0  0  0  0
   -0.6481   -0.1156    0.2017 C   0  0  1  0  0  0  0  0  0  0  0  0
    0.1042   -0.6345   -0.3958 H   0  0  0  0  0  0  0  0  0  0  0  0
   -1.0420    1.1781   -0.5372 C   0  0  0  0  0  0  0  0  0  0  0  0
   -2.0990    1.1432   -0.8050 H   0  0  0  0  0  0  0  0  0  0  0  0
   -0.8981    2.0369    0.1199 H   0  0  0  0  0  0  0  0  0  0  0  0
   -0.2626    1.3856   -1.8130 C   0  0  0  0  0  0  0  0  0  0  0  0
   -0.7206    2.0490   -2.9521 N   0  0  0  0  0  0  0  0  0  0  0  0
    0.3023    2.0431   -3.8192 C   0  0  0  0  0  0  0  0  0  0  0  0
    0.2660    2.4729   -4.8123 H   0  0  0  0  0  0  0  0  0  0  0  0
    1.3734    1.4393   -3.2774 N   0  0  0  0  0  0  0  0  0  0  0  0
    2.2723    1.3269   -3.7259 H   0  0  0  0  0  0  0  0  0  0  0  0
    1.0373    1.0208   -2.0092 C   0  0  0  0  0  0  0  0  0  0  0  0
    1.6714    0.5201   -1.2884 H   0  0  0  0  0  0  0  0  0  0  0  0
   -0.0283    0.1609    1.5831 C   0  0  0  0  0  0  0  0  0  0  0  0
    1.1923    0.1056    1.7329 O   0  0  0  0  0  0  0  0  0  0  0  0
   -0.8586    0.4659    2.5853 N   0  0  0  0  0  0  0  0  0  0  0  0
   -1.8521    0.3848    2.4000 H   0  0  0  0  0  0  0  0  0  0  0  0
   -0.4403    0.7694    3.9518 C   0  0  0  0  0  0  0  0  0  0  0  0
    0.5066    1.3154    3.9421 H   0  0  0  0  0  0  0  0  0  0  0  0
   -1.1988    1.3789    4.4452 H   0  0  0  0  0  0  0  0  0  0  0  0
   -0.3053   -0.1600    4.5075 H   0  0  0  0  0  0  0  0  0  0  0  0
  5  6  2  0  0  0  0
  5  7  1  0  0  0  0
  2  3  1  0  0  0  0
  2  4  1  0  0  0  0
  2  5  1  0  0  0  0
  1  2  1  0  0  0  0
 22 23  2  0  0  0  0
 22 24  1  0  0  0  0
 20 21  1  0  0  0  0
 18 19  1  0  0  0  0
 18 20  1  0  0  0  0
 16 17  1  0  0  0  0
 16 18  1  0  0  0  0
 15 16  2  0  0  0  0
 14 15  1  0  0  0  0
 14 20  2  0  0  0  0
 11 12  1  0  0  0  0
 11 13  1  0  0  0  0
 11 14  1  0  0  0  0
  9 10  1  0  0  0  0
  9 11  1  0  0  0  0
  9 22  1  0  0  0  0
  7  8  1  0  0  0  0
  7  9  1  0  0  0  0
 26 27  1  0  0  0  0
 26 28  1  0  0  0  0
 26 29  1  0  0  0  0
 24 25  1  0  0  0  0
 24 26  1  0  0  0  0
M  END
$$$$
default_name
  -OEChem-02102213163D

 29 29  0     1  0  0  0  0  0999 V2000
   -2.9561   -3.9186    1.3887 H   0  0  0  0  0  0  0  0  0  0  0  0
   -3.1191   -2.9346    0.9517 C   0  0  0  0  0  0  0  0  0  0  0  0
   -3.7811   -2.3546    1.5917 H   0  0  0  0  0  0  0  0  0  0  0  0
   -3.5591   -3.0406   -0.0383 H   0  0  0  0  0  0  0  0  0  0  0  0
   -1.7921   -2.2226    0.8327 C   0  0  0  0  0  0  0  0  0  0  0  0
   -0.7611   -2.7766    1.1927 O   0  0  0  0  0  0  0  0  0  0  0  0
   -1.8201   -0.9926    0.3247 N   0  0  0  0  0  0  0  0  0  0  0  0
   -2.7141   -0.5816    0.0927 H   0  0  0  0  0  0  0  0  0  0  0  0
   -0.6481   -0.1156    0.2017 C   0  0  1  0  0  0  0  0  0  0  0  0
    0.1042   -0.6345   -0.3958 H   0  0  0  0  0  0  0  0  0  0  0  0
   -1.0420    1.1781   -0.5372 C   0  0  0  0  0  0  0  0  0  0  0  0
   -2.0990    1.1432   -0.8050 H   0  0  0  0  0  0  0  0  0  0  0  0
   -0.8981    2.0369    0.1199 H   0  0  0  0  0  0  0  0  0  0  0  0
   -0.2626    1.3856   -1.8130 C   0  0  0  0  0  0  0  0  0  0  0  0
   -0.5860    2.2827   -2.8319 N   0  0  0  0  0  0  0  0  0  0  0  0
    0.3921    2.1750   -3.7429 C   0  0  0  0  0  0  0  0  0  0  0  0
    0.4312    2.7349   -4.6688 H   0  0  0  0  0  0  0  0  0  0  0  0
    1.3141    1.2850   -3.3388 N   0  0  0  0  0  0  0  0  0  0  0  0
    2.1564    1.0436   -3.8428 H   0  0  0  0  0  0  0  0  0  0  0  0
    0.9201    0.7788   -2.1201 C   0  0  0  0  0  0  0  0  0  0  0  0
    1.4425    0.0584   -1.5033 H   0  0  0  0  0  0  0  0  0  0  0  0
   -0.0283    0.1609    1.5831 C   0  0  0  0  0  0  0  0  0  0  0  0
    1.1923    0.1056    1.7329 O   0  0  0  0  0  0  0  0  0  0  0  0
   -0.8586    0.4659    2.5853 N   0  0  0  0  0  0  0  0  0  0  0  0
   -1.8521    0.3848    2.4000 H   0  0  0  0  0  0  0  0  0  0  0  0
   -0.4403    0.7694    3.9518 C   0  0  0  0  0  0  0  0  0  0  0  0
    0.5066    1.3154    3.9421 H   0  0  0  0  0  0  0  0  0  0  0  0
   -1.1988    1.3789    4.4452 H   0  0  0  0  0  0  0  0  0  0  0  0
   -0.3053   -0.1600    4.5075 H   0  0  0  0  0  0  0  0  0  0  0  0
  5  6  2  0  0  0  0
  5  7  1  0  0  0  0
  2  3  1  0  0  0  0
  2  4  1  0  0  0  0
  2  5  1  0  0  0  0
  1  2  1  0  0  0  0
 22 23  2  0  0  0  0
 22 24  1  0  0  0  0
 20 21  1  0  0  0  0
 18 19  1  0  0  0  0
 18 20  1  0  0  0  0
 16 17  1  0  0  0  0
 16 18  1  0  0  0  0
 15 16  2  0  0  0  0
 14 15  1  0  0  0  0
 14 20  2  0  0  0  0
 11 12  1  0  0  0  0
 11 13  1  0  0  0  0
 11 14  1  0  0  0  0
  9 10  1  0  0  0  0
  9 11  1  0  0  0  0
  9 22  1  0  0  0  0
  7  8  1  0  0  0  0
  7  9  1  0  0  0  0
 26 27  1  0  0  0  0
 26 28  1  0  0  0  0
 26 29  1  0  0  0  0
 24 25  1  0  0  0  0
 24 26  1  0  0  0  0
M  END
$$$$
default_name
  -OEChem-02102213163D

 29 29  0     1  0  0  0  0  0999 V2000
   -2.9561   -3.9186    1.3887 H   0  0  0  0  0  0  0  0  0  0  0  0
   -3.1191   -2.9346    0.9517 C   0  0  0  0  0  0  0  0  0  0  0  0
   -3.7811   -2.3546    1.5917 H   0  0  0  0  0  0  0  0  0  0  0  0
   -3.5591   -3.0406   -0.0383 H   0  0  0  0  0  0  0  0  0  0  0  0
   -1.7921   -2.2226    0.8327 C   0  0  0  0  0  0  0  0  0  0  0  0
   -0.7611   -2.7766    1.1927 O   0  0  0  0  0  0  0  0  0  0  0  0
   -1.8201   -0.9926    0.3247 N   0  0  0  0  0  0  0  0  0  0  0  0
   -2.7141   -0.5816    0.0927 H   0  0  0  0  0  0  0  0  0  0  0  0
   -0.6481   -0.1156    0.2017 C   0  0  1  0  0  0  0  0  0  0  0  0
    0.1042   -0.6345   -0.3958 H   0  0  0  0  0  0  0  0  0  0  0  0
   -1.0420    1.1781   -0.5372 C   0  0  0  0  0  0  0  0  0  0  0  0
   -2.1288    1.2684   -0.5699 H   0  0  0  0  0  0  0  0  0  0  0  0
   -0.6569    2.0438    0.0034 H   0  0  0  0  0  0  0  0  0  0  0  0
   -0.5457    1.2142   -1.9622 C   0  0  0  0  0  0  0  0  0  0  0  0
   -0.7475    2.2528   -2.8721 N   0  0  0  0  0  0  0  0  0  0  0  0
   -0.1016    1.8940   -3.9912 C   0  0  0  0  0  0  0  0  0  0  0  0
   -0.0736    2.4844   -4.8984 H   0  0  0  0  0  0  0  0  0  0  0  0
    0.5087    0.7091   -3.8215 N   0  0  0  0  0  0  0  0  0  0  0  0
    1.0747    0.2368   -4.5132 H   0  0  0  0  0  0  0  0  0  0  0  0
    0.2431    0.2659   -2.5450 C   0  0  0  0  0  0  0  0  0  0  0  0
    0.5987   -0.6413   -2.0727 H   0  0  0  0  0  0  0  0  0  0  0  0
   -0.0283    0.1609    1.5831 C   0  0  0  0  0  0  0  0  0  0  0  0
    1.1923    0.1056    1.7329 O   0  0  0  0  0  0  0  0  0  0  0  0
   -0.8586    0.4659    2.5853 N   0  0  0  0  0  0  0  0  0  0  0  0
   -1.8521    0.3848    2.4000 H   0  0  0  0  0  0  0  0  0  0  0  0
   -0.4403    0.7694    3.9518 C   0  0  0  0  0  0  0  0  0  0  0  0
    0.5066    1.3154    3.9421 H   0  0  0  0  0  0  0  0  0  0  0  0
   -1.1988    1.3789    4.4452 H   0  0  0  0  0  0  0  0  0  0  0  0
   -0.3053   -0.1600    4.5075 H   0  0  0  0  0  0  0  0  0  0  0  0
  5  6  2  0  0  0  0
  5  7  1  0  0  0  0
  2  3  1  0  0  0  0
  2  4  1  0  0  0  0
  2  5  1  0  0  0  0
  1  2  1  0  0  0  0
 22 23  2  0  0  0  0
 22 24  1  0  0  0  0
 20 21  1  0  0  0  0
 18 19  1  0  0  0  0
 18 20  1  0  0  0  0
 16 17  1  0  0  0  0
 16 18  1  0  0  0  0
 15 16  2  0  0  0  0
 14 15  1  0  0  0  0
 14 20  2  0  0  0  0
 11 12  1  0  0  0  0
 11 13  1  0  0  0  0
 11 14  1  0  0  0  0
  9 10  1  0  0  0  0
  9 11  1  0  0  0  0
  9 22  1  0  0  0  0
  7  8  1  0  0  0  0
  7  9  1  0  0  0  0
 26 27  1  0  0  0  0
 26 28  1  0  0  0  0
 26 29  1  0  0  0  0
 24 25  1  0  0  0  0
 24 26  1  0  0  0  0
M  END
$$$$
default_name
  -OEChem-02102213163D

 29 29  0     1  0  0  0  0  0999 V2000
   -2.9561   -3.9186    1.3887 H   0  0  0  0  0  0  0  0  0  0  0  0
   -3.1191   -2.9346    0.9517 C   0  0  0  0  0  0  0  0  0  0  0  0
   -3.7811   -2.3546    1.5917 H   0  0  0  0  0  0  0  0  0  0  0  0
   -3.5591   -3.0406   -0.0383 H   0  0  0  0  0  0  0  0  0  0  0  0
   -1.7921   -2.2226    0.8327 C   0  0  0  0  0  0  0  0  0  0  0  0
   -0.7611   -2.7766    1.1927 O   0  0  0  0  0  0  0  0  0  0  0  0
   -1.8201   -0.9926    0.3247 N   0  0  0  0  0  0  0  0  0  0  0  0
   -2.7141   -0.5816    0.0927 H   0  0  0  0  0  0  0  0  0  0  0  0
   -0.6481   -0.1156    0.2017 C   0  0  1  0  0  0  0  0  0  0  0  0
    0.1042   -0.6345   -0.3958 H   0  0  0  0  0  0  0  0  0  0  0  0
   -1.0420    1.1781   -0.5372 C   0  0  0  0  0  0  0  0  0  0  0  0
   -2.1288    1.2684   -0.5699 H   0  0  0  0  0  0  0  0  0  0  0  0
   -0.6569    2.0438    0.0034 H   0  0  0  0  0  0  0  0  0  0  0  0
   -0.5457    1.2142   -1.9622 C   0  0  0  0  0  0  0  0  0  0  0  0
   -0.4834    2.3448   -2.7778 N   0  0  0  0  0  0  0  0  0  0  0  0
    0.0601    1.9367   -3.9338 C   0  0  0  0  0  0  0  0  0  0  0  0
    0.2357    2.5780   -4.7883 H   0  0  0  0  0  0  0  0  0  0  0  0
    0.3613    0.6286   -3.8749 N   0  0  0  0  0  0  0  0  0  0  0  0
    0.7976    0.0936   -4.6133 H   0  0  0  0  0  0  0  0  0  0  0  0
   -0.0103    0.1556   -2.6360 C   0  0  0  0  0  0  0  0  0  0  0  0
    0.1105   -0.8479   -2.2479 H   0  0  0  0  0  0  0  0  0  0  0  0
   -0.0283    0.1609    1.5831 C   0  0  0  0  0  0  0  0  0  0  0  0
    1.1923    0.1056    1.7329 O   0  0  0  0  0  0  0  0  0  0  0  0
   -0.8586    0.4659    2.5853 N   0  0  0  0  0  0  0  0  0  0  0  0
   -1.8521    0.3848    2.4000 H   0  0  0  0  0  0  0  0  0  0  0  0
   -0.4403    0.7694    3.9518 C   0  0  0  0  0  0  0  0  0  0  0  0
    0.5066    1.3154    3.9421 H   0  0  0  0  0  0  0  0  0  0  0  0
   -1.1988    1.3789    4.4452 H   0  0  0  0  0  0  0  0  0  0  0  0
   -0.3053   -0.1600    4.5075 H   0  0  0  0  0  0  0  0  0  0  0  0
  5  6  2  0  0  0  0
  5  7  1  0  0  0  0
  2  3  1  0  0  0  0
  2  4  1  0  0  0  0
  2  5  1  0  0  0  0
  1  2  1  0  0  0  0
 22 23  2  0  0  0  0
 22 24  1  0  0  0  0
 20 21  1  0  0  0  0
 18 19  1  0  0  0  0
 18 20  1  0  0  0  0
 16 17  1  0  0  0  0
 16 18  1  0  0  0  0
 15 16  2  0  0  0  0
 14 15  1  0  0  0  0
 14 20  2  0  0  0  0
 11 12  1  0  0  0  0
 11 13  1  0  0  0  0
 11 14  1  0  0  0  0
  9 10  1  0  0  0  0
  9 11  1  0  0  0  0
  9 22  1  0  0  0  0
  7  8  1  0  0  0  0
  7  9  1  0  0  0  0
 26 27  1  0  0  0  0
 26 28  1  0  0  0  0
 26 29  1  0  0  0  0
 24 25  1  0  0  0  0
 24 26  1  0  0  0  0
M  END
$$$$
default_name
  -OEChem-02102213163D

 29 29  0     1  0  0  0  0  0999 V2000
   -2.9561   -3.9186    1.3887 H   0  0  0  0  0  0  0  0  0  0  0  0
   -3.1191   -2.9346    0.9517 C   0  0  0  0  0  0  0  0  0  0  0  0
   -3.7811   -2.3546    1.5917 H   0  0  0  0  0  0  0  0  0  0  0  0
   -3.5591   -3.0406   -0.0383 H   0  0  0  0  0  0  0  0  0  0  0  0
   -1.7921   -2.2226    0.8327 C   0  0  0  0  0  0  0  0  0  0  0  0
   -0.7611   -2.7766    1.1927 O   0  0  0  0  0  0  0  0  0  0  0  0
   -1.8201   -0.9926    0.3247 N   0  0  0  0  0  0  0  0  0  0  0  0
   -2.7141   -0.5816    0.0927 H   0  0  0  0  0  0  0  0  0  0  0  0
   -0.6481   -0.1156    0.2017 C   0  0  1  0  0  0  0  0  0  0  0  0
    0.1042   -0.6345   -0.3958 H   0  0  0  0  0  0  0  0  0  0  0  0
   -1.0420    1.1781   -0.5372 C   0  0  0  0  0  0  0  0  0  0  0  0
   -2.1288    1.2684   -0.5699 H   0  0  0  0  0  0  0  0  0  0  0  0
   -0.6569    2.0438    0.0034 H   0  0  0  0  0  0  0  0  0  0  0  0
   -0.5457    1.2142   -1.9622 C   0  0  0  0  0  0  0  0  0  0  0  0
   -0.2051    2.3611   -2.6805 N   0  0  0  0  0  0  0  0  0  0  0  0
    0.2271    1.9335   -3.8757 C   0  0  0  0  0  0  0  0  0  0  0  0
    0.5579    2.5835   -4.6759 H   0  0  0  0  0  0  0  0  0  0  0  0
    0.1989    0.5914   -3.9324 N   0  0  0  0  0  0  0  0  0  0  0  0
    0.4943    0.0315   -4.7205 H   0  0  0  0  0  0  0  0  0  0  0  0
   -0.2825    0.1188   -2.7317 C   0  0  0  0  0  0  0  0  0  0  0  0
   -0.4126   -0.9134   -2.4318 H   0  0  0  0  0  0  0  0  0  0  0  0
   -0.0283    0.1609    1.5831 C   0  0  0  0  0  0  0  0  0  0  0  0
    1.1923    0.1056    1.7329 O   0  0  0  0  0  0  0  0  0  0  0  0
   -0.8586    0.4659    2.5853 N   0  0  0  0  0  0  0  0  0  0  0  0
   -1.8521    0.3848    2.4000 H   0  0  0  0  0  0  0  0  0  0  0  0
   -0.4403    0.7694    3.9518 C   0  0  0  0  0  0  0  0  0  0  0  0
    0.5066    1.3154    3.9421 H   0  0  0  0  0  0  0  0  0  0  0  0
   -1.1988    1.3789    4.4452 H   0  0  0  0  0  0  0  0  0  0  0  0
   -0.3053   -0.1600    4.5075 H   0  0  0  0  0  0  0  0  0  0  0  0
  5  6  2  0  0  0  0
  5  7  1  0  0  0  0
  2  3  1  0  0  0  0
  2  4  1  0  0  0  0
  2  5  1  0  0  0  0
  1  2  1  0  0  0  0
 22 23  2  0  0  0  0
 22 24  1  0  0  0  0
 20 21  1  0  0  0  0
 18 19  1  0  0  0  0
 18 20  1  0  0  0  0
 16 17  1  0  0  0  0
 16 18  1  0  0  0  0
 15 16  2  0  0  0  0
 14 15  1  0  0  0  0
 14 20  2  0  0  0  0
 11 12  1  0  0  0  0
 11 13  1  0  0  0  0
 11 14  1  0  0  0  0
  9 10  1  0  0  0  0
  9 11  1  0  0  0  0
  9 22  1  0  0  0  0
  7  8  1  0  0  0  0
  7  9  1  0  0  0  0
 26 27  1  0  0  0  0
 26 28  1  0  0  0  0
 26 29  1  0  0  0  0
 24 25  1  0  0  0  0
 24 26  1  0  0  0  0
M  END
$$$$
default_name
  -OEChem-02102213163D

 29 29  0     1  0  0  0  0  0999 V2000
   -2.9561   -3.9186    1.3887 H   0  0  0  0  0  0  0  0  0  0  0  0
   -3.1191   -2.9346    0.9517 C   0  0  0  0  0  0  0  0  0  0  0  0
   -3.7811   -2.3546    1.5917 H   0  0  0  0  0  0  0  0  0  0  0  0
   -3.5591   -3.0406   -0.0383 H   0  0  0  0  0  0  0  0  0  0  0  0
   -1.7921   -2.2226    0.8327 C   0  0  0  0  0  0  0  0  0  0  0  0
   -0.7611   -2.7766    1.1927 O   0  0  0  0  0  0  0  0  0  0  0  0
   -1.8201   -0.9926    0.3247 N   0  0  0  0  0  0  0  0  0  0  0  0
   -2.7141   -0.5816    0.0927 H   0  0  0  0  0  0  0  0  0  0  0  0
   -0.6481   -0.1156    0.2017 C   0  0  1  0  0  0  0  0  0  0  0  0
    0.1042   -0.6345   -0.3958 H   0  0  0  0  0  0  0  0  0  0  0  0
   -1.0420    1.1781   -0.5372 C   0  0  0  0  0  0  0  0  0  0  0  0
   -2.1288    1.2684   -0.5699 H   0  0  0  0  0  0  0  0  0  0  0  0
   -0.6569    2.0438    0.0034 H   0  0  0  0  0  0  0  0  0  0  0  0
   -0.5457    1.2142   -1.9622 C   0  0  0  0  0  0  0  0  0  0  0  0
    0.0683    2.3006   -2.5868 N   0  0  0  0  0  0  0  0  0  0  0  0
    0.3880    1.8847   -3.8209 C   0  0  0  0  0  0  0  0  0  0  0  0
    0.8713    2.5005   -4.5689 H   0  0  0  0  0  0  0  0  0  0  0  0
    0.0326    0.6000   -3.9901 N   0  0  0  0  0  0  0  0  0  0  0  0
    0.1855    0.0548   -4.8274 H   0  0  0  0  0  0  0  0  0  0  0  0
   -0.5551    0.1580   -2.8257 C   0  0  0  0  0  0  0  0  0  0  0  0
   -0.9350   -0.8331   -2.6117 H   0  0  0  0  0  0  0  0  0  0  0  0
   -0.0283    0.1609    1.5831 C   0  0  0  0  0  0  0  0  0  0  0  0
    1.1923    0.1056    1.7329 O   0  0  0  0  0  0  0  0  0  0  0  0
   -0.8586    0.4659    2.5853 N   0  0  0  0  0  0  0  0  0  0  0  0
   -1.8521    0.3848    2.4000 H   0  0  0  0  0  0  0  0  0  0  0  0
   -0.4403    0.7694    3.9518 C   0  0  0  0  0  0  0  0  0  0  0  0
    0.5066    1.3154    3.9421 H   0  0  0  0  0  0  0  0  0  0  0  0
   -1.1988    1.3789    4.4452 H   0  0  0  0  0  0  0  0  0  0  0  0
   -0.3053   -0.1600    4.5075 H   0  0  0  0  0  0  0  0  0  0  0  0
  5  6  2  0  0  0  0
  5  7  1  0  0  0  0
  2  3  1  0  0  0  0
  2  4  1  0  0  0  0
  2  5  1  0  0  0  0
  1  2  1  0  0  0  0
 22 23  2  0  0  0  0
 22 24  1  0  0  0  0
 20 21  1  0  0  0  0
 18 19  1  0  0  0  0
 18 20  1  0  0  0  0
 16 17  1  0  0  0  0
 16 18  1  0  0  0  0
 15 16  2  0  0  0  0
 14 15  1  0  0  0  0
 14 20  2  0  0  0  0
 11 12  1  0  0  0  0
 11 13  1  0  0  0  0
 11 14  1  0  0  0  0
  9 10  1  0  0  0  0
  9 11  1  0  0  0  0
  9 22  1  0  0  0  0
  7  8  1  0  0  0  0
  7  9  1  0  0  0  0
 26 27  1  0  0  0  0
 26 28  1  0  0  0  0
 26 29  1  0  0  0  0
 24 25  1  0  0  0  0
 24 26  1  0  0  0  0
M  END
$$$$
default_name
  -OEChem-02102213163D

 29 29  0     1  0  0  0  0  0999 V2000
   -2.9561   -3.9186    1.3887 H   0  0  0  0  0  0  0  0  0  0  0  0
   -3.1191   -2.9346    0.9517 C   0  0  0  0  0  0  0  0  0  0  0  0
   -3.7811   -2.3546    1.5917 H   0  0  0  0  0  0  0  0  0  0  0  0
   -3.5591   -3.0406   -0.0383 H   0  0  0  0  0  0  0  0  0  0  0  0
   -1.7921   -2.2226    0.8327 C   0  0  0  0  0  0  0  0  0  0  0  0
   -0.7611   -2.7766    1.1927 O   0  0  0  0  0  0  0  0  0  0  0  0
   -1.8201   -0.9926    0.3247 N   0  0  0  0  0  0  0  0  0  0  0  0
   -2.7141   -0.5816    0.0927 H   0  0  0  0  0  0  0  0  0  0  0  0
   -0.6481   -0.1156    0.2017 C   0  0  1  0  0  0  0  0  0  0  0  0
    0.1042   -0.6345   -0.3958 H   0  0  0  0  0  0  0  0  0  0  0  0
   -1.0420    1.1781   -0.5372 C   0  0  0  0  0  0  0  0  0  0  0  0
   -2.1288    1.2684   -0.5699 H   0  0  0  0  0  0  0  0  0  0  0  0
   -0.6569    2.0438    0.0034 H   0  0  0  0  0  0  0  0  0  0  0  0
   -0.5457    1.2142   -1.9622 C   0  0  0  0  0  0  0  0  0  0  0  0
    0.3181    2.1674   -2.5031 N   0  0  0  0  0  0  0  0  0  0  0  0
    0.5318    1.7936   -3.7732 C   0  0  0  0  0  0  0  0  0  0  0  0
    1.1544    2.3347   -4.4745 H   0  0  0  0  0  0  0  0  0  0  0  0
   -0.1263    0.6539   -4.0441 N   0  0  0  0  0  0  0  0  0  0  0  0
   -0.1077    0.1618   -4.9269 H   0  0  0  0  0  0  0  0  0  0  0  0
   -0.8094    0.2704   -2.9114 C   0  0  0  0  0  0  0  0  0  0  0  0
   -1.4212   -0.6126   -2.7754 H   0  0  0  0  0  0  0  0  0  0  0  0
   -0.0283    0.1609    1.5831 C   0  0  0  0  0  0  0  0  0  0  0  0
    1.1923    0.1056    1.7329 O   0  0  0  0  0  0  0  0  0  0  0  0
   -0.8586    0.4659    2.5853 N   0  0  0  0  0  0  0  0  0  0  0  0
   -1.8521    0.3848    2.4000 H   0  0  0  0  0  0  0  0  0  0  0  0
   -0.4403    0.7694    3.9518 C   0  0  0  0  0  0  0  0  0  0  0  0
    0.5066    1.3154    3.9421 H   0  0  0  0  0  0  0  0  0  0  0  0
   -1.1988    1.3789    4.4452 H   0  0  0  0  0  0  0  0  0  0  0  0
   -0.3053   -0.1600    4.5075 H   0  0  0  0  0  0  0  0  0  0  0  0
  5  6  2  0  0  0  0
  5  7  1  0  0  0  0
  2  3  1  0  0  0  0
  2  4  1  0  0  0  0
  2  5  1  0  0  0  0
  1  2  1  0  0  0  0
 22 23  2  0  0  0  0
 22 24  1  0  0  0  0
 20 21  1  0  0  0  0
 18 19  1  0  0  0  0
 18 20  1  0  0  0  0
 16 17  1  0  0  0  0
 16 18  1  0  0  0  0
 15 16  2  0  0  0  0
 14 15  1  0  0  0  0
 14 20  2  0  0  0  0
 11 12  1  0  0  0  0
 11 13  1  0  0  0  0
 11 14  1  0  0  0  0
  9 10  1  0  0  0  0
  9 11  1  0  0  0  0
  9 22  1  0  0  0  0
  7  8  1  0  0  0  0
  7  9  1  0  0  0  0
 26 27  1  0  0  0  0
 26 28  1  0  0  0  0
 26 29  1  0  0  0  0
 24 25  1  0  0  0  0
 24 26  1  0  0  0  0
M  END
$$$$
default_name
  -OEChem-02102213163D

 29 29  0     1  0  0  0  0  0999 V2000
   -2.9561   -3.9186    1.3887 H   0  0  0  0  0  0  0  0  0  0  0  0
   -3.1191   -2.9346    0.9517 C   0  0  0  0  0  0  0  0  0  0  0  0
   -3.7811   -2.3546    1.5917 H   0  0  0  0  0  0  0  0  0  0  0  0
   -3.5591   -3.0406   -0.0383 H   0  0  0  0  0  0  0  0  0  0  0  0
   -1.7921   -2.2226    0.8327 C   0  0  0  0  0  0  0  0  0  0  0  0
   -0.7611   -2.7766    1.1927 O   0  0  0  0  0  0  0  0  0  0  0  0
   -1.8201   -0.9926    0.3247 N   0  0  0  0  0  0  0  0  0  0  0  0
   -2.7141   -0.5816    0.0927 H   0  0  0  0  0  0  0  0  0  0  0  0
   -0.6481   -0.1156    0.2017 C   0  0  1  0  0  0  0  0  0  0  0  0
    0.1042   -0.6345   -0.3958 H   0  0  0  0  0  0  0  0  0  0  0  0
   -1.0420    1.1781   -0.5372 C   0  0  0  0  0  0  0  0  0  0  0  0
   -2.1288    1.2684   -0.5699 H   0  0  0  0  0  0  0  0  0  0  0  0
   -0.6569    2.0438    0.0034 H   0  0  0  0  0  0  0  0  0  0  0  0
   -0.5457    1.2142   -1.9622 C   0  0  0  0  0  0  0  0  0  0  0  0
    0.5274    1.9705   -2.4352 N   0  0  0  0  0  0  0  0  0  0  0  0
    0.6487    1.6664   -3.7357 C   0  0  0  0  0  0  0  0  0  0  0  0
    1.3878    2.0973   -4.3992 H   0  0  0  0  0  0  0  0  0  0  0  0
   -0.2670    0.7494   -4.0906 N   0  0  0  0  0  0  0  0  0  0  0  0
   -0.3654    0.3453   -5.0120 H   0  0  0  0  0  0  0  0  0  0  0  0
   -1.0281    0.4484   -2.9830 C   0  0  0  0  0  0  0  0  0  0  0  0
   -1.8378   -0.2668   -2.9117 H   0  0  0  0  0  0  0  0  0  0  0  0
   -0.0283    0.1609    1.5831 C   0  0  0  0  0  0  0  0  0  0  0  0
    1.1923    0.1056    1.7329 O   0  0  0  0  0  0  0  0  0  0  0  0
   -0.8586    0.4659    2.5853 N   0  0  0  0  0  0  0  0  0  0  0  0
   -1.8521    0.3848    2.4000 H   0  0  0  0  0  0  0  0  0  0  0  0
   -0.4403    0.7694    3.9518 C   0  0  0  0  0  0  0  0  0  0  0  0
    0.5066    1.3154    3.9421 H   0  0  0  0  0  0  0  0  0  0  0  0
   -1.1988    1.3789    4.4452 H   0  0  0  0  0  0  0  0  0  0  0  0
   -0.3053   -0.1600    4.5075 H   0  0  0  0  0  0  0  0  0  0  0  0
  5  6  2  0  0  0  0
  5  7  1  0  0  0  0
  2  3  1  0  0  0  0
  2  4  1  0  0  0  0
  2  5  1  0  0  0  0
  1  2  1  0  0  0  0
 22 23  2  0  0  0  0
 22 24  1  0  0  0  0
 20 21  1  0  0  0  0
 18 19  1  0  0  0  0
 18 20  1  0  0  0  0
 16 17  1  0  0  0  0
 16 18  1  0  0  0  0
 15 16  2  0  0  0  0
 14 15  1  0  0  0  0
 14 20  2  0  0  0  0
 11 12  1  0  0  0  0
 11 13  1  0  0  0  0
 11 14  1  0  0  0  0
  9 10  1  0  0  0  0
  9 11  1  0  0  0  0
  9 22  1  0  0  0  0
  7  8  1  0  0  0  0
  7  9  1  0  0  0  0
 26 27  1  0  0  0  0
 26 28  1  0  0  0  0
 26 29  1  0  0  0  0
 24 25  1  0  0  0  0
 24 26  1  0  0  0  0
M  END
$$$$
default_name
  -OEChem-02102213163D

 29 29  0     1  0  0  0  0  0999 V2000
   -2.9561   -3.9186    1.3887 H   0  0  0  0  0  0  0  0  0  0  0  0
   -3.1191   -2.9346    0.9517 C   0  0  0  0  0  0  0  0  0  0  0  0
   -3.7811   -2.3546    1.5917 H   0  0  0  0  0  0  0  0  0  0  0  0
   -3.5591   -3.0406   -0.0383 H   0  0  0  0  0  0  0  0  0  0  0  0
   -1.7921   -2.2226    0.8327 C   0  0  0  0  0  0  0  0  0  0  0  0
   -0.7611   -2.7766    1.1927 O   0  0  0  0  0  0  0  0  0  0  0  0
   -1.8201   -0.9926    0.3247 N   0  0  0  0  0  0  0  0  0  0  0  0
   -2.7141   -0.5816    0.0927 H   0  0  0  0  0  0  0  0  0  0  0  0
   -0.6481   -0.1156    0.2017 C   0  0  1  0  0  0  0  0  0  0  0  0
    0.1042   -0.6345   -0.3958 H   0  0  0  0  0  0  0  0  0  0  0  0
   -1.0420    1.1781   -0.5372 C   0  0  0  0  0  0  0  0  0  0  0  0
   -2.1288    1.2684   -0.5699 H   0  0  0  0  0  0  0  0  0  0  0  0
   -0.6569    2.0438    0.0034 H   0  0  0  0  0  0  0  0  0  0  0  0
   -0.5457    1.2142   -1.9622 C   0  0  0  0  0  0  0  0  0  0  0  0
    0.6819    1.7234   -2.3877 N   0  0  0  0  0  0  0  0  0  0  0  0
    0.7308    1.5117   -3.7110 C   0  0  0  0  0  0  0  0  0  0  0  0
    1.5558    1.8045   -4.3481 H   0  0  0  0  0  0  0  0  0  0  0  0
   -0.3798    0.8800   -4.1266 N   0  0  0  0  0  0  0  0  0  0  0  0
   -0.5700    0.5928   -5.0770 H   0  0  0  0  0  0  0  0  0  0  0  0
   -1.1962    0.6798   -3.0358 C   0  0  0  0  0  0  0  0  0  0  0  0
   -2.1567    0.1805   -3.0115 H   0  0  0  0  0  0  0  0  0  0  0  0
   -0.0283    0.1609    1.5831 C   0  0  0  0  0  0  0  0  0  0  0  0
    1.1923    0.1056    1.7329 O   0  0  0  0  0  0  0  0  0  0  0  0
   -0.8586    0.4659    2.5853 N   0  0  0  0  0  0  0  0  0  0  0  0
   -1.8521    0.3848    2.4000 H   0  0  0  0  0  0  0  0  0  0  0  0
   -0.4403    0.7694    3.9518 C   0  0  0  0  0  0  0  0  0  0  0  0
    0.5066    1.3154    3.9421 H   0  0  0  0  0  0  0  0  0  0  0  0
   -1.1988    1.3789    4.4452 H   0  0  0  0  0  0  0  0  0  0  0  0
   -0.3053   -0.1600    4.5075 H   0  0  0  0  0  0  0  0  0  0  0  0
  5  6  2  0  0  0  0
  5  7  1  0  0  0  0
  2  3  1  0  0  0  0
  2  4  1  0  0  0  0
  2  5  1  0  0  0  0
  1  2  1  0  0  0  0
 22 23  2  0  0  0  0
 22 24  1  0  0  0  0
 20 21  1  0  0  0  0
 18 19  1  0  0  0  0
 18 20  1  0  0  0  0
 16 17  1  0  0  0  0
 16 18  1  0  0  0  0
 15 16  2  0  0  0  0
 14 15  1  0  0  0  0
 14 20  2  0  0  0  0
 11 12  1  0  0  0  0
 11 13  1  0  0  0  0
 11 14  1  0  0  0  0
  9 10  1  0  0  0  0
  9 11  1  0  0  0  0
  9 22  1  0  0  0  0
  7  8  1  0  0  0  0
  7  9  1  0  0  0  0
 26 27  1  0  0  0  0
 26 28  1  0  0  0  0
 26 29  1  0  0  0  0
 24 25  1  0  0  0  0
 24 26  1  0  0  0  0
M  END
$$$$
default_name
  -OEChem-02102213163D

 29 29  0     1  0  0  0  0  0999 V2000
   -2.9561   -3.9186    1.3887 H   0  0  0  0  0  0  0  0  0  0  0  0
   -3.1191   -2.9346    0.9517 C   0  0  0  0  0  0  0  0  0  0  0  0
   -3.7811   -2.3546    1.5917 H   0  0  0  0  0  0  0  0  0  0  0  0
   -3.5591   -3.0406   -0.0383 H   0  0  0  0  0  0  0  0  0  0  0  0
   -1.7921   -2.2226    0.8327 C   0  0  0  0  0  0  0  0  0  0  0  0
   -0.7611   -2.7766    1.1927 O   0  0  0  0  0  0  0  0  0  0  0  0
   -1.8201   -0.9926    0.3247 N   0  0  0  0  0  0  0  0  0  0  0  0
   -2.7141   -0.5816    0.0927 H   0  0  0  0  0  0  0  0  0  0  0  0
   -0.6481   -0.1156    0.2017 C   0  0  1  0  0  0  0  0  0  0  0  0
    0.1042   -0.6345   -0.3958 H   0  0  0  0  0  0  0  0  0  0  0  0
   -1.0420    1.1781   -0.5372 C   0  0  0  0  0  0  0  0  0  0  0  0
   -2.1288    1.2684   -0.5699 H   0  0  0  0  0  0  0  0  0  0  0  0
   -0.6569    2.0438    0.0034 H   0  0  0  0  0  0  0  0  0  0  0  0
   -0.5457    1.2142   -1.9622 C   0  0  0  0  0  0  0  0  0  0  0  0
    0.7710    1.4430   -2.3637 N   0  0  0  0  0  0  0  0  0  0  0  0
    0.7725    1.3401   -3.7008 C   0  0  0  0  0  0  0  0  0  0  0  0
    1.6468    1.4763   -4.3247 H   0  0  0  0  0  0  0  0  0  0  0  0
   -0.4571    1.0367   -4.1496 N   0  0  0  0  0  0  0  0  0  0  0  0
   -0.7076    0.8874   -5.1174 H   0  0  0  0  0  0  0  0  0  0  0  0
   -1.3025    0.9490   -3.0659 C   0  0  0  0  0  0  0  0  0  0  0  0
   -2.3560    0.6990   -3.0678 H   0  0  0  0  0  0  0  0  0  0  0  0
   -0.0283    0.1609    1.5831 C   0  0  0  0  0  0  0  0  0  0  0  0
    1.1923    0.1056    1.7329 O   0  0  0  0  0  0  0  0  0  0  0  0
   -0.8586    0.4659    2.5853 N   0  0  0  0  0  0  0  0  0  0  0  0
   -1.8521    0.3848    2.4000 H   0  0  0  0  0  0  0  0  0  0  0  0
   -0.4403    0.7694    3.9518 C   0  0  0  0  0  0  0  0  0  0  0  0
    0.5066    1.3154    3.9421 H   0  0  0  0  0  0  0  0  0  0  0  0
   -1.1988    1.3789    4.4452 H   0  0  0  0  0  0  0  0  0  0  0  0
   -0.3053   -0.1600    4.5075 H   0  0  0  0  0  0  0  0  0  0  0  0
  5  6  2  0  0  0  0
  5  7  1  0  0  0  0
  2  3  1  0  0  0  0
  2  4  1  0  0  0  0
  2  5  1  0  0  0  0
  1  2  1  0  0  0  0
 22 23  2  0  0  0  0
 22 24  1  0  0  0  0
 20 21  1  0  0  0  0
 18 19  1  0  0  0  0
 18 20  1  0  0  0  0
 16 17  1  0  0  0  0
 16 18  1  0  0  0  0
 15 16  2  0  0  0  0
 14 15  1  0  0  0  0
 14 20  2  0  0  0  0
 11 12  1  0  0  0  0
 11 13  1  0  0  0  0
 11 14  1  0  0  0  0
  9 10  1  0  0  0  0
  9 11  1  0  0  0  0
  9 22  1  0  0  0  0
  7  8  1  0  0  0  0
  7  9  1  0  0  0  0
 26 27  1  0  0  0  0
 26 28  1  0  0  0  0
 26 29  1  0  0  0  0
 24 25  1  0  0  0  0
 24 26  1  0  0  0  0
M  END
$$$$
default_name
  -OEChem-02102213163D

 29 29  0     1  0  0  0  0  0999 V2000
   -2.9561   -3.9186    1.3887 H   0  0  0  0  0  0  0  0  0  0  0  0
   -3.1191   -2.9346    0.9517 C   0  0  0  0  0  0  0  0  0  0  0  0
   -3.7811   -2.3546    1.5917 H   0  0  0  0  0  0  0  0  0  0  0  0
   -3.5591   -3.0406   -0.0383 H   0  0  0  0  0  0  0  0  0  0  0  0
   -1.7921   -2.2226    0.8327 C   0  0  0  0  0  0  0  0  0  0  0  0
   -0.7611   -2.7766    1.1927 O   0  0  0  0  0  0  0  0  0  0  0  0
   -1.8201   -0.9926    0.3247 N   0  0  0  0  0  0  0  0  0  0  0  0
   -2.7141   -0.5816    0.0927 H   0  0  0  0  0  0  0  0  0  0  0  0
   -0.6481   -0.1156    0.2017 C   0  0  1  0  0  0  0  0  0  0  0  0
    0.1042   -0.6345   -0.3958 H   0  0  0  0  0  0  0  0  0  0  0  0
   -1.0420    1.1781   -0.5372 C   0  0  0  0  0  0  0  0  0  0  0  0
   -2.1288    1.2684   -0.5699 H   0  0  0  0  0  0  0  0  0  0  0  0
   -0.6569    2.0438    0.0034 H   0  0  0  0  0  0  0  0  0  0  0  0
   -0.5457    1.2142   -1.9622 C   0  0  0  0  0  0  0  0  0  0  0  0
    0.7887    1.1483   -2.3650 N   0  0  0  0  0  0  0  0  0  0  0  0
    0.7709    1.1634   -3.7058 C   0  0  0  0  0  0  0  0  0  0  0  0
    1.6547    1.1351   -4.3306 H   0  0  0  0  0  0  0  0  0  0  0  0
   -0.4936    1.2089   -4.1579 N   0  0  0  0  0  0  0  0  0  0  0  0
   -0.7688    1.2089   -5.1306 H   0  0  0  0  0  0  0  0  0  0  0  0
   -1.3395    1.2375   -3.0715 C   0  0  0  0  0  0  0  0  0  0  0  0
   -2.4221    1.2533   -3.0768 H   0  0  0  0  0  0  0  0  0  0  0  0
   -0.0283    0.1609    1.5831 C   0  0  0  0  0  0  0  0  0  0  0  0
    1.1923    0.1056    1.7329 O   0  0  0  0  0  0  0  0  0  0  0  0
   -0.8586    0.4659    2.5853 N   0  0  0  0  0  0  0  0  0  0  0  0
   -1.8521    0.3848    2.4000 H   0  0  0  0  0  0  0  0  0  0  0  0
   -0.4403    0.7694    3.9518 C   0  0  0  0  0  0  0  0  0  0  0  0
    0.5066    1.3154    3.9421 H   0  0  0  0  0  0  0  0  0  0  0  0
   -1.1988    1.3789    4.4452 H   0  0  0  0  0  0  0  0  0  0  0  0
   -0.3053   -0.1600    4.5075 H   0  0  0  0  0  0  0  0  0  0  0  0
  5  6  2  0  0  0  0
  5  7  1  0  0  0  0
  2  3  1  0  0  0  0
  2  4  1  0  0  0  0
  2  5  1  0  0  0  0
  1  2  1  0  0  0  0
 22 23  2  0  0  0  0
 22 24  1  0  0  0  0
 20 21  1  0  0  0  0
 18 19  1  0  0  0  0
 18 20  1  0  0  0  0
 16 17  1  0  0  0  0
 16 18  1  0  0  0  0
 15 16  2  0  0  0  0
 14 15  1  0  0  0  0
 14 20  2  0  0  0  0
 11 12  1  0  0  0  0
 11 13  1  0  0  0  0
 11 14  1  0  0  0  0
  9 10  1  0  0  0  0
  9 11  1  0  0  0  0
  9 22  1  0  0  0  0
  7  8  1  0  0  0  0
  7  9  1  0  0  0  0
 26 27  1  0  0  0  0
 26 28  1  0  0  0  0
 26 29  1  0  0  0  0
 24 25  1  0  0  0  0
 24 26  1  0  0  0  0
M  END
$$$$
default_name
  -OEChem-02102213163D

 29 29  0     1  0  0  0  0  0999 V2000
   -2.9561   -3.9186    1.3887 H   0  0  0  0  0  0  0  0  0  0  0  0
   -3.1191   -2.9346    0.9517 C   0  0  0  0  0  0  0  0  0  0  0  0
   -3.7811   -2.3546    1.5917 H   0  0  0  0  0  0  0  0  0  0  0  0
   -3.5591   -3.0406   -0.0383 H   0  0  0  0  0  0  0  0  0  0  0  0
   -1.7921   -2.2226    0.8327 C   0  0  0  0  0  0  0  0  0  0  0  0
   -0.7611   -2.7766    1.1927 O   0  0  0  0  0  0  0  0  0  0  0  0
   -1.8201   -0.9926    0.3247 N   0  0  0  0  0  0  0  0  0  0  0  0
   -2.7141   -0.5816    0.0927 H   0  0  0  0  0  0  0  0  0  0  0  0
   -0.6481   -0.1156    0.2017 C   0  0  1  0  0  0  0  0  0  0  0  0
    0.1042   -0.6345   -0.3958 H   0  0  0  0  0  0  0  0  0  0  0  0
   -1.0420    1.1781   -0.5372 C   0  0  0  0  0  0  0  0  0  0  0  0
   -2.1288    1.2684   -0.5699 H   0  0  0  0  0  0  0  0  0  0  0  0
   -0.6569    2.0438    0.0034 H   0  0  0  0  0  0  0  0  0  0  0  0
   -0.5457    1.2142   -1.9622 C   0  0  0  0  0  0  0  0  0  0  0  0
    0.7338    0.8594   -2.3915 N   0  0  0  0  0  0  0  0  0  0  0  0
    0.7261    0.9935   -3.7257 C   0  0  0  0  0  0  0  0  0  0  0  0
    1.5789    0.8041   -4.3654 H   0  0  0  0  0  0  0  0  0  0  0  0
   -0.4868    1.3849   -4.1511 N   0  0  0  0  0  0  0  0  0  0  0  0
   -0.7494    1.5356   -5.1156 H   0  0  0  0  0  0  0  0  0  0  0  0
   -1.3048    1.5257   -3.0522 C   0  0  0  0  0  0  0  0  0  0  0  0
   -2.3506    1.8057   -3.0379 H   0  0  0  0  0  0  0  0  0  0  0  0
   -0.0283    0.1609    1.5831 C   0  0  0  0  0  0  0  0  0  0  0  0
    1.1923    0.1056    1.7329 O   0  0  0  0  0  0  0  0  0  0  0  0
   -0.8586    0.4659    2.5853 N   0  0  0  0  0  0  0  0  0  0  0  0
   -1.8521    0.3848    2.4000 H   0  0  0  0  0  0  0  0  0  0  0  0
   -0.4403    0.7694    3.9518 C   0  0  0  0  0  0  0  0  0  0  0  0
    0.5066    1.3154    3.9421 H   0  0  0  0  0  0  0  0  0  0  0  0
   -1.1988    1.3789    4.4452 H   0  0  0  0  0  0  0  0  0  0  0  0
   -0.3053   -0.1600    4.5075 H   0  0  0  0  0  0  0  0  0  0  0  0
  5  6  2  0  0  0  0
  5  7  1  0  0  0  0
  2  3  1  0  0  0  0
  2  4  1  0  0  0  0
  2  5  1  0  0  0  0
  1  2  1  0  0  0  0
 22 23  2  0  0  0  0
 22 24  1  0  0  0  0
 20 21  1  0  0  0  0
 18 19  1  0  0  0  0
 18 20  1  0  0  0  0
 16 17  1  0  0  0  0
 16 18  1  0  0  0  0
 15 16  2  0  0  0  0
 14 15  1  0  0  0  0
 14 20  2  0  0  0  0
 11 12  1  0  0  0  0
 11 13  1  0  0  0  0
 11 14  1  0  0  0  0
  9 10  1  0  0  0  0
  9 11  1  0  0  0  0
  9 22  1  0  0  0  0
  7  8  1  0  0  0  0
  7  9  1  0  0  0  0
 26 27  1  0  0  0  0
 26 28  1  0  0  0  0
 26 29  1  0  0  0  0
 24 25  1  0  0  0  0
 24 26  1  0  0  0  0
M  END
$$$$
default_name
  -OEChem-02102213163D

 29 29  0     1  0  0  0  0  0999 V2000
   -2.9561   -3.9186    1.3887 H   0  0  0  0  0  0  0  0  0  0  0  0
   -3.1191   -2.9346    0.9517 C   0  0  0  0  0  0  0  0  0  0  0  0
   -3.7811   -2.3546    1.5917 H   0  0  0  0  0  0  0  0  0  0  0  0
   -3.5591   -3.0406   -0.0383 H   0  0  0  0  0  0  0  0  0  0  0  0
   -1.7921   -2.2226    0.8327 C   0  0  0  0  0  0  0  0  0  0  0  0
   -0.7611   -2.7766    1.1927 O   0  0  0  0  0  0  0  0  0  0  0  0
   -1.8201   -0.9926    0.3247 N   0  0  0  0  0  0  0  0  0  0  0  0
   -2.7141   -0.5816    0.0927 H   0  0  0  0  0  0  0  0  0  0  0  0
   -0.6481   -0.1156    0.2017 C   0  0  1  0  0  0  0  0  0  0  0  0
    0.1042   -0.6345   -0.3958 H   0  0  0  0  0  0  0  0  0  0  0  0
   -1.0420    1.1781   -0.5372 C   0  0  0  0  0  0  0  0  0  0  0  0
   -2.1288    1.2684   -0.5699 H   0  0  0  0  0  0  0  0  0  0  0  0
   -0.6569    2.0438    0.0034 H   0  0  0  0  0  0  0  0  0  0  0  0
   -0.5457    1.2142   -1.9622 C   0  0  0  0  0  0  0  0  0  0  0  0
    0.6100    0.5960   -2.4412 N   0  0  0  0  0  0  0  0  0  0  0  0
    0.6412    0.8420   -3.7591 C   0  0  0  0  0  0  0  0  0  0  0  0
    1.4246    0.5058   -4.4267 H   0  0  0  0  0  0  0  0  0  0  0  0
   -0.4372    1.5527   -4.1296 N   0  0  0  0  0  0  0  0  0  0  0  0
   -0.6507    1.8451   -5.0734 H   0  0  0  0  0  0  0  0  0  0  0  0
   -1.2007    1.7940   -3.0091 C   0  0  0  0  0  0  0  0  0  0  0  0
   -2.1463    2.3185   -2.9538 H   0  0  0  0  0  0  0  0  0  0  0  0
   -0.0283    0.1609    1.5831 C   0  0  0  0  0  0  0  0  0  0  0  0
    1.1923    0.1056    1.7329 O   0  0  0  0  0  0  0  0  0  0  0  0
   -0.8586    0.4659    2.5853 N   0  0  0  0  0  0  0  0  0  0  0  0
   -1.8521    0.3848    2.4000 H   0  0  0  0  0  0  0  0  0  0  0  0
   -0.4403    0.7694    3.9518 C   0  0  0  0  0  0  0  0  0  0  0  0
    0.5066    1.3154    3.9421 H   0  0  0  0  0  0  0  0  0  0  0  0
   -1.1988    1.3789    4.4452 H   0  0  0  0  0  0  0  0  0  0  0  0
   -0.3053   -0.1600    4.5075 H   0  0  0  0  0  0  0  0  0  0  0  0
  5  6  2  0  0  0  0
  5  7  1  0  0  0  0
  2  3  1  0  0  0  0
  2  4  1  0  0  0  0
  2  5  1  0  0  0  0
  1  2  1  0  0  0  0
 22 23  2  0  0  0  0
 22 24  1  0  0  0  0
 20 21  1  0  0  0  0
 18 19  1  0  0  0  0
 18 20  1  0  0  0  0
 16 17  1  0  0  0  0
 16 18  1  0  0  0  0
 15 16  2  0  0  0  0
 14 15  1  0  0  0  0
 14 20  2  0  0  0  0
 11 12  1  0  0  0  0
 11 13  1  0  0  0  0
 11 14  1  0  0  0  0
  9 10  1  0  0  0  0
  9 11  1  0  0  0  0
  9 22  1  0  0  0  0
  7  8  1  0  0  0  0
  7  9  1  0  0  0  0
 26 27  1  0  0  0  0
 26 28  1  0  0  0  0
 26 29  1  0  0  0  0
 24 25  1  0  0  0  0
 24 26  1  0  0  0  0
M  END
$$$$
default_name
  -OEChem-02102213163D

 29 29  0     1  0  0  0  0  0999 V2000
   -2.9561   -3.9186    1.3887 H   0  0  0  0  0  0  0  0  0  0  0  0
   -3.1191   -2.9346    0.9517 C   0  0  0  0  0  0  0  0  0  0  0  0
   -3.7811   -2.3546    1.5917 H   0  0  0  0  0  0  0  0  0  0  0  0
   -3.5591   -3.0406   -0.0383 H   0  0  0  0  0  0  0  0  0  0  0  0
   -1.7921   -2.2226    0.8327 C   0  0  0  0  0  0  0  0  0  0  0  0
   -0.7611   -2.7766    1.1927 O   0  0  0  0  0  0  0  0  0  0  0  0
   -1.8201   -0.9926    0.3247 N   0  0  0  0  0  0  0  0  0  0  0  0
   -2.7141   -0.5816    0.0927 H   0  0  0  0  0  0  0  0  0  0  0  0
   -0.6481   -0.1156    0.2017 C   0  0  1  0  0  0  0  0  0  0  0  0
    0.1042   -0.6345   -0.3958 H   0  0  0  0  0  0  0  0  0  0  0  0
   -1.0420    1.1781   -0.5372 C   0  0  0  0  0  0  0  0  0  0  0  0
   -2.1288    1.2684   -0.5699 H   0  0  0  0  0  0  0  0  0  0  0  0
   -0.6569    2.0438    0.0034 H   0  0  0  0  0  0  0  0  0  0  0  0
   -0.5457    1.2142   -1.9622 C   0  0  0  0  0  0  0  0  0  0  0  0
    0.4258    0.3761   -2.5110 N   0  0  0  0  0  0  0  0  0  0  0  0
    0.5220    0.7193   -3.8038 C   0  0  0  0  0  0  0  0  0  0  0  0
    1.2022    0.2606   -4.5103 H   0  0  0  0  0  0  0  0  0  0  0  0
   -0.3482    1.7008   -4.0948 N   0  0  0  0  0  0  0  0  0  0  0  0
   -0.4795    2.1164   -5.0069 H   0  0  0  0  0  0  0  0  0  0  0  0
   -1.0344    2.0240   -2.9454 C   0  0  0  0  0  0  0  0  0  0  0  0
   -1.8232    2.7567   -2.8301 H   0  0  0  0  0  0  0  0  0  0  0  0
   -0.0283    0.1609    1.5831 C   0  0  0  0  0  0  0  0  0  0  0  0
    1.1923    0.1056    1.7329 O   0  0  0  0  0  0  0  0  0  0  0  0
   -0.8586    0.4659    2.5853 N   0  0  0  0  0  0  0  0  0  0  0  0
   -1.8521    0.3848    2.4000 H   0  0  0  0  0  0  0  0  0  0  0  0
   -0.4403    0.7694    3.9518 C   0  0  0  0  0  0  0  0  0  0  0  0
    0.5066    1.3154    3.9421 H   0  0  0  0  0  0  0  0  0  0  0  0
   -1.1988    1.3789    4.4452 H   0  0  0  0  0  0  0  0  0  0  0  0
   -0.3053   -0.1600    4.5075 H   0  0  0  0  0  0  0  0  0  0  0  0
  5  6  2  0  0  0  0
  5  7  1  0  0  0  0
  2  3  1  0  0  0  0
  2  4  1  0  0  0  0
  2  5  1  0  0  0  0
  1  2  1  0  0  0  0
 22 23  2  0  0  0  0
 22 24  1  0  0  0  0
 20 21  1  0  0  0  0
 18 19  1  0  0  0  0
 18 20  1  0  0  0  0
 16 17  1  0  0  0  0
 16 18  1  0  0  0  0
 15 16  2  0  0  0  0
 14 15  1  0  0  0  0
 14 20  2  0  0  0  0
 11 12  1  0  0  0  0
 11 13  1  0  0  0  0
 11 14  1  0  0  0  0
  9 10  1  0  0  0  0
  9 11  1  0  0  0  0
  9 22  1  0  0  0  0
  7  8  1  0  0  0  0
  7  9  1  0  0  0  0
 26 27  1  0  0  0  0
 26 28  1  0  0  0  0
 26 29  1  0  0  0  0
 24 25  1  0  0  0  0
 24 26  1  0  0  0  0
M  END
$$$$
default_name
  -OEChem-02102213163D

 29 29  0     1  0  0  0  0  0999 V2000
   -2.9561   -3.9186    1.3887 H   0  0  0  0  0  0  0  0  0  0  0  0
   -3.1191   -2.9346    0.9517 C   0  0  0  0  0  0  0  0  0  0  0  0
   -3.7811   -2.3546    1.5917 H   0  0  0  0  0  0  0  0  0  0  0  0
   -3.5591   -3.0406   -0.0383 H   0  0  0  0  0  0  0  0  0  0  0  0
   -1.7921   -2.2226    0.8327 C   0  0  0  0  0  0  0  0  0  0  0  0
   -0.7611   -2.7766    1.1927 O   0  0  0  0  0  0  0  0  0  0  0  0
   -1.8201   -0.9926    0.3247 N   0  0  0  0  0  0  0  0  0  0  0  0
   -2.7141   -0.5816    0.0927 H   0  0  0  0  0  0  0  0  0  0  0  0
   -0.6481   -0.1156    0.2017 C   0  0  1  0  0  0  0  0  0  0  0  0
    0.1042   -0.6345   -0.3958 H   0  0  0  0  0  0  0  0  0  0  0  0
   -1.0420    1.1781   -0.5372 C   0  0  0  0  0  0  0  0  0  0  0  0
   -2.1288    1.2684   -0.5699 H   0  0  0  0  0  0  0  0  0  0  0  0
   -0.6569    2.0438    0.0034 H   0  0  0  0  0  0  0  0  0  0  0  0
   -0.5457    1.2142   -1.9622 C   0  0  0  0  0  0  0  0  0  0  0  0
    0.1937    0.2146   -2.5959 N   0  0  0  0  0  0  0  0  0  0  0  0
    0.3766    0.6336   -3.8566 C   0  0  0  0  0  0  0  0  0  0  0  0
    0.9271    0.0853   -4.6106 H   0  0  0  0  0  0  0  0  0  0  0  0
   -0.2258    1.8191   -4.0492 N   0  0  0  0  0  0  0  0  0  0  0  0
   -0.2474    2.3310   -4.9206 H   0  0  0  0  0  0  0  0  0  0  0  0
   -0.8171    2.2001   -2.8653 C   0  0  0  0  0  0  0  0  0  0  0  0
   -1.4033    3.0905   -2.6754 H   0  0  0  0  0  0  0  0  0  0  0  0
   -0.0283    0.1609    1.5831 C   0  0  0  0  0  0  0  0  0  0  0  0
    1.1923    0.1056    1.7329 O   0  0  0  0  0  0  0  0  0  0  0  0
   -0.8586    0.4659    2.5853 N   0  0  0  0  0  0  0  0  0  0  0  0
   -1.8521    0.3848    2.4000 H   0  0  0  0  0  0  0  0  0  0  0  0
   -0.4403    0.7694    3.9518 C   0  0  0  0  0  0  0  0  0  0  0  0
    0.5066    1.3154    3.9421 H   0  0  0  0  0  0  0  0  0  0  0  0
   -1.1988    1.3789    4.4452 H   0  0  0  0  0  0  0  0  0  0  0  0
   -0.3053   -0.1600    4.5075 H   0  0  0  0  0  0  0  0  0  0  0  0
  5  6  2  0  0  0  0
  5  7  1  0  0  0  0
  2  3  1  0  0  0  0
  2  4  1  0  0  0  0
  2  5  1  0  0  0  0
  1  2  1  0  0  0  0
 22 23  2  0  0  0  0
 22 24  1  0  0  0  0
 20 21  1  0  0  0  0
 18 19  1  0  0  0  0
 18 20  1  0  0  0  0
 16 17  1  0  0  0  0
 16 18  1  0  0  0  0
 15 16  2  0  0  0  0
 14 15  1  0  0  0  0
 14 20  2  0  0  0  0
 11 12  1  0  0  0  0
 11 13  1  0  0  0  0
 11 14  1  0  0  0  0
  9 10  1  0  0  0  0
  9 11  1  0  0  0  0
  9 22  1  0  0  0  0
  7  8  1  0  0  0  0
  7  9  1  0  0  0  0
 26 27  1  0  0  0  0
 26 28  1  0  0  0  0
 26 29  1  0  0  0  0
 24 25  1  0  0  0  0
 24 26  1  0  0  0  0
M  END
$$$$
default_name
  -OEChem-02102213163D

 29 29  0     1  0  0  0  0  0999 V2000
   -2.9561   -3.9186    1.3887 H   0  0  0  0  0  0  0  0  0  0  0  0
   -3.1191   -2.9346    0.9517 C   0  0  0  0  0  0  0  0  0  0  0  0
   -3.7811   -2.3546    1.5917 H   0  0  0  0  0  0  0  0  0  0  0  0
   -3.5591   -3.0406   -0.0383 H   0  0  0  0  0  0  0  0  0  0  0  0
   -1.7921   -2.2226    0.8327 C   0  0  0  0  0  0  0  0  0  0  0  0
   -0.7611   -2.7766    1.1927 O   0  0  0  0  0  0  0  0  0  0  0  0
   -1.8201   -0.9926    0.3247 N   0  0  0  0  0  0  0  0  0  0  0  0
   -2.7141   -0.5816    0.0927 H   0  0  0  0  0  0  0  0  0  0  0  0
   -0.6481   -0.1156    0.2017 C   0  0  1  0  0  0  0  0  0  0  0  0
    0.1042   -0.6345   -0.3958 H   0  0  0  0  0  0  0  0  0  0  0  0
   -1.0420    1.1781   -0.5372 C   0  0  0  0  0  0  0  0  0  0  0  0
   -2.1288    1.2684   -0.5699 H   0  0  0  0  0  0  0  0  0  0  0  0
   -0.6569    2.0438    0.0034 H   0  0  0  0  0  0  0  0  0  0  0  0
   -0.5457    1.2142   -1.9622 C   0  0  0  0  0  0  0  0  0  0  0  0
   -0.0705    0.1226   -2.6902 N   0  0  0  0  0  0  0  0  0  0  0  0
    0.2148    0.5910   -3.9140 C   0  0  0  0  0  0  0  0  0  0  0  0
    0.6178   -0.0084   -4.7207 H   0  0  0  0  0  0  0  0  0  0  0  0
   -0.0784    1.8996   -3.9958 N   0  0  0  0  0  0  0  0  0  0  0  0
    0.0297    2.4742   -4.8205 H   0  0  0  0  0  0  0  0  0  0  0  0
   -0.5637    2.3103   -2.7742 C   0  0  0  0  0  0  0  0  0  0  0  0
   -0.9151    3.2971   -2.5002 H   0  0  0  0  0  0  0  0  0  0  0  0
   -0.0283    0.1609    1.5831 C   0  0  0  0  0  0  0  0  0  0  0  0
    1.1923    0.1056    1.7329 O   0  0  0  0  0  0  0  0  0  0  0  0
   -0.8586    0.4659    2.5853 N   0  0  0  0  0  0  0  0  0  0  0  0
   -1.8521    0.3848    2.4000 H   0  0  0  0  0  0  0  0  0  0  0  0
   -0.4403    0.7694    3.9518 C   0  0  0  0  0  0  0  0  0  0  0  0
    0.5066    1.3154    3.9421 H   0  0  0  0  0  0  0  0  0  0  0  0
   -1.1988    1.3789    4.4452 H   0  0  0  0  0  0  0  0  0  0  0  0
   -0.3053   -0.1600    4.5075 H   0  0  0  0  0  0  0  0  0  0  0  0
  5  6  2  0  0  0  0
  5  7  1  0  0  0  0
  2  3  1  0  0  0  0
  2  4  1  0  0  0  0
  2  5  1  0  0  0  0
  1  2  1  0  0  0  0
 22 23  2  0  0  0  0
 22 24  1  0  0  0  0
 20 21  1  0  0  0  0
 18 19  1  0  0  0  0
 18 20  1  0  0  0  0
 16 17  1  0  0  0  0
 16 18  1  0  0  0  0
 15 16  2  0  0  0  0
 14 15  1  0  0  0  0
 14 20  2  0  0  0  0
 11 12  1  0  0  0  0
 11 13  1  0  0  0  0
 11 14  1  0  0  0  0
  9 10  1  0  0  0  0
  9 11  1  0  0  0  0
  9 22  1  0  0  0  0
  7  8  1  0  0  0  0
  7  9  1  0  0  0  0
 26 27  1  0  0  0  0
 26 28  1  0  0  0  0
 26 29  1  0  0  0  0
 24 25  1  0  0  0  0
 24 26  1  0  0  0  0
M  END
$$$$
default_name
  -OEChem-02102213163D

 29 29  0     1  0  0  0  0  0999 V2000
   -2.9561   -3.9186    1.3887 H   0  0  0  0  0  0  0  0  0  0  0  0
   -3.1191   -2.9346    0.9517 C   0  0  0  0  0  0  0  0  0  0  0  0
   -3.7811   -2.3546    1.5917 H   0  0  0  0  0  0  0  0  0  0  0  0
   -3.5591   -3.0406   -0.0383 H   0  0  0  0  0  0  0  0  0  0  0  0
   -1.7921   -2.2226    0.8327 C   0  0  0  0  0  0  0  0  0  0  0  0
   -0.7611   -2.7766    1.1927 O   0  0  0  0  0  0  0  0  0  0  0  0
   -1.8201   -0.9926    0.3247 N   0  0  0  0  0  0  0  0  0  0  0  0
   -2.7141   -0.5816    0.0927 H   0  0  0  0  0  0  0  0  0  0  0  0
   -0.6481   -0.1156    0.2017 C   0  0  1  0  0  0  0  0  0  0  0  0
    0.1042   -0.6345   -0.3958 H   0  0  0  0  0  0  0  0  0  0  0  0
   -1.0420    1.1781   -0.5372 C   0  0  0  0  0  0  0  0  0  0  0  0
   -2.1288    1.2684   -0.5699 H   0  0  0  0  0  0  0  0  0  0  0  0
   -0.6569    2.0438    0.0034 H   0  0  0  0  0  0  0  0  0  0  0  0
   -0.5457    1.2142   -1.9622 C   0  0  0  0  0  0  0  0  0  0  0  0
   -0.3488    0.1063   -2.7876 N   0  0  0  0  0  0  0  0  0  0  0  0
    0.0479    0.5941   -3.9720 C   0  0  0  0  0  0  0  0  0  0  0  0
    0.2955   -0.0139   -4.8330 H   0  0  0  0  0  0  0  0  0  0  0  0
    0.0840    1.9368   -3.9383 N   0  0  0  0  0  0  0  0  0  0  0  0
    0.3330    2.5362   -4.7133 H   0  0  0  0  0  0  0  0  0  0  0  0
   -0.2915    2.3471   -2.6785 C   0  0  0  0  0  0  0  0  0  0  0  0
   -0.3920    3.3626   -2.3164 H   0  0  0  0  0  0  0  0  0  0  0  0
   -0.0283    0.1609    1.5831 C   0  0  0  0  0  0  0  0  0  0  0  0
    1.1923    0.1056    1.7329 O   0  0  0  0  0  0  0  0  0  0  0  0
   -0.8586    0.4659    2.5853 N   0  0  0  0  0  0  0  0  0  0  0  0
   -1.8521    0.3848    2.4000 H   0  0  0  0  0  0  0  0  0  0  0  0
   -0.4403    0.7694    3.9518 C   0  0  0  0  0  0  0  0  0  0  0  0
    0.5066    1.3154    3.9421 H   0  0  0  0  0  0  0  0  0  0  0  0
   -1.1988    1.3789    4.4452 H   0  0  0  0  0  0  0  0  0  0  0  0
   -0.3053   -0.1600    4.5075 H   0  0  0  0  0  0  0  0  0  0  0  0
  5  6  2  0  0  0  0
  5  7  1  0  0  0  0
  2  3  1  0  0  0  0
  2  4  1  0  0  0  0
  2  5  1  0  0  0  0
  1  2  1  0  0  0  0
 22 23  2  0  0  0  0
 22 24  1  0  0  0  0
 20 21  1  0  0  0  0
 18 19  1  0  0  0  0
 18 20  1  0  0  0  0
 16 17  1  0  0  0  0
 16 18  1  0  0  0  0
 15 16  2  0  0  0  0
 14 15  1  0  0  0  0
 14 20  2  0  0  0  0
 11 12  1  0  0  0  0
 11 13  1  0  0  0  0
 11 14  1  0  0  0  0
  9 10  1  0  0  0  0
  9 11  1  0  0  0  0
  9 22  1  0  0  0  0
  7  8  1  0  0  0  0
  7  9  1  0  0  0  0
 26 27  1  0  0  0  0
 26 28  1  0  0  0  0
 26 29  1  0  0  0  0
 24 25  1  0  0  0  0
 24 26  1  0  0  0  0
M  END
$$$$
default_name
  -OEChem-02102213163D

 29 29  0     1  0  0  0  0  0999 V2000
   -2.9561   -3.9186    1.3887 H   0  0  0  0  0  0  0  0  0  0  0  0
   -3.1191   -2.9346    0.9517 C   0  0  0  0  0  0  0  0  0  0  0  0
   -3.7811   -2.3546    1.5917 H   0  0  0  0  0  0  0  0  0  0  0  0
   -3.5591   -3.0406   -0.0383 H   0  0  0  0  0  0  0  0  0  0  0  0
   -1.7921   -2.2226    0.8327 C   0  0  0  0  0  0  0  0  0  0  0  0
   -0.7611   -2.7766    1.1927 O   0  0  0  0  0  0  0  0  0  0  0  0
   -1.8201   -0.9926    0.3247 N   0  0  0  0  0  0  0  0  0  0  0  0
   -2.7141   -0.5816    0.0927 H   0  0  0  0  0  0  0  0  0  0  0  0
   -0.6481   -0.1156    0.2017 C   0  0  1  0  0  0  0  0  0  0  0  0
    0.1042   -0.6345   -0.3958 H   0  0  0  0  0  0  0  0  0  0  0  0
   -1.0420    1.1781   -0.5372 C   0  0  0  0  0  0  0  0  0  0  0  0
   -2.1288    1.2684   -0.5699 H   0  0  0  0  0  0  0  0  0  0  0  0
   -0.6569    2.0438    0.0034 H   0  0  0  0  0  0  0  0  0  0  0  0
   -0.5457    1.2142   -1.9622 C   0  0  0  0  0  0  0  0  0  0  0  0
   -0.6222    0.1668   -2.8812 N   0  0  0  0  0  0  0  0  0  0  0  0
   -0.1130    0.6429   -4.0268 C   0  0  0  0  0  0  0  0  0  0  0  0
   -0.0179    0.0691   -4.9401 H   0  0  0  0  0  0  0  0  0  0  0  0
    0.2503    1.9282   -3.8806 N   0  0  0  0  0  0  0  0  0  0  0  0
    0.6418    2.5130   -4.6063 H   0  0  0  0  0  0  0  0  0  0  0  0
   -0.0189    2.3080   -2.5845 C   0  0  0  0  0  0  0  0  0  0  0  0
    0.1305    3.2823   -2.1364 H   0  0  0  0  0  0  0  0  0  0  0  0
   -0.0283    0.1609    1.5831 C   0  0  0  0  0  0  0  0  0  0  0  0
    1.1923    0.1056    1.7329 O   0  0  0  0  0  0  0  0  0  0  0  0
   -0.8586    0.4659    2.5853 N   0  0  0  0  0  0  0  0  0  0  0  0
   -1.8521    0.3848    2.4000 H   0  0  0  0  0  0  0  0  0  0  0  0
   -0.4403    0.7694    3.9518 C   0  0  0  0  0  0  0  0  0  0  0  0
    0.5066    1.3154    3.9421 H   0  0  0  0  0  0  0  0  0  0  0  0
   -1.1988    1.3789    4.4452 H   0  0  0  0  0  0  0  0  0  0  0  0
   -0.3053   -0.1600    4.5075 H   0  0  0  0  0  0  0  0  0  0  0  0
  5  6  2  0  0  0  0
  5  7  1  0  0  0  0
  2  3  1  0  0  0  0
  2  4  1  0  0  0  0
  2  5  1  0  0  0  0
  1  2  1  0  0  0  0
 22 23  2  0  0  0  0
 22 24  1  0  0  0  0
 20 21  1  0  0  0  0
 18 19  1  0  0  0  0
 18 20  1  0  0  0  0
 16 17  1  0  0  0  0
 16 18  1  0  0  0  0
 15 16  2  0  0  0  0
 14 15  1  0  0  0  0
 14 20  2  0  0  0  0
 11 12  1  0  0  0  0
 11 13  1  0  0  0  0
 11 14  1  0  0  0  0
  9 10  1  0  0  0  0
  9 11  1  0  0  0  0
  9 22  1  0  0  0  0
  7  8  1  0  0  0  0
  7  9  1  0  0  0  0
 26 27  1  0  0  0  0
 26 28  1  0  0  0  0
 26 29  1  0  0  0  0
 24 25  1  0  0  0  0
 24 26  1  0  0  0  0
M  END
$$$$
default_name
  -OEChem-02102213163D

 29 29  0     1  0  0  0  0  0999 V2000
   -2.9561   -3.9186    1.3887 H   0  0  0  0  0  0  0  0  0  0  0  0
   -3.1191   -2.9346    0.9517 C   0  0  0  0  0  0  0  0  0  0  0  0
   -3.7811   -2.3546    1.5917 H   0  0  0  0  0  0  0  0  0  0  0  0
   -3.5591   -3.0406   -0.0383 H   0  0  0  0  0  0  0  0  0  0  0  0
   -1.7921   -2.2226    0.8327 C   0  0  0  0  0  0  0  0  0  0  0  0
   -0.7611   -2.7766    1.1927 O   0  0  0  0  0  0  0  0  0  0  0  0
   -1.8201   -0.9926    0.3247 N   0  0  0  0  0  0  0  0  0  0  0  0
   -2.7141   -0.5816    0.0927 H   0  0  0  0  0  0  0  0  0  0  0  0
   -0.6481   -0.1156    0.2017 C   0  0  1  0  0  0  0  0  0  0  0  0
    0.1042   -0.6345   -0.3958 H   0  0  0  0  0  0  0  0  0  0  0  0
   -1.0420    1.1781   -0.5372 C   0  0  0  0  0  0  0  0  0  0  0  0
   -2.1288    1.2684   -0.5699 H   0  0  0  0  0  0  0  0  0  0  0  0
   -0.6569    2.0438    0.0034 H   0  0  0  0  0  0  0  0  0  0  0  0
   -0.5457    1.2142   -1.9622 C   0  0  0  0  0  0  0  0  0  0  0  0
   -0.8720    0.3001   -2.9649 N   0  0  0  0  0  0  0  0  0  0  0  0
   -0.2568    0.7341   -4.0746 C   0  0  0  0  0  0  0  0  0  0  0  0
   -0.3009    0.2350   -5.0344 H   0  0  0  0  0  0  0  0  0  0  0  0
    0.4092    1.8743   -3.8266 N   0  0  0  0  0  0  0  0  0  0  0  0
    0.9350    2.4059   -4.5069 H   0  0  0  0  0  0  0  0  0  0  0  0
    0.2354    2.1956   -2.4988 C   0  0  0  0  0  0  0  0  0  0  0  0
    0.6166    3.0618   -1.9727 H   0  0  0  0  0  0  0  0  0  0  0  0
   -0.0283    0.1609    1.5831 C   0  0  0  0  0  0  0  0  0  0  0  0
    1.1923    0.1056    1.7329 O   0  0  0  0  0  0  0  0  0  0  0  0
   -0.8586    0.4659    2.5853 N   0  0  0  0  0  0  0  0  0  0  0  0
   -1.8521    0.3848    2.4000 H   0  0  0  0  0  0  0  0  0  0  0  0
   -0.4403    0.7694    3.9518 C   0  0  0  0  0  0  0  0  0  0  0  0
    0.5066    1.3154    3.9421 H   0  0  0  0  0  0  0  0  0  0  0  0
   -1.1988    1.3789    4.4452 H   0  0  0  0  0  0  0  0  0  0  0  0
   -0.3053   -0.1600    4.5075 H   0  0  0  0  0  0  0  0  0  0  0  0
  5  6  2  0  0  0  0
  5  7  1  0  0  0  0
  2  3  1  0  0  0  0
  2  4  1  0  0  0  0
  2  5  1  0  0  0  0
  1  2  1  0  0  0  0
 22 23  2  0  0  0  0
 22 24  1  0  0  0  0
 20 21  1  0  0  0  0
 18 19  1  0  0  0  0
 18 20  1  0  0  0  0
 16 17  1  0  0  0  0
 16 18  1  0  0  0  0
 15 16  2  0  0  0  0
 14 15  1  0  0  0  0
 14 20  2  0  0  0  0
 11 12  1  0  0  0  0
 11 13  1  0  0  0  0
 11 14  1  0  0  0  0
  9 10  1  0  0  0  0
  9 11  1  0  0  0  0
  9 22  1  0  0  0  0
  7  8  1  0  0  0  0
  7  9  1  0  0  0  0
 26 27  1  0  0  0  0
 26 28  1  0  0  0  0
 26 29  1  0  0  0  0
 24 25  1  0  0  0  0
 24 26  1  0  0  0  0
M  END
$$$$
default_name
  -OEChem-02102213163D

 29 29  0     1  0  0  0  0  0999 V2000
   -2.9561   -3.9186    1.3887 H   0  0  0  0  0  0  0  0  0  0  0  0
   -3.1191   -2.9346    0.9517 C   0  0  0  0  0  0  0  0  0  0  0  0
   -3.7811   -2.3546    1.5917 H   0  0  0  0  0  0  0  0  0  0  0  0
   -3.5591   -3.0406   -0.0383 H   0  0  0  0  0  0  0  0  0  0  0  0
   -1.7921   -2.2226    0.8327 C   0  0  0  0  0  0  0  0  0  0  0  0
   -0.7611   -2.7766    1.1927 O   0  0  0  0  0  0  0  0  0  0  0  0
   -1.8201   -0.9926    0.3247 N   0  0  0  0  0  0  0  0  0  0  0  0
   -2.7141   -0.5816    0.0927 H   0  0  0  0  0  0  0  0  0  0  0  0
   -0.6481   -0.1156    0.2017 C   0  0  1  0  0  0  0  0  0  0  0  0
    0.1042   -0.6345   -0.3958 H   0  0  0  0  0  0  0  0  0  0  0  0
   -1.0420    1.1781   -0.5372 C   0  0  0  0  0  0  0  0  0  0  0  0
   -2.1288    1.2684   -0.5699 H   0  0  0  0  0  0  0  0  0  0  0  0
   -0.6569    2.0438    0.0034 H   0  0  0  0  0  0  0  0  0  0  0  0
   -0.5457    1.2142   -1.9622 C   0  0  0  0  0  0  0  0  0  0  0  0
   -1.0813    0.4969   -3.0328 N   0  0  0  0  0  0  0  0  0  0  0  0
   -0.3738    0.8613   -4.1121 C   0  0  0  0  0  0  0  0  0  0  0  0
   -0.5344    0.4724   -5.1097 H   0  0  0  0  0  0  0  0  0  0  0  0
    0.5499    1.7788   -3.7801 N   0  0  0  0  0  0  0  0  0  0  0  0
    1.1927    2.2224   -4.4218 H   0  0  0  0  0  0  0  0  0  0  0  0
    0.4540    2.0176   -2.4272 C   0  0  0  0  0  0  0  0  0  0  0  0
    1.0332    2.7161   -1.8364 H   0  0  0  0  0  0  0  0  0  0  0  0
   -0.0283    0.1609    1.5831 C   0  0  0  0  0  0  0  0  0  0  0  0
    1.1923    0.1056    1.7329 O   0  0  0  0  0  0  0  0  0  0  0  0
   -0.8586    0.4659    2.5853 N   0  0  0  0  0  0  0  0  0  0  0  0
   -1.8521    0.3848    2.4000 H   0  0  0  0  0  0  0  0  0  0  0  0
   -0.4403    0.7694    3.9518 C   0  0  0  0  0  0  0  0  0  0  0  0
    0.5066    1.3154    3.9421 H   0  0  0  0  0  0  0  0  0  0  0  0
   -1.1988    1.3789    4.4452 H   0  0  0  0  0  0  0  0  0  0  0  0
   -0.3053   -0.1600    4.5075 H   0  0  0  0  0  0  0  0  0  0  0  0
  5  6  2  0  0  0  0
  5  7  1  0  0  0  0
  2  3  1  0  0  0  0
  2  4  1  0  0  0  0
  2  5  1  0  0  0  0
  1  2  1  0  0  0  0
 22 23  2  0  0  0  0
 22 24  1  0  0  0  0
 20 21  1  0  0  0  0
 18 19  1  0  0  0  0
 18 20  1  0  0  0  0
 16 17  1  0  0  0  0
 16 18  1  0  0  0  0
 15 16  2  0  0  0  0
 14 15  1  0  0  0  0
 14 20  2  0  0  0  0
 11 12  1  0  0  0  0
 11 13  1  0  0  0  0
 11 14  1  0  0  0  0
  9 10  1  0  0  0  0
  9 11  1  0  0  0  0
  9 22  1  0  0  0  0
  7  8  1  0  0  0  0
  7  9  1  0  0  0  0
 26 27  1  0  0  0  0
 26 28  1  0  0  0  0
 26 29  1  0  0  0  0
 24 25  1  0  0  0  0
 24 26  1  0  0  0  0
M  END
$$$$
default_name
  -OEChem-02102213163D

 29 29  0     1  0  0  0  0  0999 V2000
   -2.9561   -3.9186    1.3887 H   0  0  0  0  0  0  0  0  0  0  0  0
   -3.1191   -2.9346    0.9517 C   0  0  0  0  0  0  0  0  0  0  0  0
   -3.7811   -2.3546    1.5917 H   0  0  0  0  0  0  0  0  0  0  0  0
   -3.5591   -3.0406   -0.0383 H   0  0  0  0  0  0  0  0  0  0  0  0
   -1.7921   -2.2226    0.8327 C   0  0  0  0  0  0  0  0  0  0  0  0
   -0.7611   -2.7766    1.1927 O   0  0  0  0  0  0  0  0  0  0  0  0
   -1.8201   -0.9926    0.3247 N   0  0  0  0  0  0  0  0  0  0  0  0
   -2.7141   -0.5816    0.0927 H   0  0  0  0  0  0  0  0  0  0  0  0
   -0.6481   -0.1156    0.2017 C   0  0  1  0  0  0  0  0  0  0  0  0
    0.1042   -0.6345   -0.3958 H   0  0  0  0  0  0  0  0  0  0  0  0
   -1.0420    1.1781   -0.5372 C   0  0  0  0  0  0  0  0  0  0  0  0
   -2.1288    1.2684   -0.5699 H   0  0  0  0  0  0  0  0  0  0  0  0
   -0.6569    2.0438    0.0034 H   0  0  0  0  0  0  0  0  0  0  0  0
   -0.5457    1.2142   -1.9622 C   0  0  0  0  0  0  0  0  0  0  0  0
   -1.2357    0.7440   -3.0803 N   0  0  0  0  0  0  0  0  0  0  0  0
   -0.4559    1.0159   -4.1368 C   0  0  0  0  0  0  0  0  0  0  0  0
   -0.7024    0.7652   -5.1608 H   0  0  0  0  0  0  0  0  0  0  0  0
    0.6627    1.6483   -3.7441 N   0  0  0  0  0  0  0  0  0  0  0  0
    1.3973    1.9750   -4.3568 H   0  0  0  0  0  0  0  0  0  0  0  0
    0.6222    1.7861   -2.3745 C   0  0  0  0  0  0  0  0  0  0  0  0
    1.3521    2.2687   -1.7366 H   0  0  0  0  0  0  0  0  0  0  0  0
   -0.0283    0.1609    1.5831 C   0  0  0  0  0  0  0  0  0  0  0  0
    1.1923    0.1056    1.7329 O   0  0  0  0  0  0  0  0  0  0  0  0
   -0.8586    0.4659    2.5853 N   0  0  0  0  0  0  0  0  0  0  0  0
   -1.8521    0.3848    2.4000 H   0  0  0  0  0  0  0  0  0  0  0  0
   -0.4403    0.7694    3.9518 C   0  0  0  0  0  0  0  0  0  0  0  0
    0.5066    1.3154    3.9421 H   0  0  0  0  0  0  0  0  0  0  0  0
   -1.1988    1.3789    4.4452 H   0  0  0  0  0  0  0  0  0  0  0  0
   -0.3053   -0.1600    4.5075 H   0  0  0  0  0  0  0  0  0  0  0  0
  5  6  2  0  0  0  0
  5  7  1  0  0  0  0
  2  3  1  0  0  0  0
  2  4  1  0  0  0  0
  2  5  1  0  0  0  0
  1  2  1  0  0  0  0
 22 23  2  0  0  0  0
 22 24  1  0  0  0  0
 20 21  1  0  0  0  0
 18 19  1  0  0  0  0
 18 20  1  0  0  0  0
 16 17  1  0  0  0  0
 16 18  1  0  0  0  0
 15 16  2  0  0  0  0
 14 15  1  0  0  0  0
 14 20  2  0  0  0  0
 11 12  1  0  0  0  0
 11 13  1  0  0  0  0
 11 14  1  0  0  0  0
  9 10  1  0  0  0  0
  9 11  1  0  0  0  0
  9 22  1  0  0  0  0
  7  8  1  0  0  0  0
  7  9  1  0  0  0  0
 26 27  1  0  0  0  0
 26 28  1  0  0  0  0
 26 29  1  0  0  0  0
 24 25  1  0  0  0  0
 24 26  1  0  0  0  0
M  END
$$$$
default_name
  -OEChem-02102213163D

 29 29  0     1  0  0  0  0  0999 V2000
   -2.9561   -3.9186    1.3887 H   0  0  0  0  0  0  0  0  0  0  0  0
   -3.1191   -2.9346    0.9517 C   0  0  0  0  0  0  0  0  0  0  0  0
   -3.7811   -2.3546    1.5917 H   0  0  0  0  0  0  0  0  0  0  0  0
   -3.5591   -3.0406   -0.0383 H   0  0  0  0  0  0  0  0  0  0  0  0
   -1.7921   -2.2226    0.8327 C   0  0  0  0  0  0  0  0  0  0  0  0
   -0.7611   -2.7766    1.1927 O   0  0  0  0  0  0  0  0  0  0  0  0
   -1.8201   -0.9926    0.3247 N   0  0  0  0  0  0  0  0  0  0  0  0
   -2.7141   -0.5816    0.0927 H   0  0  0  0  0  0  0  0  0  0  0  0
   -0.6481   -0.1156    0.2017 C   0  0  1  0  0  0  0  0  0  0  0  0
    0.1042   -0.6345   -0.3958 H   0  0  0  0  0  0  0  0  0  0  0  0
   -1.0420    1.1781   -0.5372 C   0  0  0  0  0  0  0  0  0  0  0  0
   -2.1288    1.2684   -0.5699 H   0  0  0  0  0  0  0  0  0  0  0  0
   -0.6569    2.0438    0.0034 H   0  0  0  0  0  0  0  0  0  0  0  0
   -0.5457    1.2142   -1.9622 C   0  0  0  0  0  0  0  0  0  0  0  0
   -1.3249    1.0245   -3.1043 N   0  0  0  0  0  0  0  0  0  0  0  0
   -0.4976    1.1875   -4.1470 C   0  0  0  0  0  0  0  0  0  0  0  0
   -0.7934    1.0933   -5.1842 H   0  0  0  0  0  0  0  0  0  0  0  0
    0.7400    1.4915   -3.7211 N   0  0  0  0  0  0  0  0  0  0  0  0
    1.5349    1.6804   -4.3164 H   0  0  0  0  0  0  0  0  0  0  0  0
    0.7285    1.5170   -2.3443 C   0  0  0  0  0  0  0  0  0  0  0  0
    1.5514    1.7502   -1.6804 H   0  0  0  0  0  0  0  0  0  0  0  0
   -0.0283    0.1609    1.5831 C   0  0  0  0  0  0  0  0  0  0  0  0
    1.1923    0.1056    1.7329 O   0  0  0  0  0  0  0  0  0  0  0  0
   -0.8586    0.4659    2.5853 N   0  0  0  0  0  0  0  0  0  0  0  0
   -1.8521    0.3848    2.4000 H   0  0  0  0  0  0  0  0  0  0  0  0
   -0.4403    0.7694    3.9518 C   0  0  0  0  0  0  0  0  0  0  0  0
    0.5066    1.3154    3.9421 H   0  0  0  0  0  0  0  0  0  0  0  0
   -1.1988    1.3789    4.4452 H   0  0  0  0  0  0  0  0  0  0  0  0
   -0.3053   -0.1600    4.5075 H   0  0  0  0  0  0  0  0  0  0  0  0
  5  6  2  0  0  0  0
  5  7  1  0  0  0  0
  2  3  1  0  0  0  0
  2  4  1  0  0  0  0
  2  5  1  0  0  0  0
  1  2  1  0  0  0  0
 22 23  2  0  0  0  0
 22 24  1  0  0  0  0
 20 21  1  0  0  0  0
 18 19  1  0  0  0  0
 18 20  1  0  0  0  0
 16 17  1  0  0  0  0
 16 18  1  0  0  0  0
 15 16  2  0  0  0  0
 14 15  1  0  0  0  0
 14 20  2  0  0  0  0
 11 12  1  0  0  0  0
 11 13  1  0  0  0  0
 11 14  1  0  0  0  0
  9 10  1  0  0  0  0
  9 11  1  0  0  0  0
  9 22  1  0  0  0  0
  7  8  1  0  0  0  0
  7  9  1  0  0  0  0
 26 27  1  0  0  0  0
 26 28  1  0  0  0  0
 26 29  1  0  0  0  0
 24 25  1  0  0  0  0
 24 26  1  0  0  0  0
M  END
$$$$
default_name
  -OEChem-02102213163D

 29 29  0     1  0  0  0  0  0999 V2000
   -2.9561   -3.9186    1.3887 H   0  0  0  0  0  0  0  0  0  0  0  0
   -3.1191   -2.9346    0.9517 C   0  0  0  0  0  0  0  0  0  0  0  0
   -3.7811   -2.3546    1.5917 H   0  0  0  0  0  0  0  0  0  0  0  0
   -3.5591   -3.0406   -0.0383 H   0  0  0  0  0  0  0  0  0  0  0  0
   -1.7921   -2.2226    0.8327 C   0  0  0  0  0  0  0  0  0  0  0  0
   -0.7611   -2.7766    1.1927 O   0  0  0  0  0  0  0  0  0  0  0  0
   -1.8201   -0.9926    0.3247 N   0  0  0  0  0  0  0  0  0  0  0  0
   -2.7141   -0.5816    0.0927 H   0  0  0  0  0  0  0  0  0  0  0  0
   -0.6481   -0.1156    0.2017 C   0  0  1  0  0  0  0  0  0  0  0  0
    0.1042   -0.6345   -0.3958 H   0  0  0  0  0  0  0  0  0  0  0  0
   -1.0420    1.1781   -0.5372 C   0  0  0  0  0  0  0  0  0  0  0  0
   -2.1288    1.2684   -0.5699 H   0  0  0  0  0  0  0  0  0  0  0  0
   -0.6569    2.0438    0.0034 H   0  0  0  0  0  0  0  0  0  0  0  0
   -0.5457    1.2142   -1.9622 C   0  0  0  0  0  0  0  0  0  0  0  0
   -1.3426    1.3192   -3.1030 N   0  0  0  0  0  0  0  0  0  0  0  0
   -0.4960    1.3643   -4.1420 C   0  0  0  0  0  0  0  0  0  0  0  0
   -0.8013    1.4346   -5.1783 H   0  0  0  0  0  0  0  0  0  0  0  0
    0.7765    1.3193   -3.7128 N   0  0  0  0  0  0  0  0  0  0  0  0
    1.5961    1.3589   -4.3032 H   0  0  0  0  0  0  0  0  0  0  0  0
    0.7655    1.2285   -2.3387 C   0  0  0  0  0  0  0  0  0  0  0  0
    1.6175    1.1959   -1.6714 H   0  0  0  0  0  0  0  0  0  0  0  0
   -0.0283    0.1609    1.5831 C   0  0  0  0  0  0  0  0  0  0  0  0
    1.1923    0.1056    1.7329 O   0  0  0  0  0  0  0  0  0  0  0  0
   -0.8586    0.4659    2.5853 N   0  0  0  0  0  0  0  0  0  0  0  0
   -1.8521    0.3848    2.4000 H   0  0  0  0  0  0  0  0  0  0  0  0
   -0.4403    0.7694    3.9518 C   0  0  0  0  0  0  0  0  0  0  0  0
    0.5066    1.3154    3.9421 H   0  0  0  0  0  0  0  0  0  0  0  0
   -1.1988    1.3789    4.4452 H   0  0  0  0  0  0  0  0  0  0  0  0
   -0.3053   -0.1600    4.5075 H   0  0  0  0  0  0  0  0  0  0  0  0
  5  6  2  0  0  0  0
  5  7  1  0  0  0  0
  2  3  1  0  0  0  0
  2  4  1  0  0  0  0
  2  5  1  0  0  0  0
  1  2  1  0  0  0  0
 22 23  2  0  0  0  0
 22 24  1  0  0  0  0
 20 21  1  0  0  0  0
 18 19  1  0  0  0  0
 18 20  1  0  0  0  0
 16 17  1  0  0  0  0
 16 18  1  0  0  0  0
 15 16  2  0  0  0  0
 14 15  1  0  0  0  0
 14 20  2  0  0  0  0
 11 12  1  0  0  0  0
 11 13  1  0  0  0  0
 11 14  1  0  0  0  0
  9 10  1  0  0  0  0
  9 11  1  0  0  0  0
  9 22  1  0  0  0  0
  7  8  1  0  0  0  0
  7  9  1  0  0  0  0
 26 27  1  0  0  0  0
 26 28  1  0  0  0  0
 26 29  1  0  0  0  0
 24 25  1  0  0  0  0
 24 26  1  0  0  0  0
M  END
$$$$
default_name
  -OEChem-02102213163D

 29 29  0     1  0  0  0  0  0999 V2000
   -2.9561   -3.9186    1.3887 H   0  0  0  0  0  0  0  0  0  0  0  0
   -3.1191   -2.9346    0.9517 C   0  0  0  0  0  0  0  0  0  0  0  0
   -3.7811   -2.3546    1.5917 H   0  0  0  0  0  0  0  0  0  0  0  0
   -3.5591   -3.0406   -0.0383 H   0  0  0  0  0  0  0  0  0  0  0  0
   -1.7921   -2.2226    0.8327 C   0  0  0  0  0  0  0  0  0  0  0  0
   -0.7611   -2.7766    1.1927 O   0  0  0  0  0  0  0  0  0  0  0  0
   -1.8201   -0.9926    0.3247 N   0  0  0  0  0  0  0  0  0  0  0  0
   -2.7141   -0.5816    0.0927 H   0  0  0  0  0  0  0  0  0  0  0  0
   -0.6481   -0.1156    0.2017 C   0  0  1  0  0  0  0  0  0  0  0  0
    0.1042   -0.6345   -0.3958 H   0  0  0  0  0  0  0  0  0  0  0  0
   -1.0420    1.1781   -0.5372 C   0  0  0  0  0  0  0  0  0  0  0  0
   -2.1288    1.2684   -0.5699 H   0  0  0  0  0  0  0  0  0  0  0  0
   -0.6569    2.0438    0.0034 H   0  0  0  0  0  0  0  0  0  0  0  0
   -0.5457    1.2142   -1.9622 C   0  0  0  0  0  0  0  0  0  0  0  0
   -1.2877    1.6080   -3.0765 N   0  0  0  0  0  0  0  0  0  0  0  0
   -0.4512    1.5342   -4.1221 C   0  0  0  0  0  0  0  0  0  0  0  0
   -0.7255    1.7656   -5.1436 H   0  0  0  0  0  0  0  0  0  0  0  0
    0.7697    1.1433   -3.7196 N   0  0  0  0  0  0  0  0  0  0  0  0
    1.5766    1.0322   -4.3182 H   0  0  0  0  0  0  0  0  0  0  0  0
    0.7308    0.9403   -2.3581 C   0  0  0  0  0  0  0  0  0  0  0  0
    1.5460    0.6435   -1.7102 H   0  0  0  0  0  0  0  0  0  0  0  0
   -0.0283    0.1609    1.5831 C   0  0  0  0  0  0  0  0  0  0  0  0
    1.1923    0.1056    1.7329 O   0  0  0  0  0  0  0  0  0  0  0  0
   -0.8586    0.4659    2.5853 N   0  0  0  0  0  0  0  0  0  0  0  0
   -1.8521    0.3848    2.4000 H   0  0  0  0  0  0  0  0  0  0  0  0
   -0.4403    0.7694    3.9518 C   0  0  0  0  0  0  0  0  0  0  0  0
    0.5066    1.3154    3.9421 H   0  0  0  0  0  0  0  0  0  0  0  0
   -1.1988    1.3789    4.4452 H   0  0  0  0  0  0  0  0  0  0  0  0
   -0.3053   -0.1600    4.5075 H   0  0  0  0  0  0  0  0  0  0  0  0
  5  6  2  0  0  0  0
  5  7  1  0  0  0  0
  2  3  1  0  0  0  0
  2  4  1  0  0  0  0
  2  5  1  0  0  0  0
  1  2  1  0  0  0  0
 22 23  2  0  0  0  0
 22 24  1  0  0  0  0
 20 21  1  0  0  0  0
 18 19  1  0  0  0  0
 18 20  1  0  0  0  0
 16 17  1  0  0  0  0
 16 18  1  0  0  0  0
 15 16  2  0  0  0  0
 14 15  1  0  0  0  0
 14 20  2  0  0  0  0
 11 12  1  0  0  0  0
 11 13  1  0  0  0  0
 11 14  1  0  0  0  0
  9 10  1  0  0  0  0
  9 11  1  0  0  0  0
  9 22  1  0  0  0  0
  7  8  1  0  0  0  0
  7  9  1  0  0  0  0
 26 27  1  0  0  0  0
 26 28  1  0  0  0  0
 26 29  1  0  0  0  0
 24 25  1  0  0  0  0
 24 26  1  0  0  0  0
M  END
$$$$
default_name
  -OEChem-02102213163D

 29 29  0     1  0  0  0  0  0999 V2000
   -2.9561   -3.9186    1.3887 H   0  0  0  0  0  0  0  0  0  0  0  0
   -3.1191   -2.9346    0.9517 C   0  0  0  0  0  0  0  0  0  0  0  0
   -3.7811   -2.3546    1.5917 H   0  0  0  0  0  0  0  0  0  0  0  0
   -3.5591   -3.0406   -0.0383 H   0  0  0  0  0  0  0  0  0  0  0  0
   -1.7921   -2.2226    0.8327 C   0  0  0  0  0  0  0  0  0  0  0  0
   -0.7611   -2.7766    1.1927 O   0  0  0  0  0  0  0  0  0  0  0  0
   -1.8201   -0.9926    0.3247 N   0  0  0  0  0  0  0  0  0  0  0  0
   -2.7141   -0.5816    0.0927 H   0  0  0  0  0  0  0  0  0  0  0  0
   -0.6481   -0.1156    0.2017 C   0  0  1  0  0  0  0  0  0  0  0  0
    0.1042   -0.6345   -0.3958 H   0  0  0  0  0  0  0  0  0  0  0  0
   -1.0420    1.1781   -0.5372 C   0  0  0  0  0  0  0  0  0  0  0  0
   -2.1288    1.2684   -0.5699 H   0  0  0  0  0  0  0  0  0  0  0  0
   -0.6569    2.0438    0.0034 H   0  0  0  0  0  0  0  0  0  0  0  0
   -0.5457    1.2142   -1.9622 C   0  0  0  0  0  0  0  0  0  0  0  0
   -1.1639    1.8714   -3.0268 N   0  0  0  0  0  0  0  0  0  0  0  0
   -0.3663    1.6856   -4.0887 C   0  0  0  0  0  0  0  0  0  0  0  0
   -0.5711    2.0639   -5.0823 H   0  0  0  0  0  0  0  0  0  0  0  0
    0.7201    0.9755   -3.7411 N   0  0  0  0  0  0  0  0  0  0  0  0
    1.4780    0.7226   -4.3604 H   0  0  0  0  0  0  0  0  0  0  0  0
    0.6267    0.6720   -2.4011 C   0  0  0  0  0  0  0  0  0  0  0  0
    1.3417    0.1307   -1.7943 H   0  0  0  0  0  0  0  0  0  0  0  0
   -0.0283    0.1609    1.5831 C   0  0  0  0  0  0  0  0  0  0  0  0
    1.1923    0.1056    1.7329 O   0  0  0  0  0  0  0  0  0  0  0  0
   -0.8586    0.4659    2.5853 N   0  0  0  0  0  0  0  0  0  0  0  0
   -1.8521    0.3848    2.4000 H   0  0  0  0  0  0  0  0  0  0  0  0
   -0.4403    0.7694    3.9518 C   0  0  0  0  0  0  0  0  0  0  0  0
    0.5066    1.3154    3.9421 H   0  0  0  0  0  0  0  0  0  0  0  0
   -1.1988    1.3789    4.4452 H   0  0  0  0  0  0  0  0  0  0  0  0
   -0.3053   -0.1600    4.5075 H   0  0  0  0  0  0  0  0  0  0  0  0
  5  6  2  0  0  0  0
  5  7  1  0  0  0  0
  2  3  1  0  0  0  0
  2  4  1  0  0  0  0
  2  5  1  0  0  0  0
  1  2  1  0  0  0  0
 22 23  2  0  0  0  0
 22 24  1  0  0  0  0
 20 21  1  0  0  0  0
 18 19  1  0  0  0  0
 18 20  1  0  0  0  0
 16 17  1  0  0  0  0
 16 18  1  0  0  0  0
 15 16  2  0  0  0  0
 14 15  1  0  0  0  0
 14 20  2  0  0  0  0
 11 12  1  0  0  0  0
 11 13  1  0  0  0  0
 11 14  1  0  0  0  0
  9 10  1  0  0  0  0
  9 11  1  0  0  0  0
  9 22  1  0  0  0  0
  7  8  1  0  0  0  0
  7  9  1  0  0  0  0
 26 27  1  0  0  0  0
 26 28  1  0  0  0  0
 26 29  1  0  0  0  0
 24 25  1  0  0  0  0
 24 26  1  0  0  0  0
M  END
$$$$
default_name
  -OEChem-02102213163D

 29 29  0     1  0  0  0  0  0999 V2000
   -2.9561   -3.9186    1.3887 H   0  0  0  0  0  0  0  0  0  0  0  0
   -3.1191   -2.9346    0.9517 C   0  0  0  0  0  0  0  0  0  0  0  0
   -3.7811   -2.3546    1.5917 H   0  0  0  0  0  0  0  0  0  0  0  0
   -3.5591   -3.0406   -0.0383 H   0  0  0  0  0  0  0  0  0  0  0  0
   -1.7921   -2.2226    0.8327 C   0  0  0  0  0  0  0  0  0  0  0  0
   -0.7611   -2.7766    1.1927 O   0  0  0  0  0  0  0  0  0  0  0  0
   -1.8201   -0.9926    0.3247 N   0  0  0  0  0  0  0  0  0  0  0  0
   -2.7141   -0.5816    0.0927 H   0  0  0  0  0  0  0  0  0  0  0  0
   -0.6481   -0.1156    0.2017 C   0  0  1  0  0  0  0  0  0  0  0  0
    0.1042   -0.6345   -0.3958 H   0  0  0  0  0  0  0  0  0  0  0  0
   -1.0420    1.1781   -0.5372 C   0  0  0  0  0  0  0  0  0  0  0  0
   -2.1288    1.2684   -0.5699 H   0  0  0  0  0  0  0  0  0  0  0  0
   -0.6569    2.0438    0.0034 H   0  0  0  0  0  0  0  0  0  0  0  0
   -0.5457    1.2142   -1.9622 C   0  0  0  0  0  0  0  0  0  0  0  0
   -0.9797    2.0913   -2.9570 N   0  0  0  0  0  0  0  0  0  0  0  0
   -0.2471    1.8084   -4.0440 C   0  0  0  0  0  0  0  0  0  0  0  0
   -0.3488    2.3090   -4.9986 H   0  0  0  0  0  0  0  0  0  0  0  0
    0.6311    0.8275   -3.7759 N   0  0  0  0  0  0  0  0  0  0  0  0
    1.3068    0.4514   -4.4269 H   0  0  0  0  0  0  0  0  0  0  0  0
    0.4604    0.4420   -2.4648 C   0  0  0  0  0  0  0  0  0  0  0  0
    1.0186   -0.3075   -1.9180 H   0  0  0  0  0  0  0  0  0  0  0  0
   -0.0283    0.1609    1.5831 C   0  0  0  0  0  0  0  0  0  0  0  0
    1.1923    0.1056    1.7329 O   0  0  0  0  0  0  0  0  0  0  0  0
   -0.8586    0.4659    2.5853 N   0  0  0  0  0  0  0  0  0  0  0  0
   -1.8521    0.3848    2.4000 H   0  0  0  0  0  0  0  0  0  0  0  0
   -0.4403    0.7694    3.9518 C   0  0  0  0  0  0  0  0  0  0  0  0
    0.5066    1.3154    3.9421 H   0  0  0  0  0  0  0  0  0  0  0  0
   -1.1988    1.3789    4.4452 H   0  0  0  0  0  0  0  0  0  0  0  0
   -0.3053   -0.1600    4.5075 H   0  0  0  0  0  0  0  0  0  0  0  0
  5  6  2  0  0  0  0
  5  7  1  0  0  0  0
  2  3  1  0  0  0  0
  2  4  1  0  0  0  0
  2  5  1  0  0  0  0
  1  2  1  0  0  0  0
 22 23  2  0  0  0  0
 22 24  1  0  0  0  0
 20 21  1  0  0  0  0
 18 19  1  0  0  0  0
 18 20  1  0  0  0  0
 16 17  1  0  0  0  0
 16 18  1  0  0  0  0
 15 16  2  0  0  0  0
 14 15  1  0  0  0  0
 14 20  2  0  0  0  0
 11 12  1  0  0  0  0
 11 13  1  0  0  0  0
 11 14  1  0  0  0  0
  9 10  1  0  0  0  0
  9 11  1  0  0  0  0
  9 22  1  0  0  0  0
  7  8  1  0  0  0  0
  7  9  1  0  0  0  0
 26 27  1  0  0  0  0
 26 28  1  0  0  0  0
 26 29  1  0  0  0  0
 24 25  1  0  0  0  0
 24 26  1  0  0  0  0
M  END
$$$$
default_name
  -OEChem-02102213163D

 29 29  0     1  0  0  0  0  0999 V2000
   -2.9561   -3.9186    1.3887 H   0  0  0  0  0  0  0  0  0  0  0  0
   -3.1191   -2.9346    0.9517 C   0  0  0  0  0  0  0  0  0  0  0  0
   -3.7811   -2.3546    1.5917 H   0  0  0  0  0  0  0  0  0  0  0  0
   -3.5591   -3.0406   -0.0383 H   0  0  0  0  0  0  0  0  0  0  0  0
   -1.7921   -2.2226    0.8327 C   0  0  0  0  0  0  0  0  0  0  0  0
   -0.7611   -2.7766    1.1927 O   0  0  0  0  0  0  0  0  0  0  0  0
   -1.8201   -0.9926    0.3247 N   0  0  0  0  0  0  0  0  0  0  0  0
   -2.7141   -0.5816    0.0927 H   0  0  0  0  0  0  0  0  0  0  0  0
   -0.6481   -0.1156    0.2017 C   0  0  1  0  0  0  0  0  0  0  0  0
    0.1042   -0.6345   -0.3958 H   0  0  0  0  0  0  0  0  0  0  0  0
   -1.0420    1.1781   -0.5372 C   0  0  0  0  0  0  0  0  0  0  0  0
   -2.0908    1.4086   -0.3447 H   0  0  0  0  0  0  0  0  0  0  0  0
   -0.4483    2.0128   -0.1620 H   0  0  0  0  0  0  0  0  0  0  0  0
   -0.8729    1.0739   -2.0334 C   0  0  0  0  0  0  0  0  0  0  0  0
   -1.1485    2.0809   -2.9594 N   0  0  0  0  0  0  0  0  0  0  0  0
   -0.8129    1.5821   -4.1582 C   0  0  0  0  0  0  0  0  0  0  0  0
   -0.9177    2.1153   -5.0946 H   0  0  0  0  0  0  0  0  0  0  0  0
   -0.3228    0.3379   -4.0283 N   0  0  0  0  0  0  0  0  0  0  0  0
    0.0169   -0.2404   -4.7847 H   0  0  0  0  0  0  0  0  0  0  0  0
   -0.3490    0.0009   -2.6933 C   0  0  0  0  0  0  0  0  0  0  0  0
   -0.0061   -0.9191   -2.2367 H   0  0  0  0  0  0  0  0  0  0  0  0
   -0.0283    0.1609    1.5831 C   0  0  0  0  0  0  0  0  0  0  0  0
    1.1923    0.1056    1.7329 O   0  0  0  0  0  0  0  0  0  0  0  0
   -0.8586    0.4659    2.5853 N   0  0  0  0  0  0  0  0  0  0  0  0
   -1.8521    0.3848    2.4000 H   0  0  0  0  0  0  0  0  0  0  0  0
   -0.4403    0.7694    3.9518 C   0  0  0  0  0  0  0  0  0  0  0  0
    0.5066    1.3154    3.9421 H   0  0  0  0  0  0  0  0  0  0  0  0
   -1.1988    1.3789    4.4452 H   0  0  0  0  0  0  0  0  0  0  0  0
   -0.3053   -0.1600    4.5075 H   0  0  0  0  0  0  0  0  0  0  0  0
  5  6  2  0  0  0  0
  5  7  1  0  0  0  0
  2  3  1  0  0  0  0
  2  4  1  0  0  0  0
  2  5  1  0  0  0  0
  1  2  1  0  0  0  0
 22 23  2  0  0  0  0
 22 24  1  0  0  0  0
 20 21  1  0  0  0  0
 18 19  1  0  0  0  0
 18 20  1  0  0  0  0
 16 17  1  0  0  0  0
 16 18  1  0  0  0  0
 15 16  2  0  0  0  0
 14 15  1  0  0  0  0
 14 20  2  0  0  0  0
 11 12  1  0  0  0  0
 11 13  1  0  0  0  0
 11 14  1  0  0  0  0
  9 10  1  0  0  0  0
  9 11  1  0  0  0  0
  9 22  1  0  0  0  0
  7  8  1  0  0  0  0
  7  9  1  0  0  0  0
 26 27  1  0  0  0  0
 26 28  1  0  0  0  0
 26 29  1  0  0  0  0
 24 25  1  0  0  0  0
 24 26  1  0  0  0  0
M  END
$$$$
default_name
  -OEChem-02102213163D

 29 29  0     1  0  0  0  0  0999 V2000
   -2.9561   -3.9186    1.3887 H   0  0  0  0  0  0  0  0  0  0  0  0
   -3.1191   -2.9346    0.9517 C   0  0  0  0  0  0  0  0  0  0  0  0
   -3.7811   -2.3546    1.5917 H   0  0  0  0  0  0  0  0  0  0  0  0
   -3.5591   -3.0406   -0.0383 H   0  0  0  0  0  0  0  0  0  0  0  0
   -1.7921   -2.2226    0.8327 C   0  0  0  0  0  0  0  0  0  0  0  0
   -0.7611   -2.7766    1.1927 O   0  0  0  0  0  0  0  0  0  0  0  0
   -1.8201   -0.9926    0.3247 N   0  0  0  0  0  0  0  0  0  0  0  0
   -2.7141   -0.5816    0.0927 H   0  0  0  0  0  0  0  0  0  0  0  0
   -0.6481   -0.1156    0.2017 C   0  0  1  0  0  0  0  0  0  0  0  0
    0.1042   -0.6345   -0.3958 H   0  0  0  0  0  0  0  0  0  0  0  0
   -1.0420    1.1781   -0.5372 C   0  0  0  0  0  0  0  0  0  0  0  0
   -2.0908    1.4086   -0.3447 H   0  0  0  0  0  0  0  0  0  0  0  0
   -0.4483    2.0128   -0.1620 H   0  0  0  0  0  0  0  0  0  0  0  0
   -0.8729    1.0739   -2.0334 C   0  0  0  0  0  0  0  0  0  0  0  0
   -0.8611    2.1422   -2.9312 N   0  0  0  0  0  0  0  0  0  0  0  0
   -0.6386    1.6061   -4.1401 C   0  0  0  0  0  0  0  0  0  0  0  0
   -0.5830    2.1732   -5.0608 H   0  0  0  0  0  0  0  0  0  0  0  0
   -0.4867    0.2747   -4.0425 N   0  0  0  0  0  0  0  0  0  0  0  0
   -0.2903   -0.3509   -4.8118 H   0  0  0  0  0  0  0  0  0  0  0  0
   -0.6273   -0.0797   -2.7191 C   0  0  0  0  0  0  0  0  0  0  0  0
   -0.5417   -1.0687   -2.2868 H   0  0  0  0  0  0  0  0  0  0  0  0
   -0.0283    0.1609    1.5831 C   0  0  0  0  0  0  0  0  0  0  0  0
    1.1923    0.1056    1.7329 O   0  0  0  0  0  0  0  0  0  0  0  0
   -0.8586    0.4659    2.5853 N   0  0  0  0  0  0  0  0  0  0  0  0
   -1.8521    0.3848    2.4000 H   0  0  0  0  0  0  0  0  0  0  0  0
   -0.4403    0.7694    3.9518 C   0  0  0  0  0  0  0  0  0  0  0  0
    0.5066    1.3154    3.9421 H   0  0  0  0  0  0  0  0  0  0  0  0
   -1.1988    1.3789    4.4452 H   0  0  0  0  0  0  0  0  0  0  0  0
   -0.3053   -0.1600    4.5075 H   0  0  0  0  0  0  0  0  0  0  0  0
  5  6  2  0  0  0  0
  5  7  1  0  0  0  0
  2  3  1  0  0  0  0
  2  4  1  0  0  0  0
  2  5  1  0  0  0  0
  1  2  1  0  0  0  0
 22 23  2  0  0  0  0
 22 24  1  0  0  0  0
 20 21  1  0  0  0  0
 18 19  1  0  0  0  0
 18 20  1  0  0  0  0
 16 17  1  0  0  0  0
 16 18  1  0  0  0  0
 15 16  2  0  0  0  0
 14 15  1  0  0  0  0
 14 20  2  0  0  0  0
 11 12  1  0  0  0  0
 11 13  1  0  0  0  0
 11 14  1  0  0  0  0
  9 10  1  0  0  0  0
  9 11  1  0  0  0  0
  9 22  1  0  0  0  0
  7  8  1  0  0  0  0
  7  9  1  0  0  0  0
 26 27  1  0  0  0  0
 26 28  1  0  0  0  0
 26 29  1  0  0  0  0
 24 25  1  0  0  0  0
 24 26  1  0  0  0  0
M  END
$$$$
default_name
  -OEChem-02102213163D

 29 29  0     1  0  0  0  0  0999 V2000
   -2.9561   -3.9186    1.3887 H   0  0  0  0  0  0  0  0  0  0  0  0
   -3.1191   -2.9346    0.9517 C   0  0  0  0  0  0  0  0  0  0  0  0
   -3.7811   -2.3546    1.5917 H   0  0  0  0  0  0  0  0  0  0  0  0
   -3.5591   -3.0406   -0.0383 H   0  0  0  0  0  0  0  0  0  0  0  0
   -1.7921   -2.2226    0.8327 C   0  0  0  0  0  0  0  0  0  0  0  0
   -0.7611   -2.7766    1.1927 O   0  0  0  0  0  0  0  0  0  0  0  0
   -1.8201   -0.9926    0.3247 N   0  0  0  0  0  0  0  0  0  0  0  0
   -2.7141   -0.5816    0.0927 H   0  0  0  0  0  0  0  0  0  0  0  0
   -0.6481   -0.1156    0.2017 C   0  0  1  0  0  0  0  0  0  0  0  0
    0.1042   -0.6345   -0.3958 H   0  0  0  0  0  0  0  0  0  0  0  0
   -1.0420    1.1781   -0.5372 C   0  0  0  0  0  0  0  0  0  0  0  0
   -2.0908    1.4086   -0.3447 H   0  0  0  0  0  0  0  0  0  0  0  0
   -0.4483    2.0128   -0.1620 H   0  0  0  0  0  0  0  0  0  0  0  0
   -0.8729    1.0739   -2.0334 C   0  0  0  0  0  0  0  0  0  0  0  0
   -0.5682    2.1269   -2.8970 N   0  0  0  0  0  0  0  0  0  0  0  0
   -0.4645    1.5841   -4.1189 C   0  0  0  0  0  0  0  0  0  0  0  0
   -0.2454    2.1422   -5.0205 H   0  0  0  0  0  0  0  0  0  0  0  0
   -0.6610    0.2562   -4.0609 N   0  0  0  0  0  0  0  0  0  0  0  0
   -0.6150   -0.3782   -4.8465 H   0  0  0  0  0  0  0  0  0  0  0  0
   -0.9164   -0.0854   -2.7514 C   0  0  0  0  0  0  0  0  0  0  0  0
   -1.0965   -1.0744   -2.3491 H   0  0  0  0  0  0  0  0  0  0  0  0
   -0.0283    0.1609    1.5831 C   0  0  0  0  0  0  0  0  0  0  0  0
    1.1923    0.1056    1.7329 O   0  0  0  0  0  0  0  0  0  0  0  0
   -0.8586    0.4659    2.5853 N   0  0  0  0  0  0  0  0  0  0  0  0
   -1.8521    0.3848    2.4000 H   0  0  0  0  0  0  0  0  0  0  0  0
   -0.4403    0.7694    3.9518 C   0  0  0  0  0  0  0  0  0  0  0  0
    0.5066    1.3154    3.9421 H   0  0  0  0  0  0  0  0  0  0  0  0
   -1.1988    1.3789    4.4452 H   0  0  0  0  0  0  0  0  0  0  0  0
   -0.3053   -0.1600    4.5075 H   0  0  0  0  0  0  0  0  0  0  0  0
  5  6  2  0  0  0  0
  5  7  1  0  0  0  0
  2  3  1  0  0  0  0
  2  4  1  0  0  0  0
  2  5  1  0  0  0  0
  1  2  1  0  0  0  0
 22 23  2  0  0  0  0
 22 24  1  0  0  0  0
 20 21  1  0  0  0  0
 18 19  1  0  0  0  0
 18 20  1  0  0  0  0
 16 17  1  0  0  0  0
 16 18  1  0  0  0  0
 15 16  2  0  0  0  0
 14 15  1  0  0  0  0
 14 20  2  0  0  0  0
 11 12  1  0  0  0  0
 11 13  1  0  0  0  0
 11 14  1  0  0  0  0
  9 10  1  0  0  0  0
  9 11  1  0  0  0  0
  9 22  1  0  0  0  0
  7  8  1  0  0  0  0
  7  9  1  0  0  0  0
 26 27  1  0  0  0  0
 26 28  1  0  0  0  0
 26 29  1  0  0  0  0
 24 25  1  0  0  0  0
 24 26  1  0  0  0  0
M  END
$$$$
default_name
  -OEChem-02102213163D

 29 29  0     1  0  0  0  0  0999 V2000
   -2.9561   -3.9186    1.3887 H   0  0  0  0  0  0  0  0  0  0  0  0
   -3.1191   -2.9346    0.9517 C   0  0  0  0  0  0  0  0  0  0  0  0
   -3.7811   -2.3546    1.5917 H   0  0  0  0  0  0  0  0  0  0  0  0
   -3.5591   -3.0406   -0.0383 H   0  0  0  0  0  0  0  0  0  0  0  0
   -1.7921   -2.2226    0.8327 C   0  0  0  0  0  0  0  0  0  0  0  0
   -0.7611   -2.7766    1.1927 O   0  0  0  0  0  0  0  0  0  0  0  0
   -1.8201   -0.9926    0.3247 N   0  0  0  0  0  0  0  0  0  0  0  0
   -2.7141   -0.5816    0.0927 H   0  0  0  0  0  0  0  0  0  0  0  0
   -0.6481   -0.1156    0.2017 C   0  0  1  0  0  0  0  0  0  0  0  0
    0.1042   -0.6345   -0.3958 H   0  0  0  0  0  0  0  0  0  0  0  0
   -1.0420    1.1781   -0.5372 C   0  0  0  0  0  0  0  0  0  0  0  0
   -2.0908    1.4086   -0.3447 H   0  0  0  0  0  0  0  0  0  0  0  0
   -0.4483    2.0128   -0.1620 H   0  0  0  0  0  0  0  0  0  0  0  0
   -0.8729    1.0739   -2.0334 C   0  0  0  0  0  0  0  0  0  0  0  0
   -0.2899    2.0359   -2.8592 N   0  0  0  0  0  0  0  0  0  0  0  0
   -0.3023    1.5175   -4.0959 C   0  0  0  0  0  0  0  0  0  0  0  0
    0.0720    2.0244   -4.9764 H   0  0  0  0  0  0  0  0  0  0  0  0
   -0.8338    0.2836   -4.0823 N   0  0  0  0  0  0  0  0  0  0  0  0
   -0.9349   -0.3201   -4.8867 H   0  0  0  0  0  0  0  0  0  0  0  0
   -1.1965   -0.0157   -2.7879 C   0  0  0  0  0  0  0  0  0  0  0  0
   -1.6327   -0.9357   -2.4194 H   0  0  0  0  0  0  0  0  0  0  0  0
   -0.0283    0.1609    1.5831 C   0  0  0  0  0  0  0  0  0  0  0  0
    1.1923    0.1056    1.7329 O   0  0  0  0  0  0  0  0  0  0  0  0
   -0.8586    0.4659    2.5853 N   0  0  0  0  0  0  0  0  0  0  0  0
   -1.8521    0.3848    2.4000 H   0  0  0  0  0  0  0  0  0  0  0  0
   -0.4403    0.7694    3.9518 C   0  0  0  0  0  0  0  0  0  0  0  0
    0.5066    1.3154    3.9421 H   0  0  0  0  0  0  0  0  0  0  0  0
   -1.1988    1.3789    4.4452 H   0  0  0  0  0  0  0  0  0  0  0  0
   -0.3053   -0.1600    4.5075 H   0  0  0  0  0  0  0  0  0  0  0  0
  5  6  2  0  0  0  0
  5  7  1  0  0  0  0
  2  3  1  0  0  0  0
  2  4  1  0  0  0  0
  2  5  1  0  0  0  0
  1  2  1  0  0  0  0
 22 23  2  0  0  0  0
 22 24  1  0  0  0  0
 20 21  1  0  0  0  0
 18 19  1  0  0  0  0
 18 20  1  0  0  0  0
 16 17  1  0  0  0  0
 16 18  1  0  0  0  0
 15 16  2  0  0  0  0
 14 15  1  0  0  0  0
 14 20  2  0  0  0  0
 11 12  1  0  0  0  0
 11 13  1  0  0  0  0
 11 14  1  0  0  0  0
  9 10  1  0  0  0  0
  9 11  1  0  0  0  0
  9 22  1  0  0  0  0
  7  8  1  0  0  0  0
  7  9  1  0  0  0  0
 26 27  1  0  0  0  0
 26 28  1  0  0  0  0
 26 29  1  0  0  0  0
 24 25  1  0  0  0  0
 24 26  1  0  0  0  0
M  END
$$$$
default_name
  -OEChem-02102213163D

 29 29  0     1  0  0  0  0  0999 V2000
   -2.9561   -3.9186    1.3887 H   0  0  0  0  0  0  0  0  0  0  0  0
   -3.1191   -2.9346    0.9517 C   0  0  0  0  0  0  0  0  0  0  0  0
   -3.7811   -2.3546    1.5917 H   0  0  0  0  0  0  0  0  0  0  0  0
   -3.5591   -3.0406   -0.0383 H   0  0  0  0  0  0  0  0  0  0  0  0
   -1.7921   -2.2226    0.8327 C   0  0  0  0  0  0  0  0  0  0  0  0
   -0.7611   -2.7766    1.1927 O   0  0  0  0  0  0  0  0  0  0  0  0
   -1.8201   -0.9926    0.3247 N   0  0  0  0  0  0  0  0  0  0  0  0
   -2.7141   -0.5816    0.0927 H   0  0  0  0  0  0  0  0  0  0  0  0
   -0.6481   -0.1156    0.2017 C   0  0  1  0  0  0  0  0  0  0  0  0
    0.1042   -0.6345   -0.3958 H   0  0  0  0  0  0  0  0  0  0  0  0
   -1.0420    1.1781   -0.5372 C   0  0  0  0  0  0  0  0  0  0  0  0
   -2.0908    1.4086   -0.3447 H   0  0  0  0  0  0  0  0  0  0  0  0
   -0.4483    2.0128   -0.1620 H   0  0  0  0  0  0  0  0  0  0  0  0
   -0.8729    1.0739   -2.0334 C   0  0  0  0  0  0  0  0  0  0  0  0
   -0.0450    1.8756   -2.8204 N   0  0  0  0  0  0  0  0  0  0  0  0
   -0.1631    1.4109   -4.0728 C   0  0  0  0  0  0  0  0  0  0  0  0
    0.3476    1.8280   -4.9316 H   0  0  0  0  0  0  0  0  0  0  0  0
   -0.9933    0.3550   -4.1053 N   0  0  0  0  0  0  0  0  0  0  0  0
   -1.2283   -0.1809   -4.9296 H   0  0  0  0  0  0  0  0  0  0  0  0
   -1.4486    0.1244   -2.8262 C   0  0  0  0  0  0  0  0  0  0  0  0
   -2.1139   -0.6621   -2.4928 H   0  0  0  0  0  0  0  0  0  0  0  0
   -0.0283    0.1609    1.5831 C   0  0  0  0  0  0  0  0  0  0  0  0
    1.1923    0.1056    1.7329 O   0  0  0  0  0  0  0  0  0  0  0  0
   -0.8586    0.4659    2.5853 N   0  0  0  0  0  0  0  0  0  0  0  0
   -1.8521    0.3848    2.4000 H   0  0  0  0  0  0  0  0  0  0  0  0
   -0.4403    0.7694    3.9518 C   0  0  0  0  0  0  0  0  0  0  0  0
    0.5066    1.3154    3.9421 H   0  0  0  0  0  0  0  0  0  0  0  0
   -1.1988    1.3789    4.4452 H   0  0  0  0  0  0  0  0  0  0  0  0
   -0.3053   -0.1600    4.5075 H   0  0  0  0  0  0  0  0  0  0  0  0
  5  6  2  0  0  0  0
  5  7  1  0  0  0  0
  2  3  1  0  0  0  0
  2  4  1  0  0  0  0
  2  5  1  0  0  0  0
  1  2  1  0  0  0  0
 22 23  2  0  0  0  0
 22 24  1  0  0  0  0
 20 21  1  0  0  0  0
 18 19  1  0  0  0  0
 18 20  1  0  0  0  0
 16 17  1  0  0  0  0
 16 18  1  0  0  0  0
 15 16  2  0  0  0  0
 14 15  1  0  0  0  0
 14 20  2  0  0  0  0
 11 12  1  0  0  0  0
 11 13  1  0  0  0  0
 11 14  1  0  0  0  0
  9 10  1  0  0  0  0
  9 11  1  0  0  0  0
  9 22  1  0  0  0  0
  7  8  1  0  0  0  0
  7  9  1  0  0  0  0
 26 27  1  0  0  0  0
 26 28  1  0  0  0  0
 26 29  1  0  0  0  0
 24 25  1  0  0  0  0
 24 26  1  0  0  0  0
M  END
$$$$
default_name
  -OEChem-02102213163D

 29 29  0     1  0  0  0  0  0999 V2000
   -2.9561   -3.9186    1.3887 H   0  0  0  0  0  0  0  0  0  0  0  0
   -3.1191   -2.9346    0.9517 C   0  0  0  0  0  0  0  0  0  0  0  0
   -3.7811   -2.3546    1.5917 H   0  0  0  0  0  0  0  0  0  0  0  0
   -3.5591   -3.0406   -0.0383 H   0  0  0  0  0  0  0  0  0  0  0  0
   -1.7921   -2.2226    0.8327 C   0  0  0  0  0  0  0  0  0  0  0  0
   -0.7611   -2.7766    1.1927 O   0  0  0  0  0  0  0  0  0  0  0  0
   -1.8201   -0.9926    0.3247 N   0  0  0  0  0  0  0  0  0  0  0  0
   -2.7141   -0.5816    0.0927 H   0  0  0  0  0  0  0  0  0  0  0  0
   -0.6481   -0.1156    0.2017 C   0  0  1  0  0  0  0  0  0  0  0  0
    0.1042   -0.6345   -0.3958 H   0  0  0  0  0  0  0  0  0  0  0  0
   -1.0420    1.1781   -0.5372 C   0  0  0  0  0  0  0  0  0  0  0  0
   -2.0908    1.4086   -0.3447 H   0  0  0  0  0  0  0  0  0  0  0  0
   -0.4483    2.0128   -0.1620 H   0  0  0  0  0  0  0  0  0  0  0  0
   -0.8729    1.0739   -2.0334 C   0  0  0  0  0  0  0  0  0  0  0  0
    0.1496    1.6568   -2.7832 N   0  0  0  0  0  0  0  0  0  0  0  0
   -0.0564    1.2716   -4.0510 C   0  0  0  0  0  0  0  0  0  0  0  0
    0.5625    1.5662   -4.8891 H   0  0  0  0  0  0  0  0  0  0  0  0
   -1.1287    0.4656   -4.1283 N   0  0  0  0  0  0  0  0  0  0  0  0
   -1.4752    0.0302   -4.9722 H   0  0  0  0  0  0  0  0  0  0  0  0
   -1.6554    0.3256   -2.8636 C   0  0  0  0  0  0  0  0  0  0  0  0
   -2.5071   -0.2722   -2.5644 H   0  0  0  0  0  0  0  0  0  0  0  0
   -0.0283    0.1609    1.5831 C   0  0  0  0  0  0  0  0  0  0  0  0
    1.1923    0.1056    1.7329 O   0  0  0  0  0  0  0  0  0  0  0  0
   -0.8586    0.4659    2.5853 N   0  0  0  0  0  0  0  0  0  0  0  0
   -1.8521    0.3848    2.4000 H   0  0  0  0  0  0  0  0  0  0  0  0
   -0.4403    0.7694    3.9518 C   0  0  0  0  0  0  0  0  0  0  0  0
    0.5066    1.3154    3.9421 H   0  0  0  0  0  0  0  0  0  0  0  0
   -1.1988    1.3789    4.4452 H   0  0  0  0  0  0  0  0  0  0  0  0
   -0.3053   -0.1600    4.5075 H   0  0  0  0  0  0  0  0  0  0  0  0
  5  6  2  0  0  0  0
  5  7  1  0  0  0  0
  2  3  1  0  0  0  0
  2  4  1  0  0  0  0
  2  5  1  0  0  0  0
  1  2  1  0  0  0  0
 22 23  2  0  0  0  0
 22 24  1  0  0  0  0
 20 21  1  0  0  0  0
 18 19  1  0  0  0  0
 18 20  1  0  0  0  0
 16 17  1  0  0  0  0
 16 18  1  0  0  0  0
 15 16  2  0  0  0  0
 14 15  1  0  0  0  0
 14 20  2  0  0  0  0
 11 12  1  0  0  0  0
 11 13  1  0  0  0  0
 11 14  1  0  0  0  0
  9 10  1  0  0  0  0
  9 11  1  0  0  0  0
  9 22  1  0  0  0  0
  7  8  1  0  0  0  0
  7  9  1  0  0  0  0
 26 27  1  0  0  0  0
 26 28  1  0  0  0  0
 26 29  1  0  0  0  0
 24 25  1  0  0  0  0
 24 26  1  0  0  0  0
M  END
$$$$
default_name
  -OEChem-02102213163D

 29 29  0     1  0  0  0  0  0999 V2000
   -2.9561   -3.9186    1.3887 H   0  0  0  0  0  0  0  0  0  0  0  0
   -3.1191   -2.9346    0.9517 C   0  0  0  0  0  0  0  0  0  0  0  0
   -3.7811   -2.3546    1.5917 H   0  0  0  0  0  0  0  0  0  0  0  0
   -3.5591   -3.0406   -0.0383 H   0  0  0  0  0  0  0  0  0  0  0  0
   -1.7921   -2.2226    0.8327 C   0  0  0  0  0  0  0  0  0  0  0  0
   -0.7611   -2.7766    1.1927 O   0  0  0  0  0  0  0  0  0  0  0  0
   -1.8201   -0.9926    0.3247 N   0  0  0  0  0  0  0  0  0  0  0  0
   -2.7141   -0.5816    0.0927 H   0  0  0  0  0  0  0  0  0  0  0  0
   -0.6481   -0.1156    0.2017 C   0  0  1  0  0  0  0  0  0  0  0  0
    0.1042   -0.6345   -0.3958 H   0  0  0  0  0  0  0  0  0  0  0  0
   -1.0420    1.1781   -0.5372 C   0  0  0  0  0  0  0  0  0  0  0  0
   -2.0908    1.4086   -0.3447 H   0  0  0  0  0  0  0  0  0  0  0  0
   -0.4483    2.0128   -0.1620 H   0  0  0  0  0  0  0  0  0  0  0  0
   -0.8729    1.0739   -2.0334 C   0  0  0  0  0  0  0  0  0  0  0  0
    0.2809    1.3944   -2.7500 N   0  0  0  0  0  0  0  0  0  0  0  0
    0.0105    1.1090   -4.0321 C   0  0  0  0  0  0  0  0  0  0  0  0
    0.7023    1.2570   -4.8517 H   0  0  0  0  0  0  0  0  0  0  0  0
   -1.2306    0.6077   -4.1497 N   0  0  0  0  0  0  0  0  0  0  0  0
   -1.6588    0.2986   -5.0117 H   0  0  0  0  0  0  0  0  0  0  0  0
   -1.8028    0.5741   -2.8975 C   0  0  0  0  0  0  0  0  0  0  0  0
   -2.7856    0.2073   -2.6293 H   0  0  0  0  0  0  0  0  0  0  0  0
   -0.0283    0.1609    1.5831 C   0  0  0  0  0  0  0  0  0  0  0  0
    1.1923    0.1056    1.7329 O   0  0  0  0  0  0  0  0  0  0  0  0
   -0.8586    0.4659    2.5853 N   0  0  0  0  0  0  0  0  0  0  0  0
   -1.8521    0.3848    2.4000 H   0  0  0  0  0  0  0  0  0  0  0  0
   -0.4403    0.7694    3.9518 C   0  0  0  0  0  0  0  0  0  0  0  0
    0.5066    1.3154    3.9421 H   0  0  0  0  0  0  0  0  0  0  0  0
   -1.1988    1.3789    4.4452 H   0  0  0  0  0  0  0  0  0  0  0  0
   -0.3053   -0.1600    4.5075 H   0  0  0  0  0  0  0  0  0  0  0  0
  5  6  2  0  0  0  0
  5  7  1  0  0  0  0
  2  3  1  0  0  0  0
  2  4  1  0  0  0  0
  2  5  1  0  0  0  0
  1  2  1  0  0  0  0
 22 23  2  0  0  0  0
 22 24  1  0  0  0  0
 20 21  1  0  0  0  0
 18 19  1  0  0  0  0
 18 20  1  0  0  0  0
 16 17  1  0  0  0  0
 16 18  1  0  0  0  0
 15 16  2  0  0  0  0
 14 15  1  0  0  0  0
 14 20  2  0  0  0  0
 11 12  1  0  0  0  0
 11 13  1  0  0  0  0
 11 14  1  0  0  0  0
  9 10  1  0  0  0  0
  9 11  1  0  0  0  0
  9 22  1  0  0  0  0
  7  8  1  0  0  0  0
  7  9  1  0  0  0  0
 26 27  1  0  0  0  0
 26 28  1  0  0  0  0
 26 29  1  0  0  0  0
 24 25  1  0  0  0  0
 24 26  1  0  0  0  0
M  END
$$$$
default_name
  -OEChem-02102213163D

 29 29  0     1  0  0  0  0  0999 V2000
   -2.9561   -3.9186    1.3887 H   0  0  0  0  0  0  0  0  0  0  0  0
   -3.1191   -2.9346    0.9517 C   0  0  0  0  0  0  0  0  0  0  0  0
   -3.7811   -2.3546    1.5917 H   0  0  0  0  0  0  0  0  0  0  0  0
   -3.5591   -3.0406   -0.0383 H   0  0  0  0  0  0  0  0  0  0  0  0
   -1.7921   -2.2226    0.8327 C   0  0  0  0  0  0  0  0  0  0  0  0
   -0.7611   -2.7766    1.1927 O   0  0  0  0  0  0  0  0  0  0  0  0
   -1.8201   -0.9926    0.3247 N   0  0  0  0  0  0  0  0  0  0  0  0
   -2.7141   -0.5816    0.0927 H   0  0  0  0  0  0  0  0  0  0  0  0
   -0.6481   -0.1156    0.2017 C   0  0  1  0  0  0  0  0  0  0  0  0
    0.1042   -0.6345   -0.3958 H   0  0  0  0  0  0  0  0  0  0  0  0
   -1.0420    1.1781   -0.5372 C   0  0  0  0  0  0  0  0  0  0  0  0
   -2.0908    1.4086   -0.3447 H   0  0  0  0  0  0  0  0  0  0  0  0
   -0.4483    2.0128   -0.1620 H   0  0  0  0  0  0  0  0  0  0  0  0
   -0.8729    1.0739   -2.0334 C   0  0  0  0  0  0  0  0  0  0  0  0
    0.3397    1.1063   -2.7233 N   0  0  0  0  0  0  0  0  0  0  0  0
    0.0330    0.9342   -4.0174 C   0  0  0  0  0  0  0  0  0  0  0  0
    0.7573    0.9214   -4.8221 H   0  0  0  0  0  0  0  0  0  0  0  0
   -1.2922    0.7718   -4.1681 N   0  0  0  0  0  0  0  0  0  0  0  0
   -1.7665    0.6062   -5.0453 H   0  0  0  0  0  0  0  0  0  0  0  0
   -1.8809    0.8529   -2.9258 C   0  0  0  0  0  0  0  0  0  0  0  0
   -2.9305    0.7438   -2.6831 H   0  0  0  0  0  0  0  0  0  0  0  0
   -0.0283    0.1609    1.5831 C   0  0  0  0  0  0  0  0  0  0  0  0
    1.1923    0.1056    1.7329 O   0  0  0  0  0  0  0  0  0  0  0  0
   -0.8586    0.4659    2.5853 N   0  0  0  0  0  0  0  0  0  0  0  0
   -1.8521    0.3848    2.4000 H   0  0  0  0  0  0  0  0  0  0  0  0
   -0.4403    0.7694    3.9518 C   0  0  0  0  0  0  0  0  0  0  0  0
    0.5066    1.3154    3.9421 H   0  0  0  0  0  0  0  0  0  0  0  0
   -1.1988    1.3789    4.4452 H   0  0  0  0  0  0  0  0  0  0  0  0
   -0.3053   -0.1600    4.5075 H   0  0  0  0  0  0  0  0  0  0  0  0
  5  6  2  0  0  0  0
  5  7  1  0  0  0  0
  2  3  1  0  0  0  0
  2  4  1  0  0  0  0
  2  5  1  0  0  0  0
  1  2  1  0  0  0  0
 22 23  2  0  0  0  0
 22 24  1  0  0  0  0
 20 21  1  0  0  0  0
 18 19  1  0  0  0  0
 18 20  1  0  0  0  0
 16 17  1  0  0  0  0
 16 18  1  0  0  0  0
 15 16  2  0  0  0  0
 14 15  1  0  0  0  0
 14 20  2  0  0  0  0
 11 12  1  0  0  0  0
 11 13  1  0  0  0  0
 11 14  1  0  0  0  0
  9 10  1  0  0  0  0
  9 11  1  0  0  0  0
  9 22  1  0  0  0  0
  7  8  1  0  0  0  0
  7  9  1  0  0  0  0
 26 27  1  0  0  0  0
 26 28  1  0  0  0  0
 26 29  1  0  0  0  0
 24 25  1  0  0  0  0
 24 26  1  0  0  0  0
M  END
$$$$
default_name
  -OEChem-02102213163D

 29 29  0     1  0  0  0  0  0999 V2000
   -2.9561   -3.9186    1.3887 H   0  0  0  0  0  0  0  0  0  0  0  0
   -3.1191   -2.9346    0.9517 C   0  0  0  0  0  0  0  0  0  0  0  0
   -3.7811   -2.3546    1.5917 H   0  0  0  0  0  0  0  0  0  0  0  0
   -3.5591   -3.0406   -0.0383 H   0  0  0  0  0  0  0  0  0  0  0  0
   -1.7921   -2.2226    0.8327 C   0  0  0  0  0  0  0  0  0  0  0  0
   -0.7611   -2.7766    1.1927 O   0  0  0  0  0  0  0  0  0  0  0  0
   -1.8201   -0.9926    0.3247 N   0  0  0  0  0  0  0  0  0  0  0  0
   -2.7141   -0.5816    0.0927 H   0  0  0  0  0  0  0  0  0  0  0  0
   -0.6481   -0.1156    0.2017 C   0  0  1  0  0  0  0  0  0  0  0  0
    0.1042   -0.6345   -0.3958 H   0  0  0  0  0  0  0  0  0  0  0  0
   -1.0420    1.1781   -0.5372 C   0  0  0  0  0  0  0  0  0  0  0  0
   -2.0908    1.4086   -0.3447 H   0  0  0  0  0  0  0  0  0  0  0  0
   -0.4483    2.0128   -0.1620 H   0  0  0  0  0  0  0  0  0  0  0  0
   -0.8729    1.0739   -2.0334 C   0  0  0  0  0  0  0  0  0  0  0  0
    0.3221    0.8122   -2.7048 N   0  0  0  0  0  0  0  0  0  0  0  0
    0.0097    0.7592   -4.0078 C   0  0  0  0  0  0  0  0  0  0  0  0
    0.7237    0.5823   -4.8023 H   0  0  0  0  0  0  0  0  0  0  0  0
   -1.3093    0.9467   -4.1822 N   0  0  0  0  0  0  0  0  0  0  0  0
   -1.7911    0.9319   -5.0707 H   0  0  0  0  0  0  0  0  0  0  0  0
   -1.8843    1.1431   -2.9464 C   0  0  0  0  0  0  0  0  0  0  0  0
   -2.9318    1.3008   -2.7220 H   0  0  0  0  0  0  0  0  0  0  0  0
   -0.0283    0.1609    1.5831 C   0  0  0  0  0  0  0  0  0  0  0  0
    1.1923    0.1056    1.7329 O   0  0  0  0  0  0  0  0  0  0  0  0
   -0.8586    0.4659    2.5853 N   0  0  0  0  0  0  0  0  0  0  0  0
   -1.8521    0.3848    2.4000 H   0  0  0  0  0  0  0  0  0  0  0  0
   -0.4403    0.7694    3.9518 C   0  0  0  0  0  0  0  0  0  0  0  0
    0.5066    1.3154    3.9421 H   0  0  0  0  0  0  0  0  0  0  0  0
   -1.1988    1.3789    4.4452 H   0  0  0  0  0  0  0  0  0  0  0  0
   -0.3053   -0.1600    4.5075 H   0  0  0  0  0  0  0  0  0  0  0  0
  5  6  2  0  0  0  0
  5  7  1  0  0  0  0
  2  3  1  0  0  0  0
  2  4  1  0  0  0  0
  2  5  1  0  0  0  0
  1  2  1  0  0  0  0
 22 23  2  0  0  0  0
 22 24  1  0  0  0  0
 20 21  1  0  0  0  0
 18 19  1  0  0  0  0
 18 20  1  0  0  0  0
 16 17  1  0  0  0  0
 16 18  1  0  0  0  0
 15 16  2  0  0  0  0
 14 15  1  0  0  0  0
 14 20  2  0  0  0  0
 11 12  1  0  0  0  0
 11 13  1  0  0  0  0
 11 14  1  0  0  0  0
  9 10  1  0  0  0  0
  9 11  1  0  0  0  0
  9 22  1  0  0  0  0
  7  8  1  0  0  0  0
  7  9  1  0  0  0  0
 26 27  1  0  0  0  0
 26 28  1  0  0  0  0
 26 29  1  0  0  0  0
 24 25  1  0  0  0  0
 24 26  1  0  0  0  0
M  END
$$$$
default_name
  -OEChem-02102213163D

 29 29  0     1  0  0  0  0  0999 V2000
   -2.9561   -3.9186    1.3887 H   0  0  0  0  0  0  0  0  0  0  0  0
   -3.1191   -2.9346    0.9517 C   0  0  0  0  0  0  0  0  0  0  0  0
   -3.7811   -2.3546    1.5917 H   0  0  0  0  0  0  0  0  0  0  0  0
   -3.5591   -3.0406   -0.0383 H   0  0  0  0  0  0  0  0  0  0  0  0
   -1.7921   -2.2226    0.8327 C   0  0  0  0  0  0  0  0  0  0  0  0
   -0.7611   -2.7766    1.1927 O   0  0  0  0  0  0  0  0  0  0  0  0
   -1.8201   -0.9926    0.3247 N   0  0  0  0  0  0  0  0  0  0  0  0
   -2.7141   -0.5816    0.0927 H   0  0  0  0  0  0  0  0  0  0  0  0
   -0.6481   -0.1156    0.2017 C   0  0  1  0  0  0  0  0  0  0  0  0
    0.1042   -0.6345   -0.3958 H   0  0  0  0  0  0  0  0  0  0  0  0
   -1.0420    1.1781   -0.5372 C   0  0  0  0  0  0  0  0  0  0  0  0
   -2.0908    1.4086   -0.3447 H   0  0  0  0  0  0  0  0  0  0  0  0
   -0.4483    2.0128   -0.1620 H   0  0  0  0  0  0  0  0  0  0  0  0
   -0.8729    1.0739   -2.0334 C   0  0  0  0  0  0  0  0  0  0  0  0
    0.2294    0.5320   -2.6958 N   0  0  0  0  0  0  0  0  0  0  0  0
   -0.0579    0.5958   -4.0041 C   0  0  0  0  0  0  0  0  0  0  0  0
    0.6040    0.2627   -4.7936 H   0  0  0  0  0  0  0  0  0  0  0  0
   -1.2806    1.1204   -4.1911 N   0  0  0  0  0  0  0  0  0  0  0  0
   -1.7308    1.2535   -5.0863 H   0  0  0  0  0  0  0  0  0  0  0  0
   -1.8128    1.4249   -2.9579 C   0  0  0  0  0  0  0  0  0  0  0  0
   -2.7894    1.8402   -2.7435 H   0  0  0  0  0  0  0  0  0  0  0  0
   -0.0283    0.1609    1.5831 C   0  0  0  0  0  0  0  0  0  0  0  0
    1.1923    0.1056    1.7329 O   0  0  0  0  0  0  0  0  0  0  0  0
   -0.8586    0.4659    2.5853 N   0  0  0  0  0  0  0  0  0  0  0  0
   -1.8521    0.3848    2.4000 H   0  0  0  0  0  0  0  0  0  0  0  0
   -0.4403    0.7694    3.9518 C   0  0  0  0  0  0  0  0  0  0  0  0
    0.5066    1.3154    3.9421 H   0  0  0  0  0  0  0  0  0  0  0  0
   -1.1988    1.3789    4.4452 H   0  0  0  0  0  0  0  0  0  0  0  0
   -0.3053   -0.1600    4.5075 H   0  0  0  0  0  0  0  0  0  0  0  0
  5  6  2  0  0  0  0
  5  7  1  0  0  0  0
  2  3  1  0  0  0  0
  2  4  1  0  0  0  0
  2  5  1  0  0  0  0
  1  2  1  0  0  0  0
 22 23  2  0  0  0  0
 22 24  1  0  0  0  0
 20 21  1  0  0  0  0
 18 19  1  0  0  0  0
 18 20  1  0  0  0  0
 16 17  1  0  0  0  0
 16 18  1  0  0  0  0
 15 16  2  0  0  0  0
 14 15  1  0  0  0  0
 14 20  2  0  0  0  0
 11 12  1  0  0  0  0
 11 13  1  0  0  0  0
 11 14  1  0  0  0  0
  9 10  1  0  0  0  0
  9 11  1  0  0  0  0
  9 22  1  0  0  0  0
  7  8  1  0  0  0  0
  7  9  1  0  0  0  0
 26 27  1  0  0  0  0
 26 28  1  0  0  0  0
 26 29  1  0  0  0  0
 24 25  1  0  0  0  0
 24 26  1  0  0  0  0
M  END
$$$$
default_name
  -OEChem-02102213163D

 29 29  0     1  0  0  0  0  0999 V2000
   -2.9561   -3.9186    1.3887 H   0  0  0  0  0  0  0  0  0  0  0  0
   -3.1191   -2.9346    0.9517 C   0  0  0  0  0  0  0  0  0  0  0  0
   -3.7811   -2.3546    1.5917 H   0  0  0  0  0  0  0  0  0  0  0  0
   -3.5591   -3.0406   -0.0383 H   0  0  0  0  0  0  0  0  0  0  0  0
   -1.7921   -2.2226    0.8327 C   0  0  0  0  0  0  0  0  0  0  0  0
   -0.7611   -2.7766    1.1927 O   0  0  0  0  0  0  0  0  0  0  0  0
   -1.8201   -0.9926    0.3247 N   0  0  0  0  0  0  0  0  0  0  0  0
   -2.7141   -0.5816    0.0927 H   0  0  0  0  0  0  0  0  0  0  0  0
   -0.6481   -0.1156    0.2017 C   0  0  1  0  0  0  0  0  0  0  0  0
    0.1042   -0.6345   -0.3958 H   0  0  0  0  0  0  0  0  0  0  0  0
   -1.0420    1.1781   -0.5372 C   0  0  0  0  0  0  0  0  0  0  0  0
   -2.0908    1.4086   -0.3447 H   0  0  0  0  0  0  0  0  0  0  0  0
   -0.4483    2.0128   -0.1620 H   0  0  0  0  0  0  0  0  0  0  0  0
   -0.8729    1.0739   -2.0334 C   0  0  0  0  0  0  0  0  0  0  0  0
    0.0678    0.2849   -2.6968 N   0  0  0  0  0  0  0  0  0  0  0  0
   -0.1652    0.4553   -4.0064 C   0  0  0  0  0  0  0  0  0  0  0  0
    0.4062   -0.0155   -4.7965 H   0  0  0  0  0  0  0  0  0  0  0  0
   -1.2083    1.2811   -4.1941 N   0  0  0  0  0  0  0  0  0  0  0  0
   -1.5898    1.5492   -5.0910 H   0  0  0  0  0  0  0  0  0  0  0  0
   -1.6712    1.6790   -2.9596 C   0  0  0  0  0  0  0  0  0  0  0  0
   -2.5131    2.3254   -2.7461 H   0  0  0  0  0  0  0  0  0  0  0  0
   -0.0283    0.1609    1.5831 C   0  0  0  0  0  0  0  0  0  0  0  0
    1.1923    0.1056    1.7329 O   0  0  0  0  0  0  0  0  0  0  0  0
   -0.8586    0.4659    2.5853 N   0  0  0  0  0  0  0  0  0  0  0  0
   -1.8521    0.3848    2.4000 H   0  0  0  0  0  0  0  0  0  0  0  0
   -0.4403    0.7694    3.9518 C   0  0  0  0  0  0  0  0  0  0  0  0
    0.5066    1.3154    3.9421 H   0  0  0  0  0  0  0  0  0  0  0  0
   -1.1988    1.3789    4.4452 H   0  0  0  0  0  0  0  0  0  0  0  0
   -0.3053   -0.1600    4.5075 H   0  0  0  0  0  0  0  0  0  0  0  0
  5  6  2  0  0  0  0
  5  7  1  0  0  0  0
  2  3  1  0  0  0  0
  2  4  1  0  0  0  0
  2  5  1  0  0  0  0
  1  2  1  0  0  0  0
 22 23  2  0  0  0  0
 22 24  1  0  0  0  0
 20 21  1  0  0  0  0
 18 19  1  0  0  0  0
 18 20  1  0  0  0  0
 16 17  1  0  0  0  0
 16 18  1  0  0  0  0
 15 16  2  0  0  0  0
 14 15  1  0  0  0  0
 14 20  2  0  0  0  0
 11 12  1  0  0  0  0
 11 13  1  0  0  0  0
 11 14  1  0  0  0  0
  9 10  1  0  0  0  0
  9 11  1  0  0  0  0
  9 22  1  0  0  0  0
  7  8  1  0  0  0  0
  7  9  1  0  0  0  0
 26 27  1  0  0  0  0
 26 28  1  0  0  0  0
 26 29  1  0  0  0  0
 24 25  1  0  0  0  0
 24 26  1  0  0  0  0
M  END
$$$$
default_name
  -OEChem-02102213163D

 29 29  0     1  0  0  0  0  0999 V2000
   -2.9561   -3.9186    1.3887 H   0  0  0  0  0  0  0  0  0  0  0  0
   -3.1191   -2.9346    0.9517 C   0  0  0  0  0  0  0  0  0  0  0  0
   -3.7811   -2.3546    1.5917 H   0  0  0  0  0  0  0  0  0  0  0  0
   -3.5591   -3.0406   -0.0383 H   0  0  0  0  0  0  0  0  0  0  0  0
   -1.7921   -2.2226    0.8327 C   0  0  0  0  0  0  0  0  0  0  0  0
   -0.7611   -2.7766    1.1927 O   0  0  0  0  0  0  0  0  0  0  0  0
   -1.8201   -0.9926    0.3247 N   0  0  0  0  0  0  0  0  0  0  0  0
   -2.7141   -0.5816    0.0927 H   0  0  0  0  0  0  0  0  0  0  0  0
   -0.6481   -0.1156    0.2017 C   0  0  1  0  0  0  0  0  0  0  0  0
    0.1042   -0.6345   -0.3958 H   0  0  0  0  0  0  0  0  0  0  0  0
   -1.0420    1.1781   -0.5372 C   0  0  0  0  0  0  0  0  0  0  0  0
   -2.0908    1.4086   -0.3447 H   0  0  0  0  0  0  0  0  0  0  0  0
   -0.4483    2.0128   -0.1620 H   0  0  0  0  0  0  0  0  0  0  0  0
   -0.8729    1.0739   -2.0334 C   0  0  0  0  0  0  0  0  0  0  0  0
   -0.1517    0.0878   -2.7079 N   0  0  0  0  0  0  0  0  0  0  0  0
   -0.3048    0.3471   -4.0147 C   0  0  0  0  0  0  0  0  0  0  0  0
    0.1438   -0.2334   -4.8110 H   0  0  0  0  0  0  0  0  0  0  0  0
   -1.0971    1.4178   -4.1911 N   0  0  0  0  0  0  0  0  0  0  0  0
   -1.3776    1.7987   -5.0844 H   0  0  0  0  0  0  0  0  0  0  0  0
   -1.4691    1.8882   -2.9514 C   0  0  0  0  0  0  0  0  0  0  0  0
   -2.1217    2.7232   -2.7296 H   0  0  0  0  0  0  0  0  0  0  0  0
   -0.0283    0.1609    1.5831 C   0  0  0  0  0  0  0  0  0  0  0  0
    1.1923    0.1056    1.7329 O   0  0  0  0  0  0  0  0  0  0  0  0
   -0.8586    0.4659    2.5853 N   0  0  0  0  0  0  0  0  0  0  0  0
   -1.8521    0.3848    2.4000 H   0  0  0  0  0  0  0  0  0  0  0  0
   -0.4403    0.7694    3.9518 C   0  0  0  0  0  0  0  0  0  0  0  0
    0.5066    1.3154    3.9421 H   0  0  0  0  0  0  0  0  0  0  0  0
   -1.1988    1.3789    4.4452 H   0  0  0  0  0  0  0  0  0  0  0  0
   -0.3053   -0.1600    4.5075 H   0  0  0  0  0  0  0  0  0  0  0  0
  5  6  2  0  0  0  0
  5  7  1  0  0  0  0
  2  3  1  0  0  0  0
  2  4  1  0  0  0  0
  2  5  1  0  0  0  0
  1  2  1  0  0  0  0
 22 23  2  0  0  0  0
 22 24  1  0  0  0  0
 20 21  1  0  0  0  0
 18 19  1  0  0  0  0
 18 20  1  0  0  0  0
 16 17  1  0  0  0  0
 16 18  1  0  0  0  0
 15 16  2  0  0  0  0
 14 15  1  0  0  0  0
 14 20  2  0  0  0  0
 11 12  1  0  0  0  0
 11 13  1  0  0  0  0
 11 14  1  0  0  0  0
  9 10  1  0  0  0  0
  9 11  1  0  0  0  0
  9 22  1  0  0  0  0
  7  8  1  0  0  0  0
  7  9  1  0  0  0  0
 26 27  1  0  0  0  0
 26 28  1  0  0  0  0
 26 29  1  0  0  0  0
 24 25  1  0  0  0  0
 24 26  1  0  0  0  0
M  END
$$$$
default_name
  -OEChem-02102213163D

 29 29  0     1  0  0  0  0  0999 V2000
   -2.9561   -3.9186    1.3887 H   0  0  0  0  0  0  0  0  0  0  0  0
   -3.1191   -2.9346    0.9517 C   0  0  0  0  0  0  0  0  0  0  0  0
   -3.7811   -2.3546    1.5917 H   0  0  0  0  0  0  0  0  0  0  0  0
   -3.5591   -3.0406   -0.0383 H   0  0  0  0  0  0  0  0  0  0  0  0
   -1.7921   -2.2226    0.8327 C   0  0  0  0  0  0  0  0  0  0  0  0
   -0.7611   -2.7766    1.1927 O   0  0  0  0  0  0  0  0  0  0  0  0
   -1.8201   -0.9926    0.3247 N   0  0  0  0  0  0  0  0  0  0  0  0
   -2.7141   -0.5816    0.0927 H   0  0  0  0  0  0  0  0  0  0  0  0
   -0.6481   -0.1156    0.2017 C   0  0  1  0  0  0  0  0  0  0  0  0
    0.1042   -0.6345   -0.3958 H   0  0  0  0  0  0  0  0  0  0  0  0
   -1.0420    1.1781   -0.5372 C   0  0  0  0  0  0  0  0  0  0  0  0
   -2.0908    1.4086   -0.3447 H   0  0  0  0  0  0  0  0  0  0  0  0
   -0.4483    2.0128   -0.1620 H   0  0  0  0  0  0  0  0  0  0  0  0
   -0.8729    1.0739   -2.0334 C   0  0  0  0  0  0  0  0  0  0  0  0
   -0.4141   -0.0460   -2.7283 N   0  0  0  0  0  0  0  0  0  0  0  0
   -0.4673    0.2786   -4.0283 C   0  0  0  0  0  0  0  0  0  0  0  0
   -0.1653   -0.3761   -4.8360 H   0  0  0  0  0  0  0  0  0  0  0  0
   -0.9547    1.5213   -4.1822 N   0  0  0  0  0  0  0  0  0  0  0  0
   -1.1088    1.9851   -5.0670 H   0  0  0  0  0  0  0  0  0  0  0  0
   -1.2205    2.0382   -2.9337 C   0  0  0  0  0  0  0  0  0  0  0  0
   -1.6419    3.0066   -2.6951 H   0  0  0  0  0  0  0  0  0  0  0  0
   -0.0283    0.1609    1.5831 C   0  0  0  0  0  0  0  0  0  0  0  0
    1.1923    0.1056    1.7329 O   0  0  0  0  0  0  0  0  0  0  0  0
   -0.8586    0.4659    2.5853 N   0  0  0  0  0  0  0  0  0  0  0  0
   -1.8521    0.3848    2.4000 H   0  0  0  0  0  0  0  0  0  0  0  0
   -0.4403    0.7694    3.9518 C   0  0  0  0  0  0  0  0  0  0  0  0
    0.5066    1.3154    3.9421 H   0  0  0  0  0  0  0  0  0  0  0  0
   -1.1988    1.3789    4.4452 H   0  0  0  0  0  0  0  0  0  0  0  0
   -0.3053   -0.1600    4.5075 H   0  0  0  0  0  0  0  0  0  0  0  0
  5  6  2  0  0  0  0
  5  7  1  0  0  0  0
  2  3  1  0  0  0  0
  2  4  1  0  0  0  0
  2  5  1  0  0  0  0
  1  2  1  0  0  0  0
 22 23  2  0  0  0  0
 22 24  1  0  0  0  0
 20 21  1  0  0  0  0
 18 19  1  0  0  0  0
 18 20  1  0  0  0  0
 16 17  1  0  0  0  0
 16 18  1  0  0  0  0
 15 16  2  0  0  0  0
 14 15  1  0  0  0  0
 14 20  2  0  0  0  0
 11 12  1  0  0  0  0
 11 13  1  0  0  0  0
 11 14  1  0  0  0  0
  9 10  1  0  0  0  0
  9 11  1  0  0  0  0
  9 22  1  0  0  0  0
  7  8  1  0  0  0  0
  7  9  1  0  0  0  0
 26 27  1  0  0  0  0
 26 28  1  0  0  0  0
 26 29  1  0  0  0  0
 24 25  1  0  0  0  0
 24 26  1  0  0  0  0
M  END
$$$$
default_name
  -OEChem-02102213163D

 29 29  0     1  0  0  0  0  0999 V2000
   -2.9561   -3.9186    1.3887 H   0  0  0  0  0  0  0  0  0  0  0  0
   -3.1191   -2.9346    0.9517 C   0  0  0  0  0  0  0  0  0  0  0  0
   -3.7811   -2.3546    1.5917 H   0  0  0  0  0  0  0  0  0  0  0  0
   -3.5591   -3.0406   -0.0383 H   0  0  0  0  0  0  0  0  0  0  0  0
   -1.7921   -2.2226    0.8327 C   0  0  0  0  0  0  0  0  0  0  0  0
   -0.7611   -2.7766    1.1927 O   0  0  0  0  0  0  0  0  0  0  0  0
   -1.8201   -0.9926    0.3247 N   0  0  0  0  0  0  0  0  0  0  0  0
   -2.7141   -0.5816    0.0927 H   0  0  0  0  0  0  0  0  0  0  0  0
   -0.6481   -0.1156    0.2017 C   0  0  1  0  0  0  0  0  0  0  0  0
    0.1042   -0.6345   -0.3958 H   0  0  0  0  0  0  0  0  0  0  0  0
   -1.0420    1.1781   -0.5372 C   0  0  0  0  0  0  0  0  0  0  0  0
   -2.0908    1.4086   -0.3447 H   0  0  0  0  0  0  0  0  0  0  0  0
   -0.4483    2.0128   -0.1620 H   0  0  0  0  0  0  0  0  0  0  0  0
   -0.8729    1.0739   -2.0334 C   0  0  0  0  0  0  0  0  0  0  0  0
   -0.7015   -0.1073   -2.7565 N   0  0  0  0  0  0  0  0  0  0  0  0
   -0.6416    0.2546   -4.0463 C   0  0  0  0  0  0  0  0  0  0  0  0
   -0.5001   -0.4339   -4.8698 H   0  0  0  0  0  0  0  0  0  0  0  0
   -0.7907    1.5844   -4.1680 N   0  0  0  0  0  0  0  0  0  0  0  0
   -0.8016    2.0957   -5.0400 H   0  0  0  0  0  0  0  0  0  0  0  0
   -0.9421    2.1188   -2.9079 C   0  0  0  0  0  0  0  0  0  0  0  0
   -1.1063    3.1562   -2.6450 H   0  0  0  0  0  0  0  0  0  0  0  0
   -0.0283    0.1609    1.5831 C   0  0  0  0  0  0  0  0  0  0  0  0
    1.1923    0.1056    1.7329 O   0  0  0  0  0  0  0  0  0  0  0  0
   -0.8586    0.4659    2.5853 N   0  0  0  0  0  0  0  0  0  0  0  0
   -1.8521    0.3848    2.4000 H   0  0  0  0  0  0  0  0  0  0  0  0
   -0.4403    0.7694    3.9518 C   0  0  0  0  0  0  0  0  0  0  0  0
    0.5066    1.3154    3.9421 H   0  0  0  0  0  0  0  0  0  0  0  0
   -1.1988    1.3789    4.4452 H   0  0  0  0  0  0  0  0  0  0  0  0
   -0.3053   -0.1600    4.5075 H   0  0  0  0  0  0  0  0  0  0  0  0
  5  6  2  0  0  0  0
  5  7  1  0  0  0  0
  2  3  1  0  0  0  0
  2  4  1  0  0  0  0
  2  5  1  0  0  0  0
  1  2  1  0  0  0  0
 22 23  2  0  0  0  0
 22 24  1  0  0  0  0
 20 21  1  0  0  0  0
 18 19  1  0  0  0  0
 18 20  1  0  0  0  0
 16 17  1  0  0  0  0
 16 18  1  0  0  0  0
 15 16  2  0  0  0  0
 14 15  1  0  0  0  0
 14 20  2  0  0  0  0
 11 12  1  0  0  0  0
 11 13  1  0  0  0  0
 11 14  1  0  0  0  0
  9 10  1  0  0  0  0
  9 11  1  0  0  0  0
  9 22  1  0  0  0  0
  7  8  1  0  0  0  0
  7  9  1  0  0  0  0
 26 27  1  0  0  0  0
 26 28  1  0  0  0  0
 26 29  1  0  0  0  0
 24 25  1  0  0  0  0
 24 26  1  0  0  0  0
M  END
$$$$
default_name
  -OEChem-02102213163D

 29 29  0     1  0  0  0  0  0999 V2000
   -2.9561   -3.9186    1.3887 H   0  0  0  0  0  0  0  0  0  0  0  0
   -3.1191   -2.9346    0.9517 C   0  0  0  0  0  0  0  0  0  0  0  0
   -3.7811   -2.3546    1.5917 H   0  0  0  0  0  0  0  0  0  0  0  0
   -3.5591   -3.0406   -0.0383 H   0  0  0  0  0  0  0  0  0  0  0  0
   -1.7921   -2.2226    0.8327 C   0  0  0  0  0  0  0  0  0  0  0  0
   -0.7611   -2.7766    1.1927 O   0  0  0  0  0  0  0  0  0  0  0  0
   -1.8201   -0.9926    0.3247 N   0  0  0  0  0  0  0  0  0  0  0  0
   -2.7141   -0.5816    0.0927 H   0  0  0  0  0  0  0  0  0  0  0  0
   -0.6481   -0.1156    0.2017 C   0  0  1  0  0  0  0  0  0  0  0  0
    0.1042   -0.6345   -0.3958 H   0  0  0  0  0  0  0  0  0  0  0  0
   -1.0420    1.1781   -0.5372 C   0  0  0  0  0  0  0  0  0  0  0  0
   -2.0908    1.4086   -0.3447 H   0  0  0  0  0  0  0  0  0  0  0  0
   -0.4483    2.0128   -0.1620 H   0  0  0  0  0  0  0  0  0  0  0  0
   -0.8729    1.0739   -2.0334 C   0  0  0  0  0  0  0  0  0  0  0  0
   -0.9944   -0.0920   -2.7906 N   0  0  0  0  0  0  0  0  0  0  0  0
   -0.8157    0.2767   -4.0675 C   0  0  0  0  0  0  0  0  0  0  0  0
   -0.8376   -0.4029   -4.9101 H   0  0  0  0  0  0  0  0  0  0  0  0
   -0.6164    1.6029   -4.1496 N   0  0  0  0  0  0  0  0  0  0  0  0
   -0.4770    2.1229   -5.0052 H   0  0  0  0  0  0  0  0  0  0  0  0
   -0.6531    2.1245   -2.8756 C   0  0  0  0  0  0  0  0  0  0  0  0
   -0.5515    3.1619   -2.5827 H   0  0  0  0  0  0  0  0  0  0  0  0
   -0.0283    0.1609    1.5831 C   0  0  0  0  0  0  0  0  0  0  0  0
    1.1923    0.1056    1.7329 O   0  0  0  0  0  0  0  0  0  0  0  0
   -0.8586    0.4659    2.5853 N   0  0  0  0  0  0  0  0  0  0  0  0
   -1.8521    0.3848    2.4000 H   0  0  0  0  0  0  0  0  0  0  0  0
   -0.4403    0.7694    3.9518 C   0  0  0  0  0  0  0  0  0  0  0  0
    0.5066    1.3154    3.9421 H   0  0  0  0  0  0  0  0  0  0  0  0
   -1.1988    1.3789    4.4452 H   0  0  0  0  0  0  0  0  0  0  0  0
   -0.3053   -0.1600    4.5075 H   0  0  0  0  0  0  0  0  0  0  0  0
  5  6  2  0  0  0  0
  5  7  1  0  0  0  0
  2  3  1  0  0  0  0
  2  4  1  0  0  0  0
  2  5  1  0  0  0  0
  1  2  1  0  0  0  0
 22 23  2  0  0  0  0
 22 24  1  0  0  0  0
 20 21  1  0  0  0  0
 18 19  1  0  0  0  0
 18 20  1  0  0  0  0
 16 17  1  0  0  0  0
 16 18  1  0  0  0  0
 15 16  2  0  0  0  0
 14 15  1  0  0  0  0
 14 20  2  0  0  0  0
 11 12  1  0  0  0  0
 11 13  1  0  0  0  0
 11 14  1  0  0  0  0
  9 10  1  0  0  0  0
  9 11  1  0  0  0  0
  9 22  1  0  0  0  0
  7  8  1  0  0  0  0
  7  9  1  0  0  0  0
 26 27  1  0  0  0  0
 26 28  1  0  0  0  0
 26 29  1  0  0  0  0
 24 25  1  0  0  0  0
 24 26  1  0  0  0  0
M  END
$$$$
default_name
  -OEChem-02102213163D

 29 29  0     1  0  0  0  0  0999 V2000
   -2.9561   -3.9186    1.3887 H   0  0  0  0  0  0  0  0  0  0  0  0
   -3.1191   -2.9346    0.9517 C   0  0  0  0  0  0  0  0  0  0  0  0
   -3.7811   -2.3546    1.5917 H   0  0  0  0  0  0  0  0  0  0  0  0
   -3.5591   -3.0406   -0.0383 H   0  0  0  0  0  0  0  0  0  0  0  0
   -1.7921   -2.2226    0.8327 C   0  0  0  0  0  0  0  0  0  0  0  0
   -0.7611   -2.7766    1.1927 O   0  0  0  0  0  0  0  0  0  0  0  0
   -1.8201   -0.9926    0.3247 N   0  0  0  0  0  0  0  0  0  0  0  0
   -2.7141   -0.5816    0.0927 H   0  0  0  0  0  0  0  0  0  0  0  0
   -0.6481   -0.1156    0.2017 C   0  0  1  0  0  0  0  0  0  0  0  0
    0.1042   -0.6345   -0.3958 H   0  0  0  0  0  0  0  0  0  0  0  0
   -1.0420    1.1781   -0.5372 C   0  0  0  0  0  0  0  0  0  0  0  0
   -2.0908    1.4086   -0.3447 H   0  0  0  0  0  0  0  0  0  0  0  0
   -0.4483    2.0128   -0.1620 H   0  0  0  0  0  0  0  0  0  0  0  0
   -0.8729    1.0739   -2.0334 C   0  0  0  0  0  0  0  0  0  0  0  0
   -1.2727   -0.0011   -2.8284 N   0  0  0  0  0  0  0  0  0  0  0  0
   -0.9779    0.3433   -4.0905 C   0  0  0  0  0  0  0  0  0  0  0  0
   -1.1550   -0.2851   -4.9542 H   0  0  0  0  0  0  0  0  0  0  0  0
   -0.4436    1.5755   -4.1282 N   0  0  0  0  0  0  0  0  0  0  0  0
   -0.1571    2.0649   -4.9650 H   0  0  0  0  0  0  0  0  0  0  0  0
   -0.3729    2.0548   -2.8391 C   0  0  0  0  0  0  0  0  0  0  0  0
   -0.0153    3.0232   -2.5124 H   0  0  0  0  0  0  0  0  0  0  0  0
   -0.0283    0.1609    1.5831 C   0  0  0  0  0  0  0  0  0  0  0  0
    1.1923    0.1056    1.7329 O   0  0  0  0  0  0  0  0  0  0  0  0
   -0.8586    0.4659    2.5853 N   0  0  0  0  0  0  0  0  0  0  0  0
   -1.8521    0.3848    2.4000 H   0  0  0  0  0  0  0  0  0  0  0  0
   -0.4403    0.7694    3.9518 C   0  0  0  0  0  0  0  0  0  0  0  0
    0.5066    1.3154    3.9421 H   0  0  0  0  0  0  0  0  0  0  0  0
   -1.1988    1.3789    4.4452 H   0  0  0  0  0  0  0  0  0  0  0  0
   -0.3053   -0.1600    4.5075 H   0  0  0  0  0  0  0  0  0  0  0  0
  5  6  2  0  0  0  0
  5  7  1  0  0  0  0
  2  3  1  0  0  0  0
  2  4  1  0  0  0  0
  2  5  1  0  0  0  0
  1  2  1  0  0  0  0
 22 23  2  0  0  0  0
 22 24  1  0  0  0  0
 20 21  1  0  0  0  0
 18 19  1  0  0  0  0
 18 20  1  0  0  0  0
 16 17  1  0  0  0  0
 16 18  1  0  0  0  0
 15 16  2  0  0  0  0
 14 15  1  0  0  0  0
 14 20  2  0  0  0  0
 11 12  1  0  0  0  0
 11 13  1  0  0  0  0
 11 14  1  0  0  0  0
  9 10  1  0  0  0  0
  9 11  1  0  0  0  0
  9 22  1  0  0  0  0
  7  8  1  0  0  0  0
  7  9  1  0  0  0  0
 26 27  1  0  0  0  0
 26 28  1  0  0  0  0
 26 29  1  0  0  0  0
 24 25  1  0  0  0  0
 24 26  1  0  0  0  0
M  END
$$$$
default_name
  -OEChem-02102213163D

 29 29  0     1  0  0  0  0  0999 V2000
   -2.9561   -3.9186    1.3887 H   0  0  0  0  0  0  0  0  0  0  0  0
   -3.1191   -2.9346    0.9517 C   0  0  0  0  0  0  0  0  0  0  0  0
   -3.7811   -2.3546    1.5917 H   0  0  0  0  0  0  0  0  0  0  0  0
   -3.5591   -3.0406   -0.0383 H   0  0  0  0  0  0  0  0  0  0  0  0
   -1.7921   -2.2226    0.8327 C   0  0  0  0  0  0  0  0  0  0  0  0
   -0.7611   -2.7766    1.1927 O   0  0  0  0  0  0  0  0  0  0  0  0
   -1.8201   -0.9926    0.3247 N   0  0  0  0  0  0  0  0  0  0  0  0
   -2.7141   -0.5816    0.0927 H   0  0  0  0  0  0  0  0  0  0  0  0
   -0.6481   -0.1156    0.2017 C   0  0  1  0  0  0  0  0  0  0  0  0
    0.1042   -0.6345   -0.3958 H   0  0  0  0  0  0  0  0  0  0  0  0
   -1.0420    1.1781   -0.5372 C   0  0  0  0  0  0  0  0  0  0  0  0
   -2.0908    1.4086   -0.3447 H   0  0  0  0  0  0  0  0  0  0  0  0
   -0.4483    2.0128   -0.1620 H   0  0  0  0  0  0  0  0  0  0  0  0
   -0.8729    1.0739   -2.0334 C   0  0  0  0  0  0  0  0  0  0  0  0
   -1.5176    0.1593   -2.8673 N   0  0  0  0  0  0  0  0  0  0  0  0
   -1.1171    0.4499   -4.1137 C   0  0  0  0  0  0  0  0  0  0  0  0
   -1.4306   -0.0887   -4.9990 H   0  0  0  0  0  0  0  0  0  0  0  0
   -0.2841    1.5041   -4.1052 N   0  0  0  0  0  0  0  0  0  0  0  0
    0.1363    1.9256   -4.9221 H   0  0  0  0  0  0  0  0  0  0  0  0
   -0.1209    1.9146   -2.8008 C   0  0  0  0  0  0  0  0  0  0  0  0
    0.4658    2.7496   -2.4389 H   0  0  0  0  0  0  0  0  0  0  0  0
   -0.0283    0.1609    1.5831 C   0  0  0  0  0  0  0  0  0  0  0  0
    1.1923    0.1056    1.7329 O   0  0  0  0  0  0  0  0  0  0  0  0
   -0.8586    0.4659    2.5853 N   0  0  0  0  0  0  0  0  0  0  0  0
   -1.8521    0.3848    2.4000 H   0  0  0  0  0  0  0  0  0  0  0  0
   -0.4403    0.7694    3.9518 C   0  0  0  0  0  0  0  0  0  0  0  0
    0.5066    1.3154    3.9421 H   0  0  0  0  0  0  0  0  0  0  0  0
   -1.1988    1.3789    4.4452 H   0  0  0  0  0  0  0  0  0  0  0  0
   -0.3053   -0.1600    4.5075 H   0  0  0  0  0  0  0  0  0  0  0  0
  5  6  2  0  0  0  0
  5  7  1  0  0  0  0
  2  3  1  0  0  0  0
  2  4  1  0  0  0  0
  2  5  1  0  0  0  0
  1  2  1  0  0  0  0
 22 23  2  0  0  0  0
 22 24  1  0  0  0  0
 20 21  1  0  0  0  0
 18 19  1  0  0  0  0
 18 20  1  0  0  0  0
 16 17  1  0  0  0  0
 16 18  1  0  0  0  0
 15 16  2  0  0  0  0
 14 15  1  0  0  0  0
 14 20  2  0  0  0  0
 11 12  1  0  0  0  0
 11 13  1  0  0  0  0
 11 14  1  0  0  0  0
  9 10  1  0  0  0  0
  9 11  1  0  0  0  0
  9 22  1  0  0  0  0
  7  8  1  0  0  0  0
  7  9  1  0  0  0  0
 26 27  1  0  0  0  0
 26 28  1  0  0  0  0
 26 29  1  0  0  0  0
 24 25  1  0  0  0  0
 24 26  1  0  0  0  0
M  END
$$$$
default_name
  -OEChem-02102213163D

 29 29  0     1  0  0  0  0  0999 V2000
   -2.9561   -3.9186    1.3887 H   0  0  0  0  0  0  0  0  0  0  0  0
   -3.1191   -2.9346    0.9517 C   0  0  0  0  0  0  0  0  0  0  0  0
   -3.7811   -2.3546    1.5917 H   0  0  0  0  0  0  0  0  0  0  0  0
   -3.5591   -3.0406   -0.0383 H   0  0  0  0  0  0  0  0  0  0  0  0
   -1.7921   -2.2226    0.8327 C   0  0  0  0  0  0  0  0  0  0  0  0
   -0.7611   -2.7766    1.1927 O   0  0  0  0  0  0  0  0  0  0  0  0
   -1.8201   -0.9926    0.3247 N   0  0  0  0  0  0  0  0  0  0  0  0
   -2.7141   -0.5816    0.0927 H   0  0  0  0  0  0  0  0  0  0  0  0
   -0.6481   -0.1156    0.2017 C   0  0  1  0  0  0  0  0  0  0  0  0
    0.1042   -0.6345   -0.3958 H   0  0  0  0  0  0  0  0  0  0  0  0
   -1.0420    1.1781   -0.5372 C   0  0  0  0  0  0  0  0  0  0  0  0
   -2.0908    1.4086   -0.3447 H   0  0  0  0  0  0  0  0  0  0  0  0
   -0.4483    2.0128   -0.1620 H   0  0  0  0  0  0  0  0  0  0  0  0
   -0.8729    1.0739   -2.0334 C   0  0  0  0  0  0  0  0  0  0  0  0
   -1.7122    0.3781   -2.9045 N   0  0  0  0  0  0  0  0  0  0  0  0
   -1.2238    0.5892   -4.1354 C   0  0  0  0  0  0  0  0  0  0  0  0
   -1.6456    0.1730   -5.0416 H   0  0  0  0  0  0  0  0  0  0  0  0
   -0.1488    1.3935   -4.0822 N   0  0  0  0  0  0  0  0  0  0  0  0
    0.3832    1.7146   -4.8795 H   0  0  0  0  0  0  0  0  0  0  0  0
    0.0859    1.7135   -2.7634 C   0  0  0  0  0  0  0  0  0  0  0  0
    0.8591    2.3597   -2.3673 H   0  0  0  0  0  0  0  0  0  0  0  0
   -0.0283    0.1609    1.5831 C   0  0  0  0  0  0  0  0  0  0  0  0
    1.1923    0.1056    1.7329 O   0  0  0  0  0  0  0  0  0  0  0  0
   -0.8586    0.4659    2.5853 N   0  0  0  0  0  0  0  0  0  0  0  0
   -1.8521    0.3848    2.4000 H   0  0  0  0  0  0  0  0  0  0  0  0
   -0.4403    0.7694    3.9518 C   0  0  0  0  0  0  0  0  0  0  0  0
    0.5066    1.3154    3.9421 H   0  0  0  0  0  0  0  0  0  0  0  0
   -1.1988    1.3789    4.4452 H   0  0  0  0  0  0  0  0  0  0  0  0
   -0.3053   -0.1600    4.5075 H   0  0  0  0  0  0  0  0  0  0  0  0
  5  6  2  0  0  0  0
  5  7  1  0  0  0  0
  2  3  1  0  0  0  0
  2  4  1  0  0  0  0
  2  5  1  0  0  0  0
  1  2  1  0  0  0  0
 22 23  2  0  0  0  0
 22 24  1  0  0  0  0
 20 21  1  0  0  0  0
 18 19  1  0  0  0  0
 18 20  1  0  0  0  0
 16 17  1  0  0  0  0
 16 18  1  0  0  0  0
 15 16  2  0  0  0  0
 14 15  1  0  0  0  0
 14 20  2  0  0  0  0
 11 12  1  0  0  0  0
 11 13  1  0  0  0  0
 11 14  1  0  0  0  0
  9 10  1  0  0  0  0
  9 11  1  0  0  0  0
  9 22  1  0  0  0  0
  7  8  1  0  0  0  0
  7  9  1  0  0  0  0
 26 27  1  0  0  0  0
 26 28  1  0  0  0  0
 26 29  1  0  0  0  0
 24 25  1  0  0  0  0
 24 26  1  0  0  0  0
M  END
$$$$
default_name
  -OEChem-02102213163D

 29 29  0     1  0  0  0  0  0999 V2000
   -2.9561   -3.9186    1.3887 H   0  0  0  0  0  0  0  0  0  0  0  0
   -3.1191   -2.9346    0.9517 C   0  0  0  0  0  0  0  0  0  0  0  0
   -3.7811   -2.3546    1.5917 H   0  0  0  0  0  0  0  0  0  0  0  0
   -3.5591   -3.0406   -0.0383 H   0  0  0  0  0  0  0  0  0  0  0  0
   -1.7921   -2.2226    0.8327 C   0  0  0  0  0  0  0  0  0  0  0  0
   -0.7611   -2.7766    1.1927 O   0  0  0  0  0  0  0  0  0  0  0  0
   -1.8201   -0.9926    0.3247 N   0  0  0  0  0  0  0  0  0  0  0  0
   -2.7141   -0.5816    0.0927 H   0  0  0  0  0  0  0  0  0  0  0  0
   -0.6481   -0.1156    0.2017 C   0  0  1  0  0  0  0  0  0  0  0  0
    0.1042   -0.6345   -0.3958 H   0  0  0  0  0  0  0  0  0  0  0  0
   -1.0420    1.1781   -0.5372 C   0  0  0  0  0  0  0  0  0  0  0  0
   -2.0908    1.4086   -0.3447 H   0  0  0  0  0  0  0  0  0  0  0  0
   -0.4483    2.0128   -0.1620 H   0  0  0  0  0  0  0  0  0  0  0  0
   -0.8729    1.0739   -2.0334 C   0  0  0  0  0  0  0  0  0  0  0  0
   -1.8435    0.6405   -2.9376 N   0  0  0  0  0  0  0  0  0  0  0  0
   -1.2906    0.7518   -4.1543 C   0  0  0  0  0  0  0  0  0  0  0  0
   -1.7853    0.4822   -5.0789 H   0  0  0  0  0  0  0  0  0  0  0  0
   -0.0469    1.2514   -4.0608 N   0  0  0  0  0  0  0  0  0  0  0  0
    0.5668    1.4461   -4.8401 H   0  0  0  0  0  0  0  0  0  0  0  0
    0.2334    1.4650   -2.7295 C   0  0  0  0  0  0  0  0  0  0  0  0
    1.1376    1.8802   -2.3025 H   0  0  0  0  0  0  0  0  0  0  0  0
   -0.0283    0.1609    1.5831 C   0  0  0  0  0  0  0  0  0  0  0  0
    1.1923    0.1056    1.7329 O   0  0  0  0  0  0  0  0  0  0  0  0
   -0.8586    0.4659    2.5853 N   0  0  0  0  0  0  0  0  0  0  0  0
   -1.8521    0.3848    2.4000 H   0  0  0  0  0  0  0  0  0  0  0  0
   -0.4403    0.7694    3.9518 C   0  0  0  0  0  0  0  0  0  0  0  0
    0.5066    1.3154    3.9421 H   0  0  0  0  0  0  0  0  0  0  0  0
   -1.1988    1.3789    4.4452 H   0  0  0  0  0  0  0  0  0  0  0  0
   -0.3053   -0.1600    4.5075 H   0  0  0  0  0  0  0  0  0  0  0  0
  5  6  2  0  0  0  0
  5  7  1  0  0  0  0
  2  3  1  0  0  0  0
  2  4  1  0  0  0  0
  2  5  1  0  0  0  0
  1  2  1  0  0  0  0
 22 23  2  0  0  0  0
 22 24  1  0  0  0  0
 20 21  1  0  0  0  0
 18 19  1  0  0  0  0
 18 20  1  0  0  0  0
 16 17  1  0  0  0  0
 16 18  1  0  0  0  0
 15 16  2  0  0  0  0
 14 15  1  0  0  0  0
 14 20  2  0  0  0  0
 11 12  1  0  0  0  0
 11 13  1  0  0  0  0
 11 14  1  0  0  0  0
  9 10  1  0  0  0  0
  9 11  1  0  0  0  0
  9 22  1  0  0  0  0
  7  8  1  0  0  0  0
  7  9  1  0  0  0  0
 26 27  1  0  0  0  0
 26 28  1  0  0  0  0
 26 29  1  0  0  0  0
 24 25  1  0  0  0  0
 24 26  1  0  0  0  0
M  END
$$$$
default_name
  -OEChem-02102213163D

 29 29  0     1  0  0  0  0  0999 V2000
   -2.9561   -3.9186    1.3887 H   0  0  0  0  0  0  0  0  0  0  0  0
   -3.1191   -2.9346    0.9517 C   0  0  0  0  0  0  0  0  0  0  0  0
   -3.7811   -2.3546    1.5917 H   0  0  0  0  0  0  0  0  0  0  0  0
   -3.5591   -3.0406   -0.0383 H   0  0  0  0  0  0  0  0  0  0  0  0
   -1.7921   -2.2226    0.8327 C   0  0  0  0  0  0  0  0  0  0  0  0
   -0.7611   -2.7766    1.1927 O   0  0  0  0  0  0  0  0  0  0  0  0
   -1.8201   -0.9926    0.3247 N   0  0  0  0  0  0  0  0  0  0  0  0
   -2.7141   -0.5816    0.0927 H   0  0  0  0  0  0  0  0  0  0  0  0
   -0.6481   -0.1156    0.2017 C   0  0  1  0  0  0  0  0  0  0  0  0
    0.1042   -0.6345   -0.3958 H   0  0  0  0  0  0  0  0  0  0  0  0
   -1.0420    1.1781   -0.5372 C   0  0  0  0  0  0  0  0  0  0  0  0
   -2.0908    1.4086   -0.3447 H   0  0  0  0  0  0  0  0  0  0  0  0
   -0.4483    2.0128   -0.1620 H   0  0  0  0  0  0  0  0  0  0  0  0
   -0.8729    1.0739   -2.0334 C   0  0  0  0  0  0  0  0  0  0  0  0
   -1.9023    0.9286   -2.9643 N   0  0  0  0  0  0  0  0  0  0  0  0
   -1.3132    0.9266   -4.1690 C   0  0  0  0  0  0  0  0  0  0  0  0
   -1.8403    0.8179   -5.1085 H   0  0  0  0  0  0  0  0  0  0  0  0
    0.0147    1.0873   -4.0424 N   0  0  0  0  0  0  0  0  0  0  0  0
    0.6746    1.1386   -4.8065 H   0  0  0  0  0  0  0  0  0  0  0  0
    0.3115    1.1862   -2.7012 C   0  0  0  0  0  0  0  0  0  0  0  0
    1.2824    1.3437   -2.2487 H   0  0  0  0  0  0  0  0  0  0  0  0
   -0.0283    0.1609    1.5831 C   0  0  0  0  0  0  0  0  0  0  0  0
    1.1923    0.1056    1.7329 O   0  0  0  0  0  0  0  0  0  0  0  0
   -0.8586    0.4659    2.5853 N   0  0  0  0  0  0  0  0  0  0  0  0
   -1.8521    0.3848    2.4000 H   0  0  0  0  0  0  0  0  0  0  0  0
   -0.4403    0.7694    3.9518 C   0  0  0  0  0  0  0  0  0  0  0  0
    0.5066    1.3154    3.9421 H   0  0  0  0  0  0  0  0  0  0  0  0
   -1.1988    1.3789    4.4452 H   0  0  0  0  0  0  0  0  0  0  0  0
   -0.3053   -0.1600    4.5075 H   0  0  0  0  0  0  0  0  0  0  0  0
  5  6  2  0  0  0  0
  5  7  1  0  0  0  0
  2  3  1  0  0  0  0
  2  4  1  0  0  0  0
  2  5  1  0  0  0  0
  1  2  1  0  0  0  0
 22 23  2  0  0  0  0
 22 24  1  0  0  0  0
 20 21  1  0  0  0  0
 18 19  1  0  0  0  0
 18 20  1  0  0  0  0
 16 17  1  0  0  0  0
 16 18  1  0  0  0  0
 15 16  2  0  0  0  0
 14 15  1  0  0  0  0
 14 20  2  0  0  0  0
 11 12  1  0  0  0  0
 11 13  1  0  0  0  0
 11 14  1  0  0  0  0
  9 10  1  0  0  0  0
  9 11  1  0  0  0  0
  9 22  1  0  0  0  0
  7  8  1  0  0  0  0
  7  9  1  0  0  0  0
 26 27  1  0  0  0  0
 26 28  1  0  0  0  0
 26 29  1  0  0  0  0
 24 25  1  0  0  0  0
 24 26  1  0  0  0  0
M  END
$$$$
default_name
  -OEChem-02102213163D

 29 29  0     1  0  0  0  0  0999 V2000
   -2.9561   -3.9186    1.3887 H   0  0  0  0  0  0  0  0  0  0  0  0
   -3.1191   -2.9346    0.9517 C   0  0  0  0  0  0  0  0  0  0  0  0
   -3.7811   -2.3546    1.5917 H   0  0  0  0  0  0  0  0  0  0  0  0
   -3.5591   -3.0406   -0.0383 H   0  0  0  0  0  0  0  0  0  0  0  0
   -1.7921   -2.2226    0.8327 C   0  0  0  0  0  0  0  0  0  0  0  0
   -0.7611   -2.7766    1.1927 O   0  0  0  0  0  0  0  0  0  0  0  0
   -1.8201   -0.9926    0.3247 N   0  0  0  0  0  0  0  0  0  0  0  0
   -2.7141   -0.5816    0.0927 H   0  0  0  0  0  0  0  0  0  0  0  0
   -0.6481   -0.1156    0.2017 C   0  0  1  0  0  0  0  0  0  0  0  0
    0.1042   -0.6345   -0.3958 H   0  0  0  0  0  0  0  0  0  0  0  0
   -1.0420    1.1781   -0.5372 C   0  0  0  0  0  0  0  0  0  0  0  0
   -2.0908    1.4086   -0.3447 H   0  0  0  0  0  0  0  0  0  0  0  0
   -0.4483    2.0128   -0.1620 H   0  0  0  0  0  0  0  0  0  0  0  0
   -0.8729    1.0739   -2.0334 C   0  0  0  0  0  0  0  0  0  0  0  0
   -1.8847    1.2227   -2.9829 N   0  0  0  0  0  0  0  0  0  0  0  0
   -1.2899    1.1016   -4.1786 C   0  0  0  0  0  0  0  0  0  0  0  0
   -1.8068    1.1570   -5.1283 H   0  0  0  0  0  0  0  0  0  0  0  0
    0.0318    0.9124   -4.0283 N   0  0  0  0  0  0  0  0  0  0  0  0
    0.6992    0.8129   -4.7810 H   0  0  0  0  0  0  0  0  0  0  0  0
    0.3149    0.8960   -2.6806 C   0  0  0  0  0  0  0  0  0  0  0  0
    1.2837    0.7867   -2.2098 H   0  0  0  0  0  0  0  0  0  0  0  0
   -0.0283    0.1609    1.5831 C   0  0  0  0  0  0  0  0  0  0  0  0
    1.1923    0.1056    1.7329 O   0  0  0  0  0  0  0  0  0  0  0  0
   -0.8586    0.4659    2.5853 N   0  0  0  0  0  0  0  0  0  0  0  0
   -1.8521    0.3848    2.4000 H   0  0  0  0  0  0  0  0  0  0  0  0
   -0.4403    0.7694    3.9518 C   0  0  0  0  0  0  0  0  0  0  0  0
    0.5066    1.3154    3.9421 H   0  0  0  0  0  0  0  0  0  0  0  0
   -1.1988    1.3789    4.4452 H   0  0  0  0  0  0  0  0  0  0  0  0
   -0.3053   -0.1600    4.5075 H   0  0  0  0  0  0  0  0  0  0  0  0
  5  6  2  0  0  0  0
  5  7  1  0  0  0  0
  2  3  1  0  0  0  0
  2  4  1  0  0  0  0
  2  5  1  0  0  0  0
  1  2  1  0  0  0  0
 22 23  2  0  0  0  0
 22 24  1  0  0  0  0
 20 21  1  0  0  0  0
 18 19  1  0  0  0  0
 18 20  1  0  0  0  0
 16 17  1  0  0  0  0
 16 18  1  0  0  0  0
 15 16  2  0  0  0  0
 14 15  1  0  0  0  0
 14 20  2  0  0  0  0
 11 12  1  0  0  0  0
 11 13  1  0  0  0  0
 11 14  1  0  0  0  0
  9 10  1  0  0  0  0
  9 11  1  0  0  0  0
  9 22  1  0  0  0  0
  7  8  1  0  0  0  0
  7  9  1  0  0  0  0
 26 27  1  0  0  0  0
 26 28  1  0  0  0  0
 26 29  1  0  0  0  0
 24 25  1  0  0  0  0
 24 26  1  0  0  0  0
M  END
$$$$
default_name
  -OEChem-02102213163D

 29 29  0     1  0  0  0  0  0999 V2000
   -2.9561   -3.9186    1.3887 H   0  0  0  0  0  0  0  0  0  0  0  0
   -3.1191   -2.9346    0.9517 C   0  0  0  0  0  0  0  0  0  0  0  0
   -3.7811   -2.3546    1.5917 H   0  0  0  0  0  0  0  0  0  0  0  0
   -3.5591   -3.0406   -0.0383 H   0  0  0  0  0  0  0  0  0  0  0  0
   -1.7921   -2.2226    0.8327 C   0  0  0  0  0  0  0  0  0  0  0  0
   -0.7611   -2.7766    1.1927 O   0  0  0  0  0  0  0  0  0  0  0  0
   -1.8201   -0.9926    0.3247 N   0  0  0  0  0  0  0  0  0  0  0  0
   -2.7141   -0.5816    0.0927 H   0  0  0  0  0  0  0  0  0  0  0  0
   -0.6481   -0.1156    0.2017 C   0  0  1  0  0  0  0  0  0  0  0  0
    0.1042   -0.6345   -0.3958 H   0  0  0  0  0  0  0  0  0  0  0  0
   -1.0420    1.1781   -0.5372 C   0  0  0  0  0  0  0  0  0  0  0  0
   -2.0908    1.4086   -0.3447 H   0  0  0  0  0  0  0  0  0  0  0  0
   -0.4483    2.0128   -0.1620 H   0  0  0  0  0  0  0  0  0  0  0  0
   -0.8729    1.0739   -2.0334 C   0  0  0  0  0  0  0  0  0  0  0  0
   -1.7920    1.5029   -2.9919 N   0  0  0  0  0  0  0  0  0  0  0  0
   -1.2223    1.2650   -4.1823 C   0  0  0  0  0  0  0  0  0  0  0  0
   -1.6870    1.4766   -5.1371 H   0  0  0  0  0  0  0  0  0  0  0  0
    0.0032    0.7387   -4.0194 N   0  0  0  0  0  0  0  0  0  0  0  0
    0.6389    0.4913   -4.7654 H   0  0  0  0  0  0  0  0  0  0  0  0
    0.2433    0.6142   -2.6691 C   0  0  0  0  0  0  0  0  0  0  0  0
    1.1414    0.2473   -2.1883 H   0  0  0  0  0  0  0  0  0  0  0  0
   -0.0283    0.1609    1.5831 C   0  0  0  0  0  0  0  0  0  0  0  0
    1.1923    0.1056    1.7329 O   0  0  0  0  0  0  0  0  0  0  0  0
   -0.8586    0.4659    2.5853 N   0  0  0  0  0  0  0  0  0  0  0  0
   -1.8521    0.3848    2.4000 H   0  0  0  0  0  0  0  0  0  0  0  0
   -0.4403    0.7694    3.9518 C   0  0  0  0  0  0  0  0  0  0  0  0
    0.5066    1.3154    3.9421 H   0  0  0  0  0  0  0  0  0  0  0  0
   -1.1988    1.3789    4.4452 H   0  0  0  0  0  0  0  0  0  0  0  0
   -0.3053   -0.1600    4.5075 H   0  0  0  0  0  0  0  0  0  0  0  0
  5  6  2  0  0  0  0
  5  7  1  0  0  0  0
  2  3  1  0  0  0  0
  2  4  1  0  0  0  0
  2  5  1  0  0  0  0
  1  2  1  0  0  0  0
 22 23  2  0  0  0  0
 22 24  1  0  0  0  0
 20 21  1  0  0  0  0
 18 19  1  0  0  0  0
 18 20  1  0  0  0  0
 16 17  1  0  0  0  0
 16 18  1  0  0  0  0
 15 16  2  0  0  0  0
 14 15  1  0  0  0  0
 14 20  2  0  0  0  0
 11 12  1  0  0  0  0
 11 13  1  0  0  0  0
 11 14  1  0  0  0  0
  9 10  1  0  0  0  0
  9 11  1  0  0  0  0
  9 22  1  0  0  0  0
  7  8  1  0  0  0  0
  7  9  1  0  0  0  0
 26 27  1  0  0  0  0
 26 28  1  0  0  0  0
 26 29  1  0  0  0  0
 24 25  1  0  0  0  0
 24 26  1  0  0  0  0
M  END
$$$$
default_name
  -OEChem-02102213163D

 29 29  0     1  0  0  0  0  0999 V2000
   -2.9561   -3.9186    1.3887 H   0  0  0  0  0  0  0  0  0  0  0  0
   -3.1191   -2.9346    0.9517 C   0  0  0  0  0  0  0  0  0  0  0  0
   -3.7811   -2.3546    1.5917 H   0  0  0  0  0  0  0  0  0  0  0  0
   -3.5591   -3.0406   -0.0383 H   0  0  0  0  0  0  0  0  0  0  0  0
   -1.7921   -2.2226    0.8327 C   0  0  0  0  0  0  0  0  0  0  0  0
   -0.7611   -2.7766    1.1927 O   0  0  0  0  0  0  0  0  0  0  0  0
   -1.8201   -0.9926    0.3247 N   0  0  0  0  0  0  0  0  0  0  0  0
   -2.7141   -0.5816    0.0927 H   0  0  0  0  0  0  0  0  0  0  0  0
   -0.6481   -0.1156    0.2017 C   0  0  1  0  0  0  0  0  0  0  0  0
    0.1042   -0.6345   -0.3958 H   0  0  0  0  0  0  0  0  0  0  0  0
   -1.0420    1.1781   -0.5372 C   0  0  0  0  0  0  0  0  0  0  0  0
   -2.0908    1.4086   -0.3447 H   0  0  0  0  0  0  0  0  0  0  0  0
   -0.4483    2.0128   -0.1620 H   0  0  0  0  0  0  0  0  0  0  0  0
   -0.8729    1.0739   -2.0334 C   0  0  0  0  0  0  0  0  0  0  0  0
   -1.6304    1.7499   -2.9908 N   0  0  0  0  0  0  0  0  0  0  0  0
   -1.1150    1.4055   -4.1800 C   0  0  0  0  0  0  0  0  0  0  0  0
   -1.4892    1.7548   -5.1341 H   0  0  0  0  0  0  0  0  0  0  0  0
   -0.0692    0.5780   -4.0164 N   0  0  0  0  0  0  0  0  0  0  0  0
    0.4979    0.1956   -4.7607 H   0  0  0  0  0  0  0  0  0  0  0  0
    0.1017    0.3601   -2.6674 C   0  0  0  0  0  0  0  0  0  0  0  0
    0.8651   -0.2379   -2.1857 H   0  0  0  0  0  0  0  0  0  0  0  0
   -0.0283    0.1609    1.5831 C   0  0  0  0  0  0  0  0  0  0  0  0
    1.1923    0.1056    1.7329 O   0  0  0  0  0  0  0  0  0  0  0  0
   -0.8586    0.4659    2.5853 N   0  0  0  0  0  0  0  0  0  0  0  0
   -1.8521    0.3848    2.4000 H   0  0  0  0  0  0  0  0  0  0  0  0
   -0.4403    0.7694    3.9518 C   0  0  0  0  0  0  0  0  0  0  0  0
    0.5066    1.3154    3.9421 H   0  0  0  0  0  0  0  0  0  0  0  0
   -1.1988    1.3789    4.4452 H   0  0  0  0  0  0  0  0  0  0  0  0
   -0.3053   -0.1600    4.5075 H   0  0  0  0  0  0  0  0  0  0  0  0
  5  6  2  0  0  0  0
  5  7  1  0  0  0  0
  2  3  1  0  0  0  0
  2  4  1  0  0  0  0
  2  5  1  0  0  0  0
  1  2  1  0  0  0  0
 22 23  2  0  0  0  0
 22 24  1  0  0  0  0
 20 21  1  0  0  0  0
 18 19  1  0  0  0  0
 18 20  1  0  0  0  0
 16 17  1  0  0  0  0
 16 18  1  0  0  0  0
 15 16  2  0  0  0  0
 14 15  1  0  0  0  0
 14 20  2  0  0  0  0
 11 12  1  0  0  0  0
 11 13  1  0  0  0  0
 11 14  1  0  0  0  0
  9 10  1  0  0  0  0
  9 11  1  0  0  0  0
  9 22  1  0  0  0  0
  7  8  1  0  0  0  0
  7  9  1  0  0  0  0
 26 27  1  0  0  0  0
 26 28  1  0  0  0  0
 26 29  1  0  0  0  0
 24 25  1  0  0  0  0
 24 26  1  0  0  0  0
M  END
$$$$
default_name
  -OEChem-02102213163D

 29 29  0     1  0  0  0  0  0999 V2000
   -2.9561   -3.9186    1.3887 H   0  0  0  0  0  0  0  0  0  0  0  0
   -3.1191   -2.9346    0.9517 C   0  0  0  0  0  0  0  0  0  0  0  0
   -3.7811   -2.3546    1.5917 H   0  0  0  0  0  0  0  0  0  0  0  0
   -3.5591   -3.0406   -0.0383 H   0  0  0  0  0  0  0  0  0  0  0  0
   -1.7921   -2.2226    0.8327 C   0  0  0  0  0  0  0  0  0  0  0  0
   -0.7611   -2.7766    1.1927 O   0  0  0  0  0  0  0  0  0  0  0  0
   -1.8201   -0.9926    0.3247 N   0  0  0  0  0  0  0  0  0  0  0  0
   -2.7141   -0.5816    0.0927 H   0  0  0  0  0  0  0  0  0  0  0  0
   -0.6481   -0.1156    0.2017 C   0  0  1  0  0  0  0  0  0  0  0  0
    0.1042   -0.6345   -0.3958 H   0  0  0  0  0  0  0  0  0  0  0  0
   -1.0420    1.1781   -0.5372 C   0  0  0  0  0  0  0  0  0  0  0  0
   -2.0908    1.4086   -0.3447 H   0  0  0  0  0  0  0  0  0  0  0  0
   -0.4483    2.0128   -0.1620 H   0  0  0  0  0  0  0  0  0  0  0  0
   -0.8729    1.0739   -2.0334 C   0  0  0  0  0  0  0  0  0  0  0  0
   -1.4109    1.9471   -2.9798 N   0  0  0  0  0  0  0  0  0  0  0  0
   -0.9754    1.5137   -4.1718 C   0  0  0  0  0  0  0  0  0  0  0  0
   -1.2268    1.9726   -5.1196 H   0  0  0  0  0  0  0  0  0  0  0  0
   -0.1804    0.4413   -4.0194 N   0  0  0  0  0  0  0  0  0  0  0  0
    0.2857   -0.0539   -4.7673 H   0  0  0  0  0  0  0  0  0  0  0  0
   -0.1003    0.1509   -2.6756 C   0  0  0  0  0  0  0  0  0  0  0  0
    0.4737   -0.6357   -2.2022 H   0  0  0  0  0  0  0  0  0  0  0  0
   -0.0283    0.1609    1.5831 C   0  0  0  0  0  0  0  0  0  0  0  0
    1.1923    0.1056    1.7329 O   0  0  0  0  0  0  0  0  0  0  0  0
   -0.8586    0.4659    2.5853 N   0  0  0  0  0  0  0  0  0  0  0  0
   -1.8521    0.3848    2.4000 H   0  0  0  0  0  0  0  0  0  0  0  0
   -0.4403    0.7694    3.9518 C   0  0  0  0  0  0  0  0  0  0  0  0
    0.5066    1.3154    3.9421 H   0  0  0  0  0  0  0  0  0  0  0  0
   -1.1988    1.3789    4.4452 H   0  0  0  0  0  0  0  0  0  0  0  0
   -0.3053   -0.1600    4.5075 H   0  0  0  0  0  0  0  0  0  0  0  0
  5  6  2  0  0  0  0
  5  7  1  0  0  0  0
  2  3  1  0  0  0  0
  2  4  1  0  0  0  0
  2  5  1  0  0  0  0
  1  2  1  0  0  0  0
 22 23  2  0  0  0  0
 22 24  1  0  0  0  0
 20 21  1  0  0  0  0
 18 19  1  0  0  0  0
 18 20  1  0  0  0  0
 16 17  1  0  0  0  0
 16 18  1  0  0  0  0
 15 16  2  0  0  0  0
 14 15  1  0  0  0  0
 14 20  2  0  0  0  0
 11 12  1  0  0  0  0
 11 13  1  0  0  0  0
 11 14  1  0  0  0  0
  9 10  1  0  0  0  0
  9 11  1  0  0  0  0
  9 22  1  0  0  0  0
  7  8  1  0  0  0  0
  7  9  1  0  0  0  0
 26 27  1  0  0  0  0
 26 28  1  0  0  0  0
 26 29  1  0  0  0  0
 24 25  1  0  0  0  0
 24 26  1  0  0  0  0
M  END
$$$$
default_name
  -OEChem-02102213163D

 29 29  0     1  0  0  0  0  0999 V2000
   -2.9561   -3.9186    1.3887 H   0  0  0  0  0  0  0  0  0  0  0  0
   -3.1191   -2.9346    0.9517 C   0  0  0  0  0  0  0  0  0  0  0  0
   -3.7811   -2.3546    1.5917 H   0  0  0  0  0  0  0  0  0  0  0  0
   -3.5591   -3.0406   -0.0383 H   0  0  0  0  0  0  0  0  0  0  0  0
   -1.7921   -2.2226    0.8327 C   0  0  0  0  0  0  0  0  0  0  0  0
   -0.7611   -2.7766    1.1927 O   0  0  0  0  0  0  0  0  0  0  0  0
   -1.8201   -0.9926    0.3247 N   0  0  0  0  0  0  0  0  0  0  0  0
   -2.7141   -0.5816    0.0927 H   0  0  0  0  0  0  0  0  0  0  0  0
   -0.6481   -0.1156    0.2017 C   0  0  1  0  0  0  0  0  0  0  0  0
    0.1042   -0.6345   -0.3958 H   0  0  0  0  0  0  0  0  0  0  0  0
   -1.0420    1.1781   -0.5372 C   0  0  0  0  0  0  0  0  0  0  0  0
   -1.9879    1.5542   -0.1446 H   0  0  0  0  0  0  0  0  0  0  0  0
   -0.2866    1.9461   -0.3650 H   0  0  0  0  0  0  0  0  0  0  0  0
   -1.2218    0.9743   -2.0219 C   0  0  0  0  0  0  0  0  0  0  0  0
   -1.5761    1.9588   -2.9453 N   0  0  0  0  0  0  0  0  0  0  0  0
   -1.5749    1.3581   -4.1442 C   0  0  0  0  0  0  0  0  0  0  0  0
   -1.8215    1.8506   -5.0764 H   0  0  0  0  0  0  0  0  0  0  0  0
   -1.2169    0.0687   -4.0229 N   0  0  0  0  0  0  0  0  0  0  0  0
   -1.1232   -0.5879   -4.7856 H   0  0  0  0  0  0  0  0  0  0  0  0
   -0.9860   -0.1914   -2.6904 C   0  0  0  0  0  0  0  0  0  0  0  0
   -0.6604   -1.1232   -2.2454 H   0  0  0  0  0  0  0  0  0  0  0  0
   -0.0283    0.1609    1.5831 C   0  0  0  0  0  0  0  0  0  0  0  0
    1.1923    0.1056    1.7329 O   0  0  0  0  0  0  0  0  0  0  0  0
   -0.8586    0.4659    2.5853 N   0  0  0  0  0  0  0  0  0  0  0  0
   -1.8521    0.3848    2.4000 H   0  0  0  0  0  0  0  0  0  0  0  0
   -0.4403    0.7694    3.9518 C   0  0  0  0  0  0  0  0  0  0  0  0
    0.5066    1.3154    3.9421 H   0  0  0  0  0  0  0  0  0  0  0  0
   -1.1988    1.3789    4.4452 H   0  0  0  0  0  0  0  0  0  0  0  0
   -0.3053   -0.1600    4.5075 H   0  0  0  0  0  0  0  0  0  0  0  0
  5  6  2  0  0  0  0
  5  7  1  0  0  0  0
  2  3  1  0  0  0  0
  2  4  1  0  0  0  0
  2  5  1  0  0  0  0
  1  2  1  0  0  0  0
 22 23  2  0  0  0  0
 22 24  1  0  0  0  0
 20 21  1  0  0  0  0
 18 19  1  0  0  0  0
 18 20  1  0  0  0  0
 16 17  1  0  0  0  0
 16 18  1  0  0  0  0
 15 16  2  0  0  0  0
 14 15  1  0  0  0  0
 14 20  2  0  0  0  0
 11 12  1  0  0  0  0
 11 13  1  0  0  0  0
 11 14  1  0  0  0  0
  9 10  1  0  0  0  0
  9 11  1  0  0  0  0
  9 22  1  0  0  0  0
  7  8  1  0  0  0  0
  7  9  1  0  0  0  0
 26 27  1  0  0  0  0
 26 28  1  0  0  0  0
 26 29  1  0  0  0  0
 24 25  1  0  0  0  0
 24 26  1  0  0  0  0
M  END
$$$$
default_name
  -OEChem-02102213163D

 29 29  0     1  0  0  0  0  0999 V2000
   -2.9561   -3.9186    1.3887 H   0  0  0  0  0  0  0  0  0  0  0  0
   -3.1191   -2.9346    0.9517 C   0  0  0  0  0  0  0  0  0  0  0  0
   -3.7811   -2.3546    1.5917 H   0  0  0  0  0  0  0  0  0  0  0  0
   -3.5591   -3.0406   -0.0383 H   0  0  0  0  0  0  0  0  0  0  0  0
   -1.7921   -2.2226    0.8327 C   0  0  0  0  0  0  0  0  0  0  0  0
   -0.7611   -2.7766    1.1927 O   0  0  0  0  0  0  0  0  0  0  0  0
   -1.8201   -0.9926    0.3247 N   0  0  0  0  0  0  0  0  0  0  0  0
   -2.7141   -0.5816    0.0927 H   0  0  0  0  0  0  0  0  0  0  0  0
   -0.6481   -0.1156    0.2017 C   0  0  1  0  0  0  0  0  0  0  0  0
    0.1042   -0.6345   -0.3958 H   0  0  0  0  0  0  0  0  0  0  0  0
   -1.0420    1.1781   -0.5372 C   0  0  0  0  0  0  0  0  0  0  0  0
   -1.9879    1.5542   -0.1446 H   0  0  0  0  0  0  0  0  0  0  0  0
   -0.2866    1.9461   -0.3650 H   0  0  0  0  0  0  0  0  0  0  0  0
   -1.2218    0.9743   -2.0219 C   0  0  0  0  0  0  0  0  0  0  0  0
   -1.2844    1.9832   -2.9839 N   0  0  0  0  0  0  0  0  0  0  0  0
   -1.3994    1.3599   -4.1657 C   0  0  0  0  0  0  0  0  0  0  0  0
   -1.4831    1.8656   -5.1194 H   0  0  0  0  0  0  0  0  0  0  0  0
   -1.3862    0.0271   -3.9967 N   0  0  0  0  0  0  0  0  0  0  0  0
   -1.4395   -0.6585   -4.7377 H   0  0  0  0  0  0  0  0  0  0  0  0
   -1.2706   -0.2359   -2.6498 C   0  0  0  0  0  0  0  0  0  0  0  0
   -1.2075   -1.2036   -2.1681 H   0  0  0  0  0  0  0  0  0  0  0  0
   -0.0283    0.1609    1.5831 C   0  0  0  0  0  0  0  0  0  0  0  0
    1.1923    0.1056    1.7329 O   0  0  0  0  0  0  0  0  0  0  0  0
   -0.8586    0.4659    2.5853 N   0  0  0  0  0  0  0  0  0  0  0  0
   -1.8521    0.3848    2.4000 H   0  0  0  0  0  0  0  0  0  0  0  0
   -0.4403    0.7694    3.9518 C   0  0  0  0  0  0  0  0  0  0  0  0
    0.5066    1.3154    3.9421 H   0  0  0  0  0  0  0  0  0  0  0  0
   -1.1988    1.3789    4.4452 H   0  0  0  0  0  0  0  0  0  0  0  0
   -0.3053   -0.1600    4.5075 H   0  0  0  0  0  0  0  0  0  0  0  0
  5  6  2  0  0  0  0
  5  7  1  0  0  0  0
  2  3  1  0  0  0  0
  2  4  1  0  0  0  0
  2  5  1  0  0  0  0
  1  2  1  0  0  0  0
 22 23  2  0  0  0  0
 22 24  1  0  0  0  0
 20 21  1  0  0  0  0
 18 19  1  0  0  0  0
 18 20  1  0  0  0  0
 16 17  1  0  0  0  0
 16 18  1  0  0  0  0
 15 16  2  0  0  0  0
 14 15  1  0  0  0  0
 14 20  2  0  0  0  0
 11 12  1  0  0  0  0
 11 13  1  0  0  0  0
 11 14  1  0  0  0  0
  9 10  1  0  0  0  0
  9 11  1  0  0  0  0
  9 22  1  0  0  0  0
  7  8  1  0  0  0  0
  7  9  1  0  0  0  0
 26 27  1  0  0  0  0
 26 28  1  0  0  0  0
 26 29  1  0  0  0  0
 24 25  1  0  0  0  0
 24 26  1  0  0  0  0
M  END
$$$$
default_name
  -OEChem-02102213163D

 29 29  0     1  0  0  0  0  0999 V2000
   -2.9561   -3.9186    1.3887 H   0  0  0  0  0  0  0  0  0  0  0  0
   -3.1191   -2.9346    0.9517 C   0  0  0  0  0  0  0  0  0  0  0  0
   -3.7811   -2.3546    1.5917 H   0  0  0  0  0  0  0  0  0  0  0  0
   -3.5591   -3.0406   -0.0383 H   0  0  0  0  0  0  0  0  0  0  0  0
   -1.7921   -2.2226    0.8327 C   0  0  0  0  0  0  0  0  0  0  0  0
   -0.7611   -2.7766    1.1927 O   0  0  0  0  0  0  0  0  0  0  0  0
   -1.8201   -0.9926    0.3247 N   0  0  0  0  0  0  0  0  0  0  0  0
   -2.7141   -0.5816    0.0927 H   0  0  0  0  0  0  0  0  0  0  0  0
   -0.6481   -0.1156    0.2017 C   0  0  1  0  0  0  0  0  0  0  0  0
    0.1042   -0.6345   -0.3958 H   0  0  0  0  0  0  0  0  0  0  0  0
   -1.0420    1.1781   -0.5372 C   0  0  0  0  0  0  0  0  0  0  0  0
   -1.9879    1.5542   -0.1446 H   0  0  0  0  0  0  0  0  0  0  0  0
   -0.2866    1.9461   -0.3650 H   0  0  0  0  0  0  0  0  0  0  0  0
   -1.2218    0.9743   -2.0219 C   0  0  0  0  0  0  0  0  0  0  0  0
   -0.9951    1.9313   -3.0119 N   0  0  0  0  0  0  0  0  0  0  0  0
   -1.2286    1.3163   -4.1804 C   0  0  0  0  0  0  0  0  0  0  0  0
   -1.1510    1.7927   -5.1496 H   0  0  0  0  0  0  0  0  0  0  0  0
   -1.5612    0.0307   -3.9760 N   0  0  0  0  0  0  0  0  0  0  0  0
   -1.7646   -0.6446   -4.7002 H   0  0  0  0  0  0  0  0  0  0  0  0
   -1.5583   -0.2053   -2.6192 C   0  0  0  0  0  0  0  0  0  0  0  0
   -1.7591   -1.1395   -2.1101 H   0  0  0  0  0  0  0  0  0  0  0  0
   -0.0283    0.1609    1.5831 C   0  0  0  0  0  0  0  0  0  0  0  0
    1.1923    0.1056    1.7329 O   0  0  0  0  0  0  0  0  0  0  0  0
   -0.8586    0.4659    2.5853 N   0  0  0  0  0  0  0  0  0  0  0  0
   -1.8521    0.3848    2.4000 H   0  0  0  0  0  0  0  0  0  0  0  0
   -0.4403    0.7694    3.9518 C   0  0  0  0  0  0  0  0  0  0  0  0
    0.5066    1.3154    3.9421 H   0  0  0  0  0  0  0  0  0  0  0  0
   -1.1988    1.3789    4.4452 H   0  0  0  0  0  0  0  0  0  0  0  0
   -0.3053   -0.1600    4.5075 H   0  0  0  0  0  0  0  0  0  0  0  0
  5  6  2  0  0  0  0
  5  7  1  0  0  0  0
  2  3  1  0  0  0  0
  2  4  1  0  0  0  0
  2  5  1  0  0  0  0
  1  2  1  0  0  0  0
 22 23  2  0  0  0  0
 22 24  1  0  0  0  0
 20 21  1  0  0  0  0
 18 19  1  0  0  0  0
 18 20  1  0  0  0  0
 16 17  1  0  0  0  0
 16 18  1  0  0  0  0
 15 16  2  0  0  0  0
 14 15  1  0  0  0  0
 14 20  2  0  0  0  0
 11 12  1  0  0  0  0
 11 13  1  0  0  0  0
 11 14  1  0  0  0  0
  9 10  1  0  0  0  0
  9 11  1  0  0  0  0
  9 22  1  0  0  0  0
  7  8  1  0  0  0  0
  7  9  1  0  0  0  0
 26 27  1  0  0  0  0
 26 28  1  0  0  0  0
 26 29  1  0  0  0  0
 24 25  1  0  0  0  0
 24 26  1  0  0  0  0
M  END
$$$$
default_name
  -OEChem-02102213163D

 29 29  0     1  0  0  0  0  0999 V2000
   -2.9561   -3.9186    1.3887 H   0  0  0  0  0  0  0  0  0  0  0  0
   -3.1191   -2.9346    0.9517 C   0  0  0  0  0  0  0  0  0  0  0  0
   -3.7811   -2.3546    1.5917 H   0  0  0  0  0  0  0  0  0  0  0  0
   -3.5591   -3.0406   -0.0383 H   0  0  0  0  0  0  0  0  0  0  0  0
   -1.7921   -2.2226    0.8327 C   0  0  0  0  0  0  0  0  0  0  0  0
   -0.7611   -2.7766    1.1927 O   0  0  0  0  0  0  0  0  0  0  0  0
   -1.8201   -0.9926    0.3247 N   0  0  0  0  0  0  0  0  0  0  0  0
   -2.7141   -0.5816    0.0927 H   0  0  0  0  0  0  0  0  0  0  0  0
   -0.6481   -0.1156    0.2017 C   0  0  1  0  0  0  0  0  0  0  0  0
    0.1042   -0.6345   -0.3958 H   0  0  0  0  0  0  0  0  0  0  0  0
   -1.0420    1.1781   -0.5372 C   0  0  0  0  0  0  0  0  0  0  0  0
   -1.9879    1.5542   -0.1446 H   0  0  0  0  0  0  0  0  0  0  0  0
   -0.2866    1.9461   -0.3650 H   0  0  0  0  0  0  0  0  0  0  0  0
   -1.2218    0.9743   -2.0219 C   0  0  0  0  0  0  0  0  0  0  0  0
   -0.7279    1.8067   -3.0271 N   0  0  0  0  0  0  0  0  0  0  0  0
   -1.0743    1.2303   -4.1873 C   0  0  0  0  0  0  0  0  0  0  0  0
   -0.8477    1.6367   -5.1649 H   0  0  0  0  0  0  0  0  0  0  0  0
   -1.7300    0.0794   -3.9622 N   0  0  0  0  0  0  0  0  0  0  0  0
   -2.0765   -0.5472   -4.6758 H   0  0  0  0  0  0  0  0  0  0  0  0
   -1.8294   -0.1014   -2.6006 C   0  0  0  0  0  0  0  0  0  0  0  0
   -2.2776   -0.9354   -2.0753 H   0  0  0  0  0  0  0  0  0  0  0  0
   -0.0283    0.1609    1.5831 C   0  0  0  0  0  0  0  0  0  0  0  0
    1.1923    0.1056    1.7329 O   0  0  0  0  0  0  0  0  0  0  0  0
   -0.8586    0.4659    2.5853 N   0  0  0  0  0  0  0  0  0  0  0  0
   -1.8521    0.3848    2.4000 H   0  0  0  0  0  0  0  0  0  0  0  0
   -0.4403    0.7694    3.9518 C   0  0  0  0  0  0  0  0  0  0  0  0
    0.5066    1.3154    3.9421 H   0  0  0  0  0  0  0  0  0  0  0  0
   -1.1988    1.3789    4.4452 H   0  0  0  0  0  0  0  0  0  0  0  0
   -0.3053   -0.1600    4.5075 H   0  0  0  0  0  0  0  0  0  0  0  0
  5  6  2  0  0  0  0
  5  7  1  0  0  0  0
  2  3  1  0  0  0  0
  2  4  1  0  0  0  0
  2  5  1  0  0  0  0
  1  2  1  0  0  0  0
 22 23  2  0  0  0  0
 22 24  1  0  0  0  0
 20 21  1  0  0  0  0
 18 19  1  0  0  0  0
 18 20  1  0  0  0  0
 16 17  1  0  0  0  0
 16 18  1  0  0  0  0
 15 16  2  0  0  0  0
 14 15  1  0  0  0  0
 14 20  2  0  0  0  0
 11 12  1  0  0  0  0
 11 13  1  0  0  0  0
 11 14  1  0  0  0  0
  9 10  1  0  0  0  0
  9 11  1  0  0  0  0
  9 22  1  0  0  0  0
  7  8  1  0  0  0  0
  7  9  1  0  0  0  0
 26 27  1  0  0  0  0
 26 28  1  0  0  0  0
 26 29  1  0  0  0  0
 24 25  1  0  0  0  0
 24 26  1  0  0  0  0
M  END
$$$$
default_name
  -OEChem-02102213163D

 29 29  0     1  0  0  0  0  0999 V2000
   -2.9561   -3.9186    1.3887 H   0  0  0  0  0  0  0  0  0  0  0  0
   -3.1191   -2.9346    0.9517 C   0  0  0  0  0  0  0  0  0  0  0  0
   -3.7811   -2.3546    1.5917 H   0  0  0  0  0  0  0  0  0  0  0  0
   -3.5591   -3.0406   -0.0383 H   0  0  0  0  0  0  0  0  0  0  0  0
   -1.7921   -2.2226    0.8327 C   0  0  0  0  0  0  0  0  0  0  0  0
   -0.7611   -2.7766    1.1927 O   0  0  0  0  0  0  0  0  0  0  0  0
   -1.8201   -0.9926    0.3247 N   0  0  0  0  0  0  0  0  0  0  0  0
   -2.7141   -0.5816    0.0927 H   0  0  0  0  0  0  0  0  0  0  0  0
   -0.6481   -0.1156    0.2017 C   0  0  1  0  0  0  0  0  0  0  0  0
    0.1042   -0.6345   -0.3958 H   0  0  0  0  0  0  0  0  0  0  0  0
   -1.0420    1.1781   -0.5372 C   0  0  0  0  0  0  0  0  0  0  0  0
   -1.9879    1.5542   -0.1446 H   0  0  0  0  0  0  0  0  0  0  0  0
   -0.2866    1.9461   -0.3650 H   0  0  0  0  0  0  0  0  0  0  0  0
   -1.2218    0.9743   -2.0219 C   0  0  0  0  0  0  0  0  0  0  0  0
   -0.5009    1.6178   -3.0287 N   0  0  0  0  0  0  0  0  0  0  0  0
   -0.9469    1.1077   -4.1859 C   0  0  0  0  0  0  0  0  0  0  0  0
   -0.5940    1.4084   -5.1643 H   0  0  0  0  0  0  0  0  0  0  0  0
   -1.8812    0.1698   -3.9563 N   0  0  0  0  0  0  0  0  0  0  0  0
   -2.3538   -0.3730   -4.6661 H   0  0  0  0  0  0  0  0  0  0  0  0
   -2.0656    0.0685   -2.5953 C   0  0  0  0  0  0  0  0  0  0  0  0
   -2.7277   -0.6052   -2.0661 H   0  0  0  0  0  0  0  0  0  0  0  0
   -0.0283    0.1609    1.5831 C   0  0  0  0  0  0  0  0  0  0  0  0
    1.1923    0.1056    1.7329 O   0  0  0  0  0  0  0  0  0  0  0  0
   -0.8586    0.4659    2.5853 N   0  0  0  0  0  0  0  0  0  0  0  0
   -1.8521    0.3848    2.4000 H   0  0  0  0  0  0  0  0  0  0  0  0
   -0.4403    0.7694    3.9518 C   0  0  0  0  0  0  0  0  0  0  0  0
    0.5066    1.3154    3.9421 H   0  0  0  0  0  0  0  0  0  0  0  0
   -1.1988    1.3789    4.4452 H   0  0  0  0  0  0  0  0  0  0  0  0
   -0.3053   -0.1600    4.5075 H   0  0  0  0  0  0  0  0  0  0  0  0
  5  6  2  0  0  0  0
  5  7  1  0  0  0  0
  2  3  1  0  0  0  0
  2  4  1  0  0  0  0
  2  5  1  0  0  0  0
  1  2  1  0  0  0  0
 22 23  2  0  0  0  0
 22 24  1  0  0  0  0
 20 21  1  0  0  0  0
 18 19  1  0  0  0  0
 18 20  1  0  0  0  0
 16 17  1  0  0  0  0
 16 18  1  0  0  0  0
 15 16  2  0  0  0  0
 14 15  1  0  0  0  0
 14 20  2  0  0  0  0
 11 12  1  0  0  0  0
 11 13  1  0  0  0  0
 11 14  1  0  0  0  0
  9 10  1  0  0  0  0
  9 11  1  0  0  0  0
  9 22  1  0  0  0  0
  7  8  1  0  0  0  0
  7  9  1  0  0  0  0
 26 27  1  0  0  0  0
 26 28  1  0  0  0  0
 26 29  1  0  0  0  0
 24 25  1  0  0  0  0
 24 26  1  0  0  0  0
M  END
$$$$
default_name
  -OEChem-02102213163D

 29 29  0     1  0  0  0  0  0999 V2000
   -2.9561   -3.9186    1.3887 H   0  0  0  0  0  0  0  0  0  0  0  0
   -3.1191   -2.9346    0.9517 C   0  0  0  0  0  0  0  0  0  0  0  0
   -3.7811   -2.3546    1.5917 H   0  0  0  0  0  0  0  0  0  0  0  0
   -3.5591   -3.0406   -0.0383 H   0  0  0  0  0  0  0  0  0  0  0  0
   -1.7921   -2.2226    0.8327 C   0  0  0  0  0  0  0  0  0  0  0  0
   -0.7611   -2.7766    1.1927 O   0  0  0  0  0  0  0  0  0  0  0  0
   -1.8201   -0.9926    0.3247 N   0  0  0  0  0  0  0  0  0  0  0  0
   -2.7141   -0.5816    0.0927 H   0  0  0  0  0  0  0  0  0  0  0  0
   -0.6481   -0.1156    0.2017 C   0  0  1  0  0  0  0  0  0  0  0  0
    0.1042   -0.6345   -0.3958 H   0  0  0  0  0  0  0  0  0  0  0  0
   -1.0420    1.1781   -0.5372 C   0  0  0  0  0  0  0  0  0  0  0  0
   -1.9879    1.5542   -0.1446 H   0  0  0  0  0  0  0  0  0  0  0  0
   -0.2866    1.9461   -0.3650 H   0  0  0  0  0  0  0  0  0  0  0  0
   -1.2218    0.9743   -2.0219 C   0  0  0  0  0  0  0  0  0  0  0  0
   -0.3298    1.3776   -3.0164 N   0  0  0  0  0  0  0  0  0  0  0  0
   -0.8550    0.9569   -4.1763 C   0  0  0  0  0  0  0  0  0  0  0  0
   -0.4070    1.1233   -5.1478 H   0  0  0  0  0  0  0  0  0  0  0  0
   -2.0044    0.2958   -3.9587 N   0  0  0  0  0  0  0  0  0  0  0  0
   -2.5776   -0.1339   -4.6719 H   0  0  0  0  0  0  0  0  0  0  0  0
   -2.2506    0.2928   -2.6037 C   0  0  0  0  0  0  0  0  0  0  0  0
   -3.0788   -0.1714   -2.0832 H   0  0  0  0  0  0  0  0  0  0  0  0
   -0.0283    0.1609    1.5831 C   0  0  0  0  0  0  0  0  0  0  0  0
    1.1923    0.1056    1.7329 O   0  0  0  0  0  0  0  0  0  0  0  0
   -0.8586    0.4659    2.5853 N   0  0  0  0  0  0  0  0  0  0  0  0
   -1.8521    0.3848    2.4000 H   0  0  0  0  0  0  0  0  0  0  0  0
   -0.4403    0.7694    3.9518 C   0  0  0  0  0  0  0  0  0  0  0  0
    0.5066    1.3154    3.9421 H   0  0  0  0  0  0  0  0  0  0  0  0
   -1.1988    1.3789    4.4452 H   0  0  0  0  0  0  0  0  0  0  0  0
   -0.3053   -0.1600    4.5075 H   0  0  0  0  0  0  0  0  0  0  0  0
  5  6  2  0  0  0  0
  5  7  1  0  0  0  0
  2  3  1  0  0  0  0
  2  4  1  0  0  0  0
  2  5  1  0  0  0  0
  1  2  1  0  0  0  0
 22 23  2  0  0  0  0
 22 24  1  0  0  0  0
 20 21  1  0  0  0  0
 18 19  1  0  0  0  0
 18 20  1  0  0  0  0
 16 17  1  0  0  0  0
 16 18  1  0  0  0  0
 15 16  2  0  0  0  0
 14 15  1  0  0  0  0
 14 20  2  0  0  0  0
 11 12  1  0  0  0  0
 11 13  1  0  0  0  0
 11 14  1  0  0  0  0
  9 10  1  0  0  0  0
  9 11  1  0  0  0  0
  9 22  1  0  0  0  0
  7  8  1  0  0  0  0
  7  9  1  0  0  0  0
 26 27  1  0  0  0  0
 26 28  1  0  0  0  0
 26 29  1  0  0  0  0
 24 25  1  0  0  0  0
 24 26  1  0  0  0  0
M  END
$$$$
default_name
  -OEChem-02102213163D

 29 29  0     1  0  0  0  0  0999 V2000
   -2.9561   -3.9186    1.3887 H   0  0  0  0  0  0  0  0  0  0  0  0
   -3.1191   -2.9346    0.9517 C   0  0  0  0  0  0  0  0  0  0  0  0
   -3.7811   -2.3546    1.5917 H   0  0  0  0  0  0  0  0  0  0  0  0
   -3.5591   -3.0406   -0.0383 H   0  0  0  0  0  0  0  0  0  0  0  0
   -1.7921   -2.2226    0.8327 C   0  0  0  0  0  0  0  0  0  0  0  0
   -0.7611   -2.7766    1.1927 O   0  0  0  0  0  0  0  0  0  0  0  0
   -1.8201   -0.9926    0.3247 N   0  0  0  0  0  0  0  0  0  0  0  0
   -2.7141   -0.5816    0.0927 H   0  0  0  0  0  0  0  0  0  0  0  0
   -0.6481   -0.1156    0.2017 C   0  0  1  0  0  0  0  0  0  0  0  0
    0.1042   -0.6345   -0.3958 H   0  0  0  0  0  0  0  0  0  0  0  0
   -1.0420    1.1781   -0.5372 C   0  0  0  0  0  0  0  0  0  0  0  0
   -1.9879    1.5542   -0.1446 H   0  0  0  0  0  0  0  0  0  0  0  0
   -0.2866    1.9461   -0.3650 H   0  0  0  0  0  0  0  0  0  0  0  0
   -1.2218    0.9743   -2.0219 C   0  0  0  0  0  0  0  0  0  0  0  0
   -0.2261    1.1023   -2.9912 N   0  0  0  0  0  0  0  0  0  0  0  0
   -0.8051    0.7881   -4.1592 C   0  0  0  0  0  0  0  0  0  0  0  0
   -0.2995    0.8008   -5.1165 H   0  0  0  0  0  0  0  0  0  0  0  0
   -2.0912    0.4488   -3.9692 N   0  0  0  0  0  0  0  0  0  0  0  0
   -2.7327    0.1539   -4.6926 H   0  0  0  0  0  0  0  0  0  0  0  0
   -2.3718    0.5564   -2.6252 C   0  0  0  0  0  0  0  0  0  0  0  0
   -3.3068    0.3365   -2.1253 H   0  0  0  0  0  0  0  0  0  0  0  0
   -0.0283    0.1609    1.5831 C   0  0  0  0  0  0  0  0  0  0  0  0
    1.1923    0.1056    1.7329 O   0  0  0  0  0  0  0  0  0  0  0  0
   -0.8586    0.4659    2.5853 N   0  0  0  0  0  0  0  0  0  0  0  0
   -1.8521    0.3848    2.4000 H   0  0  0  0  0  0  0  0  0  0  0  0
   -0.4403    0.7694    3.9518 C   0  0  0  0  0  0  0  0  0  0  0  0
    0.5066    1.3154    3.9421 H   0  0  0  0  0  0  0  0  0  0  0  0
   -1.1988    1.3789    4.4452 H   0  0  0  0  0  0  0  0  0  0  0  0
   -0.3053   -0.1600    4.5075 H   0  0  0  0  0  0  0  0  0  0  0  0
  5  6  2  0  0  0  0
  5  7  1  0  0  0  0
  2  3  1  0  0  0  0
  2  4  1  0  0  0  0
  2  5  1  0  0  0  0
  1  2  1  0  0  0  0
 22 23  2  0  0  0  0
 22 24  1  0  0  0  0
 20 21  1  0  0  0  0
 18 19  1  0  0  0  0
 18 20  1  0  0  0  0
 16 17  1  0  0  0  0
 16 18  1  0  0  0  0
 15 16  2  0  0  0  0
 14 15  1  0  0  0  0
 14 20  2  0  0  0  0
 11 12  1  0  0  0  0
 11 13  1  0  0  0  0
 11 14  1  0  0  0  0
  9 10  1  0  0  0  0
  9 11  1  0  0  0  0
  9 22  1  0  0  0  0
  7  8  1  0  0  0  0
  7  9  1  0  0  0  0
 26 27  1  0  0  0  0
 26 28  1  0  0  0  0
 26 29  1  0  0  0  0
 24 25  1  0  0  0  0
 24 26  1  0  0  0  0
M  END
$$$$
default_name
  -OEChem-02102213163D

 29 29  0     1  0  0  0  0  0999 V2000
   -2.9561   -3.9186    1.3887 H   0  0  0  0  0  0  0  0  0  0  0  0
   -3.1191   -2.9346    0.9517 C   0  0  0  0  0  0  0  0  0  0  0  0
   -3.7811   -2.3546    1.5917 H   0  0  0  0  0  0  0  0  0  0  0  0
   -3.5591   -3.0406   -0.0383 H   0  0  0  0  0  0  0  0  0  0  0  0
   -1.7921   -2.2226    0.8327 C   0  0  0  0  0  0  0  0  0  0  0  0
   -0.7611   -2.7766    1.1927 O   0  0  0  0  0  0  0  0  0  0  0  0
   -1.8201   -0.9926    0.3247 N   0  0  0  0  0  0  0  0  0  0  0  0
   -2.7141   -0.5816    0.0927 H   0  0  0  0  0  0  0  0  0  0  0  0
   -0.6481   -0.1156    0.2017 C   0  0  1  0  0  0  0  0  0  0  0  0
    0.1042   -0.6345   -0.3958 H   0  0  0  0  0  0  0  0  0  0  0  0
   -1.0420    1.1781   -0.5372 C   0  0  0  0  0  0  0  0  0  0  0  0
   -1.9879    1.5542   -0.1446 H   0  0  0  0  0  0  0  0  0  0  0  0
   -0.2866    1.9461   -0.3650 H   0  0  0  0  0  0  0  0  0  0  0  0
   -1.2218    0.9743   -2.0219 C   0  0  0  0  0  0  0  0  0  0  0  0
   -0.1968    0.8108   -2.9547 N   0  0  0  0  0  0  0  0  0  0  0  0
   -0.8004    0.6129   -4.1357 C   0  0  0  0  0  0  0  0  0  0  0  0
   -0.2789    0.4629   -5.0726 H   0  0  0  0  0  0  0  0  0  0  0  0
   -2.1358    0.6184   -3.9871 N   0  0  0  0  0  0  0  0  0  0  0  0
   -2.8086    0.4708   -4.7269 H   0  0  0  0  0  0  0  0  0  0  0  0
   -2.4211    0.8412   -2.6584 C   0  0  0  0  0  0  0  0  0  0  0  0
   -3.3963    0.8838   -2.1896 H   0  0  0  0  0  0  0  0  0  0  0  0
   -0.0283    0.1609    1.5831 C   0  0  0  0  0  0  0  0  0  0  0  0
    1.1923    0.1056    1.7329 O   0  0  0  0  0  0  0  0  0  0  0  0
   -0.8586    0.4659    2.5853 N   0  0  0  0  0  0  0  0  0  0  0  0
   -1.8521    0.3848    2.4000 H   0  0  0  0  0  0  0  0  0  0  0  0
   -0.4403    0.7694    3.9518 C   0  0  0  0  0  0  0  0  0  0  0  0
    0.5066    1.3154    3.9421 H   0  0  0  0  0  0  0  0  0  0  0  0
   -1.1988    1.3789    4.4452 H   0  0  0  0  0  0  0  0  0  0  0  0
   -0.3053   -0.1600    4.5075 H   0  0  0  0  0  0  0  0  0  0  0  0
  5  6  2  0  0  0  0
  5  7  1  0  0  0  0
  2  3  1  0  0  0  0
  2  4  1  0  0  0  0
  2  5  1  0  0  0  0
  1  2  1  0  0  0  0
 22 23  2  0  0  0  0
 22 24  1  0  0  0  0
 20 21  1  0  0  0  0
 18 19  1  0  0  0  0
 18 20  1  0  0  0  0
 16 17  1  0  0  0  0
 16 18  1  0  0  0  0
 15 16  2  0  0  0  0
 14 15  1  0  0  0  0
 14 20  2  0  0  0  0
 11 12  1  0  0  0  0
 11 13  1  0  0  0  0
 11 14  1  0  0  0  0
  9 10  1  0  0  0  0
  9 11  1  0  0  0  0
  9 22  1  0  0  0  0
  7  8  1  0  0  0  0
  7  9  1  0  0  0  0
 26 27  1  0  0  0  0
 26 28  1  0  0  0  0
 26 29  1  0  0  0  0
 24 25  1  0  0  0  0
 24 26  1  0  0  0  0
M  END
$$$$
default_name
  -OEChem-02102213163D

 29 29  0     1  0  0  0  0  0999 V2000
   -2.9561   -3.9186    1.3887 H   0  0  0  0  0  0  0  0  0  0  0  0
   -3.1191   -2.9346    0.9517 C   0  0  0  0  0  0  0  0  0  0  0  0
   -3.7811   -2.3546    1.5917 H   0  0  0  0  0  0  0  0  0  0  0  0
   -3.5591   -3.0406   -0.0383 H   0  0  0  0  0  0  0  0  0  0  0  0
   -1.7921   -2.2226    0.8327 C   0  0  0  0  0  0  0  0  0  0  0  0
   -0.7611   -2.7766    1.1927 O   0  0  0  0  0  0  0  0  0  0  0  0
   -1.8201   -0.9926    0.3247 N   0  0  0  0  0  0  0  0  0  0  0  0
   -2.7141   -0.5816    0.0927 H   0  0  0  0  0  0  0  0  0  0  0  0
   -0.6481   -0.1156    0.2017 C   0  0  1  0  0  0  0  0  0  0  0  0
    0.1042   -0.6345   -0.3958 H   0  0  0  0  0  0  0  0  0  0  0  0
   -1.0420    1.1781   -0.5372 C   0  0  0  0  0  0  0  0  0  0  0  0
   -1.9879    1.5542   -0.1446 H   0  0  0  0  0  0  0  0  0  0  0  0
   -0.2866    1.9461   -0.3650 H   0  0  0  0  0  0  0  0  0  0  0  0
   -1.2218    0.9743   -2.0219 C   0  0  0  0  0  0  0  0  0  0  0  0
   -0.2441    0.5229   -2.9094 N   0  0  0  0  0  0  0  0  0  0  0  0
   -0.8413    0.4432   -4.1074 C   0  0  0  0  0  0  0  0  0  0  0  0
   -0.3466    0.1326   -5.0191 H   0  0  0  0  0  0  0  0  0  0  0  0
   -2.1350    0.7930   -4.0111 N   0  0  0  0  0  0  0  0  0  0  0  0
   -2.8000    0.7951   -4.7725 H   0  0  0  0  0  0  0  0  0  0  0  0
   -2.3951    1.1278   -2.7009 C   0  0  0  0  0  0  0  0  0  0  0  0
   -3.3411    1.4333   -2.2718 H   0  0  0  0  0  0  0  0  0  0  0  0
   -0.0283    0.1609    1.5831 C   0  0  0  0  0  0  0  0  0  0  0  0
    1.1923    0.1056    1.7329 O   0  0  0  0  0  0  0  0  0  0  0  0
   -0.8586    0.4659    2.5853 N   0  0  0  0  0  0  0  0  0  0  0  0
   -1.8521    0.3848    2.4000 H   0  0  0  0  0  0  0  0  0  0  0  0
   -0.4403    0.7694    3.9518 C   0  0  0  0  0  0  0  0  0  0  0  0
    0.5066    1.3154    3.9421 H   0  0  0  0  0  0  0  0  0  0  0  0
   -1.1988    1.3789    4.4452 H   0  0  0  0  0  0  0  0  0  0  0  0
   -0.3053   -0.1600    4.5075 H   0  0  0  0  0  0  0  0  0  0  0  0
  5  6  2  0  0  0  0
  5  7  1  0  0  0  0
  2  3  1  0  0  0  0
  2  4  1  0  0  0  0
  2  5  1  0  0  0  0
  1  2  1  0  0  0  0
 22 23  2  0  0  0  0
 22 24  1  0  0  0  0
 20 21  1  0  0  0  0
 18 19  1  0  0  0  0
 18 20  1  0  0  0  0
 16 17  1  0  0  0  0
 16 18  1  0  0  0  0
 15 16  2  0  0  0  0
 14 15  1  0  0  0  0
 14 20  2  0  0  0  0
 11 12  1  0  0  0  0
 11 13  1  0  0  0  0
 11 14  1  0  0  0  0
  9 10  1  0  0  0  0
  9 11  1  0  0  0  0
  9 22  1  0  0  0  0
  7  8  1  0  0  0  0
  7  9  1  0  0  0  0
 26 27  1  0  0  0  0
 26 28  1  0  0  0  0
 26 29  1  0  0  0  0
 24 25  1  0  0  0  0
 24 26  1  0  0  0  0
M  END
$$$$
default_name
  -OEChem-02102213163D

 29 29  0     1  0  0  0  0  0999 V2000
   -2.9561   -3.9186    1.3887 H   0  0  0  0  0  0  0  0  0  0  0  0
   -3.1191   -2.9346    0.9517 C   0  0  0  0  0  0  0  0  0  0  0  0
   -3.7811   -2.3546    1.5917 H   0  0  0  0  0  0  0  0  0  0  0  0
   -3.5591   -3.0406   -0.0383 H   0  0  0  0  0  0  0  0  0  0  0  0
   -1.7921   -2.2226    0.8327 C   0  0  0  0  0  0  0  0  0  0  0  0
   -0.7611   -2.7766    1.1927 O   0  0  0  0  0  0  0  0  0  0  0  0
   -1.8201   -0.9926    0.3247 N   0  0  0  0  0  0  0  0  0  0  0  0
   -2.7141   -0.5816    0.0927 H   0  0  0  0  0  0  0  0  0  0  0  0
   -0.6481   -0.1156    0.2017 C   0  0  1  0  0  0  0  0  0  0  0  0
    0.1042   -0.6345   -0.3958 H   0  0  0  0  0  0  0  0  0  0  0  0
   -1.0420    1.1781   -0.5372 C   0  0  0  0  0  0  0  0  0  0  0  0
   -1.9879    1.5542   -0.1446 H   0  0  0  0  0  0  0  0  0  0  0  0
   -0.2866    1.9461   -0.3650 H   0  0  0  0  0  0  0  0  0  0  0  0
   -1.2218    0.9743   -2.0219 C   0  0  0  0  0  0  0  0  0  0  0  0
   -0.3646    0.2583   -2.8585 N   0  0  0  0  0  0  0  0  0  0  0  0
   -0.9250    0.2906   -4.0763 C   0  0  0  0  0  0  0  0  0  0  0  0
   -0.4979   -0.1676   -4.9595 H   0  0  0  0  0  0  0  0  0  0  0  0
   -2.0890    0.9608   -4.0398 N   0  0  0  0  0  0  0  0  0  0  0  0
   -2.7075    1.1047   -4.8262 H   0  0  0  0  0  0  0  0  0  0  0  0
   -2.2955    1.3968   -2.7499 C   0  0  0  0  0  0  0  0  0  0  0  0
   -3.1450    1.9475   -2.3661 H   0  0  0  0  0  0  0  0  0  0  0  0
   -0.0283    0.1609    1.5831 C   0  0  0  0  0  0  0  0  0  0  0  0
    1.1923    0.1056    1.7329 O   0  0  0  0  0  0  0  0  0  0  0  0
   -0.8586    0.4659    2.5853 N   0  0  0  0  0  0  0  0  0  0  0  0
   -1.8521    0.3848    2.4000 H   0  0  0  0  0  0  0  0  0  0  0  0
   -0.4403    0.7694    3.9518 C   0  0  0  0  0  0  0  0  0  0  0  0
    0.5066    1.3154    3.9421 H   0  0  0  0  0  0  0  0  0  0  0  0
   -1.1988    1.3789    4.4452 H   0  0  0  0  0  0  0  0  0  0  0  0
   -0.3053   -0.1600    4.5075 H   0  0  0  0  0  0  0  0  0  0  0  0
  5  6  2  0  0  0  0
  5  7  1  0  0  0  0
  2  3  1  0  0  0  0
  2  4  1  0  0  0  0
  2  5  1  0  0  0  0
  1  2  1  0  0  0  0
 22 23  2  0  0  0  0
 22 24  1  0  0  0  0
 20 21  1  0  0  0  0
 18 19  1  0  0  0  0
 18 20  1  0  0  0  0
 16 17  1  0  0  0  0
 16 18  1  0  0  0  0
 15 16  2  0  0  0  0
 14 15  1  0  0  0  0
 14 20  2  0  0  0  0
 11 12  1  0  0  0  0
 11 13  1  0  0  0  0
 11 14  1  0  0  0  0
  9 10  1  0  0  0  0
  9 11  1  0  0  0  0
  9 22  1  0  0  0  0
  7  8  1  0  0  0  0
  7  9  1  0  0  0  0
 26 27  1  0  0  0  0
 26 28  1  0  0  0  0
 26 29  1  0  0  0  0
 24 25  1  0  0  0  0
 24 26  1  0  0  0  0
M  END
$$$$
default_name
  -OEChem-02102213163D

 29 29  0     1  0  0  0  0  0999 V2000
   -2.9561   -3.9186    1.3887 H   0  0  0  0  0  0  0  0  0  0  0  0
   -3.1191   -2.9346    0.9517 C   0  0  0  0  0  0  0  0  0  0  0  0
   -3.7811   -2.3546    1.5917 H   0  0  0  0  0  0  0  0  0  0  0  0
   -3.5591   -3.0406   -0.0383 H   0  0  0  0  0  0  0  0  0  0  0  0
   -1.7921   -2.2226    0.8327 C   0  0  0  0  0  0  0  0  0  0  0  0
   -0.7611   -2.7766    1.1927 O   0  0  0  0  0  0  0  0  0  0  0  0
   -1.8201   -0.9926    0.3247 N   0  0  0  0  0  0  0  0  0  0  0  0
   -2.7141   -0.5816    0.0927 H   0  0  0  0  0  0  0  0  0  0  0  0
   -0.6481   -0.1156    0.2017 C   0  0  1  0  0  0  0  0  0  0  0  0
    0.1042   -0.6345   -0.3958 H   0  0  0  0  0  0  0  0  0  0  0  0
   -1.0420    1.1781   -0.5372 C   0  0  0  0  0  0  0  0  0  0  0  0
   -1.9879    1.5542   -0.1446 H   0  0  0  0  0  0  0  0  0  0  0  0
   -0.2866    1.9461   -0.3650 H   0  0  0  0  0  0  0  0  0  0  0  0
   -1.2218    0.9743   -2.0219 C   0  0  0  0  0  0  0  0  0  0  0  0
   -0.5501    0.0349   -2.8053 N   0  0  0  0  0  0  0  0  0  0  0  0
   -1.0458    0.1654   -4.0445 C   0  0  0  0  0  0  0  0  0  0  0  0
   -0.7226   -0.4171   -4.8981 H   0  0  0  0  0  0  0  0  0  0  0  0
   -2.0008    1.1101   -4.0709 N   0  0  0  0  0  0  0  0  0  0  0  0
   -2.5375    1.3787   -4.8844 H   0  0  0  0  0  0  0  0  0  0  0  0
   -2.1291    1.6296   -2.8020 C   0  0  0  0  0  0  0  0  0  0  0  0
   -2.8215    2.3914   -2.4663 H   0  0  0  0  0  0  0  0  0  0  0  0
   -0.0283    0.1609    1.5831 C   0  0  0  0  0  0  0  0  0  0  0  0
    1.1923    0.1056    1.7329 O   0  0  0  0  0  0  0  0  0  0  0  0
   -0.8586    0.4659    2.5853 N   0  0  0  0  0  0  0  0  0  0  0  0
   -1.8521    0.3848    2.4000 H   0  0  0  0  0  0  0  0  0  0  0  0
   -0.4403    0.7694    3.9518 C   0  0  0  0  0  0  0  0  0  0  0  0
    0.5066    1.3154    3.9421 H   0  0  0  0  0  0  0  0  0  0  0  0
   -1.1988    1.3789    4.4452 H   0  0  0  0  0  0  0  0  0  0  0  0
   -0.3053   -0.1600    4.5075 H   0  0  0  0  0  0  0  0  0  0  0  0
  5  6  2  0  0  0  0
  5  7  1  0  0  0  0
  2  3  1  0  0  0  0
  2  4  1  0  0  0  0
  2  5  1  0  0  0  0
  1  2  1  0  0  0  0
 22 23  2  0  0  0  0
 22 24  1  0  0  0  0
 20 21  1  0  0  0  0
 18 19  1  0  0  0  0
 18 20  1  0  0  0  0
 16 17  1  0  0  0  0
 16 18  1  0  0  0  0
 15 16  2  0  0  0  0
 14 15  1  0  0  0  0
 14 20  2  0  0  0  0
 11 12  1  0  0  0  0
 11 13  1  0  0  0  0
 11 14  1  0  0  0  0
  9 10  1  0  0  0  0
  9 11  1  0  0  0  0
  9 22  1  0  0  0  0
  7  8  1  0  0  0  0
  7  9  1  0  0  0  0
 26 27  1  0  0  0  0
 26 28  1  0  0  0  0
 26 29  1  0  0  0  0
 24 25  1  0  0  0  0
 24 26  1  0  0  0  0
M  END
$$$$
default_name
  -OEChem-02102213163D

 29 29  0     1  0  0  0  0  0999 V2000
   -2.9561   -3.9186    1.3887 H   0  0  0  0  0  0  0  0  0  0  0  0
   -3.1191   -2.9346    0.9517 C   0  0  0  0  0  0  0  0  0  0  0  0
   -3.7811   -2.3546    1.5917 H   0  0  0  0  0  0  0  0  0  0  0  0
   -3.5591   -3.0406   -0.0383 H   0  0  0  0  0  0  0  0  0  0  0  0
   -1.7921   -2.2226    0.8327 C   0  0  0  0  0  0  0  0  0  0  0  0
   -0.7611   -2.7766    1.1927 O   0  0  0  0  0  0  0  0  0  0  0  0
   -1.8201   -0.9926    0.3247 N   0  0  0  0  0  0  0  0  0  0  0  0
   -2.7141   -0.5816    0.0927 H   0  0  0  0  0  0  0  0  0  0  0  0
   -0.6481   -0.1156    0.2017 C   0  0  1  0  0  0  0  0  0  0  0  0
    0.1042   -0.6345   -0.3958 H   0  0  0  0  0  0  0  0  0  0  0  0
   -1.0420    1.1781   -0.5372 C   0  0  0  0  0  0  0  0  0  0  0  0
   -1.9879    1.5542   -0.1446 H   0  0  0  0  0  0  0  0  0  0  0  0
   -0.2866    1.9461   -0.3650 H   0  0  0  0  0  0  0  0  0  0  0  0
   -1.2218    0.9743   -2.0219 C   0  0  0  0  0  0  0  0  0  0  0  0
   -0.7881   -0.1320   -2.7536 N   0  0  0  0  0  0  0  0  0  0  0  0
   -1.1954    0.0762   -4.0142 C   0  0  0  0  0  0  0  0  0  0  0  0
   -1.0053   -0.5991   -4.8388 H   0  0  0  0  0  0  0  0  0  0  0  0
   -1.8765    1.2310   -4.1026 N   0  0  0  0  0  0  0  0  0  0  0  0
   -2.3015    1.5982   -4.9431 H   0  0  0  0  0  0  0  0  0  0  0  0
   -1.9072    1.8106   -2.8537 C   0  0  0  0  0  0  0  0  0  0  0  0
   -2.3924    2.7346   -2.5653 H   0  0  0  0  0  0  0  0  0  0  0  0
   -0.0283    0.1609    1.5831 C   0  0  0  0  0  0  0  0  0  0  0  0
    1.1923    0.1056    1.7329 O   0  0  0  0  0  0  0  0  0  0  0  0
   -0.8586    0.4659    2.5853 N   0  0  0  0  0  0  0  0  0  0  0  0
   -1.8521    0.3848    2.4000 H   0  0  0  0  0  0  0  0  0  0  0  0
   -0.4403    0.7694    3.9518 C   0  0  0  0  0  0  0  0  0  0  0  0
    0.5066    1.3154    3.9421 H   0  0  0  0  0  0  0  0  0  0  0  0
   -1.1988    1.3789    4.4452 H   0  0  0  0  0  0  0  0  0  0  0  0
   -0.3053   -0.1600    4.5075 H   0  0  0  0  0  0  0  0  0  0  0  0
  5  6  2  0  0  0  0
  5  7  1  0  0  0  0
  2  3  1  0  0  0  0
  2  4  1  0  0  0  0
  2  5  1  0  0  0  0
  1  2  1  0  0  0  0
 22 23  2  0  0  0  0
 22 24  1  0  0  0  0
 20 21  1  0  0  0  0
 18 19  1  0  0  0  0
 18 20  1  0  0  0  0
 16 17  1  0  0  0  0
 16 18  1  0  0  0  0
 15 16  2  0  0  0  0
 14 15  1  0  0  0  0
 14 20  2  0  0  0  0
 11 12  1  0  0  0  0
 11 13  1  0  0  0  0
 11 14  1  0  0  0  0
  9 10  1  0  0  0  0
  9 11  1  0  0  0  0
  9 22  1  0  0  0  0
  7  8  1  0  0  0  0
  7  9  1  0  0  0  0
 26 27  1  0  0  0  0
 26 28  1  0  0  0  0
 26 29  1  0  0  0  0
 24 25  1  0  0  0  0
 24 26  1  0  0  0  0
M  END
$$$$
default_name
  -OEChem-02102213163D

 29 29  0     1  0  0  0  0  0999 V2000
   -2.9561   -3.9186    1.3887 H   0  0  0  0  0  0  0  0  0  0  0  0
   -3.1191   -2.9346    0.9517 C   0  0  0  0  0  0  0  0  0  0  0  0
   -3.7811   -2.3546    1.5917 H   0  0  0  0  0  0  0  0  0  0  0  0
   -3.5591   -3.0406   -0.0383 H   0  0  0  0  0  0  0  0  0  0  0  0
   -1.7921   -2.2226    0.8327 C   0  0  0  0  0  0  0  0  0  0  0  0
   -0.7611   -2.7766    1.1927 O   0  0  0  0  0  0  0  0  0  0  0  0
   -1.8201   -0.9926    0.3247 N   0  0  0  0  0  0  0  0  0  0  0  0
   -2.7141   -0.5816    0.0927 H   0  0  0  0  0  0  0  0  0  0  0  0
   -0.6481   -0.1156    0.2017 C   0  0  1  0  0  0  0  0  0  0  0  0
    0.1042   -0.6345   -0.3958 H   0  0  0  0  0  0  0  0  0  0  0  0
   -1.0420    1.1781   -0.5372 C   0  0  0  0  0  0  0  0  0  0  0  0
   -1.9879    1.5542   -0.1446 H   0  0  0  0  0  0  0  0  0  0  0  0
   -0.2866    1.9461   -0.3650 H   0  0  0  0  0  0  0  0  0  0  0  0
   -1.2218    0.9743   -2.0219 C   0  0  0  0  0  0  0  0  0  0  0  0
   -1.0623   -0.2311   -2.7068 N   0  0  0  0  0  0  0  0  0  0  0  0
   -1.3638    0.0291   -3.9873 C   0  0  0  0  0  0  0  0  0  0  0  0
   -1.3268   -0.7010   -4.7859 H   0  0  0  0  0  0  0  0  0  0  0  0
   -1.7246    1.3152   -4.1326 N   0  0  0  0  0  0  0  0  0  0  0  0
   -2.0156    1.7483   -4.9984 H   0  0  0  0  0  0  0  0  0  0  0  0
   -1.6451    1.9274   -2.9015 C   0  0  0  0  0  0  0  0  0  0  0  0
   -1.8871    2.9539   -2.6566 H   0  0  0  0  0  0  0  0  0  0  0  0
   -0.0283    0.1609    1.5831 C   0  0  0  0  0  0  0  0  0  0  0  0
    1.1923    0.1056    1.7329 O   0  0  0  0  0  0  0  0  0  0  0  0
   -0.8586    0.4659    2.5853 N   0  0  0  0  0  0  0  0  0  0  0  0
   -1.8521    0.3848    2.4000 H   0  0  0  0  0  0  0  0  0  0  0  0
   -0.4403    0.7694    3.9518 C   0  0  0  0  0  0  0  0  0  0  0  0
    0.5066    1.3154    3.9421 H   0  0  0  0  0  0  0  0  0  0  0  0
   -1.1988    1.3789    4.4452 H   0  0  0  0  0  0  0  0  0  0  0  0
   -0.3053   -0.1600    4.5075 H   0  0  0  0  0  0  0  0  0  0  0  0
  5  6  2  0  0  0  0
  5  7  1  0  0  0  0
  2  3  1  0  0  0  0
  2  4  1  0  0  0  0
  2  5  1  0  0  0  0
  1  2  1  0  0  0  0
 22 23  2  0  0  0  0
 22 24  1  0  0  0  0
 20 21  1  0  0  0  0
 18 19  1  0  0  0  0
 18 20  1  0  0  0  0
 16 17  1  0  0  0  0
 16 18  1  0  0  0  0
 15 16  2  0  0  0  0
 14 15  1  0  0  0  0
 14 20  2  0  0  0  0
 11 12  1  0  0  0  0
 11 13  1  0  0  0  0
 11 14  1  0  0  0  0
  9 10  1  0  0  0  0
  9 11  1  0  0  0  0
  9 22  1  0  0  0  0
  7  8  1  0  0  0  0
  7  9  1  0  0  0  0
 26 27  1  0  0  0  0
 26 28  1  0  0  0  0
 26 29  1  0  0  0  0
 24 25  1  0  0  0  0
 24 26  1  0  0  0  0
M  END
$$$$
default_name
  -OEChem-02102213163D

 29 29  0     1  0  0  0  0  0999 V2000
   -2.9561   -3.9186    1.3887 H   0  0  0  0  0  0  0  0  0  0  0  0
   -3.1191   -2.9346    0.9517 C   0  0  0  0  0  0  0  0  0  0  0  0
   -3.7811   -2.3546    1.5917 H   0  0  0  0  0  0  0  0  0  0  0  0
   -3.5591   -3.0406   -0.0383 H   0  0  0  0  0  0  0  0  0  0  0  0
   -1.7921   -2.2226    0.8327 C   0  0  0  0  0  0  0  0  0  0  0  0
   -0.7611   -2.7766    1.1927 O   0  0  0  0  0  0  0  0  0  0  0  0
   -1.8201   -0.9926    0.3247 N   0  0  0  0  0  0  0  0  0  0  0  0
   -2.7141   -0.5816    0.0927 H   0  0  0  0  0  0  0  0  0  0  0  0
   -0.6481   -0.1156    0.2017 C   0  0  1  0  0  0  0  0  0  0  0  0
    0.1042   -0.6345   -0.3958 H   0  0  0  0  0  0  0  0  0  0  0  0
   -1.0420    1.1781   -0.5372 C   0  0  0  0  0  0  0  0  0  0  0  0
   -1.9879    1.5542   -0.1446 H   0  0  0  0  0  0  0  0  0  0  0  0
   -0.2866    1.9461   -0.3650 H   0  0  0  0  0  0  0  0  0  0  0  0
   -1.2218    0.9743   -2.0219 C   0  0  0  0  0  0  0  0  0  0  0  0
   -1.3540   -0.2555   -2.6681 N   0  0  0  0  0  0  0  0  0  0  0  0
   -1.5393    0.0273   -3.9658 C   0  0  0  0  0  0  0  0  0  0  0  0
   -1.6651   -0.7161   -4.7429 H   0  0  0  0  0  0  0  0  0  0  0  0
   -1.5553    1.3569   -4.1588 N   0  0  0  0  0  0  0  0  0  0  0  0
   -1.6993    1.8188   -5.0463 H   0  0  0  0  0  0  0  0  0  0  0  0
   -1.3604    1.9719   -2.9421 C   0  0  0  0  0  0  0  0  0  0  0  0
   -1.3400    3.0343   -2.7339 H   0  0  0  0  0  0  0  0  0  0  0  0
   -0.0283    0.1609    1.5831 C   0  0  0  0  0  0  0  0  0  0  0  0
    1.1923    0.1056    1.7329 O   0  0  0  0  0  0  0  0  0  0  0  0
   -0.8586    0.4659    2.5853 N   0  0  0  0  0  0  0  0  0  0  0  0
   -1.8521    0.3848    2.4000 H   0  0  0  0  0  0  0  0  0  0  0  0
   -0.4403    0.7694    3.9518 C   0  0  0  0  0  0  0  0  0  0  0  0
    0.5066    1.3154    3.9421 H   0  0  0  0  0  0  0  0  0  0  0  0
   -1.1988    1.3789    4.4452 H   0  0  0  0  0  0  0  0  0  0  0  0
   -0.3053   -0.1600    4.5075 H   0  0  0  0  0  0  0  0  0  0  0  0
  5  6  2  0  0  0  0
  5  7  1  0  0  0  0
  2  3  1  0  0  0  0
  2  4  1  0  0  0  0
  2  5  1  0  0  0  0
  1  2  1  0  0  0  0
 22 23  2  0  0  0  0
 22 24  1  0  0  0  0
 20 21  1  0  0  0  0
 18 19  1  0  0  0  0
 18 20  1  0  0  0  0
 16 17  1  0  0  0  0
 16 18  1  0  0  0  0
 15 16  2  0  0  0  0
 14 15  1  0  0  0  0
 14 20  2  0  0  0  0
 11 12  1  0  0  0  0
 11 13  1  0  0  0  0
 11 14  1  0  0  0  0
  9 10  1  0  0  0  0
  9 11  1  0  0  0  0
  9 22  1  0  0  0  0
  7  8  1  0  0  0  0
  7  9  1  0  0  0  0
 26 27  1  0  0  0  0
 26 28  1  0  0  0  0
 26 29  1  0  0  0  0
 24 25  1  0  0  0  0
 24 26  1  0  0  0  0
M  END
$$$$
default_name
  -OEChem-02102213163D

 29 29  0     1  0  0  0  0  0999 V2000
   -2.9561   -3.9186    1.3887 H   0  0  0  0  0  0  0  0  0  0  0  0
   -3.1191   -2.9346    0.9517 C   0  0  0  0  0  0  0  0  0  0  0  0
   -3.7811   -2.3546    1.5917 H   0  0  0  0  0  0  0  0  0  0  0  0
   -3.5591   -3.0406   -0.0383 H   0  0  0  0  0  0  0  0  0  0  0  0
   -1.7921   -2.2226    0.8327 C   0  0  0  0  0  0  0  0  0  0  0  0
   -0.7611   -2.7766    1.1927 O   0  0  0  0  0  0  0  0  0  0  0  0
   -1.8201   -0.9926    0.3247 N   0  0  0  0  0  0  0  0  0  0  0  0
   -2.7141   -0.5816    0.0927 H   0  0  0  0  0  0  0  0  0  0  0  0
   -0.6481   -0.1156    0.2017 C   0  0  1  0  0  0  0  0  0  0  0  0
    0.1042   -0.6345   -0.3958 H   0  0  0  0  0  0  0  0  0  0  0  0
   -1.0420    1.1781   -0.5372 C   0  0  0  0  0  0  0  0  0  0  0  0
   -1.9879    1.5542   -0.1446 H   0  0  0  0  0  0  0  0  0  0  0  0
   -0.2866    1.9461   -0.3650 H   0  0  0  0  0  0  0  0  0  0  0  0
   -1.2218    0.9743   -2.0219 C   0  0  0  0  0  0  0  0  0  0  0  0
   -1.6433   -0.2036   -2.6402 N   0  0  0  0  0  0  0  0  0  0  0  0
   -1.7100    0.0709   -3.9511 C   0  0  0  0  0  0  0  0  0  0  0  0
   -1.9972   -0.6431   -4.7127 H   0  0  0  0  0  0  0  0  0  0  0  0
   -1.3803    1.3533   -4.1795 N   0  0  0  0  0  0  0  0  0  0  0  0
   -1.3741    1.8049   -5.0838 H   0  0  0  0  0  0  0  0  0  0  0  0
   -1.0728    1.9412   -2.9727 C   0  0  0  0  0  0  0  0  0  0  0  0
   -0.7884    2.9702   -2.7919 H   0  0  0  0  0  0  0  0  0  0  0  0
   -0.0283    0.1609    1.5831 C   0  0  0  0  0  0  0  0  0  0  0  0
    1.1923    0.1056    1.7329 O   0  0  0  0  0  0  0  0  0  0  0  0
   -0.8586    0.4659    2.5853 N   0  0  0  0  0  0  0  0  0  0  0  0
   -1.8521    0.3848    2.4000 H   0  0  0  0  0  0  0  0  0  0  0  0
   -0.4403    0.7694    3.9518 C   0  0  0  0  0  0  0  0  0  0  0  0
    0.5066    1.3154    3.9421 H   0  0  0  0  0  0  0  0  0  0  0  0
   -1.1988    1.3789    4.4452 H   0  0  0  0  0  0  0  0  0  0  0  0
   -0.3053   -0.1600    4.5075 H   0  0  0  0  0  0  0  0  0  0  0  0
  5  6  2  0  0  0  0
  5  7  1  0  0  0  0
  2  3  1  0  0  0  0
  2  4  1  0  0  0  0
  2  5  1  0  0  0  0
  1  2  1  0  0  0  0
 22 23  2  0  0  0  0
 22 24  1  0  0  0  0
 20 21  1  0  0  0  0
 18 19  1  0  0  0  0
 18 20  1  0  0  0  0
 16 17  1  0  0  0  0
 16 18  1  0  0  0  0
 15 16  2  0  0  0  0
 14 15  1  0  0  0  0
 14 20  2  0  0  0  0
 11 12  1  0  0  0  0
 11 13  1  0  0  0  0
 11 14  1  0  0  0  0
  9 10  1  0  0  0  0
  9 11  1  0  0  0  0
  9 22  1  0  0  0  0
  7  8  1  0  0  0  0
  7  9  1  0  0  0  0
 26 27  1  0  0  0  0
 26 28  1  0  0  0  0
 26 29  1  0  0  0  0
 24 25  1  0  0  0  0
 24 26  1  0  0  0  0
M  END
$$$$
default_name
  -OEChem-02102213163D

 29 29  0     1  0  0  0  0  0999 V2000
   -2.9561   -3.9186    1.3887 H   0  0  0  0  0  0  0  0  0  0  0  0
   -3.1191   -2.9346    0.9517 C   0  0  0  0  0  0  0  0  0  0  0  0
   -3.7811   -2.3546    1.5917 H   0  0  0  0  0  0  0  0  0  0  0  0
   -3.5591   -3.0406   -0.0383 H   0  0  0  0  0  0  0  0  0  0  0  0
   -1.7921   -2.2226    0.8327 C   0  0  0  0  0  0  0  0  0  0  0  0
   -0.7611   -2.7766    1.1927 O   0  0  0  0  0  0  0  0  0  0  0  0
   -1.8201   -0.9926    0.3247 N   0  0  0  0  0  0  0  0  0  0  0  0
   -2.7141   -0.5816    0.0927 H   0  0  0  0  0  0  0  0  0  0  0  0
   -0.6481   -0.1156    0.2017 C   0  0  1  0  0  0  0  0  0  0  0  0
    0.1042   -0.6345   -0.3958 H   0  0  0  0  0  0  0  0  0  0  0  0
   -1.0420    1.1781   -0.5372 C   0  0  0  0  0  0  0  0  0  0  0  0
   -1.9879    1.5542   -0.1446 H   0  0  0  0  0  0  0  0  0  0  0  0
   -0.2866    1.9461   -0.3650 H   0  0  0  0  0  0  0  0  0  0  0  0
   -1.2218    0.9743   -2.0219 C   0  0  0  0  0  0  0  0  0  0  0  0
   -1.9105   -0.0790   -2.6250 N   0  0  0  0  0  0  0  0  0  0  0  0
   -1.8643    0.1569   -3.9442 C   0  0  0  0  0  0  0  0  0  0  0  0
   -2.3005   -0.4872   -4.6974 H   0  0  0  0  0  0  0  0  0  0  0  0
   -1.2115    1.3046   -4.1932 N   0  0  0  0  0  0  0  0  0  0  0  0
   -1.0623    1.7075   -5.1082 H   0  0  0  0  0  0  0  0  0  0  0  0
   -0.8016    1.8374   -2.9913 C   0  0  0  0  0  0  0  0  0  0  0  0
   -0.2699    2.7661   -2.8267 H   0  0  0  0  0  0  0  0  0  0  0  0
   -0.0283    0.1609    1.5831 C   0  0  0  0  0  0  0  0  0  0  0  0
    1.1923    0.1056    1.7329 O   0  0  0  0  0  0  0  0  0  0  0  0
   -0.8586    0.4659    2.5853 N   0  0  0  0  0  0  0  0  0  0  0  0
   -1.8521    0.3848    2.4000 H   0  0  0  0  0  0  0  0  0  0  0  0
   -0.4403    0.7694    3.9518 C   0  0  0  0  0  0  0  0  0  0  0  0
    0.5066    1.3154    3.9421 H   0  0  0  0  0  0  0  0  0  0  0  0
   -1.1988    1.3789    4.4452 H   0  0  0  0  0  0  0  0  0  0  0  0
   -0.3053   -0.1600    4.5075 H   0  0  0  0  0  0  0  0  0  0  0  0
  5  6  2  0  0  0  0
  5  7  1  0  0  0  0
  2  3  1  0  0  0  0
  2  4  1  0  0  0  0
  2  5  1  0  0  0  0
  1  2  1  0  0  0  0
 22 23  2  0  0  0  0
 22 24  1  0  0  0  0
 20 21  1  0  0  0  0
 18 19  1  0  0  0  0
 18 20  1  0  0  0  0
 16 17  1  0  0  0  0
 16 18  1  0  0  0  0
 15 16  2  0  0  0  0
 14 15  1  0  0  0  0
 14 20  2  0  0  0  0
 11 12  1  0  0  0  0
 11 13  1  0  0  0  0
 11 14  1  0  0  0  0
  9 10  1  0  0  0  0
  9 11  1  0  0  0  0
  9 22  1  0  0  0  0
  7  8  1  0  0  0  0
  7  9  1  0  0  0  0
 26 27  1  0  0  0  0
 26 28  1  0  0  0  0
 26 29  1  0  0  0  0
 24 25  1  0  0  0  0
 24 26  1  0  0  0  0
M  END
$$$$
default_name
  -OEChem-02102213163D

 29 29  0     1  0  0  0  0  0999 V2000
   -2.9561   -3.9186    1.3887 H   0  0  0  0  0  0  0  0  0  0  0  0
   -3.1191   -2.9346    0.9517 C   0  0  0  0  0  0  0  0  0  0  0  0
   -3.7811   -2.3546    1.5917 H   0  0  0  0  0  0  0  0  0  0  0  0
   -3.5591   -3.0406   -0.0383 H   0  0  0  0  0  0  0  0  0  0  0  0
   -1.7921   -2.2226    0.8327 C   0  0  0  0  0  0  0  0  0  0  0  0
   -0.7611   -2.7766    1.1927 O   0  0  0  0  0  0  0  0  0  0  0  0
   -1.8201   -0.9926    0.3247 N   0  0  0  0  0  0  0  0  0  0  0  0
   -2.7141   -0.5816    0.0927 H   0  0  0  0  0  0  0  0  0  0  0  0
   -0.6481   -0.1156    0.2017 C   0  0  1  0  0  0  0  0  0  0  0  0
    0.1042   -0.6345   -0.3958 H   0  0  0  0  0  0  0  0  0  0  0  0
   -1.0420    1.1781   -0.5372 C   0  0  0  0  0  0  0  0  0  0  0  0
   -1.9879    1.5542   -0.1446 H   0  0  0  0  0  0  0  0  0  0  0  0
   -0.2866    1.9461   -0.3650 H   0  0  0  0  0  0  0  0  0  0  0  0
   -1.2218    0.9743   -2.0219 C   0  0  0  0  0  0  0  0  0  0  0  0
   -2.1374    0.1099   -2.6234 N   0  0  0  0  0  0  0  0  0  0  0  0
   -1.9918    0.2795   -3.9456 C   0  0  0  0  0  0  0  0  0  0  0  0
   -2.5543   -0.2588   -4.6980 H   0  0  0  0  0  0  0  0  0  0  0  0
   -1.0603    1.2142   -4.1991 N   0  0  0  0  0  0  0  0  0  0  0  0
   -0.7850    1.5334   -5.1179 H   0  0  0  0  0  0  0  0  0  0  0  0
   -0.5655    1.6675   -2.9965 C   0  0  0  0  0  0  0  0  0  0  0  0
    0.1802    2.4359   -2.8359 H   0  0  0  0  0  0  0  0  0  0  0  0
   -0.0283    0.1609    1.5831 C   0  0  0  0  0  0  0  0  0  0  0  0
    1.1923    0.1056    1.7329 O   0  0  0  0  0  0  0  0  0  0  0  0
   -0.8586    0.4659    2.5853 N   0  0  0  0  0  0  0  0  0  0  0  0
   -1.8521    0.3848    2.4000 H   0  0  0  0  0  0  0  0  0  0  0  0
   -0.4403    0.7694    3.9518 C   0  0  0  0  0  0  0  0  0  0  0  0
    0.5066    1.3154    3.9421 H   0  0  0  0  0  0  0  0  0  0  0  0
   -1.1988    1.3789    4.4452 H   0  0  0  0  0  0  0  0  0  0  0  0
   -0.3053   -0.1600    4.5075 H   0  0  0  0  0  0  0  0  0  0  0  0
  5  6  2  0  0  0  0
  5  7  1  0  0  0  0
  2  3  1  0  0  0  0
  2  4  1  0  0  0  0
  2  5  1  0  0  0  0
  1  2  1  0  0  0  0
 22 23  2  0  0  0  0
 22 24  1  0  0  0  0
 20 21  1  0  0  0  0
 18 19  1  0  0  0  0
 18 20  1  0  0  0  0
 16 17  1  0  0  0  0
 16 18  1  0  0  0  0
 15 16  2  0  0  0  0
 14 15  1  0  0  0  0
 14 20  2  0  0  0  0
 11 12  1  0  0  0  0
 11 13  1  0  0  0  0
 11 14  1  0  0  0  0
  9 10  1  0  0  0  0
  9 11  1  0  0  0  0
  9 22  1  0  0  0  0
  7  8  1  0  0  0  0
  7  9  1  0  0  0  0
 26 27  1  0  0  0  0
 26 28  1  0  0  0  0
 26 29  1  0  0  0  0
 24 25  1  0  0  0  0
 24 26  1  0  0  0  0
M  END
$$$$
default_name
  -OEChem-02102213163D

 29 29  0     1  0  0  0  0  0999 V2000
   -2.9561   -3.9186    1.3887 H   0  0  0  0  0  0  0  0  0  0  0  0
   -3.1191   -2.9346    0.9517 C   0  0  0  0  0  0  0  0  0  0  0  0
   -3.7811   -2.3546    1.5917 H   0  0  0  0  0  0  0  0  0  0  0  0
   -3.5591   -3.0406   -0.0383 H   0  0  0  0  0  0  0  0  0  0  0  0
   -1.7921   -2.2226    0.8327 C   0  0  0  0  0  0  0  0  0  0  0  0
   -0.7611   -2.7766    1.1927 O   0  0  0  0  0  0  0  0  0  0  0  0
   -1.8201   -0.9926    0.3247 N   0  0  0  0  0  0  0  0  0  0  0  0
   -2.7141   -0.5816    0.0927 H   0  0  0  0  0  0  0  0  0  0  0  0
   -0.6481   -0.1156    0.2017 C   0  0  1  0  0  0  0  0  0  0  0  0
    0.1042   -0.6345   -0.3958 H   0  0  0  0  0  0  0  0  0  0  0  0
   -1.0420    1.1781   -0.5372 C   0  0  0  0  0  0  0  0  0  0  0  0
   -1.9879    1.5542   -0.1446 H   0  0  0  0  0  0  0  0  0  0  0  0
   -0.2866    1.9461   -0.3650 H   0  0  0  0  0  0  0  0  0  0  0  0
   -1.2218    0.9743   -2.0219 C   0  0  0  0  0  0  0  0  0  0  0  0
   -2.3086    0.3501   -2.6357 N   0  0  0  0  0  0  0  0  0  0  0  0
   -2.0836    0.4304   -3.9552 C   0  0  0  0  0  0  0  0  0  0  0  0
   -2.7413    0.0263   -4.7145 H   0  0  0  0  0  0  0  0  0  0  0  0
   -0.9371    1.0881   -4.1967 N   0  0  0  0  0  0  0  0  0  0  0  0
   -0.5611    1.2942   -5.1121 H   0  0  0  0  0  0  0  0  0  0  0  0
   -0.3805    1.4431   -2.9881 C   0  0  0  0  0  0  0  0  0  0  0  0
    0.5312    2.0021   -2.8188 H   0  0  0  0  0  0  0  0  0  0  0  0
   -0.0283    0.1609    1.5831 C   0  0  0  0  0  0  0  0  0  0  0  0
    1.1923    0.1056    1.7329 O   0  0  0  0  0  0  0  0  0  0  0  0
   -0.8586    0.4659    2.5853 N   0  0  0  0  0  0  0  0  0  0  0  0
   -1.8521    0.3848    2.4000 H   0  0  0  0  0  0  0  0  0  0  0  0
   -0.4403    0.7694    3.9518 C   0  0  0  0  0  0  0  0  0  0  0  0
    0.5066    1.3154    3.9421 H   0  0  0  0  0  0  0  0  0  0  0  0
   -1.1988    1.3789    4.4452 H   0  0  0  0  0  0  0  0  0  0  0  0
   -0.3053   -0.1600    4.5075 H   0  0  0  0  0  0  0  0  0  0  0  0
  5  6  2  0  0  0  0
  5  7  1  0  0  0  0
  2  3  1  0  0  0  0
  2  4  1  0  0  0  0
  2  5  1  0  0  0  0
  1  2  1  0  0  0  0
 22 23  2  0  0  0  0
 22 24  1  0  0  0  0
 20 21  1  0  0  0  0
 18 19  1  0  0  0  0
 18 20  1  0  0  0  0
 16 17  1  0  0  0  0
 16 18  1  0  0  0  0
 15 16  2  0  0  0  0
 14 15  1  0  0  0  0
 14 20  2  0  0  0  0
 11 12  1  0  0  0  0
 11 13  1  0  0  0  0
 11 14  1  0  0  0  0
  9 10  1  0  0  0  0
  9 11  1  0  0  0  0
  9 22  1  0  0  0  0
  7  8  1  0  0  0  0
  7  9  1  0  0  0  0
 26 27  1  0  0  0  0
 26 28  1  0  0  0  0
 26 29  1  0  0  0  0
 24 25  1  0  0  0  0
 24 26  1  0  0  0  0
M  END
$$$$
default_name
  -OEChem-02102213163D

 29 29  0     1  0  0  0  0  0999 V2000
   -2.9561   -3.9186    1.3887 H   0  0  0  0  0  0  0  0  0  0  0  0
   -3.1191   -2.9346    0.9517 C   0  0  0  0  0  0  0  0  0  0  0  0
   -3.7811   -2.3546    1.5917 H   0  0  0  0  0  0  0  0  0  0  0  0
   -3.5591   -3.0406   -0.0383 H   0  0  0  0  0  0  0  0  0  0  0  0
   -1.7921   -2.2226    0.8327 C   0  0  0  0  0  0  0  0  0  0  0  0
   -0.7611   -2.7766    1.1927 O   0  0  0  0  0  0  0  0  0  0  0  0
   -1.8201   -0.9926    0.3247 N   0  0  0  0  0  0  0  0  0  0  0  0
   -2.7141   -0.5816    0.0927 H   0  0  0  0  0  0  0  0  0  0  0  0
   -0.6481   -0.1156    0.2017 C   0  0  1  0  0  0  0  0  0  0  0  0
    0.1042   -0.6345   -0.3958 H   0  0  0  0  0  0  0  0  0  0  0  0
   -1.0420    1.1781   -0.5372 C   0  0  0  0  0  0  0  0  0  0  0  0
   -1.9879    1.5542   -0.1446 H   0  0  0  0  0  0  0  0  0  0  0  0
   -0.2866    1.9461   -0.3650 H   0  0  0  0  0  0  0  0  0  0  0  0
   -1.2218    0.9743   -2.0219 C   0  0  0  0  0  0  0  0  0  0  0  0
   -2.4123    0.6254   -2.6609 N   0  0  0  0  0  0  0  0  0  0  0  0
   -2.1335    0.5991   -3.9724 C   0  0  0  0  0  0  0  0  0  0  0  0
   -2.8487    0.3488   -4.7458 H   0  0  0  0  0  0  0  0  0  0  0  0
   -0.8503    0.9351   -4.1862 N   0  0  0  0  0  0  0  0  0  0  0  0
   -0.4060    1.0064   -5.0914 H   0  0  0  0  0  0  0  0  0  0  0  0
   -0.2592    1.1796   -2.9666 C   0  0  0  0  0  0  0  0  0  0  0  0
    0.7593    1.4942   -2.7767 H   0  0  0  0  0  0  0  0  0  0  0  0
   -0.0283    0.1609    1.5831 C   0  0  0  0  0  0  0  0  0  0  0  0
    1.1923    0.1056    1.7329 O   0  0  0  0  0  0  0  0  0  0  0  0
   -0.8586    0.4659    2.5853 N   0  0  0  0  0  0  0  0  0  0  0  0
   -1.8521    0.3848    2.4000 H   0  0  0  0  0  0  0  0  0  0  0  0
   -0.4403    0.7694    3.9518 C   0  0  0  0  0  0  0  0  0  0  0  0
    0.5066    1.3154    3.9421 H   0  0  0  0  0  0  0  0  0  0  0  0
   -1.1988    1.3789    4.4452 H   0  0  0  0  0  0  0  0  0  0  0  0
   -0.3053   -0.1600    4.5075 H   0  0  0  0  0  0  0  0  0  0  0  0
  5  6  2  0  0  0  0
  5  7  1  0  0  0  0
  2  3  1  0  0  0  0
  2  4  1  0  0  0  0
  2  5  1  0  0  0  0
  1  2  1  0  0  0  0
 22 23  2  0  0  0  0
 22 24  1  0  0  0  0
 20 21  1  0  0  0  0
 18 19  1  0  0  0  0
 18 20  1  0  0  0  0
 16 17  1  0  0  0  0
 16 18  1  0  0  0  0
 15 16  2  0  0  0  0
 14 15  1  0  0  0  0
 14 20  2  0  0  0  0
 11 12  1  0  0  0  0
 11 13  1  0  0  0  0
 11 14  1  0  0  0  0
  9 10  1  0  0  0  0
  9 11  1  0  0  0  0
  9 22  1  0  0  0  0
  7  8  1  0  0  0  0
  7  9  1  0  0  0  0
 26 27  1  0  0  0  0
 26 28  1  0  0  0  0
 26 29  1  0  0  0  0
 24 25  1  0  0  0  0
 24 26  1  0  0  0  0
M  END
$$$$
default_name
  -OEChem-02102213163D

 29 29  0     1  0  0  0  0  0999 V2000
   -2.9561   -3.9186    1.3887 H   0  0  0  0  0  0  0  0  0  0  0  0
   -3.1191   -2.9346    0.9517 C   0  0  0  0  0  0  0  0  0  0  0  0
   -3.7811   -2.3546    1.5917 H   0  0  0  0  0  0  0  0  0  0  0  0
   -3.5591   -3.0406   -0.0383 H   0  0  0  0  0  0  0  0  0  0  0  0
   -1.7921   -2.2226    0.8327 C   0  0  0  0  0  0  0  0  0  0  0  0
   -0.7611   -2.7766    1.1927 O   0  0  0  0  0  0  0  0  0  0  0  0
   -1.8201   -0.9926    0.3247 N   0  0  0  0  0  0  0  0  0  0  0  0
   -2.7141   -0.5816    0.0927 H   0  0  0  0  0  0  0  0  0  0  0  0
   -0.6481   -0.1156    0.2017 C   0  0  1  0  0  0  0  0  0  0  0  0
    0.1042   -0.6345   -0.3958 H   0  0  0  0  0  0  0  0  0  0  0  0
   -1.0420    1.1781   -0.5372 C   0  0  0  0  0  0  0  0  0  0  0  0
   -1.9879    1.5542   -0.1446 H   0  0  0  0  0  0  0  0  0  0  0  0
   -0.2866    1.9461   -0.3650 H   0  0  0  0  0  0  0  0  0  0  0  0
   -1.2218    0.9743   -2.0219 C   0  0  0  0  0  0  0  0  0  0  0  0
   -2.4415    0.9169   -2.6974 N   0  0  0  0  0  0  0  0  0  0  0  0
   -2.1382    0.7743   -3.9959 C   0  0  0  0  0  0  0  0  0  0  0  0
   -2.8693    0.6867   -4.7897 H   0  0  0  0  0  0  0  0  0  0  0  0
   -0.8058    0.7655   -4.1683 N   0  0  0  0  0  0  0  0  0  0  0  0
   -0.3301    0.6896   -5.0571 H   0  0  0  0  0  0  0  0  0  0  0  0
   -0.2099    0.8947   -2.9335 C   0  0  0  0  0  0  0  0  0  0  0  0
    0.8487    0.9468   -2.7124 H   0  0  0  0  0  0  0  0  0  0  0  0
   -0.0283    0.1609    1.5831 C   0  0  0  0  0  0  0  0  0  0  0  0
    1.1923    0.1056    1.7329 O   0  0  0  0  0  0  0  0  0  0  0  0
   -0.8586    0.4659    2.5853 N   0  0  0  0  0  0  0  0  0  0  0  0
   -1.8521    0.3848    2.4000 H   0  0  0  0  0  0  0  0  0  0  0  0
   -0.4403    0.7694    3.9518 C   0  0  0  0  0  0  0  0  0  0  0  0
    0.5066    1.3154    3.9421 H   0  0  0  0  0  0  0  0  0  0  0  0
   -1.1988    1.3789    4.4452 H   0  0  0  0  0  0  0  0  0  0  0  0
   -0.3053   -0.1600    4.5075 H   0  0  0  0  0  0  0  0  0  0  0  0
  5  6  2  0  0  0  0
  5  7  1  0  0  0  0
  2  3  1  0  0  0  0
  2  4  1  0  0  0  0
  2  5  1  0  0  0  0
  1  2  1  0  0  0  0
 22 23  2  0  0  0  0
 22 24  1  0  0  0  0
 20 21  1  0  0  0  0
 18 19  1  0  0  0  0
 18 20  1  0  0  0  0
 16 17  1  0  0  0  0
 16 18  1  0  0  0  0
 15 16  2  0  0  0  0
 14 15  1  0  0  0  0
 14 20  2  0  0  0  0
 11 12  1  0  0  0  0
 11 13  1  0  0  0  0
 11 14  1  0  0  0  0
  9 10  1  0  0  0  0
  9 11  1  0  0  0  0
  9 22  1  0  0  0  0
  7  8  1  0  0  0  0
  7  9  1  0  0  0  0
 26 27  1  0  0  0  0
 26 28  1  0  0  0  0
 26 29  1  0  0  0  0
 24 25  1  0  0  0  0
 24 26  1  0  0  0  0
M  END
$$$$
default_name
  -OEChem-02102213163D

 29 29  0     1  0  0  0  0  0999 V2000
   -2.9561   -3.9186    1.3887 H   0  0  0  0  0  0  0  0  0  0  0  0
   -3.1191   -2.9346    0.9517 C   0  0  0  0  0  0  0  0  0  0  0  0
   -3.7811   -2.3546    1.5917 H   0  0  0  0  0  0  0  0  0  0  0  0
   -3.5591   -3.0406   -0.0383 H   0  0  0  0  0  0  0  0  0  0  0  0
   -1.7921   -2.2226    0.8327 C   0  0  0  0  0  0  0  0  0  0  0  0
   -0.7611   -2.7766    1.1927 O   0  0  0  0  0  0  0  0  0  0  0  0
   -1.8201   -0.9926    0.3247 N   0  0  0  0  0  0  0  0  0  0  0  0
   -2.7141   -0.5816    0.0927 H   0  0  0  0  0  0  0  0  0  0  0  0
   -0.6481   -0.1156    0.2017 C   0  0  1  0  0  0  0  0  0  0  0  0
    0.1042   -0.6345   -0.3958 H   0  0  0  0  0  0  0  0  0  0  0  0
   -1.0420    1.1781   -0.5372 C   0  0  0  0  0  0  0  0  0  0  0  0
   -1.9879    1.5542   -0.1446 H   0  0  0  0  0  0  0  0  0  0  0  0
   -0.2866    1.9461   -0.3650 H   0  0  0  0  0  0  0  0  0  0  0  0
   -1.2218    0.9743   -2.0219 C   0  0  0  0  0  0  0  0  0  0  0  0
   -2.3943    1.2048   -2.7427 N   0  0  0  0  0  0  0  0  0  0  0  0
   -2.0973    0.9440   -4.0241 C   0  0  0  0  0  0  0  0  0  0  0  0
   -2.8016    1.0170   -4.8432 H   0  0  0  0  0  0  0  0  0  0  0  0
   -0.8065    0.5909   -4.1443 N   0  0  0  0  0  0  0  0  0  0  0  0
   -0.3388    0.3652   -5.0115 H   0  0  0  0  0  0  0  0  0  0  0  0
   -0.2360    0.6081   -2.8910 C   0  0  0  0  0  0  0  0  0  0  0  0
    0.7936    0.3973   -2.6302 H   0  0  0  0  0  0  0  0  0  0  0  0
   -0.0283    0.1609    1.5831 C   0  0  0  0  0  0  0  0  0  0  0  0
    1.1923    0.1056    1.7329 O   0  0  0  0  0  0  0  0  0  0  0  0
   -0.8586    0.4659    2.5853 N   0  0  0  0  0  0  0  0  0  0  0  0
   -1.8521    0.3848    2.4000 H   0  0  0  0  0  0  0  0  0  0  0  0
   -0.4403    0.7694    3.9518 C   0  0  0  0  0  0  0  0  0  0  0  0
    0.5066    1.3154    3.9421 H   0  0  0  0  0  0  0  0  0  0  0  0
   -1.1988    1.3789    4.4452 H   0  0  0  0  0  0  0  0  0  0  0  0
   -0.3053   -0.1600    4.5075 H   0  0  0  0  0  0  0  0  0  0  0  0
  5  6  2  0  0  0  0
  5  7  1  0  0  0  0
  2  3  1  0  0  0  0
  2  4  1  0  0  0  0
  2  5  1  0  0  0  0
  1  2  1  0  0  0  0
 22 23  2  0  0  0  0
 22 24  1  0  0  0  0
 20 21  1  0  0  0  0
 18 19  1  0  0  0  0
 18 20  1  0  0  0  0
 16 17  1  0  0  0  0
 16 18  1  0  0  0  0
 15 16  2  0  0  0  0
 14 15  1  0  0  0  0
 14 20  2  0  0  0  0
 11 12  1  0  0  0  0
 11 13  1  0  0  0  0
 11 14  1  0  0  0  0
  9 10  1  0  0  0  0
  9 11  1  0  0  0  0
  9 22  1  0  0  0  0
  7  8  1  0  0  0  0
  7  9  1  0  0  0  0
 26 27  1  0  0  0  0
 26 28  1  0  0  0  0
 26 29  1  0  0  0  0
 24 25  1  0  0  0  0
 24 26  1  0  0  0  0
M  END
$$$$
default_name
  -OEChem-02102213163D

 29 29  0     1  0  0  0  0  0999 V2000
   -2.9561   -3.9186    1.3887 H   0  0  0  0  0  0  0  0  0  0  0  0
   -3.1191   -2.9346    0.9517 C   0  0  0  0  0  0  0  0  0  0  0  0
   -3.7811   -2.3546    1.5917 H   0  0  0  0  0  0  0  0  0  0  0  0
   -3.5591   -3.0406   -0.0383 H   0  0  0  0  0  0  0  0  0  0  0  0
   -1.7921   -2.2226    0.8327 C   0  0  0  0  0  0  0  0  0  0  0  0
   -0.7611   -2.7766    1.1927 O   0  0  0  0  0  0  0  0  0  0  0  0
   -1.8201   -0.9926    0.3247 N   0  0  0  0  0  0  0  0  0  0  0  0
   -2.7141   -0.5816    0.0927 H   0  0  0  0  0  0  0  0  0  0  0  0
   -0.6481   -0.1156    0.2017 C   0  0  1  0  0  0  0  0  0  0  0  0
    0.1042   -0.6345   -0.3958 H   0  0  0  0  0  0  0  0  0  0  0  0
   -1.0420    1.1781   -0.5372 C   0  0  0  0  0  0  0  0  0  0  0  0
   -1.9879    1.5542   -0.1446 H   0  0  0  0  0  0  0  0  0  0  0  0
   -0.2866    1.9461   -0.3650 H   0  0  0  0  0  0  0  0  0  0  0  0
   -1.2218    0.9743   -2.0219 C   0  0  0  0  0  0  0  0  0  0  0  0
   -2.2738    1.4694   -2.7936 N   0  0  0  0  0  0  0  0  0  0  0  0
   -2.0136    1.0967   -4.0552 C   0  0  0  0  0  0  0  0  0  0  0  0
   -2.6503    1.3171   -4.9028 H   0  0  0  0  0  0  0  0  0  0  0  0
   -0.8526    0.4232   -4.1157 N   0  0  0  0  0  0  0  0  0  0  0  0
   -0.4312    0.0556   -4.9578 H   0  0  0  0  0  0  0  0  0  0  0  0
   -0.3356    0.3392   -2.8420 C   0  0  0  0  0  0  0  0  0  0  0  0
    0.5975   -0.1168   -2.5359 H   0  0  0  0  0  0  0  0  0  0  0  0
   -0.0283    0.1609    1.5831 C   0  0  0  0  0  0  0  0  0  0  0  0
    1.1923    0.1056    1.7329 O   0  0  0  0  0  0  0  0  0  0  0  0
   -0.8586    0.4659    2.5853 N   0  0  0  0  0  0  0  0  0  0  0  0
   -1.8521    0.3848    2.4000 H   0  0  0  0  0  0  0  0  0  0  0  0
   -0.4403    0.7694    3.9518 C   0  0  0  0  0  0  0  0  0  0  0  0
    0.5066    1.3154    3.9421 H   0  0  0  0  0  0  0  0  0  0  0  0
   -1.1988    1.3789    4.4452 H   0  0  0  0  0  0  0  0  0  0  0  0
   -0.3053   -0.1600    4.5075 H   0  0  0  0  0  0  0  0  0  0  0  0
  5  6  2  0  0  0  0
  5  7  1  0  0  0  0
  2  3  1  0  0  0  0
  2  4  1  0  0  0  0
  2  5  1  0  0  0  0
  1  2  1  0  0  0  0
 22 23  2  0  0  0  0
 22 24  1  0  0  0  0
 20 21  1  0  0  0  0
 18 19  1  0  0  0  0
 18 20  1  0  0  0  0
 16 17  1  0  0  0  0
 16 18  1  0  0  0  0
 15 16  2  0  0  0  0
 14 15  1  0  0  0  0
 14 20  2  0  0  0  0
 11 12  1  0  0  0  0
 11 13  1  0  0  0  0
 11 14  1  0  0  0  0
  9 10  1  0  0  0  0
  9 11  1  0  0  0  0
  9 22  1  0  0  0  0
  7  8  1  0  0  0  0
  7  9  1  0  0  0  0
 26 27  1  0  0  0  0
 26 28  1  0  0  0  0
 26 29  1  0  0  0  0
 24 25  1  0  0  0  0
 24 26  1  0  0  0  0
M  END
$$$$
default_name
  -OEChem-02102213163D

 29 29  0     1  0  0  0  0  0999 V2000
   -2.9561   -3.9186    1.3887 H   0  0  0  0  0  0  0  0  0  0  0  0
   -3.1191   -2.9346    0.9517 C   0  0  0  0  0  0  0  0  0  0  0  0
   -3.7811   -2.3546    1.5917 H   0  0  0  0  0  0  0  0  0  0  0  0
   -3.5591   -3.0406   -0.0383 H   0  0  0  0  0  0  0  0  0  0  0  0
   -1.7921   -2.2226    0.8327 C   0  0  0  0  0  0  0  0  0  0  0  0
   -0.7611   -2.7766    1.1927 O   0  0  0  0  0  0  0  0  0  0  0  0
   -1.8201   -0.9926    0.3247 N   0  0  0  0  0  0  0  0  0  0  0  0
   -2.7141   -0.5816    0.0927 H   0  0  0  0  0  0  0  0  0  0  0  0
   -0.6481   -0.1156    0.2017 C   0  0  1  0  0  0  0  0  0  0  0  0
    0.1042   -0.6345   -0.3958 H   0  0  0  0  0  0  0  0  0  0  0  0
   -1.0420    1.1781   -0.5372 C   0  0  0  0  0  0  0  0  0  0  0  0
   -1.9879    1.5542   -0.1446 H   0  0  0  0  0  0  0  0  0  0  0  0
   -0.2866    1.9461   -0.3650 H   0  0  0  0  0  0  0  0  0  0  0  0
   -1.2218    0.9743   -2.0219 C   0  0  0  0  0  0  0  0  0  0  0  0
   -2.0882    1.6928   -2.8467 N   0  0  0  0  0  0  0  0  0  0  0  0
   -1.8928    1.2218   -4.0870 C   0  0  0  0  0  0  0  0  0  0  0  0
   -2.4256    1.5667   -4.9642 H   0  0  0  0  0  0  0  0  0  0  0  0
   -0.9407    0.2738   -4.0845 N   0  0  0  0  0  0  0  0  0  0  0  0
   -0.6013   -0.2183   -4.8996 H   0  0  0  0  0  0  0  0  0  0  0  0
   -0.5020    0.1063   -2.7899 C   0  0  0  0  0  0  0  0  0  0  0  0
    0.2739   -0.5607   -2.4358 H   0  0  0  0  0  0  0  0  0  0  0  0
   -0.0283    0.1609    1.5831 C   0  0  0  0  0  0  0  0  0  0  0  0
    1.1923    0.1056    1.7329 O   0  0  0  0  0  0  0  0  0  0  0  0
   -0.8586    0.4659    2.5853 N   0  0  0  0  0  0  0  0  0  0  0  0
   -1.8521    0.3848    2.4000 H   0  0  0  0  0  0  0  0  0  0  0  0
   -0.4403    0.7694    3.9518 C   0  0  0  0  0  0  0  0  0  0  0  0
    0.5066    1.3154    3.9421 H   0  0  0  0  0  0  0  0  0  0  0  0
   -1.1988    1.3789    4.4452 H   0  0  0  0  0  0  0  0  0  0  0  0
   -0.3053   -0.1600    4.5075 H   0  0  0  0  0  0  0  0  0  0  0  0
  5  6  2  0  0  0  0
  5  7  1  0  0  0  0
  2  3  1  0  0  0  0
  2  4  1  0  0  0  0
  2  5  1  0  0  0  0
  1  2  1  0  0  0  0
 22 23  2  0  0  0  0
 22 24  1  0  0  0  0
 20 21  1  0  0  0  0
 18 19  1  0  0  0  0
 18 20  1  0  0  0  0
 16 17  1  0  0  0  0
 16 18  1  0  0  0  0
 15 16  2  0  0  0  0
 14 15  1  0  0  0  0
 14 20  2  0  0  0  0
 11 12  1  0  0  0  0
 11 13  1  0  0  0  0
 11 14  1  0  0  0  0
  9 10  1  0  0  0  0
  9 11  1  0  0  0  0
  9 22  1  0  0  0  0
  7  8  1  0  0  0  0
  7  9  1  0  0  0  0
 26 27  1  0  0  0  0
 26 28  1  0  0  0  0
 26 29  1  0  0  0  0
 24 25  1  0  0  0  0
 24 26  1  0  0  0  0
M  END
$$$$
default_name
  -OEChem-02102213163D

 29 29  0     1  0  0  0  0  0999 V2000
   -2.9561   -3.9186    1.3887 H   0  0  0  0  0  0  0  0  0  0  0  0
   -3.1191   -2.9346    0.9517 C   0  0  0  0  0  0  0  0  0  0  0  0
   -3.7811   -2.3546    1.5917 H   0  0  0  0  0  0  0  0  0  0  0  0
   -3.5591   -3.0406   -0.0383 H   0  0  0  0  0  0  0  0  0  0  0  0
   -1.7921   -2.2226    0.8327 C   0  0  0  0  0  0  0  0  0  0  0  0
   -0.7611   -2.7766    1.1927 O   0  0  0  0  0  0  0  0  0  0  0  0
   -1.8201   -0.9926    0.3247 N   0  0  0  0  0  0  0  0  0  0  0  0
   -2.7141   -0.5816    0.0927 H   0  0  0  0  0  0  0  0  0  0  0  0
   -0.6481   -0.1156    0.2017 C   0  0  1  0  0  0  0  0  0  0  0  0
    0.1042   -0.6345   -0.3958 H   0  0  0  0  0  0  0  0  0  0  0  0
   -1.0420    1.1781   -0.5372 C   0  0  0  0  0  0  0  0  0  0  0  0
   -1.9879    1.5542   -0.1446 H   0  0  0  0  0  0  0  0  0  0  0  0
   -0.2866    1.9461   -0.3650 H   0  0  0  0  0  0  0  0  0  0  0  0
   -1.2218    0.9743   -2.0219 C   0  0  0  0  0  0  0  0  0  0  0  0
   -1.8502    1.8597   -2.8985 N   0  0  0  0  0  0  0  0  0  0  0  0
   -1.7432    1.3110   -4.1174 C   0  0  0  0  0  0  0  0  0  0  0  0
   -2.1429    1.7487   -5.0234 H   0  0  0  0  0  0  0  0  0  0  0  0
   -1.0650    0.1529   -4.0528 N   0  0  0  0  0  0  0  0  0  0  0  0
   -0.8373   -0.4378   -4.8409 H   0  0  0  0  0  0  0  0  0  0  0  0
   -0.7238   -0.0747   -2.7381 C   0  0  0  0  0  0  0  0  0  0  0  0
   -0.1551   -0.9040   -2.3367 H   0  0  0  0  0  0  0  0  0  0  0  0
   -0.0283    0.1609    1.5831 C   0  0  0  0  0  0  0  0  0  0  0  0
    1.1923    0.1056    1.7329 O   0  0  0  0  0  0  0  0  0  0  0  0
   -0.8586    0.4659    2.5853 N   0  0  0  0  0  0  0  0  0  0  0  0
   -1.8521    0.3848    2.4000 H   0  0  0  0  0  0  0  0  0  0  0  0
   -0.4403    0.7694    3.9518 C   0  0  0  0  0  0  0  0  0  0  0  0
    0.5066    1.3154    3.9421 H   0  0  0  0  0  0  0  0  0  0  0  0
   -1.1988    1.3789    4.4452 H   0  0  0  0  0  0  0  0  0  0  0  0
   -0.3053   -0.1600    4.5075 H   0  0  0  0  0  0  0  0  0  0  0  0
  5  6  2  0  0  0  0
  5  7  1  0  0  0  0
  2  3  1  0  0  0  0
  2  4  1  0  0  0  0
  2  5  1  0  0  0  0
  1  2  1  0  0  0  0
 22 23  2  0  0  0  0
 22 24  1  0  0  0  0
 20 21  1  0  0  0  0
 18 19  1  0  0  0  0
 18 20  1  0  0  0  0
 16 17  1  0  0  0  0
 16 18  1  0  0  0  0
 15 16  2  0  0  0  0
 14 15  1  0  0  0  0
 14 20  2  0  0  0  0
 11 12  1  0  0  0  0
 11 13  1  0  0  0  0
 11 14  1  0  0  0  0
  9 10  1  0  0  0  0
  9 11  1  0  0  0  0
  9 22  1  0  0  0  0
  7  8  1  0  0  0  0
  7  9  1  0  0  0  0
 26 27  1  0  0  0  0
 26 28  1  0  0  0  0
 26 29  1  0  0  0  0
 24 25  1  0  0  0  0
 24 26  1  0  0  0  0
M  END
$$$$
default_name
  -OEChem-02102213163D

 29 29  0     1  0  0  0  0  0999 V2000
   -2.9561   -3.9186    1.3887 H   0  0  0  0  0  0  0  0  0  0  0  0
   -3.1191   -2.9346    0.9517 C   0  0  0  0  0  0  0  0  0  0  0  0
   -3.7811   -2.3546    1.5917 H   0  0  0  0  0  0  0  0  0  0  0  0
   -3.5591   -3.0406   -0.0383 H   0  0  0  0  0  0  0  0  0  0  0  0
   -1.7921   -2.2226    0.8327 C   0  0  0  0  0  0  0  0  0  0  0  0
   -0.7611   -2.7766    1.1927 O   0  0  0  0  0  0  0  0  0  0  0  0
   -1.8201   -0.9926    0.3247 N   0  0  0  0  0  0  0  0  0  0  0  0
   -2.7141   -0.5816    0.0927 H   0  0  0  0  0  0  0  0  0  0  0  0
   -0.6481   -0.1156    0.2017 C   0  0  1  0  0  0  0  0  0  0  0  0
    0.1042   -0.6345   -0.3958 H   0  0  0  0  0  0  0  0  0  0  0  0
   -1.0420    1.1781   -0.5372 C   0  0  0  0  0  0  0  0  0  0  0  0
   -1.8269    1.6953    0.0166 H   0  0  0  0  0  0  0  0  0  0  0  0
   -0.1829    1.8481   -0.5918 H   0  0  0  0  0  0  0  0  0  0  0  0
   -1.5687    0.9221   -1.9283 C   0  0  0  0  0  0  0  0  0  0  0  0
   -2.0012    1.8948   -2.8306 N   0  0  0  0  0  0  0  0  0  0  0  0
   -2.3357    1.2372   -3.9504 C   0  0  0  0  0  0  0  0  0  0  0  0
   -2.7233    1.7083   -4.8449 H   0  0  0  0  0  0  0  0  0  0  0  0
   -2.1128   -0.0799   -3.8055 N   0  0  0  0  0  0  0  0  0  0  0  0
   -2.2677   -0.7823   -4.5158 H   0  0  0  0  0  0  0  0  0  0  0  0
   -1.6246   -0.2979   -2.5364 C   0  0  0  0  0  0  0  0  0  0  0  0
   -1.3196   -1.2398   -2.0981 H   0  0  0  0  0  0  0  0  0  0  0  0
   -0.0283    0.1609    1.5831 C   0  0  0  0  0  0  0  0  0  0  0  0
    1.1923    0.1056    1.7329 O   0  0  0  0  0  0  0  0  0  0  0  0
   -0.8586    0.4659    2.5853 N   0  0  0  0  0  0  0  0  0  0  0  0
   -1.8521    0.3848    2.4000 H   0  0  0  0  0  0  0  0  0  0  0  0
   -0.4403    0.7694    3.9518 C   0  0  0  0  0  0  0  0  0  0  0  0
    0.5066    1.3154    3.9421 H   0  0  0  0  0  0  0  0  0  0  0  0
   -1.1988    1.3789    4.4452 H   0  0  0  0  0  0  0  0  0  0  0  0
   -0.3053   -0.1600    4.5075 H   0  0  0  0  0  0  0  0  0  0  0  0
  5  6  2  0  0  0  0
  5  7  1  0  0  0  0
  2  3  1  0  0  0  0
  2  4  1  0  0  0  0
  2  5  1  0  0  0  0
  1  2  1  0  0  0  0
 22 23  2  0  0  0  0
 22 24  1  0  0  0  0
 20 21  1  0  0  0  0
 18 19  1  0  0  0  0
 18 20  1  0  0  0  0
 16 17  1  0  0  0  0
 16 18  1  0  0  0  0
 15 16  2  0  0  0  0
 14 15  1  0  0  0  0
 14 20  2  0  0  0  0
 11 12  1  0  0  0  0
 11 13  1  0  0  0  0
 11 14  1  0  0  0  0
  9 10  1  0  0  0  0
  9 11  1  0  0  0  0
  9 22  1  0  0  0  0
  7  8  1  0  0  0  0
  7  9  1  0  0  0  0
 26 27  1  0  0  0  0
 26 28  1  0  0  0  0
 26 29  1  0  0  0  0
 24 25  1  0  0  0  0
 24 26  1  0  0  0  0
M  END
$$$$
default_name
  -OEChem-02102213163D

 29 29  0     1  0  0  0  0  0999 V2000
   -2.9561   -3.9186    1.3887 H   0  0  0  0  0  0  0  0  0  0  0  0
   -3.1191   -2.9346    0.9517 C   0  0  0  0  0  0  0  0  0  0  0  0
   -3.7811   -2.3546    1.5917 H   0  0  0  0  0  0  0  0  0  0  0  0
   -3.5591   -3.0406   -0.0383 H   0  0  0  0  0  0  0  0  0  0  0  0
   -1.7921   -2.2226    0.8327 C   0  0  0  0  0  0  0  0  0  0  0  0
   -0.7611   -2.7766    1.1927 O   0  0  0  0  0  0  0  0  0  0  0  0
   -1.8201   -0.9926    0.3247 N   0  0  0  0  0  0  0  0  0  0  0  0
   -2.7141   -0.5816    0.0927 H   0  0  0  0  0  0  0  0  0  0  0  0
   -0.6481   -0.1156    0.2017 C   0  0  1  0  0  0  0  0  0  0  0  0
    0.1042   -0.6345   -0.3958 H   0  0  0  0  0  0  0  0  0  0  0  0
   -1.0420    1.1781   -0.5372 C   0  0  0  0  0  0  0  0  0  0  0  0
   -1.8269    1.6953    0.0166 H   0  0  0  0  0  0  0  0  0  0  0  0
   -0.1829    1.8481   -0.5918 H   0  0  0  0  0  0  0  0  0  0  0  0
   -1.5687    0.9221   -1.9283 C   0  0  0  0  0  0  0  0  0  0  0  0
   -1.7245    1.8786   -2.9324 N   0  0  0  0  0  0  0  0  0  0  0  0
   -2.1703    1.2148   -4.0089 C   0  0  0  0  0  0  0  0  0  0  0  0
   -2.4035    1.6764   -4.9601 H   0  0  0  0  0  0  0  0  0  0  0  0
   -2.2758   -0.0975   -3.7406 N   0  0  0  0  0  0  0  0  0  0  0  0
   -2.5715   -0.8080   -4.3961 H   0  0  0  0  0  0  0  0  0  0  0  0
   -1.8963   -0.3024   -2.4327 C   0  0  0  0  0  0  0  0  0  0  0  0
   -1.8415   -1.2434   -1.8998 H   0  0  0  0  0  0  0  0  0  0  0  0
   -0.0283    0.1609    1.5831 C   0  0  0  0  0  0  0  0  0  0  0  0
    1.1923    0.1056    1.7329 O   0  0  0  0  0  0  0  0  0  0  0  0
   -0.8586    0.4659    2.5853 N   0  0  0  0  0  0  0  0  0  0  0  0
   -1.8521    0.3848    2.4000 H   0  0  0  0  0  0  0  0  0  0  0  0
   -0.4403    0.7694    3.9518 C   0  0  0  0  0  0  0  0  0  0  0  0
    0.5066    1.3154    3.9421 H   0  0  0  0  0  0  0  0  0  0  0  0
   -1.1988    1.3789    4.4452 H   0  0  0  0  0  0  0  0  0  0  0  0
   -0.3053   -0.1600    4.5075 H   0  0  0  0  0  0  0  0  0  0  0  0
  5  6  2  0  0  0  0
  5  7  1  0  0  0  0
  2  3  1  0  0  0  0
  2  4  1  0  0  0  0
  2  5  1  0  0  0  0
  1  2  1  0  0  0  0
 22 23  2  0  0  0  0
 22 24  1  0  0  0  0
 20 21  1  0  0  0  0
 18 19  1  0  0  0  0
 18 20  1  0  0  0  0
 16 17  1  0  0  0  0
 16 18  1  0  0  0  0
 15 16  2  0  0  0  0
 14 15  1  0  0  0  0
 14 20  2  0  0  0  0
 11 12  1  0  0  0  0
 11 13  1  0  0  0  0
 11 14  1  0  0  0  0
  9 10  1  0  0  0  0
  9 11  1  0  0  0  0
  9 22  1  0  0  0  0
  7  8  1  0  0  0  0
  7  9  1  0  0  0  0
 26 27  1  0  0  0  0
 26 28  1  0  0  0  0
 26 29  1  0  0  0  0
 24 25  1  0  0  0  0
 24 26  1  0  0  0  0
M  END
$$$$
default_name
  -OEChem-02102213163D

 29 29  0     1  0  0  0  0  0999 V2000
   -2.9561   -3.9186    1.3887 H   0  0  0  0  0  0  0  0  0  0  0  0
   -3.1191   -2.9346    0.9517 C   0  0  0  0  0  0  0  0  0  0  0  0
   -3.7811   -2.3546    1.5917 H   0  0  0  0  0  0  0  0  0  0  0  0
   -3.5591   -3.0406   -0.0383 H   0  0  0  0  0  0  0  0  0  0  0  0
   -1.7921   -2.2226    0.8327 C   0  0  0  0  0  0  0  0  0  0  0  0
   -0.7611   -2.7766    1.1927 O   0  0  0  0  0  0  0  0  0  0  0  0
   -1.8201   -0.9926    0.3247 N   0  0  0  0  0  0  0  0  0  0  0  0
   -2.7141   -0.5816    0.0927 H   0  0  0  0  0  0  0  0  0  0  0  0
   -0.6481   -0.1156    0.2017 C   0  0  1  0  0  0  0  0  0  0  0  0
    0.1042   -0.6345   -0.3958 H   0  0  0  0  0  0  0  0  0  0  0  0
   -1.0420    1.1781   -0.5372 C   0  0  0  0  0  0  0  0  0  0  0  0
   -1.8269    1.6953    0.0166 H   0  0  0  0  0  0  0  0  0  0  0  0
   -0.1829    1.8481   -0.5918 H   0  0  0  0  0  0  0  0  0  0  0  0
   -1.5687    0.9221   -1.9283 C   0  0  0  0  0  0  0  0  0  0  0  0
   -1.4566    1.7878   -3.0171 N   0  0  0  0  0  0  0  0  0  0  0  0
   -2.0133    1.1484   -4.0561 C   0  0  0  0  0  0  0  0  0  0  0  0
   -2.0972    1.5590   -5.0544 H   0  0  0  0  0  0  0  0  0  0  0  0
   -2.4402   -0.0699   -3.6834 N   0  0  0  0  0  0  0  0  0  0  0  0
   -2.8764   -0.7495   -4.2914 H   0  0  0  0  0  0  0  0  0  0  0  0
   -2.1645   -0.2327   -2.3440 C   0  0  0  0  0  0  0  0  0  0  0  0
   -2.3552   -1.1045   -1.7309 H   0  0  0  0  0  0  0  0  0  0  0  0
   -0.0283    0.1609    1.5831 C   0  0  0  0  0  0  0  0  0  0  0  0
    1.1923    0.1056    1.7329 O   0  0  0  0  0  0  0  0  0  0  0  0
   -0.8586    0.4659    2.5853 N   0  0  0  0  0  0  0  0  0  0  0  0
   -1.8521    0.3848    2.4000 H   0  0  0  0  0  0  0  0  0  0  0  0
   -0.4403    0.7694    3.9518 C   0  0  0  0  0  0  0  0  0  0  0  0
    0.5066    1.3154    3.9421 H   0  0  0  0  0  0  0  0  0  0  0  0
   -1.1988    1.3789    4.4452 H   0  0  0  0  0  0  0  0  0  0  0  0
   -0.3053   -0.1600    4.5075 H   0  0  0  0  0  0  0  0  0  0  0  0
  5  6  2  0  0  0  0
  5  7  1  0  0  0  0
  2  3  1  0  0  0  0
  2  4  1  0  0  0  0
  2  5  1  0  0  0  0
  1  2  1  0  0  0  0
 22 23  2  0  0  0  0
 22 24  1  0  0  0  0
 20 21  1  0  0  0  0
 18 19  1  0  0  0  0
 18 20  1  0  0  0  0
 16 17  1  0  0  0  0
 16 18  1  0  0  0  0
 15 16  2  0  0  0  0
 14 15  1  0  0  0  0
 14 20  2  0  0  0  0
 11 12  1  0  0  0  0
 11 13  1  0  0  0  0
 11 14  1  0  0  0  0
  9 10  1  0  0  0  0
  9 11  1  0  0  0  0
  9 22  1  0  0  0  0
  7  8  1  0  0  0  0
  7  9  1  0  0  0  0
 26 27  1  0  0  0  0
 26 28  1  0  0  0  0
 26 29  1  0  0  0  0
 24 25  1  0  0  0  0
 24 26  1  0  0  0  0
M  END
$$$$
default_name
  -OEChem-02102213163D

 29 29  0     1  0  0  0  0  0999 V2000
   -2.9561   -3.9186    1.3887 H   0  0  0  0  0  0  0  0  0  0  0  0
   -3.1191   -2.9346    0.9517 C   0  0  0  0  0  0  0  0  0  0  0  0
   -3.7811   -2.3546    1.5917 H   0  0  0  0  0  0  0  0  0  0  0  0
   -3.5591   -3.0406   -0.0383 H   0  0  0  0  0  0  0  0  0  0  0  0
   -1.7921   -2.2226    0.8327 C   0  0  0  0  0  0  0  0  0  0  0  0
   -0.7611   -2.7766    1.1927 O   0  0  0  0  0  0  0  0  0  0  0  0
   -1.8201   -0.9926    0.3247 N   0  0  0  0  0  0  0  0  0  0  0  0
   -2.7141   -0.5816    0.0927 H   0  0  0  0  0  0  0  0  0  0  0  0
   -0.6481   -0.1156    0.2017 C   0  0  1  0  0  0  0  0  0  0  0  0
    0.1042   -0.6345   -0.3958 H   0  0  0  0  0  0  0  0  0  0  0  0
   -1.0420    1.1781   -0.5372 C   0  0  0  0  0  0  0  0  0  0  0  0
   -1.8269    1.6953    0.0166 H   0  0  0  0  0  0  0  0  0  0  0  0
   -0.1829    1.8481   -0.5918 H   0  0  0  0  0  0  0  0  0  0  0  0
   -1.5687    0.9221   -1.9283 C   0  0  0  0  0  0  0  0  0  0  0  0
   -1.2159    1.6285   -3.0789 N   0  0  0  0  0  0  0  0  0  0  0  0
   -1.8755    1.0426   -4.0888 C   0  0  0  0  0  0  0  0  0  0  0  0
   -1.8252    1.3640   -5.1215 H   0  0  0  0  0  0  0  0  0  0  0  0
   -2.5949    0.0012   -3.6380 N   0  0  0  0  0  0  0  0  0  0  0  0
   -3.1615   -0.6109   -4.2089 H   0  0  0  0  0  0  0  0  0  0  0  0
   -2.4107   -0.0933   -2.2764 C   0  0  0  0  0  0  0  0  0  0  0  0
   -2.8257   -0.8325   -1.6028 H   0  0  0  0  0  0  0  0  0  0  0  0
   -0.0283    0.1609    1.5831 C   0  0  0  0  0  0  0  0  0  0  0  0
    1.1923    0.1056    1.7329 O   0  0  0  0  0  0  0  0  0  0  0  0
   -0.8586    0.4659    2.5853 N   0  0  0  0  0  0  0  0  0  0  0  0
   -1.8521    0.3848    2.4000 H   0  0  0  0  0  0  0  0  0  0  0  0
   -0.4403    0.7694    3.9518 C   0  0  0  0  0  0  0  0  0  0  0  0
    0.5066    1.3154    3.9421 H   0  0  0  0  0  0  0  0  0  0  0  0
   -1.1988    1.3789    4.4452 H   0  0  0  0  0  0  0  0  0  0  0  0
   -0.3053   -0.1600    4.5075 H   0  0  0  0  0  0  0  0  0  0  0  0
  5  6  2  0  0  0  0
  5  7  1  0  0  0  0
  2  3  1  0  0  0  0
  2  4  1  0  0  0  0
  2  5  1  0  0  0  0
  1  2  1  0  0  0  0
 22 23  2  0  0  0  0
 22 24  1  0  0  0  0
 20 21  1  0  0  0  0
 18 19  1  0  0  0  0
 18 20  1  0  0  0  0
 16 17  1  0  0  0  0
 16 18  1  0  0  0  0
 15 16  2  0  0  0  0
 14 15  1  0  0  0  0
 14 20  2  0  0  0  0
 11 12  1  0  0  0  0
 11 13  1  0  0  0  0
 11 14  1  0  0  0  0
  9 10  1  0  0  0  0
  9 11  1  0  0  0  0
  9 22  1  0  0  0  0
  7  8  1  0  0  0  0
  7  9  1  0  0  0  0
 26 27  1  0  0  0  0
 26 28  1  0  0  0  0
 26 29  1  0  0  0  0
 24 25  1  0  0  0  0
 24 26  1  0  0  0  0
M  END
$$$$
default_name
  -OEChem-02102213163D

 29 29  0     1  0  0  0  0  0999 V2000
   -2.9561   -3.9186    1.3887 H   0  0  0  0  0  0  0  0  0  0  0  0
   -3.1191   -2.9346    0.9517 C   0  0  0  0  0  0  0  0  0  0  0  0
   -3.7811   -2.3546    1.5917 H   0  0  0  0  0  0  0  0  0  0  0  0
   -3.5591   -3.0406   -0.0383 H   0  0  0  0  0  0  0  0  0  0  0  0
   -1.7921   -2.2226    0.8327 C   0  0  0  0  0  0  0  0  0  0  0  0
   -0.7611   -2.7766    1.1927 O   0  0  0  0  0  0  0  0  0  0  0  0
   -1.8201   -0.9926    0.3247 N   0  0  0  0  0  0  0  0  0  0  0  0
   -2.7141   -0.5816    0.0927 H   0  0  0  0  0  0  0  0  0  0  0  0
   -0.6481   -0.1156    0.2017 C   0  0  1  0  0  0  0  0  0  0  0  0
    0.1042   -0.6345   -0.3958 H   0  0  0  0  0  0  0  0  0  0  0  0
   -1.0420    1.1781   -0.5372 C   0  0  0  0  0  0  0  0  0  0  0  0
   -1.8269    1.6953    0.0166 H   0  0  0  0  0  0  0  0  0  0  0  0
   -0.1829    1.8481   -0.5918 H   0  0  0  0  0  0  0  0  0  0  0  0
   -1.5687    0.9221   -1.9283 C   0  0  0  0  0  0  0  0  0  0  0  0
   -1.0186    1.4117   -3.1137 N   0  0  0  0  0  0  0  0  0  0  0  0
   -1.7661    0.9046   -4.1048 C   0  0  0  0  0  0  0  0  0  0  0  0
   -1.6060    1.1046   -5.1568 H   0  0  0  0  0  0  0  0  0  0  0  0
   -2.7294    0.1110   -3.6072 N   0  0  0  0  0  0  0  0  0  0  0  0
   -3.4075   -0.4015   -4.1544 H   0  0  0  0  0  0  0  0  0  0  0  0
   -2.6183    0.1062   -2.2346 C   0  0  0  0  0  0  0  0  0  0  0  0
   -3.2209   -0.4459   -1.5244 H   0  0  0  0  0  0  0  0  0  0  0  0
   -0.0283    0.1609    1.5831 C   0  0  0  0  0  0  0  0  0  0  0  0
    1.1923    0.1056    1.7329 O   0  0  0  0  0  0  0  0  0  0  0  0
   -0.8586    0.4659    2.5853 N   0  0  0  0  0  0  0  0  0  0  0  0
   -1.8521    0.3848    2.4000 H   0  0  0  0  0  0  0  0  0  0  0  0
   -0.4403    0.7694    3.9518 C   0  0  0  0  0  0  0  0  0  0  0  0
    0.5066    1.3154    3.9421 H   0  0  0  0  0  0  0  0  0  0  0  0
   -1.1988    1.3789    4.4452 H   0  0  0  0  0  0  0  0  0  0  0  0
   -0.3053   -0.1600    4.5075 H   0  0  0  0  0  0  0  0  0  0  0  0
  5  6  2  0  0  0  0
  5  7  1  0  0  0  0
  2  3  1  0  0  0  0
  2  4  1  0  0  0  0
  2  5  1  0  0  0  0
  1  2  1  0  0  0  0
 22 23  2  0  0  0  0
 22 24  1  0  0  0  0
 20 21  1  0  0  0  0
 18 19  1  0  0  0  0
 18 20  1  0  0  0  0
 16 17  1  0  0  0  0
 16 18  1  0  0  0  0
 15 16  2  0  0  0  0
 14 15  1  0  0  0  0
 14 20  2  0  0  0  0
 11 12  1  0  0  0  0
 11 13  1  0  0  0  0
 11 14  1  0  0  0  0
  9 10  1  0  0  0  0
  9 11  1  0  0  0  0
  9 22  1  0  0  0  0
  7  8  1  0  0  0  0
  7  9  1  0  0  0  0
 26 27  1  0  0  0  0
 26 28  1  0  0  0  0
 26 29  1  0  0  0  0
 24 25  1  0  0  0  0
 24 26  1  0  0  0  0
M  END
$$$$
default_name
  -OEChem-02102213163D

 29 29  0     1  0  0  0  0  0999 V2000
   -2.9561   -3.9186    1.3887 H   0  0  0  0  0  0  0  0  0  0  0  0
   -3.1191   -2.9346    0.9517 C   0  0  0  0  0  0  0  0  0  0  0  0
   -3.7811   -2.3546    1.5917 H   0  0  0  0  0  0  0  0  0  0  0  0
   -3.5591   -3.0406   -0.0383 H   0  0  0  0  0  0  0  0  0  0  0  0
   -1.7921   -2.2226    0.8327 C   0  0  0  0  0  0  0  0  0  0  0  0
   -0.7611   -2.7766    1.1927 O   0  0  0  0  0  0  0  0  0  0  0  0
   -1.8201   -0.9926    0.3247 N   0  0  0  0  0  0  0  0  0  0  0  0
   -2.7141   -0.5816    0.0927 H   0  0  0  0  0  0  0  0  0  0  0  0
   -0.6481   -0.1156    0.2017 C   0  0  1  0  0  0  0  0  0  0  0  0
    0.1042   -0.6345   -0.3958 H   0  0  0  0  0  0  0  0  0  0  0  0
   -1.0420    1.1781   -0.5372 C   0  0  0  0  0  0  0  0  0  0  0  0
   -1.8269    1.6953    0.0166 H   0  0  0  0  0  0  0  0  0  0  0  0
   -0.1829    1.8481   -0.5918 H   0  0  0  0  0  0  0  0  0  0  0  0
   -1.5687    0.9221   -1.9283 C   0  0  0  0  0  0  0  0  0  0  0  0
   -0.8782    1.1520   -3.1190 N   0  0  0  0  0  0  0  0  0  0  0  0
   -1.6927    0.7437   -4.1030 C   0  0  0  0  0  0  0  0  0  0  0  0
   -1.4546    0.7986   -5.1578 H   0  0  0  0  0  0  0  0  0  0  0  0
   -2.8345    0.2518   -3.5934 N   0  0  0  0  0  0  0  0  0  0  0  0
   -3.5976   -0.1357   -4.1313 H   0  0  0  0  0  0  0  0  0  0  0  0
   -2.7731    0.3522   -2.2212 C   0  0  0  0  0  0  0  0  0  0  0  0
   -3.5139    0.0288   -1.5008 H   0  0  0  0  0  0  0  0  0  0  0  0
   -0.0283    0.1609    1.5831 C   0  0  0  0  0  0  0  0  0  0  0  0
    1.1923    0.1056    1.7329 O   0  0  0  0  0  0  0  0  0  0  0  0
   -0.8586    0.4659    2.5853 N   0  0  0  0  0  0  0  0  0  0  0  0
   -1.8521    0.3848    2.4000 H   0  0  0  0  0  0  0  0  0  0  0  0
   -0.4403    0.7694    3.9518 C   0  0  0  0  0  0  0  0  0  0  0  0
    0.5066    1.3154    3.9421 H   0  0  0  0  0  0  0  0  0  0  0  0
   -1.1988    1.3789    4.4452 H   0  0  0  0  0  0  0  0  0  0  0  0
   -0.3053   -0.1600    4.5075 H   0  0  0  0  0  0  0  0  0  0  0  0
  5  6  2  0  0  0  0
  5  7  1  0  0  0  0
  2  3  1  0  0  0  0
  2  4  1  0  0  0  0
  2  5  1  0  0  0  0
  1  2  1  0  0  0  0
 22 23  2  0  0  0  0
 22 24  1  0  0  0  0
 20 21  1  0  0  0  0
 18 19  1  0  0  0  0
 18 20  1  0  0  0  0
 16 17  1  0  0  0  0
 16 18  1  0  0  0  0
 15 16  2  0  0  0  0
 14 15  1  0  0  0  0
 14 20  2  0  0  0  0
 11 12  1  0  0  0  0
 11 13  1  0  0  0  0
 11 14  1  0  0  0  0
  9 10  1  0  0  0  0
  9 11  1  0  0  0  0
  9 22  1  0  0  0  0
  7  8  1  0  0  0  0
  7  9  1  0  0  0  0
 26 27  1  0  0  0  0
 26 28  1  0  0  0  0
 26 29  1  0  0  0  0
 24 25  1  0  0  0  0
 24 26  1  0  0  0  0
M  END
$$$$
default_name
  -OEChem-02102213163D

 29 29  0     1  0  0  0  0  0999 V2000
   -2.9561   -3.9186    1.3887 H   0  0  0  0  0  0  0  0  0  0  0  0
   -3.1191   -2.9346    0.9517 C   0  0  0  0  0  0  0  0  0  0  0  0
   -3.7811   -2.3546    1.5917 H   0  0  0  0  0  0  0  0  0  0  0  0
   -3.5591   -3.0406   -0.0383 H   0  0  0  0  0  0  0  0  0  0  0  0
   -1.7921   -2.2226    0.8327 C   0  0  0  0  0  0  0  0  0  0  0  0
   -0.7611   -2.7766    1.1927 O   0  0  0  0  0  0  0  0  0  0  0  0
   -1.8201   -0.9926    0.3247 N   0  0  0  0  0  0  0  0  0  0  0  0
   -2.7141   -0.5816    0.0927 H   0  0  0  0  0  0  0  0  0  0  0  0
   -0.6481   -0.1156    0.2017 C   0  0  1  0  0  0  0  0  0  0  0  0
    0.1042   -0.6345   -0.3958 H   0  0  0  0  0  0  0  0  0  0  0  0
   -1.0420    1.1781   -0.5372 C   0  0  0  0  0  0  0  0  0  0  0  0
   -1.8269    1.6953    0.0166 H   0  0  0  0  0  0  0  0  0  0  0  0
   -0.1829    1.8481   -0.5918 H   0  0  0  0  0  0  0  0  0  0  0  0
   -1.5687    0.9221   -1.9283 C   0  0  0  0  0  0  0  0  0  0  0  0
   -0.8043    0.8672   -3.0946 N   0  0  0  0  0  0  0  0  0  0  0  0
   -1.6603    0.5710   -4.0835 C   0  0  0  0  0  0  0  0  0  0  0  0
   -1.3813    0.4669   -5.1245 H   0  0  0  0  0  0  0  0  0  0  0  0
   -2.9030    0.4141   -3.5973 N   0  0  0  0  0  0  0  0  0  0  0  0
   -3.7187    0.1685   -4.1414 H   0  0  0  0  0  0  0  0  0  0  0  0
   -2.8645    0.6279   -2.2374 C   0  0  0  0  0  0  0  0  0  0  0  0
   -3.6846    0.5593   -1.5338 H   0  0  0  0  0  0  0  0  0  0  0  0
   -0.0283    0.1609    1.5831 C   0  0  0  0  0  0  0  0  0  0  0  0
    1.1923    0.1056    1.7329 O   0  0  0  0  0  0  0  0  0  0  0  0
   -0.8586    0.4659    2.5853 N   0  0  0  0  0  0  0  0  0  0  0  0
   -1.8521    0.3848    2.4000 H   0  0  0  0  0  0  0  0  0  0  0  0
   -0.4403    0.7694    3.9518 C   0  0  0  0  0  0  0  0  0  0  0  0
    0.5066    1.3154    3.9421 H   0  0  0  0  0  0  0  0  0  0  0  0
   -1.1988    1.3789    4.4452 H   0  0  0  0  0  0  0  0  0  0  0  0
   -0.3053   -0.1600    4.5075 H   0  0  0  0  0  0  0  0  0  0  0  0
  5  6  2  0  0  0  0
  5  7  1  0  0  0  0
  2  3  1  0  0  0  0
  2  4  1  0  0  0  0
  2  5  1  0  0  0  0
  1  2  1  0  0  0  0
 22 23  2  0  0  0  0
 22 24  1  0  0  0  0
 20 21  1  0  0  0  0
 18 19  1  0  0  0  0
 18 20  1  0  0  0  0
 16 17  1  0  0  0  0
 16 18  1  0  0  0  0
 15 16  2  0  0  0  0
 14 15  1  0  0  0  0
 14 20  2  0  0  0  0
 11 12  1  0  0  0  0
 11 13  1  0  0  0  0
 11 14  1  0  0  0  0
  9 10  1  0  0  0  0
  9 11  1  0  0  0  0
  9 22  1  0  0  0  0
  7  8  1  0  0  0  0
  7  9  1  0  0  0  0
 26 27  1  0  0  0  0
 26 28  1  0  0  0  0
 26 29  1  0  0  0  0
 24 25  1  0  0  0  0
 24 26  1  0  0  0  0
M  END
$$$$
default_name
  -OEChem-02102213163D

 29 29  0     1  0  0  0  0  0999 V2000
   -2.9561   -3.9186    1.3887 H   0  0  0  0  0  0  0  0  0  0  0  0
   -3.1191   -2.9346    0.9517 C   0  0  0  0  0  0  0  0  0  0  0  0
   -3.7811   -2.3546    1.5917 H   0  0  0  0  0  0  0  0  0  0  0  0
   -3.5591   -3.0406   -0.0383 H   0  0  0  0  0  0  0  0  0  0  0  0
   -1.7921   -2.2226    0.8327 C   0  0  0  0  0  0  0  0  0  0  0  0
   -0.7611   -2.7766    1.1927 O   0  0  0  0  0  0  0  0  0  0  0  0
   -1.8201   -0.9926    0.3247 N   0  0  0  0  0  0  0  0  0  0  0  0
   -2.7141   -0.5816    0.0927 H   0  0  0  0  0  0  0  0  0  0  0  0
   -0.6481   -0.1156    0.2017 C   0  0  1  0  0  0  0  0  0  0  0  0
    0.1042   -0.6345   -0.3958 H   0  0  0  0  0  0  0  0  0  0  0  0
   -1.0420    1.1781   -0.5372 C   0  0  0  0  0  0  0  0  0  0  0  0
   -1.8269    1.6953    0.0166 H   0  0  0  0  0  0  0  0  0  0  0  0
   -0.1829    1.8481   -0.5918 H   0  0  0  0  0  0  0  0  0  0  0  0
   -1.5687    0.9221   -1.9283 C   0  0  0  0  0  0  0  0  0  0  0  0
   -0.8020    0.5767   -3.0420 N   0  0  0  0  0  0  0  0  0  0  0  0
   -1.6710    0.3982   -4.0476 C   0  0  0  0  0  0  0  0  0  0  0  0
   -1.3912    0.1320   -5.0591 H   0  0  0  0  0  0  0  0  0  0  0  0
   -2.9303    0.5869   -3.6188 N   0  0  0  0  0  0  0  0  0  0  0  0
   -3.7628    0.4904   -4.1840 H   0  0  0  0  0  0  0  0  0  0  0  0
   -2.8863    0.9146   -2.2819 C   0  0  0  0  0  0  0  0  0  0  0  0
   -3.7216    1.1095   -1.6211 H   0  0  0  0  0  0  0  0  0  0  0  0
   -0.0283    0.1609    1.5831 C   0  0  0  0  0  0  0  0  0  0  0  0
    1.1923    0.1056    1.7329 O   0  0  0  0  0  0  0  0  0  0  0  0
   -0.8586    0.4659    2.5853 N   0  0  0  0  0  0  0  0  0  0  0  0
   -1.8521    0.3848    2.4000 H   0  0  0  0  0  0  0  0  0  0  0  0
   -0.4403    0.7694    3.9518 C   0  0  0  0  0  0  0  0  0  0  0  0
    0.5066    1.3154    3.9421 H   0  0  0  0  0  0  0  0  0  0  0  0
   -1.1988    1.3789    4.4452 H   0  0  0  0  0  0  0  0  0  0  0  0
   -0.3053   -0.1600    4.5075 H   0  0  0  0  0  0  0  0  0  0  0  0
  5  6  2  0  0  0  0
  5  7  1  0  0  0  0
  2  3  1  0  0  0  0
  2  4  1  0  0  0  0
  2  5  1  0  0  0  0
  1  2  1  0  0  0  0
 22 23  2  0  0  0  0
 22 24  1  0  0  0  0
 20 21  1  0  0  0  0
 18 19  1  0  0  0  0
 18 20  1  0  0  0  0
 16 17  1  0  0  0  0
 16 18  1  0  0  0  0
 15 16  2  0  0  0  0
 14 15  1  0  0  0  0
 14 20  2  0  0  0  0
 11 12  1  0  0  0  0
 11 13  1  0  0  0  0
 11 14  1  0  0  0  0
  9 10  1  0  0  0  0
  9 11  1  0  0  0  0
  9 22  1  0  0  0  0
  7  8  1  0  0  0  0
  7  9  1  0  0  0  0
 26 27  1  0  0  0  0
 26 28  1  0  0  0  0
 26 29  1  0  0  0  0
 24 25  1  0  0  0  0
 24 26  1  0  0  0  0
M  END
$$$$
default_name
  -OEChem-02102213163D

 29 29  0     1  0  0  0  0  0999 V2000
   -2.9561   -3.9186    1.3887 H   0  0  0  0  0  0  0  0  0  0  0  0
   -3.1191   -2.9346    0.9517 C   0  0  0  0  0  0  0  0  0  0  0  0
   -3.7811   -2.3546    1.5917 H   0  0  0  0  0  0  0  0  0  0  0  0
   -3.5591   -3.0406   -0.0383 H   0  0  0  0  0  0  0  0  0  0  0  0
   -1.7921   -2.2226    0.8327 C   0  0  0  0  0  0  0  0  0  0  0  0
   -0.7611   -2.7766    1.1927 O   0  0  0  0  0  0  0  0  0  0  0  0
   -1.8201   -0.9926    0.3247 N   0  0  0  0  0  0  0  0  0  0  0  0
   -2.7141   -0.5816    0.0927 H   0  0  0  0  0  0  0  0  0  0  0  0
   -0.6481   -0.1156    0.2017 C   0  0  1  0  0  0  0  0  0  0  0  0
    0.1042   -0.6345   -0.3958 H   0  0  0  0  0  0  0  0  0  0  0  0
   -1.0420    1.1781   -0.5372 C   0  0  0  0  0  0  0  0  0  0  0  0
   -1.8269    1.6953    0.0166 H   0  0  0  0  0  0  0  0  0  0  0  0
   -0.1829    1.8481   -0.5918 H   0  0  0  0  0  0  0  0  0  0  0  0
   -1.5687    0.9221   -1.9283 C   0  0  0  0  0  0  0  0  0  0  0  0
   -0.8713    0.3003   -2.9649 N   0  0  0  0  0  0  0  0  0  0  0  0
   -1.7242    0.2370   -3.9978 C   0  0  0  0  0  0  0  0  0  0  0  0
   -1.4834   -0.1833   -4.9662 H   0  0  0  0  0  0  0  0  0  0  0  0
   -2.9145    0.7584   -3.6563 N   0  0  0  0  0  0  0  0  0  0  0  0
   -3.7266    0.8079   -4.2561 H   0  0  0  0  0  0  0  0  0  0  0  0
   -2.8370    1.1927   -2.3517 C   0  0  0  0  0  0  0  0  0  0  0  0
   -3.6222    1.6420   -1.7567 H   0  0  0  0  0  0  0  0  0  0  0  0
   -0.0283    0.1609    1.5831 C   0  0  0  0  0  0  0  0  0  0  0  0
    1.1923    0.1056    1.7329 O   0  0  0  0  0  0  0  0  0  0  0  0
   -0.8586    0.4659    2.5853 N   0  0  0  0  0  0  0  0  0  0  0  0
   -1.8521    0.3848    2.4000 H   0  0  0  0  0  0  0  0  0  0  0  0
   -0.4403    0.7694    3.9518 C   0  0  0  0  0  0  0  0  0  0  0  0
    0.5066    1.3154    3.9421 H   0  0  0  0  0  0  0  0  0  0  0  0
   -1.1988    1.3789    4.4452 H   0  0  0  0  0  0  0  0  0  0  0  0
   -0.3053   -0.1600    4.5075 H   0  0  0  0  0  0  0  0  0  0  0  0
  5  6  2  0  0  0  0
  5  7  1  0  0  0  0
  2  3  1  0  0  0  0
  2  4  1  0  0  0  0
  2  5  1  0  0  0  0
  1  2  1  0  0  0  0
 22 23  2  0  0  0  0
 22 24  1  0  0  0  0
 20 21  1  0  0  0  0
 18 19  1  0  0  0  0
 18 20  1  0  0  0  0
 16 17  1  0  0  0  0
 16 18  1  0  0  0  0
 15 16  2  0  0  0  0
 14 15  1  0  0  0  0
 14 20  2  0  0  0  0
 11 12  1  0  0  0  0
 11 13  1  0  0  0  0
 11 14  1  0  0  0  0
  9 10  1  0  0  0  0
  9 11  1  0  0  0  0
  9 22  1  0  0  0  0
  7  8  1  0  0  0  0
  7  9  1  0  0  0  0
 26 27  1  0  0  0  0
 26 28  1  0  0  0  0
 26 29  1  0  0  0  0
 24 25  1  0  0  0  0
 24 26  1  0  0  0  0
M  END
$$$$
default_name
  -OEChem-02102213163D

 29 29  0     1  0  0  0  0  0999 V2000
   -2.9561   -3.9186    1.3887 H   0  0  0  0  0  0  0  0  0  0  0  0
   -3.1191   -2.9346    0.9517 C   0  0  0  0  0  0  0  0  0  0  0  0
   -3.7811   -2.3546    1.5917 H   0  0  0  0  0  0  0  0  0  0  0  0
   -3.5591   -3.0406   -0.0383 H   0  0  0  0  0  0  0  0  0  0  0  0
   -1.7921   -2.2226    0.8327 C   0  0  0  0  0  0  0  0  0  0  0  0
   -0.7611   -2.7766    1.1927 O   0  0  0  0  0  0  0  0  0  0  0  0
   -1.8201   -0.9926    0.3247 N   0  0  0  0  0  0  0  0  0  0  0  0
   -2.7141   -0.5816    0.0927 H   0  0  0  0  0  0  0  0  0  0  0  0
   -0.6481   -0.1156    0.2017 C   0  0  1  0  0  0  0  0  0  0  0  0
    0.1042   -0.6345   -0.3958 H   0  0  0  0  0  0  0  0  0  0  0  0
   -1.0420    1.1781   -0.5372 C   0  0  0  0  0  0  0  0  0  0  0  0
   -1.8269    1.6953    0.0166 H   0  0  0  0  0  0  0  0  0  0  0  0
   -0.1829    1.8481   -0.5918 H   0  0  0  0  0  0  0  0  0  0  0  0
   -1.5687    0.9221   -1.9283 C   0  0  0  0  0  0  0  0  0  0  0  0
   -1.0076    0.0568   -2.8685 N   0  0  0  0  0  0  0  0  0  0  0  0
   -1.8161    0.0985   -3.9375 C   0  0  0  0  0  0  0  0  0  0  0  0
   -1.6518   -0.4574   -4.8520 H   0  0  0  0  0  0  0  0  0  0  0  0
   -2.8566    0.9169   -3.7074 N   0  0  0  0  0  0  0  0  0  0  0  0
   -3.6129    1.0995   -4.3529 H   0  0  0  0  0  0  0  0  0  0  0  0
   -2.7200    1.4433   -2.4421 C   0  0  0  0  0  0  0  0  0  0  0  0
   -3.3932    2.1203   -1.9314 H   0  0  0  0  0  0  0  0  0  0  0  0
   -0.0283    0.1609    1.5831 C   0  0  0  0  0  0  0  0  0  0  0  0
    1.1923    0.1056    1.7329 O   0  0  0  0  0  0  0  0  0  0  0  0
   -0.8586    0.4659    2.5853 N   0  0  0  0  0  0  0  0  0  0  0  0
   -1.8521    0.3848    2.4000 H   0  0  0  0  0  0  0  0  0  0  0  0
   -0.4403    0.7694    3.9518 C   0  0  0  0  0  0  0  0  0  0  0  0
    0.5066    1.3154    3.9421 H   0  0  0  0  0  0  0  0  0  0  0  0
   -1.1988    1.3789    4.4452 H   0  0  0  0  0  0  0  0  0  0  0  0
   -0.3053   -0.1600    4.5075 H   0  0  0  0  0  0  0  0  0  0  0  0
  5  6  2  0  0  0  0
  5  7  1  0  0  0  0
  2  3  1  0  0  0  0
  2  4  1  0  0  0  0
  2  5  1  0  0  0  0
  1  2  1  0  0  0  0
 22 23  2  0  0  0  0
 22 24  1  0  0  0  0
 20 21  1  0  0  0  0
 18 19  1  0  0  0  0
 18 20  1  0  0  0  0
 16 17  1  0  0  0  0
 16 18  1  0  0  0  0
 15 16  2  0  0  0  0
 14 15  1  0  0  0  0
 14 20  2  0  0  0  0
 11 12  1  0  0  0  0
 11 13  1  0  0  0  0
 11 14  1  0  0  0  0
  9 10  1  0  0  0  0
  9 11  1  0  0  0  0
  9 22  1  0  0  0  0
  7  8  1  0  0  0  0
  7  9  1  0  0  0  0
 26 27  1  0  0  0  0
 26 28  1  0  0  0  0
 26 29  1  0  0  0  0
 24 25  1  0  0  0  0
 24 26  1  0  0  0  0
M  END
$$$$
default_name
  -OEChem-02102213163D

 29 29  0     1  0  0  0  0  0999 V2000
   -2.9561   -3.9186    1.3887 H   0  0  0  0  0  0  0  0  0  0  0  0
   -3.1191   -2.9346    0.9517 C   0  0  0  0  0  0  0  0  0  0  0  0
   -3.7811   -2.3546    1.5917 H   0  0  0  0  0  0  0  0  0  0  0  0
   -3.5591   -3.0406   -0.0383 H   0  0  0  0  0  0  0  0  0  0  0  0
   -1.7921   -2.2226    0.8327 C   0  0  0  0  0  0  0  0  0  0  0  0
   -0.7611   -2.7766    1.1927 O   0  0  0  0  0  0  0  0  0  0  0  0
   -1.8201   -0.9926    0.3247 N   0  0  0  0  0  0  0  0  0  0  0  0
   -2.7141   -0.5816    0.0927 H   0  0  0  0  0  0  0  0  0  0  0  0
   -0.6481   -0.1156    0.2017 C   0  0  1  0  0  0  0  0  0  0  0  0
    0.1042   -0.6345   -0.3958 H   0  0  0  0  0  0  0  0  0  0  0  0
   -1.0420    1.1781   -0.5372 C   0  0  0  0  0  0  0  0  0  0  0  0
   -1.8269    1.6953    0.0166 H   0  0  0  0  0  0  0  0  0  0  0  0
   -0.1829    1.8481   -0.5918 H   0  0  0  0  0  0  0  0  0  0  0  0
   -1.5687    0.9221   -1.9283 C   0  0  0  0  0  0  0  0  0  0  0  0
   -1.2016   -0.1372   -2.7593 N   0  0  0  0  0  0  0  0  0  0  0  0
   -1.9407   -0.0078   -3.8708 C   0  0  0  0  0  0  0  0  0  0  0  0
   -1.8848   -0.6717   -4.7243 H   0  0  0  0  0  0  0  0  0  0  0  0
   -2.7608    1.0515   -3.7685 N   0  0  0  0  0  0  0  0  0  0  0  0
   -3.4291    1.3452   -4.4677 H   0  0  0  0  0  0  0  0  0  0  0  0
   -2.5433    1.6492   -2.5470 C   0  0  0  0  0  0  0  0  0  0  0  0
   -3.0503    2.5119   -2.1333 H   0  0  0  0  0  0  0  0  0  0  0  0
   -0.0283    0.1609    1.5831 C   0  0  0  0  0  0  0  0  0  0  0  0
    1.1923    0.1056    1.7329 O   0  0  0  0  0  0  0  0  0  0  0  0
   -0.8586    0.4659    2.5853 N   0  0  0  0  0  0  0  0  0  0  0  0
   -1.8521    0.3848    2.4000 H   0  0  0  0  0  0  0  0  0  0  0  0
   -0.4403    0.7694    3.9518 C   0  0  0  0  0  0  0  0  0  0  0  0
    0.5066    1.3154    3.9421 H   0  0  0  0  0  0  0  0  0  0  0  0
   -1.1988    1.3789    4.4452 H   0  0  0  0  0  0  0  0  0  0  0  0
   -0.3053   -0.1600    4.5075 H   0  0  0  0  0  0  0  0  0  0  0  0
  5  6  2  0  0  0  0
  5  7  1  0  0  0  0
  2  3  1  0  0  0  0
  2  4  1  0  0  0  0
  2  5  1  0  0  0  0
  1  2  1  0  0  0  0
 22 23  2  0  0  0  0
 22 24  1  0  0  0  0
 20 21  1  0  0  0  0
 18 19  1  0  0  0  0
 18 20  1  0  0  0  0
 16 17  1  0  0  0  0
 16 18  1  0  0  0  0
 15 16  2  0  0  0  0
 14 15  1  0  0  0  0
 14 20  2  0  0  0  0
 11 12  1  0  0  0  0
 11 13  1  0  0  0  0
 11 14  1  0  0  0  0
  9 10  1  0  0  0  0
  9 11  1  0  0  0  0
  9 22  1  0  0  0  0
  7  8  1  0  0  0  0
  7  9  1  0  0  0  0
 26 27  1  0  0  0  0
 26 28  1  0  0  0  0
 26 29  1  0  0  0  0
 24 25  1  0  0  0  0
 24 26  1  0  0  0  0
M  END
$$$$
default_name
  -OEChem-02102213163D

 29 29  0     1  0  0  0  0  0999 V2000
   -2.9561   -3.9186    1.3887 H   0  0  0  0  0  0  0  0  0  0  0  0
   -3.1191   -2.9346    0.9517 C   0  0  0  0  0  0  0  0  0  0  0  0
   -3.7811   -2.3546    1.5917 H   0  0  0  0  0  0  0  0  0  0  0  0
   -3.5591   -3.0406   -0.0383 H   0  0  0  0  0  0  0  0  0  0  0  0
   -1.7921   -2.2226    0.8327 C   0  0  0  0  0  0  0  0  0  0  0  0
   -0.7611   -2.7766    1.1927 O   0  0  0  0  0  0  0  0  0  0  0  0
   -1.8201   -0.9926    0.3247 N   0  0  0  0  0  0  0  0  0  0  0  0
   -2.7141   -0.5816    0.0927 H   0  0  0  0  0  0  0  0  0  0  0  0
   -0.6481   -0.1156    0.2017 C   0  0  1  0  0  0  0  0  0  0  0  0
    0.1042   -0.6345   -0.3958 H   0  0  0  0  0  0  0  0  0  0  0  0
   -1.0420    1.1781   -0.5372 C   0  0  0  0  0  0  0  0  0  0  0  0
   -1.8269    1.6953    0.0166 H   0  0  0  0  0  0  0  0  0  0  0  0
   -0.1829    1.8481   -0.5918 H   0  0  0  0  0  0  0  0  0  0  0  0
   -1.5687    0.9221   -1.9283 C   0  0  0  0  0  0  0  0  0  0  0  0
   -1.4401   -0.2684   -2.6449 N   0  0  0  0  0  0  0  0  0  0  0  0
   -2.0892   -0.0748   -3.8022 C   0  0  0  0  0  0  0  0  0  0  0  0
   -2.1666   -0.8116   -4.5919 H   0  0  0  0  0  0  0  0  0  0  0  0
   -2.6333    1.1532   -3.8354 N   0  0  0  0  0  0  0  0  0  0  0  0
   -3.1880    1.5284   -4.5927 H   0  0  0  0  0  0  0  0  0  0  0  0
   -2.3188    1.7965   -2.6591 C   0  0  0  0  0  0  0  0  0  0  0  0
   -2.6167    2.7901   -2.3487 H   0  0  0  0  0  0  0  0  0  0  0  0
   -0.0283    0.1609    1.5831 C   0  0  0  0  0  0  0  0  0  0  0  0
    1.1923    0.1056    1.7329 O   0  0  0  0  0  0  0  0  0  0  0  0
   -0.8586    0.4659    2.5853 N   0  0  0  0  0  0  0  0  0  0  0  0
   -1.8521    0.3848    2.4000 H   0  0  0  0  0  0  0  0  0  0  0  0
   -0.4403    0.7694    3.9518 C   0  0  0  0  0  0  0  0  0  0  0  0
    0.5066    1.3154    3.9421 H   0  0  0  0  0  0  0  0  0  0  0  0
   -1.1988    1.3789    4.4452 H   0  0  0  0  0  0  0  0  0  0  0  0
   -0.3053   -0.1600    4.5075 H   0  0  0  0  0  0  0  0  0  0  0  0
  5  6  2  0  0  0  0
  5  7  1  0  0  0  0
  2  3  1  0  0  0  0
  2  4  1  0  0  0  0
  2  5  1  0  0  0  0
  1  2  1  0  0  0  0
 22 23  2  0  0  0  0
 22 24  1  0  0  0  0
 20 21  1  0  0  0  0
 18 19  1  0  0  0  0
 18 20  1  0  0  0  0
 16 17  1  0  0  0  0
 16 18  1  0  0  0  0
 15 16  2  0  0  0  0
 14 15  1  0  0  0  0
 14 20  2  0  0  0  0
 11 12  1  0  0  0  0
 11 13  1  0  0  0  0
 11 14  1  0  0  0  0
  9 10  1  0  0  0  0
  9 11  1  0  0  0  0
  9 22  1  0  0  0  0
  7  8  1  0  0  0  0
  7  9  1  0  0  0  0
 26 27  1  0  0  0  0
 26 28  1  0  0  0  0
 26 29  1  0  0  0  0
 24 25  1  0  0  0  0
 24 26  1  0  0  0  0
M  END
$$$$
default_name
  -OEChem-02102213163D

 29 29  0     1  0  0  0  0  0999 V2000
   -2.9561   -3.9186    1.3887 H   0  0  0  0  0  0  0  0  0  0  0  0
   -3.1191   -2.9346    0.9517 C   0  0  0  0  0  0  0  0  0  0  0  0
   -3.7811   -2.3546    1.5917 H   0  0  0  0  0  0  0  0  0  0  0  0
   -3.5591   -3.0406   -0.0383 H   0  0  0  0  0  0  0  0  0  0  0  0
   -1.7921   -2.2226    0.8327 C   0  0  0  0  0  0  0  0  0  0  0  0
   -0.7611   -2.7766    1.1927 O   0  0  0  0  0  0  0  0  0  0  0  0
   -1.8201   -0.9926    0.3247 N   0  0  0  0  0  0  0  0  0  0  0  0
   -2.7141   -0.5816    0.0927 H   0  0  0  0  0  0  0  0  0  0  0  0
   -0.6481   -0.1156    0.2017 C   0  0  1  0  0  0  0  0  0  0  0  0
    0.1042   -0.6345   -0.3958 H   0  0  0  0  0  0  0  0  0  0  0  0
   -1.0420    1.1781   -0.5372 C   0  0  0  0  0  0  0  0  0  0  0  0
   -1.8269    1.6953    0.0166 H   0  0  0  0  0  0  0  0  0  0  0  0
   -0.1829    1.8481   -0.5918 H   0  0  0  0  0  0  0  0  0  0  0  0
   -1.5687    0.9221   -1.9283 C   0  0  0  0  0  0  0  0  0  0  0  0
   -1.7067   -0.3280   -2.5330 N   0  0  0  0  0  0  0  0  0  0  0  0
   -2.2517   -0.0979   -3.7365 C   0  0  0  0  0  0  0  0  0  0  0  0
   -2.4781   -0.8675   -4.4637 H   0  0  0  0  0  0  0  0  0  0  0  0
   -2.4830    1.2150   -3.9037 N   0  0  0  0  0  0  0  0  0  0  0  0
   -2.9059    1.6366   -4.7194 H   0  0  0  0  0  0  0  0  0  0  0  0
   -2.0619    1.8751   -2.7708 C   0  0  0  0  0  0  0  0  0  0  0  0
   -2.1222    2.9360   -2.5628 H   0  0  0  0  0  0  0  0  0  0  0  0
   -0.0283    0.1609    1.5831 C   0  0  0  0  0  0  0  0  0  0  0  0
    1.1923    0.1056    1.7329 O   0  0  0  0  0  0  0  0  0  0  0  0
   -0.8586    0.4659    2.5853 N   0  0  0  0  0  0  0  0  0  0  0  0
   -1.8521    0.3848    2.4000 H   0  0  0  0  0  0  0  0  0  0  0  0
   -0.4403    0.7694    3.9518 C   0  0  0  0  0  0  0  0  0  0  0  0
    0.5066    1.3154    3.9421 H   0  0  0  0  0  0  0  0  0  0  0  0
   -1.1988    1.3789    4.4452 H   0  0  0  0  0  0  0  0  0  0  0  0
   -0.3053   -0.1600    4.5075 H   0  0  0  0  0  0  0  0  0  0  0  0
  5  6  2  0  0  0  0
  5  7  1  0  0  0  0
  2  3  1  0  0  0  0
  2  4  1  0  0  0  0
  2  5  1  0  0  0  0
  1  2  1  0  0  0  0
 22 23  2  0  0  0  0
 22 24  1  0  0  0  0
 20 21  1  0  0  0  0
 18 19  1  0  0  0  0
 18 20  1  0  0  0  0
 16 17  1  0  0  0  0
 16 18  1  0  0  0  0
 15 16  2  0  0  0  0
 14 15  1  0  0  0  0
 14 20  2  0  0  0  0
 11 12  1  0  0  0  0
 11 13  1  0  0  0  0
 11 14  1  0  0  0  0
  9 10  1  0  0  0  0
  9 11  1  0  0  0  0
  9 22  1  0  0  0  0
  7  8  1  0  0  0  0
  7  9  1  0  0  0  0
 26 27  1  0  0  0  0
 26 28  1  0  0  0  0
 26 29  1  0  0  0  0
 24 25  1  0  0  0  0
 24 26  1  0  0  0  0
M  END
$$$$
default_name
  -OEChem-02102213163D

 29 29  0     1  0  0  0  0  0999 V2000
   -2.9561   -3.9186    1.3887 H   0  0  0  0  0  0  0  0  0  0  0  0
   -3.1191   -2.9346    0.9517 C   0  0  0  0  0  0  0  0  0  0  0  0
   -3.7811   -2.3546    1.5917 H   0  0  0  0  0  0  0  0  0  0  0  0
   -3.5591   -3.0406   -0.0383 H   0  0  0  0  0  0  0  0  0  0  0  0
   -1.7921   -2.2226    0.8327 C   0  0  0  0  0  0  0  0  0  0  0  0
   -0.7611   -2.7766    1.1927 O   0  0  0  0  0  0  0  0  0  0  0  0
   -1.8201   -0.9926    0.3247 N   0  0  0  0  0  0  0  0  0  0  0  0
   -2.7141   -0.5816    0.0927 H   0  0  0  0  0  0  0  0  0  0  0  0
   -0.6481   -0.1156    0.2017 C   0  0  1  0  0  0  0  0  0  0  0  0
    0.1042   -0.6345   -0.3958 H   0  0  0  0  0  0  0  0  0  0  0  0
   -1.0420    1.1781   -0.5372 C   0  0  0  0  0  0  0  0  0  0  0  0
   -1.8269    1.6953    0.0166 H   0  0  0  0  0  0  0  0  0  0  0  0
   -0.1829    1.8481   -0.5918 H   0  0  0  0  0  0  0  0  0  0  0  0
   -1.5687    0.9221   -1.9283 C   0  0  0  0  0  0  0  0  0  0  0  0
   -1.9834   -0.3118   -2.4312 N   0  0  0  0  0  0  0  0  0  0  0  0
   -2.4171   -0.0755   -3.6780 C   0  0  0  0  0  0  0  0  0  0  0  0
   -2.7978   -0.8356   -4.3485 H   0  0  0  0  0  0  0  0  0  0  0  0
   -2.3201    1.2327   -3.9686 N   0  0  0  0  0  0  0  0  0  0  0  0
   -2.6021    1.6623   -4.8391 H   0  0  0  0  0  0  0  0  0  0  0  0
   -1.7902    1.8797   -2.8745 C   0  0  0  0  0  0  0  0  0  0  0  0
   -1.6002    2.9396   -2.7610 H   0  0  0  0  0  0  0  0  0  0  0  0
   -0.0283    0.1609    1.5831 C   0  0  0  0  0  0  0  0  0  0  0  0
    1.1923    0.1056    1.7329 O   0  0  0  0  0  0  0  0  0  0  0  0
   -0.8586    0.4659    2.5853 N   0  0  0  0  0  0  0  0  0  0  0  0
   -1.8521    0.3848    2.4000 H   0  0  0  0  0  0  0  0  0  0  0  0
   -0.4403    0.7694    3.9518 C   0  0  0  0  0  0  0  0  0  0  0  0
    0.5066    1.3154    3.9421 H   0  0  0  0  0  0  0  0  0  0  0  0
   -1.1988    1.3789    4.4452 H   0  0  0  0  0  0  0  0  0  0  0  0
   -0.3053   -0.1600    4.5075 H   0  0  0  0  0  0  0  0  0  0  0  0
  5  6  2  0  0  0  0
  5  7  1  0  0  0  0
  2  3  1  0  0  0  0
  2  4  1  0  0  0  0
  2  5  1  0  0  0  0
  1  2  1  0  0  0  0
 22 23  2  0  0  0  0
 22 24  1  0  0  0  0
 20 21  1  0  0  0  0
 18 19  1  0  0  0  0
 18 20  1  0  0  0  0
 16 17  1  0  0  0  0
 16 18  1  0  0  0  0
 15 16  2  0  0  0  0
 14 15  1  0  0  0  0
 14 20  2  0  0  0  0
 11 12  1  0  0  0  0
 11 13  1  0  0  0  0
 11 14  1  0  0  0  0
  9 10  1  0  0  0  0
  9 11  1  0  0  0  0
  9 22  1  0  0  0  0
  7  8  1  0  0  0  0
  7  9  1  0  0  0  0
 26 27  1  0  0  0  0
 26 28  1  0  0  0  0
 26 29  1  0  0  0  0
 24 25  1  0  0  0  0
 24 26  1  0  0  0  0
M  END
$$$$
default_name
  -OEChem-02102213163D

 29 29  0     1  0  0  0  0  0999 V2000
   -2.9561   -3.9186    1.3887 H   0  0  0  0  0  0  0  0  0  0  0  0
   -3.1191   -2.9346    0.9517 C   0  0  0  0  0  0  0  0  0  0  0  0
   -3.7811   -2.3546    1.5917 H   0  0  0  0  0  0  0  0  0  0  0  0
   -3.5591   -3.0406   -0.0383 H   0  0  0  0  0  0  0  0  0  0  0  0
   -1.7921   -2.2226    0.8327 C   0  0  0  0  0  0  0  0  0  0  0  0
   -0.7611   -2.7766    1.1927 O   0  0  0  0  0  0  0  0  0  0  0  0
   -1.8201   -0.9926    0.3247 N   0  0  0  0  0  0  0  0  0  0  0  0
   -2.7141   -0.5816    0.0927 H   0  0  0  0  0  0  0  0  0  0  0  0
   -0.6481   -0.1156    0.2017 C   0  0  1  0  0  0  0  0  0  0  0  0
    0.1042   -0.6345   -0.3958 H   0  0  0  0  0  0  0  0  0  0  0  0
   -1.0420    1.1781   -0.5372 C   0  0  0  0  0  0  0  0  0  0  0  0
   -1.8269    1.6953    0.0166 H   0  0  0  0  0  0  0  0  0  0  0  0
   -0.1829    1.8481   -0.5918 H   0  0  0  0  0  0  0  0  0  0  0  0
   -1.5687    0.9221   -1.9283 C   0  0  0  0  0  0  0  0  0  0  0  0
   -2.2512   -0.2210   -2.3465 N   0  0  0  0  0  0  0  0  0  0  0  0
   -2.5741   -0.0092   -3.6308 C   0  0  0  0  0  0  0  0  0  0  0  0
   -3.1042   -0.7182   -4.2541 H   0  0  0  0  0  0  0  0  0  0  0  0
   -2.1557    1.2050   -4.0258 N   0  0  0  0  0  0  0  0  0  0  0  0
   -2.2972    1.6038   -4.9438 H   0  0  0  0  0  0  0  0  0  0  0  0
   -1.5220    1.8099   -2.9632 C   0  0  0  0  0  0  0  0  0  0  0  0
   -1.0865    2.8006   -2.9299 H   0  0  0  0  0  0  0  0  0  0  0  0
   -0.0283    0.1609    1.5831 C   0  0  0  0  0  0  0  0  0  0  0  0
    1.1923    0.1056    1.7329 O   0  0  0  0  0  0  0  0  0  0  0  0
   -0.8586    0.4659    2.5853 N   0  0  0  0  0  0  0  0  0  0  0  0
   -1.8521    0.3848    2.4000 H   0  0  0  0  0  0  0  0  0  0  0  0
   -0.4403    0.7694    3.9518 C   0  0  0  0  0  0  0  0  0  0  0  0
    0.5066    1.3154    3.9421 H   0  0  0  0  0  0  0  0  0  0  0  0
   -1.1988    1.3789    4.4452 H   0  0  0  0  0  0  0  0  0  0  0  0
   -0.3053   -0.1600    4.5075 H   0  0  0  0  0  0  0  0  0  0  0  0
  5  6  2  0  0  0  0
  5  7  1  0  0  0  0
  2  3  1  0  0  0  0
  2  4  1  0  0  0  0
  2  5  1  0  0  0  0
  1  2  1  0  0  0  0
 22 23  2  0  0  0  0
 22 24  1  0  0  0  0
 20 21  1  0  0  0  0
 18 19  1  0  0  0  0
 18 20  1  0  0  0  0
 16 17  1  0  0  0  0
 16 18  1  0  0  0  0
 15 16  2  0  0  0  0
 14 15  1  0  0  0  0
 14 20  2  0  0  0  0
 11 12  1  0  0  0  0
 11 13  1  0  0  0  0
 11 14  1  0  0  0  0
  9 10  1  0  0  0  0
  9 11  1  0  0  0  0
  9 22  1  0  0  0  0
  7  8  1  0  0  0  0
  7  9  1  0  0  0  0
 26 27  1  0  0  0  0
 26 28  1  0  0  0  0
 26 29  1  0  0  0  0
 24 25  1  0  0  0  0
 24 26  1  0  0  0  0
M  END
$$$$
default_name
  -OEChem-02102213163D

 29 29  0     1  0  0  0  0  0999 V2000
   -2.9561   -3.9186    1.3887 H   0  0  0  0  0  0  0  0  0  0  0  0
   -3.1191   -2.9346    0.9517 C   0  0  0  0  0  0  0  0  0  0  0  0
   -3.7811   -2.3546    1.5917 H   0  0  0  0  0  0  0  0  0  0  0  0
   -3.5591   -3.0406   -0.0383 H   0  0  0  0  0  0  0  0  0  0  0  0
   -1.7921   -2.2226    0.8327 C   0  0  0  0  0  0  0  0  0  0  0  0
   -0.7611   -2.7766    1.1927 O   0  0  0  0  0  0  0  0  0  0  0  0
   -1.8201   -0.9926    0.3247 N   0  0  0  0  0  0  0  0  0  0  0  0
   -2.7141   -0.5816    0.0927 H   0  0  0  0  0  0  0  0  0  0  0  0
   -0.6481   -0.1156    0.2017 C   0  0  1  0  0  0  0  0  0  0  0  0
    0.1042   -0.6345   -0.3958 H   0  0  0  0  0  0  0  0  0  0  0  0
   -1.0420    1.1781   -0.5372 C   0  0  0  0  0  0  0  0  0  0  0  0
   -1.8269    1.6953    0.0166 H   0  0  0  0  0  0  0  0  0  0  0  0
   -0.1829    1.8481   -0.5918 H   0  0  0  0  0  0  0  0  0  0  0  0
   -1.5687    0.9221   -1.9283 C   0  0  0  0  0  0  0  0  0  0  0  0
   -2.4920   -0.0617   -2.2847 N   0  0  0  0  0  0  0  0  0  0  0  0
   -2.7119    0.0966   -3.5980 C   0  0  0  0  0  0  0  0  0  0  0  0
   -3.3762   -0.5232   -4.1870 H   0  0  0  0  0  0  0  0  0  0  0  0
   -2.0010    1.1339   -4.0713 N   0  0  0  0  0  0  0  0  0  0  0  0
   -2.0120    1.4652   -5.0262 H   0  0  0  0  0  0  0  0  0  0  0  0
   -1.2757    1.6705   -3.0308 C   0  0  0  0  0  0  0  0  0  0  0  0
   -0.6161    2.5286   -3.0580 H   0  0  0  0  0  0  0  0  0  0  0  0
   -0.0283    0.1609    1.5831 C   0  0  0  0  0  0  0  0  0  0  0  0
    1.1923    0.1056    1.7329 O   0  0  0  0  0  0  0  0  0  0  0  0
   -0.8586    0.4659    2.5853 N   0  0  0  0  0  0  0  0  0  0  0  0
   -1.8521    0.3848    2.4000 H   0  0  0  0  0  0  0  0  0  0  0  0
   -0.4403    0.7694    3.9518 C   0  0  0  0  0  0  0  0  0  0  0  0
    0.5066    1.3154    3.9421 H   0  0  0  0  0  0  0  0  0  0  0  0
   -1.1988    1.3789    4.4452 H   0  0  0  0  0  0  0  0  0  0  0  0
   -0.3053   -0.1600    4.5075 H   0  0  0  0  0  0  0  0  0  0  0  0
  5  6  2  0  0  0  0
  5  7  1  0  0  0  0
  2  3  1  0  0  0  0
  2  4  1  0  0  0  0
  2  5  1  0  0  0  0
  1  2  1  0  0  0  0
 22 23  2  0  0  0  0
 22 24  1  0  0  0  0
 20 21  1  0  0  0  0
 18 19  1  0  0  0  0
 18 20  1  0  0  0  0
 16 17  1  0  0  0  0
 16 18  1  0  0  0  0
 15 16  2  0  0  0  0
 14 15  1  0  0  0  0
 14 20  2  0  0  0  0
 11 12  1  0  0  0  0
 11 13  1  0  0  0  0
 11 14  1  0  0  0  0
  9 10  1  0  0  0  0
  9 11  1  0  0  0  0
  9 22  1  0  0  0  0
  7  8  1  0  0  0  0
  7  9  1  0  0  0  0
 26 27  1  0  0  0  0
 26 28  1  0  0  0  0
 26 29  1  0  0  0  0
 24 25  1  0  0  0  0
 24 26  1  0  0  0  0
M  END
$$$$
default_name
  -OEChem-02102213163D

 29 29  0     1  0  0  0  0  0999 V2000
   -2.9561   -3.9186    1.3887 H   0  0  0  0  0  0  0  0  0  0  0  0
   -3.1191   -2.9346    0.9517 C   0  0  0  0  0  0  0  0  0  0  0  0
   -3.7811   -2.3546    1.5917 H   0  0  0  0  0  0  0  0  0  0  0  0
   -3.5591   -3.0406   -0.0383 H   0  0  0  0  0  0  0  0  0  0  0  0
   -1.7921   -2.2226    0.8327 C   0  0  0  0  0  0  0  0  0  0  0  0
   -0.7611   -2.7766    1.1927 O   0  0  0  0  0  0  0  0  0  0  0  0
   -1.8201   -0.9926    0.3247 N   0  0  0  0  0  0  0  0  0  0  0  0
   -2.7141   -0.5816    0.0927 H   0  0  0  0  0  0  0  0  0  0  0  0
   -0.6481   -0.1156    0.2017 C   0  0  1  0  0  0  0  0  0  0  0  0
    0.1042   -0.6345   -0.3958 H   0  0  0  0  0  0  0  0  0  0  0  0
   -1.0420    1.1781   -0.5372 C   0  0  0  0  0  0  0  0  0  0  0  0
   -1.8269    1.6953    0.0166 H   0  0  0  0  0  0  0  0  0  0  0  0
   -0.1829    1.8481   -0.5918 H   0  0  0  0  0  0  0  0  0  0  0  0
   -1.5687    0.9221   -1.9283 C   0  0  0  0  0  0  0  0  0  0  0  0
   -2.6893    0.1552   -2.2499 N   0  0  0  0  0  0  0  0  0  0  0  0
   -2.8213    0.2347   -3.5820 C   0  0  0  0  0  0  0  0  0  0  0  0
   -3.5953   -0.2638   -4.1518 H   0  0  0  0  0  0  0  0  0  0  0  0
   -1.8665    1.0242   -4.1020 N   0  0  0  0  0  0  0  0  0  0  0  0
   -1.7661    1.2558   -5.0808 H   0  0  0  0  0  0  0  0  0  0  0  0
   -1.0681    1.4710   -3.0726 C   0  0  0  0  0  0  0  0  0  0  0  0
   -0.2209    2.1421   -3.1365 H   0  0  0  0  0  0  0  0  0  0  0  0
   -0.0283    0.1609    1.5831 C   0  0  0  0  0  0  0  0  0  0  0  0
    1.1923    0.1056    1.7329 O   0  0  0  0  0  0  0  0  0  0  0  0
   -0.8586    0.4659    2.5853 N   0  0  0  0  0  0  0  0  0  0  0  0
   -1.8521    0.3848    2.4000 H   0  0  0  0  0  0  0  0  0  0  0  0
   -0.4403    0.7694    3.9518 C   0  0  0  0  0  0  0  0  0  0  0  0
    0.5066    1.3154    3.9421 H   0  0  0  0  0  0  0  0  0  0  0  0
   -1.1988    1.3789    4.4452 H   0  0  0  0  0  0  0  0  0  0  0  0
   -0.3053   -0.1600    4.5075 H   0  0  0  0  0  0  0  0  0  0  0  0
  5  6  2  0  0  0  0
  5  7  1  0  0  0  0
  2  3  1  0  0  0  0
  2  4  1  0  0  0  0
  2  5  1  0  0  0  0
  1  2  1  0  0  0  0
 22 23  2  0  0  0  0
 22 24  1  0  0  0  0
 20 21  1  0  0  0  0
 18 19  1  0  0  0  0
 18 20  1  0  0  0  0
 16 17  1  0  0  0  0
 16 18  1  0  0  0  0
 15 16  2  0  0  0  0
 14 15  1  0  0  0  0
 14 20  2  0  0  0  0
 11 12  1  0  0  0  0
 11 13  1  0  0  0  0
 11 14  1  0  0  0  0
  9 10  1  0  0  0  0
  9 11  1  0  0  0  0
  9 22  1  0  0  0  0
  7  8  1  0  0  0  0
  7  9  1  0  0  0  0
 26 27  1  0  0  0  0
 26 28  1  0  0  0  0
 26 29  1  0  0  0  0
 24 25  1  0  0  0  0
 24 26  1  0  0  0  0
M  END
$$$$
default_name
  -OEChem-02102213163D

 29 29  0     1  0  0  0  0  0999 V2000
   -2.9561   -3.9186    1.3887 H   0  0  0  0  0  0  0  0  0  0  0  0
   -3.1191   -2.9346    0.9517 C   0  0  0  0  0  0  0  0  0  0  0  0
   -3.7811   -2.3546    1.5917 H   0  0  0  0  0  0  0  0  0  0  0  0
   -3.5591   -3.0406   -0.0383 H   0  0  0  0  0  0  0  0  0  0  0  0
   -1.7921   -2.2226    0.8327 C   0  0  0  0  0  0  0  0  0  0  0  0
   -0.7611   -2.7766    1.1927 O   0  0  0  0  0  0  0  0  0  0  0  0
   -1.8201   -0.9926    0.3247 N   0  0  0  0  0  0  0  0  0  0  0  0
   -2.7141   -0.5816    0.0927 H   0  0  0  0  0  0  0  0  0  0  0  0
   -0.6481   -0.1156    0.2017 C   0  0  1  0  0  0  0  0  0  0  0  0
    0.1042   -0.6345   -0.3958 H   0  0  0  0  0  0  0  0  0  0  0  0
   -1.0420    1.1781   -0.5372 C   0  0  0  0  0  0  0  0  0  0  0  0
   -1.8269    1.6953    0.0166 H   0  0  0  0  0  0  0  0  0  0  0  0
   -0.1829    1.8481   -0.5918 H   0  0  0  0  0  0  0  0  0  0  0  0
   -1.5687    0.9221   -1.9283 C   0  0  0  0  0  0  0  0  0  0  0  0
   -2.8296    0.4148   -2.2446 N   0  0  0  0  0  0  0  0  0  0  0  0
   -2.8947    0.3955   -3.5839 C   0  0  0  0  0  0  0  0  0  0  0  0
   -3.7467    0.0421   -4.1508 H   0  0  0  0  0  0  0  0  0  0  0  0
   -1.7614    0.8834   -4.1159 N   0  0  0  0  0  0  0  0  0  0  0  0
   -1.5760    0.9900   -5.1038 H   0  0  0  0  0  0  0  0  0  0  0  0
   -0.9134    1.2250   -3.0860 C   0  0  0  0  0  0  0  0  0  0  0  0
    0.0721    1.6674   -3.1600 H   0  0  0  0  0  0  0  0  0  0  0  0
   -0.0283    0.1609    1.5831 C   0  0  0  0  0  0  0  0  0  0  0  0
    1.1923    0.1056    1.7329 O   0  0  0  0  0  0  0  0  0  0  0  0
   -0.8586    0.4659    2.5853 N   0  0  0  0  0  0  0  0  0  0  0  0
   -1.8521    0.3848    2.4000 H   0  0  0  0  0  0  0  0  0  0  0  0
   -0.4403    0.7694    3.9518 C   0  0  0  0  0  0  0  0  0  0  0  0
    0.5066    1.3154    3.9421 H   0  0  0  0  0  0  0  0  0  0  0  0
   -1.1988    1.3789    4.4452 H   0  0  0  0  0  0  0  0  0  0  0  0
   -0.3053   -0.1600    4.5075 H   0  0  0  0  0  0  0  0  0  0  0  0
  5  6  2  0  0  0  0
  5  7  1  0  0  0  0
  2  3  1  0  0  0  0
  2  4  1  0  0  0  0
  2  5  1  0  0  0  0
  1  2  1  0  0  0  0
 22 23  2  0  0  0  0
 22 24  1  0  0  0  0
 20 21  1  0  0  0  0
 18 19  1  0  0  0  0
 18 20  1  0  0  0  0
 16 17  1  0  0  0  0
 16 18  1  0  0  0  0
 15 16  2  0  0  0  0
 14 15  1  0  0  0  0
 14 20  2  0  0  0  0
 11 12  1  0  0  0  0
 11 13  1  0  0  0  0
 11 14  1  0  0  0  0
  9 10  1  0  0  0  0
  9 11  1  0  0  0  0
  9 22  1  0  0  0  0
  7  8  1  0  0  0  0
  7  9  1  0  0  0  0
 26 27  1  0  0  0  0
 26 28  1  0  0  0  0
 26 29  1  0  0  0  0
 24 25  1  0  0  0  0
 24 26  1  0  0  0  0
M  END
$$$$
default_name
  -OEChem-02102213163D

 29 29  0     1  0  0  0  0  0999 V2000
   -2.9561   -3.9186    1.3887 H   0  0  0  0  0  0  0  0  0  0  0  0
   -3.1191   -2.9346    0.9517 C   0  0  0  0  0  0  0  0  0  0  0  0
   -3.7811   -2.3546    1.5917 H   0  0  0  0  0  0  0  0  0  0  0  0
   -3.5591   -3.0406   -0.0383 H   0  0  0  0  0  0  0  0  0  0  0  0
   -1.7921   -2.2226    0.8327 C   0  0  0  0  0  0  0  0  0  0  0  0
   -0.7611   -2.7766    1.1927 O   0  0  0  0  0  0  0  0  0  0  0  0
   -1.8201   -0.9926    0.3247 N   0  0  0  0  0  0  0  0  0  0  0  0
   -2.7141   -0.5816    0.0927 H   0  0  0  0  0  0  0  0  0  0  0  0
   -0.6481   -0.1156    0.2017 C   0  0  1  0  0  0  0  0  0  0  0  0
    0.1042   -0.6345   -0.3958 H   0  0  0  0  0  0  0  0  0  0  0  0
   -1.0420    1.1781   -0.5372 C   0  0  0  0  0  0  0  0  0  0  0  0
   -1.8269    1.6953    0.0166 H   0  0  0  0  0  0  0  0  0  0  0  0
   -0.1829    1.8481   -0.5918 H   0  0  0  0  0  0  0  0  0  0  0  0
   -1.5687    0.9221   -1.9283 C   0  0  0  0  0  0  0  0  0  0  0  0
   -2.9035    0.6996   -2.2690 N   0  0  0  0  0  0  0  0  0  0  0  0
   -2.9271    0.5683   -3.6034 C   0  0  0  0  0  0  0  0  0  0  0  0
   -3.8200    0.3739   -4.1841 H   0  0  0  0  0  0  0  0  0  0  0  0
   -1.6929    0.7210   -4.1119 N   0  0  0  0  0  0  0  0  0  0  0  0
   -1.4548    0.6858   -5.0937 H   0  0  0  0  0  0  0  0  0  0  0  0
   -0.8220    0.9493   -3.0698 C   0  0  0  0  0  0  0  0  0  0  0  0
    0.2429    1.1369   -3.1270 H   0  0  0  0  0  0  0  0  0  0  0  0
   -0.0283    0.1609    1.5831 C   0  0  0  0  0  0  0  0  0  0  0  0
    1.1923    0.1056    1.7329 O   0  0  0  0  0  0  0  0  0  0  0  0
   -0.8586    0.4659    2.5853 N   0  0  0  0  0  0  0  0  0  0  0  0
   -1.8521    0.3848    2.4000 H   0  0  0  0  0  0  0  0  0  0  0  0
   -0.4403    0.7694    3.9518 C   0  0  0  0  0  0  0  0  0  0  0  0
    0.5066    1.3154    3.9421 H   0  0  0  0  0  0  0  0  0  0  0  0
   -1.1988    1.3789    4.4452 H   0  0  0  0  0  0  0  0  0  0  0  0
   -0.3053   -0.1600    4.5075 H   0  0  0  0  0  0  0  0  0  0  0  0
  5  6  2  0  0  0  0
  5  7  1  0  0  0  0
  2  3  1  0  0  0  0
  2  4  1  0  0  0  0
  2  5  1  0  0  0  0
  1  2  1  0  0  0  0
 22 23  2  0  0  0  0
 22 24  1  0  0  0  0
 20 21  1  0  0  0  0
 18 19  1  0  0  0  0
 18 20  1  0  0  0  0
 16 17  1  0  0  0  0
 16 18  1  0  0  0  0
 15 16  2  0  0  0  0
 14 15  1  0  0  0  0
 14 20  2  0  0  0  0
 11 12  1  0  0  0  0
 11 13  1  0  0  0  0
 11 14  1  0  0  0  0
  9 10  1  0  0  0  0
  9 11  1  0  0  0  0
  9 22  1  0  0  0  0
  7  8  1  0  0  0  0
  7  9  1  0  0  0  0
 26 27  1  0  0  0  0
 26 28  1  0  0  0  0
 26 29  1  0  0  0  0
 24 25  1  0  0  0  0
 24 26  1  0  0  0  0
M  END
$$$$
default_name
  -OEChem-02102213163D

 29 29  0     1  0  0  0  0  0999 V2000
   -2.9561   -3.9186    1.3887 H   0  0  0  0  0  0  0  0  0  0  0  0
   -3.1191   -2.9346    0.9517 C   0  0  0  0  0  0  0  0  0  0  0  0
   -3.7811   -2.3546    1.5917 H   0  0  0  0  0  0  0  0  0  0  0  0
   -3.5591   -3.0406   -0.0383 H   0  0  0  0  0  0  0  0  0  0  0  0
   -1.7921   -2.2226    0.8327 C   0  0  0  0  0  0  0  0  0  0  0  0
   -0.7611   -2.7766    1.1927 O   0  0  0  0  0  0  0  0  0  0  0  0
   -1.8201   -0.9926    0.3247 N   0  0  0  0  0  0  0  0  0  0  0  0
   -2.7141   -0.5816    0.0927 H   0  0  0  0  0  0  0  0  0  0  0  0
   -0.6481   -0.1156    0.2017 C   0  0  1  0  0  0  0  0  0  0  0  0
    0.1042   -0.6345   -0.3958 H   0  0  0  0  0  0  0  0  0  0  0  0
   -1.0420    1.1781   -0.5372 C   0  0  0  0  0  0  0  0  0  0  0  0
   -1.8269    1.6953    0.0166 H   0  0  0  0  0  0  0  0  0  0  0  0
   -0.1829    1.8481   -0.5918 H   0  0  0  0  0  0  0  0  0  0  0  0
   -1.5687    0.9221   -1.9283 C   0  0  0  0  0  0  0  0  0  0  0  0
   -2.9059    0.9902   -2.3216 N   0  0  0  0  0  0  0  0  0  0  0  0
   -2.9164    0.7411   -3.6392 C   0  0  0  0  0  0  0  0  0  0  0  0
   -3.8102    0.7088   -4.2494 H   0  0  0  0  0  0  0  0  0  0  0  0
   -1.6656    0.5482   -4.0905 N   0  0  0  0  0  0  0  0  0  0  0  0
   -1.4108    0.3639   -5.0512 H   0  0  0  0  0  0  0  0  0  0  0  0
   -0.8002    0.6626   -3.0253 C   0  0  0  0  0  0  0  0  0  0  0  0
    0.2798    0.5866   -3.0397 H   0  0  0  0  0  0  0  0  0  0  0  0
   -0.0283    0.1609    1.5831 C   0  0  0  0  0  0  0  0  0  0  0  0
    1.1923    0.1056    1.7329 O   0  0  0  0  0  0  0  0  0  0  0  0
   -0.8586    0.4659    2.5853 N   0  0  0  0  0  0  0  0  0  0  0  0
   -1.8521    0.3848    2.4000 H   0  0  0  0  0  0  0  0  0  0  0  0
   -0.4403    0.7694    3.9518 C   0  0  0  0  0  0  0  0  0  0  0  0
    0.5066    1.3154    3.9421 H   0  0  0  0  0  0  0  0  0  0  0  0
   -1.1988    1.3789    4.4452 H   0  0  0  0  0  0  0  0  0  0  0  0
   -0.3053   -0.1600    4.5075 H   0  0  0  0  0  0  0  0  0  0  0  0
  5  6  2  0  0  0  0
  5  7  1  0  0  0  0
  2  3  1  0  0  0  0
  2  4  1  0  0  0  0
  2  5  1  0  0  0  0
  1  2  1  0  0  0  0
 22 23  2  0  0  0  0
 22 24  1  0  0  0  0
 20 21  1  0  0  0  0
 18 19  1  0  0  0  0
 18 20  1  0  0  0  0
 16 17  1  0  0  0  0
 16 18  1  0  0  0  0
 15 16  2  0  0  0  0
 14 15  1  0  0  0  0
 14 20  2  0  0  0  0
 11 12  1  0  0  0  0
 11 13  1  0  0  0  0
 11 14  1  0  0  0  0
  9 10  1  0  0  0  0
  9 11  1  0  0  0  0
  9 22  1  0  0  0  0
  7  8  1  0  0  0  0
  7  9  1  0  0  0  0
 26 27  1  0  0  0  0
 26 28  1  0  0  0  0
 26 29  1  0  0  0  0
 24 25  1  0  0  0  0
 24 26  1  0  0  0  0
M  END
$$$$
default_name
  -OEChem-02102213163D

 29 29  0     1  0  0  0  0  0999 V2000
   -2.9561   -3.9186    1.3887 H   0  0  0  0  0  0  0  0  0  0  0  0
   -3.1191   -2.9346    0.9517 C   0  0  0  0  0  0  0  0  0  0  0  0
   -3.7811   -2.3546    1.5917 H   0  0  0  0  0  0  0  0  0  0  0  0
   -3.5591   -3.0406   -0.0383 H   0  0  0  0  0  0  0  0  0  0  0  0
   -1.7921   -2.2226    0.8327 C   0  0  0  0  0  0  0  0  0  0  0  0
   -0.7611   -2.7766    1.1927 O   0  0  0  0  0  0  0  0  0  0  0  0
   -1.8201   -0.9926    0.3247 N   0  0  0  0  0  0  0  0  0  0  0  0
   -2.7141   -0.5816    0.0927 H   0  0  0  0  0  0  0  0  0  0  0  0
   -0.6481   -0.1156    0.2017 C   0  0  1  0  0  0  0  0  0  0  0  0
    0.1042   -0.6345   -0.3958 H   0  0  0  0  0  0  0  0  0  0  0  0
   -1.0420    1.1781   -0.5372 C   0  0  0  0  0  0  0  0  0  0  0  0
   -1.8269    1.6953    0.0166 H   0  0  0  0  0  0  0  0  0  0  0  0
   -0.1829    1.8481   -0.5918 H   0  0  0  0  0  0  0  0  0  0  0  0
   -1.5687    0.9221   -1.9283 C   0  0  0  0  0  0  0  0  0  0  0  0
   -2.8365    1.2666   -2.3987 N   0  0  0  0  0  0  0  0  0  0  0  0
   -2.8632    0.9022   -3.6890 C   0  0  0  0  0  0  0  0  0  0  0  0
   -3.7180    1.0241   -4.3424 H   0  0  0  0  0  0  0  0  0  0  0  0
   -1.6814    0.3767   -4.0529 N   0  0  0  0  0  0  0  0  0  0  0  0
   -1.4469    0.0464   -4.9791 H   0  0  0  0  0  0  0  0  0  0  0  0
   -0.8495    0.3845   -2.9555 C   0  0  0  0  0  0  0  0  0  0  0  0
    0.1804    0.0542   -2.9041 H   0  0  0  0  0  0  0  0  0  0  0  0
   -0.0283    0.1609    1.5831 C   0  0  0  0  0  0  0  0  0  0  0  0
    1.1923    0.1056    1.7329 O   0  0  0  0  0  0  0  0  0  0  0  0
   -0.8586    0.4659    2.5853 N   0  0  0  0  0  0  0  0  0  0  0  0
   -1.8521    0.3848    2.4000 H   0  0  0  0  0  0  0  0  0  0  0  0
   -0.4403    0.7694    3.9518 C   0  0  0  0  0  0  0  0  0  0  0  0
    0.5066    1.3154    3.9421 H   0  0  0  0  0  0  0  0  0  0  0  0
   -1.1988    1.3789    4.4452 H   0  0  0  0  0  0  0  0  0  0  0  0
   -0.3053   -0.1600    4.5075 H   0  0  0  0  0  0  0  0  0  0  0  0
  5  6  2  0  0  0  0
  5  7  1  0  0  0  0
  2  3  1  0  0  0  0
  2  4  1  0  0  0  0
  2  5  1  0  0  0  0
  1  2  1  0  0  0  0
 22 23  2  0  0  0  0
 22 24  1  0  0  0  0
 20 21  1  0  0  0  0
 18 19  1  0  0  0  0
 18 20  1  0  0  0  0
 16 17  1  0  0  0  0
 16 18  1  0  0  0  0
 15 16  2  0  0  0  0
 14 15  1  0  0  0  0
 14 20  2  0  0  0  0
 11 12  1  0  0  0  0
 11 13  1  0  0  0  0
 11 14  1  0  0  0  0
  9 10  1  0  0  0  0
  9 11  1  0  0  0  0
  9 22  1  0  0  0  0
  7  8  1  0  0  0  0
  7  9  1  0  0  0  0
 26 27  1  0  0  0  0
 26 28  1  0  0  0  0
 26 29  1  0  0  0  0
 24 25  1  0  0  0  0
 24 26  1  0  0  0  0
M  END
$$$$
default_name
  -OEChem-02102213163D

 29 29  0     1  0  0  0  0  0999 V2000
   -2.9561   -3.9186    1.3887 H   0  0  0  0  0  0  0  0  0  0  0  0
   -3.1191   -2.9346    0.9517 C   0  0  0  0  0  0  0  0  0  0  0  0
   -3.7811   -2.3546    1.5917 H   0  0  0  0  0  0  0  0  0  0  0  0
   -3.5591   -3.0406   -0.0383 H   0  0  0  0  0  0  0  0  0  0  0  0
   -1.7921   -2.2226    0.8327 C   0  0  0  0  0  0  0  0  0  0  0  0
   -0.7611   -2.7766    1.1927 O   0  0  0  0  0  0  0  0  0  0  0  0
   -1.8201   -0.9926    0.3247 N   0  0  0  0  0  0  0  0  0  0  0  0
   -2.7141   -0.5816    0.0927 H   0  0  0  0  0  0  0  0  0  0  0  0
   -0.6481   -0.1156    0.2017 C   0  0  1  0  0  0  0  0  0  0  0  0
    0.1042   -0.6345   -0.3958 H   0  0  0  0  0  0  0  0  0  0  0  0
   -1.0420    1.1781   -0.5372 C   0  0  0  0  0  0  0  0  0  0  0  0
   -1.8269    1.6953    0.0166 H   0  0  0  0  0  0  0  0  0  0  0  0
   -0.1829    1.8481   -0.5918 H   0  0  0  0  0  0  0  0  0  0  0  0
   -1.5687    0.9221   -1.9283 C   0  0  0  0  0  0  0  0  0  0  0  0
   -2.7002    1.5101   -2.4952 N   0  0  0  0  0  0  0  0  0  0  0  0
   -2.7713    1.0407   -3.7493 C   0  0  0  0  0  0  0  0  0  0  0  0
   -3.5496    1.2982   -4.4566 H   0  0  0  0  0  0  0  0  0  0  0  0
   -1.7392    0.2183   -4.0018 N   0  0  0  0  0  0  0  0  0  0  0  0
   -1.5607   -0.2452   -4.8823 H   0  0  0  0  0  0  0  0  0  0  0  0
   -0.9665    0.1340   -2.8651 C   0  0  0  0  0  0  0  0  0  0  0  0
   -0.0486   -0.4241   -2.7294 H   0  0  0  0  0  0  0  0  0  0  0  0
   -0.0283    0.1609    1.5831 C   0  0  0  0  0  0  0  0  0  0  0  0
    1.1923    0.1056    1.7329 O   0  0  0  0  0  0  0  0  0  0  0  0
   -0.8586    0.4659    2.5853 N   0  0  0  0  0  0  0  0  0  0  0  0
   -1.8521    0.3848    2.4000 H   0  0  0  0  0  0  0  0  0  0  0  0
   -0.4403    0.7694    3.9518 C   0  0  0  0  0  0  0  0  0  0  0  0
    0.5066    1.3154    3.9421 H   0  0  0  0  0  0  0  0  0  0  0  0
   -1.1988    1.3789    4.4452 H   0  0  0  0  0  0  0  0  0  0  0  0
   -0.3053   -0.1600    4.5075 H   0  0  0  0  0  0  0  0  0  0  0  0
  5  6  2  0  0  0  0
  5  7  1  0  0  0  0
  2  3  1  0  0  0  0
  2  4  1  0  0  0  0
  2  5  1  0  0  0  0
  1  2  1  0  0  0  0
 22 23  2  0  0  0  0
 22 24  1  0  0  0  0
 20 21  1  0  0  0  0
 18 19  1  0  0  0  0
 18 20  1  0  0  0  0
 16 17  1  0  0  0  0
 16 18  1  0  0  0  0
 15 16  2  0  0  0  0
 14 15  1  0  0  0  0
 14 20  2  0  0  0  0
 11 12  1  0  0  0  0
 11 13  1  0  0  0  0
 11 14  1  0  0  0  0
  9 10  1  0  0  0  0
  9 11  1  0  0  0  0
  9 22  1  0  0  0  0
  7  8  1  0  0  0  0
  7  9  1  0  0  0  0
 26 27  1  0  0  0  0
 26 28  1  0  0  0  0
 26 29  1  0  0  0  0
 24 25  1  0  0  0  0
 24 26  1  0  0  0  0
M  END
$$$$
default_name
  -OEChem-02102213163D

 29 29  0     1  0  0  0  0  0999 V2000
   -2.9561   -3.9186    1.3887 H   0  0  0  0  0  0  0  0  0  0  0  0
   -3.1191   -2.9346    0.9517 C   0  0  0  0  0  0  0  0  0  0  0  0
   -3.7811   -2.3546    1.5917 H   0  0  0  0  0  0  0  0  0  0  0  0
   -3.5591   -3.0406   -0.0383 H   0  0  0  0  0  0  0  0  0  0  0  0
   -1.7921   -2.2226    0.8327 C   0  0  0  0  0  0  0  0  0  0  0  0
   -0.7611   -2.7766    1.1927 O   0  0  0  0  0  0  0  0  0  0  0  0
   -1.8201   -0.9926    0.3247 N   0  0  0  0  0  0  0  0  0  0  0  0
   -2.7141   -0.5816    0.0927 H   0  0  0  0  0  0  0  0  0  0  0  0
   -0.6481   -0.1156    0.2017 C   0  0  1  0  0  0  0  0  0  0  0  0
    0.1042   -0.6345   -0.3958 H   0  0  0  0  0  0  0  0  0  0  0  0
   -1.0420    1.1781   -0.5372 C   0  0  0  0  0  0  0  0  0  0  0  0
   -1.8269    1.6953    0.0166 H   0  0  0  0  0  0  0  0  0  0  0  0
   -0.1829    1.8481   -0.5918 H   0  0  0  0  0  0  0  0  0  0  0  0
   -1.5687    0.9221   -1.9283 C   0  0  0  0  0  0  0  0  0  0  0  0
   -2.5062    1.7040   -2.6043 N   0  0  0  0  0  0  0  0  0  0  0  0
   -2.6468    1.1471   -3.8160 C   0  0  0  0  0  0  0  0  0  0  0  0
   -3.3165    1.5125   -4.5842 H   0  0  0  0  0  0  0  0  0  0  0  0
   -1.8351    0.0836   -3.9408 N   0  0  0  0  0  0  0  0  0  0  0  0
   -1.7445   -0.4909   -4.7675 H   0  0  0  0  0  0  0  0  0  0  0  0
   -1.1432   -0.0720   -2.7602 C   0  0  0  0  0  0  0  0  0  0  0  0
   -0.3915   -0.8157   -2.5275 H   0  0  0  0  0  0  0  0  0  0  0  0
   -0.0283    0.1609    1.5831 C   0  0  0  0  0  0  0  0  0  0  0  0
    1.1923    0.1056    1.7329 O   0  0  0  0  0  0  0  0  0  0  0  0
   -0.8586    0.4659    2.5853 N   0  0  0  0  0  0  0  0  0  0  0  0
   -1.8521    0.3848    2.4000 H   0  0  0  0  0  0  0  0  0  0  0  0
   -0.4403    0.7694    3.9518 C   0  0  0  0  0  0  0  0  0  0  0  0
    0.5066    1.3154    3.9421 H   0  0  0  0  0  0  0  0  0  0  0  0
   -1.1988    1.3789    4.4452 H   0  0  0  0  0  0  0  0  0  0  0  0
   -0.3053   -0.1600    4.5075 H   0  0  0  0  0  0  0  0  0  0  0  0
  5  6  2  0  0  0  0
  5  7  1  0  0  0  0
  2  3  1  0  0  0  0
  2  4  1  0  0  0  0
  2  5  1  0  0  0  0
  1  2  1  0  0  0  0
 22 23  2  0  0  0  0
 22 24  1  0  0  0  0
 20 21  1  0  0  0  0
 18 19  1  0  0  0  0
 18 20  1  0  0  0  0
 16 17  1  0  0  0  0
 16 18  1  0  0  0  0
 15 16  2  0  0  0  0
 14 15  1  0  0  0  0
 14 20  2  0  0  0  0
 11 12  1  0  0  0  0
 11 13  1  0  0  0  0
 11 14  1  0  0  0  0
  9 10  1  0  0  0  0
  9 11  1  0  0  0  0
  9 22  1  0  0  0  0
  7  8  1  0  0  0  0
  7  9  1  0  0  0  0
 26 27  1  0  0  0  0
 26 28  1  0  0  0  0
 26 29  1  0  0  0  0
 24 25  1  0  0  0  0
 24 26  1  0  0  0  0
M  END
$$$$
default_name
  -OEChem-02102213163D

 29 29  0     1  0  0  0  0  0999 V2000
   -2.9561   -3.9186    1.3887 H   0  0  0  0  0  0  0  0  0  0  0  0
   -3.1191   -2.9346    0.9517 C   0  0  0  0  0  0  0  0  0  0  0  0
   -3.7811   -2.3546    1.5917 H   0  0  0  0  0  0  0  0  0  0  0  0
   -3.5591   -3.0406   -0.0383 H   0  0  0  0  0  0  0  0  0  0  0  0
   -1.7921   -2.2226    0.8327 C   0  0  0  0  0  0  0  0  0  0  0  0
   -0.7611   -2.7766    1.1927 O   0  0  0  0  0  0  0  0  0  0  0  0
   -1.8201   -0.9926    0.3247 N   0  0  0  0  0  0  0  0  0  0  0  0
   -2.7141   -0.5816    0.0927 H   0  0  0  0  0  0  0  0  0  0  0  0
   -0.6481   -0.1156    0.2017 C   0  0  1  0  0  0  0  0  0  0  0  0
    0.1042   -0.6345   -0.3958 H   0  0  0  0  0  0  0  0  0  0  0  0
   -1.0420    1.1781   -0.5372 C   0  0  0  0  0  0  0  0  0  0  0  0
   -1.8269    1.6953    0.0166 H   0  0  0  0  0  0  0  0  0  0  0  0
   -0.1829    1.8481   -0.5918 H   0  0  0  0  0  0  0  0  0  0  0  0
   -1.5687    0.9221   -1.9283 C   0  0  0  0  0  0  0  0  0  0  0  0
   -2.2678    1.8353   -2.7187 N   0  0  0  0  0  0  0  0  0  0  0  0
   -2.4982    1.2141   -3.8846 C   0  0  0  0  0  0  0  0  0  0  0  0
   -3.0347    1.6524   -4.7167 H   0  0  0  0  0  0  0  0  0  0  0  0
   -1.9626   -0.0181   -3.8738 N   0  0  0  0  0  0  0  0  0  0  0  0
   -1.9856   -0.6741   -4.6425 H   0  0  0  0  0  0  0  0  0  0  0  0
   -1.3677   -0.2193   -2.6481 C   0  0  0  0  0  0  0  0  0  0  0  0
   -0.8250   -1.0939   -2.3122 H   0  0  0  0  0  0  0  0  0  0  0  0
   -0.0283    0.1609    1.5831 C   0  0  0  0  0  0  0  0  0  0  0  0
    1.1923    0.1056    1.7329 O   0  0  0  0  0  0  0  0  0  0  0  0
   -0.8586    0.4659    2.5853 N   0  0  0  0  0  0  0  0  0  0  0  0
   -1.8521    0.3848    2.4000 H   0  0  0  0  0  0  0  0  0  0  0  0
   -0.4403    0.7694    3.9518 C   0  0  0  0  0  0  0  0  0  0  0  0
    0.5066    1.3154    3.9421 H   0  0  0  0  0  0  0  0  0  0  0  0
   -1.1988    1.3789    4.4452 H   0  0  0  0  0  0  0  0  0  0  0  0
   -0.3053   -0.1600    4.5075 H   0  0  0  0  0  0  0  0  0  0  0  0
  5  6  2  0  0  0  0
  5  7  1  0  0  0  0
  2  3  1  0  0  0  0
  2  4  1  0  0  0  0
  2  5  1  0  0  0  0
  1  2  1  0  0  0  0
 22 23  2  0  0  0  0
 22 24  1  0  0  0  0
 20 21  1  0  0  0  0
 18 19  1  0  0  0  0
 18 20  1  0  0  0  0
 16 17  1  0  0  0  0
 16 18  1  0  0  0  0
 15 16  2  0  0  0  0
 14 15  1  0  0  0  0
 14 20  2  0  0  0  0
 11 12  1  0  0  0  0
 11 13  1  0  0  0  0
 11 14  1  0  0  0  0
  9 10  1  0  0  0  0
  9 11  1  0  0  0  0
  9 22  1  0  0  0  0
  7  8  1  0  0  0  0
  7  9  1  0  0  0  0
 26 27  1  0  0  0  0
 26 28  1  0  0  0  0
 26 29  1  0  0  0  0
 24 25  1  0  0  0  0
 24 26  1  0  0  0  0
M  END
$$$$
default_name
  -OEChem-02102213163D

 29 29  0     1  0  0  0  0  0999 V2000
   -2.9561   -3.9186    1.3887 H   0  0  0  0  0  0  0  0  0  0  0  0
   -3.1191   -2.9346    0.9517 C   0  0  0  0  0  0  0  0  0  0  0  0
   -3.7811   -2.3546    1.5917 H   0  0  0  0  0  0  0  0  0  0  0  0
   -3.5591   -3.0406   -0.0383 H   0  0  0  0  0  0  0  0  0  0  0  0
   -1.7921   -2.2226    0.8327 C   0  0  0  0  0  0  0  0  0  0  0  0
   -0.7611   -2.7766    1.1927 O   0  0  0  0  0  0  0  0  0  0  0  0
   -1.8201   -0.9926    0.3247 N   0  0  0  0  0  0  0  0  0  0  0  0
   -2.7141   -0.5816    0.0927 H   0  0  0  0  0  0  0  0  0  0  0  0
   -0.6481   -0.1156    0.2017 C   0  0  1  0  0  0  0  0  0  0  0  0
    0.1042   -0.6345   -0.3958 H   0  0  0  0  0  0  0  0  0  0  0  0
   -1.0420    1.1781   -0.5372 C   0  0  0  0  0  0  0  0  0  0  0  0
   -1.6188    1.8223    0.1280 H   0  0  0  0  0  0  0  0  0  0  0  0
   -0.1441    1.7256   -0.8270 H   0  0  0  0  0  0  0  0  0  0  0  0
   -1.8899    0.9209   -1.7592 C   0  0  0  0  0  0  0  0  0  0  0  0
   -2.3948    1.8934   -2.6233 N   0  0  0  0  0  0  0  0  0  0  0  0
   -3.0434    1.2276   -3.5899 C   0  0  0  0  0  0  0  0  0  0  0  0
   -3.5618    1.6980   -4.4159 H   0  0  0  0  0  0  0  0  0  0  0  0
   -2.9494   -0.0979   -3.3911 N   0  0  0  0  0  0  0  0  0  0  0  0
   -3.3387   -0.8101   -3.9937 H   0  0  0  0  0  0  0  0  0  0  0  0
   -2.2211   -0.3113   -2.2419 C   0  0  0  0  0  0  0  0  0  0  0  0
   -1.9388   -1.2608   -1.8048 H   0  0  0  0  0  0  0  0  0  0  0  0
   -0.0283    0.1609    1.5831 C   0  0  0  0  0  0  0  0  0  0  0  0
    1.1923    0.1056    1.7329 O   0  0  0  0  0  0  0  0  0  0  0  0
   -0.8586    0.4659    2.5853 N   0  0  0  0  0  0  0  0  0  0  0  0
   -1.8521    0.3848    2.4000 H   0  0  0  0  0  0  0  0  0  0  0  0
   -0.4403    0.7694    3.9518 C   0  0  0  0  0  0  0  0  0  0  0  0
    0.5066    1.3154    3.9421 H   0  0  0  0  0  0  0  0  0  0  0  0
   -1.1988    1.3789    4.4452 H   0  0  0  0  0  0  0  0  0  0  0  0
   -0.3053   -0.1600    4.5075 H   0  0  0  0  0  0  0  0  0  0  0  0
  5  6  2  0  0  0  0
  5  7  1  0  0  0  0
  2  3  1  0  0  0  0
  2  4  1  0  0  0  0
  2  5  1  0  0  0  0
  1  2  1  0  0  0  0
 22 23  2  0  0  0  0
 22 24  1  0  0  0  0
 20 21  1  0  0  0  0
 18 19  1  0  0  0  0
 18 20  1  0  0  0  0
 16 17  1  0  0  0  0
 16 18  1  0  0  0  0
 15 16  2  0  0  0  0
 14 15  1  0  0  0  0
 14 20  2  0  0  0  0
 11 12  1  0  0  0  0
 11 13  1  0  0  0  0
 11 14  1  0  0  0  0
  9 10  1  0  0  0  0
  9 11  1  0  0  0  0
  9 22  1  0  0  0  0
  7  8  1  0  0  0  0
  7  9  1  0  0  0  0
 26 27  1  0  0  0  0
 26 28  1  0  0  0  0
 26 29  1  0  0  0  0
 24 25  1  0  0  0  0
 24 26  1  0  0  0  0
M  END
$$$$
default_name
  -OEChem-02102213163D

 29 29  0     1  0  0  0  0  0999 V2000
   -2.9561   -3.9186    1.3887 H   0  0  0  0  0  0  0  0  0  0  0  0
   -3.1191   -2.9346    0.9517 C   0  0  0  0  0  0  0  0  0  0  0  0
   -3.7811   -2.3546    1.5917 H   0  0  0  0  0  0  0  0  0  0  0  0
   -3.5591   -3.0406   -0.0383 H   0  0  0  0  0  0  0  0  0  0  0  0
   -1.7921   -2.2226    0.8327 C   0  0  0  0  0  0  0  0  0  0  0  0
   -0.7611   -2.7766    1.1927 O   0  0  0  0  0  0  0  0  0  0  0  0
   -1.8201   -0.9926    0.3247 N   0  0  0  0  0  0  0  0  0  0  0  0
   -2.7141   -0.5816    0.0927 H   0  0  0  0  0  0  0  0  0  0  0  0
   -0.6481   -0.1156    0.2017 C   0  0  1  0  0  0  0  0  0  0  0  0
    0.1042   -0.6345   -0.3958 H   0  0  0  0  0  0  0  0  0  0  0  0
   -1.0420    1.1781   -0.5372 C   0  0  0  0  0  0  0  0  0  0  0  0
   -1.6188    1.8223    0.1280 H   0  0  0  0  0  0  0  0  0  0  0  0
   -0.1441    1.7256   -0.8270 H   0  0  0  0  0  0  0  0  0  0  0  0
   -1.8899    0.9209   -1.7592 C   0  0  0  0  0  0  0  0  0  0  0  0
   -2.1513    1.8357   -2.7800 N   0  0  0  0  0  0  0  0  0  0  0  0
   -2.8989    1.1807   -3.6803 C   0  0  0  0  0  0  0  0  0  0  0  0
   -3.2814    1.6184   -4.5937 H   0  0  0  0  0  0  0  0  0  0  0  0
   -3.0948   -0.0905   -3.2917 N   0  0  0  0  0  0  0  0  0  0  0  0
   -3.6093   -0.7893   -3.8102 H   0  0  0  0  0  0  0  0  0  0  0  0
   -2.4618   -0.2747   -2.0827 C   0  0  0  0  0  0  0  0  0  0  0  0
   -2.4006   -1.1854   -1.5003 H   0  0  0  0  0  0  0  0  0  0  0  0
   -0.0283    0.1609    1.5831 C   0  0  0  0  0  0  0  0  0  0  0  0
    1.1923    0.1056    1.7329 O   0  0  0  0  0  0  0  0  0  0  0  0
   -0.8586    0.4659    2.5853 N   0  0  0  0  0  0  0  0  0  0  0  0
   -1.8521    0.3848    2.4000 H   0  0  0  0  0  0  0  0  0  0  0  0
   -0.4403    0.7694    3.9518 C   0  0  0  0  0  0  0  0  0  0  0  0
    0.5066    1.3154    3.9421 H   0  0  0  0  0  0  0  0  0  0  0  0
   -1.1988    1.3789    4.4452 H   0  0  0  0  0  0  0  0  0  0  0  0
   -0.3053   -0.1600    4.5075 H   0  0  0  0  0  0  0  0  0  0  0  0
  5  6  2  0  0  0  0
  5  7  1  0  0  0  0
  2  3  1  0  0  0  0
  2  4  1  0  0  0  0
  2  5  1  0  0  0  0
  1  2  1  0  0  0  0
 22 23  2  0  0  0  0
 22 24  1  0  0  0  0
 20 21  1  0  0  0  0
 18 19  1  0  0  0  0
 18 20  1  0  0  0  0
 16 17  1  0  0  0  0
 16 18  1  0  0  0  0
 15 16  2  0  0  0  0
 14 15  1  0  0  0  0
 14 20  2  0  0  0  0
 11 12  1  0  0  0  0
 11 13  1  0  0  0  0
 11 14  1  0  0  0  0
  9 10  1  0  0  0  0
  9 11  1  0  0  0  0
  9 22  1  0  0  0  0
  7  8  1  0  0  0  0
  7  9  1  0  0  0  0
 26 27  1  0  0  0  0
 26 28  1  0  0  0  0
 26 29  1  0  0  0  0
 24 25  1  0  0  0  0
 24 26  1  0  0  0  0
M  END
$$$$
default_name
  -OEChem-02102213163D

 29 29  0     1  0  0  0  0  0999 V2000
   -2.9561   -3.9186    1.3887 H   0  0  0  0  0  0  0  0  0  0  0  0
   -3.1191   -2.9346    0.9517 C   0  0  0  0  0  0  0  0  0  0  0  0
   -3.7811   -2.3546    1.5917 H   0  0  0  0  0  0  0  0  0  0  0  0
   -3.5591   -3.0406   -0.0383 H   0  0  0  0  0  0  0  0  0  0  0  0
   -1.7921   -2.2226    0.8327 C   0  0  0  0  0  0  0  0  0  0  0  0
   -0.7611   -2.7766    1.1927 O   0  0  0  0  0  0  0  0  0  0  0  0
   -1.8201   -0.9926    0.3247 N   0  0  0  0  0  0  0  0  0  0  0  0
   -2.7141   -0.5816    0.0927 H   0  0  0  0  0  0  0  0  0  0  0  0
   -0.6481   -0.1156    0.2017 C   0  0  1  0  0  0  0  0  0  0  0  0
    0.1042   -0.6345   -0.3958 H   0  0  0  0  0  0  0  0  0  0  0  0
   -1.0420    1.1781   -0.5372 C   0  0  0  0  0  0  0  0  0  0  0  0
   -1.6188    1.8223    0.1280 H   0  0  0  0  0  0  0  0  0  0  0  0
   -0.1441    1.7256   -0.8270 H   0  0  0  0  0  0  0  0  0  0  0  0
   -1.8899    0.9209   -1.7592 C   0  0  0  0  0  0  0  0  0  0  0  0
   -1.9214    1.7061   -2.9123 N   0  0  0  0  0  0  0  0  0  0  0  0
   -2.7651    1.0919   -3.7544 C   0  0  0  0  0  0  0  0  0  0  0  0
   -3.0195    1.4570   -4.7415 H   0  0  0  0  0  0  0  0  0  0  0  0
   -3.2381   -0.0385   -3.2033 N   0  0  0  0  0  0  0  0  0  0  0  0
   -3.8745   -0.6859   -3.6480 H   0  0  0  0  0  0  0  0  0  0  0  0
   -2.6936   -0.1657   -1.9447 C   0  0  0  0  0  0  0  0  0  0  0  0
   -2.8443   -0.9715   -1.2374 H   0  0  0  0  0  0  0  0  0  0  0  0
   -0.0283    0.1609    1.5831 C   0  0  0  0  0  0  0  0  0  0  0  0
    1.1923    0.1056    1.7329 O   0  0  0  0  0  0  0  0  0  0  0  0
   -0.8586    0.4659    2.5853 N   0  0  0  0  0  0  0  0  0  0  0  0
   -1.8521    0.3848    2.4000 H   0  0  0  0  0  0  0  0  0  0  0  0
   -0.4403    0.7694    3.9518 C   0  0  0  0  0  0  0  0  0  0  0  0
    0.5066    1.3154    3.9421 H   0  0  0  0  0  0  0  0  0  0  0  0
   -1.1988    1.3789    4.4452 H   0  0  0  0  0  0  0  0  0  0  0  0
   -0.3053   -0.1600    4.5075 H   0  0  0  0  0  0  0  0  0  0  0  0
  5  6  2  0  0  0  0
  5  7  1  0  0  0  0
  2  3  1  0  0  0  0
  2  4  1  0  0  0  0
  2  5  1  0  0  0  0
  1  2  1  0  0  0  0
 22 23  2  0  0  0  0
 22 24  1  0  0  0  0
 20 21  1  0  0  0  0
 18 19  1  0  0  0  0
 18 20  1  0  0  0  0
 16 17  1  0  0  0  0
 16 18  1  0  0  0  0
 15 16  2  0  0  0  0
 14 15  1  0  0  0  0
 14 20  2  0  0  0  0
 11 12  1  0  0  0  0
 11 13  1  0  0  0  0
 11 14  1  0  0  0  0
  9 10  1  0  0  0  0
  9 11  1  0  0  0  0
  9 22  1  0  0  0  0
  7  8  1  0  0  0  0
  7  9  1  0  0  0  0
 26 27  1  0  0  0  0
 26 28  1  0  0  0  0
 26 29  1  0  0  0  0
 24 25  1  0  0  0  0
 24 26  1  0  0  0  0
M  END
$$$$
default_name
  -OEChem-02102213163D

 29 29  0     1  0  0  0  0  0999 V2000
   -2.9561   -3.9186    1.3887 H   0  0  0  0  0  0  0  0  0  0  0  0
   -3.1191   -2.9346    0.9517 C   0  0  0  0  0  0  0  0  0  0  0  0
   -3.7811   -2.3546    1.5917 H   0  0  0  0  0  0  0  0  0  0  0  0
   -3.5591   -3.0406   -0.0383 H   0  0  0  0  0  0  0  0  0  0  0  0
   -1.7921   -2.2226    0.8327 C   0  0  0  0  0  0  0  0  0  0  0  0
   -0.7611   -2.7766    1.1927 O   0  0  0  0  0  0  0  0  0  0  0  0
   -1.8201   -0.9926    0.3247 N   0  0  0  0  0  0  0  0  0  0  0  0
   -2.7141   -0.5816    0.0927 H   0  0  0  0  0  0  0  0  0  0  0  0
   -0.6481   -0.1156    0.2017 C   0  0  1  0  0  0  0  0  0  0  0  0
    0.1042   -0.6345   -0.3958 H   0  0  0  0  0  0  0  0  0  0  0  0
   -1.0420    1.1781   -0.5372 C   0  0  0  0  0  0  0  0  0  0  0  0
   -1.6188    1.8223    0.1280 H   0  0  0  0  0  0  0  0  0  0  0  0
   -0.1441    1.7256   -0.8270 H   0  0  0  0  0  0  0  0  0  0  0  0
   -1.8899    0.9209   -1.7592 C   0  0  0  0  0  0  0  0  0  0  0  0
   -1.7206    1.5136   -3.0111 N   0  0  0  0  0  0  0  0  0  0  0  0
   -2.6513    0.9673   -3.8072 C   0  0  0  0  0  0  0  0  0  0  0  0
   -2.7937    1.2246   -4.8492 H   0  0  0  0  0  0  0  0  0  0  0  0
   -3.3696    0.0546   -3.1317 N   0  0  0  0  0  0  0  0  0  0  0  0
   -4.1161   -0.5069   -3.5180 H   0  0  0  0  0  0  0  0  0  0  0  0
   -2.9008    0.0082   -1.8376 C   0  0  0  0  0  0  0  0  0  0  0  0
   -3.2397   -0.6337   -1.0342 H   0  0  0  0  0  0  0  0  0  0  0  0
   -0.0283    0.1609    1.5831 C   0  0  0  0  0  0  0  0  0  0  0  0
    1.1923    0.1056    1.7329 O   0  0  0  0  0  0  0  0  0  0  0  0
   -0.8586    0.4659    2.5853 N   0  0  0  0  0  0  0  0  0  0  0  0
   -1.8521    0.3848    2.4000 H   0  0  0  0  0  0  0  0  0  0  0  0
   -0.4403    0.7694    3.9518 C   0  0  0  0  0  0  0  0  0  0  0  0
    0.5066    1.3154    3.9421 H   0  0  0  0  0  0  0  0  0  0  0  0
   -1.1988    1.3789    4.4452 H   0  0  0  0  0  0  0  0  0  0  0  0
   -0.3053   -0.1600    4.5075 H   0  0  0  0  0  0  0  0  0  0  0  0
  5  6  2  0  0  0  0
  5  7  1  0  0  0  0
  2  3  1  0  0  0  0
  2  4  1  0  0  0  0
  2  5  1  0  0  0  0
  1  2  1  0  0  0  0
 22 23  2  0  0  0  0
 22 24  1  0  0  0  0
 20 21  1  0  0  0  0
 18 19  1  0  0  0  0
 18 20  1  0  0  0  0
 16 17  1  0  0  0  0
 16 18  1  0  0  0  0
 15 16  2  0  0  0  0
 14 15  1  0  0  0  0
 14 20  2  0  0  0  0
 11 12  1  0  0  0  0
 11 13  1  0  0  0  0
 11 14  1  0  0  0  0
  9 10  1  0  0  0  0
  9 11  1  0  0  0  0
  9 22  1  0  0  0  0
  7  8  1  0  0  0  0
  7  9  1  0  0  0  0
 26 27  1  0  0  0  0
 26 28  1  0  0  0  0
 26 29  1  0  0  0  0
 24 25  1  0  0  0  0
 24 26  1  0  0  0  0
M  END
$$$$
default_name
  -OEChem-02102213163D

 29 29  0     1  0  0  0  0  0999 V2000
   -2.9561   -3.9186    1.3887 H   0  0  0  0  0  0  0  0  0  0  0  0
   -3.1191   -2.9346    0.9517 C   0  0  0  0  0  0  0  0  0  0  0  0
   -3.7811   -2.3546    1.5917 H   0  0  0  0  0  0  0  0  0  0  0  0
   -3.5591   -3.0406   -0.0383 H   0  0  0  0  0  0  0  0  0  0  0  0
   -1.7921   -2.2226    0.8327 C   0  0  0  0  0  0  0  0  0  0  0  0
   -0.7611   -2.7766    1.1927 O   0  0  0  0  0  0  0  0  0  0  0  0
   -1.8201   -0.9926    0.3247 N   0  0  0  0  0  0  0  0  0  0  0  0
   -2.7141   -0.5816    0.0927 H   0  0  0  0  0  0  0  0  0  0  0  0
   -0.6481   -0.1156    0.2017 C   0  0  1  0  0  0  0  0  0  0  0  0
    0.1042   -0.6345   -0.3958 H   0  0  0  0  0  0  0  0  0  0  0  0
   -1.0420    1.1781   -0.5372 C   0  0  0  0  0  0  0  0  0  0  0  0
   -1.6188    1.8223    0.1280 H   0  0  0  0  0  0  0  0  0  0  0  0
   -0.1441    1.7256   -0.8270 H   0  0  0  0  0  0  0  0  0  0  0  0
   -1.8899    0.9209   -1.7592 C   0  0  0  0  0  0  0  0  0  0  0  0
   -1.5626    1.2712   -3.0697 N   0  0  0  0  0  0  0  0  0  0  0  0
   -2.5651    0.8154   -3.8350 C   0  0  0  0  0  0  0  0  0  0  0  0
   -2.6197    0.9373   -4.9095 H   0  0  0  0  0  0  0  0  0  0  0  0
   -3.4801    0.1825   -3.0819 N   0  0  0  0  0  0  0  0  0  0  0  0
   -4.3177   -0.2644   -3.4292 H   0  0  0  0  0  0  0  0  0  0  0  0
   -3.0692    0.2352   -1.7685 C   0  0  0  0  0  0  0  0  0  0  0  0
   -3.5598   -0.1950   -0.9044 H   0  0  0  0  0  0  0  0  0  0  0  0
   -0.0283    0.1609    1.5831 C   0  0  0  0  0  0  0  0  0  0  0  0
    1.1923    0.1056    1.7329 O   0  0  0  0  0  0  0  0  0  0  0  0
   -0.8586    0.4659    2.5853 N   0  0  0  0  0  0  0  0  0  0  0  0
   -1.8521    0.3848    2.4000 H   0  0  0  0  0  0  0  0  0  0  0  0
   -0.4403    0.7694    3.9518 C   0  0  0  0  0  0  0  0  0  0  0  0
    0.5066    1.3154    3.9421 H   0  0  0  0  0  0  0  0  0  0  0  0
   -1.1988    1.3789    4.4452 H   0  0  0  0  0  0  0  0  0  0  0  0
   -0.3053   -0.1600    4.5075 H   0  0  0  0  0  0  0  0  0  0  0  0
  5  6  2  0  0  0  0
  5  7  1  0  0  0  0
  2  3  1  0  0  0  0
  2  4  1  0  0  0  0
  2  5  1  0  0  0  0
  1  2  1  0  0  0  0
 22 23  2  0  0  0  0
 22 24  1  0  0  0  0
 20 21  1  0  0  0  0
 18 19  1  0  0  0  0
 18 20  1  0  0  0  0
 16 17  1  0  0  0  0
 16 18  1  0  0  0  0
 15 16  2  0  0  0  0
 14 15  1  0  0  0  0
 14 20  2  0  0  0  0
 11 12  1  0  0  0  0
 11 13  1  0  0  0  0
 11 14  1  0  0  0  0
  9 10  1  0  0  0  0
  9 11  1  0  0  0  0
  9 22  1  0  0  0  0
  7  8  1  0  0  0  0
  7  9  1  0  0  0  0
 26 27  1  0  0  0  0
 26 28  1  0  0  0  0
 26 29  1  0  0  0  0
 24 25  1  0  0  0  0
 24 26  1  0  0  0  0
M  END
$$$$
default_name
  -OEChem-02102213163D

 29 29  0     1  0  0  0  0  0999 V2000
   -2.9561   -3.9186    1.3887 H   0  0  0  0  0  0  0  0  0  0  0  0
   -3.1191   -2.9346    0.9517 C   0  0  0  0  0  0  0  0  0  0  0  0
   -3.7811   -2.3546    1.5917 H   0  0  0  0  0  0  0  0  0  0  0  0
   -3.5591   -3.0406   -0.0383 H   0  0  0  0  0  0  0  0  0  0  0  0
   -1.7921   -2.2226    0.8327 C   0  0  0  0  0  0  0  0  0  0  0  0
   -0.7611   -2.7766    1.1927 O   0  0  0  0  0  0  0  0  0  0  0  0
   -1.8201   -0.9926    0.3247 N   0  0  0  0  0  0  0  0  0  0  0  0
   -2.7141   -0.5816    0.0927 H   0  0  0  0  0  0  0  0  0  0  0  0
   -0.6481   -0.1156    0.2017 C   0  0  1  0  0  0  0  0  0  0  0  0
    0.1042   -0.6345   -0.3958 H   0  0  0  0  0  0  0  0  0  0  0  0
   -1.0420    1.1781   -0.5372 C   0  0  0  0  0  0  0  0  0  0  0  0
   -1.6188    1.8223    0.1280 H   0  0  0  0  0  0  0  0  0  0  0  0
   -0.1441    1.7256   -0.8270 H   0  0  0  0  0  0  0  0  0  0  0  0
   -1.8899    0.9209   -1.7592 C   0  0  0  0  0  0  0  0  0  0  0  0
   -1.4582    0.9954   -3.0841 N   0  0  0  0  0  0  0  0  0  0  0  0
   -2.5124    0.6466   -3.8361 C   0  0  0  0  0  0  0  0  0  0  0  0
   -2.5090    0.6144   -4.9183 H   0  0  0  0  0  0  0  0  0  0  0  0
   -3.5624    0.3364   -3.0572 N   0  0  0  0  0  0  0  0  0  0  0  0
   -4.4656    0.0249   -3.3875 H   0  0  0  0  0  0  0  0  0  0  0  0
   -3.1874    0.4997   -1.7422 C   0  0  0  0  0  0  0  0  0  0  0  0
   -3.7828    0.3147   -0.8570 H   0  0  0  0  0  0  0  0  0  0  0  0
   -0.0283    0.1609    1.5831 C   0  0  0  0  0  0  0  0  0  0  0  0
    1.1923    0.1056    1.7329 O   0  0  0  0  0  0  0  0  0  0  0  0
   -0.8586    0.4659    2.5853 N   0  0  0  0  0  0  0  0  0  0  0  0
   -1.8521    0.3848    2.4000 H   0  0  0  0  0  0  0  0  0  0  0  0
   -0.4403    0.7694    3.9518 C   0  0  0  0  0  0  0  0  0  0  0  0
    0.5066    1.3154    3.9421 H   0  0  0  0  0  0  0  0  0  0  0  0
   -1.1988    1.3789    4.4452 H   0  0  0  0  0  0  0  0  0  0  0  0
   -0.3053   -0.1600    4.5075 H   0  0  0  0  0  0  0  0  0  0  0  0
  5  6  2  0  0  0  0
  5  7  1  0  0  0  0
  2  3  1  0  0  0  0
  2  4  1  0  0  0  0
  2  5  1  0  0  0  0
  1  2  1  0  0  0  0
 22 23  2  0  0  0  0
 22 24  1  0  0  0  0
 20 21  1  0  0  0  0
 18 19  1  0  0  0  0
 18 20  1  0  0  0  0
 16 17  1  0  0  0  0
 16 18  1  0  0  0  0
 15 16  2  0  0  0  0
 14 15  1  0  0  0  0
 14 20  2  0  0  0  0
 11 12  1  0  0  0  0
 11 13  1  0  0  0  0
 11 14  1  0  0  0  0
  9 10  1  0  0  0  0
  9 11  1  0  0  0  0
  9 22  1  0  0  0  0
  7  8  1  0  0  0  0
  7  9  1  0  0  0  0
 26 27  1  0  0  0  0
 26 28  1  0  0  0  0
 26 29  1  0  0  0  0
 24 25  1  0  0  0  0
 24 26  1  0  0  0  0
M  END
$$$$
default_name
  -OEChem-02102213163D

 29 29  0     1  0  0  0  0  0999 V2000
   -2.9561   -3.9186    1.3887 H   0  0  0  0  0  0  0  0  0  0  0  0
   -3.1191   -2.9346    0.9517 C   0  0  0  0  0  0  0  0  0  0  0  0
   -3.7811   -2.3546    1.5917 H   0  0  0  0  0  0  0  0  0  0  0  0
   -3.5591   -3.0406   -0.0383 H   0  0  0  0  0  0  0  0  0  0  0  0
   -1.7921   -2.2226    0.8327 C   0  0  0  0  0  0  0  0  0  0  0  0
   -0.7611   -2.7766    1.1927 O   0  0  0  0  0  0  0  0  0  0  0  0
   -1.8201   -0.9926    0.3247 N   0  0  0  0  0  0  0  0  0  0  0  0
   -2.7141   -0.5816    0.0927 H   0  0  0  0  0  0  0  0  0  0  0  0
   -0.6481   -0.1156    0.2017 C   0  0  1  0  0  0  0  0  0  0  0  0
    0.1042   -0.6345   -0.3958 H   0  0  0  0  0  0  0  0  0  0  0  0
   -1.0420    1.1781   -0.5372 C   0  0  0  0  0  0  0  0  0  0  0  0
   -1.6188    1.8223    0.1280 H   0  0  0  0  0  0  0  0  0  0  0  0
   -0.1441    1.7256   -0.8270 H   0  0  0  0  0  0  0  0  0  0  0  0
   -1.8899    0.9209   -1.7592 C   0  0  0  0  0  0  0  0  0  0  0  0
   -1.4145    0.7050   -3.0533 N   0  0  0  0  0  0  0  0  0  0  0  0
   -2.4968    0.4724   -3.8102 C   0  0  0  0  0  0  0  0  0  0  0  0
   -2.4695    0.2781   -4.8750 H   0  0  0  0  0  0  0  0  0  0  0  0
   -3.6106    0.5059   -3.0594 N   0  0  0  0  0  0  0  0  0  0  0  0
   -4.5496    0.3415   -3.3958 H   0  0  0  0  0  0  0  0  0  0  0  0
   -3.2472    0.7838   -1.7605 C   0  0  0  0  0  0  0  0  0  0  0  0
   -3.8934    0.8606   -0.8951 H   0  0  0  0  0  0  0  0  0  0  0  0
   -0.0283    0.1609    1.5831 C   0  0  0  0  0  0  0  0  0  0  0  0
    1.1923    0.1056    1.7329 O   0  0  0  0  0  0  0  0  0  0  0  0
   -0.8586    0.4659    2.5853 N   0  0  0  0  0  0  0  0  0  0  0  0
   -1.8521    0.3848    2.4000 H   0  0  0  0  0  0  0  0  0  0  0  0
   -0.4403    0.7694    3.9518 C   0  0  0  0  0  0  0  0  0  0  0  0
    0.5066    1.3154    3.9421 H   0  0  0  0  0  0  0  0  0  0  0  0
   -1.1988    1.3789    4.4452 H   0  0  0  0  0  0  0  0  0  0  0  0
   -0.3053   -0.1600    4.5075 H   0  0  0  0  0  0  0  0  0  0  0  0
  5  6  2  0  0  0  0
  5  7  1  0  0  0  0
  2  3  1  0  0  0  0
  2  4  1  0  0  0  0
  2  5  1  0  0  0  0
  1  2  1  0  0  0  0
 22 23  2  0  0  0  0
 22 24  1  0  0  0  0
 20 21  1  0  0  0  0
 18 19  1  0  0  0  0
 18 20  1  0  0  0  0
 16 17  1  0  0  0  0
 16 18  1  0  0  0  0
 15 16  2  0  0  0  0
 14 15  1  0  0  0  0
 14 20  2  0  0  0  0
 11 12  1  0  0  0  0
 11 13  1  0  0  0  0
 11 14  1  0  0  0  0
  9 10  1  0  0  0  0
  9 11  1  0  0  0  0
  9 22  1  0  0  0  0
  7  8  1  0  0  0  0
  7  9  1  0  0  0  0
 26 27  1  0  0  0  0
 26 28  1  0  0  0  0
 26 29  1  0  0  0  0
 24 25  1  0  0  0  0
 24 26  1  0  0  0  0
M  END
$$$$
default_name
  -OEChem-02102213163D

 29 29  0     1  0  0  0  0  0999 V2000
   -2.9561   -3.9186    1.3887 H   0  0  0  0  0  0  0  0  0  0  0  0
   -3.1191   -2.9346    0.9517 C   0  0  0  0  0  0  0  0  0  0  0  0
   -3.7811   -2.3546    1.5917 H   0  0  0  0  0  0  0  0  0  0  0  0
   -3.5591   -3.0406   -0.0383 H   0  0  0  0  0  0  0  0  0  0  0  0
   -1.7921   -2.2226    0.8327 C   0  0  0  0  0  0  0  0  0  0  0  0
   -0.7611   -2.7766    1.1927 O   0  0  0  0  0  0  0  0  0  0  0  0
   -1.8201   -0.9926    0.3247 N   0  0  0  0  0  0  0  0  0  0  0  0
   -2.7141   -0.5816    0.0927 H   0  0  0  0  0  0  0  0  0  0  0  0
   -0.6481   -0.1156    0.2017 C   0  0  1  0  0  0  0  0  0  0  0  0
    0.1042   -0.6345   -0.3958 H   0  0  0  0  0  0  0  0  0  0  0  0
   -1.0420    1.1781   -0.5372 C   0  0  0  0  0  0  0  0  0  0  0  0
   -1.6188    1.8223    0.1280 H   0  0  0  0  0  0  0  0  0  0  0  0
   -0.1441    1.7256   -0.8270 H   0  0  0  0  0  0  0  0  0  0  0  0
   -1.8899    0.9209   -1.7592 C   0  0  0  0  0  0  0  0  0  0  0  0
   -1.4346    0.4199   -2.9794 N   0  0  0  0  0  0  0  0  0  0  0  0
   -2.5195    0.3046   -3.7592 C   0  0  0  0  0  0  0  0  0  0  0  0
   -2.5036   -0.0487   -4.7825 H   0  0  0  0  0  0  0  0  0  0  0  0
   -3.6216    0.6794   -3.0883 N   0  0  0  0  0  0  0  0  0  0  0  0
   -4.5640    0.6636   -3.4536 H   0  0  0  0  0  0  0  0  0  0  0  0
   -3.2447    1.0682   -1.8220 C   0  0  0  0  0  0  0  0  0  0  0  0
   -3.8843    1.4055   -1.0161 H   0  0  0  0  0  0  0  0  0  0  0  0
   -0.0283    0.1609    1.5831 C   0  0  0  0  0  0  0  0  0  0  0  0
    1.1923    0.1056    1.7329 O   0  0  0  0  0  0  0  0  0  0  0  0
   -0.8586    0.4659    2.5853 N   0  0  0  0  0  0  0  0  0  0  0  0
   -1.8521    0.3848    2.4000 H   0  0  0  0  0  0  0  0  0  0  0  0
   -0.4403    0.7694    3.9518 C   0  0  0  0  0  0  0  0  0  0  0  0
    0.5066    1.3154    3.9421 H   0  0  0  0  0  0  0  0  0  0  0  0
   -1.1988    1.3789    4.4452 H   0  0  0  0  0  0  0  0  0  0  0  0
   -0.3053   -0.1600    4.5075 H   0  0  0  0  0  0  0  0  0  0  0  0
  5  6  2  0  0  0  0
  5  7  1  0  0  0  0
  2  3  1  0  0  0  0
  2  4  1  0  0  0  0
  2  5  1  0  0  0  0
  1  2  1  0  0  0  0
 22 23  2  0  0  0  0
 22 24  1  0  0  0  0
 20 21  1  0  0  0  0
 18 19  1  0  0  0  0
 18 20  1  0  0  0  0
 16 17  1  0  0  0  0
 16 18  1  0  0  0  0
 15 16  2  0  0  0  0
 14 15  1  0  0  0  0
 14 20  2  0  0  0  0
 11 12  1  0  0  0  0
 11 13  1  0  0  0  0
 11 14  1  0  0  0  0
  9 10  1  0  0  0  0
  9 11  1  0  0  0  0
  9 22  1  0  0  0  0
  7  8  1  0  0  0  0
  7  9  1  0  0  0  0
 26 27  1  0  0  0  0
 26 28  1  0  0  0  0
 26 29  1  0  0  0  0
 24 25  1  0  0  0  0
 24 26  1  0  0  0  0
M  END
$$$$
default_name
  -OEChem-02102213163D

 29 29  0     1  0  0  0  0  0999 V2000
   -2.9561   -3.9186    1.3887 H   0  0  0  0  0  0  0  0  0  0  0  0
   -3.1191   -2.9346    0.9517 C   0  0  0  0  0  0  0  0  0  0  0  0
   -3.7811   -2.3546    1.5917 H   0  0  0  0  0  0  0  0  0  0  0  0
   -3.5591   -3.0406   -0.0383 H   0  0  0  0  0  0  0  0  0  0  0  0
   -1.7921   -2.2226    0.8327 C   0  0  0  0  0  0  0  0  0  0  0  0
   -0.7611   -2.7766    1.1927 O   0  0  0  0  0  0  0  0  0  0  0  0
   -1.8201   -0.9926    0.3247 N   0  0  0  0  0  0  0  0  0  0  0  0
   -2.7141   -0.5816    0.0927 H   0  0  0  0  0  0  0  0  0  0  0  0
   -0.6481   -0.1156    0.2017 C   0  0  1  0  0  0  0  0  0  0  0  0
    0.1042   -0.6345   -0.3958 H   0  0  0  0  0  0  0  0  0  0  0  0
   -1.0420    1.1781   -0.5372 C   0  0  0  0  0  0  0  0  0  0  0  0
   -1.6188    1.8223    0.1280 H   0  0  0  0  0  0  0  0  0  0  0  0
   -0.1441    1.7256   -0.8270 H   0  0  0  0  0  0  0  0  0  0  0  0
   -1.8899    0.9209   -1.7592 C   0  0  0  0  0  0  0  0  0  0  0  0
   -1.5169    0.1594   -2.8674 N   0  0  0  0  0  0  0  0  0  0  0  0
   -2.5787    0.1547   -3.6865 C   0  0  0  0  0  0  0  0  0  0  0  0
   -2.6091   -0.3438   -4.6472 H   0  0  0  0  0  0  0  0  0  0  0  0
   -3.5946    0.8451   -3.1419 N   0  0  0  0  0  0  0  0  0  0  0  0
   -4.5079    0.9694   -3.5569 H   0  0  0  0  0  0  0  0  0  0  0  0
   -3.1800    1.3333   -1.9228 C   0  0  0  0  0  0  0  0  0  0  0  0
   -3.7559    1.9124   -1.2119 H   0  0  0  0  0  0  0  0  0  0  0  0
   -0.0283    0.1609    1.5831 C   0  0  0  0  0  0  0  0  0  0  0  0
    1.1923    0.1056    1.7329 O   0  0  0  0  0  0  0  0  0  0  0  0
   -0.8586    0.4659    2.5853 N   0  0  0  0  0  0  0  0  0  0  0  0
   -1.8521    0.3848    2.4000 H   0  0  0  0  0  0  0  0  0  0  0  0
   -0.4403    0.7694    3.9518 C   0  0  0  0  0  0  0  0  0  0  0  0
    0.5066    1.3154    3.9421 H   0  0  0  0  0  0  0  0  0  0  0  0
   -1.1988    1.3789    4.4452 H   0  0  0  0  0  0  0  0  0  0  0  0
   -0.3053   -0.1600    4.5075 H   0  0  0  0  0  0  0  0  0  0  0  0
  5  6  2  0  0  0  0
  5  7  1  0  0  0  0
  2  3  1  0  0  0  0
  2  4  1  0  0  0  0
  2  5  1  0  0  0  0
  1  2  1  0  0  0  0
 22 23  2  0  0  0  0
 22 24  1  0  0  0  0
 20 21  1  0  0  0  0
 18 19  1  0  0  0  0
 18 20  1  0  0  0  0
 16 17  1  0  0  0  0
 16 18  1  0  0  0  0
 15 16  2  0  0  0  0
 14 15  1  0  0  0  0
 14 20  2  0  0  0  0
 11 12  1  0  0  0  0
 11 13  1  0  0  0  0
 11 14  1  0  0  0  0
  9 10  1  0  0  0  0
  9 11  1  0  0  0  0
  9 22  1  0  0  0  0
  7  8  1  0  0  0  0
  7  9  1  0  0  0  0
 26 27  1  0  0  0  0
 26 28  1  0  0  0  0
 26 29  1  0  0  0  0
 24 25  1  0  0  0  0
 24 26  1  0  0  0  0
M  END
$$$$
default_name
  -OEChem-02102213163D

 29 29  0     1  0  0  0  0  0999 V2000
   -2.9561   -3.9186    1.3887 H   0  0  0  0  0  0  0  0  0  0  0  0
   -3.1191   -2.9346    0.9517 C   0  0  0  0  0  0  0  0  0  0  0  0
   -3.7811   -2.3546    1.5917 H   0  0  0  0  0  0  0  0  0  0  0  0
   -3.5591   -3.0406   -0.0383 H   0  0  0  0  0  0  0  0  0  0  0  0
   -1.7921   -2.2226    0.8327 C   0  0  0  0  0  0  0  0  0  0  0  0
   -0.7611   -2.7766    1.1927 O   0  0  0  0  0  0  0  0  0  0  0  0
   -1.8201   -0.9926    0.3247 N   0  0  0  0  0  0  0  0  0  0  0  0
   -2.7141   -0.5816    0.0927 H   0  0  0  0  0  0  0  0  0  0  0  0
   -0.6481   -0.1156    0.2017 C   0  0  1  0  0  0  0  0  0  0  0  0
    0.1042   -0.6345   -0.3958 H   0  0  0  0  0  0  0  0  0  0  0  0
   -1.0420    1.1781   -0.5372 C   0  0  0  0  0  0  0  0  0  0  0  0
   -1.6188    1.8223    0.1280 H   0  0  0  0  0  0  0  0  0  0  0  0
   -0.1441    1.7256   -0.8270 H   0  0  0  0  0  0  0  0  0  0  0  0
   -1.8899    0.9209   -1.7592 C   0  0  0  0  0  0  0  0  0  0  0  0
   -1.6560   -0.0587   -2.7251 N   0  0  0  0  0  0  0  0  0  0  0  0
   -2.6706    0.0328   -3.5971 C   0  0  0  0  0  0  0  0  0  0  0  0
   -2.7789   -0.5870   -4.4782 H   0  0  0  0  0  0  0  0  0  0  0  0
   -3.5314    0.9918   -3.2166 N   0  0  0  0  0  0  0  0  0  0  0  0
   -4.3852    1.2380   -3.6986 H   0  0  0  0  0  0  0  0  0  0  0  0
   -3.0575    1.5612   -2.0557 C   0  0  0  0  0  0  0  0  0  0  0  0
   -3.5170    2.3467   -1.4690 H   0  0  0  0  0  0  0  0  0  0  0  0
   -0.0283    0.1609    1.5831 C   0  0  0  0  0  0  0  0  0  0  0  0
    1.1923    0.1056    1.7329 O   0  0  0  0  0  0  0  0  0  0  0  0
   -0.8586    0.4659    2.5853 N   0  0  0  0  0  0  0  0  0  0  0  0
   -1.8521    0.3848    2.4000 H   0  0  0  0  0  0  0  0  0  0  0  0
   -0.4403    0.7694    3.9518 C   0  0  0  0  0  0  0  0  0  0  0  0
    0.5066    1.3154    3.9421 H   0  0  0  0  0  0  0  0  0  0  0  0
   -1.1988    1.3789    4.4452 H   0  0  0  0  0  0  0  0  0  0  0  0
   -0.3053   -0.1600    4.5075 H   0  0  0  0  0  0  0  0  0  0  0  0
  5  6  2  0  0  0  0
  5  7  1  0  0  0  0
  2  3  1  0  0  0  0
  2  4  1  0  0  0  0
  2  5  1  0  0  0  0
  1  2  1  0  0  0  0
 22 23  2  0  0  0  0
 22 24  1  0  0  0  0
 20 21  1  0  0  0  0
 18 19  1  0  0  0  0
 18 20  1  0  0  0  0
 16 17  1  0  0  0  0
 16 18  1  0  0  0  0
 15 16  2  0  0  0  0
 14 15  1  0  0  0  0
 14 20  2  0  0  0  0
 11 12  1  0  0  0  0
 11 13  1  0  0  0  0
 11 14  1  0  0  0  0
  9 10  1  0  0  0  0
  9 11  1  0  0  0  0
  9 22  1  0  0  0  0
  7  8  1  0  0  0  0
  7  9  1  0  0  0  0
 26 27  1  0  0  0  0
 26 28  1  0  0  0  0
 26 29  1  0  0  0  0
 24 25  1  0  0  0  0
 24 26  1  0  0  0  0
M  END
$$$$
default_name
  -OEChem-02102213163D

 29 29  0     1  0  0  0  0  0999 V2000
   -2.9561   -3.9186    1.3887 H   0  0  0  0  0  0  0  0  0  0  0  0
   -3.1191   -2.9346    0.9517 C   0  0  0  0  0  0  0  0  0  0  0  0
   -3.7811   -2.3546    1.5917 H   0  0  0  0  0  0  0  0  0  0  0  0
   -3.5591   -3.0406   -0.0383 H   0  0  0  0  0  0  0  0  0  0  0  0
   -1.7921   -2.2226    0.8327 C   0  0  0  0  0  0  0  0  0  0  0  0
   -0.7611   -2.7766    1.1927 O   0  0  0  0  0  0  0  0  0  0  0  0
   -1.8201   -0.9926    0.3247 N   0  0  0  0  0  0  0  0  0  0  0  0
   -2.7141   -0.5816    0.0927 H   0  0  0  0  0  0  0  0  0  0  0  0
   -0.6481   -0.1156    0.2017 C   0  0  1  0  0  0  0  0  0  0  0  0
    0.1042   -0.6345   -0.3958 H   0  0  0  0  0  0  0  0  0  0  0  0
   -1.0420    1.1781   -0.5372 C   0  0  0  0  0  0  0  0  0  0  0  0
   -1.6188    1.8223    0.1280 H   0  0  0  0  0  0  0  0  0  0  0  0
   -0.1441    1.7256   -0.8270 H   0  0  0  0  0  0  0  0  0  0  0  0
   -1.8899    0.9209   -1.7592 C   0  0  0  0  0  0  0  0  0  0  0  0
   -1.8422   -0.2195   -2.5620 N   0  0  0  0  0  0  0  0  0  0  0  0
   -2.7888   -0.0526   -3.4971 C   0  0  0  0  0  0  0  0  0  0  0  0
   -3.0013   -0.7619   -4.2871 H   0  0  0  0  0  0  0  0  0  0  0  0
   -3.4364    1.1093   -3.3073 N   0  0  0  0  0  0  0  0  0  0  0  0
   -4.2040    1.4512   -3.8692 H   0  0  0  0  0  0  0  0  0  0  0  0
   -2.8855    1.7364   -2.2119 C   0  0  0  0  0  0  0  0  0  0  0  0
   -3.1840    2.6787   -1.7700 H   0  0  0  0  0  0  0  0  0  0  0  0
   -0.0283    0.1609    1.5831 C   0  0  0  0  0  0  0  0  0  0  0  0
    1.1923    0.1056    1.7329 O   0  0  0  0  0  0  0  0  0  0  0  0
   -0.8586    0.4659    2.5853 N   0  0  0  0  0  0  0  0  0  0  0  0
   -1.8521    0.3848    2.4000 H   0  0  0  0  0  0  0  0  0  0  0  0
   -0.4403    0.7694    3.9518 C   0  0  0  0  0  0  0  0  0  0  0  0
    0.5066    1.3154    3.9421 H   0  0  0  0  0  0  0  0  0  0  0  0
   -1.1988    1.3789    4.4452 H   0  0  0  0  0  0  0  0  0  0  0  0
   -0.3053   -0.1600    4.5075 H   0  0  0  0  0  0  0  0  0  0  0  0
  5  6  2  0  0  0  0
  5  7  1  0  0  0  0
  2  3  1  0  0  0  0
  2  4  1  0  0  0  0
  2  5  1  0  0  0  0
  1  2  1  0  0  0  0
 22 23  2  0  0  0  0
 22 24  1  0  0  0  0
 20 21  1  0  0  0  0
 18 19  1  0  0  0  0
 18 20  1  0  0  0  0
 16 17  1  0  0  0  0
 16 18  1  0  0  0  0
 15 16  2  0  0  0  0
 14 15  1  0  0  0  0
 14 20  2  0  0  0  0
 11 12  1  0  0  0  0
 11 13  1  0  0  0  0
 11 14  1  0  0  0  0
  9 10  1  0  0  0  0
  9 11  1  0  0  0  0
  9 22  1  0  0  0  0
  7  8  1  0  0  0  0
  7  9  1  0  0  0  0
 26 27  1  0  0  0  0
 26 28  1  0  0  0  0
 26 29  1  0  0  0  0
 24 25  1  0  0  0  0
 24 26  1  0  0  0  0
M  END
$$$$
default_name
  -OEChem-02102213163D

 29 29  0     1  0  0  0  0  0999 V2000
   -2.9561   -3.9186    1.3887 H   0  0  0  0  0  0  0  0  0  0  0  0
   -3.1191   -2.9346    0.9517 C   0  0  0  0  0  0  0  0  0  0  0  0
   -3.7811   -2.3546    1.5917 H   0  0  0  0  0  0  0  0  0  0  0  0
   -3.5591   -3.0406   -0.0383 H   0  0  0  0  0  0  0  0  0  0  0  0
   -1.7921   -2.2226    0.8327 C   0  0  0  0  0  0  0  0  0  0  0  0
   -0.7611   -2.7766    1.1927 O   0  0  0  0  0  0  0  0  0  0  0  0
   -1.8201   -0.9926    0.3247 N   0  0  0  0  0  0  0  0  0  0  0  0
   -2.7141   -0.5816    0.0927 H   0  0  0  0  0  0  0  0  0  0  0  0
   -0.6481   -0.1156    0.2017 C   0  0  1  0  0  0  0  0  0  0  0  0
    0.1042   -0.6345   -0.3958 H   0  0  0  0  0  0  0  0  0  0  0  0
   -1.0420    1.1781   -0.5372 C   0  0  0  0  0  0  0  0  0  0  0  0
   -1.6188    1.8223    0.1280 H   0  0  0  0  0  0  0  0  0  0  0  0
   -0.1441    1.7256   -0.8270 H   0  0  0  0  0  0  0  0  0  0  0  0
   -1.8899    0.9209   -1.7592 C   0  0  0  0  0  0  0  0  0  0  0  0
   -2.0631   -0.3121   -2.3892 N   0  0  0  0  0  0  0  0  0  0  0  0
   -2.9253   -0.0958   -3.3933 C   0  0  0  0  0  0  0  0  0  0  0  0
   -3.2611   -0.8564   -4.0869 H   0  0  0  0  0  0  0  0  0  0  0  0
   -3.3159    1.1897   -3.4078 N   0  0  0  0  0  0  0  0  0  0  0  0
   -3.9768    1.5943   -4.0569 H   0  0  0  0  0  0  0  0  0  0  0  0
   -2.6758    1.8468   -2.3807 C   0  0  0  0  0  0  0  0  0  0  0  0
   -2.7795    2.8858   -2.0943 H   0  0  0  0  0  0  0  0  0  0  0  0
   -0.0283    0.1609    1.5831 C   0  0  0  0  0  0  0  0  0  0  0  0
    1.1923    0.1056    1.7329 O   0  0  0  0  0  0  0  0  0  0  0  0
   -0.8586    0.4659    2.5853 N   0  0  0  0  0  0  0  0  0  0  0  0
   -1.8521    0.3848    2.4000 H   0  0  0  0  0  0  0  0  0  0  0  0
   -0.4403    0.7694    3.9518 C   0  0  0  0  0  0  0  0  0  0  0  0
    0.5066    1.3154    3.9421 H   0  0  0  0  0  0  0  0  0  0  0  0
   -1.1988    1.3789    4.4452 H   0  0  0  0  0  0  0  0  0  0  0  0
   -0.3053   -0.1600    4.5075 H   0  0  0  0  0  0  0  0  0  0  0  0
  5  6  2  0  0  0  0
  5  7  1  0  0  0  0
  2  3  1  0  0  0  0
  2  4  1  0  0  0  0
  2  5  1  0  0  0  0
  1  2  1  0  0  0  0
 22 23  2  0  0  0  0
 22 24  1  0  0  0  0
 20 21  1  0  0  0  0
 18 19  1  0  0  0  0
 18 20  1  0  0  0  0
 16 17  1  0  0  0  0
 16 18  1  0  0  0  0
 15 16  2  0  0  0  0
 14 15  1  0  0  0  0
 14 20  2  0  0  0  0
 11 12  1  0  0  0  0
 11 13  1  0  0  0  0
 11 14  1  0  0  0  0
  9 10  1  0  0  0  0
  9 11  1  0  0  0  0
  9 22  1  0  0  0  0
  7  8  1  0  0  0  0
  7  9  1  0  0  0  0
 26 27  1  0  0  0  0
 26 28  1  0  0  0  0
 26 29  1  0  0  0  0
 24 25  1  0  0  0  0
 24 26  1  0  0  0  0
M  END
$$$$
default_name
  -OEChem-02102213163D

 29 29  0     1  0  0  0  0  0999 V2000
   -2.9561   -3.9186    1.3887 H   0  0  0  0  0  0  0  0  0  0  0  0
   -3.1191   -2.9346    0.9517 C   0  0  0  0  0  0  0  0  0  0  0  0
   -3.7811   -2.3546    1.5917 H   0  0  0  0  0  0  0  0  0  0  0  0
   -3.5591   -3.0406   -0.0383 H   0  0  0  0  0  0  0  0  0  0  0  0
   -1.7921   -2.2226    0.8327 C   0  0  0  0  0  0  0  0  0  0  0  0
   -0.7611   -2.7766    1.1927 O   0  0  0  0  0  0  0  0  0  0  0  0
   -1.8201   -0.9926    0.3247 N   0  0  0  0  0  0  0  0  0  0  0  0
   -2.7141   -0.5816    0.0927 H   0  0  0  0  0  0  0  0  0  0  0  0
   -0.6481   -0.1156    0.2017 C   0  0  1  0  0  0  0  0  0  0  0  0
    0.1042   -0.6345   -0.3958 H   0  0  0  0  0  0  0  0  0  0  0  0
   -1.0420    1.1781   -0.5372 C   0  0  0  0  0  0  0  0  0  0  0  0
   -1.6188    1.8223    0.1280 H   0  0  0  0  0  0  0  0  0  0  0  0
   -0.1441    1.7256   -0.8270 H   0  0  0  0  0  0  0  0  0  0  0  0
   -1.8899    0.9209   -1.7592 C   0  0  0  0  0  0  0  0  0  0  0  0
   -2.3034   -0.3301   -2.2187 N   0  0  0  0  0  0  0  0  0  0  0  0
   -3.0707   -0.0939   -3.2928 C   0  0  0  0  0  0  0  0  0  0  0  0
   -3.5408   -0.8641   -3.8912 H   0  0  0  0  0  0  0  0  0  0  0  0
   -3.1783    1.2275   -3.5112 N   0  0  0  0  0  0  0  0  0  0  0  0
   -3.7192    1.6576   -4.2490 H   0  0  0  0  0  0  0  0  0  0  0  0
   -2.4427    1.8850   -2.5505 C   0  0  0  0  0  0  0  0  0  0  0  0
   -2.3310    2.9540   -2.4198 H   0  0  0  0  0  0  0  0  0  0  0  0
   -0.0283    0.1609    1.5831 C   0  0  0  0  0  0  0  0  0  0  0  0
    1.1923    0.1056    1.7329 O   0  0  0  0  0  0  0  0  0  0  0  0
   -0.8586    0.4659    2.5853 N   0  0  0  0  0  0  0  0  0  0  0  0
   -1.8521    0.3848    2.4000 H   0  0  0  0  0  0  0  0  0  0  0  0
   -0.4403    0.7694    3.9518 C   0  0  0  0  0  0  0  0  0  0  0  0
    0.5066    1.3154    3.9421 H   0  0  0  0  0  0  0  0  0  0  0  0
   -1.1988    1.3789    4.4452 H   0  0  0  0  0  0  0  0  0  0  0  0
   -0.3053   -0.1600    4.5075 H   0  0  0  0  0  0  0  0  0  0  0  0
  5  6  2  0  0  0  0
  5  7  1  0  0  0  0
  2  3  1  0  0  0  0
  2  4  1  0  0  0  0
  2  5  1  0  0  0  0
  1  2  1  0  0  0  0
 22 23  2  0  0  0  0
 22 24  1  0  0  0  0
 20 21  1  0  0  0  0
 18 19  1  0  0  0  0
 18 20  1  0  0  0  0
 16 17  1  0  0  0  0
 16 18  1  0  0  0  0
 15 16  2  0  0  0  0
 14 15  1  0  0  0  0
 14 20  2  0  0  0  0
 11 12  1  0  0  0  0
 11 13  1  0  0  0  0
 11 14  1  0  0  0  0
  9 10  1  0  0  0  0
  9 11  1  0  0  0  0
  9 22  1  0  0  0  0
  7  8  1  0  0  0  0
  7  9  1  0  0  0  0
 26 27  1  0  0  0  0
 26 28  1  0  0  0  0
 26 29  1  0  0  0  0
 24 25  1  0  0  0  0
 24 26  1  0  0  0  0
M  END
$$$$
default_name
  -OEChem-02102213163D

 29 29  0     1  0  0  0  0  0999 V2000
   -2.9561   -3.9186    1.3887 H   0  0  0  0  0  0  0  0  0  0  0  0
   -3.1191   -2.9346    0.9517 C   0  0  0  0  0  0  0  0  0  0  0  0
   -3.7811   -2.3546    1.5917 H   0  0  0  0  0  0  0  0  0  0  0  0
   -3.5591   -3.0406   -0.0383 H   0  0  0  0  0  0  0  0  0  0  0  0
   -1.7921   -2.2226    0.8327 C   0  0  0  0  0  0  0  0  0  0  0  0
   -0.7611   -2.7766    1.1927 O   0  0  0  0  0  0  0  0  0  0  0  0
   -1.8201   -0.9926    0.3247 N   0  0  0  0  0  0  0  0  0  0  0  0
   -2.7141   -0.5816    0.0927 H   0  0  0  0  0  0  0  0  0  0  0  0
   -0.6481   -0.1156    0.2017 C   0  0  1  0  0  0  0  0  0  0  0  0
    0.1042   -0.6345   -0.3958 H   0  0  0  0  0  0  0  0  0  0  0  0
   -1.0420    1.1781   -0.5372 C   0  0  0  0  0  0  0  0  0  0  0  0
   -1.6188    1.8223    0.1280 H   0  0  0  0  0  0  0  0  0  0  0  0
   -0.1441    1.7256   -0.8270 H   0  0  0  0  0  0  0  0  0  0  0  0
   -1.8899    0.9209   -1.7592 C   0  0  0  0  0  0  0  0  0  0  0  0
   -2.5468   -0.2724   -2.0619 N   0  0  0  0  0  0  0  0  0  0  0  0
   -3.2153   -0.0469   -3.2024 C   0  0  0  0  0  0  0  0  0  0  0  0
   -3.8211   -0.7845   -3.7135 H   0  0  0  0  0  0  0  0  0  0  0  0
   -3.0329    1.2202   -3.6106 N   0  0  0  0  0  0  0  0  0  0  0  0
   -3.4485    1.6369   -4.4325 H   0  0  0  0  0  0  0  0  0  0  0  0
   -2.2020    1.8484   -2.7098 C   0  0  0  0  0  0  0  0  0  0  0  0
   -1.8692    2.8786   -2.7244 H   0  0  0  0  0  0  0  0  0  0  0  0
   -0.0283    0.1609    1.5831 C   0  0  0  0  0  0  0  0  0  0  0  0
    1.1923    0.1056    1.7329 O   0  0  0  0  0  0  0  0  0  0  0  0
   -0.8586    0.4659    2.5853 N   0  0  0  0  0  0  0  0  0  0  0  0
   -1.8521    0.3848    2.4000 H   0  0  0  0  0  0  0  0  0  0  0  0
   -0.4403    0.7694    3.9518 C   0  0  0  0  0  0  0  0  0  0  0  0
    0.5066    1.3154    3.9421 H   0  0  0  0  0  0  0  0  0  0  0  0
   -1.1988    1.3789    4.4452 H   0  0  0  0  0  0  0  0  0  0  0  0
   -0.3053   -0.1600    4.5075 H   0  0  0  0  0  0  0  0  0  0  0  0
  5  6  2  0  0  0  0
  5  7  1  0  0  0  0
  2  3  1  0  0  0  0
  2  4  1  0  0  0  0
  2  5  1  0  0  0  0
  1  2  1  0  0  0  0
 22 23  2  0  0  0  0
 22 24  1  0  0  0  0
 20 21  1  0  0  0  0
 18 19  1  0  0  0  0
 18 20  1  0  0  0  0
 16 17  1  0  0  0  0
 16 18  1  0  0  0  0
 15 16  2  0  0  0  0
 14 15  1  0  0  0  0
 14 20  2  0  0  0  0
 11 12  1  0  0  0  0
 11 13  1  0  0  0  0
 11 14  1  0  0  0  0
  9 10  1  0  0  0  0
  9 11  1  0  0  0  0
  9 22  1  0  0  0  0
  7  8  1  0  0  0  0
  7  9  1  0  0  0  0
 26 27  1  0  0  0  0
 26 28  1  0  0  0  0
 26 29  1  0  0  0  0
 24 25  1  0  0  0  0
 24 26  1  0  0  0  0
M  END
$$$$
default_name
  -OEChem-02102213163D

 29 29  0     1  0  0  0  0  0999 V2000
   -2.9561   -3.9186    1.3887 H   0  0  0  0  0  0  0  0  0  0  0  0
   -3.1191   -2.9346    0.9517 C   0  0  0  0  0  0  0  0  0  0  0  0
   -3.7811   -2.3546    1.5917 H   0  0  0  0  0  0  0  0  0  0  0  0
   -3.5591   -3.0406   -0.0383 H   0  0  0  0  0  0  0  0  0  0  0  0
   -1.7921   -2.2226    0.8327 C   0  0  0  0  0  0  0  0  0  0  0  0
   -0.7611   -2.7766    1.1927 O   0  0  0  0  0  0  0  0  0  0  0  0
   -1.8201   -0.9926    0.3247 N   0  0  0  0  0  0  0  0  0  0  0  0
   -2.7141   -0.5816    0.0927 H   0  0  0  0  0  0  0  0  0  0  0  0
   -0.6481   -0.1156    0.2017 C   0  0  1  0  0  0  0  0  0  0  0  0
    0.1042   -0.6345   -0.3958 H   0  0  0  0  0  0  0  0  0  0  0  0
   -1.0420    1.1781   -0.5372 C   0  0  0  0  0  0  0  0  0  0  0  0
   -1.6188    1.8223    0.1280 H   0  0  0  0  0  0  0  0  0  0  0  0
   -0.1441    1.7256   -0.8270 H   0  0  0  0  0  0  0  0  0  0  0  0
   -1.8899    0.9209   -1.7592 C   0  0  0  0  0  0  0  0  0  0  0  0
   -2.7768   -0.1429   -1.9296 N   0  0  0  0  0  0  0  0  0  0  0  0
   -3.3490    0.0419   -3.1283 C   0  0  0  0  0  0  0  0  0  0  0  0
   -4.0831   -0.6230   -3.5657 H   0  0  0  0  0  0  0  0  0  0  0  0
   -2.8896    1.1682   -3.6991 N   0  0  0  0  0  0  0  0  0  0  0  0
   -3.1833    1.5335   -4.5947 H   0  0  0  0  0  0  0  0  0  0  0  0
   -1.9702    1.7394   -2.8477 C   0  0  0  0  0  0  0  0  0  0  0  0
   -1.4255    2.6647   -2.9872 H   0  0  0  0  0  0  0  0  0  0  0  0
   -0.0283    0.1609    1.5831 C   0  0  0  0  0  0  0  0  0  0  0  0
    1.1923    0.1056    1.7329 O   0  0  0  0  0  0  0  0  0  0  0  0
   -0.8586    0.4659    2.5853 N   0  0  0  0  0  0  0  0  0  0  0  0
   -1.8521    0.3848    2.4000 H   0  0  0  0  0  0  0  0  0  0  0  0
   -0.4403    0.7694    3.9518 C   0  0  0  0  0  0  0  0  0  0  0  0
    0.5066    1.3154    3.9421 H   0  0  0  0  0  0  0  0  0  0  0  0
   -1.1988    1.3789    4.4452 H   0  0  0  0  0  0  0  0  0  0  0  0
   -0.3053   -0.1600    4.5075 H   0  0  0  0  0  0  0  0  0  0  0  0
  5  6  2  0  0  0  0
  5  7  1  0  0  0  0
  2  3  1  0  0  0  0
  2  4  1  0  0  0  0
  2  5  1  0  0  0  0
  1  2  1  0  0  0  0
 22 23  2  0  0  0  0
 22 24  1  0  0  0  0
 20 21  1  0  0  0  0
 18 19  1  0  0  0  0
 18 20  1  0  0  0  0
 16 17  1  0  0  0  0
 16 18  1  0  0  0  0
 15 16  2  0  0  0  0
 14 15  1  0  0  0  0
 14 20  2  0  0  0  0
 11 12  1  0  0  0  0
 11 13  1  0  0  0  0
 11 14  1  0  0  0  0
  9 10  1  0  0  0  0
  9 11  1  0  0  0  0
  9 22  1  0  0  0  0
  7  8  1  0  0  0  0
  7  9  1  0  0  0  0
 26 27  1  0  0  0  0
 26 28  1  0  0  0  0
 26 29  1  0  0  0  0
 24 25  1  0  0  0  0
 24 26  1  0  0  0  0
M  END
$$$$
default_name
  -OEChem-02102213163D

 29 29  0     1  0  0  0  0  0999 V2000
   -2.9561   -3.9186    1.3887 H   0  0  0  0  0  0  0  0  0  0  0  0
   -3.1191   -2.9346    0.9517 C   0  0  0  0  0  0  0  0  0  0  0  0
   -3.7811   -2.3546    1.5917 H   0  0  0  0  0  0  0  0  0  0  0  0
   -3.5591   -3.0406   -0.0383 H   0  0  0  0  0  0  0  0  0  0  0  0
   -1.7921   -2.2226    0.8327 C   0  0  0  0  0  0  0  0  0  0  0  0
   -0.7611   -2.7766    1.1927 O   0  0  0  0  0  0  0  0  0  0  0  0
   -1.8201   -0.9926    0.3247 N   0  0  0  0  0  0  0  0  0  0  0  0
   -2.7141   -0.5816    0.0927 H   0  0  0  0  0  0  0  0  0  0  0  0
   -0.6481   -0.1156    0.2017 C   0  0  1  0  0  0  0  0  0  0  0  0
    0.1042   -0.6345   -0.3958 H   0  0  0  0  0  0  0  0  0  0  0  0
   -1.0420    1.1781   -0.5372 C   0  0  0  0  0  0  0  0  0  0  0  0
   -1.6188    1.8223    0.1280 H   0  0  0  0  0  0  0  0  0  0  0  0
   -0.1441    1.7256   -0.8270 H   0  0  0  0  0  0  0  0  0  0  0  0
   -1.8899    0.9209   -1.7592 C   0  0  0  0  0  0  0  0  0  0  0  0
   -2.9776    0.0497   -1.8308 N   0  0  0  0  0  0  0  0  0  0  0  0
   -3.4629    0.1665   -3.0755 C   0  0  0  0  0  0  0  0  0  0  0  0
   -4.3088   -0.3907   -3.4579 H   0  0  0  0  0  0  0  0  0  0  0  0
   -2.7582    1.0751   -3.7706 N   0  0  0  0  0  0  0  0  0  0  0  0
   -2.9417    1.3544   -4.7247 H   0  0  0  0  0  0  0  0  0  0  0  0
   -1.7630    1.5655   -2.9548 C   0  0  0  0  0  0  0  0  0  0  0  0
   -1.0301    2.3269   -3.1905 H   0  0  0  0  0  0  0  0  0  0  0  0
   -0.0283    0.1609    1.5831 C   0  0  0  0  0  0  0  0  0  0  0  0
    1.1923    0.1056    1.7329 O   0  0  0  0  0  0  0  0  0  0  0  0
   -0.8586    0.4659    2.5853 N   0  0  0  0  0  0  0  0  0  0  0  0
   -1.8521    0.3848    2.4000 H   0  0  0  0  0  0  0  0  0  0  0  0
   -0.4403    0.7694    3.9518 C   0  0  0  0  0  0  0  0  0  0  0  0
    0.5066    1.3154    3.9421 H   0  0  0  0  0  0  0  0  0  0  0  0
   -1.1988    1.3789    4.4452 H   0  0  0  0  0  0  0  0  0  0  0  0
   -0.3053   -0.1600    4.5075 H   0  0  0  0  0  0  0  0  0  0  0  0
  5  6  2  0  0  0  0
  5  7  1  0  0  0  0
  2  3  1  0  0  0  0
  2  4  1  0  0  0  0
  2  5  1  0  0  0  0
  1  2  1  0  0  0  0
 22 23  2  0  0  0  0
 22 24  1  0  0  0  0
 20 21  1  0  0  0  0
 18 19  1  0  0  0  0
 18 20  1  0  0  0  0
 16 17  1  0  0  0  0
 16 18  1  0  0  0  0
 15 16  2  0  0  0  0
 14 15  1  0  0  0  0
 14 20  2  0  0  0  0
 11 12  1  0  0  0  0
 11 13  1  0  0  0  0
 11 14  1  0  0  0  0
  9 10  1  0  0  0  0
  9 11  1  0  0  0  0
  9 22  1  0  0  0  0
  7  8  1  0  0  0  0
  7  9  1  0  0  0  0
 26 27  1  0  0  0  0
 26 28  1  0  0  0  0
 26 29  1  0  0  0  0
 24 25  1  0  0  0  0
 24 26  1  0  0  0  0
M  END
$$$$
default_name
  -OEChem-02102213163D

 29 29  0     1  0  0  0  0  0999 V2000
   -2.9561   -3.9186    1.3887 H   0  0  0  0  0  0  0  0  0  0  0  0
   -3.1191   -2.9346    0.9517 C   0  0  0  0  0  0  0  0  0  0  0  0
   -3.7811   -2.3546    1.5917 H   0  0  0  0  0  0  0  0  0  0  0  0
   -3.5591   -3.0406   -0.0383 H   0  0  0  0  0  0  0  0  0  0  0  0
   -1.7921   -2.2226    0.8327 C   0  0  0  0  0  0  0  0  0  0  0  0
   -0.7611   -2.7766    1.1927 O   0  0  0  0  0  0  0  0  0  0  0  0
   -1.8201   -0.9926    0.3247 N   0  0  0  0  0  0  0  0  0  0  0  0
   -2.7141   -0.5816    0.0927 H   0  0  0  0  0  0  0  0  0  0  0  0
   -0.6481   -0.1156    0.2017 C   0  0  1  0  0  0  0  0  0  0  0  0
    0.1042   -0.6345   -0.3958 H   0  0  0  0  0  0  0  0  0  0  0  0
   -1.0420    1.1781   -0.5372 C   0  0  0  0  0  0  0  0  0  0  0  0
   -1.6188    1.8223    0.1280 H   0  0  0  0  0  0  0  0  0  0  0  0
   -0.1441    1.7256   -0.8270 H   0  0  0  0  0  0  0  0  0  0  0  0
   -1.8899    0.9209   -1.7592 C   0  0  0  0  0  0  0  0  0  0  0  0
   -3.1356    0.2921   -1.7722 N   0  0  0  0  0  0  0  0  0  0  0  0
   -3.5491    0.3183   -3.0476 C   0  0  0  0  0  0  0  0  0  0  0  0
   -4.4829   -0.1033   -3.3976 H   0  0  0  0  0  0  0  0  0  0  0  0
   -2.6476    0.9472   -3.8205 N   0  0  0  0  0  0  0  0  0  0  0  0
   -2.7401    1.1120   -4.8135 H   0  0  0  0  0  0  0  0  0  0  0  0
   -1.5946    1.3386   -3.0239 C   0  0  0  0  0  0  0  0  0  0  0  0
   -0.7100    1.8882   -3.3202 H   0  0  0  0  0  0  0  0  0  0  0  0
   -0.0283    0.1609    1.5831 C   0  0  0  0  0  0  0  0  0  0  0  0
    1.1923    0.1056    1.7329 O   0  0  0  0  0  0  0  0  0  0  0  0
   -0.8586    0.4659    2.5853 N   0  0  0  0  0  0  0  0  0  0  0  0
   -1.8521    0.3848    2.4000 H   0  0  0  0  0  0  0  0  0  0  0  0
   -0.4403    0.7694    3.9518 C   0  0  0  0  0  0  0  0  0  0  0  0
    0.5066    1.3154    3.9421 H   0  0  0  0  0  0  0  0  0  0  0  0
   -1.1988    1.3789    4.4452 H   0  0  0  0  0  0  0  0  0  0  0  0
   -0.3053   -0.1600    4.5075 H   0  0  0  0  0  0  0  0  0  0  0  0
  5  6  2  0  0  0  0
  5  7  1  0  0  0  0
  2  3  1  0  0  0  0
  2  4  1  0  0  0  0
  2  5  1  0  0  0  0
  1  2  1  0  0  0  0
 22 23  2  0  0  0  0
 22 24  1  0  0  0  0
 20 21  1  0  0  0  0
 18 19  1  0  0  0  0
 18 20  1  0  0  0  0
 16 17  1  0  0  0  0
 16 18  1  0  0  0  0
 15 16  2  0  0  0  0
 14 15  1  0  0  0  0
 14 20  2  0  0  0  0
 11 12  1  0  0  0  0
 11 13  1  0  0  0  0
 11 14  1  0  0  0  0
  9 10  1  0  0  0  0
  9 11  1  0  0  0  0
  9 22  1  0  0  0  0
  7  8  1  0  0  0  0
  7  9  1  0  0  0  0
 26 27  1  0  0  0  0
 26 28  1  0  0  0  0
 26 29  1  0  0  0  0
 24 25  1  0  0  0  0
 24 26  1  0  0  0  0
M  END
$$$$
default_name
  -OEChem-02102213163D

 29 29  0     1  0  0  0  0  0999 V2000
   -2.9561   -3.9186    1.3887 H   0  0  0  0  0  0  0  0  0  0  0  0
   -3.1191   -2.9346    0.9517 C   0  0  0  0  0  0  0  0  0  0  0  0
   -3.7811   -2.3546    1.5917 H   0  0  0  0  0  0  0  0  0  0  0  0
   -3.5591   -3.0406   -0.0383 H   0  0  0  0  0  0  0  0  0  0  0  0
   -1.7921   -2.2226    0.8327 C   0  0  0  0  0  0  0  0  0  0  0  0
   -0.7611   -2.7766    1.1927 O   0  0  0  0  0  0  0  0  0  0  0  0
   -1.8201   -0.9926    0.3247 N   0  0  0  0  0  0  0  0  0  0  0  0
   -2.7141   -0.5816    0.0927 H   0  0  0  0  0  0  0  0  0  0  0  0
   -0.6481   -0.1156    0.2017 C   0  0  1  0  0  0  0  0  0  0  0  0
    0.1042   -0.6345   -0.3958 H   0  0  0  0  0  0  0  0  0  0  0  0
   -1.0420    1.1781   -0.5372 C   0  0  0  0  0  0  0  0  0  0  0  0
   -1.6188    1.8223    0.1280 H   0  0  0  0  0  0  0  0  0  0  0  0
   -0.1441    1.7256   -0.8270 H   0  0  0  0  0  0  0  0  0  0  0  0
   -1.8899    0.9209   -1.7592 C   0  0  0  0  0  0  0  0  0  0  0  0
   -3.2400    0.5679   -1.7579 N   0  0  0  0  0  0  0  0  0  0  0  0
   -3.6018    0.4871   -3.0466 C   0  0  0  0  0  0  0  0  0  0  0  0
   -4.5935    0.2195   -3.3888 H   0  0  0  0  0  0  0  0  0  0  0  0
   -2.5654    0.7932   -3.8451 N   0  0  0  0  0  0  0  0  0  0  0  0
   -2.5923    0.8226   -4.8552 H   0  0  0  0  0  0  0  0  0  0  0  0
   -1.4764    1.0740   -3.0502 C   0  0  0  0  0  0  0  0  0  0  0  0
   -0.4871    1.3786   -3.3677 H   0  0  0  0  0  0  0  0  0  0  0  0
   -0.0283    0.1609    1.5831 C   0  0  0  0  0  0  0  0  0  0  0  0
    1.1923    0.1056    1.7329 O   0  0  0  0  0  0  0  0  0  0  0  0
   -0.8586    0.4659    2.5853 N   0  0  0  0  0  0  0  0  0  0  0  0
   -1.8521    0.3848    2.4000 H   0  0  0  0  0  0  0  0  0  0  0  0
   -0.4403    0.7694    3.9518 C   0  0  0  0  0  0  0  0  0  0  0  0
    0.5066    1.3154    3.9421 H   0  0  0  0  0  0  0  0  0  0  0  0
   -1.1988    1.3789    4.4452 H   0  0  0  0  0  0  0  0  0  0  0  0
   -0.3053   -0.1600    4.5075 H   0  0  0  0  0  0  0  0  0  0  0  0
  5  6  2  0  0  0  0
  5  7  1  0  0  0  0
  2  3  1  0  0  0  0
  2  4  1  0  0  0  0
  2  5  1  0  0  0  0
  1  2  1  0  0  0  0
 22 23  2  0  0  0  0
 22 24  1  0  0  0  0
 20 21  1  0  0  0  0
 18 19  1  0  0  0  0
 18 20  1  0  0  0  0
 16 17  1  0  0  0  0
 16 18  1  0  0  0  0
 15 16  2  0  0  0  0
 14 15  1  0  0  0  0
 14 20  2  0  0  0  0
 11 12  1  0  0  0  0
 11 13  1  0  0  0  0
 11 14  1  0  0  0  0
  9 10  1  0  0  0  0
  9 11  1  0  0  0  0
  9 22  1  0  0  0  0
  7  8  1  0  0  0  0
  7  9  1  0  0  0  0
 26 27  1  0  0  0  0
 26 28  1  0  0  0  0
 26 29  1  0  0  0  0
 24 25  1  0  0  0  0
 24 26  1  0  0  0  0
M  END
$$$$
default_name
  -OEChem-02102213163D

 29 29  0     1  0  0  0  0  0999 V2000
   -2.9561   -3.9186    1.3887 H   0  0  0  0  0  0  0  0  0  0  0  0
   -3.1191   -2.9346    0.9517 C   0  0  0  0  0  0  0  0  0  0  0  0
   -3.7811   -2.3546    1.5917 H   0  0  0  0  0  0  0  0  0  0  0  0
   -3.5591   -3.0406   -0.0383 H   0  0  0  0  0  0  0  0  0  0  0  0
   -1.7921   -2.2226    0.8327 C   0  0  0  0  0  0  0  0  0  0  0  0
   -0.7611   -2.7766    1.1927 O   0  0  0  0  0  0  0  0  0  0  0  0
   -1.8201   -0.9926    0.3247 N   0  0  0  0  0  0  0  0  0  0  0  0
   -2.7141   -0.5816    0.0927 H   0  0  0  0  0  0  0  0  0  0  0  0
   -0.6481   -0.1156    0.2017 C   0  0  1  0  0  0  0  0  0  0  0  0
    0.1042   -0.6345   -0.3958 H   0  0  0  0  0  0  0  0  0  0  0  0
   -1.0420    1.1781   -0.5372 C   0  0  0  0  0  0  0  0  0  0  0  0
   -1.6188    1.8223    0.1280 H   0  0  0  0  0  0  0  0  0  0  0  0
   -0.1441    1.7256   -0.8270 H   0  0  0  0  0  0  0  0  0  0  0  0
   -1.8899    0.9209   -1.7592 C   0  0  0  0  0  0  0  0  0  0  0  0
   -3.2836    0.8583   -1.7887 N   0  0  0  0  0  0  0  0  0  0  0  0
   -3.6173    0.6614   -3.0725 C   0  0  0  0  0  0  0  0  0  0  0  0
   -4.6331    0.5558   -3.4322 H   0  0  0  0  0  0  0  0  0  0  0  0
   -2.5172    0.6237   -3.8429 N   0  0  0  0  0  0  0  0  0  0  0  0
   -2.5083    0.5061   -4.8469 H   0  0  0  0  0  0  0  0  0  0  0  0
   -1.4166    0.7899   -3.0320 C   0  0  0  0  0  0  0  0  0  0  0  0
   -0.3764    0.8326   -3.3296 H   0  0  0  0  0  0  0  0  0  0  0  0
   -0.0283    0.1609    1.5831 C   0  0  0  0  0  0  0  0  0  0  0  0
    1.1923    0.1056    1.7329 O   0  0  0  0  0  0  0  0  0  0  0  0
   -0.8586    0.4659    2.5853 N   0  0  0  0  0  0  0  0  0  0  0  0
   -1.8521    0.3848    2.4000 H   0  0  0  0  0  0  0  0  0  0  0  0
   -0.4403    0.7694    3.9518 C   0  0  0  0  0  0  0  0  0  0  0  0
    0.5066    1.3154    3.9421 H   0  0  0  0  0  0  0  0  0  0  0  0
   -1.1988    1.3789    4.4452 H   0  0  0  0  0  0  0  0  0  0  0  0
   -0.3053   -0.1600    4.5075 H   0  0  0  0  0  0  0  0  0  0  0  0
  5  6  2  0  0  0  0
  5  7  1  0  0  0  0
  2  3  1  0  0  0  0
  2  4  1  0  0  0  0
  2  5  1  0  0  0  0
  1  2  1  0  0  0  0
 22 23  2  0  0  0  0
 22 24  1  0  0  0  0
 20 21  1  0  0  0  0
 18 19  1  0  0  0  0
 18 20  1  0  0  0  0
 16 17  1  0  0  0  0
 16 18  1  0  0  0  0
 15 16  2  0  0  0  0
 14 15  1  0  0  0  0
 14 20  2  0  0  0  0
 11 12  1  0  0  0  0
 11 13  1  0  0  0  0
 11 14  1  0  0  0  0
  9 10  1  0  0  0  0
  9 11  1  0  0  0  0
  9 22  1  0  0  0  0
  7  8  1  0  0  0  0
  7  9  1  0  0  0  0
 26 27  1  0  0  0  0
 26 28  1  0  0  0  0
 26 29  1  0  0  0  0
 24 25  1  0  0  0  0
 24 26  1  0  0  0  0
M  END
$$$$
default_name
  -OEChem-02102213163D

 29 29  0     1  0  0  0  0  0999 V2000
   -2.9561   -3.9186    1.3887 H   0  0  0  0  0  0  0  0  0  0  0  0
   -3.1191   -2.9346    0.9517 C   0  0  0  0  0  0  0  0  0  0  0  0
   -3.7811   -2.3546    1.5917 H   0  0  0  0  0  0  0  0  0  0  0  0
   -3.5591   -3.0406   -0.0383 H   0  0  0  0  0  0  0  0  0  0  0  0
   -1.7921   -2.2226    0.8327 C   0  0  0  0  0  0  0  0  0  0  0  0
   -0.7611   -2.7766    1.1927 O   0  0  0  0  0  0  0  0  0  0  0  0
   -1.8201   -0.9926    0.3247 N   0  0  0  0  0  0  0  0  0  0  0  0
   -2.7141   -0.5816    0.0927 H   0  0  0  0  0  0  0  0  0  0  0  0
   -0.6481   -0.1156    0.2017 C   0  0  1  0  0  0  0  0  0  0  0  0
    0.1042   -0.6345   -0.3958 H   0  0  0  0  0  0  0  0  0  0  0  0
   -1.0420    1.1781   -0.5372 C   0  0  0  0  0  0  0  0  0  0  0  0
   -1.6188    1.8223    0.1280 H   0  0  0  0  0  0  0  0  0  0  0  0
   -0.1441    1.7256   -0.8270 H   0  0  0  0  0  0  0  0  0  0  0  0
   -1.8899    0.9209   -1.7592 C   0  0  0  0  0  0  0  0  0  0  0  0
   -3.2636    1.1434   -1.8626 N   0  0  0  0  0  0  0  0  0  0  0  0
   -3.5947    0.8292   -3.1235 C   0  0  0  0  0  0  0  0  0  0  0  0
   -4.5989    0.8827   -3.5246 H   0  0  0  0  0  0  0  0  0  0  0  0
   -2.5062    0.4502   -3.8140 N   0  0  0  0  0  0  0  0  0  0  0  0
   -2.4938    0.1839   -4.7891 H   0  0  0  0  0  0  0  0  0  0  0  0
   -1.4191    0.5056   -2.9704 C   0  0  0  0  0  0  0  0  0  0  0  0
   -0.3856    0.2877   -3.2085 H   0  0  0  0  0  0  0  0  0  0  0  0
   -0.0283    0.1609    1.5831 C   0  0  0  0  0  0  0  0  0  0  0  0
    1.1923    0.1056    1.7329 O   0  0  0  0  0  0  0  0  0  0  0  0
   -0.8586    0.4659    2.5853 N   0  0  0  0  0  0  0  0  0  0  0  0
   -1.8521    0.3848    2.4000 H   0  0  0  0  0  0  0  0  0  0  0  0
   -0.4403    0.7694    3.9518 C   0  0  0  0  0  0  0  0  0  0  0  0
    0.5066    1.3154    3.9421 H   0  0  0  0  0  0  0  0  0  0  0  0
   -1.1988    1.3789    4.4452 H   0  0  0  0  0  0  0  0  0  0  0  0
   -0.3053   -0.1600    4.5075 H   0  0  0  0  0  0  0  0  0  0  0  0
  5  6  2  0  0  0  0
  5  7  1  0  0  0  0
  2  3  1  0  0  0  0
  2  4  1  0  0  0  0
  2  5  1  0  0  0  0
  1  2  1  0  0  0  0
 22 23  2  0  0  0  0
 22 24  1  0  0  0  0
 20 21  1  0  0  0  0
 18 19  1  0  0  0  0
 18 20  1  0  0  0  0
 16 17  1  0  0  0  0
 16 18  1  0  0  0  0
 15 16  2  0  0  0  0
 14 15  1  0  0  0  0
 14 20  2  0  0  0  0
 11 12  1  0  0  0  0
 11 13  1  0  0  0  0
 11 14  1  0  0  0  0
  9 10  1  0  0  0  0
  9 11  1  0  0  0  0
  9 22  1  0  0  0  0
  7  8  1  0  0  0  0
  7  9  1  0  0  0  0
 26 27  1  0  0  0  0
 26 28  1  0  0  0  0
 26 29  1  0  0  0  0
 24 25  1  0  0  0  0
 24 26  1  0  0  0  0
M  END
$$$$
default_name
  -OEChem-02102213163D

 29 29  0     1  0  0  0  0  0999 V2000
   -2.9561   -3.9186    1.3887 H   0  0  0  0  0  0  0  0  0  0  0  0
   -3.1191   -2.9346    0.9517 C   0  0  0  0  0  0  0  0  0  0  0  0
   -3.7811   -2.3546    1.5917 H   0  0  0  0  0  0  0  0  0  0  0  0
   -3.5591   -3.0406   -0.0383 H   0  0  0  0  0  0  0  0  0  0  0  0
   -1.7921   -2.2226    0.8327 C   0  0  0  0  0  0  0  0  0  0  0  0
   -0.7611   -2.7766    1.1927 O   0  0  0  0  0  0  0  0  0  0  0  0
   -1.8201   -0.9926    0.3247 N   0  0  0  0  0  0  0  0  0  0  0  0
   -2.7141   -0.5816    0.0927 H   0  0  0  0  0  0  0  0  0  0  0  0
   -0.6481   -0.1156    0.2017 C   0  0  1  0  0  0  0  0  0  0  0  0
    0.1042   -0.6345   -0.3958 H   0  0  0  0  0  0  0  0  0  0  0  0
   -1.0420    1.1781   -0.5372 C   0  0  0  0  0  0  0  0  0  0  0  0
   -1.6188    1.8223    0.1280 H   0  0  0  0  0  0  0  0  0  0  0  0
   -0.1441    1.7256   -0.8270 H   0  0  0  0  0  0  0  0  0  0  0  0
   -1.8899    0.9209   -1.7592 C   0  0  0  0  0  0  0  0  0  0  0  0
   -3.1813    1.4039   -1.9745 N   0  0  0  0  0  0  0  0  0  0  0  0
   -3.5354    0.9791   -3.1962 C   0  0  0  0  0  0  0  0  0  0  0  0
   -4.4934    1.1778   -3.6600 H   0  0  0  0  0  0  0  0  0  0  0  0
   -2.5332    0.2845   -3.7604 N   0  0  0  0  0  0  0  0  0  0  0  0
   -2.5499   -0.1219   -4.6858 H   0  0  0  0  0  0  0  0  0  0  0  0
   -1.4838    0.2404   -2.8697 C   0  0  0  0  0  0  0  0  0  0  0  0
   -0.5139   -0.2192   -3.0128 H   0  0  0  0  0  0  0  0  0  0  0  0
   -0.0283    0.1609    1.5831 C   0  0  0  0  0  0  0  0  0  0  0  0
    1.1923    0.1056    1.7329 O   0  0  0  0  0  0  0  0  0  0  0  0
   -0.8586    0.4659    2.5853 N   0  0  0  0  0  0  0  0  0  0  0  0
   -1.8521    0.3848    2.4000 H   0  0  0  0  0  0  0  0  0  0  0  0
   -0.4403    0.7694    3.9518 C   0  0  0  0  0  0  0  0  0  0  0  0
    0.5066    1.3154    3.9421 H   0  0  0  0  0  0  0  0  0  0  0  0
   -1.1988    1.3789    4.4452 H   0  0  0  0  0  0  0  0  0  0  0  0
   -0.3053   -0.1600    4.5075 H   0  0  0  0  0  0  0  0  0  0  0  0
  5  6  2  0  0  0  0
  5  7  1  0  0  0  0
  2  3  1  0  0  0  0
  2  4  1  0  0  0  0
  2  5  1  0  0  0  0
  1  2  1  0  0  0  0
 22 23  2  0  0  0  0
 22 24  1  0  0  0  0
 20 21  1  0  0  0  0
 18 19  1  0  0  0  0
 18 20  1  0  0  0  0
 16 17  1  0  0  0  0
 16 18  1  0  0  0  0
 15 16  2  0  0  0  0
 14 15  1  0  0  0  0
 14 20  2  0  0  0  0
 11 12  1  0  0  0  0
 11 13  1  0  0  0  0
 11 14  1  0  0  0  0
  9 10  1  0  0  0  0
  9 11  1  0  0  0  0
  9 22  1  0  0  0  0
  7  8  1  0  0  0  0
  7  9  1  0  0  0  0
 26 27  1  0  0  0  0
 26 28  1  0  0  0  0
 26 29  1  0  0  0  0
 24 25  1  0  0  0  0
 24 26  1  0  0  0  0
M  END
$$$$
default_name
  -OEChem-02102213163D

 29 29  0     1  0  0  0  0  0999 V2000
   -2.9561   -3.9186    1.3887 H   0  0  0  0  0  0  0  0  0  0  0  0
   -3.1191   -2.9346    0.9517 C   0  0  0  0  0  0  0  0  0  0  0  0
   -3.7811   -2.3546    1.5917 H   0  0  0  0  0  0  0  0  0  0  0  0
   -3.5591   -3.0406   -0.0383 H   0  0  0  0  0  0  0  0  0  0  0  0
   -1.7921   -2.2226    0.8327 C   0  0  0  0  0  0  0  0  0  0  0  0
   -0.7611   -2.7766    1.1927 O   0  0  0  0  0  0  0  0  0  0  0  0
   -1.8201   -0.9926    0.3247 N   0  0  0  0  0  0  0  0  0  0  0  0
   -2.7141   -0.5816    0.0927 H   0  0  0  0  0  0  0  0  0  0  0  0
   -0.6481   -0.1156    0.2017 C   0  0  1  0  0  0  0  0  0  0  0  0
    0.1042   -0.6345   -0.3958 H   0  0  0  0  0  0  0  0  0  0  0  0
   -1.0420    1.1781   -0.5372 C   0  0  0  0  0  0  0  0  0  0  0  0
   -1.6188    1.8223    0.1280 H   0  0  0  0  0  0  0  0  0  0  0  0
   -0.1441    1.7256   -0.8270 H   0  0  0  0  0  0  0  0  0  0  0  0
   -1.8899    0.9209   -1.7592 C   0  0  0  0  0  0  0  0  0  0  0  0
   -3.0422    1.6220   -2.1169 N   0  0  0  0  0  0  0  0  0  0  0  0
   -3.4436    1.1009   -3.2856 C   0  0  0  0  0  0  0  0  0  0  0  0
   -4.3237    1.4210   -3.8289 H   0  0  0  0  0  0  0  0  0  0  0  0
   -2.5964    0.1379   -3.6857 N   0  0  0  0  0  0  0  0  0  0  0  0
   -2.6727   -0.3905   -4.5441 H   0  0  0  0  0  0  0  0  0  0  0  0
   -1.6063    0.0125   -2.7367 C   0  0  0  0  0  0  0  0  0  0  0  0
   -0.7528   -0.6534   -2.7556 H   0  0  0  0  0  0  0  0  0  0  0  0
   -0.0283    0.1609    1.5831 C   0  0  0  0  0  0  0  0  0  0  0  0
    1.1923    0.1056    1.7329 O   0  0  0  0  0  0  0  0  0  0  0  0
   -0.8586    0.4659    2.5853 N   0  0  0  0  0  0  0  0  0  0  0  0
   -1.8521    0.3848    2.4000 H   0  0  0  0  0  0  0  0  0  0  0  0
   -0.4403    0.7694    3.9518 C   0  0  0  0  0  0  0  0  0  0  0  0
    0.5066    1.3154    3.9421 H   0  0  0  0  0  0  0  0  0  0  0  0
   -1.1988    1.3789    4.4452 H   0  0  0  0  0  0  0  0  0  0  0  0
   -0.3053   -0.1600    4.5075 H   0  0  0  0  0  0  0  0  0  0  0  0
  5  6  2  0  0  0  0
  5  7  1  0  0  0  0
  2  3  1  0  0  0  0
  2  4  1  0  0  0  0
  2  5  1  0  0  0  0
  1  2  1  0  0  0  0
 22 23  2  0  0  0  0
 22 24  1  0  0  0  0
 20 21  1  0  0  0  0
 18 19  1  0  0  0  0
 18 20  1  0  0  0  0
 16 17  1  0  0  0  0
 16 18  1  0  0  0  0
 15 16  2  0  0  0  0
 14 15  1  0  0  0  0
 14 20  2  0  0  0  0
 11 12  1  0  0  0  0
 11 13  1  0  0  0  0
 11 14  1  0  0  0  0
  9 10  1  0  0  0  0
  9 11  1  0  0  0  0
  9 22  1  0  0  0  0
  7  8  1  0  0  0  0
  7  9  1  0  0  0  0
 26 27  1  0  0  0  0
 26 28  1  0  0  0  0
 26 29  1  0  0  0  0
 24 25  1  0  0  0  0
 24 26  1  0  0  0  0
M  END
$$$$
default_name
  -OEChem-02102213163D

 29 29  0     1  0  0  0  0  0999 V2000
   -2.9561   -3.9186    1.3887 H   0  0  0  0  0  0  0  0  0  0  0  0
   -3.1191   -2.9346    0.9517 C   0  0  0  0  0  0  0  0  0  0  0  0
   -3.7811   -2.3546    1.5917 H   0  0  0  0  0  0  0  0  0  0  0  0
   -3.5591   -3.0406   -0.0383 H   0  0  0  0  0  0  0  0  0  0  0  0
   -1.7921   -2.2226    0.8327 C   0  0  0  0  0  0  0  0  0  0  0  0
   -0.7611   -2.7766    1.1927 O   0  0  0  0  0  0  0  0  0  0  0  0
   -1.8201   -0.9926    0.3247 N   0  0  0  0  0  0  0  0  0  0  0  0
   -2.7141   -0.5816    0.0927 H   0  0  0  0  0  0  0  0  0  0  0  0
   -0.6481   -0.1156    0.2017 C   0  0  1  0  0  0  0  0  0  0  0  0
    0.1042   -0.6345   -0.3958 H   0  0  0  0  0  0  0  0  0  0  0  0
   -1.0420    1.1781   -0.5372 C   0  0  0  0  0  0  0  0  0  0  0  0
   -1.6188    1.8223    0.1280 H   0  0  0  0  0  0  0  0  0  0  0  0
   -0.1441    1.7256   -0.8270 H   0  0  0  0  0  0  0  0  0  0  0  0
   -1.8899    0.9209   -1.7592 C   0  0  0  0  0  0  0  0  0  0  0  0
   -2.8559    1.7828   -2.2800 N   0  0  0  0  0  0  0  0  0  0  0  0
   -3.3254    1.1864   -3.3856 C   0  0  0  0  0  0  0  0  0  0  0  0
   -4.1013    1.5958   -4.0200 H   0  0  0  0  0  0  0  0  0  0  0  0
   -2.6914    0.0204   -3.5950 N   0  0  0  0  0  0  0  0  0  0  0  0
   -2.8538   -0.6036   -4.3735 H   0  0  0  0  0  0  0  0  0  0  0  0
   -1.7783   -0.1627   -2.5805 C   0  0  0  0  0  0  0  0  0  0  0  0
   -1.0858   -0.9855   -2.4547 H   0  0  0  0  0  0  0  0  0  0  0  0
   -0.0283    0.1609    1.5831 C   0  0  0  0  0  0  0  0  0  0  0  0
    1.1923    0.1056    1.7329 O   0  0  0  0  0  0  0  0  0  0  0  0
   -0.8586    0.4659    2.5853 N   0  0  0  0  0  0  0  0  0  0  0  0
   -1.8521    0.3848    2.4000 H   0  0  0  0  0  0  0  0  0  0  0  0
   -0.4403    0.7694    3.9518 C   0  0  0  0  0  0  0  0  0  0  0  0
    0.5066    1.3154    3.9421 H   0  0  0  0  0  0  0  0  0  0  0  0
   -1.1988    1.3789    4.4452 H   0  0  0  0  0  0  0  0  0  0  0  0
   -0.3053   -0.1600    4.5075 H   0  0  0  0  0  0  0  0  0  0  0  0
  5  6  2  0  0  0  0
  5  7  1  0  0  0  0
  2  3  1  0  0  0  0
  2  4  1  0  0  0  0
  2  5  1  0  0  0  0
  1  2  1  0  0  0  0
 22 23  2  0  0  0  0
 22 24  1  0  0  0  0
 20 21  1  0  0  0  0
 18 19  1  0  0  0  0
 18 20  1  0  0  0  0
 16 17  1  0  0  0  0
 16 18  1  0  0  0  0
 15 16  2  0  0  0  0
 14 15  1  0  0  0  0
 14 20  2  0  0  0  0
 11 12  1  0  0  0  0
 11 13  1  0  0  0  0
 11 14  1  0  0  0  0
  9 10  1  0  0  0  0
  9 11  1  0  0  0  0
  9 22  1  0  0  0  0
  7  8  1  0  0  0  0
  7  9  1  0  0  0  0
 26 27  1  0  0  0  0
 26 28  1  0  0  0  0
 26 29  1  0  0  0  0
 24 25  1  0  0  0  0
 24 26  1  0  0  0  0
M  END
$$$$
default_name
  -OEChem-02102213163D

 29 29  0     1  0  0  0  0  0999 V2000
   -2.9561   -3.9186    1.3887 H   0  0  0  0  0  0  0  0  0  0  0  0
   -3.1191   -2.9346    0.9517 C   0  0  0  0  0  0  0  0  0  0  0  0
   -3.7811   -2.3546    1.5917 H   0  0  0  0  0  0  0  0  0  0  0  0
   -3.5591   -3.0406   -0.0383 H   0  0  0  0  0  0  0  0  0  0  0  0
   -1.7921   -2.2226    0.8327 C   0  0  0  0  0  0  0  0  0  0  0  0
   -0.7611   -2.7766    1.1927 O   0  0  0  0  0  0  0  0  0  0  0  0
   -1.8201   -0.9926    0.3247 N   0  0  0  0  0  0  0  0  0  0  0  0
   -2.7141   -0.5816    0.0927 H   0  0  0  0  0  0  0  0  0  0  0  0
   -0.6481   -0.1156    0.2017 C   0  0  1  0  0  0  0  0  0  0  0  0
    0.1042   -0.6345   -0.3958 H   0  0  0  0  0  0  0  0  0  0  0  0
   -1.0420    1.1781   -0.5372 C   0  0  0  0  0  0  0  0  0  0  0  0
   -1.6188    1.8223    0.1280 H   0  0  0  0  0  0  0  0  0  0  0  0
   -0.1441    1.7256   -0.8270 H   0  0  0  0  0  0  0  0  0  0  0  0
   -1.8899    0.9209   -1.7592 C   0  0  0  0  0  0  0  0  0  0  0  0
   -2.6351    1.8754   -2.4527 N   0  0  0  0  0  0  0  0  0  0  0  0
   -3.1889    1.2296   -3.4894 C   0  0  0  0  0  0  0  0  0  0  0  0
   -3.8414    1.6903   -4.2202 H   0  0  0  0  0  0  0  0  0  0  0  0
   -2.8118   -0.0600   -3.4945 N   0  0  0  0  0  0  0  0  0  0  0  0
   -3.0810   -0.7467   -4.1858 H   0  0  0  0  0  0  0  0  0  0  0  0
   -1.9880   -0.2731   -2.4117 C   0  0  0  0  0  0  0  0  0  0  0  0
   -1.4904   -1.1926   -2.1304 H   0  0  0  0  0  0  0  0  0  0  0  0
   -0.0283    0.1609    1.5831 C   0  0  0  0  0  0  0  0  0  0  0  0
    1.1923    0.1056    1.7329 O   0  0  0  0  0  0  0  0  0  0  0  0
   -0.8586    0.4659    2.5853 N   0  0  0  0  0  0  0  0  0  0  0  0
   -1.8521    0.3848    2.4000 H   0  0  0  0  0  0  0  0  0  0  0  0
   -0.4403    0.7694    3.9518 C   0  0  0  0  0  0  0  0  0  0  0  0
    0.5066    1.3154    3.9421 H   0  0  0  0  0  0  0  0  0  0  0  0
   -1.1988    1.3789    4.4452 H   0  0  0  0  0  0  0  0  0  0  0  0
   -0.3053   -0.1600    4.5075 H   0  0  0  0  0  0  0  0  0  0  0  0
  5  6  2  0  0  0  0
  5  7  1  0  0  0  0
  2  3  1  0  0  0  0
  2  4  1  0  0  0  0
  2  5  1  0  0  0  0
  1  2  1  0  0  0  0
 22 23  2  0  0  0  0
 22 24  1  0  0  0  0
 20 21  1  0  0  0  0
 18 19  1  0  0  0  0
 18 20  1  0  0  0  0
 16 17  1  0  0  0  0
 16 18  1  0  0  0  0
 15 16  2  0  0  0  0
 14 15  1  0  0  0  0
 14 20  2  0  0  0  0
 11 12  1  0  0  0  0
 11 13  1  0  0  0  0
 11 14  1  0  0  0  0
  9 10  1  0  0  0  0
  9 11  1  0  0  0  0
  9 22  1  0  0  0  0
  7  8  1  0  0  0  0
  7  9  1  0  0  0  0
 26 27  1  0  0  0  0
 26 28  1  0  0  0  0
 26 29  1  0  0  0  0
 24 25  1  0  0  0  0
 24 26  1  0  0  0  0
M  END
$$$$
default_name
  -OEChem-02102213163D

 29 29  0     1  0  0  0  0  0999 V2000
   -2.9561   -3.9186    1.3887 H   0  0  0  0  0  0  0  0  0  0  0  0
   -3.1191   -2.9346    0.9517 C   0  0  0  0  0  0  0  0  0  0  0  0
   -3.7811   -2.3546    1.5917 H   0  0  0  0  0  0  0  0  0  0  0  0
   -3.5591   -3.0406   -0.0383 H   0  0  0  0  0  0  0  0  0  0  0  0
   -1.7921   -2.2226    0.8327 C   0  0  0  0  0  0  0  0  0  0  0  0
   -0.7611   -2.7766    1.1927 O   0  0  0  0  0  0  0  0  0  0  0  0
   -1.8201   -0.9926    0.3247 N   0  0  0  0  0  0  0  0  0  0  0  0
   -2.7141   -0.5816    0.0927 H   0  0  0  0  0  0  0  0  0  0  0  0
   -0.6481   -0.1156    0.2017 C   0  0  1  0  0  0  0  0  0  0  0  0
    0.1042   -0.6345   -0.3958 H   0  0  0  0  0  0  0  0  0  0  0  0
   -1.0420    1.1781   -0.5372 C   0  0  0  0  0  0  0  0  0  0  0  0
   -1.3779    1.9265    0.1820 H   0  0  0  0  0  0  0  0  0  0  0  0
   -0.1729    1.5869   -1.0545 H   0  0  0  0  0  0  0  0  0  0  0  0
   -2.1635    0.9709   -1.5259 C   0  0  0  0  0  0  0  0  0  0  0  0
   -2.7301    1.9546   -2.3374 N   0  0  0  0  0  0  0  0  0  0  0  0
   -3.6499    1.3301   -3.0872 C   0  0  0  0  0  0  0  0  0  0  0  0
   -4.2798    1.8206   -3.8187 H   0  0  0  0  0  0  0  0  0  0  0  0
   -3.6697    0.0160   -2.8078 N   0  0  0  0  0  0  0  0  0  0  0  0
   -4.2632   -0.6695   -3.2547 H   0  0  0  0  0  0  0  0  0  0  0  0
   -2.7350   -0.2307   -1.8270 C   0  0  0  0  0  0  0  0  0  0  0  0
   -2.4758   -1.1849   -1.3857 H   0  0  0  0  0  0  0  0  0  0  0  0
   -0.0283    0.1609    1.5831 C   0  0  0  0  0  0  0  0  0  0  0  0
    1.1923    0.1056    1.7329 O   0  0  0  0  0  0  0  0  0  0  0  0
   -0.8586    0.4659    2.5853 N   0  0  0  0  0  0  0  0  0  0  0  0
   -1.8521    0.3848    2.4000 H   0  0  0  0  0  0  0  0  0  0  0  0
   -0.4403    0.7694    3.9518 C   0  0  0  0  0  0  0  0  0  0  0  0
    0.5066    1.3154    3.9421 H   0  0  0  0  0  0  0  0  0  0  0  0
   -1.1988    1.3789    4.4452 H   0  0  0  0  0  0  0  0  0  0  0  0
   -0.3053   -0.1600    4.5075 H   0  0  0  0  0  0  0  0  0  0  0  0
  5  6  2  0  0  0  0
  5  7  1  0  0  0  0
  2  3  1  0  0  0  0
  2  4  1  0  0  0  0
  2  5  1  0  0  0  0
  1  2  1  0  0  0  0
 22 23  2  0  0  0  0
 22 24  1  0  0  0  0
 20 21  1  0  0  0  0
 18 19  1  0  0  0  0
 18 20  1  0  0  0  0
 16 17  1  0  0  0  0
 16 18  1  0  0  0  0
 15 16  2  0  0  0  0
 14 15  1  0  0  0  0
 14 20  2  0  0  0  0
 11 12  1  0  0  0  0
 11 13  1  0  0  0  0
 11 14  1  0  0  0  0
  9 10  1  0  0  0  0
  9 11  1  0  0  0  0
  9 22  1  0  0  0  0
  7  8  1  0  0  0  0
  7  9  1  0  0  0  0
 26 27  1  0  0  0  0
 26 28  1  0  0  0  0
 26 29  1  0  0  0  0
 24 25  1  0  0  0  0
 24 26  1  0  0  0  0
M  END
$$$$
default_name
  -OEChem-02102213163D

 29 29  0     1  0  0  0  0  0999 V2000
   -2.9561   -3.9186    1.3887 H   0  0  0  0  0  0  0  0  0  0  0  0
   -3.1191   -2.9346    0.9517 C   0  0  0  0  0  0  0  0  0  0  0  0
   -3.7811   -2.3546    1.5917 H   0  0  0  0  0  0  0  0  0  0  0  0
   -3.5591   -3.0406   -0.0383 H   0  0  0  0  0  0  0  0  0  0  0  0
   -1.7921   -2.2226    0.8327 C   0  0  0  0  0  0  0  0  0  0  0  0
   -0.7611   -2.7766    1.1927 O   0  0  0  0  0  0  0  0  0  0  0  0
   -1.8201   -0.9926    0.3247 N   0  0  0  0  0  0  0  0  0  0  0  0
   -2.7141   -0.5816    0.0927 H   0  0  0  0  0  0  0  0  0  0  0  0
   -0.6481   -0.1156    0.2017 C   0  0  1  0  0  0  0  0  0  0  0  0
    0.1042   -0.6345   -0.3958 H   0  0  0  0  0  0  0  0  0  0  0  0
   -1.0420    1.1781   -0.5372 C   0  0  0  0  0  0  0  0  0  0  0  0
   -1.3779    1.9265    0.1820 H   0  0  0  0  0  0  0  0  0  0  0  0
   -0.1729    1.5869   -1.0545 H   0  0  0  0  0  0  0  0  0  0  0  0
   -2.1635    0.9709   -1.5259 C   0  0  0  0  0  0  0  0  0  0  0  0
   -2.5359    1.8573   -2.5373 N   0  0  0  0  0  0  0  0  0  0  0  0
   -3.5355    1.2599   -3.2023 C   0  0  0  0  0  0  0  0  0  0  0  0
   -4.0570    1.6956   -4.0452 H   0  0  0  0  0  0  0  0  0  0  0  0
   -3.7876    0.0476   -2.6807 N   0  0  0  0  0  0  0  0  0  0  0  0
   -4.4822   -0.6038   -3.0201 H   0  0  0  0  0  0  0  0  0  0  0  0
   -2.9285   -0.1545   -1.6235 C   0  0  0  0  0  0  0  0  0  0  0  0
   -2.8467   -1.0336   -0.9967 H   0  0  0  0  0  0  0  0  0  0  0  0
   -0.0283    0.1609    1.5831 C   0  0  0  0  0  0  0  0  0  0  0  0
    1.1923    0.1056    1.7329 O   0  0  0  0  0  0  0  0  0  0  0  0
   -0.8586    0.4659    2.5853 N   0  0  0  0  0  0  0  0  0  0  0  0
   -1.8521    0.3848    2.4000 H   0  0  0  0  0  0  0  0  0  0  0  0
   -0.4403    0.7694    3.9518 C   0  0  0  0  0  0  0  0  0  0  0  0
    0.5066    1.3154    3.9421 H   0  0  0  0  0  0  0  0  0  0  0  0
   -1.1988    1.3789    4.4452 H   0  0  0  0  0  0  0  0  0  0  0  0
   -0.3053   -0.1600    4.5075 H   0  0  0  0  0  0  0  0  0  0  0  0
  5  6  2  0  0  0  0
  5  7  1  0  0  0  0
  2  3  1  0  0  0  0
  2  4  1  0  0  0  0
  2  5  1  0  0  0  0
  1  2  1  0  0  0  0
 22 23  2  0  0  0  0
 22 24  1  0  0  0  0
 20 21  1  0  0  0  0
 18 19  1  0  0  0  0
 18 20  1  0  0  0  0
 16 17  1  0  0  0  0
 16 18  1  0  0  0  0
 15 16  2  0  0  0  0
 14 15  1  0  0  0  0
 14 20  2  0  0  0  0
 11 12  1  0  0  0  0
 11 13  1  0  0  0  0
 11 14  1  0  0  0  0
  9 10  1  0  0  0  0
  9 11  1  0  0  0  0
  9 22  1  0  0  0  0
  7  8  1  0  0  0  0
  7  9  1  0  0  0  0
 26 27  1  0  0  0  0
 26 28  1  0  0  0  0
 26 29  1  0  0  0  0
 24 25  1  0  0  0  0
 24 26  1  0  0  0  0
M  END
$$$$
default_name
  -OEChem-02102213163D

 29 29  0     1  0  0  0  0  0999 V2000
   -2.9561   -3.9186    1.3887 H   0  0  0  0  0  0  0  0  0  0  0  0
   -3.1191   -2.9346    0.9517 C   0  0  0  0  0  0  0  0  0  0  0  0
   -3.7811   -2.3546    1.5917 H   0  0  0  0  0  0  0  0  0  0  0  0
   -3.5591   -3.0406   -0.0383 H   0  0  0  0  0  0  0  0  0  0  0  0
   -1.7921   -2.2226    0.8327 C   0  0  0  0  0  0  0  0  0  0  0  0
   -0.7611   -2.7766    1.1927 O   0  0  0  0  0  0  0  0  0  0  0  0
   -1.8201   -0.9926    0.3247 N   0  0  0  0  0  0  0  0  0  0  0  0
   -2.7141   -0.5816    0.0927 H   0  0  0  0  0  0  0  0  0  0  0  0
   -0.6481   -0.1156    0.2017 C   0  0  1  0  0  0  0  0  0  0  0  0
    0.1042   -0.6345   -0.3958 H   0  0  0  0  0  0  0  0  0  0  0  0
   -1.0420    1.1781   -0.5372 C   0  0  0  0  0  0  0  0  0  0  0  0
   -1.3779    1.9265    0.1820 H   0  0  0  0  0  0  0  0  0  0  0  0
   -0.1729    1.5869   -1.0545 H   0  0  0  0  0  0  0  0  0  0  0  0
   -2.1635    0.9709   -1.5259 C   0  0  0  0  0  0  0  0  0  0  0  0
   -2.3577    1.6919   -2.7048 N   0  0  0  0  0  0  0  0  0  0  0  0
   -3.4328    1.1505   -3.2959 C   0  0  0  0  0  0  0  0  0  0  0  0
   -3.8550    1.4936   -4.2320 H   0  0  0  0  0  0  0  0  0  0  0  0
   -3.9007    0.1225   -2.5681 N   0  0  0  0  0  0  0  0  0  0  0  0
   -4.6909   -0.4581   -2.8139 H   0  0  0  0  0  0  0  0  0  0  0  0
   -3.1097   -0.0089   -1.4485 C   0  0  0  0  0  0  0  0  0  0  0  0
   -3.1931   -0.7497   -0.6633 H   0  0  0  0  0  0  0  0  0  0  0  0
   -0.0283    0.1609    1.5831 C   0  0  0  0  0  0  0  0  0  0  0  0
    1.1923    0.1056    1.7329 O   0  0  0  0  0  0  0  0  0  0  0  0
   -0.8586    0.4659    2.5853 N   0  0  0  0  0  0  0  0  0  0  0  0
   -1.8521    0.3848    2.4000 H   0  0  0  0  0  0  0  0  0  0  0  0
   -0.4403    0.7694    3.9518 C   0  0  0  0  0  0  0  0  0  0  0  0
    0.5066    1.3154    3.9421 H   0  0  0  0  0  0  0  0  0  0  0  0
   -1.1988    1.3789    4.4452 H   0  0  0  0  0  0  0  0  0  0  0  0
   -0.3053   -0.1600    4.5075 H   0  0  0  0  0  0  0  0  0  0  0  0
  5  6  2  0  0  0  0
  5  7  1  0  0  0  0
  2  3  1  0  0  0  0
  2  4  1  0  0  0  0
  2  5  1  0  0  0  0
  1  2  1  0  0  0  0
 22 23  2  0  0  0  0
 22 24  1  0  0  0  0
 20 21  1  0  0  0  0
 18 19  1  0  0  0  0
 18 20  1  0  0  0  0
 16 17  1  0  0  0  0
 16 18  1  0  0  0  0
 15 16  2  0  0  0  0
 14 15  1  0  0  0  0
 14 20  2  0  0  0  0
 11 12  1  0  0  0  0
 11 13  1  0  0  0  0
 11 14  1  0  0  0  0
  9 10  1  0  0  0  0
  9 11  1  0  0  0  0
  9 22  1  0  0  0  0
  7  8  1  0  0  0  0
  7  9  1  0  0  0  0
 26 27  1  0  0  0  0
 26 28  1  0  0  0  0
 26 29  1  0  0  0  0
 24 25  1  0  0  0  0
 24 26  1  0  0  0  0
M  END
$$$$
default_name
  -OEChem-02102213163D

 29 29  0     1  0  0  0  0  0999 V2000
   -2.9561   -3.9186    1.3887 H   0  0  0  0  0  0  0  0  0  0  0  0
   -3.1191   -2.9346    0.9517 C   0  0  0  0  0  0  0  0  0  0  0  0
   -3.7811   -2.3546    1.5917 H   0  0  0  0  0  0  0  0  0  0  0  0
   -3.5591   -3.0406   -0.0383 H   0  0  0  0  0  0  0  0  0  0  0  0
   -1.7921   -2.2226    0.8327 C   0  0  0  0  0  0  0  0  0  0  0  0
   -0.7611   -2.7766    1.1927 O   0  0  0  0  0  0  0  0  0  0  0  0
   -1.8201   -0.9926    0.3247 N   0  0  0  0  0  0  0  0  0  0  0  0
   -2.7141   -0.5816    0.0927 H   0  0  0  0  0  0  0  0  0  0  0  0
   -0.6481   -0.1156    0.2017 C   0  0  1  0  0  0  0  0  0  0  0  0
    0.1042   -0.6345   -0.3958 H   0  0  0  0  0  0  0  0  0  0  0  0
   -1.0420    1.1781   -0.5372 C   0  0  0  0  0  0  0  0  0  0  0  0
   -1.3779    1.9265    0.1820 H   0  0  0  0  0  0  0  0  0  0  0  0
   -0.1729    1.5869   -1.0545 H   0  0  0  0  0  0  0  0  0  0  0  0
   -2.1635    0.9709   -1.5259 C   0  0  0  0  0  0  0  0  0  0  0  0
   -2.2076    1.4697   -2.8284 N   0  0  0  0  0  0  0  0  0  0  0  0
   -3.3488    1.0094   -3.3616 C   0  0  0  0  0  0  0  0  0  0  0  0
   -3.6874    1.2283   -4.3664 H   0  0  0  0  0  0  0  0  0  0  0  0
   -4.0012    0.2357   -2.4779 N   0  0  0  0  0  0  0  0  0  0  0  0
   -4.8751   -0.2423   -2.6501 H   0  0  0  0  0  0  0  0  0  0  0  0
   -3.2662    0.1961   -1.3139 C   0  0  0  0  0  0  0  0  0  0  0  0
   -3.4914   -0.3527   -0.4081 H   0  0  0  0  0  0  0  0  0  0  0  0
   -0.0283    0.1609    1.5831 C   0  0  0  0  0  0  0  0  0  0  0  0
    1.1923    0.1056    1.7329 O   0  0  0  0  0  0  0  0  0  0  0  0
   -0.8586    0.4659    2.5853 N   0  0  0  0  0  0  0  0  0  0  0  0
   -1.8521    0.3848    2.4000 H   0  0  0  0  0  0  0  0  0  0  0  0
   -0.4403    0.7694    3.9518 C   0  0  0  0  0  0  0  0  0  0  0  0
    0.5066    1.3154    3.9421 H   0  0  0  0  0  0  0  0  0  0  0  0
   -1.1988    1.3789    4.4452 H   0  0  0  0  0  0  0  0  0  0  0  0
   -0.3053   -0.1600    4.5075 H   0  0  0  0  0  0  0  0  0  0  0  0
  5  6  2  0  0  0  0
  5  7  1  0  0  0  0
  2  3  1  0  0  0  0
  2  4  1  0  0  0  0
  2  5  1  0  0  0  0
  1  2  1  0  0  0  0
 22 23  2  0  0  0  0
 22 24  1  0  0  0  0
 20 21  1  0  0  0  0
 18 19  1  0  0  0  0
 18 20  1  0  0  0  0
 16 17  1  0  0  0  0
 16 18  1  0  0  0  0
 15 16  2  0  0  0  0
 14 15  1  0  0  0  0
 14 20  2  0  0  0  0
 11 12  1  0  0  0  0
 11 13  1  0  0  0  0
 11 14  1  0  0  0  0
  9 10  1  0  0  0  0
  9 11  1  0  0  0  0
  9 22  1  0  0  0  0
  7  8  1  0  0  0  0
  7  9  1  0  0  0  0
 26 27  1  0  0  0  0
 26 28  1  0  0  0  0
 26 29  1  0  0  0  0
 24 25  1  0  0  0  0
 24 26  1  0  0  0  0
M  END
$$$$
default_name
  -OEChem-02102213163D

 29 29  0     1  0  0  0  0  0999 V2000
   -2.9561   -3.9186    1.3887 H   0  0  0  0  0  0  0  0  0  0  0  0
   -3.1191   -2.9346    0.9517 C   0  0  0  0  0  0  0  0  0  0  0  0
   -3.7811   -2.3546    1.5917 H   0  0  0  0  0  0  0  0  0  0  0  0
   -3.5591   -3.0406   -0.0383 H   0  0  0  0  0  0  0  0  0  0  0  0
   -1.7921   -2.2226    0.8327 C   0  0  0  0  0  0  0  0  0  0  0  0
   -0.7611   -2.7766    1.1927 O   0  0  0  0  0  0  0  0  0  0  0  0
   -1.8201   -0.9926    0.3247 N   0  0  0  0  0  0  0  0  0  0  0  0
   -2.7141   -0.5816    0.0927 H   0  0  0  0  0  0  0  0  0  0  0  0
   -0.6481   -0.1156    0.2017 C   0  0  1  0  0  0  0  0  0  0  0  0
    0.1042   -0.6345   -0.3958 H   0  0  0  0  0  0  0  0  0  0  0  0
   -1.0420    1.1781   -0.5372 C   0  0  0  0  0  0  0  0  0  0  0  0
   -1.3779    1.9265    0.1820 H   0  0  0  0  0  0  0  0  0  0  0  0
   -0.1729    1.5869   -1.0545 H   0  0  0  0  0  0  0  0  0  0  0  0
   -2.1635    0.9709   -1.5259 C   0  0  0  0  0  0  0  0  0  0  0  0
   -2.0960    1.2058   -2.8998 N   0  0  0  0  0  0  0  0  0  0  0  0
   -3.2892    0.8463   -3.3950 C   0  0  0  0  0  0  0  0  0  0  0  0
   -3.5658    0.9178   -4.4393 H   0  0  0  0  0  0  0  0  0  0  0  0
   -4.0823    0.3795   -2.4160 N   0  0  0  0  0  0  0  0  0  0  0  0
   -5.0223    0.0289   -2.5400 H   0  0  0  0  0  0  0  0  0  0  0  0
   -3.3874    0.4465   -1.2289 C   0  0  0  0  0  0  0  0  0  0  0  0
   -3.7213    0.1304   -0.2486 H   0  0  0  0  0  0  0  0  0  0  0  0
   -0.0283    0.1609    1.5831 C   0  0  0  0  0  0  0  0  0  0  0  0
    1.1923    0.1056    1.7329 O   0  0  0  0  0  0  0  0  0  0  0  0
   -0.8586    0.4659    2.5853 N   0  0  0  0  0  0  0  0  0  0  0  0
   -1.8521    0.3848    2.4000 H   0  0  0  0  0  0  0  0  0  0  0  0
   -0.4403    0.7694    3.9518 C   0  0  0  0  0  0  0  0  0  0  0  0
    0.5066    1.3154    3.9421 H   0  0  0  0  0  0  0  0  0  0  0  0
   -1.1988    1.3789    4.4452 H   0  0  0  0  0  0  0  0  0  0  0  0
   -0.3053   -0.1600    4.5075 H   0  0  0  0  0  0  0  0  0  0  0  0
  5  6  2  0  0  0  0
  5  7  1  0  0  0  0
  2  3  1  0  0  0  0
  2  4  1  0  0  0  0
  2  5  1  0  0  0  0
  1  2  1  0  0  0  0
 22 23  2  0  0  0  0
 22 24  1  0  0  0  0
 20 21  1  0  0  0  0
 18 19  1  0  0  0  0
 18 20  1  0  0  0  0
 16 17  1  0  0  0  0
 16 18  1  0  0  0  0
 15 16  2  0  0  0  0
 14 15  1  0  0  0  0
 14 20  2  0  0  0  0
 11 12  1  0  0  0  0
 11 13  1  0  0  0  0
 11 14  1  0  0  0  0
  9 10  1  0  0  0  0
  9 11  1  0  0  0  0
  9 22  1  0  0  0  0
  7  8  1  0  0  0  0
  7  9  1  0  0  0  0
 26 27  1  0  0  0  0
 26 28  1  0  0  0  0
 26 29  1  0  0  0  0
 24 25  1  0  0  0  0
 24 26  1  0  0  0  0
M  END
$$$$
default_name
  -OEChem-02102213163D

 29 29  0     1  0  0  0  0  0999 V2000
   -2.9561   -3.9186    1.3887 H   0  0  0  0  0  0  0  0  0  0  0  0
   -3.1191   -2.9346    0.9517 C   0  0  0  0  0  0  0  0  0  0  0  0
   -3.7811   -2.3546    1.5917 H   0  0  0  0  0  0  0  0  0  0  0  0
   -3.5591   -3.0406   -0.0383 H   0  0  0  0  0  0  0  0  0  0  0  0
   -1.7921   -2.2226    0.8327 C   0  0  0  0  0  0  0  0  0  0  0  0
   -0.7611   -2.7766    1.1927 O   0  0  0  0  0  0  0  0  0  0  0  0
   -1.8201   -0.9926    0.3247 N   0  0  0  0  0  0  0  0  0  0  0  0
   -2.7141   -0.5816    0.0927 H   0  0  0  0  0  0  0  0  0  0  0  0
   -0.6481   -0.1156    0.2017 C   0  0  1  0  0  0  0  0  0  0  0  0
    0.1042   -0.6345   -0.3958 H   0  0  0  0  0  0  0  0  0  0  0  0
   -1.0420    1.1781   -0.5372 C   0  0  0  0  0  0  0  0  0  0  0  0
   -1.3779    1.9265    0.1820 H   0  0  0  0  0  0  0  0  0  0  0  0
   -0.1729    1.5869   -1.0545 H   0  0  0  0  0  0  0  0  0  0  0  0
   -2.1635    0.9709   -1.5259 C   0  0  0  0  0  0  0  0  0  0  0  0
   -2.0303    0.9184   -2.9140 N   0  0  0  0  0  0  0  0  0  0  0  0
   -3.2582    0.6722   -3.3937 C   0  0  0  0  0  0  0  0  0  0  0  0
   -3.4984    0.5832   -4.4457 H   0  0  0  0  0  0  0  0  0  0  0  0
   -4.1385    0.5440   -2.3868 N   0  0  0  0  0  0  0  0  0  0  0  0
   -5.1224    0.3370   -2.4910 H   0  0  0  0  0  0  0  0  0  0  0  0
   -3.4651    0.7253   -1.1992 C   0  0  0  0  0  0  0  0  0  0  0  0
   -3.8671    0.6667   -0.1956 H   0  0  0  0  0  0  0  0  0  0  0  0
   -0.0283    0.1609    1.5831 C   0  0  0  0  0  0  0  0  0  0  0  0
    1.1923    0.1056    1.7329 O   0  0  0  0  0  0  0  0  0  0  0  0
   -0.8586    0.4659    2.5853 N   0  0  0  0  0  0  0  0  0  0  0  0
   -1.8521    0.3848    2.4000 H   0  0  0  0  0  0  0  0  0  0  0  0
   -0.4403    0.7694    3.9518 C   0  0  0  0  0  0  0  0  0  0  0  0
    0.5066    1.3154    3.9421 H   0  0  0  0  0  0  0  0  0  0  0  0
   -1.1988    1.3789    4.4452 H   0  0  0  0  0  0  0  0  0  0  0  0
   -0.3053   -0.1600    4.5075 H   0  0  0  0  0  0  0  0  0  0  0  0
  5  6  2  0  0  0  0
  5  7  1  0  0  0  0
  2  3  1  0  0  0  0
  2  4  1  0  0  0  0
  2  5  1  0  0  0  0
  1  2  1  0  0  0  0
 22 23  2  0  0  0  0
 22 24  1  0  0  0  0
 20 21  1  0  0  0  0
 18 19  1  0  0  0  0
 18 20  1  0  0  0  0
 16 17  1  0  0  0  0
 16 18  1  0  0  0  0
 15 16  2  0  0  0  0
 14 15  1  0  0  0  0
 14 20  2  0  0  0  0
 11 12  1  0  0  0  0
 11 13  1  0  0  0  0
 11 14  1  0  0  0  0
  9 10  1  0  0  0  0
  9 11  1  0  0  0  0
  9 22  1  0  0  0  0
  7  8  1  0  0  0  0
  7  9  1  0  0  0  0
 26 27  1  0  0  0  0
 26 28  1  0  0  0  0
 26 29  1  0  0  0  0
 24 25  1  0  0  0  0
 24 26  1  0  0  0  0
M  END
$$$$
default_name
  -OEChem-02102213163D

 29 29  0     1  0  0  0  0  0999 V2000
   -2.9561   -3.9186    1.3887 H   0  0  0  0  0  0  0  0  0  0  0  0
   -3.1191   -2.9346    0.9517 C   0  0  0  0  0  0  0  0  0  0  0  0
   -3.7811   -2.3546    1.5917 H   0  0  0  0  0  0  0  0  0  0  0  0
   -3.5591   -3.0406   -0.0383 H   0  0  0  0  0  0  0  0  0  0  0  0
   -1.7921   -2.2226    0.8327 C   0  0  0  0  0  0  0  0  0  0  0  0
   -0.7611   -2.7766    1.1927 O   0  0  0  0  0  0  0  0  0  0  0  0
   -1.8201   -0.9926    0.3247 N   0  0  0  0  0  0  0  0  0  0  0  0
   -2.7141   -0.5816    0.0927 H   0  0  0  0  0  0  0  0  0  0  0  0
   -0.6481   -0.1156    0.2017 C   0  0  1  0  0  0  0  0  0  0  0  0
    0.1042   -0.6345   -0.3958 H   0  0  0  0  0  0  0  0  0  0  0  0
   -1.0420    1.1781   -0.5372 C   0  0  0  0  0  0  0  0  0  0  0  0
   -1.3779    1.9265    0.1820 H   0  0  0  0  0  0  0  0  0  0  0  0
   -0.1729    1.5869   -1.0545 H   0  0  0  0  0  0  0  0  0  0  0  0
   -2.1635    0.9709   -1.5259 C   0  0  0  0  0  0  0  0  0  0  0  0
   -2.0151    0.6268   -2.8701 N   0  0  0  0  0  0  0  0  0  0  0  0
   -3.2577    0.4991   -3.3579 C   0  0  0  0  0  0  0  0  0  0  0  0
   -3.4897    0.2473   -4.3851 H   0  0  0  0  0  0  0  0  0  0  0  0
   -4.1659    0.7180   -2.3922 N   0  0  0  0  0  0  0  0  0  0  0  0
   -5.1686    0.6609   -2.5065 H   0  0  0  0  0  0  0  0  0  0  0  0
   -3.4939    1.0135   -1.2269 C   0  0  0  0  0  0  0  0  0  0  0  0
   -3.9190    1.2197   -0.2527 H   0  0  0  0  0  0  0  0  0  0  0  0
   -0.0283    0.1609    1.5831 C   0  0  0  0  0  0  0  0  0  0  0  0
    1.1923    0.1056    1.7329 O   0  0  0  0  0  0  0  0  0  0  0  0
   -0.8586    0.4659    2.5853 N   0  0  0  0  0  0  0  0  0  0  0  0
   -1.8521    0.3848    2.4000 H   0  0  0  0  0  0  0  0  0  0  0  0
   -0.4403    0.7694    3.9518 C   0  0  0  0  0  0  0  0  0  0  0  0
    0.5066    1.3154    3.9421 H   0  0  0  0  0  0  0  0  0  0  0  0
   -1.1988    1.3789    4.4452 H   0  0  0  0  0  0  0  0  0  0  0  0
   -0.3053   -0.1600    4.5075 H   0  0  0  0  0  0  0  0  0  0  0  0
  5  6  2  0  0  0  0
  5  7  1  0  0  0  0
  2  3  1  0  0  0  0
  2  4  1  0  0  0  0
  2  5  1  0  0  0  0
  1  2  1  0  0  0  0
 22 23  2  0  0  0  0
 22 24  1  0  0  0  0
 20 21  1  0  0  0  0
 18 19  1  0  0  0  0
 18 20  1  0  0  0  0
 16 17  1  0  0  0  0
 16 18  1  0  0  0  0
 15 16  2  0  0  0  0
 14 15  1  0  0  0  0
 14 20  2  0  0  0  0
 11 12  1  0  0  0  0
 11 13  1  0  0  0  0
 11 14  1  0  0  0  0
  9 10  1  0  0  0  0
  9 11  1  0  0  0  0
  9 22  1  0  0  0  0
  7  8  1  0  0  0  0
  7  9  1  0  0  0  0
 26 27  1  0  0  0  0
 26 28  1  0  0  0  0
 26 29  1  0  0  0  0
 24 25  1  0  0  0  0
 24 26  1  0  0  0  0
M  END
$$$$
default_name
  -OEChem-02102213163D

 29 29  0     1  0  0  0  0  0999 V2000
   -2.9561   -3.9186    1.3887 H   0  0  0  0  0  0  0  0  0  0  0  0
   -3.1191   -2.9346    0.9517 C   0  0  0  0  0  0  0  0  0  0  0  0
   -3.7811   -2.3546    1.5917 H   0  0  0  0  0  0  0  0  0  0  0  0
   -3.5591   -3.0406   -0.0383 H   0  0  0  0  0  0  0  0  0  0  0  0
   -1.7921   -2.2226    0.8327 C   0  0  0  0  0  0  0  0  0  0  0  0
   -0.7611   -2.7766    1.1927 O   0  0  0  0  0  0  0  0  0  0  0  0
   -1.8201   -0.9926    0.3247 N   0  0  0  0  0  0  0  0  0  0  0  0
   -2.7141   -0.5816    0.0927 H   0  0  0  0  0  0  0  0  0  0  0  0
   -0.6481   -0.1156    0.2017 C   0  0  1  0  0  0  0  0  0  0  0  0
    0.1042   -0.6345   -0.3958 H   0  0  0  0  0  0  0  0  0  0  0  0
   -1.0420    1.1781   -0.5372 C   0  0  0  0  0  0  0  0  0  0  0  0
   -1.3779    1.9265    0.1820 H   0  0  0  0  0  0  0  0  0  0  0  0
   -0.1729    1.5869   -1.0545 H   0  0  0  0  0  0  0  0  0  0  0  0
   -2.1635    0.9709   -1.5259 C   0  0  0  0  0  0  0  0  0  0  0  0
   -2.0515    0.3510   -2.7711 N   0  0  0  0  0  0  0  0  0  0  0  0
   -3.2879    0.3386   -3.2900 C   0  0  0  0  0  0  0  0  0  0  0  0
   -3.5405   -0.0669   -4.2616 H   0  0  0  0  0  0  0  0  0  0  0  0
   -4.1626    0.8897   -2.4318 N   0  0  0  0  0  0  0  0  0  0  0  0
   -5.1578    0.9787   -2.5854 H   0  0  0  0  0  0  0  0  0  0  0  0
   -3.4719    1.2914   -1.3101 C   0  0  0  0  0  0  0  0  0  0  0  0
   -3.8732    1.7517   -0.4160 H   0  0  0  0  0  0  0  0  0  0  0  0
   -0.0283    0.1609    1.5831 C   0  0  0  0  0  0  0  0  0  0  0  0
    1.1923    0.1056    1.7329 O   0  0  0  0  0  0  0  0  0  0  0  0
   -0.8586    0.4659    2.5853 N   0  0  0  0  0  0  0  0  0  0  0  0
   -1.8521    0.3848    2.4000 H   0  0  0  0  0  0  0  0  0  0  0  0
   -0.4403    0.7694    3.9518 C   0  0  0  0  0  0  0  0  0  0  0  0
    0.5066    1.3154    3.9421 H   0  0  0  0  0  0  0  0  0  0  0  0
   -1.1988    1.3789    4.4452 H   0  0  0  0  0  0  0  0  0  0  0  0
   -0.3053   -0.1600    4.5075 H   0  0  0  0  0  0  0  0  0  0  0  0
  5  6  2  0  0  0  0
  5  7  1  0  0  0  0
  2  3  1  0  0  0  0
  2  4  1  0  0  0  0
  2  5  1  0  0  0  0
  1  2  1  0  0  0  0
 22 23  2  0  0  0  0
 22 24  1  0  0  0  0
 20 21  1  0  0  0  0
 18 19  1  0  0  0  0
 18 20  1  0  0  0  0
 16 17  1  0  0  0  0
 16 18  1  0  0  0  0
 15 16  2  0  0  0  0
 14 15  1  0  0  0  0
 14 20  2  0  0  0  0
 11 12  1  0  0  0  0
 11 13  1  0  0  0  0
 11 14  1  0  0  0  0
  9 10  1  0  0  0  0
  9 11  1  0  0  0  0
  9 22  1  0  0  0  0
  7  8  1  0  0  0  0
  7  9  1  0  0  0  0
 26 27  1  0  0  0  0
 26 28  1  0  0  0  0
 26 29  1  0  0  0  0
 24 25  1  0  0  0  0
 24 26  1  0  0  0  0
M  END
$$$$
default_name
  -OEChem-02102213163D

 29 29  0     1  0  0  0  0  0999 V2000
   -2.9561   -3.9186    1.3887 H   0  0  0  0  0  0  0  0  0  0  0  0
   -3.1191   -2.9346    0.9517 C   0  0  0  0  0  0  0  0  0  0  0  0
   -3.7811   -2.3546    1.5917 H   0  0  0  0  0  0  0  0  0  0  0  0
   -3.5591   -3.0406   -0.0383 H   0  0  0  0  0  0  0  0  0  0  0  0
   -1.7921   -2.2226    0.8327 C   0  0  0  0  0  0  0  0  0  0  0  0
   -0.7611   -2.7766    1.1927 O   0  0  0  0  0  0  0  0  0  0  0  0
   -1.8201   -0.9926    0.3247 N   0  0  0  0  0  0  0  0  0  0  0  0
   -2.7141   -0.5816    0.0927 H   0  0  0  0  0  0  0  0  0  0  0  0
   -0.6481   -0.1156    0.2017 C   0  0  1  0  0  0  0  0  0  0  0  0
    0.1042   -0.6345   -0.3958 H   0  0  0  0  0  0  0  0  0  0  0  0
   -1.0420    1.1781   -0.5372 C   0  0  0  0  0  0  0  0  0  0  0  0
   -1.3779    1.9265    0.1820 H   0  0  0  0  0  0  0  0  0  0  0  0
   -0.1729    1.5869   -1.0545 H   0  0  0  0  0  0  0  0  0  0  0  0
   -2.1635    0.9709   -1.5259 C   0  0  0  0  0  0  0  0  0  0  0  0
   -2.1368    0.1099   -2.6237 N   0  0  0  0  0  0  0  0  0  0  0  0
   -3.3467    0.2018   -3.1946 C   0  0  0  0  0  0  0  0  0  0  0  0
   -3.6471   -0.3380   -4.0838 H   0  0  0  0  0  0  0  0  0  0  0  0
   -4.1290    1.0474   -2.5030 N   0  0  0  0  0  0  0  0  0  0  0  0
   -5.0907    1.2687   -2.7224 H   0  0  0  0  0  0  0  0  0  0  0  0
   -3.4006    1.5401   -1.4432 C   0  0  0  0  0  0  0  0  0  0  0  0
   -3.7331    2.2263   -0.6745 H   0  0  0  0  0  0  0  0  0  0  0  0
   -0.0283    0.1609    1.5831 C   0  0  0  0  0  0  0  0  0  0  0  0
    1.1923    0.1056    1.7329 O   0  0  0  0  0  0  0  0  0  0  0  0
   -0.8586    0.4659    2.5853 N   0  0  0  0  0  0  0  0  0  0  0  0
   -1.8521    0.3848    2.4000 H   0  0  0  0  0  0  0  0  0  0  0  0
   -0.4403    0.7694    3.9518 C   0  0  0  0  0  0  0  0  0  0  0  0
    0.5066    1.3154    3.9421 H   0  0  0  0  0  0  0  0  0  0  0  0
   -1.1988    1.3789    4.4452 H   0  0  0  0  0  0  0  0  0  0  0  0
   -0.3053   -0.1600    4.5075 H   0  0  0  0  0  0  0  0  0  0  0  0
  5  6  2  0  0  0  0
  5  7  1  0  0  0  0
  2  3  1  0  0  0  0
  2  4  1  0  0  0  0
  2  5  1  0  0  0  0
  1  2  1  0  0  0  0
 22 23  2  0  0  0  0
 22 24  1  0  0  0  0
 20 21  1  0  0  0  0
 18 19  1  0  0  0  0
 18 20  1  0  0  0  0
 16 17  1  0  0  0  0
 16 18  1  0  0  0  0
 15 16  2  0  0  0  0
 14 15  1  0  0  0  0
 14 20  2  0  0  0  0
 11 12  1  0  0  0  0
 11 13  1  0  0  0  0
 11 14  1  0  0  0  0
  9 10  1  0  0  0  0
  9 11  1  0  0  0  0
  9 22  1  0  0  0  0
  7  8  1  0  0  0  0
  7  9  1  0  0  0  0
 26 27  1  0  0  0  0
 26 28  1  0  0  0  0
 26 29  1  0  0  0  0
 24 25  1  0  0  0  0
 24 26  1  0  0  0  0
M  END
$$$$
default_name
  -OEChem-02102213163D

 29 29  0     1  0  0  0  0  0999 V2000
   -2.9561   -3.9186    1.3887 H   0  0  0  0  0  0  0  0  0  0  0  0
   -3.1191   -2.9346    0.9517 C   0  0  0  0  0  0  0  0  0  0  0  0
   -3.7811   -2.3546    1.5917 H   0  0  0  0  0  0  0  0  0  0  0  0
   -3.5591   -3.0406   -0.0383 H   0  0  0  0  0  0  0  0  0  0  0  0
   -1.7921   -2.2226    0.8327 C   0  0  0  0  0  0  0  0  0  0  0  0
   -0.7611   -2.7766    1.1927 O   0  0  0  0  0  0  0  0  0  0  0  0
   -1.8201   -0.9926    0.3247 N   0  0  0  0  0  0  0  0  0  0  0  0
   -2.7141   -0.5816    0.0927 H   0  0  0  0  0  0  0  0  0  0  0  0
   -0.6481   -0.1156    0.2017 C   0  0  1  0  0  0  0  0  0  0  0  0
    0.1042   -0.6345   -0.3958 H   0  0  0  0  0  0  0  0  0  0  0  0
   -1.0420    1.1781   -0.5372 C   0  0  0  0  0  0  0  0  0  0  0  0
   -1.3779    1.9265    0.1820 H   0  0  0  0  0  0  0  0  0  0  0  0
   -0.1729    1.5869   -1.0545 H   0  0  0  0  0  0  0  0  0  0  0  0
   -2.1635    0.9709   -1.5259 C   0  0  0  0  0  0  0  0  0  0  0  0
   -2.2654   -0.0803   -2.4380 N   0  0  0  0  0  0  0  0  0  0  0  0
   -3.4301    0.0979   -3.0783 C   0  0  0  0  0  0  0  0  0  0  0  0
   -3.8025   -0.5477   -3.8637 H   0  0  0  0  0  0  0  0  0  0  0  0
   -4.0673    1.1803   -2.6009 N   0  0  0  0  0  0  0  0  0  0  0  0
   -4.9718    1.5110   -2.9080 H   0  0  0  0  0  0  0  0  0  0  0  0
   -3.2848    1.7426   -1.6170 C   0  0  0  0  0  0  0  0  0  0  0  0
   -3.5081    2.6113   -1.0105 H   0  0  0  0  0  0  0  0  0  0  0  0
   -0.0283    0.1609    1.5831 C   0  0  0  0  0  0  0  0  0  0  0  0
    1.1923    0.1056    1.7329 O   0  0  0  0  0  0  0  0  0  0  0  0
   -0.8586    0.4659    2.5853 N   0  0  0  0  0  0  0  0  0  0  0  0
   -1.8521    0.3848    2.4000 H   0  0  0  0  0  0  0  0  0  0  0  0
   -0.4403    0.7694    3.9518 C   0  0  0  0  0  0  0  0  0  0  0  0
    0.5066    1.3154    3.9421 H   0  0  0  0  0  0  0  0  0  0  0  0
   -1.1988    1.3789    4.4452 H   0  0  0  0  0  0  0  0  0  0  0  0
   -0.3053   -0.1600    4.5075 H   0  0  0  0  0  0  0  0  0  0  0  0
  5  6  2  0  0  0  0
  5  7  1  0  0  0  0
  2  3  1  0  0  0  0
  2  4  1  0  0  0  0
  2  5  1  0  0  0  0
  1  2  1  0  0  0  0
 22 23  2  0  0  0  0
 22 24  1  0  0  0  0
 20 21  1  0  0  0  0
 18 19  1  0  0  0  0
 18 20  1  0  0  0  0
 16 17  1  0  0  0  0
 16 18  1  0  0  0  0
 15 16  2  0  0  0  0
 14 15  1  0  0  0  0
 14 20  2  0  0  0  0
 11 12  1  0  0  0  0
 11 13  1  0  0  0  0
 11 14  1  0  0  0  0
  9 10  1  0  0  0  0
  9 11  1  0  0  0  0
  9 22  1  0  0  0  0
  7  8  1  0  0  0  0
  7  9  1  0  0  0  0
 26 27  1  0  0  0  0
 26 28  1  0  0  0  0
 26 29  1  0  0  0  0
 24 25  1  0  0  0  0
 24 26  1  0  0  0  0
M  END
$$$$
default_name
  -OEChem-02102213163D

 29 29  0     1  0  0  0  0  0999 V2000
   -2.9561   -3.9186    1.3887 H   0  0  0  0  0  0  0  0  0  0  0  0
   -3.1191   -2.9346    0.9517 C   0  0  0  0  0  0  0  0  0  0  0  0
   -3.7811   -2.3546    1.5917 H   0  0  0  0  0  0  0  0  0  0  0  0
   -3.5591   -3.0406   -0.0383 H   0  0  0  0  0  0  0  0  0  0  0  0
   -1.7921   -2.2226    0.8327 C   0  0  0  0  0  0  0  0  0  0  0  0
   -0.7611   -2.7766    1.1927 O   0  0  0  0  0  0  0  0  0  0  0  0
   -1.8201   -0.9926    0.3247 N   0  0  0  0  0  0  0  0  0  0  0  0
   -2.7141   -0.5816    0.0927 H   0  0  0  0  0  0  0  0  0  0  0  0
   -0.6481   -0.1156    0.2017 C   0  0  1  0  0  0  0  0  0  0  0  0
    0.1042   -0.6345   -0.3958 H   0  0  0  0  0  0  0  0  0  0  0  0
   -1.0420    1.1781   -0.5372 C   0  0  0  0  0  0  0  0  0  0  0  0
   -1.3779    1.9265    0.1820 H   0  0  0  0  0  0  0  0  0  0  0  0
   -0.1729    1.5869   -1.0545 H   0  0  0  0  0  0  0  0  0  0  0  0
   -2.1635    0.9709   -1.5259 C   0  0  0  0  0  0  0  0  0  0  0  0
   -2.4284   -0.2064   -2.2267 N   0  0  0  0  0  0  0  0  0  0  0  0
   -3.5324    0.0341   -2.9489 C   0  0  0  0  0  0  0  0  0  0  0  0
   -3.9959   -0.6815   -3.6162 H   0  0  0  0  0  0  0  0  0  0  0  0
   -3.9816    1.2794   -2.7189 N   0  0  0  0  0  0  0  0  0  0  0  0
   -4.8093    1.6892   -3.1297 H   0  0  0  0  0  0  0  0  0  0  0  0
   -3.1325    1.8852   -1.8197 C   0  0  0  0  0  0  0  0  0  0  0  0
   -3.2135    2.8804   -1.4010 H   0  0  0  0  0  0  0  0  0  0  0  0
   -0.0283    0.1609    1.5831 C   0  0  0  0  0  0  0  0  0  0  0  0
    1.1923    0.1056    1.7329 O   0  0  0  0  0  0  0  0  0  0  0  0
   -0.8586    0.4659    2.5853 N   0  0  0  0  0  0  0  0  0  0  0  0
   -1.8521    0.3848    2.4000 H   0  0  0  0  0  0  0  0  0  0  0  0
   -0.4403    0.7694    3.9518 C   0  0  0  0  0  0  0  0  0  0  0  0
    0.5066    1.3154    3.9421 H   0  0  0  0  0  0  0  0  0  0  0  0
   -1.1988    1.3789    4.4452 H   0  0  0  0  0  0  0  0  0  0  0  0
   -0.3053   -0.1600    4.5075 H   0  0  0  0  0  0  0  0  0  0  0  0
  5  6  2  0  0  0  0
  5  7  1  0  0  0  0
  2  3  1  0  0  0  0
  2  4  1  0  0  0  0
  2  5  1  0  0  0  0
  1  2  1  0  0  0  0
 22 23  2  0  0  0  0
 22 24  1  0  0  0  0
 20 21  1  0  0  0  0
 18 19  1  0  0  0  0
 18 20  1  0  0  0  0
 16 17  1  0  0  0  0
 16 18  1  0  0  0  0
 15 16  2  0  0  0  0
 14 15  1  0  0  0  0
 14 20  2  0  0  0  0
 11 12  1  0  0  0  0
 11 13  1  0  0  0  0
 11 14  1  0  0  0  0
  9 10  1  0  0  0  0
  9 11  1  0  0  0  0
  9 22  1  0  0  0  0
  7  8  1  0  0  0  0
  7  9  1  0  0  0  0
 26 27  1  0  0  0  0
 26 28  1  0  0  0  0
 26 29  1  0  0  0  0
 24 25  1  0  0  0  0
 24 26  1  0  0  0  0
M  END
$$$$
default_name
  -OEChem-02102213163D

 29 29  0     1  0  0  0  0  0999 V2000
   -2.9561   -3.9186    1.3887 H   0  0  0  0  0  0  0  0  0  0  0  0
   -3.1191   -2.9346    0.9517 C   0  0  0  0  0  0  0  0  0  0  0  0
   -3.7811   -2.3546    1.5917 H   0  0  0  0  0  0  0  0  0  0  0  0
   -3.5591   -3.0406   -0.0383 H   0  0  0  0  0  0  0  0  0  0  0  0
   -1.7921   -2.2226    0.8327 C   0  0  0  0  0  0  0  0  0  0  0  0
   -0.7611   -2.7766    1.1927 O   0  0  0  0  0  0  0  0  0  0  0  0
   -1.8201   -0.9926    0.3247 N   0  0  0  0  0  0  0  0  0  0  0  0
   -2.7141   -0.5816    0.0927 H   0  0  0  0  0  0  0  0  0  0  0  0
   -0.6481   -0.1156    0.2017 C   0  0  1  0  0  0  0  0  0  0  0  0
    0.1042   -0.6345   -0.3958 H   0  0  0  0  0  0  0  0  0  0  0  0
   -1.0420    1.1781   -0.5372 C   0  0  0  0  0  0  0  0  0  0  0  0
   -1.3779    1.9265    0.1820 H   0  0  0  0  0  0  0  0  0  0  0  0
   -0.1729    1.5869   -1.0545 H   0  0  0  0  0  0  0  0  0  0  0  0
   -2.1635    0.9709   -1.5259 C   0  0  0  0  0  0  0  0  0  0  0  0
   -2.6147   -0.2600   -2.0040 N   0  0  0  0  0  0  0  0  0  0  0  0
   -3.6466    0.0147   -2.8153 C   0  0  0  0  0  0  0  0  0  0  0  0
   -4.2141   -0.7304   -3.3584 H   0  0  0  0  0  0  0  0  0  0  0  0
   -3.8779    1.3379   -2.8488 N   0  0  0  0  0  0  0  0  0  0  0  0
   -4.6142    1.7912   -3.3724 H   0  0  0  0  0  0  0  0  0  0  0  0
   -2.9539    1.9581   -2.0375 C   0  0  0  0  0  0  0  0  0  0  0  0
   -2.8695    3.0154   -1.8196 H   0  0  0  0  0  0  0  0  0  0  0  0
   -0.0283    0.1609    1.5831 C   0  0  0  0  0  0  0  0  0  0  0  0
    1.1923    0.1056    1.7329 O   0  0  0  0  0  0  0  0  0  0  0  0
   -0.8586    0.4659    2.5853 N   0  0  0  0  0  0  0  0  0  0  0  0
   -1.8521    0.3848    2.4000 H   0  0  0  0  0  0  0  0  0  0  0  0
   -0.4403    0.7694    3.9518 C   0  0  0  0  0  0  0  0  0  0  0  0
    0.5066    1.3154    3.9421 H   0  0  0  0  0  0  0  0  0  0  0  0
   -1.1988    1.3789    4.4452 H   0  0  0  0  0  0  0  0  0  0  0  0
   -0.3053   -0.1600    4.5075 H   0  0  0  0  0  0  0  0  0  0  0  0
  5  6  2  0  0  0  0
  5  7  1  0  0  0  0
  2  3  1  0  0  0  0
  2  4  1  0  0  0  0
  2  5  1  0  0  0  0
  1  2  1  0  0  0  0
 22 23  2  0  0  0  0
 22 24  1  0  0  0  0
 20 21  1  0  0  0  0
 18 19  1  0  0  0  0
 18 20  1  0  0  0  0
 16 17  1  0  0  0  0
 16 18  1  0  0  0  0
 15 16  2  0  0  0  0
 14 15  1  0  0  0  0
 14 20  2  0  0  0  0
 11 12  1  0  0  0  0
 11 13  1  0  0  0  0
 11 14  1  0  0  0  0
  9 10  1  0  0  0  0
  9 11  1  0  0  0  0
  9 22  1  0  0  0  0
  7  8  1  0  0  0  0
  7  9  1  0  0  0  0
 26 27  1  0  0  0  0
 26 28  1  0  0  0  0
 26 29  1  0  0  0  0
 24 25  1  0  0  0  0
 24 26  1  0  0  0  0
M  END
$$$$
default_name
  -OEChem-02102213163D

 29 29  0     1  0  0  0  0  0999 V2000
   -2.9561   -3.9186    1.3887 H   0  0  0  0  0  0  0  0  0  0  0  0
   -3.1191   -2.9346    0.9517 C   0  0  0  0  0  0  0  0  0  0  0  0
   -3.7811   -2.3546    1.5917 H   0  0  0  0  0  0  0  0  0  0  0  0
   -3.5591   -3.0406   -0.0383 H   0  0  0  0  0  0  0  0  0  0  0  0
   -1.7921   -2.2226    0.8327 C   0  0  0  0  0  0  0  0  0  0  0  0
   -0.7611   -2.7766    1.1927 O   0  0  0  0  0  0  0  0  0  0  0  0
   -1.8201   -0.9926    0.3247 N   0  0  0  0  0  0  0  0  0  0  0  0
   -2.7141   -0.5816    0.0927 H   0  0  0  0  0  0  0  0  0  0  0  0
   -0.6481   -0.1156    0.2017 C   0  0  1  0  0  0  0  0  0  0  0  0
    0.1042   -0.6345   -0.3958 H   0  0  0  0  0  0  0  0  0  0  0  0
   -1.0420    1.1781   -0.5372 C   0  0  0  0  0  0  0  0  0  0  0  0
   -1.3779    1.9265    0.1820 H   0  0  0  0  0  0  0  0  0  0  0  0
   -0.1729    1.5869   -1.0545 H   0  0  0  0  0  0  0  0  0  0  0  0
   -2.1635    0.9709   -1.5259 C   0  0  0  0  0  0  0  0  0  0  0  0
   -2.8117   -0.2374   -1.7853 N   0  0  0  0  0  0  0  0  0  0  0  0
   -3.7649    0.0410   -2.6866 C   0  0  0  0  0  0  0  0  0  0  0  0
   -4.4424   -0.6910   -3.1076 H   0  0  0  0  0  0  0  0  0  0  0  0
   -3.7631    1.3518   -2.9819 N   0  0  0  0  0  0  0  0  0  0  0  0
   -4.3999    1.8100   -3.6194 H   0  0  0  0  0  0  0  0  0  0  0  0
   -2.7613    1.9564   -2.2556 C   0  0  0  0  0  0  0  0  0  0  0  0
   -2.4995    3.0069   -2.2376 H   0  0  0  0  0  0  0  0  0  0  0  0
   -0.0283    0.1609    1.5831 C   0  0  0  0  0  0  0  0  0  0  0  0
    1.1923    0.1056    1.7329 O   0  0  0  0  0  0  0  0  0  0  0  0
   -0.8586    0.4659    2.5853 N   0  0  0  0  0  0  0  0  0  0  0  0
   -1.8521    0.3848    2.4000 H   0  0  0  0  0  0  0  0  0  0  0  0
   -0.4403    0.7694    3.9518 C   0  0  0  0  0  0  0  0  0  0  0  0
    0.5066    1.3154    3.9421 H   0  0  0  0  0  0  0  0  0  0  0  0
   -1.1988    1.3789    4.4452 H   0  0  0  0  0  0  0  0  0  0  0  0
   -0.3053   -0.1600    4.5075 H   0  0  0  0  0  0  0  0  0  0  0  0
  5  6  2  0  0  0  0
  5  7  1  0  0  0  0
  2  3  1  0  0  0  0
  2  4  1  0  0  0  0
  2  5  1  0  0  0  0
  1  2  1  0  0  0  0
 22 23  2  0  0  0  0
 22 24  1  0  0  0  0
 20 21  1  0  0  0  0
 18 19  1  0  0  0  0
 18 20  1  0  0  0  0
 16 17  1  0  0  0  0
 16 18  1  0  0  0  0
 15 16  2  0  0  0  0
 14 15  1  0  0  0  0
 14 20  2  0  0  0  0
 11 12  1  0  0  0  0
 11 13  1  0  0  0  0
 11 14  1  0  0  0  0
  9 10  1  0  0  0  0
  9 11  1  0  0  0  0
  9 22  1  0  0  0  0
  7  8  1  0  0  0  0
  7  9  1  0  0  0  0
 26 27  1  0  0  0  0
 26 28  1  0  0  0  0
 26 29  1  0  0  0  0
 24 25  1  0  0  0  0
 24 26  1  0  0  0  0
M  END
$$$$
default_name
  -OEChem-02102213163D

 29 29  0     1  0  0  0  0  0999 V2000
   -2.9561   -3.9186    1.3887 H   0  0  0  0  0  0  0  0  0  0  0  0
   -3.1191   -2.9346    0.9517 C   0  0  0  0  0  0  0  0  0  0  0  0
   -3.7811   -2.3546    1.5917 H   0  0  0  0  0  0  0  0  0  0  0  0
   -3.5591   -3.0406   -0.0383 H   0  0  0  0  0  0  0  0  0  0  0  0
   -1.7921   -2.2226    0.8327 C   0  0  0  0  0  0  0  0  0  0  0  0
   -0.7611   -2.7766    1.1927 O   0  0  0  0  0  0  0  0  0  0  0  0
   -1.8201   -0.9926    0.3247 N   0  0  0  0  0  0  0  0  0  0  0  0
   -2.7141   -0.5816    0.0927 H   0  0  0  0  0  0  0  0  0  0  0  0
   -0.6481   -0.1156    0.2017 C   0  0  1  0  0  0  0  0  0  0  0  0
    0.1042   -0.6345   -0.3958 H   0  0  0  0  0  0  0  0  0  0  0  0
   -1.0420    1.1781   -0.5372 C   0  0  0  0  0  0  0  0  0  0  0  0
   -1.3779    1.9265    0.1820 H   0  0  0  0  0  0  0  0  0  0  0  0
   -0.1729    1.5869   -1.0545 H   0  0  0  0  0  0  0  0  0  0  0  0
   -2.1635    0.9709   -1.5259 C   0  0  0  0  0  0  0  0  0  0  0  0
   -3.0060   -0.1400   -1.5854 N   0  0  0  0  0  0  0  0  0  0  0  0
   -3.8793    0.1113   -2.5715 C   0  0  0  0  0  0  0  0  0  0  0  0
   -4.6652   -0.5661   -2.8811 H   0  0  0  0  0  0  0  0  0  0  0  0
   -3.6452    1.3202   -3.1090 N   0  0  0  0  0  0  0  0  0  0  0  0
   -4.1809    1.7443   -3.8541 H   0  0  0  0  0  0  0  0  0  0  0  0
   -2.5679    1.8802   -2.4591 C   0  0  0  0  0  0  0  0  0  0  0  0
   -2.1286    2.8555   -2.6265 H   0  0  0  0  0  0  0  0  0  0  0  0
   -0.0283    0.1609    1.5831 C   0  0  0  0  0  0  0  0  0  0  0  0
    1.1923    0.1056    1.7329 O   0  0  0  0  0  0  0  0  0  0  0  0
   -0.8586    0.4659    2.5853 N   0  0  0  0  0  0  0  0  0  0  0  0
   -1.8521    0.3848    2.4000 H   0  0  0  0  0  0  0  0  0  0  0  0
   -0.4403    0.7694    3.9518 C   0  0  0  0  0  0  0  0  0  0  0  0
    0.5066    1.3154    3.9421 H   0  0  0  0  0  0  0  0  0  0  0  0
   -1.1988    1.3789    4.4452 H   0  0  0  0  0  0  0  0  0  0  0  0
   -0.3053   -0.1600    4.5075 H   0  0  0  0  0  0  0  0  0  0  0  0
  5  6  2  0  0  0  0
  5  7  1  0  0  0  0
  2  3  1  0  0  0  0
  2  4  1  0  0  0  0
  2  5  1  0  0  0  0
  1  2  1  0  0  0  0
 22 23  2  0  0  0  0
 22 24  1  0  0  0  0
 20 21  1  0  0  0  0
 18 19  1  0  0  0  0
 18 20  1  0  0  0  0
 16 17  1  0  0  0  0
 16 18  1  0  0  0  0
 15 16  2  0  0  0  0
 14 15  1  0  0  0  0
 14 20  2  0  0  0  0
 11 12  1  0  0  0  0
 11 13  1  0  0  0  0
 11 14  1  0  0  0  0
  9 10  1  0  0  0  0
  9 11  1  0  0  0  0
  9 22  1  0  0  0  0
  7  8  1  0  0  0  0
  7  9  1  0  0  0  0
 26 27  1  0  0  0  0
 26 28  1  0  0  0  0
 26 29  1  0  0  0  0
 24 25  1  0  0  0  0
 24 26  1  0  0  0  0
M  END
$$$$
default_name
  -OEChem-02102213163D

 29 29  0     1  0  0  0  0  0999 V2000
   -2.9561   -3.9186    1.3887 H   0  0  0  0  0  0  0  0  0  0  0  0
   -3.1191   -2.9346    0.9517 C   0  0  0  0  0  0  0  0  0  0  0  0
   -3.7811   -2.3546    1.5917 H   0  0  0  0  0  0  0  0  0  0  0  0
   -3.5591   -3.0406   -0.0383 H   0  0  0  0  0  0  0  0  0  0  0  0
   -1.7921   -2.2226    0.8327 C   0  0  0  0  0  0  0  0  0  0  0  0
   -0.7611   -2.7766    1.1927 O   0  0  0  0  0  0  0  0  0  0  0  0
   -1.8201   -0.9926    0.3247 N   0  0  0  0  0  0  0  0  0  0  0  0
   -2.7141   -0.5816    0.0927 H   0  0  0  0  0  0  0  0  0  0  0  0
   -0.6481   -0.1156    0.2017 C   0  0  1  0  0  0  0  0  0  0  0  0
    0.1042   -0.6345   -0.3958 H   0  0  0  0  0  0  0  0  0  0  0  0
   -1.0420    1.1781   -0.5372 C   0  0  0  0  0  0  0  0  0  0  0  0
   -1.3779    1.9265    0.1820 H   0  0  0  0  0  0  0  0  0  0  0  0
   -0.1729    1.5869   -1.0545 H   0  0  0  0  0  0  0  0  0  0  0  0
   -2.1635    0.9709   -1.5259 C   0  0  0  0  0  0  0  0  0  0  0  0
   -3.1842    0.0254   -1.4179 N   0  0  0  0  0  0  0  0  0  0  0  0
   -3.9820    0.2206   -2.4779 C   0  0  0  0  0  0  0  0  0  0  0  0
   -4.8672   -0.3640   -2.6943 H   0  0  0  0  0  0  0  0  0  0  0  0
   -3.5322    1.2453   -3.2216 N   0  0  0  0  0  0  0  0  0  0  0  0
   -3.9722    1.5985   -4.0603 H   0  0  0  0  0  0  0  0  0  0  0  0
   -2.3867    1.7346   -2.6341 C   0  0  0  0  0  0  0  0  0  0  0  0
   -1.7822    2.5717   -2.9600 H   0  0  0  0  0  0  0  0  0  0  0  0
   -0.0283    0.1609    1.5831 C   0  0  0  0  0  0  0  0  0  0  0  0
    1.1923    0.1056    1.7329 O   0  0  0  0  0  0  0  0  0  0  0  0
   -0.8586    0.4659    2.5853 N   0  0  0  0  0  0  0  0  0  0  0  0
   -1.8521    0.3848    2.4000 H   0  0  0  0  0  0  0  0  0  0  0  0
   -0.4403    0.7694    3.9518 C   0  0  0  0  0  0  0  0  0  0  0  0
    0.5066    1.3154    3.9421 H   0  0  0  0  0  0  0  0  0  0  0  0
   -1.1988    1.3789    4.4452 H   0  0  0  0  0  0  0  0  0  0  0  0
   -0.3053   -0.1600    4.5075 H   0  0  0  0  0  0  0  0  0  0  0  0
  5  6  2  0  0  0  0
  5  7  1  0  0  0  0
  2  3  1  0  0  0  0
  2  4  1  0  0  0  0
  2  5  1  0  0  0  0
  1  2  1  0  0  0  0
 22 23  2  0  0  0  0
 22 24  1  0  0  0  0
 20 21  1  0  0  0  0
 18 19  1  0  0  0  0
 18 20  1  0  0  0  0
 16 17  1  0  0  0  0
 16 18  1  0  0  0  0
 15 16  2  0  0  0  0
 14 15  1  0  0  0  0
 14 20  2  0  0  0  0
 11 12  1  0  0  0  0
 11 13  1  0  0  0  0
 11 14  1  0  0  0  0
  9 10  1  0  0  0  0
  9 11  1  0  0  0  0
  9 22  1  0  0  0  0
  7  8  1  0  0  0  0
  7  9  1  0  0  0  0
 26 27  1  0  0  0  0
 26 28  1  0  0  0  0
 26 29  1  0  0  0  0
 24 25  1  0  0  0  0
 24 26  1  0  0  0  0
M  END
$$$$
default_name
  -OEChem-02102213163D

 29 29  0     1  0  0  0  0  0999 V2000
   -2.9561   -3.9186    1.3887 H   0  0  0  0  0  0  0  0  0  0  0  0
   -3.1191   -2.9346    0.9517 C   0  0  0  0  0  0  0  0  0  0  0  0
   -3.7811   -2.3546    1.5917 H   0  0  0  0  0  0  0  0  0  0  0  0
   -3.5591   -3.0406   -0.0383 H   0  0  0  0  0  0  0  0  0  0  0  0
   -1.7921   -2.2226    0.8327 C   0  0  0  0  0  0  0  0  0  0  0  0
   -0.7611   -2.7766    1.1927 O   0  0  0  0  0  0  0  0  0  0  0  0
   -1.8201   -0.9926    0.3247 N   0  0  0  0  0  0  0  0  0  0  0  0
   -2.7141   -0.5816    0.0927 H   0  0  0  0  0  0  0  0  0  0  0  0
   -0.6481   -0.1156    0.2017 C   0  0  1  0  0  0  0  0  0  0  0  0
    0.1042   -0.6345   -0.3958 H   0  0  0  0  0  0  0  0  0  0  0  0
   -1.0420    1.1781   -0.5372 C   0  0  0  0  0  0  0  0  0  0  0  0
   -1.3779    1.9265    0.1820 H   0  0  0  0  0  0  0  0  0  0  0  0
   -0.1729    1.5869   -1.0545 H   0  0  0  0  0  0  0  0  0  0  0  0
   -2.1635    0.9709   -1.5259 C   0  0  0  0  0  0  0  0  0  0  0  0
   -3.3342    0.2476   -1.2943 N   0  0  0  0  0  0  0  0  0  0  0  0
   -4.0660    0.3617   -2.4122 C   0  0  0  0  0  0  0  0  0  0  0  0
   -5.0348   -0.0987   -2.5599 H   0  0  0  0  0  0  0  0  0  0  0  0
   -3.4317    1.1321   -3.3118 N   0  0  0  0  0  0  0  0  0  0  0  0
   -3.7880    1.3827   -4.2240 H   0  0  0  0  0  0  0  0  0  0  0  0
   -2.2302    1.5296   -2.7687 C   0  0  0  0  0  0  0  0  0  0  0  0
   -1.4839    2.1747   -3.2151 H   0  0  0  0  0  0  0  0  0  0  0  0
   -0.0283    0.1609    1.5831 C   0  0  0  0  0  0  0  0  0  0  0  0
    1.1923    0.1056    1.7329 O   0  0  0  0  0  0  0  0  0  0  0  0
   -0.8586    0.4659    2.5853 N   0  0  0  0  0  0  0  0  0  0  0  0
   -1.8521    0.3848    2.4000 H   0  0  0  0  0  0  0  0  0  0  0  0
   -0.4403    0.7694    3.9518 C   0  0  0  0  0  0  0  0  0  0  0  0
    0.5066    1.3154    3.9421 H   0  0  0  0  0  0  0  0  0  0  0  0
   -1.1988    1.3789    4.4452 H   0  0  0  0  0  0  0  0  0  0  0  0
   -0.3053   -0.1600    4.5075 H   0  0  0  0  0  0  0  0  0  0  0  0
  5  6  2  0  0  0  0
  5  7  1  0  0  0  0
  2  3  1  0  0  0  0
  2  4  1  0  0  0  0
  2  5  1  0  0  0  0
  1  2  1  0  0  0  0
 22 23  2  0  0  0  0
 22 24  1  0  0  0  0
 20 21  1  0  0  0  0
 18 19  1  0  0  0  0
 18 20  1  0  0  0  0
 16 17  1  0  0  0  0
 16 18  1  0  0  0  0
 15 16  2  0  0  0  0
 14 15  1  0  0  0  0
 14 20  2  0  0  0  0
 11 12  1  0  0  0  0
 11 13  1  0  0  0  0
 11 14  1  0  0  0  0
  9 10  1  0  0  0  0
  9 11  1  0  0  0  0
  9 22  1  0  0  0  0
  7  8  1  0  0  0  0
  7  9  1  0  0  0  0
 26 27  1  0  0  0  0
 26 28  1  0  0  0  0
 26 29  1  0  0  0  0
 24 25  1  0  0  0  0
 24 26  1  0  0  0  0
M  END
$$$$
default_name
  -OEChem-02102213163D

 29 29  0     1  0  0  0  0  0999 V2000
   -2.9561   -3.9186    1.3887 H   0  0  0  0  0  0  0  0  0  0  0  0
   -3.1191   -2.9346    0.9517 C   0  0  0  0  0  0  0  0  0  0  0  0
   -3.7811   -2.3546    1.5917 H   0  0  0  0  0  0  0  0  0  0  0  0
   -3.5591   -3.0406   -0.0383 H   0  0  0  0  0  0  0  0  0  0  0  0
   -1.7921   -2.2226    0.8327 C   0  0  0  0  0  0  0  0  0  0  0  0
   -0.7611   -2.7766    1.1927 O   0  0  0  0  0  0  0  0  0  0  0  0
   -1.8201   -0.9926    0.3247 N   0  0  0  0  0  0  0  0  0  0  0  0
   -2.7141   -0.5816    0.0927 H   0  0  0  0  0  0  0  0  0  0  0  0
   -0.6481   -0.1156    0.2017 C   0  0  1  0  0  0  0  0  0  0  0  0
    0.1042   -0.6345   -0.3958 H   0  0  0  0  0  0  0  0  0  0  0  0
   -1.0420    1.1781   -0.5372 C   0  0  0  0  0  0  0  0  0  0  0  0
   -1.3779    1.9265    0.1820 H   0  0  0  0  0  0  0  0  0  0  0  0
   -0.1729    1.5869   -1.0545 H   0  0  0  0  0  0  0  0  0  0  0  0
   -2.1635    0.9709   -1.5259 C   0  0  0  0  0  0  0  0  0  0  0  0
   -3.4459    0.5114   -1.2229 N   0  0  0  0  0  0  0  0  0  0  0  0
   -4.1256    0.5248   -2.3788 C   0  0  0  0  0  0  0  0  0  0  0  0
   -5.1564    0.2118   -2.4870 H   0  0  0  0  0  0  0  0  0  0  0  0
   -3.3506    0.9884   -3.3737 N   0  0  0  0  0  0  0  0  0  0  0  0
   -3.6408    1.1116   -4.3341 H   0  0  0  0  0  0  0  0  0  0  0  0
   -2.1089    1.2792   -2.8537 C   0  0  0  0  0  0  0  0  0  0  0  0
   -1.2540    1.6915   -3.3747 H   0  0  0  0  0  0  0  0  0  0  0  0
   -0.0283    0.1609    1.5831 C   0  0  0  0  0  0  0  0  0  0  0  0
    1.1923    0.1056    1.7329 O   0  0  0  0  0  0  0  0  0  0  0  0
   -0.8586    0.4659    2.5853 N   0  0  0  0  0  0  0  0  0  0  0  0
   -1.8521    0.3848    2.4000 H   0  0  0  0  0  0  0  0  0  0  0  0
   -0.4403    0.7694    3.9518 C   0  0  0  0  0  0  0  0  0  0  0  0
    0.5066    1.3154    3.9421 H   0  0  0  0  0  0  0  0  0  0  0  0
   -1.1988    1.3789    4.4452 H   0  0  0  0  0  0  0  0  0  0  0  0
   -0.3053   -0.1600    4.5075 H   0  0  0  0  0  0  0  0  0  0  0  0
  5  6  2  0  0  0  0
  5  7  1  0  0  0  0
  2  3  1  0  0  0  0
  2  4  1  0  0  0  0
  2  5  1  0  0  0  0
  1  2  1  0  0  0  0
 22 23  2  0  0  0  0
 22 24  1  0  0  0  0
 20 21  1  0  0  0  0
 18 19  1  0  0  0  0
 18 20  1  0  0  0  0
 16 17  1  0  0  0  0
 16 18  1  0  0  0  0
 15 16  2  0  0  0  0
 14 15  1  0  0  0  0
 14 20  2  0  0  0  0
 11 12  1  0  0  0  0
 11 13  1  0  0  0  0
 11 14  1  0  0  0  0
  9 10  1  0  0  0  0
  9 11  1  0  0  0  0
  9 22  1  0  0  0  0
  7  8  1  0  0  0  0
  7  9  1  0  0  0  0
 26 27  1  0  0  0  0
 26 28  1  0  0  0  0
 26 29  1  0  0  0  0
 24 25  1  0  0  0  0
 24 26  1  0  0  0  0
M  END
$$$$
default_name
  -OEChem-02102213163D

 29 29  0     1  0  0  0  0  0999 V2000
   -2.9561   -3.9186    1.3887 H   0  0  0  0  0  0  0  0  0  0  0  0
   -3.1191   -2.9346    0.9517 C   0  0  0  0  0  0  0  0  0  0  0  0
   -3.7811   -2.3546    1.5917 H   0  0  0  0  0  0  0  0  0  0  0  0
   -3.5591   -3.0406   -0.0383 H   0  0  0  0  0  0  0  0  0  0  0  0
   -1.7921   -2.2226    0.8327 C   0  0  0  0  0  0  0  0  0  0  0  0
   -0.7611   -2.7766    1.1927 O   0  0  0  0  0  0  0  0  0  0  0  0
   -1.8201   -0.9926    0.3247 N   0  0  0  0  0  0  0  0  0  0  0  0
   -2.7141   -0.5816    0.0927 H   0  0  0  0  0  0  0  0  0  0  0  0
   -0.6481   -0.1156    0.2017 C   0  0  1  0  0  0  0  0  0  0  0  0
    0.1042   -0.6345   -0.3958 H   0  0  0  0  0  0  0  0  0  0  0  0
   -1.0420    1.1781   -0.5372 C   0  0  0  0  0  0  0  0  0  0  0  0
   -1.3779    1.9265    0.1820 H   0  0  0  0  0  0  0  0  0  0  0  0
   -0.1729    1.5869   -1.0545 H   0  0  0  0  0  0  0  0  0  0  0  0
   -2.1635    0.9709   -1.5259 C   0  0  0  0  0  0  0  0  0  0  0  0
   -3.5115    0.7989   -1.2087 N   0  0  0  0  0  0  0  0  0  0  0  0
   -4.1567    0.6989   -2.3801 C   0  0  0  0  0  0  0  0  0  0  0  0
   -5.2238    0.5464   -2.4806 H   0  0  0  0  0  0  0  0  0  0  0  0
   -3.2944    0.8239   -3.4029 N   0  0  0  0  0  0  0  0  0  0  0  0
   -3.5407    0.8035   -4.3831 H   0  0  0  0  0  0  0  0  0  0  0  0
   -2.0313    1.0004   -2.8834 C   0  0  0  0  0  0  0  0  0  0  0  0
   -1.1082    1.1552   -3.4277 H   0  0  0  0  0  0  0  0  0  0  0  0
   -0.0283    0.1609    1.5831 C   0  0  0  0  0  0  0  0  0  0  0  0
    1.1923    0.1056    1.7329 O   0  0  0  0  0  0  0  0  0  0  0  0
   -0.8586    0.4659    2.5853 N   0  0  0  0  0  0  0  0  0  0  0  0
   -1.8521    0.3848    2.4000 H   0  0  0  0  0  0  0  0  0  0  0  0
   -0.4403    0.7694    3.9518 C   0  0  0  0  0  0  0  0  0  0  0  0
    0.5066    1.3154    3.9421 H   0  0  0  0  0  0  0  0  0  0  0  0
   -1.1988    1.3789    4.4452 H   0  0  0  0  0  0  0  0  0  0  0  0
   -0.3053   -0.1600    4.5075 H   0  0  0  0  0  0  0  0  0  0  0  0
  5  6  2  0  0  0  0
  5  7  1  0  0  0  0
  2  3  1  0  0  0  0
  2  4  1  0  0  0  0
  2  5  1  0  0  0  0
  1  2  1  0  0  0  0
 22 23  2  0  0  0  0
 22 24  1  0  0  0  0
 20 21  1  0  0  0  0
 18 19  1  0  0  0  0
 18 20  1  0  0  0  0
 16 17  1  0  0  0  0
 16 18  1  0  0  0  0
 15 16  2  0  0  0  0
 14 15  1  0  0  0  0
 14 20  2  0  0  0  0
 11 12  1  0  0  0  0
 11 13  1  0  0  0  0
 11 14  1  0  0  0  0
  9 10  1  0  0  0  0
  9 11  1  0  0  0  0
  9 22  1  0  0  0  0
  7  8  1  0  0  0  0
  7  9  1  0  0  0  0
 26 27  1  0  0  0  0
 26 28  1  0  0  0  0
 26 29  1  0  0  0  0
 24 25  1  0  0  0  0
 24 26  1  0  0  0  0
M  END
$$$$
default_name
  -OEChem-02102213163D

 29 29  0     1  0  0  0  0  0999 V2000
   -2.9561   -3.9186    1.3887 H   0  0  0  0  0  0  0  0  0  0  0  0
   -3.1191   -2.9346    0.9517 C   0  0  0  0  0  0  0  0  0  0  0  0
   -3.7811   -2.3546    1.5917 H   0  0  0  0  0  0  0  0  0  0  0  0
   -3.5591   -3.0406   -0.0383 H   0  0  0  0  0  0  0  0  0  0  0  0
   -1.7921   -2.2226    0.8327 C   0  0  0  0  0  0  0  0  0  0  0  0
   -0.7611   -2.7766    1.1927 O   0  0  0  0  0  0  0  0  0  0  0  0
   -1.8201   -0.9926    0.3247 N   0  0  0  0  0  0  0  0  0  0  0  0
   -2.7141   -0.5816    0.0927 H   0  0  0  0  0  0  0  0  0  0  0  0
   -0.6481   -0.1156    0.2017 C   0  0  1  0  0  0  0  0  0  0  0  0
    0.1042   -0.6345   -0.3958 H   0  0  0  0  0  0  0  0  0  0  0  0
   -1.0420    1.1781   -0.5372 C   0  0  0  0  0  0  0  0  0  0  0  0
   -1.3779    1.9265    0.1820 H   0  0  0  0  0  0  0  0  0  0  0  0
   -0.1729    1.5869   -1.0545 H   0  0  0  0  0  0  0  0  0  0  0  0
   -2.1635    0.9709   -1.5259 C   0  0  0  0  0  0  0  0  0  0  0  0
   -3.5267    1.0905   -1.2526 N   0  0  0  0  0  0  0  0  0  0  0  0
   -4.1571    0.8721   -2.4159 C   0  0  0  0  0  0  0  0  0  0  0  0
   -5.2325    0.8822   -2.5412 H   0  0  0  0  0  0  0  0  0  0  0  0
   -3.2670    0.6498   -3.3975 N   0  0  0  0  0  0  0  0  0  0  0  0
   -3.4944    0.4795   -4.3676 H   0  0  0  0  0  0  0  0  0  0  0  0
   -2.0024    0.7122   -2.8557 C   0  0  0  0  0  0  0  0  0  0  0  0
   -1.0563    0.6022   -3.3706 H   0  0  0  0  0  0  0  0  0  0  0  0
   -0.0283    0.1609    1.5831 C   0  0  0  0  0  0  0  0  0  0  0  0
    1.1923    0.1056    1.7329 O   0  0  0  0  0  0  0  0  0  0  0  0
   -0.8586    0.4659    2.5853 N   0  0  0  0  0  0  0  0  0  0  0  0
   -1.8521    0.3848    2.4000 H   0  0  0  0  0  0  0  0  0  0  0  0
   -0.4403    0.7694    3.9518 C   0  0  0  0  0  0  0  0  0  0  0  0
    0.5066    1.3154    3.9421 H   0  0  0  0  0  0  0  0  0  0  0  0
   -1.1988    1.3789    4.4452 H   0  0  0  0  0  0  0  0  0  0  0  0
   -0.3053   -0.1600    4.5075 H   0  0  0  0  0  0  0  0  0  0  0  0
  5  6  2  0  0  0  0
  5  7  1  0  0  0  0
  2  3  1  0  0  0  0
  2  4  1  0  0  0  0
  2  5  1  0  0  0  0
  1  2  1  0  0  0  0
 22 23  2  0  0  0  0
 22 24  1  0  0  0  0
 20 21  1  0  0  0  0
 18 19  1  0  0  0  0
 18 20  1  0  0  0  0
 16 17  1  0  0  0  0
 16 18  1  0  0  0  0
 15 16  2  0  0  0  0
 14 15  1  0  0  0  0
 14 20  2  0  0  0  0
 11 12  1  0  0  0  0
 11 13  1  0  0  0  0
 11 14  1  0  0  0  0
  9 10  1  0  0  0  0
  9 11  1  0  0  0  0
  9 22  1  0  0  0  0
  7  8  1  0  0  0  0
  7  9  1  0  0  0  0
 26 27  1  0  0  0  0
 26 28  1  0  0  0  0
 26 29  1  0  0  0  0
 24 25  1  0  0  0  0
 24 26  1  0  0  0  0
M  END
$$$$
default_name
  -OEChem-02102213163D

 29 29  0     1  0  0  0  0  0999 V2000
   -2.9561   -3.9186    1.3887 H   0  0  0  0  0  0  0  0  0  0  0  0
   -3.1191   -2.9346    0.9517 C   0  0  0  0  0  0  0  0  0  0  0  0
   -3.7811   -2.3546    1.5917 H   0  0  0  0  0  0  0  0  0  0  0  0
   -3.5591   -3.0406   -0.0383 H   0  0  0  0  0  0  0  0  0  0  0  0
   -1.7921   -2.2226    0.8327 C   0  0  0  0  0  0  0  0  0  0  0  0
   -0.7611   -2.7766    1.1927 O   0  0  0  0  0  0  0  0  0  0  0  0
   -1.8201   -0.9926    0.3247 N   0  0  0  0  0  0  0  0  0  0  0  0
   -2.7141   -0.5816    0.0927 H   0  0  0  0  0  0  0  0  0  0  0  0
   -0.6481   -0.1156    0.2017 C   0  0  1  0  0  0  0  0  0  0  0  0
    0.1042   -0.6345   -0.3958 H   0  0  0  0  0  0  0  0  0  0  0  0
   -1.0420    1.1781   -0.5372 C   0  0  0  0  0  0  0  0  0  0  0  0
   -1.3779    1.9265    0.1820 H   0  0  0  0  0  0  0  0  0  0  0  0
   -0.1729    1.5869   -1.0545 H   0  0  0  0  0  0  0  0  0  0  0  0
   -2.1635    0.9709   -1.5259 C   0  0  0  0  0  0  0  0  0  0  0  0
   -3.4904    1.3662   -1.3516 N   0  0  0  0  0  0  0  0  0  0  0  0
   -4.1269    1.0325   -2.4838 C   0  0  0  0  0  0  0  0  0  0  0  0
   -5.1817    1.1964   -2.6646 H   0  0  0  0  0  0  0  0  0  0  0  0
   -3.2702    0.4781   -3.3579 N   0  0  0  0  0  0  0  0  0  0  0  0
   -3.5053    0.1618   -4.2887 H   0  0  0  0  0  0  0  0  0  0  0  0
   -2.0245    0.4343   -2.7725 C   0  0  0  0  0  0  0  0  0  0  0  0
   -1.1020    0.0703   -3.2072 H   0  0  0  0  0  0  0  0  0  0  0  0
   -0.0283    0.1609    1.5831 C   0  0  0  0  0  0  0  0  0  0  0  0
    1.1923    0.1056    1.7329 O   0  0  0  0  0  0  0  0  0  0  0  0
   -0.8586    0.4659    2.5853 N   0  0  0  0  0  0  0  0  0  0  0  0
   -1.8521    0.3848    2.4000 H   0  0  0  0  0  0  0  0  0  0  0  0
   -0.4403    0.7694    3.9518 C   0  0  0  0  0  0  0  0  0  0  0  0
    0.5066    1.3154    3.9421 H   0  0  0  0  0  0  0  0  0  0  0  0
   -1.1988    1.3789    4.4452 H   0  0  0  0  0  0  0  0  0  0  0  0
   -0.3053   -0.1600    4.5075 H   0  0  0  0  0  0  0  0  0  0  0  0
  5  6  2  0  0  0  0
  5  7  1  0  0  0  0
  2  3  1  0  0  0  0
  2  4  1  0  0  0  0
  2  5  1  0  0  0  0
  1  2  1  0  0  0  0
 22 23  2  0  0  0  0
 22 24  1  0  0  0  0
 20 21  1  0  0  0  0
 18 19  1  0  0  0  0
 18 20  1  0  0  0  0
 16 17  1  0  0  0  0
 16 18  1  0  0  0  0
 15 16  2  0  0  0  0
 14 15  1  0  0  0  0
 14 20  2  0  0  0  0
 11 12  1  0  0  0  0
 11 13  1  0  0  0  0
 11 14  1  0  0  0  0
  9 10  1  0  0  0  0
  9 11  1  0  0  0  0
  9 22  1  0  0  0  0
  7  8  1  0  0  0  0
  7  9  1  0  0  0  0
 26 27  1  0  0  0  0
 26 28  1  0  0  0  0
 26 29  1  0  0  0  0
 24 25  1  0  0  0  0
 24 26  1  0  0  0  0
M  END
$$$$
default_name
  -OEChem-02102213163D

 29 29  0     1  0  0  0  0  0999 V2000
   -2.9561   -3.9186    1.3887 H   0  0  0  0  0  0  0  0  0  0  0  0
   -3.1191   -2.9346    0.9517 C   0  0  0  0  0  0  0  0  0  0  0  0
   -3.7811   -2.3546    1.5917 H   0  0  0  0  0  0  0  0  0  0  0  0
   -3.5591   -3.0406   -0.0383 H   0  0  0  0  0  0  0  0  0  0  0  0
   -1.7921   -2.2226    0.8327 C   0  0  0  0  0  0  0  0  0  0  0  0
   -0.7611   -2.7766    1.1927 O   0  0  0  0  0  0  0  0  0  0  0  0
   -1.8201   -0.9926    0.3247 N   0  0  0  0  0  0  0  0  0  0  0  0
   -2.7141   -0.5816    0.0927 H   0  0  0  0  0  0  0  0  0  0  0  0
   -0.6481   -0.1156    0.2017 C   0  0  1  0  0  0  0  0  0  0  0  0
    0.1042   -0.6345   -0.3958 H   0  0  0  0  0  0  0  0  0  0  0  0
   -1.0420    1.1781   -0.5372 C   0  0  0  0  0  0  0  0  0  0  0  0
   -1.3779    1.9265    0.1820 H   0  0  0  0  0  0  0  0  0  0  0  0
   -0.1729    1.5869   -1.0545 H   0  0  0  0  0  0  0  0  0  0  0  0
   -2.1635    0.9709   -1.5259 C   0  0  0  0  0  0  0  0  0  0  0  0
   -3.4051    1.6074   -1.4990 N   0  0  0  0  0  0  0  0  0  0  0  0
   -4.0681    1.1694   -2.5792 C   0  0  0  0  0  0  0  0  0  0  0  0
   -5.0751    1.4676   -2.8425 H   0  0  0  0  0  0  0  0  0  0  0  0
   -3.3039    0.3204   -3.2867 N   0  0  0  0  0  0  0  0  0  0  0  0
   -3.5724   -0.1282   -4.1518 H   0  0  0  0  0  0  0  0  0  0  0  0
   -2.0958    0.1856   -2.6394 C   0  0  0  0  0  0  0  0  0  0  0  0
   -1.2422   -0.4043   -2.9487 H   0  0  0  0  0  0  0  0  0  0  0  0
   -0.0283    0.1609    1.5831 C   0  0  0  0  0  0  0  0  0  0  0  0
    1.1923    0.1056    1.7329 O   0  0  0  0  0  0  0  0  0  0  0  0
   -0.8586    0.4659    2.5853 N   0  0  0  0  0  0  0  0  0  0  0  0
   -1.8521    0.3848    2.4000 H   0  0  0  0  0  0  0  0  0  0  0  0
   -0.4403    0.7694    3.9518 C   0  0  0  0  0  0  0  0  0  0  0  0
    0.5066    1.3154    3.9421 H   0  0  0  0  0  0  0  0  0  0  0  0
   -1.1988    1.3789    4.4452 H   0  0  0  0  0  0  0  0  0  0  0  0
   -0.3053   -0.1600    4.5075 H   0  0  0  0  0  0  0  0  0  0  0  0
  5  6  2  0  0  0  0
  5  7  1  0  0  0  0
  2  3  1  0  0  0  0
  2  4  1  0  0  0  0
  2  5  1  0  0  0  0
  1  2  1  0  0  0  0
 22 23  2  0  0  0  0
 22 24  1  0  0  0  0
 20 21  1  0  0  0  0
 18 19  1  0  0  0  0
 18 20  1  0  0  0  0
 16 17  1  0  0  0  0
 16 18  1  0  0  0  0
 15 16  2  0  0  0  0
 14 15  1  0  0  0  0
 14 20  2  0  0  0  0
 11 12  1  0  0  0  0
 11 13  1  0  0  0  0
 11 14  1  0  0  0  0
  9 10  1  0  0  0  0
  9 11  1  0  0  0  0
  9 22  1  0  0  0  0
  7  8  1  0  0  0  0
  7  9  1  0  0  0  0
 26 27  1  0  0  0  0
 26 28  1  0  0  0  0
 26 29  1  0  0  0  0
 24 25  1  0  0  0  0
 24 26  1  0  0  0  0
M  END
$$$$
default_name
  -OEChem-02102213163D

 29 29  0     1  0  0  0  0  0999 V2000
   -2.9561   -3.9186    1.3887 H   0  0  0  0  0  0  0  0  0  0  0  0
   -3.1191   -2.9346    0.9517 C   0  0  0  0  0  0  0  0  0  0  0  0
   -3.7811   -2.3546    1.5917 H   0  0  0  0  0  0  0  0  0  0  0  0
   -3.5591   -3.0406   -0.0383 H   0  0  0  0  0  0  0  0  0  0  0  0
   -1.7921   -2.2226    0.8327 C   0  0  0  0  0  0  0  0  0  0  0  0
   -0.7611   -2.7766    1.1927 O   0  0  0  0  0  0  0  0  0  0  0  0
   -1.8201   -0.9926    0.3247 N   0  0  0  0  0  0  0  0  0  0  0  0
   -2.7141   -0.5816    0.0927 H   0  0  0  0  0  0  0  0  0  0  0  0
   -0.6481   -0.1156    0.2017 C   0  0  1  0  0  0  0  0  0  0  0  0
    0.1042   -0.6345   -0.3958 H   0  0  0  0  0  0  0  0  0  0  0  0
   -1.0420    1.1781   -0.5372 C   0  0  0  0  0  0  0  0  0  0  0  0
   -1.3779    1.9265    0.1820 H   0  0  0  0  0  0  0  0  0  0  0  0
   -0.1729    1.5869   -1.0545 H   0  0  0  0  0  0  0  0  0  0  0  0
   -2.1635    0.9709   -1.5259 C   0  0  0  0  0  0  0  0  0  0  0  0
   -3.2765    1.7975   -1.6847 N   0  0  0  0  0  0  0  0  0  0  0  0
   -3.9847    1.2732   -2.6955 C   0  0  0  0  0  0  0  0  0  0  0  0
   -4.9197    1.6772   -3.0626 H   0  0  0  0  0  0  0  0  0  0  0  0
   -3.3656    0.1875   -3.1888 N   0  0  0  0  0  0  0  0  0  0  0  0
   -3.6913   -0.3705   -3.9662 H   0  0  0  0  0  0  0  0  0  0  0  0
   -2.2116   -0.0170   -2.4656 C   0  0  0  0  0  0  0  0  0  0  0  0
   -1.4672   -0.7893   -2.6128 H   0  0  0  0  0  0  0  0  0  0  0  0
   -0.0283    0.1609    1.5831 C   0  0  0  0  0  0  0  0  0  0  0  0
    1.1923    0.1056    1.7329 O   0  0  0  0  0  0  0  0  0  0  0  0
   -0.8586    0.4659    2.5853 N   0  0  0  0  0  0  0  0  0  0  0  0
   -1.8521    0.3848    2.4000 H   0  0  0  0  0  0  0  0  0  0  0  0
   -0.4403    0.7694    3.9518 C   0  0  0  0  0  0  0  0  0  0  0  0
    0.5066    1.3154    3.9421 H   0  0  0  0  0  0  0  0  0  0  0  0
   -1.1988    1.3789    4.4452 H   0  0  0  0  0  0  0  0  0  0  0  0
   -0.3053   -0.1600    4.5075 H   0  0  0  0  0  0  0  0  0  0  0  0
  5  6  2  0  0  0  0
  5  7  1  0  0  0  0
  2  3  1  0  0  0  0
  2  4  1  0  0  0  0
  2  5  1  0  0  0  0
  1  2  1  0  0  0  0
 22 23  2  0  0  0  0
 22 24  1  0  0  0  0
 20 21  1  0  0  0  0
 18 19  1  0  0  0  0
 18 20  1  0  0  0  0
 16 17  1  0  0  0  0
 16 18  1  0  0  0  0
 15 16  2  0  0  0  0
 14 15  1  0  0  0  0
 14 20  2  0  0  0  0
 11 12  1  0  0  0  0
 11 13  1  0  0  0  0
 11 14  1  0  0  0  0
  9 10  1  0  0  0  0
  9 11  1  0  0  0  0
  9 22  1  0  0  0  0
  7  8  1  0  0  0  0
  7  9  1  0  0  0  0
 26 27  1  0  0  0  0
 26 28  1  0  0  0  0
 26 29  1  0  0  0  0
 24 25  1  0  0  0  0
 24 26  1  0  0  0  0
M  END
$$$$
default_name
  -OEChem-02102213163D

 29 29  0     1  0  0  0  0  0999 V2000
   -2.9561   -3.9186    1.3887 H   0  0  0  0  0  0  0  0  0  0  0  0
   -3.1191   -2.9346    0.9517 C   0  0  0  0  0  0  0  0  0  0  0  0
   -3.7811   -2.3546    1.5917 H   0  0  0  0  0  0  0  0  0  0  0  0
   -3.5591   -3.0406   -0.0383 H   0  0  0  0  0  0  0  0  0  0  0  0
   -1.7921   -2.2226    0.8327 C   0  0  0  0  0  0  0  0  0  0  0  0
   -0.7611   -2.7766    1.1927 O   0  0  0  0  0  0  0  0  0  0  0  0
   -1.8201   -0.9926    0.3247 N   0  0  0  0  0  0  0  0  0  0  0  0
   -2.7141   -0.5816    0.0927 H   0  0  0  0  0  0  0  0  0  0  0  0
   -0.6481   -0.1156    0.2017 C   0  0  1  0  0  0  0  0  0  0  0  0
    0.1042   -0.6345   -0.3958 H   0  0  0  0  0  0  0  0  0  0  0  0
   -1.0420    1.1781   -0.5372 C   0  0  0  0  0  0  0  0  0  0  0  0
   -1.3779    1.9265    0.1820 H   0  0  0  0  0  0  0  0  0  0  0  0
   -0.1729    1.5869   -1.0545 H   0  0  0  0  0  0  0  0  0  0  0  0
   -2.1635    0.9709   -1.5259 C   0  0  0  0  0  0  0  0  0  0  0  0
   -3.1135    1.9237   -1.8960 N   0  0  0  0  0  0  0  0  0  0  0  0
   -3.8825    1.3370   -2.8249 C   0  0  0  0  0  0  0  0  0  0  0  0
   -4.7263    1.8110   -3.3101 H   0  0  0  0  0  0  0  0  0  0  0  0
   -3.4513    0.0885   -3.0708 N   0  0  0  0  0  0  0  0  0  0  0  0
   -3.8538   -0.5488   -3.7445 H   0  0  0  0  0  0  0  0  0  0  0  0
   -2.3639   -0.1596   -2.2629 C   0  0  0  0  0  0  0  0  0  0  0  0
   -1.7617   -1.0585   -2.2222 H   0  0  0  0  0  0  0  0  0  0  0  0
   -0.0283    0.1609    1.5831 C   0  0  0  0  0  0  0  0  0  0  0  0
    1.1923    0.1056    1.7329 O   0  0  0  0  0  0  0  0  0  0  0  0
   -0.8586    0.4659    2.5853 N   0  0  0  0  0  0  0  0  0  0  0  0
   -1.8521    0.3848    2.4000 H   0  0  0  0  0  0  0  0  0  0  0  0
   -0.4403    0.7694    3.9518 C   0  0  0  0  0  0  0  0  0  0  0  0
    0.5066    1.3154    3.9421 H   0  0  0  0  0  0  0  0  0  0  0  0
   -1.1988    1.3789    4.4452 H   0  0  0  0  0  0  0  0  0  0  0  0
   -0.3053   -0.1600    4.5075 H   0  0  0  0  0  0  0  0  0  0  0  0
  5  6  2  0  0  0  0
  5  7  1  0  0  0  0
  2  3  1  0  0  0  0
  2  4  1  0  0  0  0
  2  5  1  0  0  0  0
  1  2  1  0  0  0  0
 22 23  2  0  0  0  0
 22 24  1  0  0  0  0
 20 21  1  0  0  0  0
 18 19  1  0  0  0  0
 18 20  1  0  0  0  0
 16 17  1  0  0  0  0
 16 18  1  0  0  0  0
 15 16  2  0  0  0  0
 14 15  1  0  0  0  0
 14 20  2  0  0  0  0
 11 12  1  0  0  0  0
 11 13  1  0  0  0  0
 11 14  1  0  0  0  0
  9 10  1  0  0  0  0
  9 11  1  0  0  0  0
  9 22  1  0  0  0  0
  7  8  1  0  0  0  0
  7  9  1  0  0  0  0
 26 27  1  0  0  0  0
 26 28  1  0  0  0  0
 26 29  1  0  0  0  0
 24 25  1  0  0  0  0
 24 26  1  0  0  0  0
M  END
$$$$
default_name
  -OEChem-02102213163D

 29 29  0     1  0  0  0  0  0999 V2000
   -2.9561   -3.9186    1.3887 H   0  0  0  0  0  0  0  0  0  0  0  0
   -3.1191   -2.9346    0.9517 C   0  0  0  0  0  0  0  0  0  0  0  0
   -3.7811   -2.3546    1.5917 H   0  0  0  0  0  0  0  0  0  0  0  0
   -3.5591   -3.0406   -0.0383 H   0  0  0  0  0  0  0  0  0  0  0  0
   -1.7921   -2.2226    0.8327 C   0  0  0  0  0  0  0  0  0  0  0  0
   -0.7611   -2.7766    1.1927 O   0  0  0  0  0  0  0  0  0  0  0  0
   -1.8201   -0.9926    0.3247 N   0  0  0  0  0  0  0  0  0  0  0  0
   -2.7141   -0.5816    0.0927 H   0  0  0  0  0  0  0  0  0  0  0  0
   -0.6481   -0.1156    0.2017 C   0  0  1  0  0  0  0  0  0  0  0  0
    0.1042   -0.6345   -0.3958 H   0  0  0  0  0  0  0  0  0  0  0  0
   -1.0420    1.1781   -0.5372 C   0  0  0  0  0  0  0  0  0  0  0  0
   -1.3779    1.9265    0.1820 H   0  0  0  0  0  0  0  0  0  0  0  0
   -0.1729    1.5869   -1.0545 H   0  0  0  0  0  0  0  0  0  0  0  0
   -2.1635    0.9709   -1.5259 C   0  0  0  0  0  0  0  0  0  0  0  0
   -2.9271    1.9773   -2.1187 N   0  0  0  0  0  0  0  0  0  0  0  0
   -3.7683    1.3564   -2.9585 C   0  0  0  0  0  0  0  0  0  0  0  0
   -4.5081    1.8599   -3.5679 H   0  0  0  0  0  0  0  0  0  0  0  0
   -3.5550    0.0299   -2.9409 N   0  0  0  0  0  0  0  0  0  0  0  0
   -4.0488   -0.6507   -3.5018 H   0  0  0  0  0  0  0  0  0  0  0  0
   -2.5425   -0.2325   -2.0451 C   0  0  0  0  0  0  0  0  0  0  0  0
   -2.1058   -1.1934   -1.8037 H   0  0  0  0  0  0  0  0  0  0  0  0
   -0.0283    0.1609    1.5831 C   0  0  0  0  0  0  0  0  0  0  0  0
    1.1923    0.1056    1.7329 O   0  0  0  0  0  0  0  0  0  0  0  0
   -0.8586    0.4659    2.5853 N   0  0  0  0  0  0  0  0  0  0  0  0
   -1.8521    0.3848    2.4000 H   0  0  0  0  0  0  0  0  0  0  0  0
   -0.4403    0.7694    3.9518 C   0  0  0  0  0  0  0  0  0  0  0  0
    0.5066    1.3154    3.9421 H   0  0  0  0  0  0  0  0  0  0  0  0
   -1.1988    1.3789    4.4452 H   0  0  0  0  0  0  0  0  0  0  0  0
   -0.3053   -0.1600    4.5075 H   0  0  0  0  0  0  0  0  0  0  0  0
  5  6  2  0  0  0  0
  5  7  1  0  0  0  0
  2  3  1  0  0  0  0
  2  4  1  0  0  0  0
  2  5  1  0  0  0  0
  1  2  1  0  0  0  0
 22 23  2  0  0  0  0
 22 24  1  0  0  0  0
 20 21  1  0  0  0  0
 18 19  1  0  0  0  0
 18 20  1  0  0  0  0
 16 17  1  0  0  0  0
 16 18  1  0  0  0  0
 15 16  2  0  0  0  0
 14 15  1  0  0  0  0
 14 20  2  0  0  0  0
 11 12  1  0  0  0  0
 11 13  1  0  0  0  0
 11 14  1  0  0  0  0
  9 10  1  0  0  0  0
  9 11  1  0  0  0  0
  9 22  1  0  0  0  0
  7  8  1  0  0  0  0
  7  9  1  0  0  0  0
 26 27  1  0  0  0  0
 26 28  1  0  0  0  0
 26 29  1  0  0  0  0
 24 25  1  0  0  0  0
 24 26  1  0  0  0  0
M  END
$$$$
default_name
  -OEChem-02102213163D

 29 29  0     1  0  0  0  0  0999 V2000
   -2.9561   -3.9186    1.3887 H   0  0  0  0  0  0  0  0  0  0  0  0
   -3.1191   -2.9346    0.9517 C   0  0  0  0  0  0  0  0  0  0  0  0
   -3.7811   -2.3546    1.5917 H   0  0  0  0  0  0  0  0  0  0  0  0
   -3.5591   -3.0406   -0.0383 H   0  0  0  0  0  0  0  0  0  0  0  0
   -1.7921   -2.2226    0.8327 C   0  0  0  0  0  0  0  0  0  0  0  0
   -0.7611   -2.7766    1.1927 O   0  0  0  0  0  0  0  0  0  0  0  0
   -1.8201   -0.9926    0.3247 N   0  0  0  0  0  0  0  0  0  0  0  0
   -2.7141   -0.5816    0.0927 H   0  0  0  0  0  0  0  0  0  0  0  0
   -0.6481   -0.1156    0.2017 C   0  0  1  0  0  0  0  0  0  0  0  0
    0.1042   -0.6345   -0.3958 H   0  0  0  0  0  0  0  0  0  0  0  0
   -1.0420    1.1781   -0.5372 C   0  0  0  0  0  0  0  0  0  0  0  0
   -1.1205    2.0008    0.1750 H   0  0  0  0  0  0  0  0  0  0  0  0
   -0.2674    1.4414   -1.2588 H   0  0  0  0  0  0  0  0  0  0  0  0
   -2.3709    1.0685   -1.2444 C   0  0  0  0  0  0  0  0  0  0  0  0
   -2.9843    2.0743   -1.9924 N   0  0  0  0  0  0  0  0  0  0  0  0
   -4.1138    1.5376   -2.4767 C   0  0  0  0  0  0  0  0  0  0  0  0
   -4.8283    2.0675   -3.0939 H   0  0  0  0  0  0  0  0  0  0  0  0
   -4.2246    0.2540   -2.0954 N   0  0  0  0  0  0  0  0  0  0  0  0
   -4.9782   -0.3701   -2.3494 H   0  0  0  0  0  0  0  0  0  0  0  0
   -3.1313   -0.0617   -1.3198 C   0  0  0  0  0  0  0  0  0  0  0  0
   -2.8940   -1.0172   -0.8691 H   0  0  0  0  0  0  0  0  0  0  0  0
   -0.0283    0.1609    1.5831 C   0  0  0  0  0  0  0  0  0  0  0  0
    1.1923    0.1056    1.7329 O   0  0  0  0  0  0  0  0  0  0  0  0
   -0.8586    0.4659    2.5853 N   0  0  0  0  0  0  0  0  0  0  0  0
   -1.8521    0.3848    2.4000 H   0  0  0  0  0  0  0  0  0  0  0  0
   -0.4403    0.7694    3.9518 C   0  0  0  0  0  0  0  0  0  0  0  0
    0.5066    1.3154    3.9421 H   0  0  0  0  0  0  0  0  0  0  0  0
   -1.1988    1.3789    4.4452 H   0  0  0  0  0  0  0  0  0  0  0  0
   -0.3053   -0.1600    4.5075 H   0  0  0  0  0  0  0  0  0  0  0  0
  5  6  2  0  0  0  0
  5  7  1  0  0  0  0
  2  3  1  0  0  0  0
  2  4  1  0  0  0  0
  2  5  1  0  0  0  0
  1  2  1  0  0  0  0
 22 23  2  0  0  0  0
 22 24  1  0  0  0  0
 20 21  1  0  0  0  0
 18 19  1  0  0  0  0
 18 20  1  0  0  0  0
 16 17  1  0  0  0  0
 16 18  1  0  0  0  0
 15 16  2  0  0  0  0
 14 15  1  0  0  0  0
 14 20  2  0  0  0  0
 11 12  1  0  0  0  0
 11 13  1  0  0  0  0
 11 14  1  0  0  0  0
  9 10  1  0  0  0  0
  9 11  1  0  0  0  0
  9 22  1  0  0  0  0
  7  8  1  0  0  0  0
  7  9  1  0  0  0  0
 26 27  1  0  0  0  0
 26 28  1  0  0  0  0
 26 29  1  0  0  0  0
 24 25  1  0  0  0  0
 24 26  1  0  0  0  0
M  END
$$$$
default_name
  -OEChem-02102213163D

 29 29  0     1  0  0  0  0  0999 V2000
   -2.9561   -3.9186    1.3887 H   0  0  0  0  0  0  0  0  0  0  0  0
   -3.1191   -2.9346    0.9517 C   0  0  0  0  0  0  0  0  0  0  0  0
   -3.7811   -2.3546    1.5917 H   0  0  0  0  0  0  0  0  0  0  0  0
   -3.5591   -3.0406   -0.0383 H   0  0  0  0  0  0  0  0  0  0  0  0
   -1.7921   -2.2226    0.8327 C   0  0  0  0  0  0  0  0  0  0  0  0
   -0.7611   -2.7766    1.1927 O   0  0  0  0  0  0  0  0  0  0  0  0
   -1.8201   -0.9926    0.3247 N   0  0  0  0  0  0  0  0  0  0  0  0
   -2.7141   -0.5816    0.0927 H   0  0  0  0  0  0  0  0  0  0  0  0
   -0.6481   -0.1156    0.2017 C   0  0  1  0  0  0  0  0  0  0  0  0
    0.1042   -0.6345   -0.3958 H   0  0  0  0  0  0  0  0  0  0  0  0
   -1.0420    1.1781   -0.5372 C   0  0  0  0  0  0  0  0  0  0  0  0
   -1.1205    2.0008    0.1750 H   0  0  0  0  0  0  0  0  0  0  0  0
   -0.2674    1.4414   -1.2588 H   0  0  0  0  0  0  0  0  0  0  0  0
   -2.3709    1.0685   -1.2444 C   0  0  0  0  0  0  0  0  0  0  0  0
   -2.8519    1.9419   -2.2207 N   0  0  0  0  0  0  0  0  0  0  0  0
   -4.0367    1.4470   -2.6075 C   0  0  0  0  0  0  0  0  0  0  0  0
   -4.6774    1.9027   -3.3519 H   0  0  0  0  0  0  0  0  0  0  0  0
   -4.3069    0.3074   -1.9490 N   0  0  0  0  0  0  0  0  0  0  0  0
   -5.1305   -0.2640   -2.0795 H   0  0  0  0  0  0  0  0  0  0  0  0
   -3.2646    0.0499   -1.0866 C   0  0  0  0  0  0  0  0  0  0  0  0
   -3.1493   -0.7983   -0.4234 H   0  0  0  0  0  0  0  0  0  0  0  0
   -0.0283    0.1609    1.5831 C   0  0  0  0  0  0  0  0  0  0  0  0
    1.1923    0.1056    1.7329 O   0  0  0  0  0  0  0  0  0  0  0  0
   -0.8586    0.4659    2.5853 N   0  0  0  0  0  0  0  0  0  0  0  0
   -1.8521    0.3848    2.4000 H   0  0  0  0  0  0  0  0  0  0  0  0
   -0.4403    0.7694    3.9518 C   0  0  0  0  0  0  0  0  0  0  0  0
    0.5066    1.3154    3.9421 H   0  0  0  0  0  0  0  0  0  0  0  0
   -1.1988    1.3789    4.4452 H   0  0  0  0  0  0  0  0  0  0  0  0
   -0.3053   -0.1600    4.5075 H   0  0  0  0  0  0  0  0  0  0  0  0
  5  6  2  0  0  0  0
  5  7  1  0  0  0  0
  2  3  1  0  0  0  0
  2  4  1  0  0  0  0
  2  5  1  0  0  0  0
  1  2  1  0  0  0  0
 22 23  2  0  0  0  0
 22 24  1  0  0  0  0
 20 21  1  0  0  0  0
 18 19  1  0  0  0  0
 18 20  1  0  0  0  0
 16 17  1  0  0  0  0
 16 18  1  0  0  0  0
 15 16  2  0  0  0  0
 14 15  1  0  0  0  0
 14 20  2  0  0  0  0
 11 12  1  0  0  0  0
 11 13  1  0  0  0  0
 11 14  1  0  0  0  0
  9 10  1  0  0  0  0
  9 11  1  0  0  0  0
  9 22  1  0  0  0  0
  7  8  1  0  0  0  0
  7  9  1  0  0  0  0
 26 27  1  0  0  0  0
 26 28  1  0  0  0  0
 26 29  1  0  0  0  0
 24 25  1  0  0  0  0
 24 26  1  0  0  0  0
M  END
$$$$
default_name
  -OEChem-02102213163D

 29 29  0     1  0  0  0  0  0999 V2000
   -2.9561   -3.9186    1.3887 H   0  0  0  0  0  0  0  0  0  0  0  0
   -3.1191   -2.9346    0.9517 C   0  0  0  0  0  0  0  0  0  0  0  0
   -3.7811   -2.3546    1.5917 H   0  0  0  0  0  0  0  0  0  0  0  0
   -3.5591   -3.0406   -0.0383 H   0  0  0  0  0  0  0  0  0  0  0  0
   -1.7921   -2.2226    0.8327 C   0  0  0  0  0  0  0  0  0  0  0  0
   -0.7611   -2.7766    1.1927 O   0  0  0  0  0  0  0  0  0  0  0  0
   -1.8201   -0.9926    0.3247 N   0  0  0  0  0  0  0  0  0  0  0  0
   -2.7141   -0.5816    0.0927 H   0  0  0  0  0  0  0  0  0  0  0  0
   -0.6481   -0.1156    0.2017 C   0  0  1  0  0  0  0  0  0  0  0  0
    0.1042   -0.6345   -0.3958 H   0  0  0  0  0  0  0  0  0  0  0  0
   -1.0420    1.1781   -0.5372 C   0  0  0  0  0  0  0  0  0  0  0  0
   -1.1205    2.0008    0.1750 H   0  0  0  0  0  0  0  0  0  0  0  0
   -0.2674    1.4414   -1.2588 H   0  0  0  0  0  0  0  0  0  0  0  0
   -2.3709    1.0685   -1.2444 C   0  0  0  0  0  0  0  0  0  0  0  0
   -2.7358    1.7459   -2.4086 N   0  0  0  0  0  0  0  0  0  0  0  0
   -3.9708    1.3203   -2.7118 C   0  0  0  0  0  0  0  0  0  0  0  0
   -4.5468    1.6664   -3.5608 H   0  0  0  0  0  0  0  0  0  0  0  0
   -4.3827    0.4023   -1.8213 N   0  0  0  0  0  0  0  0  0  0  0  0
   -5.2699   -0.0815   -1.8459 H   0  0  0  0  0  0  0  0  0  0  0  0
   -3.3843    0.2270   -0.8892 C   0  0  0  0  0  0  0  0  0  0  0  0
   -3.3776   -0.4543   -0.0476 H   0  0  0  0  0  0  0  0  0  0  0  0
   -0.0283    0.1609    1.5831 C   0  0  0  0  0  0  0  0  0  0  0  0
    1.1923    0.1056    1.7329 O   0  0  0  0  0  0  0  0  0  0  0  0
   -0.8586    0.4659    2.5853 N   0  0  0  0  0  0  0  0  0  0  0  0
   -1.8521    0.3848    2.4000 H   0  0  0  0  0  0  0  0  0  0  0  0
   -0.4403    0.7694    3.9518 C   0  0  0  0  0  0  0  0  0  0  0  0
    0.5066    1.3154    3.9421 H   0  0  0  0  0  0  0  0  0  0  0  0
   -1.1988    1.3789    4.4452 H   0  0  0  0  0  0  0  0  0  0  0  0
   -0.3053   -0.1600    4.5075 H   0  0  0  0  0  0  0  0  0  0  0  0
  5  6  2  0  0  0  0
  5  7  1  0  0  0  0
  2  3  1  0  0  0  0
  2  4  1  0  0  0  0
  2  5  1  0  0  0  0
  1  2  1  0  0  0  0
 22 23  2  0  0  0  0
 22 24  1  0  0  0  0
 20 21  1  0  0  0  0
 18 19  1  0  0  0  0
 18 20  1  0  0  0  0
 16 17  1  0  0  0  0
 16 18  1  0  0  0  0
 15 16  2  0  0  0  0
 14 15  1  0  0  0  0
 14 20  2  0  0  0  0
 11 12  1  0  0  0  0
 11 13  1  0  0  0  0
 11 14  1  0  0  0  0
  9 10  1  0  0  0  0
  9 11  1  0  0  0  0
  9 22  1  0  0  0  0
  7  8  1  0  0  0  0
  7  9  1  0  0  0  0
 26 27  1  0  0  0  0
 26 28  1  0  0  0  0
 26 29  1  0  0  0  0
 24 25  1  0  0  0  0
 24 26  1  0  0  0  0
M  END
$$$$
default_name
  -OEChem-02102213163D

 29 29  0     1  0  0  0  0  0999 V2000
   -2.9561   -3.9186    1.3887 H   0  0  0  0  0  0  0  0  0  0  0  0
   -3.1191   -2.9346    0.9517 C   0  0  0  0  0  0  0  0  0  0  0  0
   -3.7811   -2.3546    1.5917 H   0  0  0  0  0  0  0  0  0  0  0  0
   -3.5591   -3.0406   -0.0383 H   0  0  0  0  0  0  0  0  0  0  0  0
   -1.7921   -2.2226    0.8327 C   0  0  0  0  0  0  0  0  0  0  0  0
   -0.7611   -2.7766    1.1927 O   0  0  0  0  0  0  0  0  0  0  0  0
   -1.8201   -0.9926    0.3247 N   0  0  0  0  0  0  0  0  0  0  0  0
   -2.7141   -0.5816    0.0927 H   0  0  0  0  0  0  0  0  0  0  0  0
   -0.6481   -0.1156    0.2017 C   0  0  1  0  0  0  0  0  0  0  0  0
    0.1042   -0.6345   -0.3958 H   0  0  0  0  0  0  0  0  0  0  0  0
   -1.0420    1.1781   -0.5372 C   0  0  0  0  0  0  0  0  0  0  0  0
   -1.1205    2.0008    0.1750 H   0  0  0  0  0  0  0  0  0  0  0  0
   -0.2674    1.4414   -1.2588 H   0  0  0  0  0  0  0  0  0  0  0  0
   -2.3709    1.0685   -1.2444 C   0  0  0  0  0  0  0  0  0  0  0  0
   -2.6439    1.4998   -2.5432 N   0  0  0  0  0  0  0  0  0  0  0  0
   -3.9205    1.1662   -2.7824 C   0  0  0  0  0  0  0  0  0  0  0  0
   -4.4453    1.3746   -3.7062 H   0  0  0  0  0  0  0  0  0  0  0  0
   -4.4468    0.5323   -1.7210 N   0  0  0  0  0  0  0  0  0  0  0  0
   -5.3868    0.1650   -1.6644 H   0  0  0  0  0  0  0  0  0  0  0  0
   -3.4821    0.4575   -0.7411 C   0  0  0  0  0  0  0  0  0  0  0  0
   -3.5636   -0.0087    0.2327 H   0  0  0  0  0  0  0  0  0  0  0  0
   -0.0283    0.1609    1.5831 C   0  0  0  0  0  0  0  0  0  0  0  0
    1.1923    0.1056    1.7329 O   0  0  0  0  0  0  0  0  0  0  0  0
   -0.8586    0.4659    2.5853 N   0  0  0  0  0  0  0  0  0  0  0  0
   -1.8521    0.3848    2.4000 H   0  0  0  0  0  0  0  0  0  0  0  0
   -0.4403    0.7694    3.9518 C   0  0  0  0  0  0  0  0  0  0  0  0
    0.5066    1.3154    3.9421 H   0  0  0  0  0  0  0  0  0  0  0  0
   -1.1988    1.3789    4.4452 H   0  0  0  0  0  0  0  0  0  0  0  0
   -0.3053   -0.1600    4.5075 H   0  0  0  0  0  0  0  0  0  0  0  0
  5  6  2  0  0  0  0
  5  7  1  0  0  0  0
  2  3  1  0  0  0  0
  2  4  1  0  0  0  0
  2  5  1  0  0  0  0
  1  2  1  0  0  0  0
 22 23  2  0  0  0  0
 22 24  1  0  0  0  0
 20 21  1  0  0  0  0
 18 19  1  0  0  0  0
 18 20  1  0  0  0  0
 16 17  1  0  0  0  0
 16 18  1  0  0  0  0
 15 16  2  0  0  0  0
 14 15  1  0  0  0  0
 14 20  2  0  0  0  0
 11 12  1  0  0  0  0
 11 13  1  0  0  0  0
 11 14  1  0  0  0  0
  9 10  1  0  0  0  0
  9 11  1  0  0  0  0
  9 22  1  0  0  0  0
  7  8  1  0  0  0  0
  7  9  1  0  0  0  0
 26 27  1  0  0  0  0
 26 28  1  0  0  0  0
 26 29  1  0  0  0  0
 24 25  1  0  0  0  0
 24 26  1  0  0  0  0
M  END
$$$$
default_name
  -OEChem-02102213163D

 29 29  0     1  0  0  0  0  0999 V2000
   -2.9561   -3.9186    1.3887 H   0  0  0  0  0  0  0  0  0  0  0  0
   -3.1191   -2.9346    0.9517 C   0  0  0  0  0  0  0  0  0  0  0  0
   -3.7811   -2.3546    1.5917 H   0  0  0  0  0  0  0  0  0  0  0  0
   -3.5591   -3.0406   -0.0383 H   0  0  0  0  0  0  0  0  0  0  0  0
   -1.7921   -2.2226    0.8327 C   0  0  0  0  0  0  0  0  0  0  0  0
   -0.7611   -2.7766    1.1927 O   0  0  0  0  0  0  0  0  0  0  0  0
   -1.8201   -0.9926    0.3247 N   0  0  0  0  0  0  0  0  0  0  0  0
   -2.7141   -0.5816    0.0927 H   0  0  0  0  0  0  0  0  0  0  0  0
   -0.6481   -0.1156    0.2017 C   0  0  1  0  0  0  0  0  0  0  0  0
    0.1042   -0.6345   -0.3958 H   0  0  0  0  0  0  0  0  0  0  0  0
   -1.0420    1.1781   -0.5372 C   0  0  0  0  0  0  0  0  0  0  0  0
   -1.1205    2.0008    0.1750 H   0  0  0  0  0  0  0  0  0  0  0  0
   -0.2674    1.4414   -1.2588 H   0  0  0  0  0  0  0  0  0  0  0  0
   -2.3709    1.0685   -1.2444 C   0  0  0  0  0  0  0  0  0  0  0  0
   -2.5824    1.2202   -2.6154 N   0  0  0  0  0  0  0  0  0  0  0  0
   -3.8893    0.9951   -2.8146 C   0  0  0  0  0  0  0  0  0  0  0  0
   -4.3800    1.0474   -3.7783 H   0  0  0  0  0  0  0  0  0  0  0  0
   -4.4948    0.6885   -1.6550 N   0  0  0  0  0  0  0  0  0  0  0  0
   -5.4733    0.4585   -1.5475 H   0  0  0  0  0  0  0  0  0  0  0  0
   -3.5514    0.7258   -0.6525 C   0  0  0  0  0  0  0  0  0  0  0  0
   -3.6944    0.5082    0.3985 H   0  0  0  0  0  0  0  0  0  0  0  0
   -0.0283    0.1609    1.5831 C   0  0  0  0  0  0  0  0  0  0  0  0
    1.1923    0.1056    1.7329 O   0  0  0  0  0  0  0  0  0  0  0  0
   -0.8586    0.4659    2.5853 N   0  0  0  0  0  0  0  0  0  0  0  0
   -1.8521    0.3848    2.4000 H   0  0  0  0  0  0  0  0  0  0  0  0
   -0.4403    0.7694    3.9518 C   0  0  0  0  0  0  0  0  0  0  0  0
    0.5066    1.3154    3.9421 H   0  0  0  0  0  0  0  0  0  0  0  0
   -1.1988    1.3789    4.4452 H   0  0  0  0  0  0  0  0  0  0  0  0
   -0.3053   -0.1600    4.5075 H   0  0  0  0  0  0  0  0  0  0  0  0
  5  6  2  0  0  0  0
  5  7  1  0  0  0  0
  2  3  1  0  0  0  0
  2  4  1  0  0  0  0
  2  5  1  0  0  0  0
  1  2  1  0  0  0  0
 22 23  2  0  0  0  0
 22 24  1  0  0  0  0
 20 21  1  0  0  0  0
 18 19  1  0  0  0  0
 18 20  1  0  0  0  0
 16 17  1  0  0  0  0
 16 18  1  0  0  0  0
 15 16  2  0  0  0  0
 14 15  1  0  0  0  0
 14 20  2  0  0  0  0
 11 12  1  0  0  0  0
 11 13  1  0  0  0  0
 11 14  1  0  0  0  0
  9 10  1  0  0  0  0
  9 11  1  0  0  0  0
  9 22  1  0  0  0  0
  7  8  1  0  0  0  0
  7  9  1  0  0  0  0
 26 27  1  0  0  0  0
 26 28  1  0  0  0  0
 26 29  1  0  0  0  0
 24 25  1  0  0  0  0
 24 26  1  0  0  0  0
M  END
$$$$
default_name
  -OEChem-02102213163D

 29 29  0     1  0  0  0  0  0999 V2000
   -2.9561   -3.9186    1.3887 H   0  0  0  0  0  0  0  0  0  0  0  0
   -3.1191   -2.9346    0.9517 C   0  0  0  0  0  0  0  0  0  0  0  0
   -3.7811   -2.3546    1.5917 H   0  0  0  0  0  0  0  0  0  0  0  0
   -3.5591   -3.0406   -0.0383 H   0  0  0  0  0  0  0  0  0  0  0  0
   -1.7921   -2.2226    0.8327 C   0  0  0  0  0  0  0  0  0  0  0  0
   -0.7611   -2.7766    1.1927 O   0  0  0  0  0  0  0  0  0  0  0  0
   -1.8201   -0.9926    0.3247 N   0  0  0  0  0  0  0  0  0  0  0  0
   -2.7141   -0.5816    0.0927 H   0  0  0  0  0  0  0  0  0  0  0  0
   -0.6481   -0.1156    0.2017 C   0  0  1  0  0  0  0  0  0  0  0  0
    0.1042   -0.6345   -0.3958 H   0  0  0  0  0  0  0  0  0  0  0  0
   -1.0420    1.1781   -0.5372 C   0  0  0  0  0  0  0  0  0  0  0  0
   -1.1205    2.0008    0.1750 H   0  0  0  0  0  0  0  0  0  0  0  0
   -0.2674    1.4414   -1.2588 H   0  0  0  0  0  0  0  0  0  0  0  0
   -2.3709    1.0685   -1.2444 C   0  0  0  0  0  0  0  0  0  0  0  0
   -2.5555    0.9262   -2.6203 N   0  0  0  0  0  0  0  0  0  0  0  0
   -3.8793    0.8188   -2.8061 C   0  0  0  0  0  0  0  0  0  0  0  0
   -4.3552    0.7070   -3.7721 H   0  0  0  0  0  0  0  0  0  0  0  0
   -4.5235    0.8603   -1.6277 N   0  0  0  0  0  0  0  0  0  0  0  0
   -5.5234    0.7792   -1.5030 H   0  0  0  0  0  0  0  0  0  0  0  0
   -3.5874    1.0136   -0.6293 C   0  0  0  0  0  0  0  0  0  0  0  0
   -3.7612    1.0611    0.4384 H   0  0  0  0  0  0  0  0  0  0  0  0
   -0.0283    0.1609    1.5831 C   0  0  0  0  0  0  0  0  0  0  0  0
    1.1923    0.1056    1.7329 O   0  0  0  0  0  0  0  0  0  0  0  0
   -0.8586    0.4659    2.5853 N   0  0  0  0  0  0  0  0  0  0  0  0
   -1.8521    0.3848    2.4000 H   0  0  0  0  0  0  0  0  0  0  0  0
   -0.4403    0.7694    3.9518 C   0  0  0  0  0  0  0  0  0  0  0  0
    0.5066    1.3154    3.9421 H   0  0  0  0  0  0  0  0  0  0  0  0
   -1.1988    1.3789    4.4452 H   0  0  0  0  0  0  0  0  0  0  0  0
   -0.3053   -0.1600    4.5075 H   0  0  0  0  0  0  0  0  0  0  0  0
  5  6  2  0  0  0  0
  5  7  1  0  0  0  0
  2  3  1  0  0  0  0
  2  4  1  0  0  0  0
  2  5  1  0  0  0  0
  1  2  1  0  0  0  0
 22 23  2  0  0  0  0
 22 24  1  0  0  0  0
 20 21  1  0  0  0  0
 18 19  1  0  0  0  0
 18 20  1  0  0  0  0
 16 17  1  0  0  0  0
 16 18  1  0  0  0  0
 15 16  2  0  0  0  0
 14 15  1  0  0  0  0
 14 20  2  0  0  0  0
 11 12  1  0  0  0  0
 11 13  1  0  0  0  0
 11 14  1  0  0  0  0
  9 10  1  0  0  0  0
  9 11  1  0  0  0  0
  9 22  1  0  0  0  0
  7  8  1  0  0  0  0
  7  9  1  0  0  0  0
 26 27  1  0  0  0  0
 26 28  1  0  0  0  0
 26 29  1  0  0  0  0
 24 25  1  0  0  0  0
 24 26  1  0  0  0  0
M  END
$$$$
default_name
  -OEChem-02102213163D

 29 29  0     1  0  0  0  0  0999 V2000
   -2.9561   -3.9186    1.3887 H   0  0  0  0  0  0  0  0  0  0  0  0
   -3.1191   -2.9346    0.9517 C   0  0  0  0  0  0  0  0  0  0  0  0
   -3.7811   -2.3546    1.5917 H   0  0  0  0  0  0  0  0  0  0  0  0
   -3.5591   -3.0406   -0.0383 H   0  0  0  0  0  0  0  0  0  0  0  0
   -1.7921   -2.2226    0.8327 C   0  0  0  0  0  0  0  0  0  0  0  0
   -0.7611   -2.7766    1.1927 O   0  0  0  0  0  0  0  0  0  0  0  0
   -1.8201   -0.9926    0.3247 N   0  0  0  0  0  0  0  0  0  0  0  0
   -2.7141   -0.5816    0.0927 H   0  0  0  0  0  0  0  0  0  0  0  0
   -0.6481   -0.1156    0.2017 C   0  0  1  0  0  0  0  0  0  0  0  0
    0.1042   -0.6345   -0.3958 H   0  0  0  0  0  0  0  0  0  0  0  0
   -1.0420    1.1781   -0.5372 C   0  0  0  0  0  0  0  0  0  0  0  0
   -1.1205    2.0008    0.1750 H   0  0  0  0  0  0  0  0  0  0  0  0
   -0.2674    1.4414   -1.2588 H   0  0  0  0  0  0  0  0  0  0  0  0
   -2.3709    1.0685   -1.2444 C   0  0  0  0  0  0  0  0  0  0  0  0
   -2.5652    0.6379   -2.5575 N   0  0  0  0  0  0  0  0  0  0  0  0
   -3.8911    0.6492   -2.7575 C   0  0  0  0  0  0  0  0  0  0  0  0
   -4.3726    0.3766   -3.6882 H   0  0  0  0  0  0  0  0  0  0  0  0
   -4.5309    1.0359   -1.6410 N   0  0  0  0  0  0  0  0  0  0  0  0
   -5.5337    1.1052   -1.5341 H   0  0  0  0  0  0  0  0  0  0  0  0
   -3.5878    1.3012   -0.6732 C   0  0  0  0  0  0  0  0  0  0  0  0
   -3.7595    1.6123    0.3496 H   0  0  0  0  0  0  0  0  0  0  0  0
   -0.0283    0.1609    1.5831 C   0  0  0  0  0  0  0  0  0  0  0  0
    1.1923    0.1056    1.7329 O   0  0  0  0  0  0  0  0  0  0  0  0
   -0.8586    0.4659    2.5853 N   0  0  0  0  0  0  0  0  0  0  0  0
   -1.8521    0.3848    2.4000 H   0  0  0  0  0  0  0  0  0  0  0  0
   -0.4403    0.7694    3.9518 C   0  0  0  0  0  0  0  0  0  0  0  0
    0.5066    1.3154    3.9421 H   0  0  0  0  0  0  0  0  0  0  0  0
   -1.1988    1.3789    4.4452 H   0  0  0  0  0  0  0  0  0  0  0  0
   -0.3053   -0.1600    4.5075 H   0  0  0  0  0  0  0  0  0  0  0  0
  5  6  2  0  0  0  0
  5  7  1  0  0  0  0
  2  3  1  0  0  0  0
  2  4  1  0  0  0  0
  2  5  1  0  0  0  0
  1  2  1  0  0  0  0
 22 23  2  0  0  0  0
 22 24  1  0  0  0  0
 20 21  1  0  0  0  0
 18 19  1  0  0  0  0
 18 20  1  0  0  0  0
 16 17  1  0  0  0  0
 16 18  1  0  0  0  0
 15 16  2  0  0  0  0
 14 15  1  0  0  0  0
 14 20  2  0  0  0  0
 11 12  1  0  0  0  0
 11 13  1  0  0  0  0
 11 14  1  0  0  0  0
  9 10  1  0  0  0  0
  9 11  1  0  0  0  0
  9 22  1  0  0  0  0
  7  8  1  0  0  0  0
  7  9  1  0  0  0  0
 26 27  1  0  0  0  0
 26 28  1  0  0  0  0
 26 29  1  0  0  0  0
 24 25  1  0  0  0  0
 24 26  1  0  0  0  0
M  END
$$$$
default_name
  -OEChem-02102213163D

 29 29  0     1  0  0  0  0  0999 V2000
   -2.9561   -3.9186    1.3887 H   0  0  0  0  0  0  0  0  0  0  0  0
   -3.1191   -2.9346    0.9517 C   0  0  0  0  0  0  0  0  0  0  0  0
   -3.7811   -2.3546    1.5917 H   0  0  0  0  0  0  0  0  0  0  0  0
   -3.5591   -3.0406   -0.0383 H   0  0  0  0  0  0  0  0  0  0  0  0
   -1.7921   -2.2226    0.8327 C   0  0  0  0  0  0  0  0  0  0  0  0
   -0.7611   -2.7766    1.1927 O   0  0  0  0  0  0  0  0  0  0  0  0
   -1.8201   -0.9926    0.3247 N   0  0  0  0  0  0  0  0  0  0  0  0
   -2.7141   -0.5816    0.0927 H   0  0  0  0  0  0  0  0  0  0  0  0
   -0.6481   -0.1156    0.2017 C   0  0  1  0  0  0  0  0  0  0  0  0
    0.1042   -0.6345   -0.3958 H   0  0  0  0  0  0  0  0  0  0  0  0
   -1.0420    1.1781   -0.5372 C   0  0  0  0  0  0  0  0  0  0  0  0
   -1.1205    2.0008    0.1750 H   0  0  0  0  0  0  0  0  0  0  0  0
   -0.2674    1.4414   -1.2588 H   0  0  0  0  0  0  0  0  0  0  0  0
   -2.3709    1.0685   -1.2444 C   0  0  0  0  0  0  0  0  0  0  0  0
   -2.6106    0.3749   -2.4313 N   0  0  0  0  0  0  0  0  0  0  0  0
   -3.9241    0.4979   -2.6721 C   0  0  0  0  0  0  0  0  0  0  0  0
   -4.4311    0.0787   -3.5321 H   0  0  0  0  0  0  0  0  0  0  0  0
   -4.5165    1.2033   -1.6940 N   0  0  0  0  0  0  0  0  0  0  0  0
   -5.5036    1.4142   -1.6387 H   0  0  0  0  0  0  0  0  0  0  0  0
   -3.5525    1.5690   -0.7811 C   0  0  0  0  0  0  0  0  0  0  0  0
   -3.6893    2.1243    0.1383 H   0  0  0  0  0  0  0  0  0  0  0  0
   -0.0283    0.1609    1.5831 C   0  0  0  0  0  0  0  0  0  0  0  0
    1.1923    0.1056    1.7329 O   0  0  0  0  0  0  0  0  0  0  0  0
   -0.8586    0.4659    2.5853 N   0  0  0  0  0  0  0  0  0  0  0  0
   -1.8521    0.3848    2.4000 H   0  0  0  0  0  0  0  0  0  0  0  0
   -0.4403    0.7694    3.9518 C   0  0  0  0  0  0  0  0  0  0  0  0
    0.5066    1.3154    3.9421 H   0  0  0  0  0  0  0  0  0  0  0  0
   -1.1988    1.3789    4.4452 H   0  0  0  0  0  0  0  0  0  0  0  0
   -0.3053   -0.1600    4.5075 H   0  0  0  0  0  0  0  0  0  0  0  0
  5  6  2  0  0  0  0
  5  7  1  0  0  0  0
  2  3  1  0  0  0  0
  2  4  1  0  0  0  0
  2  5  1  0  0  0  0
  1  2  1  0  0  0  0
 22 23  2  0  0  0  0
 22 24  1  0  0  0  0
 20 21  1  0  0  0  0
 18 19  1  0  0  0  0
 18 20  1  0  0  0  0
 16 17  1  0  0  0  0
 16 18  1  0  0  0  0
 15 16  2  0  0  0  0
 14 15  1  0  0  0  0
 14 20  2  0  0  0  0
 11 12  1  0  0  0  0
 11 13  1  0  0  0  0
 11 14  1  0  0  0  0
  9 10  1  0  0  0  0
  9 11  1  0  0  0  0
  9 22  1  0  0  0  0
  7  8  1  0  0  0  0
  7  9  1  0  0  0  0
 26 27  1  0  0  0  0
 26 28  1  0  0  0  0
 26 29  1  0  0  0  0
 24 25  1  0  0  0  0
 24 26  1  0  0  0  0
M  END
$$$$
default_name
  -OEChem-02102213163D

 29 29  0     1  0  0  0  0  0999 V2000
   -2.9561   -3.9186    1.3887 H   0  0  0  0  0  0  0  0  0  0  0  0
   -3.1191   -2.9346    0.9517 C   0  0  0  0  0  0  0  0  0  0  0  0
   -3.7811   -2.3546    1.5917 H   0  0  0  0  0  0  0  0  0  0  0  0
   -3.5591   -3.0406   -0.0383 H   0  0  0  0  0  0  0  0  0  0  0  0
   -1.7921   -2.2226    0.8327 C   0  0  0  0  0  0  0  0  0  0  0  0
   -0.7611   -2.7766    1.1927 O   0  0  0  0  0  0  0  0  0  0  0  0
   -1.8201   -0.9926    0.3247 N   0  0  0  0  0  0  0  0  0  0  0  0
   -2.7141   -0.5816    0.0927 H   0  0  0  0  0  0  0  0  0  0  0  0
   -0.6481   -0.1156    0.2017 C   0  0  1  0  0  0  0  0  0  0  0  0
    0.1042   -0.6345   -0.3958 H   0  0  0  0  0  0  0  0  0  0  0  0
   -1.0420    1.1781   -0.5372 C   0  0  0  0  0  0  0  0  0  0  0  0
   -1.1205    2.0008    0.1750 H   0  0  0  0  0  0  0  0  0  0  0  0
   -0.2674    1.4414   -1.2588 H   0  0  0  0  0  0  0  0  0  0  0  0
   -2.3709    1.0685   -1.2444 C   0  0  0  0  0  0  0  0  0  0  0  0
   -2.6888    0.1551   -2.2504 N   0  0  0  0  0  0  0  0  0  0  0  0
   -3.9758    0.3752   -2.5558 C   0  0  0  0  0  0  0  0  0  0  0  0
   -4.5266   -0.1664   -3.3145 H   0  0  0  0  0  0  0  0  0  0  0  0
   -4.4813    1.3513   -1.7831 N   0  0  0  0  0  0  0  0  0  0  0  0
   -5.4350    1.6852   -1.8095 H   0  0  0  0  0  0  0  0  0  0  0  0
   -3.4838    1.7989   -0.9457 C   0  0  0  0  0  0  0  0  0  0  0  0
   -3.5554    2.5622   -0.1811 H   0  0  0  0  0  0  0  0  0  0  0  0
   -0.0283    0.1609    1.5831 C   0  0  0  0  0  0  0  0  0  0  0  0
    1.1923    0.1056    1.7329 O   0  0  0  0  0  0  0  0  0  0  0  0
   -0.8586    0.4659    2.5853 N   0  0  0  0  0  0  0  0  0  0  0  0
   -1.8521    0.3848    2.4000 H   0  0  0  0  0  0  0  0  0  0  0  0
   -0.4403    0.7694    3.9518 C   0  0  0  0  0  0  0  0  0  0  0  0
    0.5066    1.3154    3.9421 H   0  0  0  0  0  0  0  0  0  0  0  0
   -1.1988    1.3789    4.4452 H   0  0  0  0  0  0  0  0  0  0  0  0
   -0.3053   -0.1600    4.5075 H   0  0  0  0  0  0  0  0  0  0  0  0
  5  6  2  0  0  0  0
  5  7  1  0  0  0  0
  2  3  1  0  0  0  0
  2  4  1  0  0  0  0
  2  5  1  0  0  0  0
  1  2  1  0  0  0  0
 22 23  2  0  0  0  0
 22 24  1  0  0  0  0
 20 21  1  0  0  0  0
 18 19  1  0  0  0  0
 18 20  1  0  0  0  0
 16 17  1  0  0  0  0
 16 18  1  0  0  0  0
 15 16  2  0  0  0  0
 14 15  1  0  0  0  0
 14 20  2  0  0  0  0
 11 12  1  0  0  0  0
 11 13  1  0  0  0  0
 11 14  1  0  0  0  0
  9 10  1  0  0  0  0
  9 11  1  0  0  0  0
  9 22  1  0  0  0  0
  7  8  1  0  0  0  0
  7  9  1  0  0  0  0
 26 27  1  0  0  0  0
 26 28  1  0  0  0  0
 26 29  1  0  0  0  0
 24 25  1  0  0  0  0
 24 26  1  0  0  0  0
M  END
$$$$
default_name
  -OEChem-02102213163D

 29 29  0     1  0  0  0  0  0999 V2000
   -2.9561   -3.9186    1.3887 H   0  0  0  0  0  0  0  0  0  0  0  0
   -3.1191   -2.9346    0.9517 C   0  0  0  0  0  0  0  0  0  0  0  0
   -3.7811   -2.3546    1.5917 H   0  0  0  0  0  0  0  0  0  0  0  0
   -3.5591   -3.0406   -0.0383 H   0  0  0  0  0  0  0  0  0  0  0  0
   -1.7921   -2.2226    0.8327 C   0  0  0  0  0  0  0  0  0  0  0  0
   -0.7611   -2.7766    1.1927 O   0  0  0  0  0  0  0  0  0  0  0  0
   -1.8201   -0.9926    0.3247 N   0  0  0  0  0  0  0  0  0  0  0  0
   -2.7141   -0.5816    0.0927 H   0  0  0  0  0  0  0  0  0  0  0  0
   -0.6481   -0.1156    0.2017 C   0  0  1  0  0  0  0  0  0  0  0  0
    0.1042   -0.6345   -0.3958 H   0  0  0  0  0  0  0  0  0  0  0  0
   -1.0420    1.1781   -0.5372 C   0  0  0  0  0  0  0  0  0  0  0  0
   -1.1205    2.0008    0.1750 H   0  0  0  0  0  0  0  0  0  0  0  0
   -0.2674    1.4414   -1.2588 H   0  0  0  0  0  0  0  0  0  0  0  0
   -2.3709    1.0685   -1.2444 C   0  0  0  0  0  0  0  0  0  0  0  0
   -2.7943   -0.0065   -2.0270 N   0  0  0  0  0  0  0  0  0  0  0  0
   -4.0429    0.2894   -2.4164 C   0  0  0  0  0  0  0  0  0  0  0  0
   -4.6528   -0.3420   -3.0503 H   0  0  0  0  0  0  0  0  0  0  0  0
   -4.4277    1.4696   -1.9023 N   0  0  0  0  0  0  0  0  0  0  0  0
   -5.3328    1.8998   -2.0349 H   0  0  0  0  0  0  0  0  0  0  0  0
   -3.3866    1.9751   -1.1558 C   0  0  0  0  0  0  0  0  0  0  0  0
   -3.3670    2.8962   -0.5870 H   0  0  0  0  0  0  0  0  0  0  0  0
   -0.0283    0.1609    1.5831 C   0  0  0  0  0  0  0  0  0  0  0  0
    1.1923    0.1056    1.7329 O   0  0  0  0  0  0  0  0  0  0  0  0
   -0.8586    0.4659    2.5853 N   0  0  0  0  0  0  0  0  0  0  0  0
   -1.8521    0.3848    2.4000 H   0  0  0  0  0  0  0  0  0  0  0  0
   -0.4403    0.7694    3.9518 C   0  0  0  0  0  0  0  0  0  0  0  0
    0.5066    1.3154    3.9421 H   0  0  0  0  0  0  0  0  0  0  0  0
   -1.1988    1.3789    4.4452 H   0  0  0  0  0  0  0  0  0  0  0  0
   -0.3053   -0.1600    4.5075 H   0  0  0  0  0  0  0  0  0  0  0  0
  5  6  2  0  0  0  0
  5  7  1  0  0  0  0
  2  3  1  0  0  0  0
  2  4  1  0  0  0  0
  2  5  1  0  0  0  0
  1  2  1  0  0  0  0
 22 23  2  0  0  0  0
 22 24  1  0  0  0  0
 20 21  1  0  0  0  0
 18 19  1  0  0  0  0
 18 20  1  0  0  0  0
 16 17  1  0  0  0  0
 16 18  1  0  0  0  0
 15 16  2  0  0  0  0
 14 15  1  0  0  0  0
 14 20  2  0  0  0  0
 11 12  1  0  0  0  0
 11 13  1  0  0  0  0
 11 14  1  0  0  0  0
  9 10  1  0  0  0  0
  9 11  1  0  0  0  0
  9 22  1  0  0  0  0
  7  8  1  0  0  0  0
  7  9  1  0  0  0  0
 26 27  1  0  0  0  0
 26 28  1  0  0  0  0
 26 29  1  0  0  0  0
 24 25  1  0  0  0  0
 24 26  1  0  0  0  0
M  END
$$$$
default_name
  -OEChem-02102213163D

 29 29  0     1  0  0  0  0  0999 V2000
   -2.9561   -3.9186    1.3887 H   0  0  0  0  0  0  0  0  0  0  0  0
   -3.1191   -2.9346    0.9517 C   0  0  0  0  0  0  0  0  0  0  0  0
   -3.7811   -2.3546    1.5917 H   0  0  0  0  0  0  0  0  0  0  0  0
   -3.5591   -3.0406   -0.0383 H   0  0  0  0  0  0  0  0  0  0  0  0
   -1.7921   -2.2226    0.8327 C   0  0  0  0  0  0  0  0  0  0  0  0
   -0.7611   -2.7766    1.1927 O   0  0  0  0  0  0  0  0  0  0  0  0
   -1.8201   -0.9926    0.3247 N   0  0  0  0  0  0  0  0  0  0  0  0
   -2.7141   -0.5816    0.0927 H   0  0  0  0  0  0  0  0  0  0  0  0
   -0.6481   -0.1156    0.2017 C   0  0  1  0  0  0  0  0  0  0  0  0
    0.1042   -0.6345   -0.3958 H   0  0  0  0  0  0  0  0  0  0  0  0
   -1.0420    1.1781   -0.5372 C   0  0  0  0  0  0  0  0  0  0  0  0
   -1.1205    2.0008    0.1750 H   0  0  0  0  0  0  0  0  0  0  0  0
   -0.2674    1.4414   -1.2588 H   0  0  0  0  0  0  0  0  0  0  0  0
   -2.3709    1.0685   -1.2444 C   0  0  0  0  0  0  0  0  0  0  0  0
   -2.9201   -0.0989   -1.7763 N   0  0  0  0  0  0  0  0  0  0  0  0
   -4.1207    0.2465   -2.2636 C   0  0  0  0  0  0  0  0  0  0  0  0
   -4.8008   -0.4361   -2.7574 H   0  0  0  0  0  0  0  0  0  0  0  0
   -4.3593    1.5503   -2.0433 N   0  0  0  0  0  0  0  0  0  0  0  0
   -5.2037    2.0432   -2.2997 H   0  0  0  0  0  0  0  0  0  0  0  0
   -3.2673    2.0856   -1.3971 C   0  0  0  0  0  0  0  0  0  0  0  0
   -3.1369    3.1034   -1.0516 H   0  0  0  0  0  0  0  0  0  0  0  0
   -0.0283    0.1609    1.5831 C   0  0  0  0  0  0  0  0  0  0  0  0
    1.1923    0.1056    1.7329 O   0  0  0  0  0  0  0  0  0  0  0  0
   -0.8586    0.4659    2.5853 N   0  0  0  0  0  0  0  0  0  0  0  0
   -1.8521    0.3848    2.4000 H   0  0  0  0  0  0  0  0  0  0  0  0
   -0.4403    0.7694    3.9518 C   0  0  0  0  0  0  0  0  0  0  0  0
    0.5066    1.3154    3.9421 H   0  0  0  0  0  0  0  0  0  0  0  0
   -1.1988    1.3789    4.4452 H   0  0  0  0  0  0  0  0  0  0  0  0
   -0.3053   -0.1600    4.5075 H   0  0  0  0  0  0  0  0  0  0  0  0
  5  6  2  0  0  0  0
  5  7  1  0  0  0  0
  2  3  1  0  0  0  0
  2  4  1  0  0  0  0
  2  5  1  0  0  0  0
  1  2  1  0  0  0  0
 22 23  2  0  0  0  0
 22 24  1  0  0  0  0
 20 21  1  0  0  0  0
 18 19  1  0  0  0  0
 18 20  1  0  0  0  0
 16 17  1  0  0  0  0
 16 18  1  0  0  0  0
 15 16  2  0  0  0  0
 14 15  1  0  0  0  0
 14 20  2  0  0  0  0
 11 12  1  0  0  0  0
 11 13  1  0  0  0  0
 11 14  1  0  0  0  0
  9 10  1  0  0  0  0
  9 11  1  0  0  0  0
  9 22  1  0  0  0  0
  7  8  1  0  0  0  0
  7  9  1  0  0  0  0
 26 27  1  0  0  0  0
 26 28  1  0  0  0  0
 26 29  1  0  0  0  0
 24 25  1  0  0  0  0
 24 26  1  0  0  0  0
M  END
$$$$
default_name
  -OEChem-02102213163D

 29 29  0     1  0  0  0  0  0999 V2000
   -2.9561   -3.9186    1.3887 H   0  0  0  0  0  0  0  0  0  0  0  0
   -3.1191   -2.9346    0.9517 C   0  0  0  0  0  0  0  0  0  0  0  0
   -3.7811   -2.3546    1.5917 H   0  0  0  0  0  0  0  0  0  0  0  0
   -3.5591   -3.0406   -0.0383 H   0  0  0  0  0  0  0  0  0  0  0  0
   -1.7921   -2.2226    0.8327 C   0  0  0  0  0  0  0  0  0  0  0  0
   -0.7611   -2.7766    1.1927 O   0  0  0  0  0  0  0  0  0  0  0  0
   -1.8201   -0.9926    0.3247 N   0  0  0  0  0  0  0  0  0  0  0  0
   -2.7141   -0.5816    0.0927 H   0  0  0  0  0  0  0  0  0  0  0  0
   -0.6481   -0.1156    0.2017 C   0  0  1  0  0  0  0  0  0  0  0  0
    0.1042   -0.6345   -0.3958 H   0  0  0  0  0  0  0  0  0  0  0  0
   -1.0420    1.1781   -0.5372 C   0  0  0  0  0  0  0  0  0  0  0  0
   -1.1205    2.0008    0.1750 H   0  0  0  0  0  0  0  0  0  0  0  0
   -0.2674    1.4414   -1.2588 H   0  0  0  0  0  0  0  0  0  0  0  0
   -2.3709    1.0685   -1.2444 C   0  0  0  0  0  0  0  0  0  0  0  0
   -3.0574   -0.1158   -1.5155 N   0  0  0  0  0  0  0  0  0  0  0  0
   -4.2040    0.2493   -2.1076 C   0  0  0  0  0  0  0  0  0  0  0  0
   -4.9608   -0.4422   -2.4559 H   0  0  0  0  0  0  0  0  0  0  0  0
   -4.2808    1.5877   -2.1966 N   0  0  0  0  0  0  0  0  0  0  0  0
   -5.0567    2.1058   -2.5857 H   0  0  0  0  0  0  0  0  0  0  0  0
   -3.1342    2.1229   -1.6530 C   0  0  0  0  0  0  0  0  0  0  0  0
   -2.8807    3.1698   -1.5432 H   0  0  0  0  0  0  0  0  0  0  0  0
   -0.0283    0.1609    1.5831 C   0  0  0  0  0  0  0  0  0  0  0  0
    1.1923    0.1056    1.7329 O   0  0  0  0  0  0  0  0  0  0  0  0
   -0.8586    0.4659    2.5853 N   0  0  0  0  0  0  0  0  0  0  0  0
   -1.8521    0.3848    2.4000 H   0  0  0  0  0  0  0  0  0  0  0  0
   -0.4403    0.7694    3.9518 C   0  0  0  0  0  0  0  0  0  0  0  0
    0.5066    1.3154    3.9421 H   0  0  0  0  0  0  0  0  0  0  0  0
   -1.1988    1.3789    4.4452 H   0  0  0  0  0  0  0  0  0  0  0  0
   -0.3053   -0.1600    4.5075 H   0  0  0  0  0  0  0  0  0  0  0  0
  5  6  2  0  0  0  0
  5  7  1  0  0  0  0
  2  3  1  0  0  0  0
  2  4  1  0  0  0  0
  2  5  1  0  0  0  0
  1  2  1  0  0  0  0
 22 23  2  0  0  0  0
 22 24  1  0  0  0  0
 20 21  1  0  0  0  0
 18 19  1  0  0  0  0
 18 20  1  0  0  0  0
 16 17  1  0  0  0  0
 16 18  1  0  0  0  0
 15 16  2  0  0  0  0
 14 15  1  0  0  0  0
 14 20  2  0  0  0  0
 11 12  1  0  0  0  0
 11 13  1  0  0  0  0
 11 14  1  0  0  0  0
  9 10  1  0  0  0  0
  9 11  1  0  0  0  0
  9 22  1  0  0  0  0
  7  8  1  0  0  0  0
  7  9  1  0  0  0  0
 26 27  1  0  0  0  0
 26 28  1  0  0  0  0
 26 29  1  0  0  0  0
 24 25  1  0  0  0  0
 24 26  1  0  0  0  0
M  END
$$$$
default_name
  -OEChem-02102213163D

 29 29  0     1  0  0  0  0  0999 V2000
   -2.9561   -3.9186    1.3887 H   0  0  0  0  0  0  0  0  0  0  0  0
   -3.1191   -2.9346    0.9517 C   0  0  0  0  0  0  0  0  0  0  0  0
   -3.7811   -2.3546    1.5917 H   0  0  0  0  0  0  0  0  0  0  0  0
   -3.5591   -3.0406   -0.0383 H   0  0  0  0  0  0  0  0  0  0  0  0
   -1.7921   -2.2226    0.8327 C   0  0  0  0  0  0  0  0  0  0  0  0
   -0.7611   -2.7766    1.1927 O   0  0  0  0  0  0  0  0  0  0  0  0
   -1.8201   -0.9926    0.3247 N   0  0  0  0  0  0  0  0  0  0  0  0
   -2.7141   -0.5816    0.0927 H   0  0  0  0  0  0  0  0  0  0  0  0
   -0.6481   -0.1156    0.2017 C   0  0  1  0  0  0  0  0  0  0  0  0
    0.1042   -0.6345   -0.3958 H   0  0  0  0  0  0  0  0  0  0  0  0
   -1.0420    1.1781   -0.5372 C   0  0  0  0  0  0  0  0  0  0  0  0
   -1.1205    2.0008    0.1750 H   0  0  0  0  0  0  0  0  0  0  0  0
   -0.2674    1.4414   -1.2588 H   0  0  0  0  0  0  0  0  0  0  0  0
   -2.3709    1.0685   -1.2444 C   0  0  0  0  0  0  0  0  0  0  0  0
   -3.1971   -0.0560   -1.2624 N   0  0  0  0  0  0  0  0  0  0  0  0
   -4.2870    0.2976   -1.9591 C   0  0  0  0  0  0  0  0  0  0  0  0
   -5.1217   -0.3601   -2.1663 H   0  0  0  0  0  0  0  0  0  0  0  0
   -4.1976    1.5795   -2.3517 N   0  0  0  0  0  0  0  0  0  0  0  0
   -4.9017    2.0833   -2.8734 H   0  0  0  0  0  0  0  0  0  0  0  0
   -2.9962    2.0844   -1.9063 C   0  0  0  0  0  0  0  0  0  0  0  0
   -2.6160    3.0908   -2.0284 H   0  0  0  0  0  0  0  0  0  0  0  0
   -0.0283    0.1609    1.5831 C   0  0  0  0  0  0  0  0  0  0  0  0
    1.1923    0.1056    1.7329 O   0  0  0  0  0  0  0  0  0  0  0  0
   -0.8586    0.4659    2.5853 N   0  0  0  0  0  0  0  0  0  0  0  0
   -1.8521    0.3848    2.4000 H   0  0  0  0  0  0  0  0  0  0  0  0
   -0.4403    0.7694    3.9518 C   0  0  0  0  0  0  0  0  0  0  0  0
    0.5066    1.3154    3.9421 H   0  0  0  0  0  0  0  0  0  0  0  0
   -1.1988    1.3789    4.4452 H   0  0  0  0  0  0  0  0  0  0  0  0
   -0.3053   -0.1600    4.5075 H   0  0  0  0  0  0  0  0  0  0  0  0
  5  6  2  0  0  0  0
  5  7  1  0  0  0  0
  2  3  1  0  0  0  0
  2  4  1  0  0  0  0
  2  5  1  0  0  0  0
  1  2  1  0  0  0  0
 22 23  2  0  0  0  0
 22 24  1  0  0  0  0
 20 21  1  0  0  0  0
 18 19  1  0  0  0  0
 18 20  1  0  0  0  0
 16 17  1  0  0  0  0
 16 18  1  0  0  0  0
 15 16  2  0  0  0  0
 14 15  1  0  0  0  0
 14 20  2  0  0  0  0
 11 12  1  0  0  0  0
 11 13  1  0  0  0  0
 11 14  1  0  0  0  0
  9 10  1  0  0  0  0
  9 11  1  0  0  0  0
  9 22  1  0  0  0  0
  7  8  1  0  0  0  0
  7  9  1  0  0  0  0
 26 27  1  0  0  0  0
 26 28  1  0  0  0  0
 26 29  1  0  0  0  0
 24 25  1  0  0  0  0
 24 26  1  0  0  0  0
M  END
$$$$
default_name
  -OEChem-02102213163D

 29 29  0     1  0  0  0  0  0999 V2000
   -2.9561   -3.9186    1.3887 H   0  0  0  0  0  0  0  0  0  0  0  0
   -3.1191   -2.9346    0.9517 C   0  0  0  0  0  0  0  0  0  0  0  0
   -3.7811   -2.3546    1.5917 H   0  0  0  0  0  0  0  0  0  0  0  0
   -3.5591   -3.0406   -0.0383 H   0  0  0  0  0  0  0  0  0  0  0  0
   -1.7921   -2.2226    0.8327 C   0  0  0  0  0  0  0  0  0  0  0  0
   -0.7611   -2.7766    1.1927 O   0  0  0  0  0  0  0  0  0  0  0  0
   -1.8201   -0.9926    0.3247 N   0  0  0  0  0  0  0  0  0  0  0  0
   -2.7141   -0.5816    0.0927 H   0  0  0  0  0  0  0  0  0  0  0  0
   -0.6481   -0.1156    0.2017 C   0  0  1  0  0  0  0  0  0  0  0  0
    0.1042   -0.6345   -0.3958 H   0  0  0  0  0  0  0  0  0  0  0  0
   -1.0420    1.1781   -0.5372 C   0  0  0  0  0  0  0  0  0  0  0  0
   -1.1205    2.0008    0.1750 H   0  0  0  0  0  0  0  0  0  0  0  0
   -0.2674    1.4414   -1.2588 H   0  0  0  0  0  0  0  0  0  0  0  0
   -2.3709    1.0685   -1.2444 C   0  0  0  0  0  0  0  0  0  0  0  0
   -3.3295    0.0764   -1.0341 N   0  0  0  0  0  0  0  0  0  0  0  0
   -4.3641    0.3882   -1.8283 C   0  0  0  0  0  0  0  0  0  0  0  0
   -5.2726   -0.1953   -1.9082 H   0  0  0  0  0  0  0  0  0  0  0  0
   -4.1152    1.5261   -2.4981 N   0  0  0  0  0  0  0  0  0  0  0  0
   -4.7493    1.9772   -3.1433 H   0  0  0  0  0  0  0  0  0  0  0  0
   -2.8629    1.9729   -2.1396 C   0  0  0  0  0  0  0  0  0  0  0  0
   -2.3608    2.8719   -2.4741 H   0  0  0  0  0  0  0  0  0  0  0  0
   -0.0283    0.1609    1.5831 C   0  0  0  0  0  0  0  0  0  0  0  0
    1.1923    0.1056    1.7329 O   0  0  0  0  0  0  0  0  0  0  0  0
   -0.8586    0.4659    2.5853 N   0  0  0  0  0  0  0  0  0  0  0  0
   -1.8521    0.3848    2.4000 H   0  0  0  0  0  0  0  0  0  0  0  0
   -0.4403    0.7694    3.9518 C   0  0  0  0  0  0  0  0  0  0  0  0
    0.5066    1.3154    3.9421 H   0  0  0  0  0  0  0  0  0  0  0  0
   -1.1988    1.3789    4.4452 H   0  0  0  0  0  0  0  0  0  0  0  0
   -0.3053   -0.1600    4.5075 H   0  0  0  0  0  0  0  0  0  0  0  0
  5  6  2  0  0  0  0
  5  7  1  0  0  0  0
  2  3  1  0  0  0  0
  2  4  1  0  0  0  0
  2  5  1  0  0  0  0
  1  2  1  0  0  0  0
 22 23  2  0  0  0  0
 22 24  1  0  0  0  0
 20 21  1  0  0  0  0
 18 19  1  0  0  0  0
 18 20  1  0  0  0  0
 16 17  1  0  0  0  0
 16 18  1  0  0  0  0
 15 16  2  0  0  0  0
 14 15  1  0  0  0  0
 14 20  2  0  0  0  0
 11 12  1  0  0  0  0
 11 13  1  0  0  0  0
 11 14  1  0  0  0  0
  9 10  1  0  0  0  0
  9 11  1  0  0  0  0
  9 22  1  0  0  0  0
  7  8  1  0  0  0  0
  7  9  1  0  0  0  0
 26 27  1  0  0  0  0
 26 28  1  0  0  0  0
 26 29  1  0  0  0  0
 24 25  1  0  0  0  0
 24 26  1  0  0  0  0
M  END
$$$$
default_name
  -OEChem-02102213163D

 29 29  0     1  0  0  0  0  0999 V2000
   -2.9561   -3.9186    1.3887 H   0  0  0  0  0  0  0  0  0  0  0  0
   -3.1191   -2.9346    0.9517 C   0  0  0  0  0  0  0  0  0  0  0  0
   -3.7811   -2.3546    1.5917 H   0  0  0  0  0  0  0  0  0  0  0  0
   -3.5591   -3.0406   -0.0383 H   0  0  0  0  0  0  0  0  0  0  0  0
   -1.7921   -2.2226    0.8327 C   0  0  0  0  0  0  0  0  0  0  0  0
   -0.7611   -2.7766    1.1927 O   0  0  0  0  0  0  0  0  0  0  0  0
   -1.8201   -0.9926    0.3247 N   0  0  0  0  0  0  0  0  0  0  0  0
   -2.7141   -0.5816    0.0927 H   0  0  0  0  0  0  0  0  0  0  0  0
   -0.6481   -0.1156    0.2017 C   0  0  1  0  0  0  0  0  0  0  0  0
    0.1042   -0.6345   -0.3958 H   0  0  0  0  0  0  0  0  0  0  0  0
   -1.0420    1.1781   -0.5372 C   0  0  0  0  0  0  0  0  0  0  0  0
   -1.1205    2.0008    0.1750 H   0  0  0  0  0  0  0  0  0  0  0  0
   -0.2674    1.4414   -1.2588 H   0  0  0  0  0  0  0  0  0  0  0  0
   -2.3709    1.0685   -1.2444 C   0  0  0  0  0  0  0  0  0  0  0  0
   -3.4456    0.2723   -0.8462 N   0  0  0  0  0  0  0  0  0  0  0  0
   -4.4300    0.5149   -1.7240 C   0  0  0  0  0  0  0  0  0  0  0  0
   -5.4032    0.0411   -1.6994 H   0  0  0  0  0  0  0  0  0  0  0  0
   -4.0395    1.4311   -2.6258 N   0  0  0  0  0  0  0  0  0  0  0  0
   -4.6100    1.7947   -3.3770 H   0  0  0  0  0  0  0  0  0  0  0  0
   -2.7433    1.7958   -2.3370 C   0  0  0  0  0  0  0  0  0  0  0  0
   -2.1324    2.5279   -2.8499 H   0  0  0  0  0  0  0  0  0  0  0  0
   -0.0283    0.1609    1.5831 C   0  0  0  0  0  0  0  0  0  0  0  0
    1.1923    0.1056    1.7329 O   0  0  0  0  0  0  0  0  0  0  0  0
   -0.8586    0.4659    2.5853 N   0  0  0  0  0  0  0  0  0  0  0  0
   -1.8521    0.3848    2.4000 H   0  0  0  0  0  0  0  0  0  0  0  0
   -0.4403    0.7694    3.9518 C   0  0  0  0  0  0  0  0  0  0  0  0
    0.5066    1.3154    3.9421 H   0  0  0  0  0  0  0  0  0  0  0  0
   -1.1988    1.3789    4.4452 H   0  0  0  0  0  0  0  0  0  0  0  0
   -0.3053   -0.1600    4.5075 H   0  0  0  0  0  0  0  0  0  0  0  0
  5  6  2  0  0  0  0
  5  7  1  0  0  0  0
  2  3  1  0  0  0  0
  2  4  1  0  0  0  0
  2  5  1  0  0  0  0
  1  2  1  0  0  0  0
 22 23  2  0  0  0  0
 22 24  1  0  0  0  0
 20 21  1  0  0  0  0
 18 19  1  0  0  0  0
 18 20  1  0  0  0  0
 16 17  1  0  0  0  0
 16 18  1  0  0  0  0
 15 16  2  0  0  0  0
 14 15  1  0  0  0  0
 14 20  2  0  0  0  0
 11 12  1  0  0  0  0
 11 13  1  0  0  0  0
 11 14  1  0  0  0  0
  9 10  1  0  0  0  0
  9 11  1  0  0  0  0
  9 22  1  0  0  0  0
  7  8  1  0  0  0  0
  7  9  1  0  0  0  0
 26 27  1  0  0  0  0
 26 28  1  0  0  0  0
 26 29  1  0  0  0  0
 24 25  1  0  0  0  0
 24 26  1  0  0  0  0
M  END
$$$$
default_name
  -OEChem-02102213163D

 29 29  0     1  0  0  0  0  0999 V2000
   -2.9561   -3.9186    1.3887 H   0  0  0  0  0  0  0  0  0  0  0  0
   -3.1191   -2.9346    0.9517 C   0  0  0  0  0  0  0  0  0  0  0  0
   -3.7811   -2.3546    1.5917 H   0  0  0  0  0  0  0  0  0  0  0  0
   -3.5591   -3.0406   -0.0383 H   0  0  0  0  0  0  0  0  0  0  0  0
   -1.7921   -2.2226    0.8327 C   0  0  0  0  0  0  0  0  0  0  0  0
   -0.7611   -2.7766    1.1927 O   0  0  0  0  0  0  0  0  0  0  0  0
   -1.8201   -0.9926    0.3247 N   0  0  0  0  0  0  0  0  0  0  0  0
   -2.7141   -0.5816    0.0927 H   0  0  0  0  0  0  0  0  0  0  0  0
   -0.6481   -0.1156    0.2017 C   0  0  1  0  0  0  0  0  0  0  0  0
    0.1042   -0.6345   -0.3958 H   0  0  0  0  0  0  0  0  0  0  0  0
   -1.0420    1.1781   -0.5372 C   0  0  0  0  0  0  0  0  0  0  0  0
   -1.1205    2.0008    0.1750 H   0  0  0  0  0  0  0  0  0  0  0  0
   -0.2674    1.4414   -1.2588 H   0  0  0  0  0  0  0  0  0  0  0  0
   -2.3709    1.0685   -1.2444 C   0  0  0  0  0  0  0  0  0  0  0  0
   -3.5375    0.5185   -0.7116 N   0  0  0  0  0  0  0  0  0  0  0  0
   -4.4803    0.6690   -1.6534 C   0  0  0  0  0  0  0  0  0  0  0  0
   -5.5047    0.3328   -1.5539 H   0  0  0  0  0  0  0  0  0  0  0  0
   -3.9754    1.3011   -2.7261 N   0  0  0  0  0  0  0  0  0  0  0  0
   -4.4931    1.5482   -3.5584 H   0  0  0  0  0  0  0  0  0  0  0  0
   -2.6455    1.5652   -2.4850 C   0  0  0  0  0  0  0  0  0  0  0  0
   -1.9465    2.0823   -3.1303 H   0  0  0  0  0  0  0  0  0  0  0  0
   -0.0283    0.1609    1.5831 C   0  0  0  0  0  0  0  0  0  0  0  0
    1.1923    0.1056    1.7329 O   0  0  0  0  0  0  0  0  0  0  0  0
   -0.8586    0.4659    2.5853 N   0  0  0  0  0  0  0  0  0  0  0  0
   -1.8521    0.3848    2.4000 H   0  0  0  0  0  0  0  0  0  0  0  0
   -0.4403    0.7694    3.9518 C   0  0  0  0  0  0  0  0  0  0  0  0
    0.5066    1.3154    3.9421 H   0  0  0  0  0  0  0  0  0  0  0  0
   -1.1988    1.3789    4.4452 H   0  0  0  0  0  0  0  0  0  0  0  0
   -0.3053   -0.1600    4.5075 H   0  0  0  0  0  0  0  0  0  0  0  0
  5  6  2  0  0  0  0
  5  7  1  0  0  0  0
  2  3  1  0  0  0  0
  2  4  1  0  0  0  0
  2  5  1  0  0  0  0
  1  2  1  0  0  0  0
 22 23  2  0  0  0  0
 22 24  1  0  0  0  0
 20 21  1  0  0  0  0
 18 19  1  0  0  0  0
 18 20  1  0  0  0  0
 16 17  1  0  0  0  0
 16 18  1  0  0  0  0
 15 16  2  0  0  0  0
 14 15  1  0  0  0  0
 14 20  2  0  0  0  0
 11 12  1  0  0  0  0
 11 13  1  0  0  0  0
 11 14  1  0  0  0  0
  9 10  1  0  0  0  0
  9 11  1  0  0  0  0
  9 22  1  0  0  0  0
  7  8  1  0  0  0  0
  7  9  1  0  0  0  0
 26 27  1  0  0  0  0
 26 28  1  0  0  0  0
 26 29  1  0  0  0  0
 24 25  1  0  0  0  0
 24 26  1  0  0  0  0
M  END
$$$$
default_name
  -OEChem-02102213163D

 29 29  0     1  0  0  0  0  0999 V2000
   -2.9561   -3.9186    1.3887 H   0  0  0  0  0  0  0  0  0  0  0  0
   -3.1191   -2.9346    0.9517 C   0  0  0  0  0  0  0  0  0  0  0  0
   -3.7811   -2.3546    1.5917 H   0  0  0  0  0  0  0  0  0  0  0  0
   -3.5591   -3.0406   -0.0383 H   0  0  0  0  0  0  0  0  0  0  0  0
   -1.7921   -2.2226    0.8327 C   0  0  0  0  0  0  0  0  0  0  0  0
   -0.7611   -2.7766    1.1927 O   0  0  0  0  0  0  0  0  0  0  0  0
   -1.8201   -0.9926    0.3247 N   0  0  0  0  0  0  0  0  0  0  0  0
   -2.7141   -0.5816    0.0927 H   0  0  0  0  0  0  0  0  0  0  0  0
   -0.6481   -0.1156    0.2017 C   0  0  1  0  0  0  0  0  0  0  0  0
    0.1042   -0.6345   -0.3958 H   0  0  0  0  0  0  0  0  0  0  0  0
   -1.0420    1.1781   -0.5372 C   0  0  0  0  0  0  0  0  0  0  0  0
   -1.1205    2.0008    0.1750 H   0  0  0  0  0  0  0  0  0  0  0  0
   -0.2674    1.4414   -1.2588 H   0  0  0  0  0  0  0  0  0  0  0  0
   -2.3709    1.0685   -1.2444 C   0  0  0  0  0  0  0  0  0  0  0  0
   -3.5990    0.7981   -0.6394 N   0  0  0  0  0  0  0  0  0  0  0  0
   -4.5115    0.8401   -1.6212 C   0  0  0  0  0  0  0  0  0  0  0  0
   -5.5700    0.6600   -1.4818 H   0  0  0  0  0  0  0  0  0  0  0  0
   -3.9273    1.1449   -2.7922 N   0  0  0  0  0  0  0  0  0  0  0  0
   -4.4066    1.2547   -3.6754 H   0  0  0  0  0  0  0  0  0  0  0  0
   -2.5762    1.2969   -2.5737 C   0  0  0  0  0  0  0  0  0  0  0  0
   -1.8156    1.5655   -3.2960 H   0  0  0  0  0  0  0  0  0  0  0  0
   -0.0283    0.1609    1.5831 C   0  0  0  0  0  0  0  0  0  0  0  0
    1.1923    0.1056    1.7329 O   0  0  0  0  0  0  0  0  0  0  0  0
   -0.8586    0.4659    2.5853 N   0  0  0  0  0  0  0  0  0  0  0  0
   -1.8521    0.3848    2.4000 H   0  0  0  0  0  0  0  0  0  0  0  0
   -0.4403    0.7694    3.9518 C   0  0  0  0  0  0  0  0  0  0  0  0
    0.5066    1.3154    3.9421 H   0  0  0  0  0  0  0  0  0  0  0  0
   -1.1988    1.3789    4.4452 H   0  0  0  0  0  0  0  0  0  0  0  0
   -0.3053   -0.1600    4.5075 H   0  0  0  0  0  0  0  0  0  0  0  0
  5  6  2  0  0  0  0
  5  7  1  0  0  0  0
  2  3  1  0  0  0  0
  2  4  1  0  0  0  0
  2  5  1  0  0  0  0
  1  2  1  0  0  0  0
 22 23  2  0  0  0  0
 22 24  1  0  0  0  0
 20 21  1  0  0  0  0
 18 19  1  0  0  0  0
 18 20  1  0  0  0  0
 16 17  1  0  0  0  0
 16 18  1  0  0  0  0
 15 16  2  0  0  0  0
 14 15  1  0  0  0  0
 14 20  2  0  0  0  0
 11 12  1  0  0  0  0
 11 13  1  0  0  0  0
 11 14  1  0  0  0  0
  9 10  1  0  0  0  0
  9 11  1  0  0  0  0
  9 22  1  0  0  0  0
  7  8  1  0  0  0  0
  7  9  1  0  0  0  0
 26 27  1  0  0  0  0
 26 28  1  0  0  0  0
 26 29  1  0  0  0  0
 24 25  1  0  0  0  0
 24 26  1  0  0  0  0
M  END
$$$$
default_name
  -OEChem-02102213163D

 29 29  0     1  0  0  0  0  0999 V2000
   -2.9561   -3.9186    1.3887 H   0  0  0  0  0  0  0  0  0  0  0  0
   -3.1191   -2.9346    0.9517 C   0  0  0  0  0  0  0  0  0  0  0  0
   -3.7811   -2.3546    1.5917 H   0  0  0  0  0  0  0  0  0  0  0  0
   -3.5591   -3.0406   -0.0383 H   0  0  0  0  0  0  0  0  0  0  0  0
   -1.7921   -2.2226    0.8327 C   0  0  0  0  0  0  0  0  0  0  0  0
   -0.7611   -2.7766    1.1927 O   0  0  0  0  0  0  0  0  0  0  0  0
   -1.8201   -0.9926    0.3247 N   0  0  0  0  0  0  0  0  0  0  0  0
   -2.7141   -0.5816    0.0927 H   0  0  0  0  0  0  0  0  0  0  0  0
   -0.6481   -0.1156    0.2017 C   0  0  1  0  0  0  0  0  0  0  0  0
    0.1042   -0.6345   -0.3958 H   0  0  0  0  0  0  0  0  0  0  0  0
   -1.0420    1.1781   -0.5372 C   0  0  0  0  0  0  0  0  0  0  0  0
   -1.1205    2.0008    0.1750 H   0  0  0  0  0  0  0  0  0  0  0  0
   -0.2674    1.4414   -1.2588 H   0  0  0  0  0  0  0  0  0  0  0  0
   -2.3709    1.0685   -1.2444 C   0  0  0  0  0  0  0  0  0  0  0  0
   -3.6259    1.0920   -0.6345 N   0  0  0  0  0  0  0  0  0  0  0  0
   -4.5215    1.0164   -1.6297 C   0  0  0  0  0  0  0  0  0  0  0  0
   -5.5948    1.0004   -1.4880 H   0  0  0  0  0  0  0  0  0  0  0  0
   -3.8987    0.9732   -2.8194 N   0  0  0  0  0  0  0  0  0  0  0  0
   -4.3565    0.9340   -3.7198 H   0  0  0  0  0  0  0  0  0  0  0  0
   -2.5401    1.0092   -2.5968 C   0  0  0  0  0  0  0  0  0  0  0  0
   -1.7488    1.0126   -3.3359 H   0  0  0  0  0  0  0  0  0  0  0  0
   -0.0283    0.1609    1.5831 C   0  0  0  0  0  0  0  0  0  0  0  0
    1.1923    0.1056    1.7329 O   0  0  0  0  0  0  0  0  0  0  0  0
   -0.8586    0.4659    2.5853 N   0  0  0  0  0  0  0  0  0  0  0  0
   -1.8521    0.3848    2.4000 H   0  0  0  0  0  0  0  0  0  0  0  0
   -0.4403    0.7694    3.9518 C   0  0  0  0  0  0  0  0  0  0  0  0
    0.5066    1.3154    3.9421 H   0  0  0  0  0  0  0  0  0  0  0  0
   -1.1988    1.3789    4.4452 H   0  0  0  0  0  0  0  0  0  0  0  0
   -0.3053   -0.1600    4.5075 H   0  0  0  0  0  0  0  0  0  0  0  0
  5  6  2  0  0  0  0
  5  7  1  0  0  0  0
  2  3  1  0  0  0  0
  2  4  1  0  0  0  0
  2  5  1  0  0  0  0
  1  2  1  0  0  0  0
 22 23  2  0  0  0  0
 22 24  1  0  0  0  0
 20 21  1  0  0  0  0
 18 19  1  0  0  0  0
 18 20  1  0  0  0  0
 16 17  1  0  0  0  0
 16 18  1  0  0  0  0
 15 16  2  0  0  0  0
 14 15  1  0  0  0  0
 14 20  2  0  0  0  0
 11 12  1  0  0  0  0
 11 13  1  0  0  0  0
 11 14  1  0  0  0  0
  9 10  1  0  0  0  0
  9 11  1  0  0  0  0
  9 22  1  0  0  0  0
  7  8  1  0  0  0  0
  7  9  1  0  0  0  0
 26 27  1  0  0  0  0
 26 28  1  0  0  0  0
 26 29  1  0  0  0  0
 24 25  1  0  0  0  0
 24 26  1  0  0  0  0
M  END
$$$$
default_name
  -OEChem-02102213163D

 29 29  0     1  0  0  0  0  0999 V2000
   -2.9561   -3.9186    1.3887 H   0  0  0  0  0  0  0  0  0  0  0  0
   -3.1191   -2.9346    0.9517 C   0  0  0  0  0  0  0  0  0  0  0  0
   -3.7811   -2.3546    1.5917 H   0  0  0  0  0  0  0  0  0  0  0  0
   -3.5591   -3.0406   -0.0383 H   0  0  0  0  0  0  0  0  0  0  0  0
   -1.7921   -2.2226    0.8327 C   0  0  0  0  0  0  0  0  0  0  0  0
   -0.7611   -2.7766    1.1927 O   0  0  0  0  0  0  0  0  0  0  0  0
   -1.8201   -0.9926    0.3247 N   0  0  0  0  0  0  0  0  0  0  0  0
   -2.7141   -0.5816    0.0927 H   0  0  0  0  0  0  0  0  0  0  0  0
   -0.6481   -0.1156    0.2017 C   0  0  1  0  0  0  0  0  0  0  0  0
    0.1042   -0.6345   -0.3958 H   0  0  0  0  0  0  0  0  0  0  0  0
   -1.0420    1.1781   -0.5372 C   0  0  0  0  0  0  0  0  0  0  0  0
   -1.1205    2.0008    0.1750 H   0  0  0  0  0  0  0  0  0  0  0  0
   -0.2674    1.4414   -1.2588 H   0  0  0  0  0  0  0  0  0  0  0  0
   -2.3709    1.0685   -1.2444 C   0  0  0  0  0  0  0  0  0  0  0  0
   -3.6162    1.3804   -0.6973 N   0  0  0  0  0  0  0  0  0  0  0  0
   -4.5097    1.1860   -1.6783 C   0  0  0  0  0  0  0  0  0  0  0  0
   -5.5774    1.3308   -1.5720 H   0  0  0  0  0  0  0  0  0  0  0  0
   -3.8913    0.7976   -2.8061 N   0  0  0  0  0  0  0  0  0  0  0  0
   -4.3462    0.6080   -3.6887 H   0  0  0  0  0  0  0  0  0  0  0  0
   -2.5397    0.7215   -2.5530 C   0  0  0  0  0  0  0  0  0  0  0  0
   -1.7506    0.4614   -3.2472 H   0  0  0  0  0  0  0  0  0  0  0  0
   -0.0283    0.1609    1.5831 C   0  0  0  0  0  0  0  0  0  0  0  0
    1.1923    0.1056    1.7329 O   0  0  0  0  0  0  0  0  0  0  0  0
   -0.8586    0.4659    2.5853 N   0  0  0  0  0  0  0  0  0  0  0  0
   -1.8521    0.3848    2.4000 H   0  0  0  0  0  0  0  0  0  0  0  0
   -0.4403    0.7694    3.9518 C   0  0  0  0  0  0  0  0  0  0  0  0
    0.5066    1.3154    3.9421 H   0  0  0  0  0  0  0  0  0  0  0  0
   -1.1988    1.3789    4.4452 H   0  0  0  0  0  0  0  0  0  0  0  0
   -0.3053   -0.1600    4.5075 H   0  0  0  0  0  0  0  0  0  0  0  0
  5  6  2  0  0  0  0
  5  7  1  0  0  0  0
  2  3  1  0  0  0  0
  2  4  1  0  0  0  0
  2  5  1  0  0  0  0
  1  2  1  0  0  0  0
 22 23  2  0  0  0  0
 22 24  1  0  0  0  0
 20 21  1  0  0  0  0
 18 19  1  0  0  0  0
 18 20  1  0  0  0  0
 16 17  1  0  0  0  0
 16 18  1  0  0  0  0
 15 16  2  0  0  0  0
 14 15  1  0  0  0  0
 14 20  2  0  0  0  0
 11 12  1  0  0  0  0
 11 13  1  0  0  0  0
 11 14  1  0  0  0  0
  9 10  1  0  0  0  0
  9 11  1  0  0  0  0
  9 22  1  0  0  0  0
  7  8  1  0  0  0  0
  7  9  1  0  0  0  0
 26 27  1  0  0  0  0
 26 28  1  0  0  0  0
 26 29  1  0  0  0  0
 24 25  1  0  0  0  0
 24 26  1  0  0  0  0
M  END
$$$$
default_name
  -OEChem-02102213163D

 29 29  0     1  0  0  0  0  0999 V2000
   -2.9561   -3.9186    1.3887 H   0  0  0  0  0  0  0  0  0  0  0  0
   -3.1191   -2.9346    0.9517 C   0  0  0  0  0  0  0  0  0  0  0  0
   -3.7811   -2.3546    1.5917 H   0  0  0  0  0  0  0  0  0  0  0  0
   -3.5591   -3.0406   -0.0383 H   0  0  0  0  0  0  0  0  0  0  0  0
   -1.7921   -2.2226    0.8327 C   0  0  0  0  0  0  0  0  0  0  0  0
   -0.7611   -2.7766    1.1927 O   0  0  0  0  0  0  0  0  0  0  0  0
   -1.8201   -0.9926    0.3247 N   0  0  0  0  0  0  0  0  0  0  0  0
   -2.7141   -0.5816    0.0927 H   0  0  0  0  0  0  0  0  0  0  0  0
   -0.6481   -0.1156    0.2017 C   0  0  1  0  0  0  0  0  0  0  0  0
    0.1042   -0.6345   -0.3958 H   0  0  0  0  0  0  0  0  0  0  0  0
   -1.0420    1.1781   -0.5372 C   0  0  0  0  0  0  0  0  0  0  0  0
   -1.1205    2.0008    0.1750 H   0  0  0  0  0  0  0  0  0  0  0  0
   -0.2674    1.4414   -1.2588 H   0  0  0  0  0  0  0  0  0  0  0  0
   -2.3709    1.0685   -1.2444 C   0  0  0  0  0  0  0  0  0  0  0  0
   -3.5708    1.6434   -0.8235 N   0  0  0  0  0  0  0  0  0  0  0  0
   -4.4767    1.3373   -1.7637 C   0  0  0  0  0  0  0  0  0  0  0  0
   -5.5189    1.6287   -1.7281 H   0  0  0  0  0  0  0  0  0  0  0  0
   -3.9057    0.6301   -2.7531 N   0  0  0  0  0  0  0  0  0  0  0  0
   -4.3763    0.2990   -3.5842 H   0  0  0  0  0  0  0  0  0  0  0  0
   -2.5750    0.4537   -2.4450 C   0  0  0  0  0  0  0  0  0  0  0  0
   -1.8208   -0.0507   -3.0359 H   0  0  0  0  0  0  0  0  0  0  0  0
   -0.0283    0.1609    1.5831 C   0  0  0  0  0  0  0  0  0  0  0  0
    1.1923    0.1056    1.7329 O   0  0  0  0  0  0  0  0  0  0  0  0
   -0.8586    0.4659    2.5853 N   0  0  0  0  0  0  0  0  0  0  0  0
   -1.8521    0.3848    2.4000 H   0  0  0  0  0  0  0  0  0  0  0  0
   -0.4403    0.7694    3.9518 C   0  0  0  0  0  0  0  0  0  0  0  0
    0.5066    1.3154    3.9421 H   0  0  0  0  0  0  0  0  0  0  0  0
   -1.1988    1.3789    4.4452 H   0  0  0  0  0  0  0  0  0  0  0  0
   -0.3053   -0.1600    4.5075 H   0  0  0  0  0  0  0  0  0  0  0  0
  5  6  2  0  0  0  0
  5  7  1  0  0  0  0
  2  3  1  0  0  0  0
  2  4  1  0  0  0  0
  2  5  1  0  0  0  0
  1  2  1  0  0  0  0
 22 23  2  0  0  0  0
 22 24  1  0  0  0  0
 20 21  1  0  0  0  0
 18 19  1  0  0  0  0
 18 20  1  0  0  0  0
 16 17  1  0  0  0  0
 16 18  1  0  0  0  0
 15 16  2  0  0  0  0
 14 15  1  0  0  0  0
 14 20  2  0  0  0  0
 11 12  1  0  0  0  0
 11 13  1  0  0  0  0
 11 14  1  0  0  0  0
  9 10  1  0  0  0  0
  9 11  1  0  0  0  0
  9 22  1  0  0  0  0
  7  8  1  0  0  0  0
  7  9  1  0  0  0  0
 26 27  1  0  0  0  0
 26 28  1  0  0  0  0
 26 29  1  0  0  0  0
 24 25  1  0  0  0  0
 24 26  1  0  0  0  0
M  END
$$$$
default_name
  -OEChem-02102213163D

 29 29  0     1  0  0  0  0  0999 V2000
   -2.9561   -3.9186    1.3887 H   0  0  0  0  0  0  0  0  0  0  0  0
   -3.1191   -2.9346    0.9517 C   0  0  0  0  0  0  0  0  0  0  0  0
   -3.7811   -2.3546    1.5917 H   0  0  0  0  0  0  0  0  0  0  0  0
   -3.5591   -3.0406   -0.0383 H   0  0  0  0  0  0  0  0  0  0  0  0
   -1.7921   -2.2226    0.8327 C   0  0  0  0  0  0  0  0  0  0  0  0
   -0.7611   -2.7766    1.1927 O   0  0  0  0  0  0  0  0  0  0  0  0
   -1.8201   -0.9926    0.3247 N   0  0  0  0  0  0  0  0  0  0  0  0
   -2.7141   -0.5816    0.0927 H   0  0  0  0  0  0  0  0  0  0  0  0
   -0.6481   -0.1156    0.2017 C   0  0  1  0  0  0  0  0  0  0  0  0
    0.1042   -0.6345   -0.3958 H   0  0  0  0  0  0  0  0  0  0  0  0
   -1.0420    1.1781   -0.5372 C   0  0  0  0  0  0  0  0  0  0  0  0
   -1.1205    2.0008    0.1750 H   0  0  0  0  0  0  0  0  0  0  0  0
   -0.2674    1.4414   -1.2588 H   0  0  0  0  0  0  0  0  0  0  0  0
   -2.3709    1.0685   -1.2444 C   0  0  0  0  0  0  0  0  0  0  0  0
   -3.4926    1.8632   -1.0044 N   0  0  0  0  0  0  0  0  0  0  0  0
   -4.4249    1.4600   -1.8800 C   0  0  0  0  0  0  0  0  0  0  0  0
   -5.4233    1.8738   -1.9457 H   0  0  0  0  0  0  0  0  0  0  0  0
   -3.9409    0.4822   -2.6640 N   0  0  0  0  0  0  0  0  0  0  0  0
   -4.4449    0.0280   -3.4134 H   0  0  0  0  0  0  0  0  0  0  0  0
   -2.6437    0.2238   -2.2804 C   0  0  0  0  0  0  0  0  0  0  0  0
   -1.9547   -0.4886   -2.7164 H   0  0  0  0  0  0  0  0  0  0  0  0
   -0.0283    0.1609    1.5831 C   0  0  0  0  0  0  0  0  0  0  0  0
    1.1923    0.1056    1.7329 O   0  0  0  0  0  0  0  0  0  0  0  0
   -0.8586    0.4659    2.5853 N   0  0  0  0  0  0  0  0  0  0  0  0
   -1.8521    0.3848    2.4000 H   0  0  0  0  0  0  0  0  0  0  0  0
   -0.4403    0.7694    3.9518 C   0  0  0  0  0  0  0  0  0  0  0  0
    0.5066    1.3154    3.9421 H   0  0  0  0  0  0  0  0  0  0  0  0
   -1.1988    1.3789    4.4452 H   0  0  0  0  0  0  0  0  0  0  0  0
   -0.3053   -0.1600    4.5075 H   0  0  0  0  0  0  0  0  0  0  0  0
  5  6  2  0  0  0  0
  5  7  1  0  0  0  0
  2  3  1  0  0  0  0
  2  4  1  0  0  0  0
  2  5  1  0  0  0  0
  1  2  1  0  0  0  0
 22 23  2  0  0  0  0
 22 24  1  0  0  0  0
 20 21  1  0  0  0  0
 18 19  1  0  0  0  0
 18 20  1  0  0  0  0
 16 17  1  0  0  0  0
 16 18  1  0  0  0  0
 15 16  2  0  0  0  0
 14 15  1  0  0  0  0
 14 20  2  0  0  0  0
 11 12  1  0  0  0  0
 11 13  1  0  0  0  0
 11 14  1  0  0  0  0
  9 10  1  0  0  0  0
  9 11  1  0  0  0  0
  9 22  1  0  0  0  0
  7  8  1  0  0  0  0
  7  9  1  0  0  0  0
 26 27  1  0  0  0  0
 26 28  1  0  0  0  0
 26 29  1  0  0  0  0
 24 25  1  0  0  0  0
 24 26  1  0  0  0  0
M  END
$$$$
default_name
  -OEChem-02102213163D

 29 29  0     1  0  0  0  0  0999 V2000
   -2.9561   -3.9186    1.3887 H   0  0  0  0  0  0  0  0  0  0  0  0
   -3.1191   -2.9346    0.9517 C   0  0  0  0  0  0  0  0  0  0  0  0
   -3.7811   -2.3546    1.5917 H   0  0  0  0  0  0  0  0  0  0  0  0
   -3.5591   -3.0406   -0.0383 H   0  0  0  0  0  0  0  0  0  0  0  0
   -1.7921   -2.2226    0.8327 C   0  0  0  0  0  0  0  0  0  0  0  0
   -0.7611   -2.7766    1.1927 O   0  0  0  0  0  0  0  0  0  0  0  0
   -1.8201   -0.9926    0.3247 N   0  0  0  0  0  0  0  0  0  0  0  0
   -2.7141   -0.5816    0.0927 H   0  0  0  0  0  0  0  0  0  0  0  0
   -0.6481   -0.1156    0.2017 C   0  0  1  0  0  0  0  0  0  0  0  0
    0.1042   -0.6345   -0.3958 H   0  0  0  0  0  0  0  0  0  0  0  0
   -1.0420    1.1781   -0.5372 C   0  0  0  0  0  0  0  0  0  0  0  0
   -1.1205    2.0008    0.1750 H   0  0  0  0  0  0  0  0  0  0  0  0
   -0.2674    1.4414   -1.2588 H   0  0  0  0  0  0  0  0  0  0  0  0
   -2.3709    1.0685   -1.2444 C   0  0  0  0  0  0  0  0  0  0  0  0
   -3.3871    2.0248   -1.2278 N   0  0  0  0  0  0  0  0  0  0  0  0
   -4.3579    1.5458   -2.0193 C   0  0  0  0  0  0  0  0  0  0  0  0
   -5.2972    2.0494   -2.2099 H   0  0  0  0  0  0  0  0  0  0  0  0
   -3.9945    0.3638   -2.5449 N   0  0  0  0  0  0  0  0  0  0  0  0
   -4.5471   -0.1866   -3.1879 H   0  0  0  0  0  0  0  0  0  0  0  0
   -2.7409    0.0477   -2.0703 C   0  0  0  0  0  0  0  0  0  0  0  0
   -2.1431   -0.8225   -2.3106 H   0  0  0  0  0  0  0  0  0  0  0  0
   -0.0283    0.1609    1.5831 C   0  0  0  0  0  0  0  0  0  0  0  0
    1.1923    0.1056    1.7329 O   0  0  0  0  0  0  0  0  0  0  0  0
   -0.8586    0.4659    2.5853 N   0  0  0  0  0  0  0  0  0  0  0  0
   -1.8521    0.3848    2.4000 H   0  0  0  0  0  0  0  0  0  0  0  0
   -0.4403    0.7694    3.9518 C   0  0  0  0  0  0  0  0  0  0  0  0
    0.5066    1.3154    3.9421 H   0  0  0  0  0  0  0  0  0  0  0  0
   -1.1988    1.3789    4.4452 H   0  0  0  0  0  0  0  0  0  0  0  0
   -0.3053   -0.1600    4.5075 H   0  0  0  0  0  0  0  0  0  0  0  0
  5  6  2  0  0  0  0
  5  7  1  0  0  0  0
  2  3  1  0  0  0  0
  2  4  1  0  0  0  0
  2  5  1  0  0  0  0
  1  2  1  0  0  0  0
 22 23  2  0  0  0  0
 22 24  1  0  0  0  0
 20 21  1  0  0  0  0
 18 19  1  0  0  0  0
 18 20  1  0  0  0  0
 16 17  1  0  0  0  0
 16 18  1  0  0  0  0
 15 16  2  0  0  0  0
 14 15  1  0  0  0  0
 14 20  2  0  0  0  0
 11 12  1  0  0  0  0
 11 13  1  0  0  0  0
 11 14  1  0  0  0  0
  9 10  1  0  0  0  0
  9 11  1  0  0  0  0
  9 22  1  0  0  0  0
  7  8  1  0  0  0  0
  7  9  1  0  0  0  0
 26 27  1  0  0  0  0
 26 28  1  0  0  0  0
 26 29  1  0  0  0  0
 24 25  1  0  0  0  0
 24 26  1  0  0  0  0
M  END
$$$$
default_name
  -OEChem-02102213163D

 29 29  0     1  0  0  0  0  0999 V2000
   -2.9561   -3.9186    1.3887 H   0  0  0  0  0  0  0  0  0  0  0  0
   -3.1191   -2.9346    0.9517 C   0  0  0  0  0  0  0  0  0  0  0  0
   -3.7811   -2.3546    1.5917 H   0  0  0  0  0  0  0  0  0  0  0  0
   -3.5591   -3.0406   -0.0383 H   0  0  0  0  0  0  0  0  0  0  0  0
   -1.7921   -2.2226    0.8327 C   0  0  0  0  0  0  0  0  0  0  0  0
   -0.7611   -2.7766    1.1927 O   0  0  0  0  0  0  0  0  0  0  0  0
   -1.8201   -0.9926    0.3247 N   0  0  0  0  0  0  0  0  0  0  0  0
   -2.7141   -0.5816    0.0927 H   0  0  0  0  0  0  0  0  0  0  0  0
   -0.6481   -0.1156    0.2017 C   0  0  1  0  0  0  0  0  0  0  0  0
    0.1042   -0.6345   -0.3958 H   0  0  0  0  0  0  0  0  0  0  0  0
   -1.0420    1.1781   -0.5372 C   0  0  0  0  0  0  0  0  0  0  0  0
   -1.1205    2.0008    0.1750 H   0  0  0  0  0  0  0  0  0  0  0  0
   -0.2674    1.4414   -1.2588 H   0  0  0  0  0  0  0  0  0  0  0  0
   -2.3709    1.0685   -1.2444 C   0  0  0  0  0  0  0  0  0  0  0  0
   -3.2613    2.1172   -1.4785 N   0  0  0  0  0  0  0  0  0  0  0  0
   -4.2801    1.5887   -2.1722 C   0  0  0  0  0  0  0  0  0  0  0  0
   -5.1491    2.1435   -2.5027 H   0  0  0  0  0  0  0  0  0  0  0  0
   -4.0629    0.2832   -2.4039 N   0  0  0  0  0  0  0  0  0  0  0  0
   -4.6762   -0.3300   -2.9232 H   0  0  0  0  0  0  0  0  0  0  0  0
   -2.8602   -0.0629   -1.8291 C   0  0  0  0  0  0  0  0  0  0  0  0
   -2.3732   -1.0297   -1.8460 H   0  0  0  0  0  0  0  0  0  0  0  0
   -0.0283    0.1609    1.5831 C   0  0  0  0  0  0  0  0  0  0  0  0
    1.1923    0.1056    1.7329 O   0  0  0  0  0  0  0  0  0  0  0  0
   -0.8586    0.4659    2.5853 N   0  0  0  0  0  0  0  0  0  0  0  0
   -1.8521    0.3848    2.4000 H   0  0  0  0  0  0  0  0  0  0  0  0
   -0.4403    0.7694    3.9518 C   0  0  0  0  0  0  0  0  0  0  0  0
    0.5066    1.3154    3.9421 H   0  0  0  0  0  0  0  0  0  0  0  0
   -1.1988    1.3789    4.4452 H   0  0  0  0  0  0  0  0  0  0  0  0
   -0.3053   -0.1600    4.5075 H   0  0  0  0  0  0  0  0  0  0  0  0
  5  6  2  0  0  0  0
  5  7  1  0  0  0  0
  2  3  1  0  0  0  0
  2  4  1  0  0  0  0
  2  5  1  0  0  0  0
  1  2  1  0  0  0  0
 22 23  2  0  0  0  0
 22 24  1  0  0  0  0
 20 21  1  0  0  0  0
 18 19  1  0  0  0  0
 18 20  1  0  0  0  0
 16 17  1  0  0  0  0
 16 18  1  0  0  0  0
 15 16  2  0  0  0  0
 14 15  1  0  0  0  0
 14 20  2  0  0  0  0
 11 12  1  0  0  0  0
 11 13  1  0  0  0  0
 11 14  1  0  0  0  0
  9 10  1  0  0  0  0
  9 11  1  0  0  0  0
  9 22  1  0  0  0  0
  7  8  1  0  0  0  0
  7  9  1  0  0  0  0
 26 27  1  0  0  0  0
 26 28  1  0  0  0  0
 26 29  1  0  0  0  0
 24 25  1  0  0  0  0
 24 26  1  0  0  0  0
M  END
$$$$
default_name
  -OEChem-02102213163D

 29 29  0     1  0  0  0  0  0999 V2000
   -2.9561   -3.9186    1.3887 H   0  0  0  0  0  0  0  0  0  0  0  0
   -3.1191   -2.9346    0.9517 C   0  0  0  0  0  0  0  0  0  0  0  0
   -3.7811   -2.3546    1.5917 H   0  0  0  0  0  0  0  0  0  0  0  0
   -3.5591   -3.0406   -0.0383 H   0  0  0  0  0  0  0  0  0  0  0  0
   -1.7921   -2.2226    0.8327 C   0  0  0  0  0  0  0  0  0  0  0  0
   -0.7611   -2.7766    1.1927 O   0  0  0  0  0  0  0  0  0  0  0  0
   -1.8201   -0.9926    0.3247 N   0  0  0  0  0  0  0  0  0  0  0  0
   -2.7141   -0.5816    0.0927 H   0  0  0  0  0  0  0  0  0  0  0  0
   -0.6481   -0.1156    0.2017 C   0  0  1  0  0  0  0  0  0  0  0  0
    0.1042   -0.6345   -0.3958 H   0  0  0  0  0  0  0  0  0  0  0  0
   -1.0420    1.1781   -0.5372 C   0  0  0  0  0  0  0  0  0  0  0  0
   -1.1205    2.0008    0.1750 H   0  0  0  0  0  0  0  0  0  0  0  0
   -0.2674    1.4414   -1.2588 H   0  0  0  0  0  0  0  0  0  0  0  0
   -2.3709    1.0685   -1.2444 C   0  0  0  0  0  0  0  0  0  0  0  0
   -3.1240    2.1341   -1.7393 N   0  0  0  0  0  0  0  0  0  0  0  0
   -4.1968    1.5859   -2.3282 C   0  0  0  0  0  0  0  0  0  0  0  0
   -4.9892    2.1497   -2.8042 H   0  0  0  0  0  0  0  0  0  0  0  0
   -4.1414    0.2457   -2.2506 N   0  0  0  0  0  0  0  0  0  0  0  0
   -4.8232   -0.3926   -2.6372 H   0  0  0  0  0  0  0  0  0  0  0  0
   -2.9933   -0.1002   -1.5731 C   0  0  0  0  0  0  0  0  0  0  0  0
   -2.6293   -1.0961   -1.3544 H   0  0  0  0  0  0  0  0  0  0  0  0
   -0.0283    0.1609    1.5831 C   0  0  0  0  0  0  0  0  0  0  0  0
    1.1923    0.1056    1.7329 O   0  0  0  0  0  0  0  0  0  0  0  0
   -0.8586    0.4659    2.5853 N   0  0  0  0  0  0  0  0  0  0  0  0
   -1.8521    0.3848    2.4000 H   0  0  0  0  0  0  0  0  0  0  0  0
   -0.4403    0.7694    3.9518 C   0  0  0  0  0  0  0  0  0  0  0  0
    0.5066    1.3154    3.9421 H   0  0  0  0  0  0  0  0  0  0  0  0
   -1.1988    1.3789    4.4452 H   0  0  0  0  0  0  0  0  0  0  0  0
   -0.3053   -0.1600    4.5075 H   0  0  0  0  0  0  0  0  0  0  0  0
  5  6  2  0  0  0  0
  5  7  1  0  0  0  0
  2  3  1  0  0  0  0
  2  4  1  0  0  0  0
  2  5  1  0  0  0  0
  1  2  1  0  0  0  0
 22 23  2  0  0  0  0
 22 24  1  0  0  0  0
 20 21  1  0  0  0  0
 18 19  1  0  0  0  0
 18 20  1  0  0  0  0
 16 17  1  0  0  0  0
 16 18  1  0  0  0  0
 15 16  2  0  0  0  0
 14 15  1  0  0  0  0
 14 20  2  0  0  0  0
 11 12  1  0  0  0  0
 11 13  1  0  0  0  0
 11 14  1  0  0  0  0
  9 10  1  0  0  0  0
  9 11  1  0  0  0  0
  9 22  1  0  0  0  0
  7  8  1  0  0  0  0
  7  9  1  0  0  0  0
 26 27  1  0  0  0  0
 26 28  1  0  0  0  0
 26 29  1  0  0  0  0
 24 25  1  0  0  0  0
 24 26  1  0  0  0  0
M  END
$$$$
default_name
  -OEChem-02102213163D

 29 29  0     1  0  0  0  0  0999 V2000
   -2.9561   -3.9186    1.3887 H   0  0  0  0  0  0  0  0  0  0  0  0
   -3.1191   -2.9346    0.9517 C   0  0  0  0  0  0  0  0  0  0  0  0
   -3.7811   -2.3546    1.5917 H   0  0  0  0  0  0  0  0  0  0  0  0
   -3.5591   -3.0406   -0.0383 H   0  0  0  0  0  0  0  0  0  0  0  0
   -1.7921   -2.2226    0.8327 C   0  0  0  0  0  0  0  0  0  0  0  0
   -0.7611   -2.7766    1.1927 O   0  0  0  0  0  0  0  0  0  0  0  0
   -1.8201   -0.9926    0.3247 N   0  0  0  0  0  0  0  0  0  0  0  0
   -2.7141   -0.5816    0.0927 H   0  0  0  0  0  0  0  0  0  0  0  0
   -0.6481   -0.1156    0.2017 C   0  0  1  0  0  0  0  0  0  0  0  0
    0.1042   -0.6345   -0.3958 H   0  0  0  0  0  0  0  0  0  0  0  0
   -1.0420    1.1781   -0.5372 C   0  0  0  0  0  0  0  0  0  0  0  0
   -0.8642    2.0402    0.1073 H   0  0  0  0  0  0  0  0  0  0  0  0
   -0.4211    1.2992   -1.4259 H   0  0  0  0  0  0  0  0  0  0  0  0
   -2.4980    1.2072   -0.9339 C   0  0  0  0  0  0  0  0  0  0  0  0
   -3.1401    2.2442   -1.6119 N   0  0  0  0  0  0  0  0  0  0  0  0
   -4.4035    1.8360   -1.7999 C   0  0  0  0  0  0  0  0  0  0  0  0
   -5.1700    2.4221   -2.2910 H   0  0  0  0  0  0  0  0  0  0  0  0
   -4.5762    0.5998   -1.3025 N   0  0  0  0  0  0  0  0  0  0  0  0
   -5.4350    0.0677   -1.3394 H   0  0  0  0  0  0  0  0  0  0  0  0
   -3.3828    0.1843   -0.7550 C   0  0  0  0  0  0  0  0  0  0  0  0
   -3.1649   -0.7691   -0.2904 H   0  0  0  0  0  0  0  0  0  0  0  0
   -0.0283    0.1609    1.5831 C   0  0  0  0  0  0  0  0  0  0  0  0
    1.1923    0.1056    1.7329 O   0  0  0  0  0  0  0  0  0  0  0  0
   -0.8586    0.4659    2.5853 N   0  0  0  0  0  0  0  0  0  0  0  0
   -1.8521    0.3848    2.4000 H   0  0  0  0  0  0  0  0  0  0  0  0
   -0.4403    0.7694    3.9518 C   0  0  0  0  0  0  0  0  0  0  0  0
    0.5066    1.3154    3.9421 H   0  0  0  0  0  0  0  0  0  0  0  0
   -1.1988    1.3789    4.4452 H   0  0  0  0  0  0  0  0  0  0  0  0
   -0.3053   -0.1600    4.5075 H   0  0  0  0  0  0  0  0  0  0  0  0
  5  6  2  0  0  0  0
  5  7  1  0  0  0  0
  2  3  1  0  0  0  0
  2  4  1  0  0  0  0
  2  5  1  0  0  0  0
  1  2  1  0  0  0  0
 22 23  2  0  0  0  0
 22 24  1  0  0  0  0
 20 21  1  0  0  0  0
 18 19  1  0  0  0  0
 18 20  1  0  0  0  0
 16 17  1  0  0  0  0
 16 18  1  0  0  0  0
 15 16  2  0  0  0  0
 14 15  1  0  0  0  0
 14 20  2  0  0  0  0
 11 12  1  0  0  0  0
 11 13  1  0  0  0  0
 11 14  1  0  0  0  0
  9 10  1  0  0  0  0
  9 11  1  0  0  0  0
  9 22  1  0  0  0  0
  7  8  1  0  0  0  0
  7  9  1  0  0  0  0
 26 27  1  0  0  0  0
 26 28  1  0  0  0  0
 26 29  1  0  0  0  0
 24 25  1  0  0  0  0
 24 26  1  0  0  0  0
M  END
$$$$
default_name
  -OEChem-02102213163D

 29 29  0     1  0  0  0  0  0999 V2000
   -2.9561   -3.9186    1.3887 H   0  0  0  0  0  0  0  0  0  0  0  0
   -3.1191   -2.9346    0.9517 C   0  0  0  0  0  0  0  0  0  0  0  0
   -3.7811   -2.3546    1.5917 H   0  0  0  0  0  0  0  0  0  0  0  0
   -3.5591   -3.0406   -0.0383 H   0  0  0  0  0  0  0  0  0  0  0  0
   -1.7921   -2.2226    0.8327 C   0  0  0  0  0  0  0  0  0  0  0  0
   -0.7611   -2.7766    1.1927 O   0  0  0  0  0  0  0  0  0  0  0  0
   -1.8201   -0.9926    0.3247 N   0  0  0  0  0  0  0  0  0  0  0  0
   -2.7141   -0.5816    0.0927 H   0  0  0  0  0  0  0  0  0  0  0  0
   -0.6481   -0.1156    0.2017 C   0  0  1  0  0  0  0  0  0  0  0  0
    0.1042   -0.6345   -0.3958 H   0  0  0  0  0  0  0  0  0  0  0  0
   -1.0420    1.1781   -0.5372 C   0  0  0  0  0  0  0  0  0  0  0  0
   -0.8642    2.0402    0.1073 H   0  0  0  0  0  0  0  0  0  0  0  0
   -0.4211    1.2992   -1.4259 H   0  0  0  0  0  0  0  0  0  0  0  0
   -2.4980    1.2072   -0.9339 C   0  0  0  0  0  0  0  0  0  0  0  0
   -3.0779    2.0838   -1.8518 N   0  0  0  0  0  0  0  0  0  0  0  0
   -4.3684    1.7293   -1.9365 C   0  0  0  0  0  0  0  0  0  0  0  0
   -5.1003    2.2256   -2.5612 H   0  0  0  0  0  0  0  0  0  0  0  0
   -4.6173    0.6712   -1.1467 N   0  0  0  0  0  0  0  0  0  0  0  0
   -5.5103    0.2070   -1.0526 H   0  0  0  0  0  0  0  0  0  0  0  0
   -3.4472    0.3245   -0.5084 C   0  0  0  0  0  0  0  0  0  0  0  0
   -3.2878   -0.4955    0.1805 H   0  0  0  0  0  0  0  0  0  0  0  0
   -0.0283    0.1609    1.5831 C   0  0  0  0  0  0  0  0  0  0  0  0
    1.1923    0.1056    1.7329 O   0  0  0  0  0  0  0  0  0  0  0  0
   -0.8586    0.4659    2.5853 N   0  0  0  0  0  0  0  0  0  0  0  0
   -1.8521    0.3848    2.4000 H   0  0  0  0  0  0  0  0  0  0  0  0
   -0.4403    0.7694    3.9518 C   0  0  0  0  0  0  0  0  0  0  0  0
    0.5066    1.3154    3.9421 H   0  0  0  0  0  0  0  0  0  0  0  0
   -1.1988    1.3789    4.4452 H   0  0  0  0  0  0  0  0  0  0  0  0
   -0.3053   -0.1600    4.5075 H   0  0  0  0  0  0  0  0  0  0  0  0
  5  6  2  0  0  0  0
  5  7  1  0  0  0  0
  2  3  1  0  0  0  0
  2  4  1  0  0  0  0
  2  5  1  0  0  0  0
  1  2  1  0  0  0  0
 22 23  2  0  0  0  0
 22 24  1  0  0  0  0
 20 21  1  0  0  0  0
 18 19  1  0  0  0  0
 18 20  1  0  0  0  0
 16 17  1  0  0  0  0
 16 18  1  0  0  0  0
 15 16  2  0  0  0  0
 14 15  1  0  0  0  0
 14 20  2  0  0  0  0
 11 12  1  0  0  0  0
 11 13  1  0  0  0  0
 11 14  1  0  0  0  0
  9 10  1  0  0  0  0
  9 11  1  0  0  0  0
  9 22  1  0  0  0  0
  7  8  1  0  0  0  0
  7  9  1  0  0  0  0
 26 27  1  0  0  0  0
 26 28  1  0  0  0  0
 26 29  1  0  0  0  0
 24 25  1  0  0  0  0
 24 26  1  0  0  0  0
M  END
$$$$
default_name
  -OEChem-02102213163D

 29 29  0     1  0  0  0  0  0999 V2000
   -2.9561   -3.9186    1.3887 H   0  0  0  0  0  0  0  0  0  0  0  0
   -3.1191   -2.9346    0.9517 C   0  0  0  0  0  0  0  0  0  0  0  0
   -3.7811   -2.3546    1.5917 H   0  0  0  0  0  0  0  0  0  0  0  0
   -3.5591   -3.0406   -0.0383 H   0  0  0  0  0  0  0  0  0  0  0  0
   -1.7921   -2.2226    0.8327 C   0  0  0  0  0  0  0  0  0  0  0  0
   -0.7611   -2.7766    1.1927 O   0  0  0  0  0  0  0  0  0  0  0  0
   -1.8201   -0.9926    0.3247 N   0  0  0  0  0  0  0  0  0  0  0  0
   -2.7141   -0.5816    0.0927 H   0  0  0  0  0  0  0  0  0  0  0  0
   -0.6481   -0.1156    0.2017 C   0  0  1  0  0  0  0  0  0  0  0  0
    0.1042   -0.6345   -0.3958 H   0  0  0  0  0  0  0  0  0  0  0  0
   -1.0420    1.1781   -0.5372 C   0  0  0  0  0  0  0  0  0  0  0  0
   -0.8642    2.0402    0.1073 H   0  0  0  0  0  0  0  0  0  0  0  0
   -0.4211    1.2992   -1.4259 H   0  0  0  0  0  0  0  0  0  0  0  0
   -2.4980    1.2072   -0.9339 C   0  0  0  0  0  0  0  0  0  0  0  0
   -3.0300    1.8647   -2.0439 N   0  0  0  0  0  0  0  0  0  0  0  0
   -4.3425    1.5897   -2.0420 C   0  0  0  0  0  0  0  0  0  0  0  0
   -5.0477    1.9635   -2.7736 H   0  0  0  0  0  0  0  0  0  0  0  0
   -4.6513    0.7818   -1.0138 N   0  0  0  0  0  0  0  0  0  0  0  0
   -5.5722    0.4182   -0.8100 H   0  0  0  0  0  0  0  0  0  0  0  0
   -3.4987    0.5259   -0.3048 C   0  0  0  0  0  0  0  0  0  0  0  0
   -3.3855   -0.1052    0.5676 H   0  0  0  0  0  0  0  0  0  0  0  0
   -0.0283    0.1609    1.5831 C   0  0  0  0  0  0  0  0  0  0  0  0
    1.1923    0.1056    1.7329 O   0  0  0  0  0  0  0  0  0  0  0  0
   -0.8586    0.4659    2.5853 N   0  0  0  0  0  0  0  0  0  0  0  0
   -1.8521    0.3848    2.4000 H   0  0  0  0  0  0  0  0  0  0  0  0
   -0.4403    0.7694    3.9518 C   0  0  0  0  0  0  0  0  0  0  0  0
    0.5066    1.3154    3.9421 H   0  0  0  0  0  0  0  0  0  0  0  0
   -1.1988    1.3789    4.4452 H   0  0  0  0  0  0  0  0  0  0  0  0
   -0.3053   -0.1600    4.5075 H   0  0  0  0  0  0  0  0  0  0  0  0
  5  6  2  0  0  0  0
  5  7  1  0  0  0  0
  2  3  1  0  0  0  0
  2  4  1  0  0  0  0
  2  5  1  0  0  0  0
  1  2  1  0  0  0  0
 22 23  2  0  0  0  0
 22 24  1  0  0  0  0
 20 21  1  0  0  0  0
 18 19  1  0  0  0  0
 18 20  1  0  0  0  0
 16 17  1  0  0  0  0
 16 18  1  0  0  0  0
 15 16  2  0  0  0  0
 14 15  1  0  0  0  0
 14 20  2  0  0  0  0
 11 12  1  0  0  0  0
 11 13  1  0  0  0  0
 11 14  1  0  0  0  0
  9 10  1  0  0  0  0
  9 11  1  0  0  0  0
  9 22  1  0  0  0  0
  7  8  1  0  0  0  0
  7  9  1  0  0  0  0
 26 27  1  0  0  0  0
 26 28  1  0  0  0  0
 26 29  1  0  0  0  0
 24 25  1  0  0  0  0
 24 26  1  0  0  0  0
M  END
$$$$
default_name
  -OEChem-02102213163D

 29 29  0     1  0  0  0  0  0999 V2000
   -2.9561   -3.9186    1.3887 H   0  0  0  0  0  0  0  0  0  0  0  0
   -3.1191   -2.9346    0.9517 C   0  0  0  0  0  0  0  0  0  0  0  0
   -3.7811   -2.3546    1.5917 H   0  0  0  0  0  0  0  0  0  0  0  0
   -3.5591   -3.0406   -0.0383 H   0  0  0  0  0  0  0  0  0  0  0  0
   -1.7921   -2.2226    0.8327 C   0  0  0  0  0  0  0  0  0  0  0  0
   -0.7611   -2.7766    1.1927 O   0  0  0  0  0  0  0  0  0  0  0  0
   -1.8201   -0.9926    0.3247 N   0  0  0  0  0  0  0  0  0  0  0  0
   -2.7141   -0.5816    0.0927 H   0  0  0  0  0  0  0  0  0  0  0  0
   -0.6481   -0.1156    0.2017 C   0  0  1  0  0  0  0  0  0  0  0  0
    0.1042   -0.6345   -0.3958 H   0  0  0  0  0  0  0  0  0  0  0  0
   -1.0420    1.1781   -0.5372 C   0  0  0  0  0  0  0  0  0  0  0  0
   -0.8642    2.0402    0.1073 H   0  0  0  0  0  0  0  0  0  0  0  0
   -0.4211    1.2992   -1.4259 H   0  0  0  0  0  0  0  0  0  0  0  0
   -2.4980    1.2072   -0.9339 C   0  0  0  0  0  0  0  0  0  0  0  0
   -2.9995    1.6019   -2.1749 N   0  0  0  0  0  0  0  0  0  0  0  0
   -4.3274    1.4269   -2.1092 C   0  0  0  0  0  0  0  0  0  0  0  0
   -5.0158    1.6538   -2.9135 H   0  0  0  0  0  0  0  0  0  0  0  0
   -4.6759    0.9242   -0.9128 N   0  0  0  0  0  0  0  0  0  0  0  0
   -5.6164    0.6870   -0.6280 H   0  0  0  0  0  0  0  0  0  0  0  0
   -3.5337    0.7747   -0.1582 C   0  0  0  0  0  0  0  0  0  0  0  0
   -3.4513    0.3750    0.8447 H   0  0  0  0  0  0  0  0  0  0  0  0
   -0.0283    0.1609    1.5831 C   0  0  0  0  0  0  0  0  0  0  0  0
    1.1923    0.1056    1.7329 O   0  0  0  0  0  0  0  0  0  0  0  0
   -0.8586    0.4659    2.5853 N   0  0  0  0  0  0  0  0  0  0  0  0
   -1.8521    0.3848    2.4000 H   0  0  0  0  0  0  0  0  0  0  0  0
   -0.4403    0.7694    3.9518 C   0  0  0  0  0  0  0  0  0  0  0  0
    0.5066    1.3154    3.9421 H   0  0  0  0  0  0  0  0  0  0  0  0
   -1.1988    1.3789    4.4452 H   0  0  0  0  0  0  0  0  0  0  0  0
   -0.3053   -0.1600    4.5075 H   0  0  0  0  0  0  0  0  0  0  0  0
  5  6  2  0  0  0  0
  5  7  1  0  0  0  0
  2  3  1  0  0  0  0
  2  4  1  0  0  0  0
  2  5  1  0  0  0  0
  1  2  1  0  0  0  0
 22 23  2  0  0  0  0
 22 24  1  0  0  0  0
 20 21  1  0  0  0  0
 18 19  1  0  0  0  0
 18 20  1  0  0  0  0
 16 17  1  0  0  0  0
 16 18  1  0  0  0  0
 15 16  2  0  0  0  0
 14 15  1  0  0  0  0
 14 20  2  0  0  0  0
 11 12  1  0  0  0  0
 11 13  1  0  0  0  0
 11 14  1  0  0  0  0
  9 10  1  0  0  0  0
  9 11  1  0  0  0  0
  9 22  1  0  0  0  0
  7  8  1  0  0  0  0
  7  9  1  0  0  0  0
 26 27  1  0  0  0  0
 26 28  1  0  0  0  0
 26 29  1  0  0  0  0
 24 25  1  0  0  0  0
 24 26  1  0  0  0  0
M  END
$$$$
default_name
  -OEChem-02102213163D

 29 29  0     1  0  0  0  0  0999 V2000
   -2.9561   -3.9186    1.3887 H   0  0  0  0  0  0  0  0  0  0  0  0
   -3.1191   -2.9346    0.9517 C   0  0  0  0  0  0  0  0  0  0  0  0
   -3.7811   -2.3546    1.5917 H   0  0  0  0  0  0  0  0  0  0  0  0
   -3.5591   -3.0406   -0.0383 H   0  0  0  0  0  0  0  0  0  0  0  0
   -1.7921   -2.2226    0.8327 C   0  0  0  0  0  0  0  0  0  0  0  0
   -0.7611   -2.7766    1.1927 O   0  0  0  0  0  0  0  0  0  0  0  0
   -1.8201   -0.9926    0.3247 N   0  0  0  0  0  0  0  0  0  0  0  0
   -2.7141   -0.5816    0.0927 H   0  0  0  0  0  0  0  0  0  0  0  0
   -0.6481   -0.1156    0.2017 C   0  0  1  0  0  0  0  0  0  0  0  0
    0.1042   -0.6345   -0.3958 H   0  0  0  0  0  0  0  0  0  0  0  0
   -1.0420    1.1781   -0.5372 C   0  0  0  0  0  0  0  0  0  0  0  0
   -0.8642    2.0402    0.1073 H   0  0  0  0  0  0  0  0  0  0  0  0
   -0.4211    1.2992   -1.4259 H   0  0  0  0  0  0  0  0  0  0  0  0
   -2.4980    1.2072   -0.9339 C   0  0  0  0  0  0  0  0  0  0  0  0
   -2.9886    1.3132   -2.2360 N   0  0  0  0  0  0  0  0  0  0  0  0
   -4.3243    1.2517   -2.1335 C   0  0  0  0  0  0  0  0  0  0  0  0
   -5.0067    1.3175   -2.9715 H   0  0  0  0  0  0  0  0  0  0  0  0
   -4.6896    1.0886   -0.8508 N   0  0  0  0  0  0  0  0  0  0  0  0
   -5.6399    0.9951   -0.5192 H   0  0  0  0  0  0  0  0  0  0  0  0
   -3.5498    1.0541   -0.0786 C   0  0  0  0  0  0  0  0  0  0  0  0
   -3.4809    0.9125    0.9927 H   0  0  0  0  0  0  0  0  0  0  0  0
   -0.0283    0.1609    1.5831 C   0  0  0  0  0  0  0  0  0  0  0  0
    1.1923    0.1056    1.7329 O   0  0  0  0  0  0  0  0  0  0  0  0
   -0.8586    0.4659    2.5853 N   0  0  0  0  0  0  0  0  0  0  0  0
   -1.8521    0.3848    2.4000 H   0  0  0  0  0  0  0  0  0  0  0  0
   -0.4403    0.7694    3.9518 C   0  0  0  0  0  0  0  0  0  0  0  0
    0.5066    1.3154    3.9421 H   0  0  0  0  0  0  0  0  0  0  0  0
   -1.1988    1.3789    4.4452 H   0  0  0  0  0  0  0  0  0  0  0  0
   -0.3053   -0.1600    4.5075 H   0  0  0  0  0  0  0  0  0  0  0  0
  5  6  2  0  0  0  0
  5  7  1  0  0  0  0
  2  3  1  0  0  0  0
  2  4  1  0  0  0  0
  2  5  1  0  0  0  0
  1  2  1  0  0  0  0
 22 23  2  0  0  0  0
 22 24  1  0  0  0  0
 20 21  1  0  0  0  0
 18 19  1  0  0  0  0
 18 20  1  0  0  0  0
 16 17  1  0  0  0  0
 16 18  1  0  0  0  0
 15 16  2  0  0  0  0
 14 15  1  0  0  0  0
 14 20  2  0  0  0  0
 11 12  1  0  0  0  0
 11 13  1  0  0  0  0
 11 14  1  0  0  0  0
  9 10  1  0  0  0  0
  9 11  1  0  0  0  0
  9 22  1  0  0  0  0
  7  8  1  0  0  0  0
  7  9  1  0  0  0  0
 26 27  1  0  0  0  0
 26 28  1  0  0  0  0
 26 29  1  0  0  0  0
 24 25  1  0  0  0  0
 24 26  1  0  0  0  0
M  END
$$$$
default_name
  -OEChem-02102213163D

 29 29  0     1  0  0  0  0  0999 V2000
   -2.9561   -3.9186    1.3887 H   0  0  0  0  0  0  0  0  0  0  0  0
   -3.1191   -2.9346    0.9517 C   0  0  0  0  0  0  0  0  0  0  0  0
   -3.7811   -2.3546    1.5917 H   0  0  0  0  0  0  0  0  0  0  0  0
   -3.5591   -3.0406   -0.0383 H   0  0  0  0  0  0  0  0  0  0  0  0
   -1.7921   -2.2226    0.8327 C   0  0  0  0  0  0  0  0  0  0  0  0
   -0.7611   -2.7766    1.1927 O   0  0  0  0  0  0  0  0  0  0  0  0
   -1.8201   -0.9926    0.3247 N   0  0  0  0  0  0  0  0  0  0  0  0
   -2.7141   -0.5816    0.0927 H   0  0  0  0  0  0  0  0  0  0  0  0
   -0.6481   -0.1156    0.2017 C   0  0  1  0  0  0  0  0  0  0  0  0
    0.1042   -0.6345   -0.3958 H   0  0  0  0  0  0  0  0  0  0  0  0
   -1.0420    1.1781   -0.5372 C   0  0  0  0  0  0  0  0  0  0  0  0
   -0.8642    2.0402    0.1073 H   0  0  0  0  0  0  0  0  0  0  0  0
   -0.4211    1.2992   -1.4259 H   0  0  0  0  0  0  0  0  0  0  0  0
   -2.4980    1.2072   -0.9339 C   0  0  0  0  0  0  0  0  0  0  0  0
   -2.9980    1.0184   -2.2230 N   0  0  0  0  0  0  0  0  0  0  0  0
   -4.3333    1.0763   -2.1132 C   0  0  0  0  0  0  0  0  0  0  0  0
   -5.0210    0.9775   -2.9436 H   0  0  0  0  0  0  0  0  0  0  0  0
   -4.6912    1.2638   -0.8318 N   0  0  0  0  0  0  0  0  0  0  0  0
   -5.6411    1.3215   -0.4909 H   0  0  0  0  0  0  0  0  0  0  0  0
   -3.5460    1.3449   -0.0713 C   0  0  0  0  0  0  0  0  0  0  0  0
   -3.4722    1.4707    1.0016 H   0  0  0  0  0  0  0  0  0  0  0  0
   -0.0283    0.1609    1.5831 C   0  0  0  0  0  0  0  0  0  0  0  0
    1.1923    0.1056    1.7329 O   0  0  0  0  0  0  0  0  0  0  0  0
   -0.8586    0.4659    2.5853 N   0  0  0  0  0  0  0  0  0  0  0  0
   -1.8521    0.3848    2.4000 H   0  0  0  0  0  0  0  0  0  0  0  0
   -0.4403    0.7694    3.9518 C   0  0  0  0  0  0  0  0  0  0  0  0
    0.5066    1.3154    3.9421 H   0  0  0  0  0  0  0  0  0  0  0  0
   -1.1988    1.3789    4.4452 H   0  0  0  0  0  0  0  0  0  0  0  0
   -0.3053   -0.1600    4.5075 H   0  0  0  0  0  0  0  0  0  0  0  0
  5  6  2  0  0  0  0
  5  7  1  0  0  0  0
  2  3  1  0  0  0  0
  2  4  1  0  0  0  0
  2  5  1  0  0  0  0
  1  2  1  0  0  0  0
 22 23  2  0  0  0  0
 22 24  1  0  0  0  0
 20 21  1  0  0  0  0
 18 19  1  0  0  0  0
 18 20  1  0  0  0  0
 16 17  1  0  0  0  0
 16 18  1  0  0  0  0
 15 16  2  0  0  0  0
 14 15  1  0  0  0  0
 14 20  2  0  0  0  0
 11 12  1  0  0  0  0
 11 13  1  0  0  0  0
 11 14  1  0  0  0  0
  9 10  1  0  0  0  0
  9 11  1  0  0  0  0
  9 22  1  0  0  0  0
  7  8  1  0  0  0  0
  7  9  1  0  0  0  0
 26 27  1  0  0  0  0
 26 28  1  0  0  0  0
 26 29  1  0  0  0  0
 24 25  1  0  0  0  0
 24 26  1  0  0  0  0
M  END
$$$$
default_name
  -OEChem-02102213163D

 29 29  0     1  0  0  0  0  0999 V2000
   -2.9561   -3.9186    1.3887 H   0  0  0  0  0  0  0  0  0  0  0  0
   -3.1191   -2.9346    0.9517 C   0  0  0  0  0  0  0  0  0  0  0  0
   -3.7811   -2.3546    1.5917 H   0  0  0  0  0  0  0  0  0  0  0  0
   -3.5591   -3.0406   -0.0383 H   0  0  0  0  0  0  0  0  0  0  0  0
   -1.7921   -2.2226    0.8327 C   0  0  0  0  0  0  0  0  0  0  0  0
   -0.7611   -2.7766    1.1927 O   0  0  0  0  0  0  0  0  0  0  0  0
   -1.8201   -0.9926    0.3247 N   0  0  0  0  0  0  0  0  0  0  0  0
   -2.7141   -0.5816    0.0927 H   0  0  0  0  0  0  0  0  0  0  0  0
   -0.6481   -0.1156    0.2017 C   0  0  1  0  0  0  0  0  0  0  0  0
    0.1042   -0.6345   -0.3958 H   0  0  0  0  0  0  0  0  0  0  0  0
   -1.0420    1.1781   -0.5372 C   0  0  0  0  0  0  0  0  0  0  0  0
   -0.8642    2.0402    0.1073 H   0  0  0  0  0  0  0  0  0  0  0  0
   -0.4211    1.2992   -1.4259 H   0  0  0  0  0  0  0  0  0  0  0  0
   -2.4980    1.2072   -0.9339 C   0  0  0  0  0  0  0  0  0  0  0  0
   -3.0271    0.7376   -2.1367 N   0  0  0  0  0  0  0  0  0  0  0  0
   -4.3538    0.9125   -2.0498 C   0  0  0  0  0  0  0  0  0  0  0  0
   -5.0579    0.6571   -2.8317 H   0  0  0  0  0  0  0  0  0  0  0  0
   -4.6808    1.4379   -0.8572 N   0  0  0  0  0  0  0  0  0  0  0  0
   -5.6199    1.6439   -0.5450 H   0  0  0  0  0  0  0  0  0  0  0  0
   -3.5225    1.6274   -0.1369 C   0  0  0  0  0  0  0  0  0  0  0  0
   -3.4258    2.0115    0.8708 H   0  0  0  0  0  0  0  0  0  0  0  0
   -0.0283    0.1609    1.5831 C   0  0  0  0  0  0  0  0  0  0  0  0
    1.1923    0.1056    1.7329 O   0  0  0  0  0  0  0  0  0  0  0  0
   -0.8586    0.4659    2.5853 N   0  0  0  0  0  0  0  0  0  0  0  0
   -1.8521    0.3848    2.4000 H   0  0  0  0  0  0  0  0  0  0  0  0
   -0.4403    0.7694    3.9518 C   0  0  0  0  0  0  0  0  0  0  0  0
    0.5066    1.3154    3.9421 H   0  0  0  0  0  0  0  0  0  0  0  0
   -1.1988    1.3789    4.4452 H   0  0  0  0  0  0  0  0  0  0  0  0
   -0.3053   -0.1600    4.5075 H   0  0  0  0  0  0  0  0  0  0  0  0
  5  6  2  0  0  0  0
  5  7  1  0  0  0  0
  2  3  1  0  0  0  0
  2  4  1  0  0  0  0
  2  5  1  0  0  0  0
  1  2  1  0  0  0  0
 22 23  2  0  0  0  0
 22 24  1  0  0  0  0
 20 21  1  0  0  0  0
 18 19  1  0  0  0  0
 18 20  1  0  0  0  0
 16 17  1  0  0  0  0
 16 18  1  0  0  0  0
 15 16  2  0  0  0  0
 14 15  1  0  0  0  0
 14 20  2  0  0  0  0
 11 12  1  0  0  0  0
 11 13  1  0  0  0  0
 11 14  1  0  0  0  0
  9 10  1  0  0  0  0
  9 11  1  0  0  0  0
  9 22  1  0  0  0  0
  7  8  1  0  0  0  0
  7  9  1  0  0  0  0
 26 27  1  0  0  0  0
 26 28  1  0  0  0  0
 26 29  1  0  0  0  0
 24 25  1  0  0  0  0
 24 26  1  0  0  0  0
M  END
$$$$
default_name
  -OEChem-02102213163D

 29 29  0     1  0  0  0  0  0999 V2000
   -2.9561   -3.9186    1.3887 H   0  0  0  0  0  0  0  0  0  0  0  0
   -3.1191   -2.9346    0.9517 C   0  0  0  0  0  0  0  0  0  0  0  0
   -3.7811   -2.3546    1.5917 H   0  0  0  0  0  0  0  0  0  0  0  0
   -3.5591   -3.0406   -0.0383 H   0  0  0  0  0  0  0  0  0  0  0  0
   -1.7921   -2.2226    0.8327 C   0  0  0  0  0  0  0  0  0  0  0  0
   -0.7611   -2.7766    1.1927 O   0  0  0  0  0  0  0  0  0  0  0  0
   -1.8201   -0.9926    0.3247 N   0  0  0  0  0  0  0  0  0  0  0  0
   -2.7141   -0.5816    0.0927 H   0  0  0  0  0  0  0  0  0  0  0  0
   -0.6481   -0.1156    0.2017 C   0  0  1  0  0  0  0  0  0  0  0  0
    0.1042   -0.6345   -0.3958 H   0  0  0  0  0  0  0  0  0  0  0  0
   -1.0420    1.1781   -0.5372 C   0  0  0  0  0  0  0  0  0  0  0  0
   -0.8642    2.0402    0.1073 H   0  0  0  0  0  0  0  0  0  0  0  0
   -0.4211    1.2992   -1.4259 H   0  0  0  0  0  0  0  0  0  0  0  0
   -2.4980    1.2072   -0.9339 C   0  0  0  0  0  0  0  0  0  0  0  0
   -3.0739    0.4898   -1.9832 N   0  0  0  0  0  0  0  0  0  0  0  0
   -4.3845    0.7715   -1.9476 C   0  0  0  0  0  0  0  0  0  0  0  0
   -5.1148    0.3781   -2.6434 H   0  0  0  0  0  0  0  0  0  0  0  0
   -4.6591    1.5990   -0.9253 N   0  0  0  0  0  0  0  0  0  0  0  0
   -5.5778    1.9404   -0.6778 H   0  0  0  0  0  0  0  0  0  0  0  0
   -3.4809    1.8822   -0.2709 C   0  0  0  0  0  0  0  0  0  0  0  0
   -3.3448    2.4981    0.6092 H   0  0  0  0  0  0  0  0  0  0  0  0
   -0.0283    0.1609    1.5831 C   0  0  0  0  0  0  0  0  0  0  0  0
    1.1923    0.1056    1.7329 O   0  0  0  0  0  0  0  0  0  0  0  0
   -0.8586    0.4659    2.5853 N   0  0  0  0  0  0  0  0  0  0  0  0
   -1.8521    0.3848    2.4000 H   0  0  0  0  0  0  0  0  0  0  0  0
   -0.4403    0.7694    3.9518 C   0  0  0  0  0  0  0  0  0  0  0  0
    0.5066    1.3154    3.9421 H   0  0  0  0  0  0  0  0  0  0  0  0
   -1.1988    1.3789    4.4452 H   0  0  0  0  0  0  0  0  0  0  0  0
   -0.3053   -0.1600    4.5075 H   0  0  0  0  0  0  0  0  0  0  0  0
  5  6  2  0  0  0  0
  5  7  1  0  0  0  0
  2  3  1  0  0  0  0
  2  4  1  0  0  0  0
  2  5  1  0  0  0  0
  1  2  1  0  0  0  0
 22 23  2  0  0  0  0
 22 24  1  0  0  0  0
 20 21  1  0  0  0  0
 18 19  1  0  0  0  0
 18 20  1  0  0  0  0
 16 17  1  0  0  0  0
 16 18  1  0  0  0  0
 15 16  2  0  0  0  0
 14 15  1  0  0  0  0
 14 20  2  0  0  0  0
 11 12  1  0  0  0  0
 11 13  1  0  0  0  0
 11 14  1  0  0  0  0
  9 10  1  0  0  0  0
  9 11  1  0  0  0  0
  9 22  1  0  0  0  0
  7  8  1  0  0  0  0
  7  9  1  0  0  0  0
 26 27  1  0  0  0  0
 26 28  1  0  0  0  0
 26 29  1  0  0  0  0
 24 25  1  0  0  0  0
 24 26  1  0  0  0  0
M  END
$$$$
default_name
  -OEChem-02102213163D

 29 29  0     1  0  0  0  0  0999 V2000
   -2.9561   -3.9186    1.3887 H   0  0  0  0  0  0  0  0  0  0  0  0
   -3.1191   -2.9346    0.9517 C   0  0  0  0  0  0  0  0  0  0  0  0
   -3.7811   -2.3546    1.5917 H   0  0  0  0  0  0  0  0  0  0  0  0
   -3.5591   -3.0406   -0.0383 H   0  0  0  0  0  0  0  0  0  0  0  0
   -1.7921   -2.2226    0.8327 C   0  0  0  0  0  0  0  0  0  0  0  0
   -0.7611   -2.7766    1.1927 O   0  0  0  0  0  0  0  0  0  0  0  0
   -1.8201   -0.9926    0.3247 N   0  0  0  0  0  0  0  0  0  0  0  0
   -2.7141   -0.5816    0.0927 H   0  0  0  0  0  0  0  0  0  0  0  0
   -0.6481   -0.1156    0.2017 C   0  0  1  0  0  0  0  0  0  0  0  0
    0.1042   -0.6345   -0.3958 H   0  0  0  0  0  0  0  0  0  0  0  0
   -1.0420    1.1781   -0.5372 C   0  0  0  0  0  0  0  0  0  0  0  0
   -0.8642    2.0402    0.1073 H   0  0  0  0  0  0  0  0  0  0  0  0
   -0.4211    1.2992   -1.4259 H   0  0  0  0  0  0  0  0  0  0  0  0
   -2.4980    1.2072   -0.9339 C   0  0  0  0  0  0  0  0  0  0  0  0
   -3.1352    0.2919   -1.7728 N   0  0  0  0  0  0  0  0  0  0  0  0
   -4.4232    0.6629   -1.8135 C   0  0  0  0  0  0  0  0  0  0  0  0
   -5.1877    0.1594   -2.3916 H   0  0  0  0  0  0  0  0  0  0  0  0
   -4.6274    1.7362   -1.0314 N   0  0  0  0  0  0  0  0  0  0  0  0
   -5.5176    2.1907   -0.8804 H   0  0  0  0  0  0  0  0  0  0  0  0
   -3.4240    2.0921   -0.4642 C   0  0  0  0  0  0  0  0  0  0  0  0
   -3.2348    2.8972    0.2346 H   0  0  0  0  0  0  0  0  0  0  0  0
   -0.0283    0.1609    1.5831 C   0  0  0  0  0  0  0  0  0  0  0  0
    1.1923    0.1056    1.7329 O   0  0  0  0  0  0  0  0  0  0  0  0
   -0.8586    0.4659    2.5853 N   0  0  0  0  0  0  0  0  0  0  0  0
   -1.8521    0.3848    2.4000 H   0  0  0  0  0  0  0  0  0  0  0  0
   -0.4403    0.7694    3.9518 C   0  0  0  0  0  0  0  0  0  0  0  0
    0.5066    1.3154    3.9421 H   0  0  0  0  0  0  0  0  0  0  0  0
   -1.1988    1.3789    4.4452 H   0  0  0  0  0  0  0  0  0  0  0  0
   -0.3053   -0.1600    4.5075 H   0  0  0  0  0  0  0  0  0  0  0  0
  5  6  2  0  0  0  0
  5  7  1  0  0  0  0
  2  3  1  0  0  0  0
  2  4  1  0  0  0  0
  2  5  1  0  0  0  0
  1  2  1  0  0  0  0
 22 23  2  0  0  0  0
 22 24  1  0  0  0  0
 20 21  1  0  0  0  0
 18 19  1  0  0  0  0
 18 20  1  0  0  0  0
 16 17  1  0  0  0  0
 16 18  1  0  0  0  0
 15 16  2  0  0  0  0
 14 15  1  0  0  0  0
 14 20  2  0  0  0  0
 11 12  1  0  0  0  0
 11 13  1  0  0  0  0
 11 14  1  0  0  0  0
  9 10  1  0  0  0  0
  9 11  1  0  0  0  0
  9 22  1  0  0  0  0
  7  8  1  0  0  0  0
  7  9  1  0  0  0  0
 26 27  1  0  0  0  0
 26 28  1  0  0  0  0
 26 29  1  0  0  0  0
 24 25  1  0  0  0  0
 24 26  1  0  0  0  0
M  END
$$$$
default_name
  -OEChem-02102213163D

 29 29  0     1  0  0  0  0  0999 V2000
   -2.9561   -3.9186    1.3887 H   0  0  0  0  0  0  0  0  0  0  0  0
   -3.1191   -2.9346    0.9517 C   0  0  0  0  0  0  0  0  0  0  0  0
   -3.7811   -2.3546    1.5917 H   0  0  0  0  0  0  0  0  0  0  0  0
   -3.5591   -3.0406   -0.0383 H   0  0  0  0  0  0  0  0  0  0  0  0
   -1.7921   -2.2226    0.8327 C   0  0  0  0  0  0  0  0  0  0  0  0
   -0.7611   -2.7766    1.1927 O   0  0  0  0  0  0  0  0  0  0  0  0
   -1.8201   -0.9926    0.3247 N   0  0  0  0  0  0  0  0  0  0  0  0
   -2.7141   -0.5816    0.0927 H   0  0  0  0  0  0  0  0  0  0  0  0
   -0.6481   -0.1156    0.2017 C   0  0  1  0  0  0  0  0  0  0  0  0
    0.1042   -0.6345   -0.3958 H   0  0  0  0  0  0  0  0  0  0  0  0
   -1.0420    1.1781   -0.5372 C   0  0  0  0  0  0  0  0  0  0  0  0
   -0.8642    2.0402    0.1073 H   0  0  0  0  0  0  0  0  0  0  0  0
   -0.4211    1.2992   -1.4259 H   0  0  0  0  0  0  0  0  0  0  0  0
   -2.4980    1.2072   -0.9339 C   0  0  0  0  0  0  0  0  0  0  0  0
   -3.2068    0.1576   -1.5198 N   0  0  0  0  0  0  0  0  0  0  0  0
   -4.4673    0.5942   -1.6567 C   0  0  0  0  0  0  0  0  0  0  0  0
   -5.2718    0.0161   -2.0935 H   0  0  0  0  0  0  0  0  0  0  0  0
   -4.5881    1.8400   -1.1682 N   0  0  0  0  0  0  0  0  0  0  0  0
   -5.4435    2.3779   -1.1389 H   0  0  0  0  0  0  0  0  0  0  0  0
   -3.3558    2.2427   -0.7036 C   0  0  0  0  0  0  0  0  0  0  0  0
   -3.1033    3.1818   -0.2274 H   0  0  0  0  0  0  0  0  0  0  0  0
   -0.0283    0.1609    1.5831 C   0  0  0  0  0  0  0  0  0  0  0  0
    1.1923    0.1056    1.7329 O   0  0  0  0  0  0  0  0  0  0  0  0
   -0.8586    0.4659    2.5853 N   0  0  0  0  0  0  0  0  0  0  0  0
   -1.8521    0.3848    2.4000 H   0  0  0  0  0  0  0  0  0  0  0  0
   -0.4403    0.7694    3.9518 C   0  0  0  0  0  0  0  0  0  0  0  0
    0.5066    1.3154    3.9421 H   0  0  0  0  0  0  0  0  0  0  0  0
   -1.1988    1.3789    4.4452 H   0  0  0  0  0  0  0  0  0  0  0  0
   -0.3053   -0.1600    4.5075 H   0  0  0  0  0  0  0  0  0  0  0  0
  5  6  2  0  0  0  0
  5  7  1  0  0  0  0
  2  3  1  0  0  0  0
  2  4  1  0  0  0  0
  2  5  1  0  0  0  0
  1  2  1  0  0  0  0
 22 23  2  0  0  0  0
 22 24  1  0  0  0  0
 20 21  1  0  0  0  0
 18 19  1  0  0  0  0
 18 20  1  0  0  0  0
 16 17  1  0  0  0  0
 16 18  1  0  0  0  0
 15 16  2  0  0  0  0
 14 15  1  0  0  0  0
 14 20  2  0  0  0  0
 11 12  1  0  0  0  0
 11 13  1  0  0  0  0
 11 14  1  0  0  0  0
  9 10  1  0  0  0  0
  9 11  1  0  0  0  0
  9 22  1  0  0  0  0
  7  8  1  0  0  0  0
  7  9  1  0  0  0  0
 26 27  1  0  0  0  0
 26 28  1  0  0  0  0
 26 29  1  0  0  0  0
 24 25  1  0  0  0  0
 24 26  1  0  0  0  0
M  END
$$$$
default_name
  -OEChem-02102213163D

 29 29  0     1  0  0  0  0  0999 V2000
   -2.9561   -3.9186    1.3887 H   0  0  0  0  0  0  0  0  0  0  0  0
   -3.1191   -2.9346    0.9517 C   0  0  0  0  0  0  0  0  0  0  0  0
   -3.7811   -2.3546    1.5917 H   0  0  0  0  0  0  0  0  0  0  0  0
   -3.5591   -3.0406   -0.0383 H   0  0  0  0  0  0  0  0  0  0  0  0
   -1.7921   -2.2226    0.8327 C   0  0  0  0  0  0  0  0  0  0  0  0
   -0.7611   -2.7766    1.1927 O   0  0  0  0  0  0  0  0  0  0  0  0
   -1.8201   -0.9926    0.3247 N   0  0  0  0  0  0  0  0  0  0  0  0
   -2.7141   -0.5816    0.0927 H   0  0  0  0  0  0  0  0  0  0  0  0
   -0.6481   -0.1156    0.2017 C   0  0  1  0  0  0  0  0  0  0  0  0
    0.1042   -0.6345   -0.3958 H   0  0  0  0  0  0  0  0  0  0  0  0
   -1.0420    1.1781   -0.5372 C   0  0  0  0  0  0  0  0  0  0  0  0
   -0.8642    2.0402    0.1073 H   0  0  0  0  0  0  0  0  0  0  0  0
   -0.4211    1.2992   -1.4259 H   0  0  0  0  0  0  0  0  0  0  0  0
   -2.4980    1.2072   -0.9339 C   0  0  0  0  0  0  0  0  0  0  0  0
   -3.2838    0.0958   -1.2416 N   0  0  0  0  0  0  0  0  0  0  0  0
   -4.5138    0.5699   -1.4878 C   0  0  0  0  0  0  0  0  0  0  0  0
   -5.3613   -0.0423   -1.7692 H   0  0  0  0  0  0  0  0  0  0  0  0
   -4.5437    1.9035   -1.3266 N   0  0  0  0  0  0  0  0  0  0  0  0
   -5.3604    2.4890   -1.4357 H   0  0  0  0  0  0  0  0  0  0  0  0
   -3.2809    2.3238   -0.9728 C   0  0  0  0  0  0  0  0  0  0  0  0
   -2.9592    3.3323   -0.7454 H   0  0  0  0  0  0  0  0  0  0  0  0
   -0.0283    0.1609    1.5831 C   0  0  0  0  0  0  0  0  0  0  0  0
    1.1923    0.1056    1.7329 O   0  0  0  0  0  0  0  0  0  0  0  0
   -0.8586    0.4659    2.5853 N   0  0  0  0  0  0  0  0  0  0  0  0
   -1.8521    0.3848    2.4000 H   0  0  0  0  0  0  0  0  0  0  0  0
   -0.4403    0.7694    3.9518 C   0  0  0  0  0  0  0  0  0  0  0  0
    0.5066    1.3154    3.9421 H   0  0  0  0  0  0  0  0  0  0  0  0
   -1.1988    1.3789    4.4452 H   0  0  0  0  0  0  0  0  0  0  0  0
   -0.3053   -0.1600    4.5075 H   0  0  0  0  0  0  0  0  0  0  0  0
  5  6  2  0  0  0  0
  5  7  1  0  0  0  0
  2  3  1  0  0  0  0
  2  4  1  0  0  0  0
  2  5  1  0  0  0  0
  1  2  1  0  0  0  0
 22 23  2  0  0  0  0
 22 24  1  0  0  0  0
 20 21  1  0  0  0  0
 18 19  1  0  0  0  0
 18 20  1  0  0  0  0
 16 17  1  0  0  0  0
 16 18  1  0  0  0  0
 15 16  2  0  0  0  0
 14 15  1  0  0  0  0
 14 20  2  0  0  0  0
 11 12  1  0  0  0  0
 11 13  1  0  0  0  0
 11 14  1  0  0  0  0
  9 10  1  0  0  0  0
  9 11  1  0  0  0  0
  9 22  1  0  0  0  0
  7  8  1  0  0  0  0
  7  9  1  0  0  0  0
 26 27  1  0  0  0  0
 26 28  1  0  0  0  0
 26 29  1  0  0  0  0
 24 25  1  0  0  0  0
 24 26  1  0  0  0  0
M  END
$$$$
default_name
  -OEChem-02102213163D

 29 29  0     1  0  0  0  0  0999 V2000
   -2.9561   -3.9186    1.3887 H   0  0  0  0  0  0  0  0  0  0  0  0
   -3.1191   -2.9346    0.9517 C   0  0  0  0  0  0  0  0  0  0  0  0
   -3.7811   -2.3546    1.5917 H   0  0  0  0  0  0  0  0  0  0  0  0
   -3.5591   -3.0406   -0.0383 H   0  0  0  0  0  0  0  0  0  0  0  0
   -1.7921   -2.2226    0.8327 C   0  0  0  0  0  0  0  0  0  0  0  0
   -0.7611   -2.7766    1.1927 O   0  0  0  0  0  0  0  0  0  0  0  0
   -1.8201   -0.9926    0.3247 N   0  0  0  0  0  0  0  0  0  0  0  0
   -2.7141   -0.5816    0.0927 H   0  0  0  0  0  0  0  0  0  0  0  0
   -0.6481   -0.1156    0.2017 C   0  0  1  0  0  0  0  0  0  0  0  0
    0.1042   -0.6345   -0.3958 H   0  0  0  0  0  0  0  0  0  0  0  0
   -1.0420    1.1781   -0.5372 C   0  0  0  0  0  0  0  0  0  0  0  0
   -0.8642    2.0402    0.1073 H   0  0  0  0  0  0  0  0  0  0  0  0
   -0.4211    1.2992   -1.4259 H   0  0  0  0  0  0  0  0  0  0  0  0
   -2.4980    1.2072   -0.9339 C   0  0  0  0  0  0  0  0  0  0  0  0
   -3.3610    0.1108   -0.9570 N   0  0  0  0  0  0  0  0  0  0  0  0
   -4.5595    0.5918   -1.3184 C   0  0  0  0  0  0  0  0  0  0  0  0
   -5.4501   -0.0116   -1.4411 H   0  0  0  0  0  0  0  0  0  0  0  0
   -4.4973    1.9222   -1.4955 N   0  0  0  0  0  0  0  0  0  0  0  0
   -5.2741    2.5167   -1.7505 H   0  0  0  0  0  0  0  0  0  0  0  0
   -3.2043    2.3298   -1.2534 C   0  0  0  0  0  0  0  0  0  0  0  0
   -2.8123    3.3386   -1.2840 H   0  0  0  0  0  0  0  0  0  0  0  0
   -0.0283    0.1609    1.5831 C   0  0  0  0  0  0  0  0  0  0  0  0
    1.1923    0.1056    1.7329 O   0  0  0  0  0  0  0  0  0  0  0  0
   -0.8586    0.4659    2.5853 N   0  0  0  0  0  0  0  0  0  0  0  0
   -1.8521    0.3848    2.4000 H   0  0  0  0  0  0  0  0  0  0  0  0
   -0.4403    0.7694    3.9518 C   0  0  0  0  0  0  0  0  0  0  0  0
    0.5066    1.3154    3.9421 H   0  0  0  0  0  0  0  0  0  0  0  0
   -1.1988    1.3789    4.4452 H   0  0  0  0  0  0  0  0  0  0  0  0
   -0.3053   -0.1600    4.5075 H   0  0  0  0  0  0  0  0  0  0  0  0
  5  6  2  0  0  0  0
  5  7  1  0  0  0  0
  2  3  1  0  0  0  0
  2  4  1  0  0  0  0
  2  5  1  0  0  0  0
  1  2  1  0  0  0  0
 22 23  2  0  0  0  0
 22 24  1  0  0  0  0
 20 21  1  0  0  0  0
 18 19  1  0  0  0  0
 18 20  1  0  0  0  0
 16 17  1  0  0  0  0
 16 18  1  0  0  0  0
 15 16  2  0  0  0  0
 14 15  1  0  0  0  0
 14 20  2  0  0  0  0
 11 12  1  0  0  0  0
 11 13  1  0  0  0  0
 11 14  1  0  0  0  0
  9 10  1  0  0  0  0
  9 11  1  0  0  0  0
  9 22  1  0  0  0  0
  7  8  1  0  0  0  0
  7  9  1  0  0  0  0
 26 27  1  0  0  0  0
 26 28  1  0  0  0  0
 26 29  1  0  0  0  0
 24 25  1  0  0  0  0
 24 26  1  0  0  0  0
M  END
$$$$
default_name
  -OEChem-02102213163D

 29 29  0     1  0  0  0  0  0999 V2000
   -2.9561   -3.9186    1.3887 H   0  0  0  0  0  0  0  0  0  0  0  0
   -3.1191   -2.9346    0.9517 C   0  0  0  0  0  0  0  0  0  0  0  0
   -3.7811   -2.3546    1.5917 H   0  0  0  0  0  0  0  0  0  0  0  0
   -3.5591   -3.0406   -0.0383 H   0  0  0  0  0  0  0  0  0  0  0  0
   -1.7921   -2.2226    0.8327 C   0  0  0  0  0  0  0  0  0  0  0  0
   -0.7611   -2.7766    1.1927 O   0  0  0  0  0  0  0  0  0  0  0  0
   -1.8201   -0.9926    0.3247 N   0  0  0  0  0  0  0  0  0  0  0  0
   -2.7141   -0.5816    0.0927 H   0  0  0  0  0  0  0  0  0  0  0  0
   -0.6481   -0.1156    0.2017 C   0  0  1  0  0  0  0  0  0  0  0  0
    0.1042   -0.6345   -0.3958 H   0  0  0  0  0  0  0  0  0  0  0  0
   -1.0420    1.1781   -0.5372 C   0  0  0  0  0  0  0  0  0  0  0  0
   -0.8642    2.0402    0.1073 H   0  0  0  0  0  0  0  0  0  0  0  0
   -0.4211    1.2992   -1.4259 H   0  0  0  0  0  0  0  0  0  0  0  0
   -2.4980    1.2072   -0.9339 C   0  0  0  0  0  0  0  0  0  0  0  0
   -3.4332    0.2016   -0.6855 N   0  0  0  0  0  0  0  0  0  0  0  0
   -4.6013    0.6584   -1.1600 C   0  0  0  0  0  0  0  0  0  0  0  0
   -5.5321    0.1061   -1.1313 H   0  0  0  0  0  0  0  0  0  0  0  0
   -4.4520    1.8950   -1.6637 N   0  0  0  0  0  0  0  0  0  0  0  0
   -5.1904    2.4589   -2.0619 H   0  0  0  0  0  0  0  0  0  0  0  0
   -3.1313    2.2603   -1.5263 C   0  0  0  0  0  0  0  0  0  0  0  0
   -2.6727    3.2003   -1.8066 H   0  0  0  0  0  0  0  0  0  0  0  0
   -0.0283    0.1609    1.5831 C   0  0  0  0  0  0  0  0  0  0  0  0
    1.1923    0.1056    1.7329 O   0  0  0  0  0  0  0  0  0  0  0  0
   -0.8586    0.4659    2.5853 N   0  0  0  0  0  0  0  0  0  0  0  0
   -1.8521    0.3848    2.4000 H   0  0  0  0  0  0  0  0  0  0  0  0
   -0.4403    0.7694    3.9518 C   0  0  0  0  0  0  0  0  0  0  0  0
    0.5066    1.3154    3.9421 H   0  0  0  0  0  0  0  0  0  0  0  0
   -1.1988    1.3789    4.4452 H   0  0  0  0  0  0  0  0  0  0  0  0
   -0.3053   -0.1600    4.5075 H   0  0  0  0  0  0  0  0  0  0  0  0
  5  6  2  0  0  0  0
  5  7  1  0  0  0  0
  2  3  1  0  0  0  0
  2  4  1  0  0  0  0
  2  5  1  0  0  0  0
  1  2  1  0  0  0  0
 22 23  2  0  0  0  0
 22 24  1  0  0  0  0
 20 21  1  0  0  0  0
 18 19  1  0  0  0  0
 18 20  1  0  0  0  0
 16 17  1  0  0  0  0
 16 18  1  0  0  0  0
 15 16  2  0  0  0  0
 14 15  1  0  0  0  0
 14 20  2  0  0  0  0
 11 12  1  0  0  0  0
 11 13  1  0  0  0  0
 11 14  1  0  0  0  0
  9 10  1  0  0  0  0
  9 11  1  0  0  0  0
  9 22  1  0  0  0  0
  7  8  1  0  0  0  0
  7  9  1  0  0  0  0
 26 27  1  0  0  0  0
 26 28  1  0  0  0  0
 26 29  1  0  0  0  0
 24 25  1  0  0  0  0
 24 26  1  0  0  0  0
M  END
$$$$
default_name
  -OEChem-02102213163D

 29 29  0     1  0  0  0  0  0999 V2000
   -2.9561   -3.9186    1.3887 H   0  0  0  0  0  0  0  0  0  0  0  0
   -3.1191   -2.9346    0.9517 C   0  0  0  0  0  0  0  0  0  0  0  0
   -3.7811   -2.3546    1.5917 H   0  0  0  0  0  0  0  0  0  0  0  0
   -3.5591   -3.0406   -0.0383 H   0  0  0  0  0  0  0  0  0  0  0  0
   -1.7921   -2.2226    0.8327 C   0  0  0  0  0  0  0  0  0  0  0  0
   -0.7611   -2.7766    1.1927 O   0  0  0  0  0  0  0  0  0  0  0  0
   -1.8201   -0.9926    0.3247 N   0  0  0  0  0  0  0  0  0  0  0  0
   -2.7141   -0.5816    0.0927 H   0  0  0  0  0  0  0  0  0  0  0  0
   -0.6481   -0.1156    0.2017 C   0  0  1  0  0  0  0  0  0  0  0  0
    0.1042   -0.6345   -0.3958 H   0  0  0  0  0  0  0  0  0  0  0  0
   -1.0420    1.1781   -0.5372 C   0  0  0  0  0  0  0  0  0  0  0  0
   -0.8642    2.0402    0.1073 H   0  0  0  0  0  0  0  0  0  0  0  0
   -0.4211    1.2992   -1.4259 H   0  0  0  0  0  0  0  0  0  0  0  0
   -2.4980    1.2072   -0.9339 C   0  0  0  0  0  0  0  0  0  0  0  0
   -3.4953    0.3620   -0.4456 N   0  0  0  0  0  0  0  0  0  0  0  0
   -4.6364    0.7650   -1.0234 C   0  0  0  0  0  0  0  0  0  0  0  0
   -5.6019    0.3026   -0.8610 H   0  0  0  0  0  0  0  0  0  0  0  0
   -4.4110    1.8236   -1.8195 N   0  0  0  0  0  0  0  0  0  0  0  0
   -5.1151    2.3197   -2.3487 H   0  0  0  0  0  0  0  0  0  0  0  0
   -3.0669    2.1201   -1.7729 C   0  0  0  0  0  0  0  0  0  0  0  0
   -2.5499    2.9266   -2.2775 H   0  0  0  0  0  0  0  0  0  0  0  0
   -0.0283    0.1609    1.5831 C   0  0  0  0  0  0  0  0  0  0  0  0
    1.1923    0.1056    1.7329 O   0  0  0  0  0  0  0  0  0  0  0  0
   -0.8586    0.4659    2.5853 N   0  0  0  0  0  0  0  0  0  0  0  0
   -1.8521    0.3848    2.4000 H   0  0  0  0  0  0  0  0  0  0  0  0
   -0.4403    0.7694    3.9518 C   0  0  0  0  0  0  0  0  0  0  0  0
    0.5066    1.3154    3.9421 H   0  0  0  0  0  0  0  0  0  0  0  0
   -1.1988    1.3789    4.4452 H   0  0  0  0  0  0  0  0  0  0  0  0
   -0.3053   -0.1600    4.5075 H   0  0  0  0  0  0  0  0  0  0  0  0
  5  6  2  0  0  0  0
  5  7  1  0  0  0  0
  2  3  1  0  0  0  0
  2  4  1  0  0  0  0
  2  5  1  0  0  0  0
  1  2  1  0  0  0  0
 22 23  2  0  0  0  0
 22 24  1  0  0  0  0
 20 21  1  0  0  0  0
 18 19  1  0  0  0  0
 18 20  1  0  0  0  0
 16 17  1  0  0  0  0
 16 18  1  0  0  0  0
 15 16  2  0  0  0  0
 14 15  1  0  0  0  0
 14 20  2  0  0  0  0
 11 12  1  0  0  0  0
 11 13  1  0  0  0  0
 11 14  1  0  0  0  0
  9 10  1  0  0  0  0
  9 11  1  0  0  0  0
  9 22  1  0  0  0  0
  7  8  1  0  0  0  0
  7  9  1  0  0  0  0
 26 27  1  0  0  0  0
 26 28  1  0  0  0  0
 26 29  1  0  0  0  0
 24 25  1  0  0  0  0
 24 26  1  0  0  0  0
M  END
$$$$
default_name
  -OEChem-02102213163D

 29 29  0     1  0  0  0  0  0999 V2000
   -2.9561   -3.9186    1.3887 H   0  0  0  0  0  0  0  0  0  0  0  0
   -3.1191   -2.9346    0.9517 C   0  0  0  0  0  0  0  0  0  0  0  0
   -3.7811   -2.3546    1.5917 H   0  0  0  0  0  0  0  0  0  0  0  0
   -3.5591   -3.0406   -0.0383 H   0  0  0  0  0  0  0  0  0  0  0  0
   -1.7921   -2.2226    0.8327 C   0  0  0  0  0  0  0  0  0  0  0  0
   -0.7611   -2.7766    1.1927 O   0  0  0  0  0  0  0  0  0  0  0  0
   -1.8201   -0.9926    0.3247 N   0  0  0  0  0  0  0  0  0  0  0  0
   -2.7141   -0.5816    0.0927 H   0  0  0  0  0  0  0  0  0  0  0  0
   -0.6481   -0.1156    0.2017 C   0  0  1  0  0  0  0  0  0  0  0  0
    0.1042   -0.6345   -0.3958 H   0  0  0  0  0  0  0  0  0  0  0  0
   -1.0420    1.1781   -0.5372 C   0  0  0  0  0  0  0  0  0  0  0  0
   -0.8642    2.0402    0.1073 H   0  0  0  0  0  0  0  0  0  0  0  0
   -0.4211    1.2992   -1.4259 H   0  0  0  0  0  0  0  0  0  0  0  0
   -2.4980    1.2072   -0.9339 C   0  0  0  0  0  0  0  0  0  0  0  0
   -3.5433    0.5811   -0.2536 N   0  0  0  0  0  0  0  0  0  0  0  0
   -4.6624    0.9046   -0.9179 C   0  0  0  0  0  0  0  0  0  0  0  0
   -5.6545    0.5647   -0.6487 H   0  0  0  0  0  0  0  0  0  0  0  0
   -4.3770    1.7130   -1.9525 N   0  0  0  0  0  0  0  0  0  0  0  0
   -5.0532    2.1084   -2.5914 H   0  0  0  0  0  0  0  0  0  0  0  0
   -3.0155    1.9187   -1.9765 C   0  0  0  0  0  0  0  0  0  0  0  0
   -2.4522    2.5364   -2.6647 H   0  0  0  0  0  0  0  0  0  0  0  0
   -0.0283    0.1609    1.5831 C   0  0  0  0  0  0  0  0  0  0  0  0
    1.1923    0.1056    1.7329 O   0  0  0  0  0  0  0  0  0  0  0  0
   -0.8586    0.4659    2.5853 N   0  0  0  0  0  0  0  0  0  0  0  0
   -1.8521    0.3848    2.4000 H   0  0  0  0  0  0  0  0  0  0  0  0
   -0.4403    0.7694    3.9518 C   0  0  0  0  0  0  0  0  0  0  0  0
    0.5066    1.3154    3.9421 H   0  0  0  0  0  0  0  0  0  0  0  0
   -1.1988    1.3789    4.4452 H   0  0  0  0  0  0  0  0  0  0  0  0
   -0.3053   -0.1600    4.5075 H   0  0  0  0  0  0  0  0  0  0  0  0
  5  6  2  0  0  0  0
  5  7  1  0  0  0  0
  2  3  1  0  0  0  0
  2  4  1  0  0  0  0
  2  5  1  0  0  0  0
  1  2  1  0  0  0  0
 22 23  2  0  0  0  0
 22 24  1  0  0  0  0
 20 21  1  0  0  0  0
 18 19  1  0  0  0  0
 18 20  1  0  0  0  0
 16 17  1  0  0  0  0
 16 18  1  0  0  0  0
 15 16  2  0  0  0  0
 14 15  1  0  0  0  0
 14 20  2  0  0  0  0
 11 12  1  0  0  0  0
 11 13  1  0  0  0  0
 11 14  1  0  0  0  0
  9 10  1  0  0  0  0
  9 11  1  0  0  0  0
  9 22  1  0  0  0  0
  7  8  1  0  0  0  0
  7  9  1  0  0  0  0
 26 27  1  0  0  0  0
 26 28  1  0  0  0  0
 26 29  1  0  0  0  0
 24 25  1  0  0  0  0
 24 26  1  0  0  0  0
M  END
$$$$
default_name
  -OEChem-02102213163D

 29 29  0     1  0  0  0  0  0999 V2000
   -2.9561   -3.9186    1.3887 H   0  0  0  0  0  0  0  0  0  0  0  0
   -3.1191   -2.9346    0.9517 C   0  0  0  0  0  0  0  0  0  0  0  0
   -3.7811   -2.3546    1.5917 H   0  0  0  0  0  0  0  0  0  0  0  0
   -3.5591   -3.0406   -0.0383 H   0  0  0  0  0  0  0  0  0  0  0  0
   -1.7921   -2.2226    0.8327 C   0  0  0  0  0  0  0  0  0  0  0  0
   -0.7611   -2.7766    1.1927 O   0  0  0  0  0  0  0  0  0  0  0  0
   -1.8201   -0.9926    0.3247 N   0  0  0  0  0  0  0  0  0  0  0  0
   -2.7141   -0.5816    0.0927 H   0  0  0  0  0  0  0  0  0  0  0  0
   -0.6481   -0.1156    0.2017 C   0  0  1  0  0  0  0  0  0  0  0  0
    0.1042   -0.6345   -0.3958 H   0  0  0  0  0  0  0  0  0  0  0  0
   -1.0420    1.1781   -0.5372 C   0  0  0  0  0  0  0  0  0  0  0  0
   -0.8642    2.0402    0.1073 H   0  0  0  0  0  0  0  0  0  0  0  0
   -0.4211    1.2992   -1.4259 H   0  0  0  0  0  0  0  0  0  0  0  0
   -2.4980    1.2072   -0.9339 C   0  0  0  0  0  0  0  0  0  0  0  0
   -3.5737    0.8439   -0.1226 N   0  0  0  0  0  0  0  0  0  0  0  0
   -4.6774    1.0674   -0.8507 C   0  0  0  0  0  0  0  0  0  0  0  0
   -5.6864    0.8744   -0.5087 H   0  0  0  0  0  0  0  0  0  0  0  0
   -4.3523    1.5706   -2.0534 N   0  0  0  0  0  0  0  0  0  0  0  0
   -5.0090    1.8396   -2.7733 H   0  0  0  0  0  0  0  0  0  0  0  0
   -2.9805    1.6699   -2.1231 C   0  0  0  0  0  0  0  0  0  0  0  0
   -2.3863    2.0561   -2.9417 H   0  0  0  0  0  0  0  0  0  0  0  0
   -0.0283    0.1609    1.5831 C   0  0  0  0  0  0  0  0  0  0  0  0
    1.1923    0.1056    1.7329 O   0  0  0  0  0  0  0  0  0  0  0  0
   -0.8586    0.4659    2.5853 N   0  0  0  0  0  0  0  0  0  0  0  0
   -1.8521    0.3848    2.4000 H   0  0  0  0  0  0  0  0  0  0  0  0
   -0.4403    0.7694    3.9518 C   0  0  0  0  0  0  0  0  0  0  0  0
    0.5066    1.3154    3.9421 H   0  0  0  0  0  0  0  0  0  0  0  0
   -1.1988    1.3789    4.4452 H   0  0  0  0  0  0  0  0  0  0  0  0
   -0.3053   -0.1600    4.5075 H   0  0  0  0  0  0  0  0  0  0  0  0
  5  6  2  0  0  0  0
  5  7  1  0  0  0  0
  2  3  1  0  0  0  0
  2  4  1  0  0  0  0
  2  5  1  0  0  0  0
  1  2  1  0  0  0  0
 22 23  2  0  0  0  0
 22 24  1  0  0  0  0
 20 21  1  0  0  0  0
 18 19  1  0  0  0  0
 18 20  1  0  0  0  0
 16 17  1  0  0  0  0
 16 18  1  0  0  0  0
 15 16  2  0  0  0  0
 14 15  1  0  0  0  0
 14 20  2  0  0  0  0
 11 12  1  0  0  0  0
 11 13  1  0  0  0  0
 11 14  1  0  0  0  0
  9 10  1  0  0  0  0
  9 11  1  0  0  0  0
  9 22  1  0  0  0  0
  7  8  1  0  0  0  0
  7  9  1  0  0  0  0
 26 27  1  0  0  0  0
 26 28  1  0  0  0  0
 26 29  1  0  0  0  0
 24 25  1  0  0  0  0
 24 26  1  0  0  0  0
M  END
$$$$
default_name
  -OEChem-02102213163D

 29 29  0     1  0  0  0  0  0999 V2000
   -2.9561   -3.9186    1.3887 H   0  0  0  0  0  0  0  0  0  0  0  0
   -3.1191   -2.9346    0.9517 C   0  0  0  0  0  0  0  0  0  0  0  0
   -3.7811   -2.3546    1.5917 H   0  0  0  0  0  0  0  0  0  0  0  0
   -3.5591   -3.0406   -0.0383 H   0  0  0  0  0  0  0  0  0  0  0  0
   -1.7921   -2.2226    0.8327 C   0  0  0  0  0  0  0  0  0  0  0  0
   -0.7611   -2.7766    1.1927 O   0  0  0  0  0  0  0  0  0  0  0  0
   -1.8201   -0.9926    0.3247 N   0  0  0  0  0  0  0  0  0  0  0  0
   -2.7141   -0.5816    0.0927 H   0  0  0  0  0  0  0  0  0  0  0  0
   -0.6481   -0.1156    0.2017 C   0  0  1  0  0  0  0  0  0  0  0  0
    0.1042   -0.6345   -0.3958 H   0  0  0  0  0  0  0  0  0  0  0  0
   -1.0420    1.1781   -0.5372 C   0  0  0  0  0  0  0  0  0  0  0  0
   -0.8642    2.0402    0.1073 H   0  0  0  0  0  0  0  0  0  0  0  0
   -0.4211    1.2992   -1.4259 H   0  0  0  0  0  0  0  0  0  0  0  0
   -2.4980    1.2072   -0.9339 C   0  0  0  0  0  0  0  0  0  0  0  0
   -3.5846    1.1326   -0.0615 N   0  0  0  0  0  0  0  0  0  0  0  0
   -4.6805    1.2426   -0.8264 C   0  0  0  0  0  0  0  0  0  0  0  0
   -5.6955    1.2107   -0.4507 H   0  0  0  0  0  0  0  0  0  0  0  0
   -4.3387    1.4062   -2.1155 N   0  0  0  0  0  0  0  0  0  0  0  0
   -4.9855    1.5315   -2.8821 H   0  0  0  0  0  0  0  0  0  0  0  0
   -2.9644    1.3905   -2.2028 C   0  0  0  0  0  0  0  0  0  0  0  0
   -2.3567    1.5186   -3.0897 H   0  0  0  0  0  0  0  0  0  0  0  0
   -0.0283    0.1609    1.5831 C   0  0  0  0  0  0  0  0  0  0  0  0
    1.1923    0.1056    1.7329 O   0  0  0  0  0  0  0  0  0  0  0  0
   -0.8586    0.4659    2.5853 N   0  0  0  0  0  0  0  0  0  0  0  0
   -1.8521    0.3848    2.4000 H   0  0  0  0  0  0  0  0  0  0  0  0
   -0.4403    0.7694    3.9518 C   0  0  0  0  0  0  0  0  0  0  0  0
    0.5066    1.3154    3.9421 H   0  0  0  0  0  0  0  0  0  0  0  0
   -1.1988    1.3789    4.4452 H   0  0  0  0  0  0  0  0  0  0  0  0
   -0.3053   -0.1600    4.5075 H   0  0  0  0  0  0  0  0  0  0  0  0
  5  6  2  0  0  0  0
  5  7  1  0  0  0  0
  2  3  1  0  0  0  0
  2  4  1  0  0  0  0
  2  5  1  0  0  0  0
  1  2  1  0  0  0  0
 22 23  2  0  0  0  0
 22 24  1  0  0  0  0
 20 21  1  0  0  0  0
 18 19  1  0  0  0  0
 18 20  1  0  0  0  0
 16 17  1  0  0  0  0
 16 18  1  0  0  0  0
 15 16  2  0  0  0  0
 14 15  1  0  0  0  0
 14 20  2  0  0  0  0
 11 12  1  0  0  0  0
 11 13  1  0  0  0  0
 11 14  1  0  0  0  0
  9 10  1  0  0  0  0
  9 11  1  0  0  0  0
  9 22  1  0  0  0  0
  7  8  1  0  0  0  0
  7  9  1  0  0  0  0
 26 27  1  0  0  0  0
 26 28  1  0  0  0  0
 26 29  1  0  0  0  0
 24 25  1  0  0  0  0
 24 26  1  0  0  0  0
M  END
$$$$
default_name
  -OEChem-02102213163D

 29 29  0     1  0  0  0  0  0999 V2000
   -2.9561   -3.9186    1.3887 H   0  0  0  0  0  0  0  0  0  0  0  0
   -3.1191   -2.9346    0.9517 C   0  0  0  0  0  0  0  0  0  0  0  0
   -3.7811   -2.3546    1.5917 H   0  0  0  0  0  0  0  0  0  0  0  0
   -3.5591   -3.0406   -0.0383 H   0  0  0  0  0  0  0  0  0  0  0  0
   -1.7921   -2.2226    0.8327 C   0  0  0  0  0  0  0  0  0  0  0  0
   -0.7611   -2.7766    1.1927 O   0  0  0  0  0  0  0  0  0  0  0  0
   -1.8201   -0.9926    0.3247 N   0  0  0  0  0  0  0  0  0  0  0  0
   -2.7141   -0.5816    0.0927 H   0  0  0  0  0  0  0  0  0  0  0  0
   -0.6481   -0.1156    0.2017 C   0  0  1  0  0  0  0  0  0  0  0  0
    0.1042   -0.6345   -0.3958 H   0  0  0  0  0  0  0  0  0  0  0  0
   -1.0420    1.1781   -0.5372 C   0  0  0  0  0  0  0  0  0  0  0  0
   -0.8642    2.0402    0.1073 H   0  0  0  0  0  0  0  0  0  0  0  0
   -0.4211    1.2992   -1.4259 H   0  0  0  0  0  0  0  0  0  0  0  0
   -2.4980    1.2072   -0.9339 C   0  0  0  0  0  0  0  0  0  0  0  0
   -3.5752    1.4274   -0.0745 N   0  0  0  0  0  0  0  0  0  0  0  0
   -4.6715    1.4180   -0.8466 C   0  0  0  0  0  0  0  0  0  0  0  0
   -5.6811    1.5506   -0.4786 H   0  0  0  0  0  0  0  0  0  0  0  0
   -4.3370    1.2310   -2.1344 N   0  0  0  0  0  0  0  0  0  0  0  0
   -4.9843    1.2051   -2.9105 H   0  0  0  0  0  0  0  0  0  0  0  0
   -2.9682    1.0997   -2.2100 C   0  0  0  0  0  0  0  0  0  0  0  0
   -2.3654    0.9604   -3.0986 H   0  0  0  0  0  0  0  0  0  0  0  0
   -0.0283    0.1609    1.5831 C   0  0  0  0  0  0  0  0  0  0  0  0
    1.1923    0.1056    1.7329 O   0  0  0  0  0  0  0  0  0  0  0  0
   -0.8586    0.4659    2.5853 N   0  0  0  0  0  0  0  0  0  0  0  0
   -1.8521    0.3848    2.4000 H   0  0  0  0  0  0  0  0  0  0  0  0
   -0.4403    0.7694    3.9518 C   0  0  0  0  0  0  0  0  0  0  0  0
    0.5066    1.3154    3.9421 H   0  0  0  0  0  0  0  0  0  0  0  0
   -1.1988    1.3789    4.4452 H   0  0  0  0  0  0  0  0  0  0  0  0
   -0.3053   -0.1600    4.5075 H   0  0  0  0  0  0  0  0  0  0  0  0
  5  6  2  0  0  0  0
  5  7  1  0  0  0  0
  2  3  1  0  0  0  0
  2  4  1  0  0  0  0
  2  5  1  0  0  0  0
  1  2  1  0  0  0  0
 22 23  2  0  0  0  0
 22 24  1  0  0  0  0
 20 21  1  0  0  0  0
 18 19  1  0  0  0  0
 18 20  1  0  0  0  0
 16 17  1  0  0  0  0
 16 18  1  0  0  0  0
 15 16  2  0  0  0  0
 14 15  1  0  0  0  0
 14 20  2  0  0  0  0
 11 12  1  0  0  0  0
 11 13  1  0  0  0  0
 11 14  1  0  0  0  0
  9 10  1  0  0  0  0
  9 11  1  0  0  0  0
  9 22  1  0  0  0  0
  7  8  1  0  0  0  0
  7  9  1  0  0  0  0
 26 27  1  0  0  0  0
 26 28  1  0  0  0  0
 26 29  1  0  0  0  0
 24 25  1  0  0  0  0
 24 26  1  0  0  0  0
M  END
$$$$
default_name
  -OEChem-02102213163D

 29 29  0     1  0  0  0  0  0999 V2000
   -2.9561   -3.9186    1.3887 H   0  0  0  0  0  0  0  0  0  0  0  0
   -3.1191   -2.9346    0.9517 C   0  0  0  0  0  0  0  0  0  0  0  0
   -3.7811   -2.3546    1.5917 H   0  0  0  0  0  0  0  0  0  0  0  0
   -3.5591   -3.0406   -0.0383 H   0  0  0  0  0  0  0  0  0  0  0  0
   -1.7921   -2.2226    0.8327 C   0  0  0  0  0  0  0  0  0  0  0  0
   -0.7611   -2.7766    1.1927 O   0  0  0  0  0  0  0  0  0  0  0  0
   -1.8201   -0.9926    0.3247 N   0  0  0  0  0  0  0  0  0  0  0  0
   -2.7141   -0.5816    0.0927 H   0  0  0  0  0  0  0  0  0  0  0  0
   -0.6481   -0.1156    0.2017 C   0  0  1  0  0  0  0  0  0  0  0  0
    0.1042   -0.6345   -0.3958 H   0  0  0  0  0  0  0  0  0  0  0  0
   -1.0420    1.1781   -0.5372 C   0  0  0  0  0  0  0  0  0  0  0  0
   -0.8642    2.0402    0.1073 H   0  0  0  0  0  0  0  0  0  0  0  0
   -0.4211    1.2992   -1.4259 H   0  0  0  0  0  0  0  0  0  0  0  0
   -2.4980    1.2072   -0.9339 C   0  0  0  0  0  0  0  0  0  0  0  0
   -3.5461    1.7082   -0.1607 N   0  0  0  0  0  0  0  0  0  0  0  0
   -4.6510    1.5818   -0.9100 C   0  0  0  0  0  0  0  0  0  0  0  0
   -5.6442    1.8710   -0.5905 H   0  0  0  0  0  0  0  0  0  0  0  0
   -4.3474    1.0569   -2.1090 N   0  0  0  0  0  0  0  0  0  0  0  0
   -5.0055    0.8827   -2.8564 H   0  0  0  0  0  0  0  0  0  0  0  0
   -2.9917    0.8173   -2.1444 C   0  0  0  0  0  0  0  0  0  0  0  0
   -2.4119    0.4196   -2.9678 H   0  0  0  0  0  0  0  0  0  0  0  0
   -0.0283    0.1609    1.5831 C   0  0  0  0  0  0  0  0  0  0  0  0
    1.1923    0.1056    1.7329 O   0  0  0  0  0  0  0  0  0  0  0  0
   -0.8586    0.4659    2.5853 N   0  0  0  0  0  0  0  0  0  0  0  0
   -1.8521    0.3848    2.4000 H   0  0  0  0  0  0  0  0  0  0  0  0
   -0.4403    0.7694    3.9518 C   0  0  0  0  0  0  0  0  0  0  0  0
    0.5066    1.3154    3.9421 H   0  0  0  0  0  0  0  0  0  0  0  0
   -1.1988    1.3789    4.4452 H   0  0  0  0  0  0  0  0  0  0  0  0
   -0.3053   -0.1600    4.5075 H   0  0  0  0  0  0  0  0  0  0  0  0
  5  6  2  0  0  0  0
  5  7  1  0  0  0  0
  2  3  1  0  0  0  0
  2  4  1  0  0  0  0
  2  5  1  0  0  0  0
  1  2  1  0  0  0  0
 22 23  2  0  0  0  0
 22 24  1  0  0  0  0
 20 21  1  0  0  0  0
 18 19  1  0  0  0  0
 18 20  1  0  0  0  0
 16 17  1  0  0  0  0
 16 18  1  0  0  0  0
 15 16  2  0  0  0  0
 14 15  1  0  0  0  0
 14 20  2  0  0  0  0
 11 12  1  0  0  0  0
 11 13  1  0  0  0  0
 11 14  1  0  0  0  0
  9 10  1  0  0  0  0
  9 11  1  0  0  0  0
  9 22  1  0  0  0  0
  7  8  1  0  0  0  0
  7  9  1  0  0  0  0
 26 27  1  0  0  0  0
 26 28  1  0  0  0  0
 26 29  1  0  0  0  0
 24 25  1  0  0  0  0
 24 26  1  0  0  0  0
M  END
$$$$
default_name
  -OEChem-02102213163D

 29 29  0     1  0  0  0  0  0999 V2000
   -2.9561   -3.9186    1.3887 H   0  0  0  0  0  0  0  0  0  0  0  0
   -3.1191   -2.9346    0.9517 C   0  0  0  0  0  0  0  0  0  0  0  0
   -3.7811   -2.3546    1.5917 H   0  0  0  0  0  0  0  0  0  0  0  0
   -3.5591   -3.0406   -0.0383 H   0  0  0  0  0  0  0  0  0  0  0  0
   -1.7921   -2.2226    0.8327 C   0  0  0  0  0  0  0  0  0  0  0  0
   -0.7611   -2.7766    1.1927 O   0  0  0  0  0  0  0  0  0  0  0  0
   -1.8201   -0.9926    0.3247 N   0  0  0  0  0  0  0  0  0  0  0  0
   -2.7141   -0.5816    0.0927 H   0  0  0  0  0  0  0  0  0  0  0  0
   -0.6481   -0.1156    0.2017 C   0  0  1  0  0  0  0  0  0  0  0  0
    0.1042   -0.6345   -0.3958 H   0  0  0  0  0  0  0  0  0  0  0  0
   -1.0420    1.1781   -0.5372 C   0  0  0  0  0  0  0  0  0  0  0  0
   -0.8642    2.0402    0.1073 H   0  0  0  0  0  0  0  0  0  0  0  0
   -0.4211    1.2992   -1.4259 H   0  0  0  0  0  0  0  0  0  0  0  0
   -2.4980    1.2072   -0.9339 C   0  0  0  0  0  0  0  0  0  0  0  0
   -3.4993    1.9560   -0.3142 N   0  0  0  0  0  0  0  0  0  0  0  0
   -4.6203    1.7228   -1.0123 C   0  0  0  0  0  0  0  0  0  0  0  0
   -5.5874    2.1501   -0.7788 H   0  0  0  0  0  0  0  0  0  0  0  0
   -4.3692    0.8957   -2.0410 N   0  0  0  0  0  0  0  0  0  0  0  0
   -5.0476    0.5862   -2.7235 H   0  0  0  0  0  0  0  0  0  0  0  0
   -3.0333    0.5624   -2.0104 C   0  0  0  0  0  0  0  0  0  0  0  0
   -2.4928   -0.0670   -2.7062 H   0  0  0  0  0  0  0  0  0  0  0  0
   -0.0283    0.1609    1.5831 C   0  0  0  0  0  0  0  0  0  0  0  0
    1.1923    0.1056    1.7329 O   0  0  0  0  0  0  0  0  0  0  0  0
   -0.8586    0.4659    2.5853 N   0  0  0  0  0  0  0  0  0  0  0  0
   -1.8521    0.3848    2.4000 H   0  0  0  0  0  0  0  0  0  0  0  0
   -0.4403    0.7694    3.9518 C   0  0  0  0  0  0  0  0  0  0  0  0
    0.5066    1.3154    3.9421 H   0  0  0  0  0  0  0  0  0  0  0  0
   -1.1988    1.3789    4.4452 H   0  0  0  0  0  0  0  0  0  0  0  0
   -0.3053   -0.1600    4.5075 H   0  0  0  0  0  0  0  0  0  0  0  0
  5  6  2  0  0  0  0
  5  7  1  0  0  0  0
  2  3  1  0  0  0  0
  2  4  1  0  0  0  0
  2  5  1  0  0  0  0
  1  2  1  0  0  0  0
 22 23  2  0  0  0  0
 22 24  1  0  0  0  0
 20 21  1  0  0  0  0
 18 19  1  0  0  0  0
 18 20  1  0  0  0  0
 16 17  1  0  0  0  0
 16 18  1  0  0  0  0
 15 16  2  0  0  0  0
 14 15  1  0  0  0  0
 14 20  2  0  0  0  0
 11 12  1  0  0  0  0
 11 13  1  0  0  0  0
 11 14  1  0  0  0  0
  9 10  1  0  0  0  0
  9 11  1  0  0  0  0
  9 22  1  0  0  0  0
  7  8  1  0  0  0  0
  7  9  1  0  0  0  0
 26 27  1  0  0  0  0
 26 28  1  0  0  0  0
 26 29  1  0  0  0  0
 24 25  1  0  0  0  0
 24 26  1  0  0  0  0
M  END
$$$$
default_name
  -OEChem-02102213163D

 29 29  0     1  0  0  0  0  0999 V2000
   -2.9561   -3.9186    1.3887 H   0  0  0  0  0  0  0  0  0  0  0  0
   -3.1191   -2.9346    0.9517 C   0  0  0  0  0  0  0  0  0  0  0  0
   -3.7811   -2.3546    1.5917 H   0  0  0  0  0  0  0  0  0  0  0  0
   -3.5591   -3.0406   -0.0383 H   0  0  0  0  0  0  0  0  0  0  0  0
   -1.7921   -2.2226    0.8327 C   0  0  0  0  0  0  0  0  0  0  0  0
   -0.7611   -2.7766    1.1927 O   0  0  0  0  0  0  0  0  0  0  0  0
   -1.8201   -0.9926    0.3247 N   0  0  0  0  0  0  0  0  0  0  0  0
   -2.7141   -0.5816    0.0927 H   0  0  0  0  0  0  0  0  0  0  0  0
   -0.6481   -0.1156    0.2017 C   0  0  1  0  0  0  0  0  0  0  0  0
    0.1042   -0.6345   -0.3958 H   0  0  0  0  0  0  0  0  0  0  0  0
   -1.0420    1.1781   -0.5372 C   0  0  0  0  0  0  0  0  0  0  0  0
   -0.8642    2.0402    0.1073 H   0  0  0  0  0  0  0  0  0  0  0  0
   -0.4211    1.2992   -1.4259 H   0  0  0  0  0  0  0  0  0  0  0  0
   -2.4980    1.2072   -0.9339 C   0  0  0  0  0  0  0  0  0  0  0  0
   -3.4381    2.1539   -0.5247 N   0  0  0  0  0  0  0  0  0  0  0  0
   -4.5816    1.8314   -1.1464 C   0  0  0  0  0  0  0  0  0  0  0  0
   -5.5144    2.3687   -1.0306 H   0  0  0  0  0  0  0  0  0  0  0  0
   -4.4008    0.7586   -1.9349 N   0  0  0  0  0  0  0  0  0  0  0  0
   -5.1077    0.3359   -2.5209 H   0  0  0  0  0  0  0  0  0  0  0  0
   -3.0902    0.3525   -1.8171 C   0  0  0  0  0  0  0  0  0  0  0  0
   -2.6028   -0.4661   -2.3316 H   0  0  0  0  0  0  0  0  0  0  0  0
   -0.0283    0.1609    1.5831 C   0  0  0  0  0  0  0  0  0  0  0  0
    1.1923    0.1056    1.7329 O   0  0  0  0  0  0  0  0  0  0  0  0
   -0.8586    0.4659    2.5853 N   0  0  0  0  0  0  0  0  0  0  0  0
   -1.8521    0.3848    2.4000 H   0  0  0  0  0  0  0  0  0  0  0  0
   -0.4403    0.7694    3.9518 C   0  0  0  0  0  0  0  0  0  0  0  0
    0.5066    1.3154    3.9421 H   0  0  0  0  0  0  0  0  0  0  0  0
   -1.1988    1.3789    4.4452 H   0  0  0  0  0  0  0  0  0  0  0  0
   -0.3053   -0.1600    4.5075 H   0  0  0  0  0  0  0  0  0  0  0  0
  5  6  2  0  0  0  0
  5  7  1  0  0  0  0
  2  3  1  0  0  0  0
  2  4  1  0  0  0  0
  2  5  1  0  0  0  0
  1  2  1  0  0  0  0
 22 23  2  0  0  0  0
 22 24  1  0  0  0  0
 20 21  1  0  0  0  0
 18 19  1  0  0  0  0
 18 20  1  0  0  0  0
 16 17  1  0  0  0  0
 16 18  1  0  0  0  0
 15 16  2  0  0  0  0
 14 15  1  0  0  0  0
 14 20  2  0  0  0  0
 11 12  1  0  0  0  0
 11 13  1  0  0  0  0
 11 14  1  0  0  0  0
  9 10  1  0  0  0  0
  9 11  1  0  0  0  0
  9 22  1  0  0  0  0
  7  8  1  0  0  0  0
  7  9  1  0  0  0  0
 26 27  1  0  0  0  0
 26 28  1  0  0  0  0
 26 29  1  0  0  0  0
 24 25  1  0  0  0  0
 24 26  1  0  0  0  0
M  END
$$$$
default_name
  -OEChem-02102213163D

 29 29  0     1  0  0  0  0  0999 V2000
   -2.9561   -3.9186    1.3887 H   0  0  0  0  0  0  0  0  0  0  0  0
   -3.1191   -2.9346    0.9517 C   0  0  0  0  0  0  0  0  0  0  0  0
   -3.7811   -2.3546    1.5917 H   0  0  0  0  0  0  0  0  0  0  0  0
   -3.5591   -3.0406   -0.0383 H   0  0  0  0  0  0  0  0  0  0  0  0
   -1.7921   -2.2226    0.8327 C   0  0  0  0  0  0  0  0  0  0  0  0
   -0.7611   -2.7766    1.1927 O   0  0  0  0  0  0  0  0  0  0  0  0
   -1.8201   -0.9926    0.3247 N   0  0  0  0  0  0  0  0  0  0  0  0
   -2.7141   -0.5816    0.0927 H   0  0  0  0  0  0  0  0  0  0  0  0
   -0.6481   -0.1156    0.2017 C   0  0  1  0  0  0  0  0  0  0  0  0
    0.1042   -0.6345   -0.3958 H   0  0  0  0  0  0  0  0  0  0  0  0
   -1.0420    1.1781   -0.5372 C   0  0  0  0  0  0  0  0  0  0  0  0
   -0.8642    2.0402    0.1073 H   0  0  0  0  0  0  0  0  0  0  0  0
   -0.4211    1.2992   -1.4259 H   0  0  0  0  0  0  0  0  0  0  0  0
   -2.4980    1.2072   -0.9339 C   0  0  0  0  0  0  0  0  0  0  0  0
   -3.3665    2.2882   -0.7776 N   0  0  0  0  0  0  0  0  0  0  0  0
   -4.5375    1.9001   -1.3032 C   0  0  0  0  0  0  0  0  0  0  0  0
   -5.4303    2.5121   -1.3288 H   0  0  0  0  0  0  0  0  0  0  0  0
   -4.4402    0.6547   -1.7980 N   0  0  0  0  0  0  0  0  0  0  0  0
   -5.1819    0.1488   -2.2624 H   0  0  0  0  0  0  0  0  0  0  0  0
   -3.1584    0.2019   -1.5778 C   0  0  0  0  0  0  0  0  0  0  0  0
   -2.7344   -0.7507   -1.8696 H   0  0  0  0  0  0  0  0  0  0  0  0
   -0.0283    0.1609    1.5831 C   0  0  0  0  0  0  0  0  0  0  0  0
    1.1923    0.1056    1.7329 O   0  0  0  0  0  0  0  0  0  0  0  0
   -0.8586    0.4659    2.5853 N   0  0  0  0  0  0  0  0  0  0  0  0
   -1.8521    0.3848    2.4000 H   0  0  0  0  0  0  0  0  0  0  0  0
   -0.4403    0.7694    3.9518 C   0  0  0  0  0  0  0  0  0  0  0  0
    0.5066    1.3154    3.9421 H   0  0  0  0  0  0  0  0  0  0  0  0
   -1.1988    1.3789    4.4452 H   0  0  0  0  0  0  0  0  0  0  0  0
   -0.3053   -0.1600    4.5075 H   0  0  0  0  0  0  0  0  0  0  0  0
  5  6  2  0  0  0  0
  5  7  1  0  0  0  0
  2  3  1  0  0  0  0
  2  4  1  0  0  0  0
  2  5  1  0  0  0  0
  1  2  1  0  0  0  0
 22 23  2  0  0  0  0
 22 24  1  0  0  0  0
 20 21  1  0  0  0  0
 18 19  1  0  0  0  0
 18 20  1  0  0  0  0
 16 17  1  0  0  0  0
 16 18  1  0  0  0  0
 15 16  2  0  0  0  0
 14 15  1  0  0  0  0
 14 20  2  0  0  0  0
 11 12  1  0  0  0  0
 11 13  1  0  0  0  0
 11 14  1  0  0  0  0
  9 10  1  0  0  0  0
  9 11  1  0  0  0  0
  9 22  1  0  0  0  0
  7  8  1  0  0  0  0
  7  9  1  0  0  0  0
 26 27  1  0  0  0  0
 26 28  1  0  0  0  0
 26 29  1  0  0  0  0
 24 25  1  0  0  0  0
 24 26  1  0  0  0  0
M  END
$$$$
default_name
  -OEChem-02102213163D

 29 29  0     1  0  0  0  0  0999 V2000
   -2.9561   -3.9186    1.3887 H   0  0  0  0  0  0  0  0  0  0  0  0
   -3.1191   -2.9346    0.9517 C   0  0  0  0  0  0  0  0  0  0  0  0
   -3.7811   -2.3546    1.5917 H   0  0  0  0  0  0  0  0  0  0  0  0
   -3.5591   -3.0406   -0.0383 H   0  0  0  0  0  0  0  0  0  0  0  0
   -1.7921   -2.2226    0.8327 C   0  0  0  0  0  0  0  0  0  0  0  0
   -0.7611   -2.7766    1.1927 O   0  0  0  0  0  0  0  0  0  0  0  0
   -1.8201   -0.9926    0.3247 N   0  0  0  0  0  0  0  0  0  0  0  0
   -2.7141   -0.5816    0.0927 H   0  0  0  0  0  0  0  0  0  0  0  0
   -0.6481   -0.1156    0.2017 C   0  0  1  0  0  0  0  0  0  0  0  0
    0.1042   -0.6345   -0.3958 H   0  0  0  0  0  0  0  0  0  0  0  0
   -1.0420    1.1781   -0.5372 C   0  0  0  0  0  0  0  0  0  0  0  0
   -0.8642    2.0402    0.1073 H   0  0  0  0  0  0  0  0  0  0  0  0
   -0.4211    1.2992   -1.4259 H   0  0  0  0  0  0  0  0  0  0  0  0
   -2.4980    1.2072   -0.9339 C   0  0  0  0  0  0  0  0  0  0  0  0
   -3.2894    2.3500   -1.0558 N   0  0  0  0  0  0  0  0  0  0  0  0
   -4.4911    1.9244   -1.4721 C   0  0  0  0  0  0  0  0  0  0  0  0
   -5.3409    2.5704   -1.6530 H   0  0  0  0  0  0  0  0  0  0  0  0
   -4.4846    0.5913   -1.6397 N   0  0  0  0  0  0  0  0  0  0  0  0
   -5.2650    0.0376   -1.9657 H   0  0  0  0  0  0  0  0  0  0  0  0
   -3.2333    0.1208   -1.3086 C   0  0  0  0  0  0  0  0  0  0  0  0
   -2.8785   -0.9012   -1.3516 H   0  0  0  0  0  0  0  0  0  0  0  0
   -0.0283    0.1609    1.5831 C   0  0  0  0  0  0  0  0  0  0  0  0
    1.1923    0.1056    1.7329 O   0  0  0  0  0  0  0  0  0  0  0  0
   -0.8586    0.4659    2.5853 N   0  0  0  0  0  0  0  0  0  0  0  0
   -1.8521    0.3848    2.4000 H   0  0  0  0  0  0  0  0  0  0  0  0
   -0.4403    0.7694    3.9518 C   0  0  0  0  0  0  0  0  0  0  0  0
    0.5066    1.3154    3.9421 H   0  0  0  0  0  0  0  0  0  0  0  0
   -1.1988    1.3789    4.4452 H   0  0  0  0  0  0  0  0  0  0  0  0
   -0.3053   -0.1600    4.5075 H   0  0  0  0  0  0  0  0  0  0  0  0
  5  6  2  0  0  0  0
  5  7  1  0  0  0  0
  2  3  1  0  0  0  0
  2  4  1  0  0  0  0
  2  5  1  0  0  0  0
  1  2  1  0  0  0  0
 22 23  2  0  0  0  0
 22 24  1  0  0  0  0
 20 21  1  0  0  0  0
 18 19  1  0  0  0  0
 18 20  1  0  0  0  0
 16 17  1  0  0  0  0
 16 18  1  0  0  0  0
 15 16  2  0  0  0  0
 14 15  1  0  0  0  0
 14 20  2  0  0  0  0
 11 12  1  0  0  0  0
 11 13  1  0  0  0  0
 11 14  1  0  0  0  0
  9 10  1  0  0  0  0
  9 11  1  0  0  0  0
  9 22  1  0  0  0  0
  7  8  1  0  0  0  0
  7  9  1  0  0  0  0
 26 27  1  0  0  0  0
 26 28  1  0  0  0  0
 26 29  1  0  0  0  0
 24 25  1  0  0  0  0
 24 26  1  0  0  0  0
M  END
$$$$
default_name
  -OEChem-02102213163D

 29 29  0     1  0  0  0  0  0999 V2000
   -2.9561   -3.9186    1.3887 H   0  0  0  0  0  0  0  0  0  0  0  0
   -3.1191   -2.9346    0.9517 C   0  0  0  0  0  0  0  0  0  0  0  0
   -3.7811   -2.3546    1.5917 H   0  0  0  0  0  0  0  0  0  0  0  0
   -3.5591   -3.0406   -0.0383 H   0  0  0  0  0  0  0  0  0  0  0  0
   -1.7921   -2.2226    0.8327 C   0  0  0  0  0  0  0  0  0  0  0  0
   -0.7611   -2.7766    1.1927 O   0  0  0  0  0  0  0  0  0  0  0  0
   -1.8201   -0.9926    0.3247 N   0  0  0  0  0  0  0  0  0  0  0  0
   -2.7141   -0.5816    0.0927 H   0  0  0  0  0  0  0  0  0  0  0  0
   -0.6481   -0.1156    0.2017 C   0  0  1  0  0  0  0  0  0  0  0  0
    0.1042   -0.6345   -0.3958 H   0  0  0  0  0  0  0  0  0  0  0  0
   -1.0420    1.1781   -0.5372 C   0  0  0  0  0  0  0  0  0  0  0  0
   -0.8642    2.0402    0.1073 H   0  0  0  0  0  0  0  0  0  0  0  0
   -0.4211    1.2992   -1.4259 H   0  0  0  0  0  0  0  0  0  0  0  0
   -2.4980    1.2072   -0.9339 C   0  0  0  0  0  0  0  0  0  0  0  0
   -3.2122    2.3350   -1.3404 N   0  0  0  0  0  0  0  0  0  0  0  0
   -4.4453    1.9025   -1.6415 C   0  0  0  0  0  0  0  0  0  0  0  0
   -5.2521    2.5397   -1.9812 H   0  0  0  0  0  0  0  0  0  0  0  0
   -4.5310    0.5725   -1.4707 N   0  0  0  0  0  0  0  0  0  0  0  0
   -5.3513    0.0100   -1.6508 H   0  0  0  0  0  0  0  0  0  0  0  0
   -3.3099    0.1148   -1.0280 C   0  0  0  0  0  0  0  0  0  0  0  0
   -3.0253   -0.9075   -0.8130 H   0  0  0  0  0  0  0  0  0  0  0  0
   -0.0283    0.1609    1.5831 C   0  0  0  0  0  0  0  0  0  0  0  0
    1.1923    0.1056    1.7329 O   0  0  0  0  0  0  0  0  0  0  0  0
   -0.8586    0.4659    2.5853 N   0  0  0  0  0  0  0  0  0  0  0  0
   -1.8521    0.3848    2.4000 H   0  0  0  0  0  0  0  0  0  0  0  0
   -0.4403    0.7694    3.9518 C   0  0  0  0  0  0  0  0  0  0  0  0
    0.5066    1.3154    3.9421 H   0  0  0  0  0  0  0  0  0  0  0  0
   -1.1988    1.3789    4.4452 H   0  0  0  0  0  0  0  0  0  0  0  0
   -0.3053   -0.1600    4.5075 H   0  0  0  0  0  0  0  0  0  0  0  0
  5  6  2  0  0  0  0
  5  7  1  0  0  0  0
  2  3  1  0  0  0  0
  2  4  1  0  0  0  0
  2  5  1  0  0  0  0
  1  2  1  0  0  0  0
 22 23  2  0  0  0  0
 22 24  1  0  0  0  0
 20 21  1  0  0  0  0
 18 19  1  0  0  0  0
 18 20  1  0  0  0  0
 16 17  1  0  0  0  0
 16 18  1  0  0  0  0
 15 16  2  0  0  0  0
 14 15  1  0  0  0  0
 14 20  2  0  0  0  0
 11 12  1  0  0  0  0
 11 13  1  0  0  0  0
 11 14  1  0  0  0  0
  9 10  1  0  0  0  0
  9 11  1  0  0  0  0
  9 22  1  0  0  0  0
  7  8  1  0  0  0  0
  7  9  1  0  0  0  0
 26 27  1  0  0  0  0
 26 28  1  0  0  0  0
 26 29  1  0  0  0  0
 24 25  1  0  0  0  0
 24 26  1  0  0  0  0
M  END
$$$$
default_name
  -OEChem-02102213163D

 29 29  0     1  0  0  0  0  0999 V2000
   -2.9561   -3.9186    1.3887 H   0  0  0  0  0  0  0  0  0  0  0  0
   -3.1191   -2.9346    0.9517 C   0  0  0  0  0  0  0  0  0  0  0  0
   -3.7811   -2.3546    1.5917 H   0  0  0  0  0  0  0  0  0  0  0  0
   -3.5591   -3.0406   -0.0383 H   0  0  0  0  0  0  0  0  0  0  0  0
   -1.7921   -2.2226    0.8327 C   0  0  0  0  0  0  0  0  0  0  0  0
   -0.7611   -2.7766    1.1927 O   0  0  0  0  0  0  0  0  0  0  0  0
   -1.8201   -0.9926    0.3247 N   0  0  0  0  0  0  0  0  0  0  0  0
   -2.7141   -0.5816    0.0927 H   0  0  0  0  0  0  0  0  0  0  0  0
   -0.6481   -0.1156    0.2017 C   0  0  1  0  0  0  0  0  0  0  0  0
    0.1042   -0.6345   -0.3958 H   0  0  0  0  0  0  0  0  0  0  0  0
   -1.0420    1.1781   -0.5372 C   0  0  0  0  0  0  0  0  0  0  0  0
   -0.6265    2.0420   -0.0163 H   0  0  0  0  0  0  0  0  0  0  0  0
   -0.6235    1.1698   -1.5446 H   0  0  0  0  0  0  0  0  0  0  0  0
   -2.5361    1.3774   -0.6155 C   0  0  0  0  0  0  0  0  0  0  0  0
   -3.1867    2.4528   -1.2217 N   0  0  0  0  0  0  0  0  0  0  0  0
   -4.4992    2.2049   -1.1029 C   0  0  0  0  0  0  0  0  0  0  0  0
   -5.2816    2.8601   -1.4646 H   0  0  0  0  0  0  0  0  0  0  0  0
   -4.7007    1.0299   -0.4831 N   0  0  0  0  0  0  0  0  0  0  0  0
   -5.6024    0.6141   -0.2935 H   0  0  0  0  0  0  0  0  0  0  0  0
   -3.4726    0.4905   -0.1711 C   0  0  0  0  0  0  0  0  0  0  0  0
   -3.2701   -0.4576    0.3110 H   0  0  0  0  0  0  0  0  0  0  0  0
   -0.0283    0.1609    1.5831 C   0  0  0  0  0  0  0  0  0  0  0  0
    1.1923    0.1056    1.7329 O   0  0  0  0  0  0  0  0  0  0  0  0
   -0.8586    0.4659    2.5853 N   0  0  0  0  0  0  0  0  0  0  0  0
   -1.8521    0.3848    2.4000 H   0  0  0  0  0  0  0  0  0  0  0  0
   -0.4403    0.7694    3.9518 C   0  0  0  0  0  0  0  0  0  0  0  0
    0.5066    1.3154    3.9421 H   0  0  0  0  0  0  0  0  0  0  0  0
   -1.1988    1.3789    4.4452 H   0  0  0  0  0  0  0  0  0  0  0  0
   -0.3053   -0.1600    4.5075 H   0  0  0  0  0  0  0  0  0  0  0  0
  5  6  2  0  0  0  0
  5  7  1  0  0  0  0
  2  3  1  0  0  0  0
  2  4  1  0  0  0  0
  2  5  1  0  0  0  0
  1  2  1  0  0  0  0
 22 23  2  0  0  0  0
 22 24  1  0  0  0  0
 20 21  1  0  0  0  0
 18 19  1  0  0  0  0
 18 20  1  0  0  0  0
 16 17  1  0  0  0  0
 16 18  1  0  0  0  0
 15 16  2  0  0  0  0
 14 15  1  0  0  0  0
 14 20  2  0  0  0  0
 11 12  1  0  0  0  0
 11 13  1  0  0  0  0
 11 14  1  0  0  0  0
  9 10  1  0  0  0  0
  9 11  1  0  0  0  0
  9 22  1  0  0  0  0
  7  8  1  0  0  0  0
  7  9  1  0  0  0  0
 26 27  1  0  0  0  0
 26 28  1  0  0  0  0
 26 29  1  0  0  0  0
 24 25  1  0  0  0  0
 24 26  1  0  0  0  0
M  END
$$$$
default_name
  -OEChem-02102213163D

 29 29  0     1  0  0  0  0  0999 V2000
   -2.9561   -3.9186    1.3887 H   0  0  0  0  0  0  0  0  0  0  0  0
   -3.1191   -2.9346    0.9517 C   0  0  0  0  0  0  0  0  0  0  0  0
   -3.7811   -2.3546    1.5917 H   0  0  0  0  0  0  0  0  0  0  0  0
   -3.5591   -3.0406   -0.0383 H   0  0  0  0  0  0  0  0  0  0  0  0
   -1.7921   -2.2226    0.8327 C   0  0  0  0  0  0  0  0  0  0  0  0
   -0.7611   -2.7766    1.1927 O   0  0  0  0  0  0  0  0  0  0  0  0
   -1.8201   -0.9926    0.3247 N   0  0  0  0  0  0  0  0  0  0  0  0
   -2.7141   -0.5816    0.0927 H   0  0  0  0  0  0  0  0  0  0  0  0
   -0.6481   -0.1156    0.2017 C   0  0  1  0  0  0  0  0  0  0  0  0
    0.1042   -0.6345   -0.3958 H   0  0  0  0  0  0  0  0  0  0  0  0
   -1.0420    1.1781   -0.5372 C   0  0  0  0  0  0  0  0  0  0  0  0
   -0.6265    2.0420   -0.0163 H   0  0  0  0  0  0  0  0  0  0  0  0
   -0.6235    1.1698   -1.5446 H   0  0  0  0  0  0  0  0  0  0  0  0
   -2.5361    1.3774   -0.6155 C   0  0  0  0  0  0  0  0  0  0  0  0
   -3.1984    2.2733   -1.4558 N   0  0  0  0  0  0  0  0  0  0  0  0
   -4.5080    2.0875   -1.2349 C   0  0  0  0  0  0  0  0  0  0  0  0
   -5.2970    2.6422   -1.7269 H   0  0  0  0  0  0  0  0  0  0  0  0
   -4.6976    1.1141   -0.3283 N   0  0  0  0  0  0  0  0  0  0  0  0
   -5.5956    0.7769   -0.0093 H   0  0  0  0  0  0  0  0  0  0  0  0
   -3.4640    0.6507    0.0716 C   0  0  0  0  0  0  0  0  0  0  0  0
   -3.2528   -0.1459    0.7739 H   0  0  0  0  0  0  0  0  0  0  0  0
   -0.0283    0.1609    1.5831 C   0  0  0  0  0  0  0  0  0  0  0  0
    1.1923    0.1056    1.7329 O   0  0  0  0  0  0  0  0  0  0  0  0
   -0.8586    0.4659    2.5853 N   0  0  0  0  0  0  0  0  0  0  0  0
   -1.8521    0.3848    2.4000 H   0  0  0  0  0  0  0  0  0  0  0  0
   -0.4403    0.7694    3.9518 C   0  0  0  0  0  0  0  0  0  0  0  0
    0.5066    1.3154    3.9421 H   0  0  0  0  0  0  0  0  0  0  0  0
   -1.1988    1.3789    4.4452 H   0  0  0  0  0  0  0  0  0  0  0  0
   -0.3053   -0.1600    4.5075 H   0  0  0  0  0  0  0  0  0  0  0  0
  5  6  2  0  0  0  0
  5  7  1  0  0  0  0
  2  3  1  0  0  0  0
  2  4  1  0  0  0  0
  2  5  1  0  0  0  0
  1  2  1  0  0  0  0
 22 23  2  0  0  0  0
 22 24  1  0  0  0  0
 20 21  1  0  0  0  0
 18 19  1  0  0  0  0
 18 20  1  0  0  0  0
 16 17  1  0  0  0  0
 16 18  1  0  0  0  0
 15 16  2  0  0  0  0
 14 15  1  0  0  0  0
 14 20  2  0  0  0  0
 11 12  1  0  0  0  0
 11 13  1  0  0  0  0
 11 14  1  0  0  0  0
  9 10  1  0  0  0  0
  9 11  1  0  0  0  0
  9 22  1  0  0  0  0
  7  8  1  0  0  0  0
  7  9  1  0  0  0  0
 26 27  1  0  0  0  0
 26 28  1  0  0  0  0
 26 29  1  0  0  0  0
 24 25  1  0  0  0  0
 24 26  1  0  0  0  0
M  END
$$$$
default_name
  -OEChem-02102213163D

 29 29  0     1  0  0  0  0  0999 V2000
   -2.9561   -3.9186    1.3887 H   0  0  0  0  0  0  0  0  0  0  0  0
   -3.1191   -2.9346    0.9517 C   0  0  0  0  0  0  0  0  0  0  0  0
   -3.7811   -2.3546    1.5917 H   0  0  0  0  0  0  0  0  0  0  0  0
   -3.5591   -3.0406   -0.0383 H   0  0  0  0  0  0  0  0  0  0  0  0
   -1.7921   -2.2226    0.8327 C   0  0  0  0  0  0  0  0  0  0  0  0
   -0.7611   -2.7766    1.1927 O   0  0  0  0  0  0  0  0  0  0  0  0
   -1.8201   -0.9926    0.3247 N   0  0  0  0  0  0  0  0  0  0  0  0
   -2.7141   -0.5816    0.0927 H   0  0  0  0  0  0  0  0  0  0  0  0
   -0.6481   -0.1156    0.2017 C   0  0  1  0  0  0  0  0  0  0  0  0
    0.1042   -0.6345   -0.3958 H   0  0  0  0  0  0  0  0  0  0  0  0
   -1.0420    1.1781   -0.5372 C   0  0  0  0  0  0  0  0  0  0  0  0
   -0.6265    2.0420   -0.0163 H   0  0  0  0  0  0  0  0  0  0  0  0
   -0.6235    1.1698   -1.5446 H   0  0  0  0  0  0  0  0  0  0  0  0
   -2.5361    1.3774   -0.6155 C   0  0  0  0  0  0  0  0  0  0  0  0
   -3.2201    2.0400   -1.6355 N   0  0  0  0  0  0  0  0  0  0  0  0
   -4.5225    1.9404   -1.3320 C   0  0  0  0  0  0  0  0  0  0  0  0
   -5.3236    2.3647   -1.9240 H   0  0  0  0  0  0  0  0  0  0  0  0
   -4.6881    1.2351   -0.2005 N   0  0  0  0  0  0  0  0  0  0  0  0
   -5.5771    1.0069    0.2233 H   0  0  0  0  0  0  0  0  0  0  0  0
   -3.4452    0.8675    0.2647 C   0  0  0  0  0  0  0  0  0  0  0  0
   -3.2160    0.2736    1.1406 H   0  0  0  0  0  0  0  0  0  0  0  0
   -0.0283    0.1609    1.5831 C   0  0  0  0  0  0  0  0  0  0  0  0
    1.1923    0.1056    1.7329 O   0  0  0  0  0  0  0  0  0  0  0  0
   -0.8586    0.4659    2.5853 N   0  0  0  0  0  0  0  0  0  0  0  0
   -1.8521    0.3848    2.4000 H   0  0  0  0  0  0  0  0  0  0  0  0
   -0.4403    0.7694    3.9518 C   0  0  0  0  0  0  0  0  0  0  0  0
    0.5066    1.3154    3.9421 H   0  0  0  0  0  0  0  0  0  0  0  0
   -1.1988    1.3789    4.4452 H   0  0  0  0  0  0  0  0  0  0  0  0
   -0.3053   -0.1600    4.5075 H   0  0  0  0  0  0  0  0  0  0  0  0
  5  6  2  0  0  0  0
  5  7  1  0  0  0  0
  2  3  1  0  0  0  0
  2  4  1  0  0  0  0
  2  5  1  0  0  0  0
  1  2  1  0  0  0  0
 22 23  2  0  0  0  0
 22 24  1  0  0  0  0
 20 21  1  0  0  0  0
 18 19  1  0  0  0  0
 18 20  1  0  0  0  0
 16 17  1  0  0  0  0
 16 18  1  0  0  0  0
 15 16  2  0  0  0  0
 14 15  1  0  0  0  0
 14 20  2  0  0  0  0
 11 12  1  0  0  0  0
 11 13  1  0  0  0  0
 11 14  1  0  0  0  0
  9 10  1  0  0  0  0
  9 11  1  0  0  0  0
  9 22  1  0  0  0  0
  7  8  1  0  0  0  0
  7  9  1  0  0  0  0
 26 27  1  0  0  0  0
 26 28  1  0  0  0  0
 26 29  1  0  0  0  0
 24 25  1  0  0  0  0
 24 26  1  0  0  0  0
M  END
$$$$
default_name
  -OEChem-02102213163D

 29 29  0     1  0  0  0  0  0999 V2000
   -2.9561   -3.9186    1.3887 H   0  0  0  0  0  0  0  0  0  0  0  0
   -3.1191   -2.9346    0.9517 C   0  0  0  0  0  0  0  0  0  0  0  0
   -3.7811   -2.3546    1.5917 H   0  0  0  0  0  0  0  0  0  0  0  0
   -3.5591   -3.0406   -0.0383 H   0  0  0  0  0  0  0  0  0  0  0  0
   -1.7921   -2.2226    0.8327 C   0  0  0  0  0  0  0  0  0  0  0  0
   -0.7611   -2.7766    1.1927 O   0  0  0  0  0  0  0  0  0  0  0  0
   -1.8201   -0.9926    0.3247 N   0  0  0  0  0  0  0  0  0  0  0  0
   -2.7141   -0.5816    0.0927 H   0  0  0  0  0  0  0  0  0  0  0  0
   -0.6481   -0.1156    0.2017 C   0  0  1  0  0  0  0  0  0  0  0  0
    0.1042   -0.6345   -0.3958 H   0  0  0  0  0  0  0  0  0  0  0  0
   -1.0420    1.1781   -0.5372 C   0  0  0  0  0  0  0  0  0  0  0  0
   -0.6265    2.0420   -0.0163 H   0  0  0  0  0  0  0  0  0  0  0  0
   -0.6235    1.1698   -1.5446 H   0  0  0  0  0  0  0  0  0  0  0  0
   -2.5361    1.3774   -0.6155 C   0  0  0  0  0  0  0  0  0  0  0  0
   -3.2503    1.7690   -1.7486 N   0  0  0  0  0  0  0  0  0  0  0  0
   -4.5418    1.7737   -1.3876 C   0  0  0  0  0  0  0  0  0  0  0  0
   -5.3599    2.0466   -2.0423 H   0  0  0  0  0  0  0  0  0  0  0  0
   -4.6730    1.3846   -0.1083 N   0  0  0  0  0  0  0  0  0  0  0  0
   -5.5482    1.2883    0.3884 H   0  0  0  0  0  0  0  0  0  0  0  0
   -3.4175    1.1261    0.3950 C   0  0  0  0  0  0  0  0  0  0  0  0
   -3.1624    0.7722    1.3860 H   0  0  0  0  0  0  0  0  0  0  0  0
   -0.0283    0.1609    1.5831 C   0  0  0  0  0  0  0  0  0  0  0  0
    1.1923    0.1056    1.7329 O   0  0  0  0  0  0  0  0  0  0  0  0
   -0.8586    0.4659    2.5853 N   0  0  0  0  0  0  0  0  0  0  0  0
   -1.8521    0.3848    2.4000 H   0  0  0  0  0  0  0  0  0  0  0  0
   -0.4403    0.7694    3.9518 C   0  0  0  0  0  0  0  0  0  0  0  0
    0.5066    1.3154    3.9421 H   0  0  0  0  0  0  0  0  0  0  0  0
   -1.1988    1.3789    4.4452 H   0  0  0  0  0  0  0  0  0  0  0  0
   -0.3053   -0.1600    4.5075 H   0  0  0  0  0  0  0  0  0  0  0  0
  5  6  2  0  0  0  0
  5  7  1  0  0  0  0
  2  3  1  0  0  0  0
  2  4  1  0  0  0  0
  2  5  1  0  0  0  0
  1  2  1  0  0  0  0
 22 23  2  0  0  0  0
 22 24  1  0  0  0  0
 20 21  1  0  0  0  0
 18 19  1  0  0  0  0
 18 20  1  0  0  0  0
 16 17  1  0  0  0  0
 16 18  1  0  0  0  0
 15 16  2  0  0  0  0
 14 15  1  0  0  0  0
 14 20  2  0  0  0  0
 11 12  1  0  0  0  0
 11 13  1  0  0  0  0
 11 14  1  0  0  0  0
  9 10  1  0  0  0  0
  9 11  1  0  0  0  0
  9 22  1  0  0  0  0
  7  8  1  0  0  0  0
  7  9  1  0  0  0  0
 26 27  1  0  0  0  0
 26 28  1  0  0  0  0
 26 29  1  0  0  0  0
 24 25  1  0  0  0  0
 24 26  1  0  0  0  0
M  END
$$$$
default_name
  -OEChem-02102213163D

 29 29  0     1  0  0  0  0  0999 V2000
   -2.9561   -3.9186    1.3887 H   0  0  0  0  0  0  0  0  0  0  0  0
   -3.1191   -2.9346    0.9517 C   0  0  0  0  0  0  0  0  0  0  0  0
   -3.7811   -2.3546    1.5917 H   0  0  0  0  0  0  0  0  0  0  0  0
   -3.5591   -3.0406   -0.0383 H   0  0  0  0  0  0  0  0  0  0  0  0
   -1.7921   -2.2226    0.8327 C   0  0  0  0  0  0  0  0  0  0  0  0
   -0.7611   -2.7766    1.1927 O   0  0  0  0  0  0  0  0  0  0  0  0
   -1.8201   -0.9926    0.3247 N   0  0  0  0  0  0  0  0  0  0  0  0
   -2.7141   -0.5816    0.0927 H   0  0  0  0  0  0  0  0  0  0  0  0
   -0.6481   -0.1156    0.2017 C   0  0  1  0  0  0  0  0  0  0  0  0
    0.1042   -0.6345   -0.3958 H   0  0  0  0  0  0  0  0  0  0  0  0
   -1.0420    1.1781   -0.5372 C   0  0  0  0  0  0  0  0  0  0  0  0
   -0.6265    2.0420   -0.0163 H   0  0  0  0  0  0  0  0  0  0  0  0
   -0.6235    1.1698   -1.5446 H   0  0  0  0  0  0  0  0  0  0  0  0
   -2.5361    1.3774   -0.6155 C   0  0  0  0  0  0  0  0  0  0  0  0
   -3.2870    1.4786   -1.7873 N   0  0  0  0  0  0  0  0  0  0  0  0
   -4.5647    1.5986   -1.3980 C   0  0  0  0  0  0  0  0  0  0  0  0
   -5.4032    1.7094   -2.0739 H   0  0  0  0  0  0  0  0  0  0  0  0
   -4.6533    1.5524   -0.0581 N   0  0  0  0  0  0  0  0  0  0  0  0
   -5.5108    1.6021    0.4748 H   0  0  0  0  0  0  0  0  0  0  0  0
   -3.3828    1.4089    0.4537 C   0  0  0  0  0  0  0  0  0  0  0  0
   -3.0955    1.3159    1.4935 H   0  0  0  0  0  0  0  0  0  0  0  0
   -0.0283    0.1609    1.5831 C   0  0  0  0  0  0  0  0  0  0  0  0
    1.1923    0.1056    1.7329 O   0  0  0  0  0  0  0  0  0  0  0  0
   -0.8586    0.4659    2.5853 N   0  0  0  0  0  0  0  0  0  0  0  0
   -1.8521    0.3848    2.4000 H   0  0  0  0  0  0  0  0  0  0  0  0
   -0.4403    0.7694    3.9518 C   0  0  0  0  0  0  0  0  0  0  0  0
    0.5066    1.3154    3.9421 H   0  0  0  0  0  0  0  0  0  0  0  0
   -1.1988    1.3789    4.4452 H   0  0  0  0  0  0  0  0  0  0  0  0
   -0.3053   -0.1600    4.5075 H   0  0  0  0  0  0  0  0  0  0  0  0
  5  6  2  0  0  0  0
  5  7  1  0  0  0  0
  2  3  1  0  0  0  0
  2  4  1  0  0  0  0
  2  5  1  0  0  0  0
  1  2  1  0  0  0  0
 22 23  2  0  0  0  0
 22 24  1  0  0  0  0
 20 21  1  0  0  0  0
 18 19  1  0  0  0  0
 18 20  1  0  0  0  0
 16 17  1  0  0  0  0
 16 18  1  0  0  0  0
 15 16  2  0  0  0  0
 14 15  1  0  0  0  0
 14 20  2  0  0  0  0
 11 12  1  0  0  0  0
 11 13  1  0  0  0  0
 11 14  1  0  0  0  0
  9 10  1  0  0  0  0
  9 11  1  0  0  0  0
  9 22  1  0  0  0  0
  7  8  1  0  0  0  0
  7  9  1  0  0  0  0
 26 27  1  0  0  0  0
 26 28  1  0  0  0  0
 26 29  1  0  0  0  0
 24 25  1  0  0  0  0
 24 26  1  0  0  0  0
M  END
$$$$
default_name
  -OEChem-02102213163D

 29 29  0     1  0  0  0  0  0999 V2000
   -2.9561   -3.9186    1.3887 H   0  0  0  0  0  0  0  0  0  0  0  0
   -3.1191   -2.9346    0.9517 C   0  0  0  0  0  0  0  0  0  0  0  0
   -3.7811   -2.3546    1.5917 H   0  0  0  0  0  0  0  0  0  0  0  0
   -3.5591   -3.0406   -0.0383 H   0  0  0  0  0  0  0  0  0  0  0  0
   -1.7921   -2.2226    0.8327 C   0  0  0  0  0  0  0  0  0  0  0  0
   -0.7611   -2.7766    1.1927 O   0  0  0  0  0  0  0  0  0  0  0  0
   -1.8201   -0.9926    0.3247 N   0  0  0  0  0  0  0  0  0  0  0  0
   -2.7141   -0.5816    0.0927 H   0  0  0  0  0  0  0  0  0  0  0  0
   -0.6481   -0.1156    0.2017 C   0  0  1  0  0  0  0  0  0  0  0  0
    0.1042   -0.6345   -0.3958 H   0  0  0  0  0  0  0  0  0  0  0  0
   -1.0420    1.1781   -0.5372 C   0  0  0  0  0  0  0  0  0  0  0  0
   -0.6265    2.0420   -0.0163 H   0  0  0  0  0  0  0  0  0  0  0  0
   -0.6235    1.1698   -1.5446 H   0  0  0  0  0  0  0  0  0  0  0  0
   -2.5361    1.3774   -0.6155 C   0  0  0  0  0  0  0  0  0  0  0  0
   -3.3277    1.1887   -1.7491 N   0  0  0  0  0  0  0  0  0  0  0  0
   -4.5894    1.4272   -1.3623 C   0  0  0  0  0  0  0  0  0  0  0  0
   -5.4506    1.3763   -2.0165 H   0  0  0  0  0  0  0  0  0  0  0  0
   -4.6302    1.7271   -0.0532 N   0  0  0  0  0  0  0  0  0  0  0  0
   -5.4676    1.9269    0.4766 H   0  0  0  0  0  0  0  0  0  0  0  0
   -3.3436    1.6967    0.4368 C   0  0  0  0  0  0  0  0  0  0  0  0
   -3.0199    1.8678    1.4557 H   0  0  0  0  0  0  0  0  0  0  0  0
   -0.0283    0.1609    1.5831 C   0  0  0  0  0  0  0  0  0  0  0  0
    1.1923    0.1056    1.7329 O   0  0  0  0  0  0  0  0  0  0  0  0
   -0.8586    0.4659    2.5853 N   0  0  0  0  0  0  0  0  0  0  0  0
   -1.8521    0.3848    2.4000 H   0  0  0  0  0  0  0  0  0  0  0  0
   -0.4403    0.7694    3.9518 C   0  0  0  0  0  0  0  0  0  0  0  0
    0.5066    1.3154    3.9421 H   0  0  0  0  0  0  0  0  0  0  0  0
   -1.1988    1.3789    4.4452 H   0  0  0  0  0  0  0  0  0  0  0  0
   -0.3053   -0.1600    4.5075 H   0  0  0  0  0  0  0  0  0  0  0  0
  5  6  2  0  0  0  0
  5  7  1  0  0  0  0
  2  3  1  0  0  0  0
  2  4  1  0  0  0  0
  2  5  1  0  0  0  0
  1  2  1  0  0  0  0
 22 23  2  0  0  0  0
 22 24  1  0  0  0  0
 20 21  1  0  0  0  0
 18 19  1  0  0  0  0
 18 20  1  0  0  0  0
 16 17  1  0  0  0  0
 16 18  1  0  0  0  0
 15 16  2  0  0  0  0
 14 15  1  0  0  0  0
 14 20  2  0  0  0  0
 11 12  1  0  0  0  0
 11 13  1  0  0  0  0
 11 14  1  0  0  0  0
  9 10  1  0  0  0  0
  9 11  1  0  0  0  0
  9 22  1  0  0  0  0
  7  8  1  0  0  0  0
  7  9  1  0  0  0  0
 26 27  1  0  0  0  0
 26 28  1  0  0  0  0
 26 29  1  0  0  0  0
 24 25  1  0  0  0  0
 24 26  1  0  0  0  0
M  END
$$$$
default_name
  -OEChem-02102213163D

 29 29  0     1  0  0  0  0  0999 V2000
   -2.9561   -3.9186    1.3887 H   0  0  0  0  0  0  0  0  0  0  0  0
   -3.1191   -2.9346    0.9517 C   0  0  0  0  0  0  0  0  0  0  0  0
   -3.7811   -2.3546    1.5917 H   0  0  0  0  0  0  0  0  0  0  0  0
   -3.5591   -3.0406   -0.0383 H   0  0  0  0  0  0  0  0  0  0  0  0
   -1.7921   -2.2226    0.8327 C   0  0  0  0  0  0  0  0  0  0  0  0
   -0.7611   -2.7766    1.1927 O   0  0  0  0  0  0  0  0  0  0  0  0
   -1.8201   -0.9926    0.3247 N   0  0  0  0  0  0  0  0  0  0  0  0
   -2.7141   -0.5816    0.0927 H   0  0  0  0  0  0  0  0  0  0  0  0
   -0.6481   -0.1156    0.2017 C   0  0  1  0  0  0  0  0  0  0  0  0
    0.1042   -0.6345   -0.3958 H   0  0  0  0  0  0  0  0  0  0  0  0
   -1.0420    1.1781   -0.5372 C   0  0  0  0  0  0  0  0  0  0  0  0
   -0.6265    2.0420   -0.0163 H   0  0  0  0  0  0  0  0  0  0  0  0
   -0.6235    1.1698   -1.5446 H   0  0  0  0  0  0  0  0  0  0  0  0
   -2.5361    1.3774   -0.6155 C   0  0  0  0  0  0  0  0  0  0  0  0
   -3.3696    0.9190   -1.6365 N   0  0  0  0  0  0  0  0  0  0  0  0
   -4.6144    1.2711   -1.2832 C   0  0  0  0  0  0  0  0  0  0  0  0
   -5.4990    1.0698   -1.8741 H   0  0  0  0  0  0  0  0  0  0  0  0
   -4.6055    1.8967   -0.0941 N   0  0  0  0  0  0  0  0  0  0  0  0
   -5.4214    2.2404    0.3936 H   0  0  0  0  0  0  0  0  0  0  0  0
   -3.3023    1.9698    0.3453 C   0  0  0  0  0  0  0  0  0  0  0  0
   -2.9407    2.3902    1.2753 H   0  0  0  0  0  0  0  0  0  0  0  0
   -0.0283    0.1609    1.5831 C   0  0  0  0  0  0  0  0  0  0  0  0
    1.1923    0.1056    1.7329 O   0  0  0  0  0  0  0  0  0  0  0  0
   -0.8586    0.4659    2.5853 N   0  0  0  0  0  0  0  0  0  0  0  0
   -1.8521    0.3848    2.4000 H   0  0  0  0  0  0  0  0  0  0  0  0
   -0.4403    0.7694    3.9518 C   0  0  0  0  0  0  0  0  0  0  0  0
    0.5066    1.3154    3.9421 H   0  0  0  0  0  0  0  0  0  0  0  0
   -1.1988    1.3789    4.4452 H   0  0  0  0  0  0  0  0  0  0  0  0
   -0.3053   -0.1600    4.5075 H   0  0  0  0  0  0  0  0  0  0  0  0
  5  6  2  0  0  0  0
  5  7  1  0  0  0  0
  2  3  1  0  0  0  0
  2  4  1  0  0  0  0
  2  5  1  0  0  0  0
  1  2  1  0  0  0  0
 22 23  2  0  0  0  0
 22 24  1  0  0  0  0
 20 21  1  0  0  0  0
 18 19  1  0  0  0  0
 18 20  1  0  0  0  0
 16 17  1  0  0  0  0
 16 18  1  0  0  0  0
 15 16  2  0  0  0  0
 14 15  1  0  0  0  0
 14 20  2  0  0  0  0
 11 12  1  0  0  0  0
 11 13  1  0  0  0  0
 11 14  1  0  0  0  0
  9 10  1  0  0  0  0
  9 11  1  0  0  0  0
  9 22  1  0  0  0  0
  7  8  1  0  0  0  0
  7  9  1  0  0  0  0
 26 27  1  0  0  0  0
 26 28  1  0  0  0  0
 26 29  1  0  0  0  0
 24 25  1  0  0  0  0
 24 26  1  0  0  0  0
M  END
$$$$
default_name
  -OEChem-02102213163D

 29 29  0     1  0  0  0  0  0999 V2000
   -2.9561   -3.9186    1.3887 H   0  0  0  0  0  0  0  0  0  0  0  0
   -3.1191   -2.9346    0.9517 C   0  0  0  0  0  0  0  0  0  0  0  0
   -3.7811   -2.3546    1.5917 H   0  0  0  0  0  0  0  0  0  0  0  0
   -3.5591   -3.0406   -0.0383 H   0  0  0  0  0  0  0  0  0  0  0  0
   -1.7921   -2.2226    0.8327 C   0  0  0  0  0  0  0  0  0  0  0  0
   -0.7611   -2.7766    1.1927 O   0  0  0  0  0  0  0  0  0  0  0  0
   -1.8201   -0.9926    0.3247 N   0  0  0  0  0  0  0  0  0  0  0  0
   -2.7141   -0.5816    0.0927 H   0  0  0  0  0  0  0  0  0  0  0  0
   -0.6481   -0.1156    0.2017 C   0  0  1  0  0  0  0  0  0  0  0  0
    0.1042   -0.6345   -0.3958 H   0  0  0  0  0  0  0  0  0  0  0  0
   -1.0420    1.1781   -0.5372 C   0  0  0  0  0  0  0  0  0  0  0  0
   -0.6265    2.0420   -0.0163 H   0  0  0  0  0  0  0  0  0  0  0  0
   -0.6235    1.1698   -1.5446 H   0  0  0  0  0  0  0  0  0  0  0  0
   -2.5361    1.3774   -0.6155 C   0  0  0  0  0  0  0  0  0  0  0  0
   -3.4098    0.6879   -1.4573 N   0  0  0  0  0  0  0  0  0  0  0  0
   -4.6379    1.1409   -1.1658 C   0  0  0  0  0  0  0  0  0  0  0  0
   -5.5449    0.8109   -1.6564 H   0  0  0  0  0  0  0  0  0  0  0  0
   -4.5807    2.0498   -0.1779 N   0  0  0  0  0  0  0  0  0  0  0  0
   -5.3755    2.5214    0.2316 H   0  0  0  0  0  0  0  0  0  0  0  0
   -3.2620    2.2096    0.1856 C   0  0  0  0  0  0  0  0  0  0  0  0
   -2.8635    2.8475    0.9644 H   0  0  0  0  0  0  0  0  0  0  0  0
   -0.0283    0.1609    1.5831 C   0  0  0  0  0  0  0  0  0  0  0  0
    1.1923    0.1056    1.7329 O   0  0  0  0  0  0  0  0  0  0  0  0
   -0.8586    0.4659    2.5853 N   0  0  0  0  0  0  0  0  0  0  0  0
   -1.8521    0.3848    2.4000 H   0  0  0  0  0  0  0  0  0  0  0  0
   -0.4403    0.7694    3.9518 C   0  0  0  0  0  0  0  0  0  0  0  0
    0.5066    1.3154    3.9421 H   0  0  0  0  0  0  0  0  0  0  0  0
   -1.1988    1.3789    4.4452 H   0  0  0  0  0  0  0  0  0  0  0  0
   -0.3053   -0.1600    4.5075 H   0  0  0  0  0  0  0  0  0  0  0  0
  5  6  2  0  0  0  0
  5  7  1  0  0  0  0
  2  3  1  0  0  0  0
  2  4  1  0  0  0  0
  2  5  1  0  0  0  0
  1  2  1  0  0  0  0
 22 23  2  0  0  0  0
 22 24  1  0  0  0  0
 20 21  1  0  0  0  0
 18 19  1  0  0  0  0
 18 20  1  0  0  0  0
 16 17  1  0  0  0  0
 16 18  1  0  0  0  0
 15 16  2  0  0  0  0
 14 15  1  0  0  0  0
 14 20  2  0  0  0  0
 11 12  1  0  0  0  0
 11 13  1  0  0  0  0
 11 14  1  0  0  0  0
  9 10  1  0  0  0  0
  9 11  1  0  0  0  0
  9 22  1  0  0  0  0
  7  8  1  0  0  0  0
  7  9  1  0  0  0  0
 26 27  1  0  0  0  0
 26 28  1  0  0  0  0
 26 29  1  0  0  0  0
 24 25  1  0  0  0  0
 24 26  1  0  0  0  0
M  END
$$$$
default_name
  -OEChem-02102213163D

 29 29  0     1  0  0  0  0  0999 V2000
   -2.9561   -3.9186    1.3887 H   0  0  0  0  0  0  0  0  0  0  0  0
   -3.1191   -2.9346    0.9517 C   0  0  0  0  0  0  0  0  0  0  0  0
   -3.7811   -2.3546    1.5917 H   0  0  0  0  0  0  0  0  0  0  0  0
   -3.5591   -3.0406   -0.0383 H   0  0  0  0  0  0  0  0  0  0  0  0
   -1.7921   -2.2226    0.8327 C   0  0  0  0  0  0  0  0  0  0  0  0
   -0.7611   -2.7766    1.1927 O   0  0  0  0  0  0  0  0  0  0  0  0
   -1.8201   -0.9926    0.3247 N   0  0  0  0  0  0  0  0  0  0  0  0
   -2.7141   -0.5816    0.0927 H   0  0  0  0  0  0  0  0  0  0  0  0
   -0.6481   -0.1156    0.2017 C   0  0  1  0  0  0  0  0  0  0  0  0
    0.1042   -0.6345   -0.3958 H   0  0  0  0  0  0  0  0  0  0  0  0
   -1.0420    1.1781   -0.5372 C   0  0  0  0  0  0  0  0  0  0  0  0
   -0.6265    2.0420   -0.0163 H   0  0  0  0  0  0  0  0  0  0  0  0
   -0.6235    1.1698   -1.5446 H   0  0  0  0  0  0  0  0  0  0  0  0
   -2.5361    1.3774   -0.6155 C   0  0  0  0  0  0  0  0  0  0  0  0
   -3.4456    0.5111   -1.2235 N   0  0  0  0  0  0  0  0  0  0  0  0
   -4.6583    1.0455   -1.0183 C   0  0  0  0  0  0  0  0  0  0  0  0
   -5.5853    0.6173   -1.3782 H   0  0  0  0  0  0  0  0  0  0  0  0
   -4.5575    2.1758   -0.2989 N   0  0  0  0  0  0  0  0  0  0  0  0
   -5.3328    2.7507    0.0015 H   0  0  0  0  0  0  0  0  0  0  0  0
   -3.2252    2.3998   -0.0315 C   0  0  0  0  0  0  0  0  0  0  0  0
   -2.7933    3.2086    0.5443 H   0  0  0  0  0  0  0  0  0  0  0  0
   -0.0283    0.1609    1.5831 C   0  0  0  0  0  0  0  0  0  0  0  0
    1.1923    0.1056    1.7329 O   0  0  0  0  0  0  0  0  0  0  0  0
   -0.8586    0.4659    2.5853 N   0  0  0  0  0  0  0  0  0  0  0  0
   -1.8521    0.3848    2.4000 H   0  0  0  0  0  0  0  0  0  0  0  0
   -0.4403    0.7694    3.9518 C   0  0  0  0  0  0  0  0  0  0  0  0
    0.5066    1.3154    3.9421 H   0  0  0  0  0  0  0  0  0  0  0  0
   -1.1988    1.3789    4.4452 H   0  0  0  0  0  0  0  0  0  0  0  0
   -0.3053   -0.1600    4.5075 H   0  0  0  0  0  0  0  0  0  0  0  0
  5  6  2  0  0  0  0
  5  7  1  0  0  0  0
  2  3  1  0  0  0  0
  2  4  1  0  0  0  0
  2  5  1  0  0  0  0
  1  2  1  0  0  0  0
 22 23  2  0  0  0  0
 22 24  1  0  0  0  0
 20 21  1  0  0  0  0
 18 19  1  0  0  0  0
 18 20  1  0  0  0  0
 16 17  1  0  0  0  0
 16 18  1  0  0  0  0
 15 16  2  0  0  0  0
 14 15  1  0  0  0  0
 14 20  2  0  0  0  0
 11 12  1  0  0  0  0
 11 13  1  0  0  0  0
 11 14  1  0  0  0  0
  9 10  1  0  0  0  0
  9 11  1  0  0  0  0
  9 22  1  0  0  0  0
  7  8  1  0  0  0  0
  7  9  1  0  0  0  0
 26 27  1  0  0  0  0
 26 28  1  0  0  0  0
 26 29  1  0  0  0  0
 24 25  1  0  0  0  0
 24 26  1  0  0  0  0
M  END
$$$$
default_name
  -OEChem-02102213163D

 29 29  0     1  0  0  0  0  0999 V2000
   -2.9561   -3.9186    1.3887 H   0  0  0  0  0  0  0  0  0  0  0  0
   -3.1191   -2.9346    0.9517 C   0  0  0  0  0  0  0  0  0  0  0  0
   -3.7811   -2.3546    1.5917 H   0  0  0  0  0  0  0  0  0  0  0  0
   -3.5591   -3.0406   -0.0383 H   0  0  0  0  0  0  0  0  0  0  0  0
   -1.7921   -2.2226    0.8327 C   0  0  0  0  0  0  0  0  0  0  0  0
   -0.7611   -2.7766    1.1927 O   0  0  0  0  0  0  0  0  0  0  0  0
   -1.8201   -0.9926    0.3247 N   0  0  0  0  0  0  0  0  0  0  0  0
   -2.7141   -0.5816    0.0927 H   0  0  0  0  0  0  0  0  0  0  0  0
   -0.6481   -0.1156    0.2017 C   0  0  1  0  0  0  0  0  0  0  0  0
    0.1042   -0.6345   -0.3958 H   0  0  0  0  0  0  0  0  0  0  0  0
   -1.0420    1.1781   -0.5372 C   0  0  0  0  0  0  0  0  0  0  0  0
   -0.6265    2.0420   -0.0163 H   0  0  0  0  0  0  0  0  0  0  0  0
   -0.6235    1.1698   -1.5446 H   0  0  0  0  0  0  0  0  0  0  0  0
   -2.5361    1.3774   -0.6155 C   0  0  0  0  0  0  0  0  0  0  0  0
   -3.4746    0.4008   -0.9512 N   0  0  0  0  0  0  0  0  0  0  0  0
   -4.6743    0.9915   -0.8507 C   0  0  0  0  0  0  0  0  0  0  0  0
   -5.6175    0.5020   -1.0584 H   0  0  0  0  0  0  0  0  0  0  0  0
   -4.5376    2.2663   -0.4488 N   0  0  0  0  0  0  0  0  0  0  0  0
   -5.2964    2.9127   -0.2810 H   0  0  0  0  0  0  0  0  0  0  0  0
   -3.1946    2.5274   -0.2912 C   0  0  0  0  0  0  0  0  0  0  0  0
   -2.7350    3.4488    0.0437 H   0  0  0  0  0  0  0  0  0  0  0  0
   -0.0283    0.1609    1.5831 C   0  0  0  0  0  0  0  0  0  0  0  0
    1.1923    0.1056    1.7329 O   0  0  0  0  0  0  0  0  0  0  0  0
   -0.8586    0.4659    2.5853 N   0  0  0  0  0  0  0  0  0  0  0  0
   -1.8521    0.3848    2.4000 H   0  0  0  0  0  0  0  0  0  0  0  0
   -0.4403    0.7694    3.9518 C   0  0  0  0  0  0  0  0  0  0  0  0
    0.5066    1.3154    3.9421 H   0  0  0  0  0  0  0  0  0  0  0  0
   -1.1988    1.3789    4.4452 H   0  0  0  0  0  0  0  0  0  0  0  0
   -0.3053   -0.1600    4.5075 H   0  0  0  0  0  0  0  0  0  0  0  0
  5  6  2  0  0  0  0
  5  7  1  0  0  0  0
  2  3  1  0  0  0  0
  2  4  1  0  0  0  0
  2  5  1  0  0  0  0
  1  2  1  0  0  0  0
 22 23  2  0  0  0  0
 22 24  1  0  0  0  0
 20 21  1  0  0  0  0
 18 19  1  0  0  0  0
 18 20  1  0  0  0  0
 16 17  1  0  0  0  0
 16 18  1  0  0  0  0
 15 16  2  0  0  0  0
 14 15  1  0  0  0  0
 14 20  2  0  0  0  0
 11 12  1  0  0  0  0
 11 13  1  0  0  0  0
 11 14  1  0  0  0  0
  9 10  1  0  0  0  0
  9 11  1  0  0  0  0
  9 22  1  0  0  0  0
  7  8  1  0  0  0  0
  7  9  1  0  0  0  0
 26 27  1  0  0  0  0
 26 28  1  0  0  0  0
 26 29  1  0  0  0  0
 24 25  1  0  0  0  0
 24 26  1  0  0  0  0
M  END
$$$$
default_name
  -OEChem-02102213163D

 29 29  0     1  0  0  0  0  0999 V2000
   -2.9561   -3.9186    1.3887 H   0  0  0  0  0  0  0  0  0  0  0  0
   -3.1191   -2.9346    0.9517 C   0  0  0  0  0  0  0  0  0  0  0  0
   -3.7811   -2.3546    1.5917 H   0  0  0  0  0  0  0  0  0  0  0  0
   -3.5591   -3.0406   -0.0383 H   0  0  0  0  0  0  0  0  0  0  0  0
   -1.7921   -2.2226    0.8327 C   0  0  0  0  0  0  0  0  0  0  0  0
   -0.7611   -2.7766    1.1927 O   0  0  0  0  0  0  0  0  0  0  0  0
   -1.8201   -0.9926    0.3247 N   0  0  0  0  0  0  0  0  0  0  0  0
   -2.7141   -0.5816    0.0927 H   0  0  0  0  0  0  0  0  0  0  0  0
   -0.6481   -0.1156    0.2017 C   0  0  1  0  0  0  0  0  0  0  0  0
    0.1042   -0.6345   -0.3958 H   0  0  0  0  0  0  0  0  0  0  0  0
   -1.0420    1.1781   -0.5372 C   0  0  0  0  0  0  0  0  0  0  0  0
   -0.6265    2.0420   -0.0163 H   0  0  0  0  0  0  0  0  0  0  0  0
   -0.6235    1.1698   -1.5446 H   0  0  0  0  0  0  0  0  0  0  0  0
   -2.5361    1.3774   -0.6155 C   0  0  0  0  0  0  0  0  0  0  0  0
   -3.4948    0.3643   -0.6589 N   0  0  0  0  0  0  0  0  0  0  0  0
   -4.6848    0.9824   -0.6744 C   0  0  0  0  0  0  0  0  0  0  0  0
   -5.6391    0.4730   -0.7190 H   0  0  0  0  0  0  0  0  0  0  0  0
   -4.5222    2.3150   -0.6175 N   0  0  0  0  0  0  0  0  0  0  0  0
   -5.2688    2.9962   -0.5965 H   0  0  0  0  0  0  0  0  0  0  0  0
   -3.1722    2.5836   -0.5757 C   0  0  0  0  0  0  0  0  0  0  0  0
   -2.6926    3.5517   -0.5034 H   0  0  0  0  0  0  0  0  0  0  0  0
   -0.0283    0.1609    1.5831 C   0  0  0  0  0  0  0  0  0  0  0  0
    1.1923    0.1056    1.7329 O   0  0  0  0  0  0  0  0  0  0  0  0
   -0.8586    0.4659    2.5853 N   0  0  0  0  0  0  0  0  0  0  0  0
   -1.8521    0.3848    2.4000 H   0  0  0  0  0  0  0  0  0  0  0  0
   -0.4403    0.7694    3.9518 C   0  0  0  0  0  0  0  0  0  0  0  0
    0.5066    1.3154    3.9421 H   0  0  0  0  0  0  0  0  0  0  0  0
   -1.1988    1.3789    4.4452 H   0  0  0  0  0  0  0  0  0  0  0  0
   -0.3053   -0.1600    4.5075 H   0  0  0  0  0  0  0  0  0  0  0  0
  5  6  2  0  0  0  0
  5  7  1  0  0  0  0
  2  3  1  0  0  0  0
  2  4  1  0  0  0  0
  2  5  1  0  0  0  0
  1  2  1  0  0  0  0
 22 23  2  0  0  0  0
 22 24  1  0  0  0  0
 20 21  1  0  0  0  0
 18 19  1  0  0  0  0
 18 20  1  0  0  0  0
 16 17  1  0  0  0  0
 16 18  1  0  0  0  0
 15 16  2  0  0  0  0
 14 15  1  0  0  0  0
 14 20  2  0  0  0  0
 11 12  1  0  0  0  0
 11 13  1  0  0  0  0
 11 14  1  0  0  0  0
  9 10  1  0  0  0  0
  9 11  1  0  0  0  0
  9 22  1  0  0  0  0
  7  8  1  0  0  0  0
  7  9  1  0  0  0  0
 26 27  1  0  0  0  0
 26 28  1  0  0  0  0
 26 29  1  0  0  0  0
 24 25  1  0  0  0  0
 24 26  1  0  0  0  0
M  END
$$$$
default_name
  -OEChem-02102213163D

 29 29  0     1  0  0  0  0  0999 V2000
   -2.9561   -3.9186    1.3887 H   0  0  0  0  0  0  0  0  0  0  0  0
   -3.1191   -2.9346    0.9517 C   0  0  0  0  0  0  0  0  0  0  0  0
   -3.7811   -2.3546    1.5917 H   0  0  0  0  0  0  0  0  0  0  0  0
   -3.5591   -3.0406   -0.0383 H   0  0  0  0  0  0  0  0  0  0  0  0
   -1.7921   -2.2226    0.8327 C   0  0  0  0  0  0  0  0  0  0  0  0
   -0.7611   -2.7766    1.1927 O   0  0  0  0  0  0  0  0  0  0  0  0
   -1.8201   -0.9926    0.3247 N   0  0  0  0  0  0  0  0  0  0  0  0
   -2.7141   -0.5816    0.0927 H   0  0  0  0  0  0  0  0  0  0  0  0
   -0.6481   -0.1156    0.2017 C   0  0  1  0  0  0  0  0  0  0  0  0
    0.1042   -0.6345   -0.3958 H   0  0  0  0  0  0  0  0  0  0  0  0
   -1.0420    1.1781   -0.5372 C   0  0  0  0  0  0  0  0  0  0  0  0
   -0.6265    2.0420   -0.0163 H   0  0  0  0  0  0  0  0  0  0  0  0
   -0.6235    1.1698   -1.5446 H   0  0  0  0  0  0  0  0  0  0  0  0
   -2.5361    1.3774   -0.6155 C   0  0  0  0  0  0  0  0  0  0  0  0
   -3.5048    0.4043   -0.3666 N   0  0  0  0  0  0  0  0  0  0  0  0
   -4.6889    1.0190   -0.5014 C   0  0  0  0  0  0  0  0  0  0  0  0
   -5.6488    0.5323   -0.3829 H   0  0  0  0  0  0  0  0  0  0  0  0
   -4.5125    2.3186   -0.7935 N   0  0  0  0  0  0  0  0  0  0  0  0
   -5.2517    2.9958   -0.9237 H   0  0  0  0  0  0  0  0  0  0  0  0
   -3.1595    2.5648   -0.8658 C   0  0  0  0  0  0  0  0  0  0  0  0
   -2.6690    3.5104   -1.0597 H   0  0  0  0  0  0  0  0  0  0  0  0
   -0.0283    0.1609    1.5831 C   0  0  0  0  0  0  0  0  0  0  0  0
    1.1923    0.1056    1.7329 O   0  0  0  0  0  0  0  0  0  0  0  0
   -0.8586    0.4659    2.5853 N   0  0  0  0  0  0  0  0  0  0  0  0
   -1.8521    0.3848    2.4000 H   0  0  0  0  0  0  0  0  0  0  0  0
   -0.4403    0.7694    3.9518 C   0  0  0  0  0  0  0  0  0  0  0  0
    0.5066    1.3154    3.9421 H   0  0  0  0  0  0  0  0  0  0  0  0
   -1.1988    1.3789    4.4452 H   0  0  0  0  0  0  0  0  0  0  0  0
   -0.3053   -0.1600    4.5075 H   0  0  0  0  0  0  0  0  0  0  0  0
  5  6  2  0  0  0  0
  5  7  1  0  0  0  0
  2  3  1  0  0  0  0
  2  4  1  0  0  0  0
  2  5  1  0  0  0  0
  1  2  1  0  0  0  0
 22 23  2  0  0  0  0
 22 24  1  0  0  0  0
 20 21  1  0  0  0  0
 18 19  1  0  0  0  0
 18 20  1  0  0  0  0
 16 17  1  0  0  0  0
 16 18  1  0  0  0  0
 15 16  2  0  0  0  0
 14 15  1  0  0  0  0
 14 20  2  0  0  0  0
 11 12  1  0  0  0  0
 11 13  1  0  0  0  0
 11 14  1  0  0  0  0
  9 10  1  0  0  0  0
  9 11  1  0  0  0  0
  9 22  1  0  0  0  0
  7  8  1  0  0  0  0
  7  9  1  0  0  0  0
 26 27  1  0  0  0  0
 26 28  1  0  0  0  0
 26 29  1  0  0  0  0
 24 25  1  0  0  0  0
 24 26  1  0  0  0  0
M  END
$$$$
default_name
  -OEChem-02102213163D

 29 29  0     1  0  0  0  0  0999 V2000
   -2.9561   -3.9186    1.3887 H   0  0  0  0  0  0  0  0  0  0  0  0
   -3.1191   -2.9346    0.9517 C   0  0  0  0  0  0  0  0  0  0  0  0
   -3.7811   -2.3546    1.5917 H   0  0  0  0  0  0  0  0  0  0  0  0
   -3.5591   -3.0406   -0.0383 H   0  0  0  0  0  0  0  0  0  0  0  0
   -1.7921   -2.2226    0.8327 C   0  0  0  0  0  0  0  0  0  0  0  0
   -0.7611   -2.7766    1.1927 O   0  0  0  0  0  0  0  0  0  0  0  0
   -1.8201   -0.9926    0.3247 N   0  0  0  0  0  0  0  0  0  0  0  0
   -2.7141   -0.5816    0.0927 H   0  0  0  0  0  0  0  0  0  0  0  0
   -0.6481   -0.1156    0.2017 C   0  0  1  0  0  0  0  0  0  0  0  0
    0.1042   -0.6345   -0.3958 H   0  0  0  0  0  0  0  0  0  0  0  0
   -1.0420    1.1781   -0.5372 C   0  0  0  0  0  0  0  0  0  0  0  0
   -0.6265    2.0420   -0.0163 H   0  0  0  0  0  0  0  0  0  0  0  0
   -0.6235    1.1698   -1.5446 H   0  0  0  0  0  0  0  0  0  0  0  0
   -2.5361    1.3774   -0.6155 C   0  0  0  0  0  0  0  0  0  0  0  0
   -3.5039    0.5179   -0.0941 N   0  0  0  0  0  0  0  0  0  0  0  0
   -4.6866    1.0987   -0.3436 C   0  0  0  0  0  0  0  0  0  0  0  0
   -5.6459    0.6758   -0.0732 H   0  0  0  0  0  0  0  0  0  0  0  0
   -4.5091    2.2768   -0.9647 N   0  0  0  0  0  0  0  0  0  0  0  0
   -5.2464    2.9112   -1.2401 H   0  0  0  0  0  0  0  0  0  0  0  0
   -3.1574    2.4722   -1.1415 C   0  0  0  0  0  0  0  0  0  0  0  0
   -2.6657    3.3277   -1.5873 H   0  0  0  0  0  0  0  0  0  0  0  0
   -0.0283    0.1609    1.5831 C   0  0  0  0  0  0  0  0  0  0  0  0
    1.1923    0.1056    1.7329 O   0  0  0  0  0  0  0  0  0  0  0  0
   -0.8586    0.4659    2.5853 N   0  0  0  0  0  0  0  0  0  0  0  0
   -1.8521    0.3848    2.4000 H   0  0  0  0  0  0  0  0  0  0  0  0
   -0.4403    0.7694    3.9518 C   0  0  0  0  0  0  0  0  0  0  0  0
    0.5066    1.3154    3.9421 H   0  0  0  0  0  0  0  0  0  0  0  0
   -1.1988    1.3789    4.4452 H   0  0  0  0  0  0  0  0  0  0  0  0
   -0.3053   -0.1600    4.5075 H   0  0  0  0  0  0  0  0  0  0  0  0
  5  6  2  0  0  0  0
  5  7  1  0  0  0  0
  2  3  1  0  0  0  0
  2  4  1  0  0  0  0
  2  5  1  0  0  0  0
  1  2  1  0  0  0  0
 22 23  2  0  0  0  0
 22 24  1  0  0  0  0
 20 21  1  0  0  0  0
 18 19  1  0  0  0  0
 18 20  1  0  0  0  0
 16 17  1  0  0  0  0
 16 18  1  0  0  0  0
 15 16  2  0  0  0  0
 14 15  1  0  0  0  0
 14 20  2  0  0  0  0
 11 12  1  0  0  0  0
 11 13  1  0  0  0  0
 11 14  1  0  0  0  0
  9 10  1  0  0  0  0
  9 11  1  0  0  0  0
  9 22  1  0  0  0  0
  7  8  1  0  0  0  0
  7  9  1  0  0  0  0
 26 27  1  0  0  0  0
 26 28  1  0  0  0  0
 26 29  1  0  0  0  0
 24 25  1  0  0  0  0
 24 26  1  0  0  0  0
M  END
$$$$
default_name
  -OEChem-02102213163D

 29 29  0     1  0  0  0  0  0999 V2000
   -2.9561   -3.9186    1.3887 H   0  0  0  0  0  0  0  0  0  0  0  0
   -3.1191   -2.9346    0.9517 C   0  0  0  0  0  0  0  0  0  0  0  0
   -3.7811   -2.3546    1.5917 H   0  0  0  0  0  0  0  0  0  0  0  0
   -3.5591   -3.0406   -0.0383 H   0  0  0  0  0  0  0  0  0  0  0  0
   -1.7921   -2.2226    0.8327 C   0  0  0  0  0  0  0  0  0  0  0  0
   -0.7611   -2.7766    1.1927 O   0  0  0  0  0  0  0  0  0  0  0  0
   -1.8201   -0.9926    0.3247 N   0  0  0  0  0  0  0  0  0  0  0  0
   -2.7141   -0.5816    0.0927 H   0  0  0  0  0  0  0  0  0  0  0  0
   -0.6481   -0.1156    0.2017 C   0  0  1  0  0  0  0  0  0  0  0  0
    0.1042   -0.6345   -0.3958 H   0  0  0  0  0  0  0  0  0  0  0  0
   -1.0420    1.1781   -0.5372 C   0  0  0  0  0  0  0  0  0  0  0  0
   -0.6265    2.0420   -0.0163 H   0  0  0  0  0  0  0  0  0  0  0  0
   -0.6235    1.1698   -1.5446 H   0  0  0  0  0  0  0  0  0  0  0  0
   -2.5361    1.3774   -0.6155 C   0  0  0  0  0  0  0  0  0  0  0  0
   -3.4922    0.6974    0.1400 N   0  0  0  0  0  0  0  0  0  0  0  0
   -4.6778    1.2161   -0.2116 C   0  0  0  0  0  0  0  0  0  0  0  0
   -5.6306    0.8937    0.1891 H   0  0  0  0  0  0  0  0  0  0  0  0
   -4.5123    2.1926   -1.1195 N   0  0  0  0  0  0  0  0  0  0  0  0
   -5.2532    2.7485   -1.5244 H   0  0  0  0  0  0  0  0  0  0  0  0
   -3.1661    2.3120   -1.3842 C   0  0  0  0  0  0  0  0  0  0  0  0
   -2.6831    3.0159   -2.0502 H   0  0  0  0  0  0  0  0  0  0  0  0
   -0.0283    0.1609    1.5831 C   0  0  0  0  0  0  0  0  0  0  0  0
    1.1923    0.1056    1.7329 O   0  0  0  0  0  0  0  0  0  0  0  0
   -0.8586    0.4659    2.5853 N   0  0  0  0  0  0  0  0  0  0  0  0
   -1.8521    0.3848    2.4000 H   0  0  0  0  0  0  0  0  0  0  0  0
   -0.4403    0.7694    3.9518 C   0  0  0  0  0  0  0  0  0  0  0  0
    0.5066    1.3154    3.9421 H   0  0  0  0  0  0  0  0  0  0  0  0
   -1.1988    1.3789    4.4452 H   0  0  0  0  0  0  0  0  0  0  0  0
   -0.3053   -0.1600    4.5075 H   0  0  0  0  0  0  0  0  0  0  0  0
  5  6  2  0  0  0  0
  5  7  1  0  0  0  0
  2  3  1  0  0  0  0
  2  4  1  0  0  0  0
  2  5  1  0  0  0  0
  1  2  1  0  0  0  0
 22 23  2  0  0  0  0
 22 24  1  0  0  0  0
 20 21  1  0  0  0  0
 18 19  1  0  0  0  0
 18 20  1  0  0  0  0
 16 17  1  0  0  0  0
 16 18  1  0  0  0  0
 15 16  2  0  0  0  0
 14 15  1  0  0  0  0
 14 20  2  0  0  0  0
 11 12  1  0  0  0  0
 11 13  1  0  0  0  0
 11 14  1  0  0  0  0
  9 10  1  0  0  0  0
  9 11  1  0  0  0  0
  9 22  1  0  0  0  0
  7  8  1  0  0  0  0
  7  9  1  0  0  0  0
 26 27  1  0  0  0  0
 26 28  1  0  0  0  0
 26 29  1  0  0  0  0
 24 25  1  0  0  0  0
 24 26  1  0  0  0  0
M  END
$$$$
default_name
  -OEChem-02102213163D

 29 29  0     1  0  0  0  0  0999 V2000
   -2.9561   -3.9186    1.3887 H   0  0  0  0  0  0  0  0  0  0  0  0
   -3.1191   -2.9346    0.9517 C   0  0  0  0  0  0  0  0  0  0  0  0
   -3.7811   -2.3546    1.5917 H   0  0  0  0  0  0  0  0  0  0  0  0
   -3.5591   -3.0406   -0.0383 H   0  0  0  0  0  0  0  0  0  0  0  0
   -1.7921   -2.2226    0.8327 C   0  0  0  0  0  0  0  0  0  0  0  0
   -0.7611   -2.7766    1.1927 O   0  0  0  0  0  0  0  0  0  0  0  0
   -1.8201   -0.9926    0.3247 N   0  0  0  0  0  0  0  0  0  0  0  0
   -2.7141   -0.5816    0.0927 H   0  0  0  0  0  0  0  0  0  0  0  0
   -0.6481   -0.1156    0.2017 C   0  0  1  0  0  0  0  0  0  0  0  0
    0.1042   -0.6345   -0.3958 H   0  0  0  0  0  0  0  0  0  0  0  0
   -1.0420    1.1781   -0.5372 C   0  0  0  0  0  0  0  0  0  0  0  0
   -0.6265    2.0420   -0.0163 H   0  0  0  0  0  0  0  0  0  0  0  0
   -0.6235    1.1698   -1.5446 H   0  0  0  0  0  0  0  0  0  0  0  0
   -2.5361    1.3774   -0.6155 C   0  0  0  0  0  0  0  0  0  0  0  0
   -3.4705    0.9307    0.3197 N   0  0  0  0  0  0  0  0  0  0  0  0
   -4.6633    1.3631   -0.1145 C   0  0  0  0  0  0  0  0  0  0  0  0
   -5.6039    1.1712    0.3862 H   0  0  0  0  0  0  0  0  0  0  0  0
   -4.5217    2.0716   -1.2473 N   0  0  0  0  0  0  0  0  0  0  0  0
   -5.2717    2.5185   -1.7570 H   0  0  0  0  0  0  0  0  0  0  0  0
   -3.1849    2.0952   -1.5773 C   0  0  0  0  0  0  0  0  0  0  0  0
   -2.7198    2.5965   -2.4168 H   0  0  0  0  0  0  0  0  0  0  0  0
   -0.0283    0.1609    1.5831 C   0  0  0  0  0  0  0  0  0  0  0  0
    1.1923    0.1056    1.7329 O   0  0  0  0  0  0  0  0  0  0  0  0
   -0.8586    0.4659    2.5853 N   0  0  0  0  0  0  0  0  0  0  0  0
   -1.8521    0.3848    2.4000 H   0  0  0  0  0  0  0  0  0  0  0  0
   -0.4403    0.7694    3.9518 C   0  0  0  0  0  0  0  0  0  0  0  0
    0.5066    1.3154    3.9421 H   0  0  0  0  0  0  0  0  0  0  0  0
   -1.1988    1.3789    4.4452 H   0  0  0  0  0  0  0  0  0  0  0  0
   -0.3053   -0.1600    4.5075 H   0  0  0  0  0  0  0  0  0  0  0  0
  5  6  2  0  0  0  0
  5  7  1  0  0  0  0
  2  3  1  0  0  0  0
  2  4  1  0  0  0  0
  2  5  1  0  0  0  0
  1  2  1  0  0  0  0
 22 23  2  0  0  0  0
 22 24  1  0  0  0  0
 20 21  1  0  0  0  0
 18 19  1  0  0  0  0
 18 20  1  0  0  0  0
 16 17  1  0  0  0  0
 16 18  1  0  0  0  0
 15 16  2  0  0  0  0
 14 15  1  0  0  0  0
 14 20  2  0  0  0  0
 11 12  1  0  0  0  0
 11 13  1  0  0  0  0
 11 14  1  0  0  0  0
  9 10  1  0  0  0  0
  9 11  1  0  0  0  0
  9 22  1  0  0  0  0
  7  8  1  0  0  0  0
  7  9  1  0  0  0  0
 26 27  1  0  0  0  0
 26 28  1  0  0  0  0
 26 29  1  0  0  0  0
 24 25  1  0  0  0  0
 24 26  1  0  0  0  0
M  END
$$$$
default_name
  -OEChem-02102213163D

 29 29  0     1  0  0  0  0  0999 V2000
   -2.9561   -3.9186    1.3887 H   0  0  0  0  0  0  0  0  0  0  0  0
   -3.1191   -2.9346    0.9517 C   0  0  0  0  0  0  0  0  0  0  0  0
   -3.7811   -2.3546    1.5917 H   0  0  0  0  0  0  0  0  0  0  0  0
   -3.5591   -3.0406   -0.0383 H   0  0  0  0  0  0  0  0  0  0  0  0
   -1.7921   -2.2226    0.8327 C   0  0  0  0  0  0  0  0  0  0  0  0
   -0.7611   -2.7766    1.1927 O   0  0  0  0  0  0  0  0  0  0  0  0
   -1.8201   -0.9926    0.3247 N   0  0  0  0  0  0  0  0  0  0  0  0
   -2.7141   -0.5816    0.0927 H   0  0  0  0  0  0  0  0  0  0  0  0
   -0.6481   -0.1156    0.2017 C   0  0  1  0  0  0  0  0  0  0  0  0
    0.1042   -0.6345   -0.3958 H   0  0  0  0  0  0  0  0  0  0  0  0
   -1.0420    1.1781   -0.5372 C   0  0  0  0  0  0  0  0  0  0  0  0
   -0.6265    2.0420   -0.0163 H   0  0  0  0  0  0  0  0  0  0  0  0
   -0.6235    1.1698   -1.5446 H   0  0  0  0  0  0  0  0  0  0  0  0
   -2.5361    1.3774   -0.6155 C   0  0  0  0  0  0  0  0  0  0  0  0
   -3.4403    1.2017    0.4328 N   0  0  0  0  0  0  0  0  0  0  0  0
   -4.6440    1.5299   -0.0589 C   0  0  0  0  0  0  0  0  0  0  0  0
   -5.5677    1.4893    0.5045 H   0  0  0  0  0  0  0  0  0  0  0  0
   -4.5368    1.9222   -1.3395 N   0  0  0  0  0  0  0  0  0  0  0  0
   -5.3006    2.2370   -1.9221 H   0  0  0  0  0  0  0  0  0  0  0  0
   -3.2125    1.8365   -1.7077 C   0  0  0  0  0  0  0  0  0  0  0  0
   -2.7734    2.0979   -2.6623 H   0  0  0  0  0  0  0  0  0  0  0  0
   -0.0283    0.1609    1.5831 C   0  0  0  0  0  0  0  0  0  0  0  0
    1.1923    0.1056    1.7329 O   0  0  0  0  0  0  0  0  0  0  0  0
   -0.8586    0.4659    2.5853 N   0  0  0  0  0  0  0  0  0  0  0  0
   -1.8521    0.3848    2.4000 H   0  0  0  0  0  0  0  0  0  0  0  0
   -0.4403    0.7694    3.9518 C   0  0  0  0  0  0  0  0  0  0  0  0
    0.5066    1.3154    3.9421 H   0  0  0  0  0  0  0  0  0  0  0  0
   -1.1988    1.3789    4.4452 H   0  0  0  0  0  0  0  0  0  0  0  0
   -0.3053   -0.1600    4.5075 H   0  0  0  0  0  0  0  0  0  0  0  0
  5  6  2  0  0  0  0
  5  7  1  0  0  0  0
  2  3  1  0  0  0  0
  2  4  1  0  0  0  0
  2  5  1  0  0  0  0
  1  2  1  0  0  0  0
 22 23  2  0  0  0  0
 22 24  1  0  0  0  0
 20 21  1  0  0  0  0
 18 19  1  0  0  0  0
 18 20  1  0  0  0  0
 16 17  1  0  0  0  0
 16 18  1  0  0  0  0
 15 16  2  0  0  0  0
 14 15  1  0  0  0  0
 14 20  2  0  0  0  0
 11 12  1  0  0  0  0
 11 13  1  0  0  0  0
 11 14  1  0  0  0  0
  9 10  1  0  0  0  0
  9 11  1  0  0  0  0
  9 22  1  0  0  0  0
  7  8  1  0  0  0  0
  7  9  1  0  0  0  0
 26 27  1  0  0  0  0
 26 28  1  0  0  0  0
 26 29  1  0  0  0  0
 24 25  1  0  0  0  0
 24 26  1  0  0  0  0
M  END
$$$$
default_name
  -OEChem-02102213163D

 29 29  0     1  0  0  0  0  0999 V2000
   -2.9561   -3.9186    1.3887 H   0  0  0  0  0  0  0  0  0  0  0  0
   -3.1191   -2.9346    0.9517 C   0  0  0  0  0  0  0  0  0  0  0  0
   -3.7811   -2.3546    1.5917 H   0  0  0  0  0  0  0  0  0  0  0  0
   -3.5591   -3.0406   -0.0383 H   0  0  0  0  0  0  0  0  0  0  0  0
   -1.7921   -2.2226    0.8327 C   0  0  0  0  0  0  0  0  0  0  0  0
   -0.7611   -2.7766    1.1927 O   0  0  0  0  0  0  0  0  0  0  0  0
   -1.8201   -0.9926    0.3247 N   0  0  0  0  0  0  0  0  0  0  0  0
   -2.7141   -0.5816    0.0927 H   0  0  0  0  0  0  0  0  0  0  0  0
   -0.6481   -0.1156    0.2017 C   0  0  1  0  0  0  0  0  0  0  0  0
    0.1042   -0.6345   -0.3958 H   0  0  0  0  0  0  0  0  0  0  0  0
   -1.0420    1.1781   -0.5372 C   0  0  0  0  0  0  0  0  0  0  0  0
   -0.6265    2.0420   -0.0163 H   0  0  0  0  0  0  0  0  0  0  0  0
   -0.6235    1.1698   -1.5446 H   0  0  0  0  0  0  0  0  0  0  0  0
   -2.5361    1.3774   -0.6155 C   0  0  0  0  0  0  0  0  0  0  0  0
   -3.4036    1.4921    0.4715 N   0  0  0  0  0  0  0  0  0  0  0  0
   -4.6212    1.7049   -0.0486 C   0  0  0  0  0  0  0  0  0  0  0  0
   -5.5243    1.8264    0.5361 H   0  0  0  0  0  0  0  0  0  0  0  0
   -4.5566    1.7544   -1.3897 N   0  0  0  0  0  0  0  0  0  0  0  0
   -5.3379    1.9232   -2.0085 H   0  0  0  0  0  0  0  0  0  0  0  0
   -3.2472    1.5537   -1.7664 C   0  0  0  0  0  0  0  0  0  0  0  0
   -2.8403    1.5541   -2.7698 H   0  0  0  0  0  0  0  0  0  0  0  0
   -0.0283    0.1609    1.5831 C   0  0  0  0  0  0  0  0  0  0  0  0
    1.1923    0.1056    1.7329 O   0  0  0  0  0  0  0  0  0  0  0  0
   -0.8586    0.4659    2.5853 N   0  0  0  0  0  0  0  0  0  0  0  0
   -1.8521    0.3848    2.4000 H   0  0  0  0  0  0  0  0  0  0  0  0
   -0.4403    0.7694    3.9518 C   0  0  0  0  0  0  0  0  0  0  0  0
    0.5066    1.3154    3.9421 H   0  0  0  0  0  0  0  0  0  0  0  0
   -1.1988    1.3789    4.4452 H   0  0  0  0  0  0  0  0  0  0  0  0
   -0.3053   -0.1600    4.5075 H   0  0  0  0  0  0  0  0  0  0  0  0
  5  6  2  0  0  0  0
  5  7  1  0  0  0  0
  2  3  1  0  0  0  0
  2  4  1  0  0  0  0
  2  5  1  0  0  0  0
  1  2  1  0  0  0  0
 22 23  2  0  0  0  0
 22 24  1  0  0  0  0
 20 21  1  0  0  0  0
 18 19  1  0  0  0  0
 18 20  1  0  0  0  0
 16 17  1  0  0  0  0
 16 18  1  0  0  0  0
 15 16  2  0  0  0  0
 14 15  1  0  0  0  0
 14 20  2  0  0  0  0
 11 12  1  0  0  0  0
 11 13  1  0  0  0  0
 11 14  1  0  0  0  0
  9 10  1  0  0  0  0
  9 11  1  0  0  0  0
  9 22  1  0  0  0  0
  7  8  1  0  0  0  0
  7  9  1  0  0  0  0
 26 27  1  0  0  0  0
 26 28  1  0  0  0  0
 26 29  1  0  0  0  0
 24 25  1  0  0  0  0
 24 26  1  0  0  0  0
M  END
$$$$
default_name
  -OEChem-02102213163D

 29 29  0     1  0  0  0  0  0999 V2000
   -2.9561   -3.9186    1.3887 H   0  0  0  0  0  0  0  0  0  0  0  0
   -3.1191   -2.9346    0.9517 C   0  0  0  0  0  0  0  0  0  0  0  0
   -3.7811   -2.3546    1.5917 H   0  0  0  0  0  0  0  0  0  0  0  0
   -3.5591   -3.0406   -0.0383 H   0  0  0  0  0  0  0  0  0  0  0  0
   -1.7921   -2.2226    0.8327 C   0  0  0  0  0  0  0  0  0  0  0  0
   -0.7611   -2.7766    1.1927 O   0  0  0  0  0  0  0  0  0  0  0  0
   -1.8201   -0.9926    0.3247 N   0  0  0  0  0  0  0  0  0  0  0  0
   -2.7141   -0.5816    0.0927 H   0  0  0  0  0  0  0  0  0  0  0  0
   -0.6481   -0.1156    0.2017 C   0  0  1  0  0  0  0  0  0  0  0  0
    0.1042   -0.6345   -0.3958 H   0  0  0  0  0  0  0  0  0  0  0  0
   -1.0420    1.1781   -0.5372 C   0  0  0  0  0  0  0  0  0  0  0  0
   -0.6265    2.0420   -0.0163 H   0  0  0  0  0  0  0  0  0  0  0  0
   -0.6235    1.1698   -1.5446 H   0  0  0  0  0  0  0  0  0  0  0  0
   -2.5361    1.3774   -0.6155 C   0  0  0  0  0  0  0  0  0  0  0  0
   -3.3629    1.7820    0.4333 N   0  0  0  0  0  0  0  0  0  0  0  0
   -4.5964    1.8763   -0.0842 C   0  0  0  0  0  0  0  0  0  0  0  0
   -5.4769    2.1596    0.4787 H   0  0  0  0  0  0  0  0  0  0  0  0
   -4.5796    1.5797   -1.3946 N   0  0  0  0  0  0  0  0  0  0  0  0
   -5.3811    1.5985   -2.0102 H   0  0  0  0  0  0  0  0  0  0  0  0
   -3.2865    1.2659   -1.7494 C   0  0  0  0  0  0  0  0  0  0  0  0
   -2.9159    1.0022   -2.7320 H   0  0  0  0  0  0  0  0  0  0  0  0
   -0.0283    0.1609    1.5831 C   0  0  0  0  0  0  0  0  0  0  0  0
    1.1923    0.1056    1.7329 O   0  0  0  0  0  0  0  0  0  0  0  0
   -0.8586    0.4659    2.5853 N   0  0  0  0  0  0  0  0  0  0  0  0
   -1.8521    0.3848    2.4000 H   0  0  0  0  0  0  0  0  0  0  0  0
   -0.4403    0.7694    3.9518 C   0  0  0  0  0  0  0  0  0  0  0  0
    0.5066    1.3154    3.9421 H   0  0  0  0  0  0  0  0  0  0  0  0
   -1.1988    1.3789    4.4452 H   0  0  0  0  0  0  0  0  0  0  0  0
   -0.3053   -0.1600    4.5075 H   0  0  0  0  0  0  0  0  0  0  0  0
  5  6  2  0  0  0  0
  5  7  1  0  0  0  0
  2  3  1  0  0  0  0
  2  4  1  0  0  0  0
  2  5  1  0  0  0  0
  1  2  1  0  0  0  0
 22 23  2  0  0  0  0
 22 24  1  0  0  0  0
 20 21  1  0  0  0  0
 18 19  1  0  0  0  0
 18 20  1  0  0  0  0
 16 17  1  0  0  0  0
 16 18  1  0  0  0  0
 15 16  2  0  0  0  0
 14 15  1  0  0  0  0
 14 20  2  0  0  0  0
 11 12  1  0  0  0  0
 11 13  1  0  0  0  0
 11 14  1  0  0  0  0
  9 10  1  0  0  0  0
  9 11  1  0  0  0  0
  9 22  1  0  0  0  0
  7  8  1  0  0  0  0
  7  9  1  0  0  0  0
 26 27  1  0  0  0  0
 26 28  1  0  0  0  0
 26 29  1  0  0  0  0
 24 25  1  0  0  0  0
 24 26  1  0  0  0  0
M  END
$$$$
default_name
  -OEChem-02102213163D

 29 29  0     1  0  0  0  0  0999 V2000
   -2.9561   -3.9186    1.3887 H   0  0  0  0  0  0  0  0  0  0  0  0
   -3.1191   -2.9346    0.9517 C   0  0  0  0  0  0  0  0  0  0  0  0
   -3.7811   -2.3546    1.5917 H   0  0  0  0  0  0  0  0  0  0  0  0
   -3.5591   -3.0406   -0.0383 H   0  0  0  0  0  0  0  0  0  0  0  0
   -1.7921   -2.2226    0.8327 C   0  0  0  0  0  0  0  0  0  0  0  0
   -0.7611   -2.7766    1.1927 O   0  0  0  0  0  0  0  0  0  0  0  0
   -1.8201   -0.9926    0.3247 N   0  0  0  0  0  0  0  0  0  0  0  0
   -2.7141   -0.5816    0.0927 H   0  0  0  0  0  0  0  0  0  0  0  0
   -0.6481   -0.1156    0.2017 C   0  0  1  0  0  0  0  0  0  0  0  0
    0.1042   -0.6345   -0.3958 H   0  0  0  0  0  0  0  0  0  0  0  0
   -1.0420    1.1781   -0.5372 C   0  0  0  0  0  0  0  0  0  0  0  0
   -0.6265    2.0420   -0.0163 H   0  0  0  0  0  0  0  0  0  0  0  0
   -0.6235    1.1698   -1.5446 H   0  0  0  0  0  0  0  0  0  0  0  0
   -2.5361    1.3774   -0.6155 C   0  0  0  0  0  0  0  0  0  0  0  0
   -3.3210    2.0517    0.3207 N   0  0  0  0  0  0  0  0  0  0  0  0
   -4.5715    2.0325   -0.1634 C   0  0  0  0  0  0  0  0  0  0  0  0
   -5.4286    2.4661    0.3363 H   0  0  0  0  0  0  0  0  0  0  0  0
   -4.6044    1.4100   -1.3537 N   0  0  0  0  0  0  0  0  0  0  0  0
   -5.4273    1.2849   -1.9273 H   0  0  0  0  0  0  0  0  0  0  0  0
   -3.3277    0.9928   -1.6580 C   0  0  0  0  0  0  0  0  0  0  0  0
   -2.9951    0.4798   -2.5515 H   0  0  0  0  0  0  0  0  0  0  0  0
   -0.0283    0.1609    1.5831 C   0  0  0  0  0  0  0  0  0  0  0  0
    1.1923    0.1056    1.7329 O   0  0  0  0  0  0  0  0  0  0  0  0
   -0.8586    0.4659    2.5853 N   0  0  0  0  0  0  0  0  0  0  0  0
   -1.8521    0.3848    2.4000 H   0  0  0  0  0  0  0  0  0  0  0  0
   -0.4403    0.7694    3.9518 C   0  0  0  0  0  0  0  0  0  0  0  0
    0.5066    1.3154    3.9421 H   0  0  0  0  0  0  0  0  0  0  0  0
   -1.1988    1.3789    4.4452 H   0  0  0  0  0  0  0  0  0  0  0  0
   -0.3053   -0.1600    4.5075 H   0  0  0  0  0  0  0  0  0  0  0  0
  5  6  2  0  0  0  0
  5  7  1  0  0  0  0
  2  3  1  0  0  0  0
  2  4  1  0  0  0  0
  2  5  1  0  0  0  0
  1  2  1  0  0  0  0
 22 23  2  0  0  0  0
 22 24  1  0  0  0  0
 20 21  1  0  0  0  0
 18 19  1  0  0  0  0
 18 20  1  0  0  0  0
 16 17  1  0  0  0  0
 16 18  1  0  0  0  0
 15 16  2  0  0  0  0
 14 15  1  0  0  0  0
 14 20  2  0  0  0  0
 11 12  1  0  0  0  0
 11 13  1  0  0  0  0
 11 14  1  0  0  0  0
  9 10  1  0  0  0  0
  9 11  1  0  0  0  0
  9 22  1  0  0  0  0
  7  8  1  0  0  0  0
  7  9  1  0  0  0  0
 26 27  1  0  0  0  0
 26 28  1  0  0  0  0
 26 29  1  0  0  0  0
 24 25  1  0  0  0  0
 24 26  1  0  0  0  0
M  END
$$$$
default_name
  -OEChem-02102213163D

 29 29  0     1  0  0  0  0  0999 V2000
   -2.9561   -3.9186    1.3887 H   0  0  0  0  0  0  0  0  0  0  0  0
   -3.1191   -2.9346    0.9517 C   0  0  0  0  0  0  0  0  0  0  0  0
   -3.7811   -2.3546    1.5917 H   0  0  0  0  0  0  0  0  0  0  0  0
   -3.5591   -3.0406   -0.0383 H   0  0  0  0  0  0  0  0  0  0  0  0
   -1.7921   -2.2226    0.8327 C   0  0  0  0  0  0  0  0  0  0  0  0
   -0.7611   -2.7766    1.1927 O   0  0  0  0  0  0  0  0  0  0  0  0
   -1.8201   -0.9926    0.3247 N   0  0  0  0  0  0  0  0  0  0  0  0
   -2.7141   -0.5816    0.0927 H   0  0  0  0  0  0  0  0  0  0  0  0
   -0.6481   -0.1156    0.2017 C   0  0  1  0  0  0  0  0  0  0  0  0
    0.1042   -0.6345   -0.3958 H   0  0  0  0  0  0  0  0  0  0  0  0
   -1.0420    1.1781   -0.5372 C   0  0  0  0  0  0  0  0  0  0  0  0
   -0.6265    2.0420   -0.0163 H   0  0  0  0  0  0  0  0  0  0  0  0
   -0.6235    1.1698   -1.5446 H   0  0  0  0  0  0  0  0  0  0  0  0
   -2.5361    1.3774   -0.6155 C   0  0  0  0  0  0  0  0  0  0  0  0
   -3.2808    2.2828    0.1414 N   0  0  0  0  0  0  0  0  0  0  0  0
   -4.5480    2.1626   -0.2807 C   0  0  0  0  0  0  0  0  0  0  0  0
   -5.3826    2.7249    0.1186 H   0  0  0  0  0  0  0  0  0  0  0  0
   -4.6292    1.2570   -1.2699 N   0  0  0  0  0  0  0  0  0  0  0  0
   -5.4733    1.0039   -1.7652 H   0  0  0  0  0  0  0  0  0  0  0  0
   -3.3681    0.7530   -1.4982 C   0  0  0  0  0  0  0  0  0  0  0  0
   -3.0724    0.0225   -2.2407 H   0  0  0  0  0  0  0  0  0  0  0  0
   -0.0283    0.1609    1.5831 C   0  0  0  0  0  0  0  0  0  0  0  0
    1.1923    0.1056    1.7329 O   0  0  0  0  0  0  0  0  0  0  0  0
   -0.8586    0.4659    2.5853 N   0  0  0  0  0  0  0  0  0  0  0  0
   -1.8521    0.3848    2.4000 H   0  0  0  0  0  0  0  0  0  0  0  0
   -0.4403    0.7694    3.9518 C   0  0  0  0  0  0  0  0  0  0  0  0
    0.5066    1.3154    3.9421 H   0  0  0  0  0  0  0  0  0  0  0  0
   -1.1988    1.3789    4.4452 H   0  0  0  0  0  0  0  0  0  0  0  0
   -0.3053   -0.1600    4.5075 H   0  0  0  0  0  0  0  0  0  0  0  0
  5  6  2  0  0  0  0
  5  7  1  0  0  0  0
  2  3  1  0  0  0  0
  2  4  1  0  0  0  0
  2  5  1  0  0  0  0
  1  2  1  0  0  0  0
 22 23  2  0  0  0  0
 22 24  1  0  0  0  0
 20 21  1  0  0  0  0
 18 19  1  0  0  0  0
 18 20  1  0  0  0  0
 16 17  1  0  0  0  0
 16 18  1  0  0  0  0
 15 16  2  0  0  0  0
 14 15  1  0  0  0  0
 14 20  2  0  0  0  0
 11 12  1  0  0  0  0
 11 13  1  0  0  0  0
 11 14  1  0  0  0  0
  9 10  1  0  0  0  0
  9 11  1  0  0  0  0
  9 22  1  0  0  0  0
  7  8  1  0  0  0  0
  7  9  1  0  0  0  0
 26 27  1  0  0  0  0
 26 28  1  0  0  0  0
 26 29  1  0  0  0  0
 24 25  1  0  0  0  0
 24 26  1  0  0  0  0
M  END
$$$$
default_name
  -OEChem-02102213163D

 29 29  0     1  0  0  0  0  0999 V2000
   -2.9561   -3.9186    1.3887 H   0  0  0  0  0  0  0  0  0  0  0  0
   -3.1191   -2.9346    0.9517 C   0  0  0  0  0  0  0  0  0  0  0  0
   -3.7811   -2.3546    1.5917 H   0  0  0  0  0  0  0  0  0  0  0  0
   -3.5591   -3.0406   -0.0383 H   0  0  0  0  0  0  0  0  0  0  0  0
   -1.7921   -2.2226    0.8327 C   0  0  0  0  0  0  0  0  0  0  0  0
   -0.7611   -2.7766    1.1927 O   0  0  0  0  0  0  0  0  0  0  0  0
   -1.8201   -0.9926    0.3247 N   0  0  0  0  0  0  0  0  0  0  0  0
   -2.7141   -0.5816    0.0927 H   0  0  0  0  0  0  0  0  0  0  0  0
   -0.6481   -0.1156    0.2017 C   0  0  1  0  0  0  0  0  0  0  0  0
    0.1042   -0.6345   -0.3958 H   0  0  0  0  0  0  0  0  0  0  0  0
   -1.0420    1.1781   -0.5372 C   0  0  0  0  0  0  0  0  0  0  0  0
   -0.6265    2.0420   -0.0163 H   0  0  0  0  0  0  0  0  0  0  0  0
   -0.6235    1.1698   -1.5446 H   0  0  0  0  0  0  0  0  0  0  0  0
   -2.5361    1.3774   -0.6155 C   0  0  0  0  0  0  0  0  0  0  0  0
   -3.2450    2.4596   -0.0923 N   0  0  0  0  0  0  0  0  0  0  0  0
   -4.5275    2.2580   -0.4282 C   0  0  0  0  0  0  0  0  0  0  0  0
   -5.3422    2.9186   -0.1596 H   0  0  0  0  0  0  0  0  0  0  0  0
   -4.6523    1.1309   -1.1489 N   0  0  0  0  0  0  0  0  0  0  0  0
   -5.5159    0.7747   -1.5352 H   0  0  0  0  0  0  0  0  0  0  0  0
   -3.4048    0.5629   -1.2812 C   0  0  0  0  0  0  0  0  0  0  0  0
   -3.1425   -0.3386   -1.8206 H   0  0  0  0  0  0  0  0  0  0  0  0
   -0.0283    0.1609    1.5831 C   0  0  0  0  0  0  0  0  0  0  0  0
    1.1923    0.1056    1.7329 O   0  0  0  0  0  0  0  0  0  0  0  0
   -0.8586    0.4659    2.5853 N   0  0  0  0  0  0  0  0  0  0  0  0
   -1.8521    0.3848    2.4000 H   0  0  0  0  0  0  0  0  0  0  0  0
   -0.4403    0.7694    3.9518 C   0  0  0  0  0  0  0  0  0  0  0  0
    0.5066    1.3154    3.9421 H   0  0  0  0  0  0  0  0  0  0  0  0
   -1.1988    1.3789    4.4452 H   0  0  0  0  0  0  0  0  0  0  0  0
   -0.3053   -0.1600    4.5075 H   0  0  0  0  0  0  0  0  0  0  0  0
  5  6  2  0  0  0  0
  5  7  1  0  0  0  0
  2  3  1  0  0  0  0
  2  4  1  0  0  0  0
  2  5  1  0  0  0  0
  1  2  1  0  0  0  0
 22 23  2  0  0  0  0
 22 24  1  0  0  0  0
 20 21  1  0  0  0  0
 18 19  1  0  0  0  0
 18 20  1  0  0  0  0
 16 17  1  0  0  0  0
 16 18  1  0  0  0  0
 15 16  2  0  0  0  0
 14 15  1  0  0  0  0
 14 20  2  0  0  0  0
 11 12  1  0  0  0  0
 11 13  1  0  0  0  0
 11 14  1  0  0  0  0
  9 10  1  0  0  0  0
  9 11  1  0  0  0  0
  9 22  1  0  0  0  0
  7  8  1  0  0  0  0
  7  9  1  0  0  0  0
 26 27  1  0  0  0  0
 26 28  1  0  0  0  0
 26 29  1  0  0  0  0
 24 25  1  0  0  0  0
 24 26  1  0  0  0  0
M  END
$$$$
default_name
  -OEChem-02102213163D

 29 29  0     1  0  0  0  0  0999 V2000
   -2.9561   -3.9186    1.3887 H   0  0  0  0  0  0  0  0  0  0  0  0
   -3.1191   -2.9346    0.9517 C   0  0  0  0  0  0  0  0  0  0  0  0
   -3.7811   -2.3546    1.5917 H   0  0  0  0  0  0  0  0  0  0  0  0
   -3.5591   -3.0406   -0.0383 H   0  0  0  0  0  0  0  0  0  0  0  0
   -1.7921   -2.2226    0.8327 C   0  0  0  0  0  0  0  0  0  0  0  0
   -0.7611   -2.7766    1.1927 O   0  0  0  0  0  0  0  0  0  0  0  0
   -1.8201   -0.9926    0.3247 N   0  0  0  0  0  0  0  0  0  0  0  0
   -2.7141   -0.5816    0.0927 H   0  0  0  0  0  0  0  0  0  0  0  0
   -0.6481   -0.1156    0.2017 C   0  0  1  0  0  0  0  0  0  0  0  0
    0.1042   -0.6345   -0.3958 H   0  0  0  0  0  0  0  0  0  0  0  0
   -1.0420    1.1781   -0.5372 C   0  0  0  0  0  0  0  0  0  0  0  0
   -0.6265    2.0420   -0.0163 H   0  0  0  0  0  0  0  0  0  0  0  0
   -0.6235    1.1698   -1.5446 H   0  0  0  0  0  0  0  0  0  0  0  0
   -2.5361    1.3774   -0.6155 C   0  0  0  0  0  0  0  0  0  0  0  0
   -3.2160    2.5699   -0.3646 N   0  0  0  0  0  0  0  0  0  0  0  0
   -4.5115    2.3121   -0.5959 C   0  0  0  0  0  0  0  0  0  0  0  0
   -5.3101    3.0339   -0.4794 H   0  0  0  0  0  0  0  0  0  0  0  0
   -4.6723    1.0405   -0.9990 N   0  0  0  0  0  0  0  0  0  0  0  0
   -5.5523    0.6127   -1.2527 H   0  0  0  0  0  0  0  0  0  0  0  0
   -3.4354    0.4353   -1.0215 C   0  0  0  0  0  0  0  0  0  0  0  0
   -3.2008   -0.5787   -1.3200 H   0  0  0  0  0  0  0  0  0  0  0  0
   -0.0283    0.1609    1.5831 C   0  0  0  0  0  0  0  0  0  0  0  0
    1.1923    0.1056    1.7329 O   0  0  0  0  0  0  0  0  0  0  0  0
   -0.8586    0.4659    2.5853 N   0  0  0  0  0  0  0  0  0  0  0  0
   -1.8521    0.3848    2.4000 H   0  0  0  0  0  0  0  0  0  0  0  0
   -0.4403    0.7694    3.9518 C   0  0  0  0  0  0  0  0  0  0  0  0
    0.5066    1.3154    3.9421 H   0  0  0  0  0  0  0  0  0  0  0  0
   -1.1988    1.3789    4.4452 H   0  0  0  0  0  0  0  0  0  0  0  0
   -0.3053   -0.1600    4.5075 H   0  0  0  0  0  0  0  0  0  0  0  0
  5  6  2  0  0  0  0
  5  7  1  0  0  0  0
  2  3  1  0  0  0  0
  2  4  1  0  0  0  0
  2  5  1  0  0  0  0
  1  2  1  0  0  0  0
 22 23  2  0  0  0  0
 22 24  1  0  0  0  0
 20 21  1  0  0  0  0
 18 19  1  0  0  0  0
 18 20  1  0  0  0  0
 16 17  1  0  0  0  0
 16 18  1  0  0  0  0
 15 16  2  0  0  0  0
 14 15  1  0  0  0  0
 14 20  2  0  0  0  0
 11 12  1  0  0  0  0
 11 13  1  0  0  0  0
 11 14  1  0  0  0  0
  9 10  1  0  0  0  0
  9 11  1  0  0  0  0
  9 22  1  0  0  0  0
  7  8  1  0  0  0  0
  7  9  1  0  0  0  0
 26 27  1  0  0  0  0
 26 28  1  0  0  0  0
 26 29  1  0  0  0  0
 24 25  1  0  0  0  0
 24 26  1  0  0  0  0
M  END
$$$$
default_name
  -OEChem-02102213163D

 29 29  0     1  0  0  0  0  0999 V2000
   -2.9561   -3.9186    1.3887 H   0  0  0  0  0  0  0  0  0  0  0  0
   -3.1191   -2.9346    0.9517 C   0  0  0  0  0  0  0  0  0  0  0  0
   -3.7811   -2.3546    1.5917 H   0  0  0  0  0  0  0  0  0  0  0  0
   -3.5591   -3.0406   -0.0383 H   0  0  0  0  0  0  0  0  0  0  0  0
   -1.7921   -2.2226    0.8327 C   0  0  0  0  0  0  0  0  0  0  0  0
   -0.7611   -2.7766    1.1927 O   0  0  0  0  0  0  0  0  0  0  0  0
   -1.8201   -0.9926    0.3247 N   0  0  0  0  0  0  0  0  0  0  0  0
   -2.7141   -0.5816    0.0927 H   0  0  0  0  0  0  0  0  0  0  0  0
   -0.6481   -0.1156    0.2017 C   0  0  1  0  0  0  0  0  0  0  0  0
    0.1042   -0.6345   -0.3958 H   0  0  0  0  0  0  0  0  0  0  0  0
   -1.0420    1.1781   -0.5372 C   0  0  0  0  0  0  0  0  0  0  0  0
   -0.6265    2.0420   -0.0163 H   0  0  0  0  0  0  0  0  0  0  0  0
   -0.6235    1.1698   -1.5446 H   0  0  0  0  0  0  0  0  0  0  0  0
   -2.5361    1.3774   -0.6155 C   0  0  0  0  0  0  0  0  0  0  0  0
   -3.1958    2.6064   -0.6569 N   0  0  0  0  0  0  0  0  0  0  0  0
   -4.5011    2.3211   -0.7721 C   0  0  0  0  0  0  0  0  0  0  0  0
   -5.2884    3.0628   -0.8188 H   0  0  0  0  0  0  0  0  0  0  0  0
   -4.6876    0.9918   -0.8303 N   0  0  0  0  0  0  0  0  0  0  0  0
   -5.5800    0.5291   -0.9372 H   0  0  0  0  0  0  0  0  0  0  0  0
   -3.4578    0.3790   -0.7369 C   0  0  0  0  0  0  0  0  0  0  0  0
   -3.2432   -0.6817   -0.7728 H   0  0  0  0  0  0  0  0  0  0  0  0
   -0.0283    0.1609    1.5831 C   0  0  0  0  0  0  0  0  0  0  0  0
    1.1923    0.1056    1.7329 O   0  0  0  0  0  0  0  0  0  0  0  0
   -0.8586    0.4659    2.5853 N   0  0  0  0  0  0  0  0  0  0  0  0
   -1.8521    0.3848    2.4000 H   0  0  0  0  0  0  0  0  0  0  0  0
   -0.4403    0.7694    3.9518 C   0  0  0  0  0  0  0  0  0  0  0  0
    0.5066    1.3154    3.9421 H   0  0  0  0  0  0  0  0  0  0  0  0
   -1.1988    1.3789    4.4452 H   0  0  0  0  0  0  0  0  0  0  0  0
   -0.3053   -0.1600    4.5075 H   0  0  0  0  0  0  0  0  0  0  0  0
  5  6  2  0  0  0  0
  5  7  1  0  0  0  0
  2  3  1  0  0  0  0
  2  4  1  0  0  0  0
  2  5  1  0  0  0  0
  1  2  1  0  0  0  0
 22 23  2  0  0  0  0
 22 24  1  0  0  0  0
 20 21  1  0  0  0  0
 18 19  1  0  0  0  0
 18 20  1  0  0  0  0
 16 17  1  0  0  0  0
 16 18  1  0  0  0  0
 15 16  2  0  0  0  0
 14 15  1  0  0  0  0
 14 20  2  0  0  0  0
 11 12  1  0  0  0  0
 11 13  1  0  0  0  0
 11 14  1  0  0  0  0
  9 10  1  0  0  0  0
  9 11  1  0  0  0  0
  9 22  1  0  0  0  0
  7  8  1  0  0  0  0
  7  9  1  0  0  0  0
 26 27  1  0  0  0  0
 26 28  1  0  0  0  0
 26 29  1  0  0  0  0
 24 25  1  0  0  0  0
 24 26  1  0  0  0  0
M  END
$$$$
default_name
  -OEChem-02102213163D

 29 29  0     1  0  0  0  0  0999 V2000
   -2.9561   -3.9186    1.3887 H   0  0  0  0  0  0  0  0  0  0  0  0
   -3.1191   -2.9346    0.9517 C   0  0  0  0  0  0  0  0  0  0  0  0
   -3.7811   -2.3546    1.5917 H   0  0  0  0  0  0  0  0  0  0  0  0
   -3.5591   -3.0406   -0.0383 H   0  0  0  0  0  0  0  0  0  0  0  0
   -1.7921   -2.2226    0.8327 C   0  0  0  0  0  0  0  0  0  0  0  0
   -0.7611   -2.7766    1.1927 O   0  0  0  0  0  0  0  0  0  0  0  0
   -1.8201   -0.9926    0.3247 N   0  0  0  0  0  0  0  0  0  0  0  0
   -2.7141   -0.5816    0.0927 H   0  0  0  0  0  0  0  0  0  0  0  0
   -0.6481   -0.1156    0.2017 C   0  0  1  0  0  0  0  0  0  0  0  0
    0.1042   -0.6345   -0.3958 H   0  0  0  0  0  0  0  0  0  0  0  0
   -1.0420    1.1781   -0.5372 C   0  0  0  0  0  0  0  0  0  0  0  0
   -0.6265    2.0420   -0.0163 H   0  0  0  0  0  0  0  0  0  0  0  0
   -0.6235    1.1698   -1.5446 H   0  0  0  0  0  0  0  0  0  0  0  0
   -2.5361    1.3774   -0.6155 C   0  0  0  0  0  0  0  0  0  0  0  0
   -3.1858    2.5665   -0.9492 N   0  0  0  0  0  0  0  0  0  0  0  0
   -4.4969    2.2846   -0.9451 C   0  0  0  0  0  0  0  0  0  0  0  0
   -5.2787    3.0036   -1.1549 H   0  0  0  0  0  0  0  0  0  0  0  0
   -4.6973    0.9882   -0.6543 N   0  0  0  0  0  0  0  0  0  0  0  0
   -5.5971    0.5296   -0.6100 H   0  0  0  0  0  0  0  0  0  0  0  0
   -3.4705    0.3978   -0.4469 C   0  0  0  0  0  0  0  0  0  0  0  0
   -3.2668   -0.6404   -0.2166 H   0  0  0  0  0  0  0  0  0  0  0  0
   -0.0283    0.1609    1.5831 C   0  0  0  0  0  0  0  0  0  0  0  0
    1.1923    0.1056    1.7329 O   0  0  0  0  0  0  0  0  0  0  0  0
   -0.8586    0.4659    2.5853 N   0  0  0  0  0  0  0  0  0  0  0  0
   -1.8521    0.3848    2.4000 H   0  0  0  0  0  0  0  0  0  0  0  0
   -0.4403    0.7694    3.9518 C   0  0  0  0  0  0  0  0  0  0  0  0
    0.5066    1.3154    3.9421 H   0  0  0  0  0  0  0  0  0  0  0  0
   -1.1988    1.3789    4.4452 H   0  0  0  0  0  0  0  0  0  0  0  0
   -0.3053   -0.1600    4.5075 H   0  0  0  0  0  0  0  0  0  0  0  0
  5  6  2  0  0  0  0
  5  7  1  0  0  0  0
  2  3  1  0  0  0  0
  2  4  1  0  0  0  0
  2  5  1  0  0  0  0
  1  2  1  0  0  0  0
 22 23  2  0  0  0  0
 22 24  1  0  0  0  0
 20 21  1  0  0  0  0
 18 19  1  0  0  0  0
 18 20  1  0  0  0  0
 16 17  1  0  0  0  0
 16 18  1  0  0  0  0
 15 16  2  0  0  0  0
 14 15  1  0  0  0  0
 14 20  2  0  0  0  0
 11 12  1  0  0  0  0
 11 13  1  0  0  0  0
 11 14  1  0  0  0  0
  9 10  1  0  0  0  0
  9 11  1  0  0  0  0
  9 22  1  0  0  0  0
  7  8  1  0  0  0  0
  7  9  1  0  0  0  0
 26 27  1  0  0  0  0
 26 28  1  0  0  0  0
 26 29  1  0  0  0  0
 24 25  1  0  0  0  0
 24 26  1  0  0  0  0
M  END
$$$$
default_name
  -OEChem-02102213163D

 29 29  0     1  0  0  0  0  0999 V2000
   -2.9561   -3.9186    1.3887 H   0  0  0  0  0  0  0  0  0  0  0  0
   -3.1191   -2.9346    0.9517 C   0  0  0  0  0  0  0  0  0  0  0  0
   -3.7811   -2.3546    1.5917 H   0  0  0  0  0  0  0  0  0  0  0  0
   -3.5591   -3.0406   -0.0383 H   0  0  0  0  0  0  0  0  0  0  0  0
   -1.7921   -2.2226    0.8327 C   0  0  0  0  0  0  0  0  0  0  0  0
   -0.7611   -2.7766    1.1927 O   0  0  0  0  0  0  0  0  0  0  0  0
   -1.8201   -0.9926    0.3247 N   0  0  0  0  0  0  0  0  0  0  0  0
   -2.7141   -0.5816    0.0927 H   0  0  0  0  0  0  0  0  0  0  0  0
   -0.6481   -0.1156    0.2017 C   0  0  1  0  0  0  0  0  0  0  0  0
    0.1042   -0.6345   -0.3958 H   0  0  0  0  0  0  0  0  0  0  0  0
   -1.0420    1.1781   -0.5372 C   0  0  0  0  0  0  0  0  0  0  0  0
   -0.4234    2.0060   -0.1875 H   0  0  0  0  0  0  0  0  0  0  0  0
   -0.8609    1.0620   -1.6067 H   0  0  0  0  0  0  0  0  0  0  0  0
   -2.4825    1.5676   -0.3110 C   0  0  0  0  0  0  0  0  0  0  0  0
   -3.1211    2.6860   -0.8485 N   0  0  0  0  0  0  0  0  0  0  0  0
   -4.3945    2.6192   -0.4334 C   0  0  0  0  0  0  0  0  0  0  0  0
   -5.1555    3.3517   -0.6711 H   0  0  0  0  0  0  0  0  0  0  0  0
   -4.5895    1.5151    0.3070 N   0  0  0  0  0  0  0  0  0  0  0  0
   -5.4690    1.2319    0.7169 H   0  0  0  0  0  0  0  0  0  0  0  0
   -3.3944    0.8360    0.3922 C   0  0  0  0  0  0  0  0  0  0  0  0
   -3.2023   -0.1039    0.8942 H   0  0  0  0  0  0  0  0  0  0  0  0
   -0.0283    0.1609    1.5831 C   0  0  0  0  0  0  0  0  0  0  0  0
    1.1923    0.1056    1.7329 O   0  0  0  0  0  0  0  0  0  0  0  0
   -0.8586    0.4659    2.5853 N   0  0  0  0  0  0  0  0  0  0  0  0
   -1.8521    0.3848    2.4000 H   0  0  0  0  0  0  0  0  0  0  0  0
   -0.4403    0.7694    3.9518 C   0  0  0  0  0  0  0  0  0  0  0  0
    0.5066    1.3154    3.9421 H   0  0  0  0  0  0  0  0  0  0  0  0
   -1.1988    1.3789    4.4452 H   0  0  0  0  0  0  0  0  0  0  0  0
   -0.3053   -0.1600    4.5075 H   0  0  0  0  0  0  0  0  0  0  0  0
  5  6  2  0  0  0  0
  5  7  1  0  0  0  0
  2  3  1  0  0  0  0
  2  4  1  0  0  0  0
  2  5  1  0  0  0  0
  1  2  1  0  0  0  0
 22 23  2  0  0  0  0
 22 24  1  0  0  0  0
 20 21  1  0  0  0  0
 18 19  1  0  0  0  0
 18 20  1  0  0  0  0
 16 17  1  0  0  0  0
 16 18  1  0  0  0  0
 15 16  2  0  0  0  0
 14 15  1  0  0  0  0
 14 20  2  0  0  0  0
 11 12  1  0  0  0  0
 11 13  1  0  0  0  0
 11 14  1  0  0  0  0
  9 10  1  0  0  0  0
  9 11  1  0  0  0  0
  9 22  1  0  0  0  0
  7  8  1  0  0  0  0
  7  9  1  0  0  0  0
 26 27  1  0  0  0  0
 26 28  1  0  0  0  0
 26 29  1  0  0  0  0
 24 25  1  0  0  0  0
 24 26  1  0  0  0  0
M  END
$$$$
default_name
  -OEChem-02102213163D

 29 29  0     1  0  0  0  0  0999 V2000
   -2.9561   -3.9186    1.3887 H   0  0  0  0  0  0  0  0  0  0  0  0
   -3.1191   -2.9346    0.9517 C   0  0  0  0  0  0  0  0  0  0  0  0
   -3.7811   -2.3546    1.5917 H   0  0  0  0  0  0  0  0  0  0  0  0
   -3.5591   -3.0406   -0.0383 H   0  0  0  0  0  0  0  0  0  0  0  0
   -1.7921   -2.2226    0.8327 C   0  0  0  0  0  0  0  0  0  0  0  0
   -0.7611   -2.7766    1.1927 O   0  0  0  0  0  0  0  0  0  0  0  0
   -1.8201   -0.9926    0.3247 N   0  0  0  0  0  0  0  0  0  0  0  0
   -2.7141   -0.5816    0.0927 H   0  0  0  0  0  0  0  0  0  0  0  0
   -0.6481   -0.1156    0.2017 C   0  0  1  0  0  0  0  0  0  0  0  0
    0.1042   -0.6345   -0.3958 H   0  0  0  0  0  0  0  0  0  0  0  0
   -1.0420    1.1781   -0.5372 C   0  0  0  0  0  0  0  0  0  0  0  0
   -0.4234    2.0060   -0.1875 H   0  0  0  0  0  0  0  0  0  0  0  0
   -0.8609    1.0620   -1.6067 H   0  0  0  0  0  0  0  0  0  0  0  0
   -2.4825    1.5676   -0.3110 C   0  0  0  0  0  0  0  0  0  0  0  0
   -3.2052    2.4975   -1.0596 N   0  0  0  0  0  0  0  0  0  0  0  0
   -4.4459    2.4972   -0.5506 C   0  0  0  0  0  0  0  0  0  0  0  0
   -5.2539    3.1243   -0.9059 H   0  0  0  0  0  0  0  0  0  0  0  0
   -4.5424    1.6061    0.4503 N   0  0  0  0  0  0  0  0  0  0  0  0
   -5.3805    1.4070    0.9792 H   0  0  0  0  0  0  0  0  0  0  0  0
   -3.3136    1.0062    0.6139 C   0  0  0  0  0  0  0  0  0  0  0  0
   -3.0466    0.2267    1.3164 H   0  0  0  0  0  0  0  0  0  0  0  0
   -0.0283    0.1609    1.5831 C   0  0  0  0  0  0  0  0  0  0  0  0
    1.1923    0.1056    1.7329 O   0  0  0  0  0  0  0  0  0  0  0  0
   -0.8586    0.4659    2.5853 N   0  0  0  0  0  0  0  0  0  0  0  0
   -1.8521    0.3848    2.4000 H   0  0  0  0  0  0  0  0  0  0  0  0
   -0.4403    0.7694    3.9518 C   0  0  0  0  0  0  0  0  0  0  0  0
    0.5066    1.3154    3.9421 H   0  0  0  0  0  0  0  0  0  0  0  0
   -1.1988    1.3789    4.4452 H   0  0  0  0  0  0  0  0  0  0  0  0
   -0.3053   -0.1600    4.5075 H   0  0  0  0  0  0  0  0  0  0  0  0
  5  6  2  0  0  0  0
  5  7  1  0  0  0  0
  2  3  1  0  0  0  0
  2  4  1  0  0  0  0
  2  5  1  0  0  0  0
  1  2  1  0  0  0  0
 22 23  2  0  0  0  0
 22 24  1  0  0  0  0
 20 21  1  0  0  0  0
 18 19  1  0  0  0  0
 18 20  1  0  0  0  0
 16 17  1  0  0  0  0
 16 18  1  0  0  0  0
 15 16  2  0  0  0  0
 14 15  1  0  0  0  0
 14 20  2  0  0  0  0
 11 12  1  0  0  0  0
 11 13  1  0  0  0  0
 11 14  1  0  0  0  0
  9 10  1  0  0  0  0
  9 11  1  0  0  0  0
  9 22  1  0  0  0  0
  7  8  1  0  0  0  0
  7  9  1  0  0  0  0
 26 27  1  0  0  0  0
 26 28  1  0  0  0  0
 26 29  1  0  0  0  0
 24 25  1  0  0  0  0
 24 26  1  0  0  0  0
M  END
$$$$
default_name
  -OEChem-02102213163D

 29 29  0     1  0  0  0  0  0999 V2000
   -2.9561   -3.9186    1.3887 H   0  0  0  0  0  0  0  0  0  0  0  0
   -3.1191   -2.9346    0.9517 C   0  0  0  0  0  0  0  0  0  0  0  0
   -3.7811   -2.3546    1.5917 H   0  0  0  0  0  0  0  0  0  0  0  0
   -3.5591   -3.0406   -0.0383 H   0  0  0  0  0  0  0  0  0  0  0  0
   -1.7921   -2.2226    0.8327 C   0  0  0  0  0  0  0  0  0  0  0  0
   -0.7611   -2.7766    1.1927 O   0  0  0  0  0  0  0  0  0  0  0  0
   -1.8201   -0.9926    0.3247 N   0  0  0  0  0  0  0  0  0  0  0  0
   -2.7141   -0.5816    0.0927 H   0  0  0  0  0  0  0  0  0  0  0  0
   -0.6481   -0.1156    0.2017 C   0  0  1  0  0  0  0  0  0  0  0  0
    0.1042   -0.6345   -0.3958 H   0  0  0  0  0  0  0  0  0  0  0  0
   -1.0420    1.1781   -0.5372 C   0  0  0  0  0  0  0  0  0  0  0  0
   -0.4234    2.0060   -0.1875 H   0  0  0  0  0  0  0  0  0  0  0  0
   -0.8609    1.0620   -1.6067 H   0  0  0  0  0  0  0  0  0  0  0  0
   -2.4825    1.5676   -0.3110 C   0  0  0  0  0  0  0  0  0  0  0  0
   -3.2933    2.2600   -1.2114 N   0  0  0  0  0  0  0  0  0  0  0  0
   -4.4986    2.3485   -0.6303 C   0  0  0  0  0  0  0  0  0  0  0  0
   -5.3558    2.8427   -1.0699 H   0  0  0  0  0  0  0  0  0  0  0  0
   -4.4908    1.7314    0.5631 N   0  0  0  0  0  0  0  0  0  0  0  0
   -5.2842    1.6444    1.1834 H   0  0  0  0  0  0  0  0  0  0  0  0
   -3.2273    1.2284    0.7806 C   0  0  0  0  0  0  0  0  0  0  0  0
   -2.8809    0.6563    1.6321 H   0  0  0  0  0  0  0  0  0  0  0  0
   -0.0283    0.1609    1.5831 C   0  0  0  0  0  0  0  0  0  0  0  0
    1.1923    0.1056    1.7329 O   0  0  0  0  0  0  0  0  0  0  0  0
   -0.8586    0.4659    2.5853 N   0  0  0  0  0  0  0  0  0  0  0  0
   -1.8521    0.3848    2.4000 H   0  0  0  0  0  0  0  0  0  0  0  0
   -0.4403    0.7694    3.9518 C   0  0  0  0  0  0  0  0  0  0  0  0
    0.5066    1.3154    3.9421 H   0  0  0  0  0  0  0  0  0  0  0  0
   -1.1988    1.3789    4.4452 H   0  0  0  0  0  0  0  0  0  0  0  0
   -0.3053   -0.1600    4.5075 H   0  0  0  0  0  0  0  0  0  0  0  0
  5  6  2  0  0  0  0
  5  7  1  0  0  0  0
  2  3  1  0  0  0  0
  2  4  1  0  0  0  0
  2  5  1  0  0  0  0
  1  2  1  0  0  0  0
 22 23  2  0  0  0  0
 22 24  1  0  0  0  0
 20 21  1  0  0  0  0
 18 19  1  0  0  0  0
 18 20  1  0  0  0  0
 16 17  1  0  0  0  0
 16 18  1  0  0  0  0
 15 16  2  0  0  0  0
 14 15  1  0  0  0  0
 14 20  2  0  0  0  0
 11 12  1  0  0  0  0
 11 13  1  0  0  0  0
 11 14  1  0  0  0  0
  9 10  1  0  0  0  0
  9 11  1  0  0  0  0
  9 22  1  0  0  0  0
  7  8  1  0  0  0  0
  7  9  1  0  0  0  0
 26 27  1  0  0  0  0
 26 28  1  0  0  0  0
 26 29  1  0  0  0  0
 24 25  1  0  0  0  0
 24 26  1  0  0  0  0
M  END
$$$$
default_name
  -OEChem-02102213163D

 29 29  0     1  0  0  0  0  0999 V2000
   -2.9561   -3.9186    1.3887 H   0  0  0  0  0  0  0  0  0  0  0  0
   -3.1191   -2.9346    0.9517 C   0  0  0  0  0  0  0  0  0  0  0  0
   -3.7811   -2.3546    1.5917 H   0  0  0  0  0  0  0  0  0  0  0  0
   -3.5591   -3.0406   -0.0383 H   0  0  0  0  0  0  0  0  0  0  0  0
   -1.7921   -2.2226    0.8327 C   0  0  0  0  0  0  0  0  0  0  0  0
   -0.7611   -2.7766    1.1927 O   0  0  0  0  0  0  0  0  0  0  0  0
   -1.8201   -0.9926    0.3247 N   0  0  0  0  0  0  0  0  0  0  0  0
   -2.7141   -0.5816    0.0927 H   0  0  0  0  0  0  0  0  0  0  0  0
   -0.6481   -0.1156    0.2017 C   0  0  1  0  0  0  0  0  0  0  0  0
    0.1042   -0.6345   -0.3958 H   0  0  0  0  0  0  0  0  0  0  0  0
   -1.0420    1.1781   -0.5372 C   0  0  0  0  0  0  0  0  0  0  0  0
   -0.4234    2.0060   -0.1875 H   0  0  0  0  0  0  0  0  0  0  0  0
   -0.8609    1.0620   -1.6067 H   0  0  0  0  0  0  0  0  0  0  0  0
   -2.4825    1.5676   -0.3110 C   0  0  0  0  0  0  0  0  0  0  0  0
   -3.3793    1.9897   -1.2934 N   0  0  0  0  0  0  0  0  0  0  0  0
   -4.5491    2.1830   -0.6671 C   0  0  0  0  0  0  0  0  0  0  0  0
   -5.4542    2.5264   -1.1520 H   0  0  0  0  0  0  0  0  0  0  0  0
   -4.4383    1.8822    0.6377 N   0  0  0  0  0  0  0  0  0  0  0  0
   -5.1868    1.9279    1.3156 H   0  0  0  0  0  0  0  0  0  0  0  0
   -3.1415    1.4877    0.8809 C   0  0  0  0  0  0  0  0  0  0  0  0
   -2.7164    1.1557    1.8198 H   0  0  0  0  0  0  0  0  0  0  0  0
   -0.0283    0.1609    1.5831 C   0  0  0  0  0  0  0  0  0  0  0  0
    1.1923    0.1056    1.7329 O   0  0  0  0  0  0  0  0  0  0  0  0
   -0.8586    0.4659    2.5853 N   0  0  0  0  0  0  0  0  0  0  0  0
   -1.8521    0.3848    2.4000 H   0  0  0  0  0  0  0  0  0  0  0  0
   -0.4403    0.7694    3.9518 C   0  0  0  0  0  0  0  0  0  0  0  0
    0.5066    1.3154    3.9421 H   0  0  0  0  0  0  0  0  0  0  0  0
   -1.1988    1.3789    4.4452 H   0  0  0  0  0  0  0  0  0  0  0  0
   -0.3053   -0.1600    4.5075 H   0  0  0  0  0  0  0  0  0  0  0  0
  5  6  2  0  0  0  0
  5  7  1  0  0  0  0
  2  3  1  0  0  0  0
  2  4  1  0  0  0  0
  2  5  1  0  0  0  0
  1  2  1  0  0  0  0
 22 23  2  0  0  0  0
 22 24  1  0  0  0  0
 20 21  1  0  0  0  0
 18 19  1  0  0  0  0
 18 20  1  0  0  0  0
 16 17  1  0  0  0  0
 16 18  1  0  0  0  0
 15 16  2  0  0  0  0
 14 15  1  0  0  0  0
 14 20  2  0  0  0  0
 11 12  1  0  0  0  0
 11 13  1  0  0  0  0
 11 14  1  0  0  0  0
  9 10  1  0  0  0  0
  9 11  1  0  0  0  0
  9 22  1  0  0  0  0
  7  8  1  0  0  0  0
  7  9  1  0  0  0  0
 26 27  1  0  0  0  0
 26 28  1  0  0  0  0
 26 29  1  0  0  0  0
 24 25  1  0  0  0  0
 24 26  1  0  0  0  0
M  END
$$$$
default_name
  -OEChem-02102213163D

 29 29  0     1  0  0  0  0  0999 V2000
   -2.9561   -3.9186    1.3887 H   0  0  0  0  0  0  0  0  0  0  0  0
   -3.1191   -2.9346    0.9517 C   0  0  0  0  0  0  0  0  0  0  0  0
   -3.7811   -2.3546    1.5917 H   0  0  0  0  0  0  0  0  0  0  0  0
   -3.5591   -3.0406   -0.0383 H   0  0  0  0  0  0  0  0  0  0  0  0
   -1.7921   -2.2226    0.8327 C   0  0  0  0  0  0  0  0  0  0  0  0
   -0.7611   -2.7766    1.1927 O   0  0  0  0  0  0  0  0  0  0  0  0
   -1.8201   -0.9926    0.3247 N   0  0  0  0  0  0  0  0  0  0  0  0
   -2.7141   -0.5816    0.0927 H   0  0  0  0  0  0  0  0  0  0  0  0
   -0.6481   -0.1156    0.2017 C   0  0  1  0  0  0  0  0  0  0  0  0
    0.1042   -0.6345   -0.3958 H   0  0  0  0  0  0  0  0  0  0  0  0
   -1.0420    1.1781   -0.5372 C   0  0  0  0  0  0  0  0  0  0  0  0
   -0.4234    2.0060   -0.1875 H   0  0  0  0  0  0  0  0  0  0  0  0
   -0.8609    1.0620   -1.6067 H   0  0  0  0  0  0  0  0  0  0  0  0
   -2.4825    1.5676   -0.3110 C   0  0  0  0  0  0  0  0  0  0  0  0
   -3.4573    1.7051   -1.3001 N   0  0  0  0  0  0  0  0  0  0  0  0
   -4.5940    2.0122   -0.6583 C   0  0  0  0  0  0  0  0  0  0  0  0
   -5.5425    2.1966   -1.1466 H   0  0  0  0  0  0  0  0  0  0  0  0
   -4.3884    2.0483    0.6690 N   0  0  0  0  0  0  0  0  0  0  0  0
   -5.0949    2.2382    1.3667 H   0  0  0  0  0  0  0  0  0  0  0  0
   -3.0619    1.7662    0.9081 C   0  0  0  0  0  0  0  0  0  0  0  0
   -2.5643    1.6909    1.8668 H   0  0  0  0  0  0  0  0  0  0  0  0
   -0.0283    0.1609    1.5831 C   0  0  0  0  0  0  0  0  0  0  0  0
    1.1923    0.1056    1.7329 O   0  0  0  0  0  0  0  0  0  0  0  0
   -0.8586    0.4659    2.5853 N   0  0  0  0  0  0  0  0  0  0  0  0
   -1.8521    0.3848    2.4000 H   0  0  0  0  0  0  0  0  0  0  0  0
   -0.4403    0.7694    3.9518 C   0  0  0  0  0  0  0  0  0  0  0  0
    0.5066    1.3154    3.9421 H   0  0  0  0  0  0  0  0  0  0  0  0
   -1.1988    1.3789    4.4452 H   0  0  0  0  0  0  0  0  0  0  0  0
   -0.3053   -0.1600    4.5075 H   0  0  0  0  0  0  0  0  0  0  0  0
  5  6  2  0  0  0  0
  5  7  1  0  0  0  0
  2  3  1  0  0  0  0
  2  4  1  0  0  0  0
  2  5  1  0  0  0  0
  1  2  1  0  0  0  0
 22 23  2  0  0  0  0
 22 24  1  0  0  0  0
 20 21  1  0  0  0  0
 18 19  1  0  0  0  0
 18 20  1  0  0  0  0
 16 17  1  0  0  0  0
 16 18  1  0  0  0  0
 15 16  2  0  0  0  0
 14 15  1  0  0  0  0
 14 20  2  0  0  0  0
 11 12  1  0  0  0  0
 11 13  1  0  0  0  0
 11 14  1  0  0  0  0
  9 10  1  0  0  0  0
  9 11  1  0  0  0  0
  9 22  1  0  0  0  0
  7  8  1  0  0  0  0
  7  9  1  0  0  0  0
 26 27  1  0  0  0  0
 26 28  1  0  0  0  0
 26 29  1  0  0  0  0
 24 25  1  0  0  0  0
 24 26  1  0  0  0  0
M  END
$$$$
default_name
  -OEChem-02102213163D

 29 29  0     1  0  0  0  0  0999 V2000
   -2.9561   -3.9186    1.3887 H   0  0  0  0  0  0  0  0  0  0  0  0
   -3.1191   -2.9346    0.9517 C   0  0  0  0  0  0  0  0  0  0  0  0
   -3.7811   -2.3546    1.5917 H   0  0  0  0  0  0  0  0  0  0  0  0
   -3.5591   -3.0406   -0.0383 H   0  0  0  0  0  0  0  0  0  0  0  0
   -1.7921   -2.2226    0.8327 C   0  0  0  0  0  0  0  0  0  0  0  0
   -0.7611   -2.7766    1.1927 O   0  0  0  0  0  0  0  0  0  0  0  0
   -1.8201   -0.9926    0.3247 N   0  0  0  0  0  0  0  0  0  0  0  0
   -2.7141   -0.5816    0.0927 H   0  0  0  0  0  0  0  0  0  0  0  0
   -0.6481   -0.1156    0.2017 C   0  0  1  0  0  0  0  0  0  0  0  0
    0.1042   -0.6345   -0.3958 H   0  0  0  0  0  0  0  0  0  0  0  0
   -1.0420    1.1781   -0.5372 C   0  0  0  0  0  0  0  0  0  0  0  0
   -0.4234    2.0060   -0.1875 H   0  0  0  0  0  0  0  0  0  0  0  0
   -0.8609    1.0620   -1.6067 H   0  0  0  0  0  0  0  0  0  0  0  0
   -2.4825    1.5676   -0.3110 C   0  0  0  0  0  0  0  0  0  0  0  0
   -3.5221    1.4254   -1.2311 N   0  0  0  0  0  0  0  0  0  0  0  0
   -4.6300    1.8476   -0.6046 C   0  0  0  0  0  0  0  0  0  0  0  0
   -5.6147    1.8761   -1.0540 H   0  0  0  0  0  0  0  0  0  0  0  0
   -4.3447    2.2185    0.6549 N   0  0  0  0  0  0  0  0  0  0  0  0
   -5.0147    2.5541    1.3333 H   0  0  0  0  0  0  0  0  0  0  0  0
   -2.9940    2.0450    0.8602 C   0  0  0  0  0  0  0  0  0  0  0  0
   -2.4350    2.2253    1.7698 H   0  0  0  0  0  0  0  0  0  0  0  0
   -0.0283    0.1609    1.5831 C   0  0  0  0  0  0  0  0  0  0  0  0
    1.1923    0.1056    1.7329 O   0  0  0  0  0  0  0  0  0  0  0  0
   -0.8586    0.4659    2.5853 N   0  0  0  0  0  0  0  0  0  0  0  0
   -1.8521    0.3848    2.4000 H   0  0  0  0  0  0  0  0  0  0  0  0
   -0.4403    0.7694    3.9518 C   0  0  0  0  0  0  0  0  0  0  0  0
    0.5066    1.3154    3.9421 H   0  0  0  0  0  0  0  0  0  0  0  0
   -1.1988    1.3789    4.4452 H   0  0  0  0  0  0  0  0  0  0  0  0
   -0.3053   -0.1600    4.5075 H   0  0  0  0  0  0  0  0  0  0  0  0
  5  6  2  0  0  0  0
  5  7  1  0  0  0  0
  2  3  1  0  0  0  0
  2  4  1  0  0  0  0
  2  5  1  0  0  0  0
  1  2  1  0  0  0  0
 22 23  2  0  0  0  0
 22 24  1  0  0  0  0
 20 21  1  0  0  0  0
 18 19  1  0  0  0  0
 18 20  1  0  0  0  0
 16 17  1  0  0  0  0
 16 18  1  0  0  0  0
 15 16  2  0  0  0  0
 14 15  1  0  0  0  0
 14 20  2  0  0  0  0
 11 12  1  0  0  0  0
 11 13  1  0  0  0  0
 11 14  1  0  0  0  0
  9 10  1  0  0  0  0
  9 11  1  0  0  0  0
  9 22  1  0  0  0  0
  7  8  1  0  0  0  0
  7  9  1  0  0  0  0
 26 27  1  0  0  0  0
 26 28  1  0  0  0  0
 26 29  1  0  0  0  0
 24 25  1  0  0  0  0
 24 26  1  0  0  0  0
M  END
$$$$
default_name
  -OEChem-02102213163D

 29 29  0     1  0  0  0  0  0999 V2000
   -2.9561   -3.9186    1.3887 H   0  0  0  0  0  0  0  0  0  0  0  0
   -3.1191   -2.9346    0.9517 C   0  0  0  0  0  0  0  0  0  0  0  0
   -3.7811   -2.3546    1.5917 H   0  0  0  0  0  0  0  0  0  0  0  0
   -3.5591   -3.0406   -0.0383 H   0  0  0  0  0  0  0  0  0  0  0  0
   -1.7921   -2.2226    0.8327 C   0  0  0  0  0  0  0  0  0  0  0  0
   -0.7611   -2.7766    1.1927 O   0  0  0  0  0  0  0  0  0  0  0  0
   -1.8201   -0.9926    0.3247 N   0  0  0  0  0  0  0  0  0  0  0  0
   -2.7141   -0.5816    0.0927 H   0  0  0  0  0  0  0  0  0  0  0  0
   -0.6481   -0.1156    0.2017 C   0  0  1  0  0  0  0  0  0  0  0  0
    0.1042   -0.6345   -0.3958 H   0  0  0  0  0  0  0  0  0  0  0  0
   -1.0420    1.1781   -0.5372 C   0  0  0  0  0  0  0  0  0  0  0  0
   -0.4234    2.0060   -0.1875 H   0  0  0  0  0  0  0  0  0  0  0  0
   -0.8609    1.0620   -1.6067 H   0  0  0  0  0  0  0  0  0  0  0  0
   -2.4825    1.5676   -0.3110 C   0  0  0  0  0  0  0  0  0  0  0  0
   -3.5692    1.1699   -1.0910 N   0  0  0  0  0  0  0  0  0  0  0  0
   -4.6549    1.7005   -0.5097 C   0  0  0  0  0  0  0  0  0  0  0  0
   -5.6657    1.5865   -0.8806 H   0  0  0  0  0  0  0  0  0  0  0  0
   -4.3099    2.3810    0.5963 N   0  0  0  0  0  0  0  0  0  0  0  0
   -4.9518    2.8541    1.2176 H   0  0  0  0  0  0  0  0  0  0  0  0
   -2.9424    2.3051    0.7406 C   0  0  0  0  0  0  0  0  0  0  0  0
   -2.3373    2.7226    1.5355 H   0  0  0  0  0  0  0  0  0  0  0  0
   -0.0283    0.1609    1.5831 C   0  0  0  0  0  0  0  0  0  0  0  0
    1.1923    0.1056    1.7329 O   0  0  0  0  0  0  0  0  0  0  0  0
   -0.8586    0.4659    2.5853 N   0  0  0  0  0  0  0  0  0  0  0  0
   -1.8521    0.3848    2.4000 H   0  0  0  0  0  0  0  0  0  0  0  0
   -0.4403    0.7694    3.9518 C   0  0  0  0  0  0  0  0  0  0  0  0
    0.5066    1.3154    3.9421 H   0  0  0  0  0  0  0  0  0  0  0  0
   -1.1988    1.3789    4.4452 H   0  0  0  0  0  0  0  0  0  0  0  0
   -0.3053   -0.1600    4.5075 H   0  0  0  0  0  0  0  0  0  0  0  0
  5  6  2  0  0  0  0
  5  7  1  0  0  0  0
  2  3  1  0  0  0  0
  2  4  1  0  0  0  0
  2  5  1  0  0  0  0
  1  2  1  0  0  0  0
 22 23  2  0  0  0  0
 22 24  1  0  0  0  0
 20 21  1  0  0  0  0
 18 19  1  0  0  0  0
 18 20  1  0  0  0  0
 16 17  1  0  0  0  0
 16 18  1  0  0  0  0
 15 16  2  0  0  0  0
 14 15  1  0  0  0  0
 14 20  2  0  0  0  0
 11 12  1  0  0  0  0
 11 13  1  0  0  0  0
 11 14  1  0  0  0  0
  9 10  1  0  0  0  0
  9 11  1  0  0  0  0
  9 22  1  0  0  0  0
  7  8  1  0  0  0  0
  7  9  1  0  0  0  0
 26 27  1  0  0  0  0
 26 28  1  0  0  0  0
 26 29  1  0  0  0  0
 24 25  1  0  0  0  0
 24 26  1  0  0  0  0
M  END
$$$$
default_name
  -OEChem-02102213163D

 29 29  0     1  0  0  0  0  0999 V2000
   -2.9561   -3.9186    1.3887 H   0  0  0  0  0  0  0  0  0  0  0  0
   -3.1191   -2.9346    0.9517 C   0  0  0  0  0  0  0  0  0  0  0  0
   -3.7811   -2.3546    1.5917 H   0  0  0  0  0  0  0  0  0  0  0  0
   -3.5591   -3.0406   -0.0383 H   0  0  0  0  0  0  0  0  0  0  0  0
   -1.7921   -2.2226    0.8327 C   0  0  0  0  0  0  0  0  0  0  0  0
   -0.7611   -2.7766    1.1927 O   0  0  0  0  0  0  0  0  0  0  0  0
   -1.8201   -0.9926    0.3247 N   0  0  0  0  0  0  0  0  0  0  0  0
   -2.7141   -0.5816    0.0927 H   0  0  0  0  0  0  0  0  0  0  0  0
   -0.6481   -0.1156    0.2017 C   0  0  1  0  0  0  0  0  0  0  0  0
    0.1042   -0.6345   -0.3958 H   0  0  0  0  0  0  0  0  0  0  0  0
   -1.0420    1.1781   -0.5372 C   0  0  0  0  0  0  0  0  0  0  0  0
   -0.4234    2.0060   -0.1875 H   0  0  0  0  0  0  0  0  0  0  0  0
   -0.8609    1.0620   -1.6067 H   0  0  0  0  0  0  0  0  0  0  0  0
   -2.4825    1.5676   -0.3110 C   0  0  0  0  0  0  0  0  0  0  0  0
   -3.5954    0.9558   -0.8894 N   0  0  0  0  0  0  0  0  0  0  0  0
   -4.6669    1.5809   -0.3801 C   0  0  0  0  0  0  0  0  0  0  0  0
   -5.6922    1.3477   -0.6381 H   0  0  0  0  0  0  0  0  0  0  0  0
   -4.2866    2.5249    0.4972 N   0  0  0  0  0  0  0  0  0  0  0  0
   -4.9103    3.1177    1.0276 H   0  0  0  0  0  0  0  0  0  0  0  0
   -2.9107    2.5289    0.5573 C   0  0  0  0  0  0  0  0  0  0  0  0
   -2.2779    3.1489    1.1798 H   0  0  0  0  0  0  0  0  0  0  0  0
   -0.0283    0.1609    1.5831 C   0  0  0  0  0  0  0  0  0  0  0  0
    1.1923    0.1056    1.7329 O   0  0  0  0  0  0  0  0  0  0  0  0
   -0.8586    0.4659    2.5853 N   0  0  0  0  0  0  0  0  0  0  0  0
   -1.8521    0.3848    2.4000 H   0  0  0  0  0  0  0  0  0  0  0  0
   -0.4403    0.7694    3.9518 C   0  0  0  0  0  0  0  0  0  0  0  0
    0.5066    1.3154    3.9421 H   0  0  0  0  0  0  0  0  0  0  0  0
   -1.1988    1.3789    4.4452 H   0  0  0  0  0  0  0  0  0  0  0  0
   -0.3053   -0.1600    4.5075 H   0  0  0  0  0  0  0  0  0  0  0  0
  5  6  2  0  0  0  0
  5  7  1  0  0  0  0
  2  3  1  0  0  0  0
  2  4  1  0  0  0  0
  2  5  1  0  0  0  0
  1  2  1  0  0  0  0
 22 23  2  0  0  0  0
 22 24  1  0  0  0  0
 20 21  1  0  0  0  0
 18 19  1  0  0  0  0
 18 20  1  0  0  0  0
 16 17  1  0  0  0  0
 16 18  1  0  0  0  0
 15 16  2  0  0  0  0
 14 15  1  0  0  0  0
 14 20  2  0  0  0  0
 11 12  1  0  0  0  0
 11 13  1  0  0  0  0
 11 14  1  0  0  0  0
  9 10  1  0  0  0  0
  9 11  1  0  0  0  0
  9 22  1  0  0  0  0
  7  8  1  0  0  0  0
  7  9  1  0  0  0  0
 26 27  1  0  0  0  0
 26 28  1  0  0  0  0
 26 29  1  0  0  0  0
 24 25  1  0  0  0  0
 24 26  1  0  0  0  0
M  END
$$$$
default_name
  -OEChem-02102213163D

 29 29  0     1  0  0  0  0  0999 V2000
   -2.9561   -3.9186    1.3887 H   0  0  0  0  0  0  0  0  0  0  0  0
   -3.1191   -2.9346    0.9517 C   0  0  0  0  0  0  0  0  0  0  0  0
   -3.7811   -2.3546    1.5917 H   0  0  0  0  0  0  0  0  0  0  0  0
   -3.5591   -3.0406   -0.0383 H   0  0  0  0  0  0  0  0  0  0  0  0
   -1.7921   -2.2226    0.8327 C   0  0  0  0  0  0  0  0  0  0  0  0
   -0.7611   -2.7766    1.1927 O   0  0  0  0  0  0  0  0  0  0  0  0
   -1.8201   -0.9926    0.3247 N   0  0  0  0  0  0  0  0  0  0  0  0
   -2.7141   -0.5816    0.0927 H   0  0  0  0  0  0  0  0  0  0  0  0
   -0.6481   -0.1156    0.2017 C   0  0  1  0  0  0  0  0  0  0  0  0
    0.1042   -0.6345   -0.3958 H   0  0  0  0  0  0  0  0  0  0  0  0
   -1.0420    1.1781   -0.5372 C   0  0  0  0  0  0  0  0  0  0  0  0
   -0.4234    2.0060   -0.1875 H   0  0  0  0  0  0  0  0  0  0  0  0
   -0.8609    1.0620   -1.6067 H   0  0  0  0  0  0  0  0  0  0  0  0
   -2.4825    1.5676   -0.3110 C   0  0  0  0  0  0  0  0  0  0  0  0
   -3.5990    0.7977   -0.6400 N   0  0  0  0  0  0  0  0  0  0  0  0
   -4.6652    1.4969   -0.2244 C   0  0  0  0  0  0  0  0  0  0  0  0
   -5.6924    1.1759   -0.3431 H   0  0  0  0  0  0  0  0  0  0  0  0
   -4.2762    2.6403    0.3643 N   0  0  0  0  0  0  0  0  0  0  0  0
   -4.8932    3.3270    0.7762 H   0  0  0  0  0  0  0  0  0  0  0  0
   -2.9010    2.7009    0.3229 C   0  0  0  0  0  0  0  0  0  0  0  0
   -2.2609    3.4750    0.7270 H   0  0  0  0  0  0  0  0  0  0  0  0
   -0.0283    0.1609    1.5831 C   0  0  0  0  0  0  0  0  0  0  0  0
    1.1923    0.1056    1.7329 O   0  0  0  0  0  0  0  0  0  0  0  0
   -0.8586    0.4659    2.5853 N   0  0  0  0  0  0  0  0  0  0  0  0
   -1.8521    0.3848    2.4000 H   0  0  0  0  0  0  0  0  0  0  0  0
   -0.4403    0.7694    3.9518 C   0  0  0  0  0  0  0  0  0  0  0  0
    0.5066    1.3154    3.9421 H   0  0  0  0  0  0  0  0  0  0  0  0
   -1.1988    1.3789    4.4452 H   0  0  0  0  0  0  0  0  0  0  0  0
   -0.3053   -0.1600    4.5075 H   0  0  0  0  0  0  0  0  0  0  0  0
  5  6  2  0  0  0  0
  5  7  1  0  0  0  0
  2  3  1  0  0  0  0
  2  4  1  0  0  0  0
  2  5  1  0  0  0  0
  1  2  1  0  0  0  0
 22 23  2  0  0  0  0
 22 24  1  0  0  0  0
 20 21  1  0  0  0  0
 18 19  1  0  0  0  0
 18 20  1  0  0  0  0
 16 17  1  0  0  0  0
 16 18  1  0  0  0  0
 15 16  2  0  0  0  0
 14 15  1  0  0  0  0
 14 20  2  0  0  0  0
 11 12  1  0  0  0  0
 11 13  1  0  0  0  0
 11 14  1  0  0  0  0
  9 10  1  0  0  0  0
  9 11  1  0  0  0  0
  9 22  1  0  0  0  0
  7  8  1  0  0  0  0
  7  9  1  0  0  0  0
 26 27  1  0  0  0  0
 26 28  1  0  0  0  0
 26 29  1  0  0  0  0
 24 25  1  0  0  0  0
 24 26  1  0  0  0  0
M  END
$$$$
default_name
  -OEChem-02102213163D

 29 29  0     1  0  0  0  0  0999 V2000
   -2.9561   -3.9186    1.3887 H   0  0  0  0  0  0  0  0  0  0  0  0
   -3.1191   -2.9346    0.9517 C   0  0  0  0  0  0  0  0  0  0  0  0
   -3.7811   -2.3546    1.5917 H   0  0  0  0  0  0  0  0  0  0  0  0
   -3.5591   -3.0406   -0.0383 H   0  0  0  0  0  0  0  0  0  0  0  0
   -1.7921   -2.2226    0.8327 C   0  0  0  0  0  0  0  0  0  0  0  0
   -0.7611   -2.7766    1.1927 O   0  0  0  0  0  0  0  0  0  0  0  0
   -1.8201   -0.9926    0.3247 N   0  0  0  0  0  0  0  0  0  0  0  0
   -2.7141   -0.5816    0.0927 H   0  0  0  0  0  0  0  0  0  0  0  0
   -0.6481   -0.1156    0.2017 C   0  0  1  0  0  0  0  0  0  0  0  0
    0.1042   -0.6345   -0.3958 H   0  0  0  0  0  0  0  0  0  0  0  0
   -1.0420    1.1781   -0.5372 C   0  0  0  0  0  0  0  0  0  0  0  0
   -0.4234    2.0060   -0.1875 H   0  0  0  0  0  0  0  0  0  0  0  0
   -0.8609    1.0620   -1.6067 H   0  0  0  0  0  0  0  0  0  0  0  0
   -2.4825    1.5676   -0.3110 C   0  0  0  0  0  0  0  0  0  0  0  0
   -3.5796    0.7066   -0.3599 N   0  0  0  0  0  0  0  0  0  0  0  0
   -4.6498    1.4543   -0.0535 C   0  0  0  0  0  0  0  0  0  0  0  0
   -5.6661    1.0828   -0.0157 H   0  0  0  0  0  0  0  0  0  0  0  0
   -4.2796    2.7193    0.2068 N   0  0  0  0  0  0  0  0  0  0  0  0
   -4.9016    3.4677    0.4804 H   0  0  0  0  0  0  0  0  0  0  0  0
   -2.9140    2.8096    0.0534 C   0  0  0  0  0  0  0  0  0  0  0  0
   -2.2873    3.6789    0.2079 H   0  0  0  0  0  0  0  0  0  0  0  0
   -0.0283    0.1609    1.5831 C   0  0  0  0  0  0  0  0  0  0  0  0
    1.1923    0.1056    1.7329 O   0  0  0  0  0  0  0  0  0  0  0  0
   -0.8586    0.4659    2.5853 N   0  0  0  0  0  0  0  0  0  0  0  0
   -1.8521    0.3848    2.4000 H   0  0  0  0  0  0  0  0  0  0  0  0
   -0.4403    0.7694    3.9518 C   0  0  0  0  0  0  0  0  0  0  0  0
    0.5066    1.3154    3.9421 H   0  0  0  0  0  0  0  0  0  0  0  0
   -1.1988    1.3789    4.4452 H   0  0  0  0  0  0  0  0  0  0  0  0
   -0.3053   -0.1600    4.5075 H   0  0  0  0  0  0  0  0  0  0  0  0
  5  6  2  0  0  0  0
  5  7  1  0  0  0  0
  2  3  1  0  0  0  0
  2  4  1  0  0  0  0
  2  5  1  0  0  0  0
  1  2  1  0  0  0  0
 22 23  2  0  0  0  0
 22 24  1  0  0  0  0
 20 21  1  0  0  0  0
 18 19  1  0  0  0  0
 18 20  1  0  0  0  0
 16 17  1  0  0  0  0
 16 18  1  0  0  0  0
 15 16  2  0  0  0  0
 14 15  1  0  0  0  0
 14 20  2  0  0  0  0
 11 12  1  0  0  0  0
 11 13  1  0  0  0  0
 11 14  1  0  0  0  0
  9 10  1  0  0  0  0
  9 11  1  0  0  0  0
  9 22  1  0  0  0  0
  7  8  1  0  0  0  0
  7  9  1  0  0  0  0
 26 27  1  0  0  0  0
 26 28  1  0  0  0  0
 26 29  1  0  0  0  0
 24 25  1  0  0  0  0
 24 26  1  0  0  0  0
M  END
$$$$
default_name
  -OEChem-02102213163D

 29 29  0     1  0  0  0  0  0999 V2000
   -2.9561   -3.9186    1.3887 H   0  0  0  0  0  0  0  0  0  0  0  0
   -3.1191   -2.9346    0.9517 C   0  0  0  0  0  0  0  0  0  0  0  0
   -3.7811   -2.3546    1.5917 H   0  0  0  0  0  0  0  0  0  0  0  0
   -3.5591   -3.0406   -0.0383 H   0  0  0  0  0  0  0  0  0  0  0  0
   -1.7921   -2.2226    0.8327 C   0  0  0  0  0  0  0  0  0  0  0  0
   -0.7611   -2.7766    1.1927 O   0  0  0  0  0  0  0  0  0  0  0  0
   -1.8201   -0.9926    0.3247 N   0  0  0  0  0  0  0  0  0  0  0  0
   -2.7141   -0.5816    0.0927 H   0  0  0  0  0  0  0  0  0  0  0  0
   -0.6481   -0.1156    0.2017 C   0  0  1  0  0  0  0  0  0  0  0  0
    0.1042   -0.6345   -0.3958 H   0  0  0  0  0  0  0  0  0  0  0  0
   -1.0420    1.1781   -0.5372 C   0  0  0  0  0  0  0  0  0  0  0  0
   -0.4234    2.0060   -0.1875 H   0  0  0  0  0  0  0  0  0  0  0  0
   -0.8609    1.0620   -1.6067 H   0  0  0  0  0  0  0  0  0  0  0  0
   -2.4825    1.5676   -0.3110 C   0  0  0  0  0  0  0  0  0  0  0  0
   -3.5387    0.6885   -0.0681 N   0  0  0  0  0  0  0  0  0  0  0  0
   -4.6220    1.4559    0.1211 C   0  0  0  0  0  0  0  0  0  0  0  0
   -5.6153    1.0747    0.3218 H   0  0  0  0  0  0  0  0  0  0  0  0
   -4.2964    2.7567    0.0354 N   0  0  0  0  0  0  0  0  0  0  0  0
   -4.9349    3.5303    0.1606 H   0  0  0  0  0  0  0  0  0  0  0  0
   -2.9487    2.8474   -0.2330 C   0  0  0  0  0  0  0  0  0  0  0  0
   -2.3554    3.7465   -0.3421 H   0  0  0  0  0  0  0  0  0  0  0  0
   -0.0283    0.1609    1.5831 C   0  0  0  0  0  0  0  0  0  0  0  0
    1.1923    0.1056    1.7329 O   0  0  0  0  0  0  0  0  0  0  0  0
   -0.8586    0.4659    2.5853 N   0  0  0  0  0  0  0  0  0  0  0  0
   -1.8521    0.3848    2.4000 H   0  0  0  0  0  0  0  0  0  0  0  0
   -0.4403    0.7694    3.9518 C   0  0  0  0  0  0  0  0  0  0  0  0
    0.5066    1.3154    3.9421 H   0  0  0  0  0  0  0  0  0  0  0  0
   -1.1988    1.3789    4.4452 H   0  0  0  0  0  0  0  0  0  0  0  0
   -0.3053   -0.1600    4.5075 H   0  0  0  0  0  0  0  0  0  0  0  0
  5  6  2  0  0  0  0
  5  7  1  0  0  0  0
  2  3  1  0  0  0  0
  2  4  1  0  0  0  0
  2  5  1  0  0  0  0
  1  2  1  0  0  0  0
 22 23  2  0  0  0  0
 22 24  1  0  0  0  0
 20 21  1  0  0  0  0
 18 19  1  0  0  0  0
 18 20  1  0  0  0  0
 16 17  1  0  0  0  0
 16 18  1  0  0  0  0
 15 16  2  0  0  0  0
 14 15  1  0  0  0  0
 14 20  2  0  0  0  0
 11 12  1  0  0  0  0
 11 13  1  0  0  0  0
 11 14  1  0  0  0  0
  9 10  1  0  0  0  0
  9 11  1  0  0  0  0
  9 22  1  0  0  0  0
  7  8  1  0  0  0  0
  7  9  1  0  0  0  0
 26 27  1  0  0  0  0
 26 28  1  0  0  0  0
 26 29  1  0  0  0  0
 24 25  1  0  0  0  0
 24 26  1  0  0  0  0
M  END
$$$$
default_name
  -OEChem-02102213163D

 29 29  0     1  0  0  0  0  0999 V2000
   -2.9561   -3.9186    1.3887 H   0  0  0  0  0  0  0  0  0  0  0  0
   -3.1191   -2.9346    0.9517 C   0  0  0  0  0  0  0  0  0  0  0  0
   -3.7811   -2.3546    1.5917 H   0  0  0  0  0  0  0  0  0  0  0  0
   -3.5591   -3.0406   -0.0383 H   0  0  0  0  0  0  0  0  0  0  0  0
   -1.7921   -2.2226    0.8327 C   0  0  0  0  0  0  0  0  0  0  0  0
   -0.7611   -2.7766    1.1927 O   0  0  0  0  0  0  0  0  0  0  0  0
   -1.8201   -0.9926    0.3247 N   0  0  0  0  0  0  0  0  0  0  0  0
   -2.7141   -0.5816    0.0927 H   0  0  0  0  0  0  0  0  0  0  0  0
   -0.6481   -0.1156    0.2017 C   0  0  1  0  0  0  0  0  0  0  0  0
    0.1042   -0.6345   -0.3958 H   0  0  0  0  0  0  0  0  0  0  0  0
   -1.0420    1.1781   -0.5372 C   0  0  0  0  0  0  0  0  0  0  0  0
   -0.4234    2.0060   -0.1875 H   0  0  0  0  0  0  0  0  0  0  0  0
   -0.8609    1.0620   -1.6067 H   0  0  0  0  0  0  0  0  0  0  0  0
   -2.4825    1.5676   -0.3110 C   0  0  0  0  0  0  0  0  0  0  0  0
   -3.4789    0.7446    0.2156 N   0  0  0  0  0  0  0  0  0  0  0  0
   -4.5835    1.5017    0.2875 C   0  0  0  0  0  0  0  0  0  0  0  0
   -5.5434    1.1523    0.6463 H   0  0  0  0  0  0  0  0  0  0  0  0
   -4.3256    2.7497   -0.1383 N   0  0  0  0  0  0  0  0  0  0  0  0
   -4.9909    3.5104   -0.1616 H   0  0  0  0  0  0  0  0  0  0  0  0
   -3.0029    2.8119   -0.5166 C   0  0  0  0  0  0  0  0  0  0  0  0
   -2.4605    3.6733   -0.8856 H   0  0  0  0  0  0  0  0  0  0  0  0
   -0.0283    0.1609    1.5831 C   0  0  0  0  0  0  0  0  0  0  0  0
    1.1923    0.1056    1.7329 O   0  0  0  0  0  0  0  0  0  0  0  0
   -0.8586    0.4659    2.5853 N   0  0  0  0  0  0  0  0  0  0  0  0
   -1.8521    0.3848    2.4000 H   0  0  0  0  0  0  0  0  0  0  0  0
   -0.4403    0.7694    3.9518 C   0  0  0  0  0  0  0  0  0  0  0  0
    0.5066    1.3154    3.9421 H   0  0  0  0  0  0  0  0  0  0  0  0
   -1.1988    1.3789    4.4452 H   0  0  0  0  0  0  0  0  0  0  0  0
   -0.3053   -0.1600    4.5075 H   0  0  0  0  0  0  0  0  0  0  0  0
  5  6  2  0  0  0  0
  5  7  1  0  0  0  0
  2  3  1  0  0  0  0
  2  4  1  0  0  0  0
  2  5  1  0  0  0  0
  1  2  1  0  0  0  0
 22 23  2  0  0  0  0
 22 24  1  0  0  0  0
 20 21  1  0  0  0  0
 18 19  1  0  0  0  0
 18 20  1  0  0  0  0
 16 17  1  0  0  0  0
 16 18  1  0  0  0  0
 15 16  2  0  0  0  0
 14 15  1  0  0  0  0
 14 20  2  0  0  0  0
 11 12  1  0  0  0  0
 11 13  1  0  0  0  0
 11 14  1  0  0  0  0
  9 10  1  0  0  0  0
  9 11  1  0  0  0  0
  9 22  1  0  0  0  0
  7  8  1  0  0  0  0
  7  9  1  0  0  0  0
 26 27  1  0  0  0  0
 26 28  1  0  0  0  0
 26 29  1  0  0  0  0
 24 25  1  0  0  0  0
 24 26  1  0  0  0  0
M  END
$$$$
default_name
  -OEChem-02102213163D

 29 29  0     1  0  0  0  0  0999 V2000
   -2.9561   -3.9186    1.3887 H   0  0  0  0  0  0  0  0  0  0  0  0
   -3.1191   -2.9346    0.9517 C   0  0  0  0  0  0  0  0  0  0  0  0
   -3.7811   -2.3546    1.5917 H   0  0  0  0  0  0  0  0  0  0  0  0
   -3.5591   -3.0406   -0.0383 H   0  0  0  0  0  0  0  0  0  0  0  0
   -1.7921   -2.2226    0.8327 C   0  0  0  0  0  0  0  0  0  0  0  0
   -0.7611   -2.7766    1.1927 O   0  0  0  0  0  0  0  0  0  0  0  0
   -1.8201   -0.9926    0.3247 N   0  0  0  0  0  0  0  0  0  0  0  0
   -2.7141   -0.5816    0.0927 H   0  0  0  0  0  0  0  0  0  0  0  0
   -0.6481   -0.1156    0.2017 C   0  0  1  0  0  0  0  0  0  0  0  0
    0.1042   -0.6345   -0.3958 H   0  0  0  0  0  0  0  0  0  0  0  0
   -1.0420    1.1781   -0.5372 C   0  0  0  0  0  0  0  0  0  0  0  0
   -0.4234    2.0060   -0.1875 H   0  0  0  0  0  0  0  0  0  0  0  0
   -0.8609    1.0620   -1.6067 H   0  0  0  0  0  0  0  0  0  0  0  0
   -2.4825    1.5676   -0.3110 C   0  0  0  0  0  0  0  0  0  0  0  0
   -3.4045    0.8713    0.4717 N   0  0  0  0  0  0  0  0  0  0  0  0
   -4.5369    1.5886    0.4343 C   0  0  0  0  0  0  0  0  0  0  0  0
   -5.4552    1.3102    0.9359 H   0  0  0  0  0  0  0  0  0  0  0  0
   -4.3651    2.6990   -0.3024 N   0  0  0  0  0  0  0  0  0  0  0  0
   -5.0657    3.4095   -0.4641 H   0  0  0  0  0  0  0  0  0  0  0  0
   -3.0727    2.7055   -0.7782 C   0  0  0  0  0  0  0  0  0  0  0  0
   -2.5955    3.4644   -1.3854 H   0  0  0  0  0  0  0  0  0  0  0  0
   -0.0283    0.1609    1.5831 C   0  0  0  0  0  0  0  0  0  0  0  0
    1.1923    0.1056    1.7329 O   0  0  0  0  0  0  0  0  0  0  0  0
   -0.8586    0.4659    2.5853 N   0  0  0  0  0  0  0  0  0  0  0  0
   -1.8521    0.3848    2.4000 H   0  0  0  0  0  0  0  0  0  0  0  0
   -0.4403    0.7694    3.9518 C   0  0  0  0  0  0  0  0  0  0  0  0
    0.5066    1.3154    3.9421 H   0  0  0  0  0  0  0  0  0  0  0  0
   -1.1988    1.3789    4.4452 H   0  0  0  0  0  0  0  0  0  0  0  0
   -0.3053   -0.1600    4.5075 H   0  0  0  0  0  0  0  0  0  0  0  0
  5  6  2  0  0  0  0
  5  7  1  0  0  0  0
  2  3  1  0  0  0  0
  2  4  1  0  0  0  0
  2  5  1  0  0  0  0
  1  2  1  0  0  0  0
 22 23  2  0  0  0  0
 22 24  1  0  0  0  0
 20 21  1  0  0  0  0
 18 19  1  0  0  0  0
 18 20  1  0  0  0  0
 16 17  1  0  0  0  0
 16 18  1  0  0  0  0
 15 16  2  0  0  0  0
 14 15  1  0  0  0  0
 14 20  2  0  0  0  0
 11 12  1  0  0  0  0
 11 13  1  0  0  0  0
 11 14  1  0  0  0  0
  9 10  1  0  0  0  0
  9 11  1  0  0  0  0
  9 22  1  0  0  0  0
  7  8  1  0  0  0  0
  7  9  1  0  0  0  0
 26 27  1  0  0  0  0
 26 28  1  0  0  0  0
 26 29  1  0  0  0  0
 24 25  1  0  0  0  0
 24 26  1  0  0  0  0
M  END
$$$$
default_name
  -OEChem-02102213163D

 29 29  0     1  0  0  0  0  0999 V2000
   -2.9561   -3.9186    1.3887 H   0  0  0  0  0  0  0  0  0  0  0  0
   -3.1191   -2.9346    0.9517 C   0  0  0  0  0  0  0  0  0  0  0  0
   -3.7811   -2.3546    1.5917 H   0  0  0  0  0  0  0  0  0  0  0  0
   -3.5591   -3.0406   -0.0383 H   0  0  0  0  0  0  0  0  0  0  0  0
   -1.7921   -2.2226    0.8327 C   0  0  0  0  0  0  0  0  0  0  0  0
   -0.7611   -2.7766    1.1927 O   0  0  0  0  0  0  0  0  0  0  0  0
   -1.8201   -0.9926    0.3247 N   0  0  0  0  0  0  0  0  0  0  0  0
   -2.7141   -0.5816    0.0927 H   0  0  0  0  0  0  0  0  0  0  0  0
   -0.6481   -0.1156    0.2017 C   0  0  1  0  0  0  0  0  0  0  0  0
    0.1042   -0.6345   -0.3958 H   0  0  0  0  0  0  0  0  0  0  0  0
   -1.0420    1.1781   -0.5372 C   0  0  0  0  0  0  0  0  0  0  0  0
   -0.4234    2.0060   -0.1875 H   0  0  0  0  0  0  0  0  0  0  0  0
   -0.8609    1.0620   -1.6067 H   0  0  0  0  0  0  0  0  0  0  0  0
   -2.4825    1.5676   -0.3110 C   0  0  0  0  0  0  0  0  0  0  0  0
   -3.3203    1.0598    0.6828 N   0  0  0  0  0  0  0  0  0  0  0  0
   -4.4855    1.7105    0.5516 C   0  0  0  0  0  0  0  0  0  0  0  0
   -5.3568    1.5376    1.1706 H   0  0  0  0  0  0  0  0  0  0  0  0
   -4.4122    2.6079   -0.4457 N   0  0  0  0  0  0  0  0  0  0  0  0
   -5.1543    3.2343   -0.7265 H   0  0  0  0  0  0  0  0  0  0  0  0
   -3.1536    2.5353   -0.9999 C   0  0  0  0  0  0  0  0  0  0  0  0
   -2.7512    3.1338   -1.8075 H   0  0  0  0  0  0  0  0  0  0  0  0
   -0.0283    0.1609    1.5831 C   0  0  0  0  0  0  0  0  0  0  0  0
    1.1923    0.1056    1.7329 O   0  0  0  0  0  0  0  0  0  0  0  0
   -0.8586    0.4659    2.5853 N   0  0  0  0  0  0  0  0  0  0  0  0
   -1.8521    0.3848    2.4000 H   0  0  0  0  0  0  0  0  0  0  0  0
   -0.4403    0.7694    3.9518 C   0  0  0  0  0  0  0  0  0  0  0  0
    0.5066    1.3154    3.9421 H   0  0  0  0  0  0  0  0  0  0  0  0
   -1.1988    1.3789    4.4452 H   0  0  0  0  0  0  0  0  0  0  0  0
   -0.3053   -0.1600    4.5075 H   0  0  0  0  0  0  0  0  0  0  0  0
  5  6  2  0  0  0  0
  5  7  1  0  0  0  0
  2  3  1  0  0  0  0
  2  4  1  0  0  0  0
  2  5  1  0  0  0  0
  1  2  1  0  0  0  0
 22 23  2  0  0  0  0
 22 24  1  0  0  0  0
 20 21  1  0  0  0  0
 18 19  1  0  0  0  0
 18 20  1  0  0  0  0
 16 17  1  0  0  0  0
 16 18  1  0  0  0  0
 15 16  2  0  0  0  0
 14 15  1  0  0  0  0
 14 20  2  0  0  0  0
 11 12  1  0  0  0  0
 11 13  1  0  0  0  0
 11 14  1  0  0  0  0
  9 10  1  0  0  0  0
  9 11  1  0  0  0  0
  9 22  1  0  0  0  0
  7  8  1  0  0  0  0
  7  9  1  0  0  0  0
 26 27  1  0  0  0  0
 26 28  1  0  0  0  0
 26 29  1  0  0  0  0
 24 25  1  0  0  0  0
 24 26  1  0  0  0  0
M  END
$$$$
default_name
  -OEChem-02102213163D

 29 29  0     1  0  0  0  0  0999 V2000
   -2.9561   -3.9186    1.3887 H   0  0  0  0  0  0  0  0  0  0  0  0
   -3.1191   -2.9346    0.9517 C   0  0  0  0  0  0  0  0  0  0  0  0
   -3.7811   -2.3546    1.5917 H   0  0  0  0  0  0  0  0  0  0  0  0
   -3.5591   -3.0406   -0.0383 H   0  0  0  0  0  0  0  0  0  0  0  0
   -1.7921   -2.2226    0.8327 C   0  0  0  0  0  0  0  0  0  0  0  0
   -0.7611   -2.7766    1.1927 O   0  0  0  0  0  0  0  0  0  0  0  0
   -1.8201   -0.9926    0.3247 N   0  0  0  0  0  0  0  0  0  0  0  0
   -2.7141   -0.5816    0.0927 H   0  0  0  0  0  0  0  0  0  0  0  0
   -0.6481   -0.1156    0.2017 C   0  0  1  0  0  0  0  0  0  0  0  0
    0.1042   -0.6345   -0.3958 H   0  0  0  0  0  0  0  0  0  0  0  0
   -1.0420    1.1781   -0.5372 C   0  0  0  0  0  0  0  0  0  0  0  0
   -0.4234    2.0060   -0.1875 H   0  0  0  0  0  0  0  0  0  0  0  0
   -0.8609    1.0620   -1.6067 H   0  0  0  0  0  0  0  0  0  0  0  0
   -2.4825    1.5676   -0.3110 C   0  0  0  0  0  0  0  0  0  0  0  0
   -3.2323    1.2972    0.8345 N   0  0  0  0  0  0  0  0  0  0  0  0
   -4.4328    1.8593    0.6313 C   0  0  0  0  0  0  0  0  0  0  0  0
   -5.2549    1.8191    1.3347 H   0  0  0  0  0  0  0  0  0  0  0  0
   -4.4638    2.4827   -0.5585 N   0  0  0  0  0  0  0  0  0  0  0  0
   -5.2505    2.9969   -0.9306 H   0  0  0  0  0  0  0  0  0  0  0  0
   -3.2399    2.3130   -1.1666 C   0  0  0  0  0  0  0  0  0  0  0  0
   -2.9170    2.7041   -2.1232 H   0  0  0  0  0  0  0  0  0  0  0  0
   -0.0283    0.1609    1.5831 C   0  0  0  0  0  0  0  0  0  0  0  0
    1.1923    0.1056    1.7329 O   0  0  0  0  0  0  0  0  0  0  0  0
   -0.8586    0.4659    2.5853 N   0  0  0  0  0  0  0  0  0  0  0  0
   -1.8521    0.3848    2.4000 H   0  0  0  0  0  0  0  0  0  0  0  0
   -0.4403    0.7694    3.9518 C   0  0  0  0  0  0  0  0  0  0  0  0
    0.5066    1.3154    3.9421 H   0  0  0  0  0  0  0  0  0  0  0  0
   -1.1988    1.3789    4.4452 H   0  0  0  0  0  0  0  0  0  0  0  0
   -0.3053   -0.1600    4.5075 H   0  0  0  0  0  0  0  0  0  0  0  0
  5  6  2  0  0  0  0
  5  7  1  0  0  0  0
  2  3  1  0  0  0  0
  2  4  1  0  0  0  0
  2  5  1  0  0  0  0
  1  2  1  0  0  0  0
 22 23  2  0  0  0  0
 22 24  1  0  0  0  0
 20 21  1  0  0  0  0
 18 19  1  0  0  0  0
 18 20  1  0  0  0  0
 16 17  1  0  0  0  0
 16 18  1  0  0  0  0
 15 16  2  0  0  0  0
 14 15  1  0  0  0  0
 14 20  2  0  0  0  0
 11 12  1  0  0  0  0
 11 13  1  0  0  0  0
 11 14  1  0  0  0  0
  9 10  1  0  0  0  0
  9 11  1  0  0  0  0
  9 22  1  0  0  0  0
  7  8  1  0  0  0  0
  7  9  1  0  0  0  0
 26 27  1  0  0  0  0
 26 28  1  0  0  0  0
 26 29  1  0  0  0  0
 24 25  1  0  0  0  0
 24 26  1  0  0  0  0
M  END
$$$$
default_name
  -OEChem-02102213163D

 29 29  0     1  0  0  0  0  0999 V2000
   -2.9561   -3.9186    1.3887 H   0  0  0  0  0  0  0  0  0  0  0  0
   -3.1191   -2.9346    0.9517 C   0  0  0  0  0  0  0  0  0  0  0  0
   -3.7811   -2.3546    1.5917 H   0  0  0  0  0  0  0  0  0  0  0  0
   -3.5591   -3.0406   -0.0383 H   0  0  0  0  0  0  0  0  0  0  0  0
   -1.7921   -2.2226    0.8327 C   0  0  0  0  0  0  0  0  0  0  0  0
   -0.7611   -2.7766    1.1927 O   0  0  0  0  0  0  0  0  0  0  0  0
   -1.8201   -0.9926    0.3247 N   0  0  0  0  0  0  0  0  0  0  0  0
   -2.7141   -0.5816    0.0927 H   0  0  0  0  0  0  0  0  0  0  0  0
   -0.6481   -0.1156    0.2017 C   0  0  1  0  0  0  0  0  0  0  0  0
    0.1042   -0.6345   -0.3958 H   0  0  0  0  0  0  0  0  0  0  0  0
   -1.0420    1.1781   -0.5372 C   0  0  0  0  0  0  0  0  0  0  0  0
   -0.4234    2.0060   -0.1875 H   0  0  0  0  0  0  0  0  0  0  0  0
   -0.8609    1.0620   -1.6067 H   0  0  0  0  0  0  0  0  0  0  0  0
   -2.4825    1.5676   -0.3110 C   0  0  0  0  0  0  0  0  0  0  0  0
   -3.1463    1.5675    0.9165 N   0  0  0  0  0  0  0  0  0  0  0  0
   -4.3823    2.0248    0.6680 C   0  0  0  0  0  0  0  0  0  0  0  0
   -5.1565    2.1355    1.4168 H   0  0  0  0  0  0  0  0  0  0  0  0
   -4.5163    2.3319   -0.6331 N   0  0  0  0  0  0  0  0  0  0  0  0
   -5.3480    2.7134   -1.0628 H   0  0  0  0  0  0  0  0  0  0  0  0
   -3.3257    2.0538   -1.2670 C   0  0  0  0  0  0  0  0  0  0  0  0
   -3.0815    2.2047   -2.3110 H   0  0  0  0  0  0  0  0  0  0  0  0
   -0.0283    0.1609    1.5831 C   0  0  0  0  0  0  0  0  0  0  0  0
    1.1923    0.1056    1.7329 O   0  0  0  0  0  0  0  0  0  0  0  0
   -0.8586    0.4659    2.5853 N   0  0  0  0  0  0  0  0  0  0  0  0
   -1.8521    0.3848    2.4000 H   0  0  0  0  0  0  0  0  0  0  0  0
   -0.4403    0.7694    3.9518 C   0  0  0  0  0  0  0  0  0  0  0  0
    0.5066    1.3154    3.9421 H   0  0  0  0  0  0  0  0  0  0  0  0
   -1.1988    1.3789    4.4452 H   0  0  0  0  0  0  0  0  0  0  0  0
   -0.3053   -0.1600    4.5075 H   0  0  0  0  0  0  0  0  0  0  0  0
  5  6  2  0  0  0  0
  5  7  1  0  0  0  0
  2  3  1  0  0  0  0
  2  4  1  0  0  0  0
  2  5  1  0  0  0  0
  1  2  1  0  0  0  0
 22 23  2  0  0  0  0
 22 24  1  0  0  0  0
 20 21  1  0  0  0  0
 18 19  1  0  0  0  0
 18 20  1  0  0  0  0
 16 17  1  0  0  0  0
 16 18  1  0  0  0  0
 15 16  2  0  0  0  0
 14 15  1  0  0  0  0
 14 20  2  0  0  0  0
 11 12  1  0  0  0  0
 11 13  1  0  0  0  0
 11 14  1  0  0  0  0
  9 10  1  0  0  0  0
  9 11  1  0  0  0  0
  9 22  1  0  0  0  0
  7  8  1  0  0  0  0
  7  9  1  0  0  0  0
 26 27  1  0  0  0  0
 26 28  1  0  0  0  0
 26 29  1  0  0  0  0
 24 25  1  0  0  0  0
 24 26  1  0  0  0  0
M  END
$$$$
default_name
  -OEChem-02102213163D

 29 29  0     1  0  0  0  0  0999 V2000
   -2.9561   -3.9186    1.3887 H   0  0  0  0  0  0  0  0  0  0  0  0
   -3.1191   -2.9346    0.9517 C   0  0  0  0  0  0  0  0  0  0  0  0
   -3.7811   -2.3546    1.5917 H   0  0  0  0  0  0  0  0  0  0  0  0
   -3.5591   -3.0406   -0.0383 H   0  0  0  0  0  0  0  0  0  0  0  0
   -1.7921   -2.2226    0.8327 C   0  0  0  0  0  0  0  0  0  0  0  0
   -0.7611   -2.7766    1.1927 O   0  0  0  0  0  0  0  0  0  0  0  0
   -1.8201   -0.9926    0.3247 N   0  0  0  0  0  0  0  0  0  0  0  0
   -2.7141   -0.5816    0.0927 H   0  0  0  0  0  0  0  0  0  0  0  0
   -0.6481   -0.1156    0.2017 C   0  0  1  0  0  0  0  0  0  0  0  0
    0.1042   -0.6345   -0.3958 H   0  0  0  0  0  0  0  0  0  0  0  0
   -1.0420    1.1781   -0.5372 C   0  0  0  0  0  0  0  0  0  0  0  0
   -0.4234    2.0060   -0.1875 H   0  0  0  0  0  0  0  0  0  0  0  0
   -0.8609    1.0620   -1.6067 H   0  0  0  0  0  0  0  0  0  0  0  0
   -2.4825    1.5676   -0.3110 C   0  0  0  0  0  0  0  0  0  0  0  0
   -3.0683    1.8522    0.9232 N   0  0  0  0  0  0  0  0  0  0  0  0
   -4.3374    2.1956    0.6593 C   0  0  0  0  0  0  0  0  0  0  0  0
   -5.0682    2.4652    1.4113 H   0  0  0  0  0  0  0  0  0  0  0  0
   -4.5661    2.1657   -0.6644 N   0  0  0  0  0  0  0  0  0  0  0  0
   -5.4399    2.4031   -1.1139 H   0  0  0  0  0  0  0  0  0  0  0  0
   -3.4053    1.7753   -1.2942 C   0  0  0  0  0  0  0  0  0  0  0  0
   -3.2336    1.6696   -2.3580 H   0  0  0  0  0  0  0  0  0  0  0  0
   -0.0283    0.1609    1.5831 C   0  0  0  0  0  0  0  0  0  0  0  0
    1.1923    0.1056    1.7329 O   0  0  0  0  0  0  0  0  0  0  0  0
   -0.8586    0.4659    2.5853 N   0  0  0  0  0  0  0  0  0  0  0  0
   -1.8521    0.3848    2.4000 H   0  0  0  0  0  0  0  0  0  0  0  0
   -0.4403    0.7694    3.9518 C   0  0  0  0  0  0  0  0  0  0  0  0
    0.5066    1.3154    3.9421 H   0  0  0  0  0  0  0  0  0  0  0  0
   -1.1988    1.3789    4.4452 H   0  0  0  0  0  0  0  0  0  0  0  0
   -0.3053   -0.1600    4.5075 H   0  0  0  0  0  0  0  0  0  0  0  0
  5  6  2  0  0  0  0
  5  7  1  0  0  0  0
  2  3  1  0  0  0  0
  2  4  1  0  0  0  0
  2  5  1  0  0  0  0
  1  2  1  0  0  0  0
 22 23  2  0  0  0  0
 22 24  1  0  0  0  0
 20 21  1  0  0  0  0
 18 19  1  0  0  0  0
 18 20  1  0  0  0  0
 16 17  1  0  0  0  0
 16 18  1  0  0  0  0
 15 16  2  0  0  0  0
 14 15  1  0  0  0  0
 14 20  2  0  0  0  0
 11 12  1  0  0  0  0
 11 13  1  0  0  0  0
 11 14  1  0  0  0  0
  9 10  1  0  0  0  0
  9 11  1  0  0  0  0
  9 22  1  0  0  0  0
  7  8  1  0  0  0  0
  7  9  1  0  0  0  0
 26 27  1  0  0  0  0
 26 28  1  0  0  0  0
 26 29  1  0  0  0  0
 24 25  1  0  0  0  0
 24 26  1  0  0  0  0
M  END
$$$$
default_name
  -OEChem-02102213163D

 29 29  0     1  0  0  0  0  0999 V2000
   -2.9561   -3.9186    1.3887 H   0  0  0  0  0  0  0  0  0  0  0  0
   -3.1191   -2.9346    0.9517 C   0  0  0  0  0  0  0  0  0  0  0  0
   -3.7811   -2.3546    1.5917 H   0  0  0  0  0  0  0  0  0  0  0  0
   -3.5591   -3.0406   -0.0383 H   0  0  0  0  0  0  0  0  0  0  0  0
   -1.7921   -2.2226    0.8327 C   0  0  0  0  0  0  0  0  0  0  0  0
   -0.7611   -2.7766    1.1927 O   0  0  0  0  0  0  0  0  0  0  0  0
   -1.8201   -0.9926    0.3247 N   0  0  0  0  0  0  0  0  0  0  0  0
   -2.7141   -0.5816    0.0927 H   0  0  0  0  0  0  0  0  0  0  0  0
   -0.6481   -0.1156    0.2017 C   0  0  1  0  0  0  0  0  0  0  0  0
    0.1042   -0.6345   -0.3958 H   0  0  0  0  0  0  0  0  0  0  0  0
   -1.0420    1.1781   -0.5372 C   0  0  0  0  0  0  0  0  0  0  0  0
   -0.4234    2.0060   -0.1875 H   0  0  0  0  0  0  0  0  0  0  0  0
   -0.8609    1.0620   -1.6067 H   0  0  0  0  0  0  0  0  0  0  0  0
   -2.4825    1.5676   -0.3110 C   0  0  0  0  0  0  0  0  0  0  0  0
   -3.0035    2.1318    0.8542 N   0  0  0  0  0  0  0  0  0  0  0  0
   -4.3014    2.3602    0.6056 C   0  0  0  0  0  0  0  0  0  0  0  0
   -4.9960    2.7858    1.3187 H   0  0  0  0  0  0  0  0  0  0  0  0
   -4.6099    1.9956   -0.6503 N   0  0  0  0  0  0  0  0  0  0  0  0
   -5.5200    2.0872   -1.0805 H   0  0  0  0  0  0  0  0  0  0  0  0
   -3.4732    1.4965   -1.2463 C   0  0  0  0  0  0  0  0  0  0  0  0
   -3.3628    1.1351   -2.2610 H   0  0  0  0  0  0  0  0  0  0  0  0
   -0.0283    0.1609    1.5831 C   0  0  0  0  0  0  0  0  0  0  0  0
    1.1923    0.1056    1.7329 O   0  0  0  0  0  0  0  0  0  0  0  0
   -0.8586    0.4659    2.5853 N   0  0  0  0  0  0  0  0  0  0  0  0
   -1.8521    0.3848    2.4000 H   0  0  0  0  0  0  0  0  0  0  0  0
   -0.4403    0.7694    3.9518 C   0  0  0  0  0  0  0  0  0  0  0  0
    0.5066    1.3154    3.9421 H   0  0  0  0  0  0  0  0  0  0  0  0
   -1.1988    1.3789    4.4452 H   0  0  0  0  0  0  0  0  0  0  0  0
   -0.3053   -0.1600    4.5075 H   0  0  0  0  0  0  0  0  0  0  0  0
  5  6  2  0  0  0  0
  5  7  1  0  0  0  0
  2  3  1  0  0  0  0
  2  4  1  0  0  0  0
  2  5  1  0  0  0  0
  1  2  1  0  0  0  0
 22 23  2  0  0  0  0
 22 24  1  0  0  0  0
 20 21  1  0  0  0  0
 18 19  1  0  0  0  0
 18 20  1  0  0  0  0
 16 17  1  0  0  0  0
 16 18  1  0  0  0  0
 15 16  2  0  0  0  0
 14 15  1  0  0  0  0
 14 20  2  0  0  0  0
 11 12  1  0  0  0  0
 11 13  1  0  0  0  0
 11 14  1  0  0  0  0
  9 10  1  0  0  0  0
  9 11  1  0  0  0  0
  9 22  1  0  0  0  0
  7  8  1  0  0  0  0
  7  9  1  0  0  0  0
 26 27  1  0  0  0  0
 26 28  1  0  0  0  0
 26 29  1  0  0  0  0
 24 25  1  0  0  0  0
 24 26  1  0  0  0  0
M  END
$$$$
default_name
  -OEChem-02102213163D

 29 29  0     1  0  0  0  0  0999 V2000
   -2.9561   -3.9186    1.3887 H   0  0  0  0  0  0  0  0  0  0  0  0
   -3.1191   -2.9346    0.9517 C   0  0  0  0  0  0  0  0  0  0  0  0
   -3.7811   -2.3546    1.5917 H   0  0  0  0  0  0  0  0  0  0  0  0
   -3.5591   -3.0406   -0.0383 H   0  0  0  0  0  0  0  0  0  0  0  0
   -1.7921   -2.2226    0.8327 C   0  0  0  0  0  0  0  0  0  0  0  0
   -0.7611   -2.7766    1.1927 O   0  0  0  0  0  0  0  0  0  0  0  0
   -1.8201   -0.9926    0.3247 N   0  0  0  0  0  0  0  0  0  0  0  0
   -2.7141   -0.5816    0.0927 H   0  0  0  0  0  0  0  0  0  0  0  0
   -0.6481   -0.1156    0.2017 C   0  0  1  0  0  0  0  0  0  0  0  0
    0.1042   -0.6345   -0.3958 H   0  0  0  0  0  0  0  0  0  0  0  0
   -1.0420    1.1781   -0.5372 C   0  0  0  0  0  0  0  0  0  0  0  0
   -0.4234    2.0060   -0.1875 H   0  0  0  0  0  0  0  0  0  0  0  0
   -0.8609    1.0620   -1.6067 H   0  0  0  0  0  0  0  0  0  0  0  0
   -2.4825    1.5676   -0.3110 C   0  0  0  0  0  0  0  0  0  0  0  0
   -2.9564    2.3874    0.7141 N   0  0  0  0  0  0  0  0  0  0  0  0
   -4.2765    2.5073    0.5107 C   0  0  0  0  0  0  0  0  0  0  0  0
   -4.9450    3.0754    1.1453 H   0  0  0  0  0  0  0  0  0  0  0  0
   -4.6447    1.8330   -0.5916 N   0  0  0  0  0  0  0  0  0  0  0  0
   -5.5830    1.7873   -0.9648 H   0  0  0  0  0  0  0  0  0  0  0  0
   -3.5247    1.2363   -1.1267 C   0  0  0  0  0  0  0  0  0  0  0  0
   -3.4605    0.6379   -2.0267 H   0  0  0  0  0  0  0  0  0  0  0  0
   -0.0283    0.1609    1.5831 C   0  0  0  0  0  0  0  0  0  0  0  0
    1.1923    0.1056    1.7329 O   0  0  0  0  0  0  0  0  0  0  0  0
   -0.8586    0.4659    2.5853 N   0  0  0  0  0  0  0  0  0  0  0  0
   -1.8521    0.3848    2.4000 H   0  0  0  0  0  0  0  0  0  0  0  0
   -0.4403    0.7694    3.9518 C   0  0  0  0  0  0  0  0  0  0  0  0
    0.5066    1.3154    3.9421 H   0  0  0  0  0  0  0  0  0  0  0  0
   -1.1988    1.3789    4.4452 H   0  0  0  0  0  0  0  0  0  0  0  0
   -0.3053   -0.1600    4.5075 H   0  0  0  0  0  0  0  0  0  0  0  0
  5  6  2  0  0  0  0
  5  7  1  0  0  0  0
  2  3  1  0  0  0  0
  2  4  1  0  0  0  0
  2  5  1  0  0  0  0
  1  2  1  0  0  0  0
 22 23  2  0  0  0  0
 22 24  1  0  0  0  0
 20 21  1  0  0  0  0
 18 19  1  0  0  0  0
 18 20  1  0  0  0  0
 16 17  1  0  0  0  0
 16 18  1  0  0  0  0
 15 16  2  0  0  0  0
 14 15  1  0  0  0  0
 14 20  2  0  0  0  0
 11 12  1  0  0  0  0
 11 13  1  0  0  0  0
 11 14  1  0  0  0  0
  9 10  1  0  0  0  0
  9 11  1  0  0  0  0
  9 22  1  0  0  0  0
  7  8  1  0  0  0  0
  7  9  1  0  0  0  0
 26 27  1  0  0  0  0
 26 28  1  0  0  0  0
 26 29  1  0  0  0  0
 24 25  1  0  0  0  0
 24 26  1  0  0  0  0
M  END
$$$$
default_name
  -OEChem-02102213163D

 29 29  0     1  0  0  0  0  0999 V2000
   -2.9561   -3.9186    1.3887 H   0  0  0  0  0  0  0  0  0  0  0  0
   -3.1191   -2.9346    0.9517 C   0  0  0  0  0  0  0  0  0  0  0  0
   -3.7811   -2.3546    1.5917 H   0  0  0  0  0  0  0  0  0  0  0  0
   -3.5591   -3.0406   -0.0383 H   0  0  0  0  0  0  0  0  0  0  0  0
   -1.7921   -2.2226    0.8327 C   0  0  0  0  0  0  0  0  0  0  0  0
   -0.7611   -2.7766    1.1927 O   0  0  0  0  0  0  0  0  0  0  0  0
   -1.8201   -0.9926    0.3247 N   0  0  0  0  0  0  0  0  0  0  0  0
   -2.7141   -0.5816    0.0927 H   0  0  0  0  0  0  0  0  0  0  0  0
   -0.6481   -0.1156    0.2017 C   0  0  1  0  0  0  0  0  0  0  0  0
    0.1042   -0.6345   -0.3958 H   0  0  0  0  0  0  0  0  0  0  0  0
   -1.0420    1.1781   -0.5372 C   0  0  0  0  0  0  0  0  0  0  0  0
   -0.4234    2.0060   -0.1875 H   0  0  0  0  0  0  0  0  0  0  0  0
   -0.8609    1.0620   -1.6067 H   0  0  0  0  0  0  0  0  0  0  0  0
   -2.4825    1.5676   -0.3110 C   0  0  0  0  0  0  0  0  0  0  0  0
   -2.9302    2.6015    0.5125 N   0  0  0  0  0  0  0  0  0  0  0  0
   -4.2645    2.6269    0.3810 C   0  0  0  0  0  0  0  0  0  0  0  0
   -4.9185    3.3142    0.9028 H   0  0  0  0  0  0  0  0  0  0  0  0
   -4.6680    1.6892   -0.4925 N   0  0  0  0  0  0  0  0  0  0  0  0
   -5.6244    1.5236   -0.7748 H   0  0  0  0  0  0  0  0  0  0  0  0
   -3.5564    1.0126   -0.9434 C   0  0  0  0  0  0  0  0  0  0  0  0
   -3.5199    0.2116   -1.6710 H   0  0  0  0  0  0  0  0  0  0  0  0
   -0.0283    0.1609    1.5831 C   0  0  0  0  0  0  0  0  0  0  0  0
    1.1923    0.1056    1.7329 O   0  0  0  0  0  0  0  0  0  0  0  0
   -0.8586    0.4659    2.5853 N   0  0  0  0  0  0  0  0  0  0  0  0
   -1.8521    0.3848    2.4000 H   0  0  0  0  0  0  0  0  0  0  0  0
   -0.4403    0.7694    3.9518 C   0  0  0  0  0  0  0  0  0  0  0  0
    0.5066    1.3154    3.9421 H   0  0  0  0  0  0  0  0  0  0  0  0
   -1.1988    1.3789    4.4452 H   0  0  0  0  0  0  0  0  0  0  0  0
   -0.3053   -0.1600    4.5075 H   0  0  0  0  0  0  0  0  0  0  0  0
  5  6  2  0  0  0  0
  5  7  1  0  0  0  0
  2  3  1  0  0  0  0
  2  4  1  0  0  0  0
  2  5  1  0  0  0  0
  1  2  1  0  0  0  0
 22 23  2  0  0  0  0
 22 24  1  0  0  0  0
 20 21  1  0  0  0  0
 18 19  1  0  0  0  0
 18 20  1  0  0  0  0
 16 17  1  0  0  0  0
 16 18  1  0  0  0  0
 15 16  2  0  0  0  0
 14 15  1  0  0  0  0
 14 20  2  0  0  0  0
 11 12  1  0  0  0  0
 11 13  1  0  0  0  0
 11 14  1  0  0  0  0
  9 10  1  0  0  0  0
  9 11  1  0  0  0  0
  9 22  1  0  0  0  0
  7  8  1  0  0  0  0
  7  9  1  0  0  0  0
 26 27  1  0  0  0  0
 26 28  1  0  0  0  0
 26 29  1  0  0  0  0
 24 25  1  0  0  0  0
 24 26  1  0  0  0  0
M  END
$$$$
default_name
  -OEChem-02102213163D

 29 29  0     1  0  0  0  0  0999 V2000
   -2.9561   -3.9186    1.3887 H   0  0  0  0  0  0  0  0  0  0  0  0
   -3.1191   -2.9346    0.9517 C   0  0  0  0  0  0  0  0  0  0  0  0
   -3.7811   -2.3546    1.5917 H   0  0  0  0  0  0  0  0  0  0  0  0
   -3.5591   -3.0406   -0.0383 H   0  0  0  0  0  0  0  0  0  0  0  0
   -1.7921   -2.2226    0.8327 C   0  0  0  0  0  0  0  0  0  0  0  0
   -0.7611   -2.7766    1.1927 O   0  0  0  0  0  0  0  0  0  0  0  0
   -1.8201   -0.9926    0.3247 N   0  0  0  0  0  0  0  0  0  0  0  0
   -2.7141   -0.5816    0.0927 H   0  0  0  0  0  0  0  0  0  0  0  0
   -0.6481   -0.1156    0.2017 C   0  0  1  0  0  0  0  0  0  0  0  0
    0.1042   -0.6345   -0.3958 H   0  0  0  0  0  0  0  0  0  0  0  0
   -1.0420    1.1781   -0.5372 C   0  0  0  0  0  0  0  0  0  0  0  0
   -0.4234    2.0060   -0.1875 H   0  0  0  0  0  0  0  0  0  0  0  0
   -0.8609    1.0620   -1.6067 H   0  0  0  0  0  0  0  0  0  0  0  0
   -2.4825    1.5676   -0.3110 C   0  0  0  0  0  0  0  0  0  0  0  0
   -2.9266    2.7595    0.2631 N   0  0  0  0  0  0  0  0  0  0  0  0
   -4.2662    2.7109    0.2254 C   0  0  0  0  0  0  0  0  0  0  0  0
   -4.9184    3.4860    0.6078 H   0  0  0  0  0  0  0  0  0  0  0  0
   -4.6783    1.5738   -0.3597 N   0  0  0  0  0  0  0  0  0  0  0  0
   -5.6415    1.3143   -0.5234 H   0  0  0  0  0  0  0  0  0  0  0  0
   -3.5661    0.8406   -0.7090 C   0  0  0  0  0  0  0  0  0  0  0  0
   -3.5370   -0.1145   -1.2182 H   0  0  0  0  0  0  0  0  0  0  0  0
   -0.0283    0.1609    1.5831 C   0  0  0  0  0  0  0  0  0  0  0  0
    1.1923    0.1056    1.7329 O   0  0  0  0  0  0  0  0  0  0  0  0
   -0.8586    0.4659    2.5853 N   0  0  0  0  0  0  0  0  0  0  0  0
   -1.8521    0.3848    2.4000 H   0  0  0  0  0  0  0  0  0  0  0  0
   -0.4403    0.7694    3.9518 C   0  0  0  0  0  0  0  0  0  0  0  0
    0.5066    1.3154    3.9421 H   0  0  0  0  0  0  0  0  0  0  0  0
   -1.1988    1.3789    4.4452 H   0  0  0  0  0  0  0  0  0  0  0  0
   -0.3053   -0.1600    4.5075 H   0  0  0  0  0  0  0  0  0  0  0  0
  5  6  2  0  0  0  0
  5  7  1  0  0  0  0
  2  3  1  0  0  0  0
  2  4  1  0  0  0  0
  2  5  1  0  0  0  0
  1  2  1  0  0  0  0
 22 23  2  0  0  0  0
 22 24  1  0  0  0  0
 20 21  1  0  0  0  0
 18 19  1  0  0  0  0
 18 20  1  0  0  0  0
 16 17  1  0  0  0  0
 16 18  1  0  0  0  0
 15 16  2  0  0  0  0
 14 15  1  0  0  0  0
 14 20  2  0  0  0  0
 11 12  1  0  0  0  0
 11 13  1  0  0  0  0
 11 14  1  0  0  0  0
  9 10  1  0  0  0  0
  9 11  1  0  0  0  0
  9 22  1  0  0  0  0
  7  8  1  0  0  0  0
  7  9  1  0  0  0  0
 26 27  1  0  0  0  0
 26 28  1  0  0  0  0
 26 29  1  0  0  0  0
 24 25  1  0  0  0  0
 24 26  1  0  0  0  0
M  END
$$$$
default_name
  -OEChem-02102213163D

 29 29  0     1  0  0  0  0  0999 V2000
   -2.9561   -3.9186    1.3887 H   0  0  0  0  0  0  0  0  0  0  0  0
   -3.1191   -2.9346    0.9517 C   0  0  0  0  0  0  0  0  0  0  0  0
   -3.7811   -2.3546    1.5917 H   0  0  0  0  0  0  0  0  0  0  0  0
   -3.5591   -3.0406   -0.0383 H   0  0  0  0  0  0  0  0  0  0  0  0
   -1.7921   -2.2226    0.8327 C   0  0  0  0  0  0  0  0  0  0  0  0
   -0.7611   -2.7766    1.1927 O   0  0  0  0  0  0  0  0  0  0  0  0
   -1.8201   -0.9926    0.3247 N   0  0  0  0  0  0  0  0  0  0  0  0
   -2.7141   -0.5816    0.0927 H   0  0  0  0  0  0  0  0  0  0  0  0
   -0.6481   -0.1156    0.2017 C   0  0  1  0  0  0  0  0  0  0  0  0
    0.1042   -0.6345   -0.3958 H   0  0  0  0  0  0  0  0  0  0  0  0
   -1.0420    1.1781   -0.5372 C   0  0  0  0  0  0  0  0  0  0  0  0
   -0.4234    2.0060   -0.1875 H   0  0  0  0  0  0  0  0  0  0  0  0
   -0.8609    1.0620   -1.6067 H   0  0  0  0  0  0  0  0  0  0  0  0
   -2.4825    1.5676   -0.3110 C   0  0  0  0  0  0  0  0  0  0  0  0
   -2.9460    2.8507   -0.0170 N   0  0  0  0  0  0  0  0  0  0  0  0
   -4.2816    2.7535    0.0545 C   0  0  0  0  0  0  0  0  0  0  0  0
   -4.9446    3.5791    0.2804 H   0  0  0  0  0  0  0  0  0  0  0  0
   -4.6750    1.4947   -0.2022 N   0  0  0  0  0  0  0  0  0  0  0  0
   -5.6332    1.1736   -0.2276 H   0  0  0  0  0  0  0  0  0  0  0  0
   -3.5532    0.7319   -0.4394 C   0  0  0  0  0  0  0  0  0  0  0  0
   -3.5106   -0.3184   -0.6991 H   0  0  0  0  0  0  0  0  0  0  0  0
   -0.0283    0.1609    1.5831 C   0  0  0  0  0  0  0  0  0  0  0  0
    1.1923    0.1056    1.7329 O   0  0  0  0  0  0  0  0  0  0  0  0
   -0.8586    0.4659    2.5853 N   0  0  0  0  0  0  0  0  0  0  0  0
   -1.8521    0.3848    2.4000 H   0  0  0  0  0  0  0  0  0  0  0  0
   -0.4403    0.7694    3.9518 C   0  0  0  0  0  0  0  0  0  0  0  0
    0.5066    1.3154    3.9421 H   0  0  0  0  0  0  0  0  0  0  0  0
   -1.1988    1.3789    4.4452 H   0  0  0  0  0  0  0  0  0  0  0  0
   -0.3053   -0.1600    4.5075 H   0  0  0  0  0  0  0  0  0  0  0  0
  5  6  2  0  0  0  0
  5  7  1  0  0  0  0
  2  3  1  0  0  0  0
  2  4  1  0  0  0  0
  2  5  1  0  0  0  0
  1  2  1  0  0  0  0
 22 23  2  0  0  0  0
 22 24  1  0  0  0  0
 20 21  1  0  0  0  0
 18 19  1  0  0  0  0
 18 20  1  0  0  0  0
 16 17  1  0  0  0  0
 16 18  1  0  0  0  0
 15 16  2  0  0  0  0
 14 15  1  0  0  0  0
 14 20  2  0  0  0  0
 11 12  1  0  0  0  0
 11 13  1  0  0  0  0
 11 14  1  0  0  0  0
  9 10  1  0  0  0  0
  9 11  1  0  0  0  0
  9 22  1  0  0  0  0
  7  8  1  0  0  0  0
  7  9  1  0  0  0  0
 26 27  1  0  0  0  0
 26 28  1  0  0  0  0
 26 29  1  0  0  0  0
 24 25  1  0  0  0  0
 24 26  1  0  0  0  0
M  END
$$$$
default_name
  -OEChem-02102213163D

 29 29  0     1  0  0  0  0  0999 V2000
   -2.9561   -3.9186    1.3887 H   0  0  0  0  0  0  0  0  0  0  0  0
   -3.1191   -2.9346    0.9517 C   0  0  0  0  0  0  0  0  0  0  0  0
   -3.7811   -2.3546    1.5917 H   0  0  0  0  0  0  0  0  0  0  0  0
   -3.5591   -3.0406   -0.0383 H   0  0  0  0  0  0  0  0  0  0  0  0
   -1.7921   -2.2226    0.8327 C   0  0  0  0  0  0  0  0  0  0  0  0
   -0.7611   -2.7766    1.1927 O   0  0  0  0  0  0  0  0  0  0  0  0
   -1.8201   -0.9926    0.3247 N   0  0  0  0  0  0  0  0  0  0  0  0
   -2.7141   -0.5816    0.0927 H   0  0  0  0  0  0  0  0  0  0  0  0
   -0.6481   -0.1156    0.2017 C   0  0  1  0  0  0  0  0  0  0  0  0
    0.1042   -0.6345   -0.3958 H   0  0  0  0  0  0  0  0  0  0  0  0
   -1.0420    1.1781   -0.5372 C   0  0  0  0  0  0  0  0  0  0  0  0
   -0.4234    2.0060   -0.1875 H   0  0  0  0  0  0  0  0  0  0  0  0
   -0.8609    1.0620   -1.6067 H   0  0  0  0  0  0  0  0  0  0  0  0
   -2.4825    1.5676   -0.3110 C   0  0  0  0  0  0  0  0  0  0  0  0
   -2.9869    2.8688   -0.3088 N   0  0  0  0  0  0  0  0  0  0  0  0
   -4.3094    2.7519   -0.1201 C   0  0  0  0  0  0  0  0  0  0  0  0
   -4.9954    3.5872   -0.0570 H   0  0  0  0  0  0  0  0  0  0  0  0
   -4.6581    1.4574   -0.0308 N   0  0  0  0  0  0  0  0  0  0  0  0
   -5.5998    1.1110    0.0922 H   0  0  0  0  0  0  0  0  0  0  0  0
   -3.5184    0.6940   -0.1530 C   0  0  0  0  0  0  0  0  0  0  0  0
   -3.4425   -0.3860   -0.1491 H   0  0  0  0  0  0  0  0  0  0  0  0
   -0.0283    0.1609    1.5831 C   0  0  0  0  0  0  0  0  0  0  0  0
    1.1923    0.1056    1.7329 O   0  0  0  0  0  0  0  0  0  0  0  0
   -0.8586    0.4659    2.5853 N   0  0  0  0  0  0  0  0  0  0  0  0
   -1.8521    0.3848    2.4000 H   0  0  0  0  0  0  0  0  0  0  0  0
   -0.4403    0.7694    3.9518 C   0  0  0  0  0  0  0  0  0  0  0  0
    0.5066    1.3154    3.9421 H   0  0  0  0  0  0  0  0  0  0  0  0
   -1.1988    1.3789    4.4452 H   0  0  0  0  0  0  0  0  0  0  0  0
   -0.3053   -0.1600    4.5075 H   0  0  0  0  0  0  0  0  0  0  0  0
  5  6  2  0  0  0  0
  5  7  1  0  0  0  0
  2  3  1  0  0  0  0
  2  4  1  0  0  0  0
  2  5  1  0  0  0  0
  1  2  1  0  0  0  0
 22 23  2  0  0  0  0
 22 24  1  0  0  0  0
 20 21  1  0  0  0  0
 18 19  1  0  0  0  0
 18 20  1  0  0  0  0
 16 17  1  0  0  0  0
 16 18  1  0  0  0  0
 15 16  2  0  0  0  0
 14 15  1  0  0  0  0
 14 20  2  0  0  0  0
 11 12  1  0  0  0  0
 11 13  1  0  0  0  0
 11 14  1  0  0  0  0
  9 10  1  0  0  0  0
  9 11  1  0  0  0  0
  9 22  1  0  0  0  0
  7  8  1  0  0  0  0
  7  9  1  0  0  0  0
 26 27  1  0  0  0  0
 26 28  1  0  0  0  0
 26 29  1  0  0  0  0
 24 25  1  0  0  0  0
 24 26  1  0  0  0  0
M  END
$$$$
default_name
  -OEChem-02102213163D

 29 29  0     1  0  0  0  0  0999 V2000
   -2.9561   -3.9186    1.3887 H   0  0  0  0  0  0  0  0  0  0  0  0
   -3.1191   -2.9346    0.9517 C   0  0  0  0  0  0  0  0  0  0  0  0
   -3.7811   -2.3546    1.5917 H   0  0  0  0  0  0  0  0  0  0  0  0
   -3.5591   -3.0406   -0.0383 H   0  0  0  0  0  0  0  0  0  0  0  0
   -1.7921   -2.2226    0.8327 C   0  0  0  0  0  0  0  0  0  0  0  0
   -0.7611   -2.7766    1.1927 O   0  0  0  0  0  0  0  0  0  0  0  0
   -1.8201   -0.9926    0.3247 N   0  0  0  0  0  0  0  0  0  0  0  0
   -2.7141   -0.5816    0.0927 H   0  0  0  0  0  0  0  0  0  0  0  0
   -0.6481   -0.1156    0.2017 C   0  0  1  0  0  0  0  0  0  0  0  0
    0.1042   -0.6345   -0.3958 H   0  0  0  0  0  0  0  0  0  0  0  0
   -1.0420    1.1781   -0.5372 C   0  0  0  0  0  0  0  0  0  0  0  0
   -0.4234    2.0060   -0.1875 H   0  0  0  0  0  0  0  0  0  0  0  0
   -0.8609    1.0620   -1.6067 H   0  0  0  0  0  0  0  0  0  0  0  0
   -2.4825    1.5676   -0.3110 C   0  0  0  0  0  0  0  0  0  0  0  0
   -3.0467    2.8126   -0.5924 N   0  0  0  0  0  0  0  0  0  0  0  0
   -4.3480    2.7061   -0.2865 C   0  0  0  0  0  0  0  0  0  0  0  0
   -5.0674    3.5096   -0.3816 H   0  0  0  0  0  0  0  0  0  0  0  0
   -4.6290    1.4643    0.1429 N   0  0  0  0  0  0  0  0  0  0  0  0
   -5.5439    1.1309    0.4144 H   0  0  0  0  0  0  0  0  0  0  0  0
   -3.4643    0.7295    0.1306 C   0  0  0  0  0  0  0  0  0  0  0  0
   -3.3373   -0.3129    0.3944 H   0  0  0  0  0  0  0  0  0  0  0  0
   -0.0283    0.1609    1.5831 C   0  0  0  0  0  0  0  0  0  0  0  0
    1.1923    0.1056    1.7329 O   0  0  0  0  0  0  0  0  0  0  0  0
   -0.8586    0.4659    2.5853 N   0  0  0  0  0  0  0  0  0  0  0  0
   -1.8521    0.3848    2.4000 H   0  0  0  0  0  0  0  0  0  0  0  0
   -0.4403    0.7694    3.9518 C   0  0  0  0  0  0  0  0  0  0  0  0
    0.5066    1.3154    3.9421 H   0  0  0  0  0  0  0  0  0  0  0  0
   -1.1988    1.3789    4.4452 H   0  0  0  0  0  0  0  0  0  0  0  0
   -0.3053   -0.1600    4.5075 H   0  0  0  0  0  0  0  0  0  0  0  0
  5  6  2  0  0  0  0
  5  7  1  0  0  0  0
  2  3  1  0  0  0  0
  2  4  1  0  0  0  0
  2  5  1  0  0  0  0
  1  2  1  0  0  0  0
 22 23  2  0  0  0  0
 22 24  1  0  0  0  0
 20 21  1  0  0  0  0
 18 19  1  0  0  0  0
 18 20  1  0  0  0  0
 16 17  1  0  0  0  0
 16 18  1  0  0  0  0
 15 16  2  0  0  0  0
 14 15  1  0  0  0  0
 14 20  2  0  0  0  0
 11 12  1  0  0  0  0
 11 13  1  0  0  0  0
 11 14  1  0  0  0  0
  9 10  1  0  0  0  0
  9 11  1  0  0  0  0
  9 22  1  0  0  0  0
  7  8  1  0  0  0  0
  7  9  1  0  0  0  0
 26 27  1  0  0  0  0
 26 28  1  0  0  0  0
 26 29  1  0  0  0  0
 24 25  1  0  0  0  0
 24 26  1  0  0  0  0
M  END
$$$$
default_name
  -OEChem-02102213163D

 29 29  0     1  0  0  0  0  0999 V2000
   -2.9561   -3.9186    1.3887 H   0  0  0  0  0  0  0  0  0  0  0  0
   -3.1191   -2.9346    0.9517 C   0  0  0  0  0  0  0  0  0  0  0  0
   -3.7811   -2.3546    1.5917 H   0  0  0  0  0  0  0  0  0  0  0  0
   -3.5591   -3.0406   -0.0383 H   0  0  0  0  0  0  0  0  0  0  0  0
   -1.7921   -2.2226    0.8327 C   0  0  0  0  0  0  0  0  0  0  0  0
   -0.7611   -2.7766    1.1927 O   0  0  0  0  0  0  0  0  0  0  0  0
   -1.8201   -0.9926    0.3247 N   0  0  0  0  0  0  0  0  0  0  0  0
   -2.7141   -0.5816    0.0927 H   0  0  0  0  0  0  0  0  0  0  0  0
   -0.6481   -0.1156    0.2017 C   0  0  1  0  0  0  0  0  0  0  0  0
    0.1042   -0.6345   -0.3958 H   0  0  0  0  0  0  0  0  0  0  0  0
   -1.0420    1.1781   -0.5372 C   0  0  0  0  0  0  0  0  0  0  0  0
   -0.2690    1.9347   -0.3947 H   0  0  0  0  0  0  0  0  0  0  0  0
   -1.1171    0.9833   -1.6079 H   0  0  0  0  0  0  0  0  0  0  0  0
   -2.3411    1.7649   -0.0410 C   0  0  0  0  0  0  0  0  0  0  0  0
   -2.9477    2.9277   -0.5177 N   0  0  0  0  0  0  0  0  0  0  0  0
   -4.0964    3.0507    0.1633 C   0  0  0  0  0  0  0  0  0  0  0  0
   -4.8003    3.8634    0.0354 H   0  0  0  0  0  0  0  0  0  0  0  0
   -4.2502    2.0221    1.0139 N   0  0  0  0  0  0  0  0  0  0  0  0
   -5.0440    1.8789    1.6232 H   0  0  0  0  0  0  0  0  0  0  0  0
   -3.1536    1.1973    0.8964 C   0  0  0  0  0  0  0  0  0  0  0  0
   -2.9663    0.2680    1.4194 H   0  0  0  0  0  0  0  0  0  0  0  0
   -0.0283    0.1609    1.5831 C   0  0  0  0  0  0  0  0  0  0  0  0
    1.1923    0.1056    1.7329 O   0  0  0  0  0  0  0  0  0  0  0  0
   -0.8586    0.4659    2.5853 N   0  0  0  0  0  0  0  0  0  0  0  0
   -1.8521    0.3848    2.4000 H   0  0  0  0  0  0  0  0  0  0  0  0
   -0.4403    0.7694    3.9518 C   0  0  0  0  0  0  0  0  0  0  0  0
    0.5066    1.3154    3.9421 H   0  0  0  0  0  0  0  0  0  0  0  0
   -1.1988    1.3789    4.4452 H   0  0  0  0  0  0  0  0  0  0  0  0
   -0.3053   -0.1600    4.5075 H   0  0  0  0  0  0  0  0  0  0  0  0
  5  6  2  0  0  0  0
  5  7  1  0  0  0  0
  2  3  1  0  0  0  0
  2  4  1  0  0  0  0
  2  5  1  0  0  0  0
  1  2  1  0  0  0  0
 22 23  2  0  0  0  0
 22 24  1  0  0  0  0
 20 21  1  0  0  0  0
 18 19  1  0  0  0  0
 18 20  1  0  0  0  0
 16 17  1  0  0  0  0
 16 18  1  0  0  0  0
 15 16  2  0  0  0  0
 14 15  1  0  0  0  0
 14 20  2  0  0  0  0
 11 12  1  0  0  0  0
 11 13  1  0  0  0  0
 11 14  1  0  0  0  0
  9 10  1  0  0  0  0
  9 11  1  0  0  0  0
  9 22  1  0  0  0  0
  7  8  1  0  0  0  0
  7  9  1  0  0  0  0
 26 27  1  0  0  0  0
 26 28  1  0  0  0  0
 26 29  1  0  0  0  0
 24 25  1  0  0  0  0
 24 26  1  0  0  0  0
M  END
$$$$
default_name
  -OEChem-02102213163D

 29 29  0     1  0  0  0  0  0999 V2000
   -2.9561   -3.9186    1.3887 H   0  0  0  0  0  0  0  0  0  0  0  0
   -3.1191   -2.9346    0.9517 C   0  0  0  0  0  0  0  0  0  0  0  0
   -3.7811   -2.3546    1.5917 H   0  0  0  0  0  0  0  0  0  0  0  0
   -3.5591   -3.0406   -0.0383 H   0  0  0  0  0  0  0  0  0  0  0  0
   -1.7921   -2.2226    0.8327 C   0  0  0  0  0  0  0  0  0  0  0  0
   -0.7611   -2.7766    1.1927 O   0  0  0  0  0  0  0  0  0  0  0  0
   -1.8201   -0.9926    0.3247 N   0  0  0  0  0  0  0  0  0  0  0  0
   -2.7141   -0.5816    0.0927 H   0  0  0  0  0  0  0  0  0  0  0  0
   -0.6481   -0.1156    0.2017 C   0  0  1  0  0  0  0  0  0  0  0  0
    0.1042   -0.6345   -0.3958 H   0  0  0  0  0  0  0  0  0  0  0  0
   -1.0420    1.1781   -0.5372 C   0  0  0  0  0  0  0  0  0  0  0  0
   -0.2690    1.9347   -0.3947 H   0  0  0  0  0  0  0  0  0  0  0  0
   -1.1171    0.9833   -1.6079 H   0  0  0  0  0  0  0  0  0  0  0  0
   -2.3411    1.7649   -0.0410 C   0  0  0  0  0  0  0  0  0  0  0  0
   -3.0980    2.7411   -0.6903 N   0  0  0  0  0  0  0  0  0  0  0  0
   -4.1864    2.9306    0.0698 C   0  0  0  0  0  0  0  0  0  0  0  0
   -4.9741    3.6389   -0.1541 H   0  0  0  0  0  0  0  0  0  0  0  0
   -4.1622    2.1136    1.1362 N   0  0  0  0  0  0  0  0  0  0  0  0
   -4.8797    2.0544    1.8457 H   0  0  0  0  0  0  0  0  0  0  0  0
   -3.0064    1.3668    1.0815 C   0  0  0  0  0  0  0  0  0  0  0  0
   -2.6834    0.5969    1.7709 H   0  0  0  0  0  0  0  0  0  0  0  0
   -0.0283    0.1609    1.5831 C   0  0  0  0  0  0  0  0  0  0  0  0
    1.1923    0.1056    1.7329 O   0  0  0  0  0  0  0  0  0  0  0  0
   -0.8586    0.4659    2.5853 N   0  0  0  0  0  0  0  0  0  0  0  0
   -1.8521    0.3848    2.4000 H   0  0  0  0  0  0  0  0  0  0  0  0
   -0.4403    0.7694    3.9518 C   0  0  0  0  0  0  0  0  0  0  0  0
    0.5066    1.3154    3.9421 H   0  0  0  0  0  0  0  0  0  0  0  0
   -1.1988    1.3789    4.4452 H   0  0  0  0  0  0  0  0  0  0  0  0
   -0.3053   -0.1600    4.5075 H   0  0  0  0  0  0  0  0  0  0  0  0
  5  6  2  0  0  0  0
  5  7  1  0  0  0  0
  2  3  1  0  0  0  0
  2  4  1  0  0  0  0
  2  5  1  0  0  0  0
  1  2  1  0  0  0  0
 22 23  2  0  0  0  0
 22 24  1  0  0  0  0
 20 21  1  0  0  0  0
 18 19  1  0  0  0  0
 18 20  1  0  0  0  0
 16 17  1  0  0  0  0
 16 18  1  0  0  0  0
 15 16  2  0  0  0  0
 14 15  1  0  0  0  0
 14 20  2  0  0  0  0
 11 12  1  0  0  0  0
 11 13  1  0  0  0  0
 11 14  1  0  0  0  0
  9 10  1  0  0  0  0
  9 11  1  0  0  0  0
  9 22  1  0  0  0  0
  7  8  1  0  0  0  0
  7  9  1  0  0  0  0
 26 27  1  0  0  0  0
 26 28  1  0  0  0  0
 26 29  1  0  0  0  0
 24 25  1  0  0  0  0
 24 26  1  0  0  0  0
M  END
$$$$
default_name
  -OEChem-02102213163D

 29 29  0     1  0  0  0  0  0999 V2000
   -2.9561   -3.9186    1.3887 H   0  0  0  0  0  0  0  0  0  0  0  0
   -3.1191   -2.9346    0.9517 C   0  0  0  0  0  0  0  0  0  0  0  0
   -3.7811   -2.3546    1.5917 H   0  0  0  0  0  0  0  0  0  0  0  0
   -3.5591   -3.0406   -0.0383 H   0  0  0  0  0  0  0  0  0  0  0  0
   -1.7921   -2.2226    0.8327 C   0  0  0  0  0  0  0  0  0  0  0  0
   -0.7611   -2.7766    1.1927 O   0  0  0  0  0  0  0  0  0  0  0  0
   -1.8201   -0.9926    0.3247 N   0  0  0  0  0  0  0  0  0  0  0  0
   -2.7141   -0.5816    0.0927 H   0  0  0  0  0  0  0  0  0  0  0  0
   -0.6481   -0.1156    0.2017 C   0  0  1  0  0  0  0  0  0  0  0  0
    0.1042   -0.6345   -0.3958 H   0  0  0  0  0  0  0  0  0  0  0  0
   -1.0420    1.1781   -0.5372 C   0  0  0  0  0  0  0  0  0  0  0  0
   -0.2690    1.9347   -0.3947 H   0  0  0  0  0  0  0  0  0  0  0  0
   -1.1171    0.9833   -1.6079 H   0  0  0  0  0  0  0  0  0  0  0  0
   -2.3411    1.7649   -0.0410 C   0  0  0  0  0  0  0  0  0  0  0  0
   -3.2445    2.5096   -0.8003 N   0  0  0  0  0  0  0  0  0  0  0  0
   -4.2725    2.7861    0.0153 C   0  0  0  0  0  0  0  0  0  0  0  0
   -5.1420    3.3650   -0.2696 H   0  0  0  0  0  0  0  0  0  0  0  0
   -4.0726    2.2367    1.2250 N   0  0  0  0  0  0  0  0  0  0  0  0
   -4.7136    2.2875    2.0051 H   0  0  0  0  0  0  0  0  0  0  0  0
   -2.8600    1.5842    1.2077 C   0  0  0  0  0  0  0  0  0  0  0  0
   -2.4029    1.0170    2.0087 H   0  0  0  0  0  0  0  0  0  0  0  0
   -0.0283    0.1609    1.5831 C   0  0  0  0  0  0  0  0  0  0  0  0
    1.1923    0.1056    1.7329 O   0  0  0  0  0  0  0  0  0  0  0  0
   -0.8586    0.4659    2.5853 N   0  0  0  0  0  0  0  0  0  0  0  0
   -1.8521    0.3848    2.4000 H   0  0  0  0  0  0  0  0  0  0  0  0
   -0.4403    0.7694    3.9518 C   0  0  0  0  0  0  0  0  0  0  0  0
    0.5066    1.3154    3.9421 H   0  0  0  0  0  0  0  0  0  0  0  0
   -1.1988    1.3789    4.4452 H   0  0  0  0  0  0  0  0  0  0  0  0
   -0.3053   -0.1600    4.5075 H   0  0  0  0  0  0  0  0  0  0  0  0
  5  6  2  0  0  0  0
  5  7  1  0  0  0  0
  2  3  1  0  0  0  0
  2  4  1  0  0  0  0
  2  5  1  0  0  0  0
  1  2  1  0  0  0  0
 22 23  2  0  0  0  0
 22 24  1  0  0  0  0
 20 21  1  0  0  0  0
 18 19  1  0  0  0  0
 18 20  1  0  0  0  0
 16 17  1  0  0  0  0
 16 18  1  0  0  0  0
 15 16  2  0  0  0  0
 14 15  1  0  0  0  0
 14 20  2  0  0  0  0
 11 12  1  0  0  0  0
 11 13  1  0  0  0  0
 11 14  1  0  0  0  0
  9 10  1  0  0  0  0
  9 11  1  0  0  0  0
  9 22  1  0  0  0  0
  7  8  1  0  0  0  0
  7  9  1  0  0  0  0
 26 27  1  0  0  0  0
 26 28  1  0  0  0  0
 26 29  1  0  0  0  0
 24 25  1  0  0  0  0
 24 26  1  0  0  0  0
M  END
$$$$
default_name
  -OEChem-02102213163D

 29 29  0     1  0  0  0  0  0999 V2000
   -2.9561   -3.9186    1.3887 H   0  0  0  0  0  0  0  0  0  0  0  0
   -3.1191   -2.9346    0.9517 C   0  0  0  0  0  0  0  0  0  0  0  0
   -3.7811   -2.3546    1.5917 H   0  0  0  0  0  0  0  0  0  0  0  0
   -3.5591   -3.0406   -0.0383 H   0  0  0  0  0  0  0  0  0  0  0  0
   -1.7921   -2.2226    0.8327 C   0  0  0  0  0  0  0  0  0  0  0  0
   -0.7611   -2.7766    1.1927 O   0  0  0  0  0  0  0  0  0  0  0  0
   -1.8201   -0.9926    0.3247 N   0  0  0  0  0  0  0  0  0  0  0  0
   -2.7141   -0.5816    0.0927 H   0  0  0  0  0  0  0  0  0  0  0  0
   -0.6481   -0.1156    0.2017 C   0  0  1  0  0  0  0  0  0  0  0  0
    0.1042   -0.6345   -0.3958 H   0  0  0  0  0  0  0  0  0  0  0  0
   -1.0420    1.1781   -0.5372 C   0  0  0  0  0  0  0  0  0  0  0  0
   -0.2690    1.9347   -0.3947 H   0  0  0  0  0  0  0  0  0  0  0  0
   -1.1171    0.9833   -1.6079 H   0  0  0  0  0  0  0  0  0  0  0  0
   -2.3411    1.7649   -0.0410 C   0  0  0  0  0  0  0  0  0  0  0  0
   -3.3775    2.2491   -0.8403 N   0  0  0  0  0  0  0  0  0  0  0  0
   -4.3488    2.6270    0.0035 C   0  0  0  0  0  0  0  0  0  0  0  0
   -5.2924    3.0604   -0.3033 H   0  0  0  0  0  0  0  0  0  0  0  0
   -3.9877    2.3830    1.2744 N   0  0  0  0  0  0  0  0  0  0  0  0
   -4.5569    2.5622    2.0904 H   0  0  0  0  0  0  0  0  0  0  0  0
   -2.7244    1.8348    1.2664 C   0  0  0  0  0  0  0  0  0  0  0  0
   -2.1437    1.4996    2.1166 H   0  0  0  0  0  0  0  0  0  0  0  0
   -0.0283    0.1609    1.5831 C   0  0  0  0  0  0  0  0  0  0  0  0
    1.1923    0.1056    1.7329 O   0  0  0  0  0  0  0  0  0  0  0  0
   -0.8586    0.4659    2.5853 N   0  0  0  0  0  0  0  0  0  0  0  0
   -1.8521    0.3848    2.4000 H   0  0  0  0  0  0  0  0  0  0  0  0
   -0.4403    0.7694    3.9518 C   0  0  0  0  0  0  0  0  0  0  0  0
    0.5066    1.3154    3.9421 H   0  0  0  0  0  0  0  0  0  0  0  0
   -1.1988    1.3789    4.4452 H   0  0  0  0  0  0  0  0  0  0  0  0
   -0.3053   -0.1600    4.5075 H   0  0  0  0  0  0  0  0  0  0  0  0
  5  6  2  0  0  0  0
  5  7  1  0  0  0  0
  2  3  1  0  0  0  0
  2  4  1  0  0  0  0
  2  5  1  0  0  0  0
  1  2  1  0  0  0  0
 22 23  2  0  0  0  0
 22 24  1  0  0  0  0
 20 21  1  0  0  0  0
 18 19  1  0  0  0  0
 18 20  1  0  0  0  0
 16 17  1  0  0  0  0
 16 18  1  0  0  0  0
 15 16  2  0  0  0  0
 14 15  1  0  0  0  0
 14 20  2  0  0  0  0
 11 12  1  0  0  0  0
 11 13  1  0  0  0  0
 11 14  1  0  0  0  0
  9 10  1  0  0  0  0
  9 11  1  0  0  0  0
  9 22  1  0  0  0  0
  7  8  1  0  0  0  0
  7  9  1  0  0  0  0
 26 27  1  0  0  0  0
 26 28  1  0  0  0  0
 26 29  1  0  0  0  0
 24 25  1  0  0  0  0
 24 26  1  0  0  0  0
M  END
$$$$
default_name
  -OEChem-02102213163D

 29 29  0     1  0  0  0  0  0999 V2000
   -2.9561   -3.9186    1.3887 H   0  0  0  0  0  0  0  0  0  0  0  0
   -3.1191   -2.9346    0.9517 C   0  0  0  0  0  0  0  0  0  0  0  0
   -3.7811   -2.3546    1.5917 H   0  0  0  0  0  0  0  0  0  0  0  0
   -3.5591   -3.0406   -0.0383 H   0  0  0  0  0  0  0  0  0  0  0  0
   -1.7921   -2.2226    0.8327 C   0  0  0  0  0  0  0  0  0  0  0  0
   -0.7611   -2.7766    1.1927 O   0  0  0  0  0  0  0  0  0  0  0  0
   -1.8201   -0.9926    0.3247 N   0  0  0  0  0  0  0  0  0  0  0  0
   -2.7141   -0.5816    0.0927 H   0  0  0  0  0  0  0  0  0  0  0  0
   -0.6481   -0.1156    0.2017 C   0  0  1  0  0  0  0  0  0  0  0  0
    0.1042   -0.6345   -0.3958 H   0  0  0  0  0  0  0  0  0  0  0  0
   -1.0420    1.1781   -0.5372 C   0  0  0  0  0  0  0  0  0  0  0  0
   -0.2690    1.9347   -0.3947 H   0  0  0  0  0  0  0  0  0  0  0  0
   -1.1171    0.9833   -1.6079 H   0  0  0  0  0  0  0  0  0  0  0  0
   -2.3411    1.7649   -0.0410 C   0  0  0  0  0  0  0  0  0  0  0  0
   -3.4878    1.9772   -0.8075 N   0  0  0  0  0  0  0  0  0  0  0  0
   -4.4102    2.4642    0.0352 C   0  0  0  0  0  0  0  0  0  0  0  0
   -5.4152    2.7459   -0.2529 H   0  0  0  0  0  0  0  0  0  0  0  0
   -3.9131    2.5426    1.2810 N   0  0  0  0  0  0  0  0  0  0  0  0
   -4.4204    2.8600    2.0958 H   0  0  0  0  0  0  0  0  0  0  0  0
   -2.6088    2.1015    1.2537 C   0  0  0  0  0  0  0  0  0  0  0  0
   -1.9235    2.0118    2.0872 H   0  0  0  0  0  0  0  0  0  0  0  0
   -0.0283    0.1609    1.5831 C   0  0  0  0  0  0  0  0  0  0  0  0
    1.1923    0.1056    1.7329 O   0  0  0  0  0  0  0  0  0  0  0  0
   -0.8586    0.4659    2.5853 N   0  0  0  0  0  0  0  0  0  0  0  0
   -1.8521    0.3848    2.4000 H   0  0  0  0  0  0  0  0  0  0  0  0
   -0.4403    0.7694    3.9518 C   0  0  0  0  0  0  0  0  0  0  0  0
    0.5066    1.3154    3.9421 H   0  0  0  0  0  0  0  0  0  0  0  0
   -1.1988    1.3789    4.4452 H   0  0  0  0  0  0  0  0  0  0  0  0
   -0.3053   -0.1600    4.5075 H   0  0  0  0  0  0  0  0  0  0  0  0
  5  6  2  0  0  0  0
  5  7  1  0  0  0  0
  2  3  1  0  0  0  0
  2  4  1  0  0  0  0
  2  5  1  0  0  0  0
  1  2  1  0  0  0  0
 22 23  2  0  0  0  0
 22 24  1  0  0  0  0
 20 21  1  0  0  0  0
 18 19  1  0  0  0  0
 18 20  1  0  0  0  0
 16 17  1  0  0  0  0
 16 18  1  0  0  0  0
 15 16  2  0  0  0  0
 14 15  1  0  0  0  0
 14 20  2  0  0  0  0
 11 12  1  0  0  0  0
 11 13  1  0  0  0  0
 11 14  1  0  0  0  0
  9 10  1  0  0  0  0
  9 11  1  0  0  0  0
  9 22  1  0  0  0  0
  7  8  1  0  0  0  0
  7  9  1  0  0  0  0
 26 27  1  0  0  0  0
 26 28  1  0  0  0  0
 26 29  1  0  0  0  0
 24 25  1  0  0  0  0
 24 26  1  0  0  0  0
M  END
$$$$
default_name
  -OEChem-02102213163D

 29 29  0     1  0  0  0  0  0999 V2000
   -2.9561   -3.9186    1.3887 H   0  0  0  0  0  0  0  0  0  0  0  0
   -3.1191   -2.9346    0.9517 C   0  0  0  0  0  0  0  0  0  0  0  0
   -3.7811   -2.3546    1.5917 H   0  0  0  0  0  0  0  0  0  0  0  0
   -3.5591   -3.0406   -0.0383 H   0  0  0  0  0  0  0  0  0  0  0  0
   -1.7921   -2.2226    0.8327 C   0  0  0  0  0  0  0  0  0  0  0  0
   -0.7611   -2.7766    1.1927 O   0  0  0  0  0  0  0  0  0  0  0  0
   -1.8201   -0.9926    0.3247 N   0  0  0  0  0  0  0  0  0  0  0  0
   -2.7141   -0.5816    0.0927 H   0  0  0  0  0  0  0  0  0  0  0  0
   -0.6481   -0.1156    0.2017 C   0  0  1  0  0  0  0  0  0  0  0  0
    0.1042   -0.6345   -0.3958 H   0  0  0  0  0  0  0  0  0  0  0  0
   -1.0420    1.1781   -0.5372 C   0  0  0  0  0  0  0  0  0  0  0  0
   -0.2690    1.9347   -0.3947 H   0  0  0  0  0  0  0  0  0  0  0  0
   -1.1171    0.9833   -1.6079 H   0  0  0  0  0  0  0  0  0  0  0  0
   -2.3411    1.7649   -0.0410 C   0  0  0  0  0  0  0  0  0  0  0  0
   -3.5678    1.7125   -0.7041 N   0  0  0  0  0  0  0  0  0  0  0  0
   -4.4525    2.3089    0.1083 C   0  0  0  0  0  0  0  0  0  0  0  0
   -5.5020    2.4429   -0.1217 H   0  0  0  0  0  0  0  0  0  0  0  0
   -3.8540    2.7045    1.2443 N   0  0  0  0  0  0  0  0  0  0  0  0
   -4.3133    3.1604    2.0209 H   0  0  0  0  0  0  0  0  0  0  0  0
   -2.5211    2.3661    1.1703 C   0  0  0  0  0  0  0  0  0  0  0  0
   -1.7574    2.5188    1.9225 H   0  0  0  0  0  0  0  0  0  0  0  0
   -0.0283    0.1609    1.5831 C   0  0  0  0  0  0  0  0  0  0  0  0
    1.1923    0.1056    1.7329 O   0  0  0  0  0  0  0  0  0  0  0  0
   -0.8586    0.4659    2.5853 N   0  0  0  0  0  0  0  0  0  0  0  0
   -1.8521    0.3848    2.4000 H   0  0  0  0  0  0  0  0  0  0  0  0
   -0.4403    0.7694    3.9518 C   0  0  0  0  0  0  0  0  0  0  0  0
    0.5066    1.3154    3.9421 H   0  0  0  0  0  0  0  0  0  0  0  0
   -1.1988    1.3789    4.4452 H   0  0  0  0  0  0  0  0  0  0  0  0
   -0.3053   -0.1600    4.5075 H   0  0  0  0  0  0  0  0  0  0  0  0
  5  6  2  0  0  0  0
  5  7  1  0  0  0  0
  2  3  1  0  0  0  0
  2  4  1  0  0  0  0
  2  5  1  0  0  0  0
  1  2  1  0  0  0  0
 22 23  2  0  0  0  0
 22 24  1  0  0  0  0
 20 21  1  0  0  0  0
 18 19  1  0  0  0  0
 18 20  1  0  0  0  0
 16 17  1  0  0  0  0
 16 18  1  0  0  0  0
 15 16  2  0  0  0  0
 14 15  1  0  0  0  0
 14 20  2  0  0  0  0
 11 12  1  0  0  0  0
 11 13  1  0  0  0  0
 11 14  1  0  0  0  0
  9 10  1  0  0  0  0
  9 11  1  0  0  0  0
  9 22  1  0  0  0  0
  7  8  1  0  0  0  0
  7  9  1  0  0  0  0
 26 27  1  0  0  0  0
 26 28  1  0  0  0  0
 26 29  1  0  0  0  0
 24 25  1  0  0  0  0
 24 26  1  0  0  0  0
M  END
$$$$
default_name
  -OEChem-02102213163D

 29 29  0     1  0  0  0  0  0999 V2000
   -2.9561   -3.9186    1.3887 H   0  0  0  0  0  0  0  0  0  0  0  0
   -3.1191   -2.9346    0.9517 C   0  0  0  0  0  0  0  0  0  0  0  0
   -3.7811   -2.3546    1.5917 H   0  0  0  0  0  0  0  0  0  0  0  0
   -3.5591   -3.0406   -0.0383 H   0  0  0  0  0  0  0  0  0  0  0  0
   -1.7921   -2.2226    0.8327 C   0  0  0  0  0  0  0  0  0  0  0  0
   -0.7611   -2.7766    1.1927 O   0  0  0  0  0  0  0  0  0  0  0  0
   -1.8201   -0.9926    0.3247 N   0  0  0  0  0  0  0  0  0  0  0  0
   -2.7141   -0.5816    0.0927 H   0  0  0  0  0  0  0  0  0  0  0  0
   -0.6481   -0.1156    0.2017 C   0  0  1  0  0  0  0  0  0  0  0  0
    0.1042   -0.6345   -0.3958 H   0  0  0  0  0  0  0  0  0  0  0  0
   -1.0420    1.1781   -0.5372 C   0  0  0  0  0  0  0  0  0  0  0  0
   -0.2690    1.9347   -0.3947 H   0  0  0  0  0  0  0  0  0  0  0  0
   -1.1171    0.9833   -1.6079 H   0  0  0  0  0  0  0  0  0  0  0  0
   -2.3411    1.7649   -0.0410 C   0  0  0  0  0  0  0  0  0  0  0  0
   -3.6123    1.4730   -0.5372 N   0  0  0  0  0  0  0  0  0  0  0  0
   -4.4728    2.1715    0.2178 C   0  0  0  0  0  0  0  0  0  0  0  0
   -5.5468    2.1720    0.0812 H   0  0  0  0  0  0  0  0  0  0  0  0
   -3.8143    2.8578    1.1668 N   0  0  0  0  0  0  0  0  0  0  0  0
   -4.2429    3.4430    1.8709 H   0  0  0  0  0  0  0  0  0  0  0  0
   -2.4673    2.6106    1.0221 C   0  0  0  0  0  0  0  0  0  0  0  0
   -1.6567    2.9860    1.6338 H   0  0  0  0  0  0  0  0  0  0  0  0
   -0.0283    0.1609    1.5831 C   0  0  0  0  0  0  0  0  0  0  0  0
    1.1923    0.1056    1.7329 O   0  0  0  0  0  0  0  0  0  0  0  0
   -0.8586    0.4659    2.5853 N   0  0  0  0  0  0  0  0  0  0  0  0
   -1.8521    0.3848    2.4000 H   0  0  0  0  0  0  0  0  0  0  0  0
   -0.4403    0.7694    3.9518 C   0  0  0  0  0  0  0  0  0  0  0  0
    0.5066    1.3154    3.9421 H   0  0  0  0  0  0  0  0  0  0  0  0
   -1.1988    1.3789    4.4452 H   0  0  0  0  0  0  0  0  0  0  0  0
   -0.3053   -0.1600    4.5075 H   0  0  0  0  0  0  0  0  0  0  0  0
  5  6  2  0  0  0  0
  5  7  1  0  0  0  0
  2  3  1  0  0  0  0
  2  4  1  0  0  0  0
  2  5  1  0  0  0  0
  1  2  1  0  0  0  0
 22 23  2  0  0  0  0
 22 24  1  0  0  0  0
 20 21  1  0  0  0  0
 18 19  1  0  0  0  0
 18 20  1  0  0  0  0
 16 17  1  0  0  0  0
 16 18  1  0  0  0  0
 15 16  2  0  0  0  0
 14 15  1  0  0  0  0
 14 20  2  0  0  0  0
 11 12  1  0  0  0  0
 11 13  1  0  0  0  0
 11 14  1  0  0  0  0
  9 10  1  0  0  0  0
  9 11  1  0  0  0  0
  9 22  1  0  0  0  0
  7  8  1  0  0  0  0
  7  9  1  0  0  0  0
 26 27  1  0  0  0  0
 26 28  1  0  0  0  0
 26 29  1  0  0  0  0
 24 25  1  0  0  0  0
 24 26  1  0  0  0  0
M  END
$$$$
default_name
  -OEChem-02102213163D

 29 29  0     1  0  0  0  0  0999 V2000
   -2.9561   -3.9186    1.3887 H   0  0  0  0  0  0  0  0  0  0  0  0
   -3.1191   -2.9346    0.9517 C   0  0  0  0  0  0  0  0  0  0  0  0
   -3.7811   -2.3546    1.5917 H   0  0  0  0  0  0  0  0  0  0  0  0
   -3.5591   -3.0406   -0.0383 H   0  0  0  0  0  0  0  0  0  0  0  0
   -1.7921   -2.2226    0.8327 C   0  0  0  0  0  0  0  0  0  0  0  0
   -0.7611   -2.7766    1.1927 O   0  0  0  0  0  0  0  0  0  0  0  0
   -1.8201   -0.9926    0.3247 N   0  0  0  0  0  0  0  0  0  0  0  0
   -2.7141   -0.5816    0.0927 H   0  0  0  0  0  0  0  0  0  0  0  0
   -0.6481   -0.1156    0.2017 C   0  0  1  0  0  0  0  0  0  0  0  0
    0.1042   -0.6345   -0.3958 H   0  0  0  0  0  0  0  0  0  0  0  0
   -1.0420    1.1781   -0.5372 C   0  0  0  0  0  0  0  0  0  0  0  0
   -0.2690    1.9347   -0.3947 H   0  0  0  0  0  0  0  0  0  0  0  0
   -1.1171    0.9833   -1.6079 H   0  0  0  0  0  0  0  0  0  0  0  0
   -2.3411    1.7649   -0.0410 C   0  0  0  0  0  0  0  0  0  0  0  0
   -3.6180    1.2751   -0.3183 N   0  0  0  0  0  0  0  0  0  0  0  0
   -4.4696    2.0614    0.3561 C   0  0  0  0  0  0  0  0  0  0  0  0
   -5.5467    1.9518    0.3420 H   0  0  0  0  0  0  0  0  0  0  0  0
   -3.7969    2.9920    1.0539 N   0  0  0  0  0  0  0  0  0  0  0  0
   -4.2141    3.6886    1.6560 H   0  0  0  0  0  0  0  0  0  0  0  0
   -2.4511    2.8182    0.8190 C   0  0  0  0  0  0  0  0  0  0  0  0
   -1.6281    3.3815    1.2408 H   0  0  0  0  0  0  0  0  0  0  0  0
   -0.0283    0.1609    1.5831 C   0  0  0  0  0  0  0  0  0  0  0  0
    1.1923    0.1056    1.7329 O   0  0  0  0  0  0  0  0  0  0  0  0
   -0.8586    0.4659    2.5853 N   0  0  0  0  0  0  0  0  0  0  0  0
   -1.8521    0.3848    2.4000 H   0  0  0  0  0  0  0  0  0  0  0  0
   -0.4403    0.7694    3.9518 C   0  0  0  0  0  0  0  0  0  0  0  0
    0.5066    1.3154    3.9421 H   0  0  0  0  0  0  0  0  0  0  0  0
   -1.1988    1.3789    4.4452 H   0  0  0  0  0  0  0  0  0  0  0  0
   -0.3053   -0.1600    4.5075 H   0  0  0  0  0  0  0  0  0  0  0  0
  5  6  2  0  0  0  0
  5  7  1  0  0  0  0
  2  3  1  0  0  0  0
  2  4  1  0  0  0  0
  2  5  1  0  0  0  0
  1  2  1  0  0  0  0
 22 23  2  0  0  0  0
 22 24  1  0  0  0  0
 20 21  1  0  0  0  0
 18 19  1  0  0  0  0
 18 20  1  0  0  0  0
 16 17  1  0  0  0  0
 16 18  1  0  0  0  0
 15 16  2  0  0  0  0
 14 15  1  0  0  0  0
 14 20  2  0  0  0  0
 11 12  1  0  0  0  0
 11 13  1  0  0  0  0
 11 14  1  0  0  0  0
  9 10  1  0  0  0  0
  9 11  1  0  0  0  0
  9 22  1  0  0  0  0
  7  8  1  0  0  0  0
  7  9  1  0  0  0  0
 26 27  1  0  0  0  0
 26 28  1  0  0  0  0
 26 29  1  0  0  0  0
 24 25  1  0  0  0  0
 24 26  1  0  0  0  0
M  END
$$$$
default_name
  -OEChem-02102213163D

 29 29  0     1  0  0  0  0  0999 V2000
   -2.9561   -3.9186    1.3887 H   0  0  0  0  0  0  0  0  0  0  0  0
   -3.1191   -2.9346    0.9517 C   0  0  0  0  0  0  0  0  0  0  0  0
   -3.7811   -2.3546    1.5917 H   0  0  0  0  0  0  0  0  0  0  0  0
   -3.5591   -3.0406   -0.0383 H   0  0  0  0  0  0  0  0  0  0  0  0
   -1.7921   -2.2226    0.8327 C   0  0  0  0  0  0  0  0  0  0  0  0
   -0.7611   -2.7766    1.1927 O   0  0  0  0  0  0  0  0  0  0  0  0
   -1.8201   -0.9926    0.3247 N   0  0  0  0  0  0  0  0  0  0  0  0
   -2.7141   -0.5816    0.0927 H   0  0  0  0  0  0  0  0  0  0  0  0
   -0.6481   -0.1156    0.2017 C   0  0  1  0  0  0  0  0  0  0  0  0
    0.1042   -0.6345   -0.3958 H   0  0  0  0  0  0  0  0  0  0  0  0
   -1.0420    1.1781   -0.5372 C   0  0  0  0  0  0  0  0  0  0  0  0
   -0.2690    1.9347   -0.3947 H   0  0  0  0  0  0  0  0  0  0  0  0
   -1.1171    0.9833   -1.6079 H   0  0  0  0  0  0  0  0  0  0  0  0
   -2.3411    1.7649   -0.0410 C   0  0  0  0  0  0  0  0  0  0  0  0
   -3.5847    1.1322   -0.0620 N   0  0  0  0  0  0  0  0  0  0  0  0
   -4.4433    1.9862    0.5140 C   0  0  0  0  0  0  0  0  0  0  0  0
   -5.5015    1.7972    0.6430 H   0  0  0  0  0  0  0  0  0  0  0  0
   -3.8028    3.0979    0.9131 N   0  0  0  0  0  0  0  0  0  0  0  0
   -4.2287    3.8804    1.3908 H   0  0  0  0  0  0  0  0  0  0  0  0
   -2.4735    2.9750    0.5749 C   0  0  0  0  0  0  0  0  0  0  0  0
   -1.6738    3.6784    0.7701 H   0  0  0  0  0  0  0  0  0  0  0  0
   -0.0283    0.1609    1.5831 C   0  0  0  0  0  0  0  0  0  0  0  0
    1.1923    0.1056    1.7329 O   0  0  0  0  0  0  0  0  0  0  0  0
   -0.8586    0.4659    2.5853 N   0  0  0  0  0  0  0  0  0  0  0  0
   -1.8521    0.3848    2.4000 H   0  0  0  0  0  0  0  0  0  0  0  0
   -0.4403    0.7694    3.9518 C   0  0  0  0  0  0  0  0  0  0  0  0
    0.5066    1.3154    3.9421 H   0  0  0  0  0  0  0  0  0  0  0  0
   -1.1988    1.3789    4.4452 H   0  0  0  0  0  0  0  0  0  0  0  0
   -0.3053   -0.1600    4.5075 H   0  0  0  0  0  0  0  0  0  0  0  0
  5  6  2  0  0  0  0
  5  7  1  0  0  0  0
  2  3  1  0  0  0  0
  2  4  1  0  0  0  0
  2  5  1  0  0  0  0
  1  2  1  0  0  0  0
 22 23  2  0  0  0  0
 22 24  1  0  0  0  0
 20 21  1  0  0  0  0
 18 19  1  0  0  0  0
 18 20  1  0  0  0  0
 16 17  1  0  0  0  0
 16 18  1  0  0  0  0
 15 16  2  0  0  0  0
 14 15  1  0  0  0  0
 14 20  2  0  0  0  0
 11 12  1  0  0  0  0
 11 13  1  0  0  0  0
 11 14  1  0  0  0  0
  9 10  1  0  0  0  0
  9 11  1  0  0  0  0
  9 22  1  0  0  0  0
  7  8  1  0  0  0  0
  7  9  1  0  0  0  0
 26 27  1  0  0  0  0
 26 28  1  0  0  0  0
 26 29  1  0  0  0  0
 24 25  1  0  0  0  0
 24 26  1  0  0  0  0
M  END
$$$$
default_name
  -OEChem-02102213163D

 29 29  0     1  0  0  0  0  0999 V2000
   -2.9561   -3.9186    1.3887 H   0  0  0  0  0  0  0  0  0  0  0  0
   -3.1191   -2.9346    0.9517 C   0  0  0  0  0  0  0  0  0  0  0  0
   -3.7811   -2.3546    1.5917 H   0  0  0  0  0  0  0  0  0  0  0  0
   -3.5591   -3.0406   -0.0383 H   0  0  0  0  0  0  0  0  0  0  0  0
   -1.7921   -2.2226    0.8327 C   0  0  0  0  0  0  0  0  0  0  0  0
   -0.7611   -2.7766    1.1927 O   0  0  0  0  0  0  0  0  0  0  0  0
   -1.8201   -0.9926    0.3247 N   0  0  0  0  0  0  0  0  0  0  0  0
   -2.7141   -0.5816    0.0927 H   0  0  0  0  0  0  0  0  0  0  0  0
   -0.6481   -0.1156    0.2017 C   0  0  1  0  0  0  0  0  0  0  0  0
    0.1042   -0.6345   -0.3958 H   0  0  0  0  0  0  0  0  0  0  0  0
   -1.0420    1.1781   -0.5372 C   0  0  0  0  0  0  0  0  0  0  0  0
   -0.2690    1.9347   -0.3947 H   0  0  0  0  0  0  0  0  0  0  0  0
   -1.1171    0.9833   -1.6079 H   0  0  0  0  0  0  0  0  0  0  0  0
   -2.3411    1.7649   -0.0410 C   0  0  0  0  0  0  0  0  0  0  0  0
   -3.5146    1.0541    0.2139 N   0  0  0  0  0  0  0  0  0  0  0  0
   -4.3956    1.9510    0.6806 C   0  0  0  0  0  0  0  0  0  0  0  0
   -5.4145    1.7187    0.9636 H   0  0  0  0  0  0  0  0  0  0  0  0
   -3.8317    3.1683    0.7542 N   0  0  0  0  0  0  0  0  0  0  0  0
   -4.2859    4.0053    1.0934 H   0  0  0  0  0  0  0  0  0  0  0  0
   -2.5330    3.0701    0.3065 C   0  0  0  0  0  0  0  0  0  0  0  0
   -1.7905    3.8564    0.2540 H   0  0  0  0  0  0  0  0  0  0  0  0
   -0.0283    0.1609    1.5831 C   0  0  0  0  0  0  0  0  0  0  0  0
    1.1923    0.1056    1.7329 O   0  0  0  0  0  0  0  0  0  0  0  0
   -0.8586    0.4659    2.5853 N   0  0  0  0  0  0  0  0  0  0  0  0
   -1.8521    0.3848    2.4000 H   0  0  0  0  0  0  0  0  0  0  0  0
   -0.4403    0.7694    3.9518 C   0  0  0  0  0  0  0  0  0  0  0  0
    0.5066    1.3154    3.9421 H   0  0  0  0  0  0  0  0  0  0  0  0
   -1.1988    1.3789    4.4452 H   0  0  0  0  0  0  0  0  0  0  0  0
   -0.3053   -0.1600    4.5075 H   0  0  0  0  0  0  0  0  0  0  0  0
  5  6  2  0  0  0  0
  5  7  1  0  0  0  0
  2  3  1  0  0  0  0
  2  4  1  0  0  0  0
  2  5  1  0  0  0  0
  1  2  1  0  0  0  0
 22 23  2  0  0  0  0
 22 24  1  0  0  0  0
 20 21  1  0  0  0  0
 18 19  1  0  0  0  0
 18 20  1  0  0  0  0
 16 17  1  0  0  0  0
 16 18  1  0  0  0  0
 15 16  2  0  0  0  0
 14 15  1  0  0  0  0
 14 20  2  0  0  0  0
 11 12  1  0  0  0  0
 11 13  1  0  0  0  0
 11 14  1  0  0  0  0
  9 10  1  0  0  0  0
  9 11  1  0  0  0  0
  9 22  1  0  0  0  0
  7  8  1  0  0  0  0
  7  9  1  0  0  0  0
 26 27  1  0  0  0  0
 26 28  1  0  0  0  0
 26 29  1  0  0  0  0
 24 25  1  0  0  0  0
 24 26  1  0  0  0  0
M  END
$$$$
default_name
  -OEChem-02102213163D

 29 29  0     1  0  0  0  0  0999 V2000
   -2.9561   -3.9186    1.3887 H   0  0  0  0  0  0  0  0  0  0  0  0
   -3.1191   -2.9346    0.9517 C   0  0  0  0  0  0  0  0  0  0  0  0
   -3.7811   -2.3546    1.5917 H   0  0  0  0  0  0  0  0  0  0  0  0
   -3.5591   -3.0406   -0.0383 H   0  0  0  0  0  0  0  0  0  0  0  0
   -1.7921   -2.2226    0.8327 C   0  0  0  0  0  0  0  0  0  0  0  0
   -0.7611   -2.7766    1.1927 O   0  0  0  0  0  0  0  0  0  0  0  0
   -1.8201   -0.9926    0.3247 N   0  0  0  0  0  0  0  0  0  0  0  0
   -2.7141   -0.5816    0.0927 H   0  0  0  0  0  0  0  0  0  0  0  0
   -0.6481   -0.1156    0.2017 C   0  0  1  0  0  0  0  0  0  0  0  0
    0.1042   -0.6345   -0.3958 H   0  0  0  0  0  0  0  0  0  0  0  0
   -1.0420    1.1781   -0.5372 C   0  0  0  0  0  0  0  0  0  0  0  0
   -0.2690    1.9347   -0.3947 H   0  0  0  0  0  0  0  0  0  0  0  0
   -1.1171    0.9833   -1.6079 H   0  0  0  0  0  0  0  0  0  0  0  0
   -2.3411    1.7649   -0.0410 C   0  0  0  0  0  0  0  0  0  0  0  0
   -3.4124    1.0461    0.4908 N   0  0  0  0  0  0  0  0  0  0  0  0
   -4.3297    1.9581    0.8445 C   0  0  0  0  0  0  0  0  0  0  0  0
   -5.2915    1.7218    1.2821 H   0  0  0  0  0  0  0  0  0  0  0  0
   -3.8816    3.1985    0.5878 N   0  0  0  0  0  0  0  0  0  0  0  0
   -4.3817    4.0548    0.7840 H   0  0  0  0  0  0  0  0  0  0  0  0
   -2.6257    3.0972    0.0320 C   0  0  0  0  0  0  0  0  0  0  0  0
   -1.9704    3.9035   -0.2725 H   0  0  0  0  0  0  0  0  0  0  0  0
   -0.0283    0.1609    1.5831 C   0  0  0  0  0  0  0  0  0  0  0  0
    1.1923    0.1056    1.7329 O   0  0  0  0  0  0  0  0  0  0  0  0
   -0.8586    0.4659    2.5853 N   0  0  0  0  0  0  0  0  0  0  0  0
   -1.8521    0.3848    2.4000 H   0  0  0  0  0  0  0  0  0  0  0  0
   -0.4403    0.7694    3.9518 C   0  0  0  0  0  0  0  0  0  0  0  0
    0.5066    1.3154    3.9421 H   0  0  0  0  0  0  0  0  0  0  0  0
   -1.1988    1.3789    4.4452 H   0  0  0  0  0  0  0  0  0  0  0  0
   -0.3053   -0.1600    4.5075 H   0  0  0  0  0  0  0  0  0  0  0  0
  5  6  2  0  0  0  0
  5  7  1  0  0  0  0
  2  3  1  0  0  0  0
  2  4  1  0  0  0  0
  2  5  1  0  0  0  0
  1  2  1  0  0  0  0
 22 23  2  0  0  0  0
 22 24  1  0  0  0  0
 20 21  1  0  0  0  0
 18 19  1  0  0  0  0
 18 20  1  0  0  0  0
 16 17  1  0  0  0  0
 16 18  1  0  0  0  0
 15 16  2  0  0  0  0
 14 15  1  0  0  0  0
 14 20  2  0  0  0  0
 11 12  1  0  0  0  0
 11 13  1  0  0  0  0
 11 14  1  0  0  0  0
  9 10  1  0  0  0  0
  9 11  1  0  0  0  0
  9 22  1  0  0  0  0
  7  8  1  0  0  0  0
  7  9  1  0  0  0  0
 26 27  1  0  0  0  0
 26 28  1  0  0  0  0
 26 29  1  0  0  0  0
 24 25  1  0  0  0  0
 24 26  1  0  0  0  0
M  END
$$$$
default_name
  -OEChem-02102213163D

 29 29  0     1  0  0  0  0  0999 V2000
   -2.9561   -3.9186    1.3887 H   0  0  0  0  0  0  0  0  0  0  0  0
   -3.1191   -2.9346    0.9517 C   0  0  0  0  0  0  0  0  0  0  0  0
   -3.7811   -2.3546    1.5917 H   0  0  0  0  0  0  0  0  0  0  0  0
   -3.5591   -3.0406   -0.0383 H   0  0  0  0  0  0  0  0  0  0  0  0
   -1.7921   -2.2226    0.8327 C   0  0  0  0  0  0  0  0  0  0  0  0
   -0.7611   -2.7766    1.1927 O   0  0  0  0  0  0  0  0  0  0  0  0
   -1.8201   -0.9926    0.3247 N   0  0  0  0  0  0  0  0  0  0  0  0
   -2.7141   -0.5816    0.0927 H   0  0  0  0  0  0  0  0  0  0  0  0
   -0.6481   -0.1156    0.2017 C   0  0  1  0  0  0  0  0  0  0  0  0
    0.1042   -0.6345   -0.3958 H   0  0  0  0  0  0  0  0  0  0  0  0
   -1.0420    1.1781   -0.5372 C   0  0  0  0  0  0  0  0  0  0  0  0
   -0.2690    1.9347   -0.3947 H   0  0  0  0  0  0  0  0  0  0  0  0
   -1.1171    0.9833   -1.6079 H   0  0  0  0  0  0  0  0  0  0  0  0
   -2.3411    1.7649   -0.0410 C   0  0  0  0  0  0  0  0  0  0  0  0
   -3.2852    1.1087    0.7498 N   0  0  0  0  0  0  0  0  0  0  0  0
   -4.2502    2.0071    0.9947 C   0  0  0  0  0  0  0  0  0  0  0  0
   -5.1409    1.8061    1.5766 H   0  0  0  0  0  0  0  0  0  0  0  0
   -3.9491    3.1863    0.4255 N   0  0  0  0  0  0  0  0  0  0  0  0
   -4.5096    4.0256    0.4838 H   0  0  0  0  0  0  0  0  0  0  0  0
   -2.7451    3.0542   -0.2298 C   0  0  0  0  0  0  0  0  0  0  0  0
   -2.2010    3.8164   -0.7734 H   0  0  0  0  0  0  0  0  0  0  0  0
   -0.0283    0.1609    1.5831 C   0  0  0  0  0  0  0  0  0  0  0  0
    1.1923    0.1056    1.7329 O   0  0  0  0  0  0  0  0  0  0  0  0
   -0.8586    0.4659    2.5853 N   0  0  0  0  0  0  0  0  0  0  0  0
   -1.8521    0.3848    2.4000 H   0  0  0  0  0  0  0  0  0  0  0  0
   -0.4403    0.7694    3.9518 C   0  0  0  0  0  0  0  0  0  0  0  0
    0.5066    1.3154    3.9421 H   0  0  0  0  0  0  0  0  0  0  0  0
   -1.1988    1.3789    4.4452 H   0  0  0  0  0  0  0  0  0  0  0  0
   -0.3053   -0.1600    4.5075 H   0  0  0  0  0  0  0  0  0  0  0  0
  5  6  2  0  0  0  0
  5  7  1  0  0  0  0
  2  3  1  0  0  0  0
  2  4  1  0  0  0  0
  2  5  1  0  0  0  0
  1  2  1  0  0  0  0
 22 23  2  0  0  0  0
 22 24  1  0  0  0  0
 20 21  1  0  0  0  0
 18 19  1  0  0  0  0
 18 20  1  0  0  0  0
 16 17  1  0  0  0  0
 16 18  1  0  0  0  0
 15 16  2  0  0  0  0
 14 15  1  0  0  0  0
 14 20  2  0  0  0  0
 11 12  1  0  0  0  0
 11 13  1  0  0  0  0
 11 14  1  0  0  0  0
  9 10  1  0  0  0  0
  9 11  1  0  0  0  0
  9 22  1  0  0  0  0
  7  8  1  0  0  0  0
  7  9  1  0  0  0  0
 26 27  1  0  0  0  0
 26 28  1  0  0  0  0
 26 29  1  0  0  0  0
 24 25  1  0  0  0  0
 24 26  1  0  0  0  0
M  END
$$$$
default_name
  -OEChem-02102213163D

 29 29  0     1  0  0  0  0  0999 V2000
   -2.9561   -3.9186    1.3887 H   0  0  0  0  0  0  0  0  0  0  0  0
   -3.1191   -2.9346    0.9517 C   0  0  0  0  0  0  0  0  0  0  0  0
   -3.7811   -2.3546    1.5917 H   0  0  0  0  0  0  0  0  0  0  0  0
   -3.5591   -3.0406   -0.0383 H   0  0  0  0  0  0  0  0  0  0  0  0
   -1.7921   -2.2226    0.8327 C   0  0  0  0  0  0  0  0  0  0  0  0
   -0.7611   -2.7766    1.1927 O   0  0  0  0  0  0  0  0  0  0  0  0
   -1.8201   -0.9926    0.3247 N   0  0  0  0  0  0  0  0  0  0  0  0
   -2.7141   -0.5816    0.0927 H   0  0  0  0  0  0  0  0  0  0  0  0
   -0.6481   -0.1156    0.2017 C   0  0  1  0  0  0  0  0  0  0  0  0
    0.1042   -0.6345   -0.3958 H   0  0  0  0  0  0  0  0  0  0  0  0
   -1.0420    1.1781   -0.5372 C   0  0  0  0  0  0  0  0  0  0  0  0
   -0.2690    1.9347   -0.3947 H   0  0  0  0  0  0  0  0  0  0  0  0
   -1.1171    0.9833   -1.6079 H   0  0  0  0  0  0  0  0  0  0  0  0
   -2.3411    1.7649   -0.0410 C   0  0  0  0  0  0  0  0  0  0  0  0
   -3.1416    1.2377    0.9731 N   0  0  0  0  0  0  0  0  0  0  0  0
   -4.1625    2.0947    1.1208 C   0  0  0  0  0  0  0  0  0  0  0  0
   -4.9730    1.9660    1.8271 H   0  0  0  0  0  0  0  0  0  0  0  0
   -4.0296    3.1327    0.2781 N   0  0  0  0  0  0  0  0  0  0  0  0
   -4.6608    3.9196    0.2132 H   0  0  0  0  0  0  0  0  0  0  0  0
   -2.8831    2.9443   -0.4611 C   0  0  0  0  0  0  0  0  0  0  0  0
   -2.4668    3.6010   -1.2147 H   0  0  0  0  0  0  0  0  0  0  0  0
   -0.0283    0.1609    1.5831 C   0  0  0  0  0  0  0  0  0  0  0  0
    1.1923    0.1056    1.7329 O   0  0  0  0  0  0  0  0  0  0  0  0
   -0.8586    0.4659    2.5853 N   0  0  0  0  0  0  0  0  0  0  0  0
   -1.8521    0.3848    2.4000 H   0  0  0  0  0  0  0  0  0  0  0  0
   -0.4403    0.7694    3.9518 C   0  0  0  0  0  0  0  0  0  0  0  0
    0.5066    1.3154    3.9421 H   0  0  0  0  0  0  0  0  0  0  0  0
   -1.1988    1.3789    4.4452 H   0  0  0  0  0  0  0  0  0  0  0  0
   -0.3053   -0.1600    4.5075 H   0  0  0  0  0  0  0  0  0  0  0  0
  5  6  2  0  0  0  0
  5  7  1  0  0  0  0
  2  3  1  0  0  0  0
  2  4  1  0  0  0  0
  2  5  1  0  0  0  0
  1  2  1  0  0  0  0
 22 23  2  0  0  0  0
 22 24  1  0  0  0  0
 20 21  1  0  0  0  0
 18 19  1  0  0  0  0
 18 20  1  0  0  0  0
 16 17  1  0  0  0  0
 16 18  1  0  0  0  0
 15 16  2  0  0  0  0
 14 15  1  0  0  0  0
 14 20  2  0  0  0  0
 11 12  1  0  0  0  0
 11 13  1  0  0  0  0
 11 14  1  0  0  0  0
  9 10  1  0  0  0  0
  9 11  1  0  0  0  0
  9 22  1  0  0  0  0
  7  8  1  0  0  0  0
  7  9  1  0  0  0  0
 26 27  1  0  0  0  0
 26 28  1  0  0  0  0
 26 29  1  0  0  0  0
 24 25  1  0  0  0  0
 24 26  1  0  0  0  0
M  END
$$$$
default_name
  -OEChem-02102213163D

 29 29  0     1  0  0  0  0  0999 V2000
   -2.9561   -3.9186    1.3887 H   0  0  0  0  0  0  0  0  0  0  0  0
   -3.1191   -2.9346    0.9517 C   0  0  0  0  0  0  0  0  0  0  0  0
   -3.7811   -2.3546    1.5917 H   0  0  0  0  0  0  0  0  0  0  0  0
   -3.5591   -3.0406   -0.0383 H   0  0  0  0  0  0  0  0  0  0  0  0
   -1.7921   -2.2226    0.8327 C   0  0  0  0  0  0  0  0  0  0  0  0
   -0.7611   -2.7766    1.1927 O   0  0  0  0  0  0  0  0  0  0  0  0
   -1.8201   -0.9926    0.3247 N   0  0  0  0  0  0  0  0  0  0  0  0
   -2.7141   -0.5816    0.0927 H   0  0  0  0  0  0  0  0  0  0  0  0
   -0.6481   -0.1156    0.2017 C   0  0  1  0  0  0  0  0  0  0  0  0
    0.1042   -0.6345   -0.3958 H   0  0  0  0  0  0  0  0  0  0  0  0
   -1.0420    1.1781   -0.5372 C   0  0  0  0  0  0  0  0  0  0  0  0
   -0.2690    1.9347   -0.3947 H   0  0  0  0  0  0  0  0  0  0  0  0
   -1.1171    0.9833   -1.6079 H   0  0  0  0  0  0  0  0  0  0  0  0
   -2.3411    1.7649   -0.0410 C   0  0  0  0  0  0  0  0  0  0  0  0
   -2.9914    1.4243    1.1457 N   0  0  0  0  0  0  0  0  0  0  0  0
   -4.0725    2.2148    1.2143 C   0  0  0  0  0  0  0  0  0  0  0  0
   -4.7992    2.1906    2.0166 H   0  0  0  0  0  0  0  0  0  0  0  0
   -4.1176    3.0412    0.1559 N   0  0  0  0  0  0  0  0  0  0  0  0
   -4.8251    3.7441   -0.0094 H   0  0  0  0  0  0  0  0  0  0  0  0
   -3.0303    2.7749   -0.6462 C   0  0  0  0  0  0  0  0  0  0  0  0
   -2.7497    3.2721   -1.5662 H   0  0  0  0  0  0  0  0  0  0  0  0
   -0.0283    0.1609    1.5831 C   0  0  0  0  0  0  0  0  0  0  0  0
    1.1923    0.1056    1.7329 O   0  0  0  0  0  0  0  0  0  0  0  0
   -0.8586    0.4659    2.5853 N   0  0  0  0  0  0  0  0  0  0  0  0
   -1.8521    0.3848    2.4000 H   0  0  0  0  0  0  0  0  0  0  0  0
   -0.4403    0.7694    3.9518 C   0  0  0  0  0  0  0  0  0  0  0  0
    0.5066    1.3154    3.9421 H   0  0  0  0  0  0  0  0  0  0  0  0
   -1.1988    1.3789    4.4452 H   0  0  0  0  0  0  0  0  0  0  0  0
   -0.3053   -0.1600    4.5075 H   0  0  0  0  0  0  0  0  0  0  0  0
  5  6  2  0  0  0  0
  5  7  1  0  0  0  0
  2  3  1  0  0  0  0
  2  4  1  0  0  0  0
  2  5  1  0  0  0  0
  1  2  1  0  0  0  0
 22 23  2  0  0  0  0
 22 24  1  0  0  0  0
 20 21  1  0  0  0  0
 18 19  1  0  0  0  0
 18 20  1  0  0  0  0
 16 17  1  0  0  0  0
 16 18  1  0  0  0  0
 15 16  2  0  0  0  0
 14 15  1  0  0  0  0
 14 20  2  0  0  0  0
 11 12  1  0  0  0  0
 11 13  1  0  0  0  0
 11 14  1  0  0  0  0
  9 10  1  0  0  0  0
  9 11  1  0  0  0  0
  9 22  1  0  0  0  0
  7  8  1  0  0  0  0
  7  9  1  0  0  0  0
 26 27  1  0  0  0  0
 26 28  1  0  0  0  0
 26 29  1  0  0  0  0
 24 25  1  0  0  0  0
 24 26  1  0  0  0  0
M  END
$$$$
default_name
  -OEChem-02102213163D

 29 29  0     1  0  0  0  0  0999 V2000
   -2.9561   -3.9186    1.3887 H   0  0  0  0  0  0  0  0  0  0  0  0
   -3.1191   -2.9346    0.9517 C   0  0  0  0  0  0  0  0  0  0  0  0
   -3.7811   -2.3546    1.5917 H   0  0  0  0  0  0  0  0  0  0  0  0
   -3.5591   -3.0406   -0.0383 H   0  0  0  0  0  0  0  0  0  0  0  0
   -1.7921   -2.2226    0.8327 C   0  0  0  0  0  0  0  0  0  0  0  0
   -0.7611   -2.7766    1.1927 O   0  0  0  0  0  0  0  0  0  0  0  0
   -1.8201   -0.9926    0.3247 N   0  0  0  0  0  0  0  0  0  0  0  0
   -2.7141   -0.5816    0.0927 H   0  0  0  0  0  0  0  0  0  0  0  0
   -0.6481   -0.1156    0.2017 C   0  0  1  0  0  0  0  0  0  0  0  0
    0.1042   -0.6345   -0.3958 H   0  0  0  0  0  0  0  0  0  0  0  0
   -1.0420    1.1781   -0.5372 C   0  0  0  0  0  0  0  0  0  0  0  0
   -0.2690    1.9347   -0.3947 H   0  0  0  0  0  0  0  0  0  0  0  0
   -1.1171    0.9833   -1.6079 H   0  0  0  0  0  0  0  0  0  0  0  0
   -2.3411    1.7649   -0.0410 C   0  0  0  0  0  0  0  0  0  0  0  0
   -2.8449    1.6558    1.2557 N   0  0  0  0  0  0  0  0  0  0  0  0
   -3.9864    2.3593    1.2688 C   0  0  0  0  0  0  0  0  0  0  0  0
   -4.6313    2.4645    2.1321 H   0  0  0  0  0  0  0  0  0  0  0  0
   -4.2072    2.9181    0.0670 N   0  0  0  0  0  0  0  0  0  0  0  0
   -4.9912    3.5110   -0.1687 H   0  0  0  0  0  0  0  0  0  0  0  0
   -3.1767    2.5574   -0.7724 C   0  0  0  0  0  0  0  0  0  0  0  0
   -3.0302    2.8520   -1.8039 H   0  0  0  0  0  0  0  0  0  0  0  0
   -0.0283    0.1609    1.5831 C   0  0  0  0  0  0  0  0  0  0  0  0
    1.1923    0.1056    1.7329 O   0  0  0  0  0  0  0  0  0  0  0  0
   -0.8586    0.4659    2.5853 N   0  0  0  0  0  0  0  0  0  0  0  0
   -1.8521    0.3848    2.4000 H   0  0  0  0  0  0  0  0  0  0  0  0
   -0.4403    0.7694    3.9518 C   0  0  0  0  0  0  0  0  0  0  0  0
    0.5066    1.3154    3.9421 H   0  0  0  0  0  0  0  0  0  0  0  0
   -1.1988    1.3789    4.4452 H   0  0  0  0  0  0  0  0  0  0  0  0
   -0.3053   -0.1600    4.5075 H   0  0  0  0  0  0  0  0  0  0  0  0
  5  6  2  0  0  0  0
  5  7  1  0  0  0  0
  2  3  1  0  0  0  0
  2  4  1  0  0  0  0
  2  5  1  0  0  0  0
  1  2  1  0  0  0  0
 22 23  2  0  0  0  0
 22 24  1  0  0  0  0
 20 21  1  0  0  0  0
 18 19  1  0  0  0  0
 18 20  1  0  0  0  0
 16 17  1  0  0  0  0
 16 18  1  0  0  0  0
 15 16  2  0  0  0  0
 14 15  1  0  0  0  0
 14 20  2  0  0  0  0
 11 12  1  0  0  0  0
 11 13  1  0  0  0  0
 11 14  1  0  0  0  0
  9 10  1  0  0  0  0
  9 11  1  0  0  0  0
  9 22  1  0  0  0  0
  7  8  1  0  0  0  0
  7  9  1  0  0  0  0
 26 27  1  0  0  0  0
 26 28  1  0  0  0  0
 26 29  1  0  0  0  0
 24 25  1  0  0  0  0
 24 26  1  0  0  0  0
M  END
$$$$
default_name
  -OEChem-02102213163D

 29 29  0     1  0  0  0  0  0999 V2000
   -2.9561   -3.9186    1.3887 H   0  0  0  0  0  0  0  0  0  0  0  0
   -3.1191   -2.9346    0.9517 C   0  0  0  0  0  0  0  0  0  0  0  0
   -3.7811   -2.3546    1.5917 H   0  0  0  0  0  0  0  0  0  0  0  0
   -3.5591   -3.0406   -0.0383 H   0  0  0  0  0  0  0  0  0  0  0  0
   -1.7921   -2.2226    0.8327 C   0  0  0  0  0  0  0  0  0  0  0  0
   -0.7611   -2.7766    1.1927 O   0  0  0  0  0  0  0  0  0  0  0  0
   -1.8201   -0.9926    0.3247 N   0  0  0  0  0  0  0  0  0  0  0  0
   -2.7141   -0.5816    0.0927 H   0  0  0  0  0  0  0  0  0  0  0  0
   -0.6481   -0.1156    0.2017 C   0  0  1  0  0  0  0  0  0  0  0  0
    0.1042   -0.6345   -0.3958 H   0  0  0  0  0  0  0  0  0  0  0  0
   -1.0420    1.1781   -0.5372 C   0  0  0  0  0  0  0  0  0  0  0  0
   -0.2690    1.9347   -0.3947 H   0  0  0  0  0  0  0  0  0  0  0  0
   -1.1171    0.9833   -1.6079 H   0  0  0  0  0  0  0  0  0  0  0  0
   -2.3411    1.7649   -0.0410 C   0  0  0  0  0  0  0  0  0  0  0  0
   -2.7119    1.9164    1.2957 N   0  0  0  0  0  0  0  0  0  0  0  0
   -3.9101    2.5184    1.2806 C   0  0  0  0  0  0  0  0  0  0  0  0
   -4.4809    2.7690    2.1658 H   0  0  0  0  0  0  0  0  0  0  0  0
   -4.2921    2.7718    0.0176 N   0  0  0  0  0  0  0  0  0  0  0  0
   -5.1479    3.2363   -0.2540 H   0  0  0  0  0  0  0  0  0  0  0  0
   -3.3123    2.3068   -0.8311 C   0  0  0  0  0  0  0  0  0  0  0  0
   -3.2894    2.3694   -1.9118 H   0  0  0  0  0  0  0  0  0  0  0  0
   -0.0283    0.1609    1.5831 C   0  0  0  0  0  0  0  0  0  0  0  0
    1.1923    0.1056    1.7329 O   0  0  0  0  0  0  0  0  0  0  0  0
   -0.8586    0.4659    2.5853 N   0  0  0  0  0  0  0  0  0  0  0  0
   -1.8521    0.3848    2.4000 H   0  0  0  0  0  0  0  0  0  0  0  0
   -0.4403    0.7694    3.9518 C   0  0  0  0  0  0  0  0  0  0  0  0
    0.5066    1.3154    3.9421 H   0  0  0  0  0  0  0  0  0  0  0  0
   -1.1988    1.3789    4.4452 H   0  0  0  0  0  0  0  0  0  0  0  0
   -0.3053   -0.1600    4.5075 H   0  0  0  0  0  0  0  0  0  0  0  0
  5  6  2  0  0  0  0
  5  7  1  0  0  0  0
  2  3  1  0  0  0  0
  2  4  1  0  0  0  0
  2  5  1  0  0  0  0
  1  2  1  0  0  0  0
 22 23  2  0  0  0  0
 22 24  1  0  0  0  0
 20 21  1  0  0  0  0
 18 19  1  0  0  0  0
 18 20  1  0  0  0  0
 16 17  1  0  0  0  0
 16 18  1  0  0  0  0
 15 16  2  0  0  0  0
 14 15  1  0  0  0  0
 14 20  2  0  0  0  0
 11 12  1  0  0  0  0
 11 13  1  0  0  0  0
 11 14  1  0  0  0  0
  9 10  1  0  0  0  0
  9 11  1  0  0  0  0
  9 22  1  0  0  0  0
  7  8  1  0  0  0  0
  7  9  1  0  0  0  0
 26 27  1  0  0  0  0
 26 28  1  0  0  0  0
 26 29  1  0  0  0  0
 24 25  1  0  0  0  0
 24 26  1  0  0  0  0
M  END
$$$$
default_name
  -OEChem-02102213163D

 29 29  0     1  0  0  0  0  0999 V2000
   -2.9561   -3.9186    1.3887 H   0  0  0  0  0  0  0  0  0  0  0  0
   -3.1191   -2.9346    0.9517 C   0  0  0  0  0  0  0  0  0  0  0  0
   -3.7811   -2.3546    1.5917 H   0  0  0  0  0  0  0  0  0  0  0  0
   -3.5591   -3.0406   -0.0383 H   0  0  0  0  0  0  0  0  0  0  0  0
   -1.7921   -2.2226    0.8327 C   0  0  0  0  0  0  0  0  0  0  0  0
   -0.7611   -2.7766    1.1927 O   0  0  0  0  0  0  0  0  0  0  0  0
   -1.8201   -0.9926    0.3247 N   0  0  0  0  0  0  0  0  0  0  0  0
   -2.7141   -0.5816    0.0927 H   0  0  0  0  0  0  0  0  0  0  0  0
   -0.6481   -0.1156    0.2017 C   0  0  1  0  0  0  0  0  0  0  0  0
    0.1042   -0.6345   -0.3958 H   0  0  0  0  0  0  0  0  0  0  0  0
   -1.0420    1.1781   -0.5372 C   0  0  0  0  0  0  0  0  0  0  0  0
   -0.2690    1.9347   -0.3947 H   0  0  0  0  0  0  0  0  0  0  0  0
   -1.1171    0.9833   -1.6079 H   0  0  0  0  0  0  0  0  0  0  0  0
   -2.3411    1.7649   -0.0410 C   0  0  0  0  0  0  0  0  0  0  0  0
   -2.6016    2.1883    1.2629 N   0  0  0  0  0  0  0  0  0  0  0  0
   -3.8487    2.6812    1.2489 C   0  0  0  0  0  0  0  0  0  0  0  0
   -4.3581    3.0836    2.1154 H   0  0  0  0  0  0  0  0  0  0  0  0
   -4.3667    2.6123    0.0111 N   0  0  0  0  0  0  0  0  0  0  0  0
   -5.2845    2.9385   -0.2594 H   0  0  0  0  0  0  0  0  0  0  0  0
   -3.4279    2.0401   -0.8184 C   0  0  0  0  0  0  0  0  0  0  0  0
   -3.5096    1.8572   -1.8824 H   0  0  0  0  0  0  0  0  0  0  0  0
   -0.0283    0.1609    1.5831 C   0  0  0  0  0  0  0  0  0  0  0  0
    1.1923    0.1056    1.7329 O   0  0  0  0  0  0  0  0  0  0  0  0
   -0.8586    0.4659    2.5853 N   0  0  0  0  0  0  0  0  0  0  0  0
   -1.8521    0.3848    2.4000 H   0  0  0  0  0  0  0  0  0  0  0  0
   -0.4403    0.7694    3.9518 C   0  0  0  0  0  0  0  0  0  0  0  0
    0.5066    1.3154    3.9421 H   0  0  0  0  0  0  0  0  0  0  0  0
   -1.1988    1.3789    4.4452 H   0  0  0  0  0  0  0  0  0  0  0  0
   -0.3053   -0.1600    4.5075 H   0  0  0  0  0  0  0  0  0  0  0  0
  5  6  2  0  0  0  0
  5  7  1  0  0  0  0
  2  3  1  0  0  0  0
  2  4  1  0  0  0  0
  2  5  1  0  0  0  0
  1  2  1  0  0  0  0
 22 23  2  0  0  0  0
 22 24  1  0  0  0  0
 20 21  1  0  0  0  0
 18 19  1  0  0  0  0
 18 20  1  0  0  0  0
 16 17  1  0  0  0  0
 16 18  1  0  0  0  0
 15 16  2  0  0  0  0
 14 15  1  0  0  0  0
 14 20  2  0  0  0  0
 11 12  1  0  0  0  0
 11 13  1  0  0  0  0
 11 14  1  0  0  0  0
  9 10  1  0  0  0  0
  9 11  1  0  0  0  0
  9 22  1  0  0  0  0
  7  8  1  0  0  0  0
  7  9  1  0  0  0  0
 26 27  1  0  0  0  0
 26 28  1  0  0  0  0
 26 29  1  0  0  0  0
 24 25  1  0  0  0  0
 24 26  1  0  0  0  0
M  END
$$$$
default_name
  -OEChem-02102213163D

 29 29  0     1  0  0  0  0  0999 V2000
   -2.9561   -3.9186    1.3887 H   0  0  0  0  0  0  0  0  0  0  0  0
   -3.1191   -2.9346    0.9517 C   0  0  0  0  0  0  0  0  0  0  0  0
   -3.7811   -2.3546    1.5917 H   0  0  0  0  0  0  0  0  0  0  0  0
   -3.5591   -3.0406   -0.0383 H   0  0  0  0  0  0  0  0  0  0  0  0
   -1.7921   -2.2226    0.8327 C   0  0  0  0  0  0  0  0  0  0  0  0
   -0.7611   -2.7766    1.1927 O   0  0  0  0  0  0  0  0  0  0  0  0
   -1.8201   -0.9926    0.3247 N   0  0  0  0  0  0  0  0  0  0  0  0
   -2.7141   -0.5816    0.0927 H   0  0  0  0  0  0  0  0  0  0  0  0
   -0.6481   -0.1156    0.2017 C   0  0  1  0  0  0  0  0  0  0  0  0
    0.1042   -0.6345   -0.3958 H   0  0  0  0  0  0  0  0  0  0  0  0
   -1.0420    1.1781   -0.5372 C   0  0  0  0  0  0  0  0  0  0  0  0
   -0.2690    1.9347   -0.3947 H   0  0  0  0  0  0  0  0  0  0  0  0
   -1.1171    0.9833   -1.6079 H   0  0  0  0  0  0  0  0  0  0  0  0
   -2.3411    1.7649   -0.0410 C   0  0  0  0  0  0  0  0  0  0  0  0
   -2.5215    2.4530    1.1595 N   0  0  0  0  0  0  0  0  0  0  0  0
   -3.8064    2.8365    1.1758 C   0  0  0  0  0  0  0  0  0  0  0  0
   -4.2713    3.3865    1.9842 H   0  0  0  0  0  0  0  0  0  0  0  0
   -4.4258    2.4503    0.0477 N   0  0  0  0  0  0  0  0  0  0  0  0
   -5.3916    2.6381   -0.1845 H   0  0  0  0  0  0  0  0  0  0  0  0
   -3.5156    1.7756   -0.7350 C   0  0  0  0  0  0  0  0  0  0  0  0
   -3.6757    1.3502   -1.7178 H   0  0  0  0  0  0  0  0  0  0  0  0
   -0.0283    0.1609    1.5831 C   0  0  0  0  0  0  0  0  0  0  0  0
    1.1923    0.1056    1.7329 O   0  0  0  0  0  0  0  0  0  0  0  0
   -0.8586    0.4659    2.5853 N   0  0  0  0  0  0  0  0  0  0  0  0
   -1.8521    0.3848    2.4000 H   0  0  0  0  0  0  0  0  0  0  0  0
   -0.4403    0.7694    3.9518 C   0  0  0  0  0  0  0  0  0  0  0  0
    0.5066    1.3154    3.9421 H   0  0  0  0  0  0  0  0  0  0  0  0
   -1.1988    1.3789    4.4452 H   0  0  0  0  0  0  0  0  0  0  0  0
   -0.3053   -0.1600    4.5075 H   0  0  0  0  0  0  0  0  0  0  0  0
  5  6  2  0  0  0  0
  5  7  1  0  0  0  0
  2  3  1  0  0  0  0
  2  4  1  0  0  0  0
  2  5  1  0  0  0  0
  1  2  1  0  0  0  0
 22 23  2  0  0  0  0
 22 24  1  0  0  0  0
 20 21  1  0  0  0  0
 18 19  1  0  0  0  0
 18 20  1  0  0  0  0
 16 17  1  0  0  0  0
 16 18  1  0  0  0  0
 15 16  2  0  0  0  0
 14 15  1  0  0  0  0
 14 20  2  0  0  0  0
 11 12  1  0  0  0  0
 11 13  1  0  0  0  0
 11 14  1  0  0  0  0
  9 10  1  0  0  0  0
  9 11  1  0  0  0  0
  9 22  1  0  0  0  0
  7  8  1  0  0  0  0
  7  9  1  0  0  0  0
 26 27  1  0  0  0  0
 26 28  1  0  0  0  0
 26 29  1  0  0  0  0
 24 25  1  0  0  0  0
 24 26  1  0  0  0  0
M  END
$$$$
default_name
  -OEChem-02102213163D

 29 29  0     1  0  0  0  0  0999 V2000
   -2.9561   -3.9186    1.3887 H   0  0  0  0  0  0  0  0  0  0  0  0
   -3.1191   -2.9346    0.9517 C   0  0  0  0  0  0  0  0  0  0  0  0
   -3.7811   -2.3546    1.5917 H   0  0  0  0  0  0  0  0  0  0  0  0
   -3.5591   -3.0406   -0.0383 H   0  0  0  0  0  0  0  0  0  0  0  0
   -1.7921   -2.2226    0.8327 C   0  0  0  0  0  0  0  0  0  0  0  0
   -0.7611   -2.7766    1.1927 O   0  0  0  0  0  0  0  0  0  0  0  0
   -1.8201   -0.9926    0.3247 N   0  0  0  0  0  0  0  0  0  0  0  0
   -2.7141   -0.5816    0.0927 H   0  0  0  0  0  0  0  0  0  0  0  0
   -0.6481   -0.1156    0.2017 C   0  0  1  0  0  0  0  0  0  0  0  0
    0.1042   -0.6345   -0.3958 H   0  0  0  0  0  0  0  0  0  0  0  0
   -1.0420    1.1781   -0.5372 C   0  0  0  0  0  0  0  0  0  0  0  0
   -0.2690    1.9347   -0.3947 H   0  0  0  0  0  0  0  0  0  0  0  0
   -1.1171    0.9833   -1.6079 H   0  0  0  0  0  0  0  0  0  0  0  0
   -2.3411    1.7649   -0.0410 C   0  0  0  0  0  0  0  0  0  0  0  0
   -2.4771    2.6924    0.9927 N   0  0  0  0  0  0  0  0  0  0  0  0
   -3.7862    2.9739    1.0663 C   0  0  0  0  0  0  0  0  0  0  0  0
   -4.2265    3.6574    1.7813 H   0  0  0  0  0  0  0  0  0  0  0  0
   -4.4655    2.2970    0.1252 N   0  0  0  0  0  0  0  0  0  0  0  0
   -5.4619    2.3555   -0.0346 H   0  0  0  0  0  0  0  0  0  0  0  0
   -3.5694    1.5311   -0.5868 C   0  0  0  0  0  0  0  0  0  0  0  0
   -3.7764    0.8830   -1.4291 H   0  0  0  0  0  0  0  0  0  0  0  0
   -0.0283    0.1609    1.5831 C   0  0  0  0  0  0  0  0  0  0  0  0
    1.1923    0.1056    1.7329 O   0  0  0  0  0  0  0  0  0  0  0  0
   -0.8586    0.4659    2.5853 N   0  0  0  0  0  0  0  0  0  0  0  0
   -1.8521    0.3848    2.4000 H   0  0  0  0  0  0  0  0  0  0  0  0
   -0.4403    0.7694    3.9518 C   0  0  0  0  0  0  0  0  0  0  0  0
    0.5066    1.3154    3.9421 H   0  0  0  0  0  0  0  0  0  0  0  0
   -1.1988    1.3789    4.4452 H   0  0  0  0  0  0  0  0  0  0  0  0
   -0.3053   -0.1600    4.5075 H   0  0  0  0  0  0  0  0  0  0  0  0
  5  6  2  0  0  0  0
  5  7  1  0  0  0  0
  2  3  1  0  0  0  0
  2  4  1  0  0  0  0
  2  5  1  0  0  0  0
  1  2  1  0  0  0  0
 22 23  2  0  0  0  0
 22 24  1  0  0  0  0
 20 21  1  0  0  0  0
 18 19  1  0  0  0  0
 18 20  1  0  0  0  0
 16 17  1  0  0  0  0
 16 18  1  0  0  0  0
 15 16  2  0  0  0  0
 14 15  1  0  0  0  0
 14 20  2  0  0  0  0
 11 12  1  0  0  0  0
 11 13  1  0  0  0  0
 11 14  1  0  0  0  0
  9 10  1  0  0  0  0
  9 11  1  0  0  0  0
  9 22  1  0  0  0  0
  7  8  1  0  0  0  0
  7  9  1  0  0  0  0
 26 27  1  0  0  0  0
 26 28  1  0  0  0  0
 26 29  1  0  0  0  0
 24 25  1  0  0  0  0
 24 26  1  0  0  0  0
M  END
$$$$
default_name
  -OEChem-02102213163D

 29 29  0     1  0  0  0  0  0999 V2000
   -2.9561   -3.9186    1.3887 H   0  0  0  0  0  0  0  0  0  0  0  0
   -3.1191   -2.9346    0.9517 C   0  0  0  0  0  0  0  0  0  0  0  0
   -3.7811   -2.3546    1.5917 H   0  0  0  0  0  0  0  0  0  0  0  0
   -3.5591   -3.0406   -0.0383 H   0  0  0  0  0  0  0  0  0  0  0  0
   -1.7921   -2.2226    0.8327 C   0  0  0  0  0  0  0  0  0  0  0  0
   -0.7611   -2.7766    1.1927 O   0  0  0  0  0  0  0  0  0  0  0  0
   -1.8201   -0.9926    0.3247 N   0  0  0  0  0  0  0  0  0  0  0  0
   -2.7141   -0.5816    0.0927 H   0  0  0  0  0  0  0  0  0  0  0  0
   -0.6481   -0.1156    0.2017 C   0  0  1  0  0  0  0  0  0  0  0  0
    0.1042   -0.6345   -0.3958 H   0  0  0  0  0  0  0  0  0  0  0  0
   -1.0420    1.1781   -0.5372 C   0  0  0  0  0  0  0  0  0  0  0  0
   -0.2690    1.9347   -0.3947 H   0  0  0  0  0  0  0  0  0  0  0  0
   -1.1171    0.9833   -1.6079 H   0  0  0  0  0  0  0  0  0  0  0  0
   -2.3411    1.7649   -0.0410 C   0  0  0  0  0  0  0  0  0  0  0  0
   -2.4714    2.8904    0.7737 N   0  0  0  0  0  0  0  0  0  0  0  0
   -3.7893    3.0840    0.9279 C   0  0  0  0  0  0  0  0  0  0  0  0
   -4.2267    3.8776    1.5205 H   0  0  0  0  0  0  0  0  0  0  0  0
   -4.4829    2.1629    0.2382 N   0  0  0  0  0  0  0  0  0  0  0  0
   -5.4907    2.1099    0.1804 H   0  0  0  0  0  0  0  0  0  0  0  0
   -3.5856    1.3234   -0.3837 C   0  0  0  0  0  0  0  0  0  0  0  0
   -3.8049    0.4875   -1.0360 H   0  0  0  0  0  0  0  0  0  0  0  0
   -0.0283    0.1609    1.5831 C   0  0  0  0  0  0  0  0  0  0  0  0
    1.1923    0.1056    1.7329 O   0  0  0  0  0  0  0  0  0  0  0  0
   -0.8586    0.4659    2.5853 N   0  0  0  0  0  0  0  0  0  0  0  0
   -1.8521    0.3848    2.4000 H   0  0  0  0  0  0  0  0  0  0  0  0
   -0.4403    0.7694    3.9518 C   0  0  0  0  0  0  0  0  0  0  0  0
    0.5066    1.3154    3.9421 H   0  0  0  0  0  0  0  0  0  0  0  0
   -1.1988    1.3789    4.4452 H   0  0  0  0  0  0  0  0  0  0  0  0
   -0.3053   -0.1600    4.5075 H   0  0  0  0  0  0  0  0  0  0  0  0
  5  6  2  0  0  0  0
  5  7  1  0  0  0  0
  2  3  1  0  0  0  0
  2  4  1  0  0  0  0
  2  5  1  0  0  0  0
  1  2  1  0  0  0  0
 22 23  2  0  0  0  0
 22 24  1  0  0  0  0
 20 21  1  0  0  0  0
 18 19  1  0  0  0  0
 18 20  1  0  0  0  0
 16 17  1  0  0  0  0
 16 18  1  0  0  0  0
 15 16  2  0  0  0  0
 14 15  1  0  0  0  0
 14 20  2  0  0  0  0
 11 12  1  0  0  0  0
 11 13  1  0  0  0  0
 11 14  1  0  0  0  0
  9 10  1  0  0  0  0
  9 11  1  0  0  0  0
  9 22  1  0  0  0  0
  7  8  1  0  0  0  0
  7  9  1  0  0  0  0
 26 27  1  0  0  0  0
 26 28  1  0  0  0  0
 26 29  1  0  0  0  0
 24 25  1  0  0  0  0
 24 26  1  0  0  0  0
M  END
$$$$
default_name
  -OEChem-02102213163D

 29 29  0     1  0  0  0  0  0999 V2000
   -2.9561   -3.9186    1.3887 H   0  0  0  0  0  0  0  0  0  0  0  0
   -3.1191   -2.9346    0.9517 C   0  0  0  0  0  0  0  0  0  0  0  0
   -3.7811   -2.3546    1.5917 H   0  0  0  0  0  0  0  0  0  0  0  0
   -3.5591   -3.0406   -0.0383 H   0  0  0  0  0  0  0  0  0  0  0  0
   -1.7921   -2.2226    0.8327 C   0  0  0  0  0  0  0  0  0  0  0  0
   -0.7611   -2.7766    1.1927 O   0  0  0  0  0  0  0  0  0  0  0  0
   -1.8201   -0.9926    0.3247 N   0  0  0  0  0  0  0  0  0  0  0  0
   -2.7141   -0.5816    0.0927 H   0  0  0  0  0  0  0  0  0  0  0  0
   -0.6481   -0.1156    0.2017 C   0  0  1  0  0  0  0  0  0  0  0  0
    0.1042   -0.6345   -0.3958 H   0  0  0  0  0  0  0  0  0  0  0  0
   -1.0420    1.1781   -0.5372 C   0  0  0  0  0  0  0  0  0  0  0  0
   -0.2690    1.9347   -0.3947 H   0  0  0  0  0  0  0  0  0  0  0  0
   -1.1171    0.9833   -1.6079 H   0  0  0  0  0  0  0  0  0  0  0  0
   -2.3411    1.7649   -0.0410 C   0  0  0  0  0  0  0  0  0  0  0  0
   -2.5047    3.0332    0.5175 N   0  0  0  0  0  0  0  0  0  0  0  0
   -3.8156    3.1592    0.7701 C   0  0  0  0  0  0  0  0  0  0  0  0
   -4.2718    4.0322    1.2195 H   0  0  0  0  0  0  0  0  0  0  0  0
   -4.4770    2.0570    0.3789 N   0  0  0  0  0  0  0  0  0  0  0  0
   -5.4761    1.9181    0.4456 H   0  0  0  0  0  0  0  0  0  0  0  0
   -3.5632    1.1667   -0.1396 C   0  0  0  0  0  0  0  0  0  0  0  0
   -3.7593    0.1906   -0.5654 H   0  0  0  0  0  0  0  0  0  0  0  0
   -0.0283    0.1609    1.5831 C   0  0  0  0  0  0  0  0  0  0  0  0
    1.1923    0.1056    1.7329 O   0  0  0  0  0  0  0  0  0  0  0  0
   -0.8586    0.4659    2.5853 N   0  0  0  0  0  0  0  0  0  0  0  0
   -1.8521    0.3848    2.4000 H   0  0  0  0  0  0  0  0  0  0  0  0
   -0.4403    0.7694    3.9518 C   0  0  0  0  0  0  0  0  0  0  0  0
    0.5066    1.3154    3.9421 H   0  0  0  0  0  0  0  0  0  0  0  0
   -1.1988    1.3789    4.4452 H   0  0  0  0  0  0  0  0  0  0  0  0
   -0.3053   -0.1600    4.5075 H   0  0  0  0  0  0  0  0  0  0  0  0
  5  6  2  0  0  0  0
  5  7  1  0  0  0  0
  2  3  1  0  0  0  0
  2  4  1  0  0  0  0
  2  5  1  0  0  0  0
  1  2  1  0  0  0  0
 22 23  2  0  0  0  0
 22 24  1  0  0  0  0
 20 21  1  0  0  0  0
 18 19  1  0  0  0  0
 18 20  1  0  0  0  0
 16 17  1  0  0  0  0
 16 18  1  0  0  0  0
 15 16  2  0  0  0  0
 14 15  1  0  0  0  0
 14 20  2  0  0  0  0
 11 12  1  0  0  0  0
 11 13  1  0  0  0  0
 11 14  1  0  0  0  0
  9 10  1  0  0  0  0
  9 11  1  0  0  0  0
  9 22  1  0  0  0  0
  7  8  1  0  0  0  0
  7  9  1  0  0  0  0
 26 27  1  0  0  0  0
 26 28  1  0  0  0  0
 26 29  1  0  0  0  0
 24 25  1  0  0  0  0
 24 26  1  0  0  0  0
M  END
$$$$
default_name
  -OEChem-02102213163D

 29 29  0     1  0  0  0  0  0999 V2000
   -2.9561   -3.9186    1.3887 H   0  0  0  0  0  0  0  0  0  0  0  0
   -3.1191   -2.9346    0.9517 C   0  0  0  0  0  0  0  0  0  0  0  0
   -3.7811   -2.3546    1.5917 H   0  0  0  0  0  0  0  0  0  0  0  0
   -3.5591   -3.0406   -0.0383 H   0  0  0  0  0  0  0  0  0  0  0  0
   -1.7921   -2.2226    0.8327 C   0  0  0  0  0  0  0  0  0  0  0  0
   -0.7611   -2.7766    1.1927 O   0  0  0  0  0  0  0  0  0  0  0  0
   -1.8201   -0.9926    0.3247 N   0  0  0  0  0  0  0  0  0  0  0  0
   -2.7141   -0.5816    0.0927 H   0  0  0  0  0  0  0  0  0  0  0  0
   -0.6481   -0.1156    0.2017 C   0  0  1  0  0  0  0  0  0  0  0  0
    0.1042   -0.6345   -0.3958 H   0  0  0  0  0  0  0  0  0  0  0  0
   -1.0420    1.1781   -0.5372 C   0  0  0  0  0  0  0  0  0  0  0  0
   -0.2690    1.9347   -0.3947 H   0  0  0  0  0  0  0  0  0  0  0  0
   -1.1171    0.9833   -1.6079 H   0  0  0  0  0  0  0  0  0  0  0  0
   -2.3411    1.7649   -0.0410 C   0  0  0  0  0  0  0  0  0  0  0  0
   -2.5748    3.1113    0.2415 N   0  0  0  0  0  0  0  0  0  0  0  0
   -3.8634    3.1944    0.6035 C   0  0  0  0  0  0  0  0  0  0  0  0
   -4.3588    4.1107    0.8989 H   0  0  0  0  0  0  0  0  0  0  0  0
   -4.4481    1.9865    0.5379 N   0  0  0  0  0  0  0  0  0  0  0  0
   -5.4189    1.7932    0.7430 H   0  0  0  0  0  0  0  0  0  0  0  0
   -3.5037    1.0715    0.1288 C   0  0  0  0  0  0  0  0  0  0  0  0
   -3.6426    0.0126   -0.0492 H   0  0  0  0  0  0  0  0  0  0  0  0
   -0.0283    0.1609    1.5831 C   0  0  0  0  0  0  0  0  0  0  0  0
    1.1923    0.1056    1.7329 O   0  0  0  0  0  0  0  0  0  0  0  0
   -0.8586    0.4659    2.5853 N   0  0  0  0  0  0  0  0  0  0  0  0
   -1.8521    0.3848    2.4000 H   0  0  0  0  0  0  0  0  0  0  0  0
   -0.4403    0.7694    3.9518 C   0  0  0  0  0  0  0  0  0  0  0  0
    0.5066    1.3154    3.9421 H   0  0  0  0  0  0  0  0  0  0  0  0
   -1.1988    1.3789    4.4452 H   0  0  0  0  0  0  0  0  0  0  0  0
   -0.3053   -0.1600    4.5075 H   0  0  0  0  0  0  0  0  0  0  0  0
  5  6  2  0  0  0  0
  5  7  1  0  0  0  0
  2  3  1  0  0  0  0
  2  4  1  0  0  0  0
  2  5  1  0  0  0  0
  1  2  1  0  0  0  0
 22 23  2  0  0  0  0
 22 24  1  0  0  0  0
 20 21  1  0  0  0  0
 18 19  1  0  0  0  0
 18 20  1  0  0  0  0
 16 17  1  0  0  0  0
 16 18  1  0  0  0  0
 15 16  2  0  0  0  0
 14 15  1  0  0  0  0
 14 20  2  0  0  0  0
 11 12  1  0  0  0  0
 11 13  1  0  0  0  0
 11 14  1  0  0  0  0
  9 10  1  0  0  0  0
  9 11  1  0  0  0  0
  9 22  1  0  0  0  0
  7  8  1  0  0  0  0
  7  9  1  0  0  0  0
 26 27  1  0  0  0  0
 26 28  1  0  0  0  0
 26 29  1  0  0  0  0
 24 25  1  0  0  0  0
 24 26  1  0  0  0  0
M  END
$$$$
default_name
  -OEChem-02102213163D

 29 29  0     1  0  0  0  0  0999 V2000
   -2.9561   -3.9186    1.3887 H   0  0  0  0  0  0  0  0  0  0  0  0
   -3.1191   -2.9346    0.9517 C   0  0  0  0  0  0  0  0  0  0  0  0
   -3.7811   -2.3546    1.5917 H   0  0  0  0  0  0  0  0  0  0  0  0
   -3.5591   -3.0406   -0.0383 H   0  0  0  0  0  0  0  0  0  0  0  0
   -1.7921   -2.2226    0.8327 C   0  0  0  0  0  0  0  0  0  0  0  0
   -0.7611   -2.7766    1.1927 O   0  0  0  0  0  0  0  0  0  0  0  0
   -1.8201   -0.9926    0.3247 N   0  0  0  0  0  0  0  0  0  0  0  0
   -2.7141   -0.5816    0.0927 H   0  0  0  0  0  0  0  0  0  0  0  0
   -0.6481   -0.1156    0.2017 C   0  0  1  0  0  0  0  0  0  0  0  0
    0.1042   -0.6345   -0.3958 H   0  0  0  0  0  0  0  0  0  0  0  0
   -1.0420    1.1781   -0.5372 C   0  0  0  0  0  0  0  0  0  0  0  0
   -0.2690    1.9347   -0.3947 H   0  0  0  0  0  0  0  0  0  0  0  0
   -1.1171    0.9833   -1.6079 H   0  0  0  0  0  0  0  0  0  0  0  0
   -2.3411    1.7649   -0.0410 C   0  0  0  0  0  0  0  0  0  0  0  0
   -2.6769    3.1194   -0.0354 N   0  0  0  0  0  0  0  0  0  0  0  0
   -3.9292    3.1873    0.4395 C   0  0  0  0  0  0  0  0  0  0  0  0
   -4.4818    4.1076    0.5805 H   0  0  0  0  0  0  0  0  0  0  0  0
   -4.3982    1.9563    0.7042 N   0  0  0  0  0  0  0  0  0  0  0  0
   -5.3231    1.7437    1.0523 H   0  0  0  0  0  0  0  0  0  0  0  0
   -3.4110    1.0445    0.4033 C   0  0  0  0  0  0  0  0  0  0  0  0
   -3.4627   -0.0345    0.4772 H   0  0  0  0  0  0  0  0  0  0  0  0
   -0.0283    0.1609    1.5831 C   0  0  0  0  0  0  0  0  0  0  0  0
    1.1923    0.1056    1.7329 O   0  0  0  0  0  0  0  0  0  0  0  0
   -0.8586    0.4659    2.5853 N   0  0  0  0  0  0  0  0  0  0  0  0
   -1.8521    0.3848    2.4000 H   0  0  0  0  0  0  0  0  0  0  0  0
   -0.4403    0.7694    3.9518 C   0  0  0  0  0  0  0  0  0  0  0  0
    0.5066    1.3154    3.9421 H   0  0  0  0  0  0  0  0  0  0  0  0
   -1.1988    1.3789    4.4452 H   0  0  0  0  0  0  0  0  0  0  0  0
   -0.3053   -0.1600    4.5075 H   0  0  0  0  0  0  0  0  0  0  0  0
  5  6  2  0  0  0  0
  5  7  1  0  0  0  0
  2  3  1  0  0  0  0
  2  4  1  0  0  0  0
  2  5  1  0  0  0  0
  1  2  1  0  0  0  0
 22 23  2  0  0  0  0
 22 24  1  0  0  0  0
 20 21  1  0  0  0  0
 18 19  1  0  0  0  0
 18 20  1  0  0  0  0
 16 17  1  0  0  0  0
 16 18  1  0  0  0  0
 15 16  2  0  0  0  0
 14 15  1  0  0  0  0
 14 20  2  0  0  0  0
 11 12  1  0  0  0  0
 11 13  1  0  0  0  0
 11 14  1  0  0  0  0
  9 10  1  0  0  0  0
  9 11  1  0  0  0  0
  9 22  1  0  0  0  0
  7  8  1  0  0  0  0
  7  9  1  0  0  0  0
 26 27  1  0  0  0  0
 26 28  1  0  0  0  0
 26 29  1  0  0  0  0
 24 25  1  0  0  0  0
 24 26  1  0  0  0  0
M  END
$$$$
default_name
  -OEChem-02102213163D

 29 29  0     1  0  0  0  0  0999 V2000
   -2.9561   -3.9186    1.3887 H   0  0  0  0  0  0  0  0  0  0  0  0
   -3.1191   -2.9346    0.9517 C   0  0  0  0  0  0  0  0  0  0  0  0
   -3.7811   -2.3546    1.5917 H   0  0  0  0  0  0  0  0  0  0  0  0
   -3.5591   -3.0406   -0.0383 H   0  0  0  0  0  0  0  0  0  0  0  0
   -1.7921   -2.2226    0.8327 C   0  0  0  0  0  0  0  0  0  0  0  0
   -0.7611   -2.7766    1.1927 O   0  0  0  0  0  0  0  0  0  0  0  0
   -1.8201   -0.9926    0.3247 N   0  0  0  0  0  0  0  0  0  0  0  0
   -2.7141   -0.5816    0.0927 H   0  0  0  0  0  0  0  0  0  0  0  0
   -0.6481   -0.1156    0.2017 C   0  0  1  0  0  0  0  0  0  0  0  0
    0.1042   -0.6345   -0.3958 H   0  0  0  0  0  0  0  0  0  0  0  0
   -1.0420    1.1781   -0.5372 C   0  0  0  0  0  0  0  0  0  0  0  0
   -0.2690    1.9347   -0.3947 H   0  0  0  0  0  0  0  0  0  0  0  0
   -1.1171    0.9833   -1.6079 H   0  0  0  0  0  0  0  0  0  0  0  0
   -2.3411    1.7649   -0.0410 C   0  0  0  0  0  0  0  0  0  0  0  0
   -2.8041    3.0567   -0.2943 N   0  0  0  0  0  0  0  0  0  0  0  0
   -4.0087    3.1383    0.2894 C   0  0  0  0  0  0  0  0  0  0  0  0
   -4.6324    4.0233    0.2859 H   0  0  0  0  0  0  0  0  0  0  0  0
   -4.3307    1.9685    0.8666 N   0  0  0  0  0  0  0  0  0  0  0  0
   -5.1953    1.7729    1.3525 H   0  0  0  0  0  0  0  0  0  0  0  0
   -3.2917    1.0874    0.6651 C   0  0  0  0  0  0  0  0  0  0  0  0
   -3.2321    0.0526    0.9782 H   0  0  0  0  0  0  0  0  0  0  0  0
   -0.0283    0.1609    1.5831 C   0  0  0  0  0  0  0  0  0  0  0  0
    1.1923    0.1056    1.7329 O   0  0  0  0  0  0  0  0  0  0  0  0
   -0.8586    0.4659    2.5853 N   0  0  0  0  0  0  0  0  0  0  0  0
   -1.8521    0.3848    2.4000 H   0  0  0  0  0  0  0  0  0  0  0  0
   -0.4403    0.7694    3.9518 C   0  0  0  0  0  0  0  0  0  0  0  0
    0.5066    1.3154    3.9421 H   0  0  0  0  0  0  0  0  0  0  0  0
   -1.1988    1.3789    4.4452 H   0  0  0  0  0  0  0  0  0  0  0  0
   -0.3053   -0.1600    4.5075 H   0  0  0  0  0  0  0  0  0  0  0  0
  5  6  2  0  0  0  0
  5  7  1  0  0  0  0
  2  3  1  0  0  0  0
  2  4  1  0  0  0  0
  2  5  1  0  0  0  0
  1  2  1  0  0  0  0
 22 23  2  0  0  0  0
 22 24  1  0  0  0  0
 20 21  1  0  0  0  0
 18 19  1  0  0  0  0
 18 20  1  0  0  0  0
 16 17  1  0  0  0  0
 16 18  1  0  0  0  0
 15 16  2  0  0  0  0
 14 15  1  0  0  0  0
 14 20  2  0  0  0  0
 11 12  1  0  0  0  0
 11 13  1  0  0  0  0
 11 14  1  0  0  0  0
  9 10  1  0  0  0  0
  9 11  1  0  0  0  0
  9 22  1  0  0  0  0
  7  8  1  0  0  0  0
  7  9  1  0  0  0  0
 26 27  1  0  0  0  0
 26 28  1  0  0  0  0
 26 29  1  0  0  0  0
 24 25  1  0  0  0  0
 24 26  1  0  0  0  0
M  END
$$$$
default_name
  -OEChem-02102213163D

 29 29  0     1  0  0  0  0  0999 V2000
   -2.9561   -3.9186    1.3887 H   0  0  0  0  0  0  0  0  0  0  0  0
   -3.1191   -2.9346    0.9517 C   0  0  0  0  0  0  0  0  0  0  0  0
   -3.7811   -2.3546    1.5917 H   0  0  0  0  0  0  0  0  0  0  0  0
   -3.5591   -3.0406   -0.0383 H   0  0  0  0  0  0  0  0  0  0  0  0
   -1.7921   -2.2226    0.8327 C   0  0  0  0  0  0  0  0  0  0  0  0
   -0.7611   -2.7766    1.1927 O   0  0  0  0  0  0  0  0  0  0  0  0
   -1.8201   -0.9926    0.3247 N   0  0  0  0  0  0  0  0  0  0  0  0
   -2.7141   -0.5816    0.0927 H   0  0  0  0  0  0  0  0  0  0  0  0
   -0.6481   -0.1156    0.2017 C   0  0  1  0  0  0  0  0  0  0  0  0
    0.1042   -0.6345   -0.3958 H   0  0  0  0  0  0  0  0  0  0  0  0
   -1.0420    1.1781   -0.5372 C   0  0  0  0  0  0  0  0  0  0  0  0
   -0.1737    1.8330   -0.6235 H   0  0  0  0  0  0  0  0  0  0  0  0
   -1.3745    0.9390   -1.5483 H   0  0  0  0  0  0  0  0  0  0  0  0
   -2.1213    1.9557    0.1759 C   0  0  0  0  0  0  0  0  0  0  0  0
   -2.6784    3.1616   -0.2518 N   0  0  0  0  0  0  0  0  0  0  0  0
   -3.6253    3.4700    0.6462 C   0  0  0  0  0  0  0  0  0  0  0  0
   -4.2402    4.3603    0.6068 H   0  0  0  0  0  0  0  0  0  0  0  0
   -3.7060    2.5166    1.5895 N   0  0  0  0  0  0  0  0  0  0  0  0
   -4.3563    2.5110    2.3633 H   0  0  0  0  0  0  0  0  0  0  0  0
   -2.7667    1.5498    1.3073 C   0  0  0  0  0  0  0  0  0  0  0  0
   -2.5780    0.6326    1.8508 H   0  0  0  0  0  0  0  0  0  0  0  0
   -0.0283    0.1609    1.5831 C   0  0  0  0  0  0  0  0  0  0  0  0
    1.1923    0.1056    1.7329 O   0  0  0  0  0  0  0  0  0  0  0  0
   -0.8586    0.4659    2.5853 N   0  0  0  0  0  0  0  0  0  0  0  0
   -1.8521    0.3848    2.4000 H   0  0  0  0  0  0  0  0  0  0  0  0
   -0.4403    0.7694    3.9518 C   0  0  0  0  0  0  0  0  0  0  0  0
    0.5066    1.3154    3.9421 H   0  0  0  0  0  0  0  0  0  0  0  0
   -1.1988    1.3789    4.4452 H   0  0  0  0  0  0  0  0  0  0  0  0
   -0.3053   -0.1600    4.5075 H   0  0  0  0  0  0  0  0  0  0  0  0
  5  6  2  0  0  0  0
  5  7  1  0  0  0  0
  2  3  1  0  0  0  0
  2  4  1  0  0  0  0
  2  5  1  0  0  0  0
  1  2  1  0  0  0  0
 22 23  2  0  0  0  0
 22 24  1  0  0  0  0
 20 21  1  0  0  0  0
 18 19  1  0  0  0  0
 18 20  1  0  0  0  0
 16 17  1  0  0  0  0
 16 18  1  0  0  0  0
 15 16  2  0  0  0  0
 14 15  1  0  0  0  0
 14 20  2  0  0  0  0
 11 12  1  0  0  0  0
 11 13  1  0  0  0  0
 11 14  1  0  0  0  0
  9 10  1  0  0  0  0
  9 11  1  0  0  0  0
  9 22  1  0  0  0  0
  7  8  1  0  0  0  0
  7  9  1  0  0  0  0
 26 27  1  0  0  0  0
 26 28  1  0  0  0  0
 26 29  1  0  0  0  0
 24 25  1  0  0  0  0
 24 26  1  0  0  0  0
M  END
$$$$
default_name
  -OEChem-02102213163D

 29 29  0     1  0  0  0  0  0999 V2000
   -2.9561   -3.9186    1.3887 H   0  0  0  0  0  0  0  0  0  0  0  0
   -3.1191   -2.9346    0.9517 C   0  0  0  0  0  0  0  0  0  0  0  0
   -3.7811   -2.3546    1.5917 H   0  0  0  0  0  0  0  0  0  0  0  0
   -3.5591   -3.0406   -0.0383 H   0  0  0  0  0  0  0  0  0  0  0  0
   -1.7921   -2.2226    0.8327 C   0  0  0  0  0  0  0  0  0  0  0  0
   -0.7611   -2.7766    1.1927 O   0  0  0  0  0  0  0  0  0  0  0  0
   -1.8201   -0.9926    0.3247 N   0  0  0  0  0  0  0  0  0  0  0  0
   -2.7141   -0.5816    0.0927 H   0  0  0  0  0  0  0  0  0  0  0  0
   -0.6481   -0.1156    0.2017 C   0  0  1  0  0  0  0  0  0  0  0  0
    0.1042   -0.6345   -0.3958 H   0  0  0  0  0  0  0  0  0  0  0  0
   -1.0420    1.1781   -0.5372 C   0  0  0  0  0  0  0  0  0  0  0  0
   -0.1737    1.8330   -0.6235 H   0  0  0  0  0  0  0  0  0  0  0  0
   -1.3745    0.9390   -1.5483 H   0  0  0  0  0  0  0  0  0  0  0  0
   -2.1213    1.9557    0.1759 C   0  0  0  0  0  0  0  0  0  0  0  0
   -2.8838    2.9875   -0.3730 N   0  0  0  0  0  0  0  0  0  0  0  0
   -3.7472    3.3580    0.5839 C   0  0  0  0  0  0  0  0  0  0  0  0
   -4.4767    4.1509    0.4773 H   0  0  0  0  0  0  0  0  0  0  0  0
   -3.5830    2.6020    1.6825 N   0  0  0  0  0  0  0  0  0  0  0  0
   -4.1275    2.6748    2.5310 H   0  0  0  0  0  0  0  0  0  0  0  0
   -2.5633    1.7079    1.4426 C   0  0  0  0  0  0  0  0  0  0  0  0
   -2.1879    0.9395    2.1065 H   0  0  0  0  0  0  0  0  0  0  0  0
   -0.0283    0.1609    1.5831 C   0  0  0  0  0  0  0  0  0  0  0  0
    1.1923    0.1056    1.7329 O   0  0  0  0  0  0  0  0  0  0  0  0
   -0.8586    0.4659    2.5853 N   0  0  0  0  0  0  0  0  0  0  0  0
   -1.8521    0.3848    2.4000 H   0  0  0  0  0  0  0  0  0  0  0  0
   -0.4403    0.7694    3.9518 C   0  0  0  0  0  0  0  0  0  0  0  0
    0.5066    1.3154    3.9421 H   0  0  0  0  0  0  0  0  0  0  0  0
   -1.1988    1.3789    4.4452 H   0  0  0  0  0  0  0  0  0  0  0  0
   -0.3053   -0.1600    4.5075 H   0  0  0  0  0  0  0  0  0  0  0  0
  5  6  2  0  0  0  0
  5  7  1  0  0  0  0
  2  3  1  0  0  0  0
  2  4  1  0  0  0  0
  2  5  1  0  0  0  0
  1  2  1  0  0  0  0
 22 23  2  0  0  0  0
 22 24  1  0  0  0  0
 20 21  1  0  0  0  0
 18 19  1  0  0  0  0
 18 20  1  0  0  0  0
 16 17  1  0  0  0  0
 16 18  1  0  0  0  0
 15 16  2  0  0  0  0
 14 15  1  0  0  0  0
 14 20  2  0  0  0  0
 11 12  1  0  0  0  0
 11 13  1  0  0  0  0
 11 14  1  0  0  0  0
  9 10  1  0  0  0  0
  9 11  1  0  0  0  0
  9 22  1  0  0  0  0
  7  8  1  0  0  0  0
  7  9  1  0  0  0  0
 26 27  1  0  0  0  0
 26 28  1  0  0  0  0
 26 29  1  0  0  0  0
 24 25  1  0  0  0  0
 24 26  1  0  0  0  0
M  END
$$$$
default_name
  -OEChem-02102213163D

 29 29  0     1  0  0  0  0  0999 V2000
   -2.9561   -3.9186    1.3887 H   0  0  0  0  0  0  0  0  0  0  0  0
   -3.1191   -2.9346    0.9517 C   0  0  0  0  0  0  0  0  0  0  0  0
   -3.7811   -2.3546    1.5917 H   0  0  0  0  0  0  0  0  0  0  0  0
   -3.5591   -3.0406   -0.0383 H   0  0  0  0  0  0  0  0  0  0  0  0
   -1.7921   -2.2226    0.8327 C   0  0  0  0  0  0  0  0  0  0  0  0
   -0.7611   -2.7766    1.1927 O   0  0  0  0  0  0  0  0  0  0  0  0
   -1.8201   -0.9926    0.3247 N   0  0  0  0  0  0  0  0  0  0  0  0
   -2.7141   -0.5816    0.0927 H   0  0  0  0  0  0  0  0  0  0  0  0
   -0.6481   -0.1156    0.2017 C   0  0  1  0  0  0  0  0  0  0  0  0
    0.1042   -0.6345   -0.3958 H   0  0  0  0  0  0  0  0  0  0  0  0
   -1.0420    1.1781   -0.5372 C   0  0  0  0  0  0  0  0  0  0  0  0
   -0.1737    1.8330   -0.6235 H   0  0  0  0  0  0  0  0  0  0  0  0
   -1.3745    0.9390   -1.5483 H   0  0  0  0  0  0  0  0  0  0  0  0
   -2.1213    1.9557    0.1759 C   0  0  0  0  0  0  0  0  0  0  0  0
   -3.0771    2.7719   -0.4304 N   0  0  0  0  0  0  0  0  0  0  0  0
   -3.8595    3.2234    0.5608 C   0  0  0  0  0  0  0  0  0  0  0  0
   -4.6967    3.8958    0.4224 H   0  0  0  0  0  0  0  0  0  0  0  0
   -3.4622    2.7167    1.7401 N   0  0  0  0  0  0  0  0  0  0  0  0
   -3.9041    2.8921    2.6322 H   0  0  0  0  0  0  0  0  0  0  0  0
   -2.3682    1.9105    1.5169 C   0  0  0  0  0  0  0  0  0  0  0  0
   -1.8145    1.3309    2.2448 H   0  0  0  0  0  0  0  0  0  0  0  0
   -0.0283    0.1609    1.5831 C   0  0  0  0  0  0  0  0  0  0  0  0
    1.1923    0.1056    1.7329 O   0  0  0  0  0  0  0  0  0  0  0  0
   -0.8586    0.4659    2.5853 N   0  0  0  0  0  0  0  0  0  0  0  0
   -1.8521    0.3848    2.4000 H   0  0  0  0  0  0  0  0  0  0  0  0
   -0.4403    0.7694    3.9518 C   0  0  0  0  0  0  0  0  0  0  0  0
    0.5066    1.3154    3.9421 H   0  0  0  0  0  0  0  0  0  0  0  0
   -1.1988    1.3789    4.4452 H   0  0  0  0  0  0  0  0  0  0  0  0
   -0.3053   -0.1600    4.5075 H   0  0  0  0  0  0  0  0  0  0  0  0
  5  6  2  0  0  0  0
  5  7  1  0  0  0  0
  2  3  1  0  0  0  0
  2  4  1  0  0  0  0
  2  5  1  0  0  0  0
  1  2  1  0  0  0  0
 22 23  2  0  0  0  0
 22 24  1  0  0  0  0
 20 21  1  0  0  0  0
 18 19  1  0  0  0  0
 18 20  1  0  0  0  0
 16 17  1  0  0  0  0
 16 18  1  0  0  0  0
 15 16  2  0  0  0  0
 14 15  1  0  0  0  0
 14 20  2  0  0  0  0
 11 12  1  0  0  0  0
 11 13  1  0  0  0  0
 11 14  1  0  0  0  0
  9 10  1  0  0  0  0
  9 11  1  0  0  0  0
  9 22  1  0  0  0  0
  7  8  1  0  0  0  0
  7  9  1  0  0  0  0
 26 27  1  0  0  0  0
 26 28  1  0  0  0  0
 26 29  1  0  0  0  0
 24 25  1  0  0  0  0
 24 26  1  0  0  0  0
M  END
$$$$
default_name
  -OEChem-02102213163D

 29 29  0     1  0  0  0  0  0999 V2000
   -2.9561   -3.9186    1.3887 H   0  0  0  0  0  0  0  0  0  0  0  0
   -3.1191   -2.9346    0.9517 C   0  0  0  0  0  0  0  0  0  0  0  0
   -3.7811   -2.3546    1.5917 H   0  0  0  0  0  0  0  0  0  0  0  0
   -3.5591   -3.0406   -0.0383 H   0  0  0  0  0  0  0  0  0  0  0  0
   -1.7921   -2.2226    0.8327 C   0  0  0  0  0  0  0  0  0  0  0  0
   -0.7611   -2.7766    1.1927 O   0  0  0  0  0  0  0  0  0  0  0  0
   -1.8201   -0.9926    0.3247 N   0  0  0  0  0  0  0  0  0  0  0  0
   -2.7141   -0.5816    0.0927 H   0  0  0  0  0  0  0  0  0  0  0  0
   -0.6481   -0.1156    0.2017 C   0  0  1  0  0  0  0  0  0  0  0  0
    0.1042   -0.6345   -0.3958 H   0  0  0  0  0  0  0  0  0  0  0  0
   -1.0420    1.1781   -0.5372 C   0  0  0  0  0  0  0  0  0  0  0  0
   -0.1737    1.8330   -0.6235 H   0  0  0  0  0  0  0  0  0  0  0  0
   -1.3745    0.9390   -1.5483 H   0  0  0  0  0  0  0  0  0  0  0  0
   -2.1213    1.9557    0.1759 C   0  0  0  0  0  0  0  0  0  0  0  0
   -3.2451    2.5293   -0.4202 N   0  0  0  0  0  0  0  0  0  0  0  0
   -3.9546    3.0753    0.5783 C   0  0  0  0  0  0  0  0  0  0  0  0
   -4.8854    3.6123    0.4460 H   0  0  0  0  0  0  0  0  0  0  0  0
   -3.3519    2.8530    1.7584 N   0  0  0  0  0  0  0  0  0  0  0  0
   -3.7014    3.1480    2.6599 H   0  0  0  0  0  0  0  0  0  0  0  0
   -2.1947    2.1439    1.5252 C   0  0  0  0  0  0  0  0  0  0  0  0
   -1.4833    1.7803    2.2560 H   0  0  0  0  0  0  0  0  0  0  0  0
   -0.0283    0.1609    1.5831 C   0  0  0  0  0  0  0  0  0  0  0  0
    1.1923    0.1056    1.7329 O   0  0  0  0  0  0  0  0  0  0  0  0
   -0.8586    0.4659    2.5853 N   0  0  0  0  0  0  0  0  0  0  0  0
   -1.8521    0.3848    2.4000 H   0  0  0  0  0  0  0  0  0  0  0  0
   -0.4403    0.7694    3.9518 C   0  0  0  0  0  0  0  0  0  0  0  0
    0.5066    1.3154    3.9421 H   0  0  0  0  0  0  0  0  0  0  0  0
   -1.1988    1.3789    4.4452 H   0  0  0  0  0  0  0  0  0  0  0  0
   -0.3053   -0.1600    4.5075 H   0  0  0  0  0  0  0  0  0  0  0  0
  5  6  2  0  0  0  0
  5  7  1  0  0  0  0
  2  3  1  0  0  0  0
  2  4  1  0  0  0  0
  2  5  1  0  0  0  0
  1  2  1  0  0  0  0
 22 23  2  0  0  0  0
 22 24  1  0  0  0  0
 20 21  1  0  0  0  0
 18 19  1  0  0  0  0
 18 20  1  0  0  0  0
 16 17  1  0  0  0  0
 16 18  1  0  0  0  0
 15 16  2  0  0  0  0
 14 15  1  0  0  0  0
 14 20  2  0  0  0  0
 11 12  1  0  0  0  0
 11 13  1  0  0  0  0
 11 14  1  0  0  0  0
  9 10  1  0  0  0  0
  9 11  1  0  0  0  0
  9 22  1  0  0  0  0
  7  8  1  0  0  0  0
  7  9  1  0  0  0  0
 26 27  1  0  0  0  0
 26 28  1  0  0  0  0
 26 29  1  0  0  0  0
 24 25  1  0  0  0  0
 24 26  1  0  0  0  0
M  END
$$$$
default_name
  -OEChem-02102213163D

 29 29  0     1  0  0  0  0  0999 V2000
   -2.9561   -3.9186    1.3887 H   0  0  0  0  0  0  0  0  0  0  0  0
   -3.1191   -2.9346    0.9517 C   0  0  0  0  0  0  0  0  0  0  0  0
   -3.7811   -2.3546    1.5917 H   0  0  0  0  0  0  0  0  0  0  0  0
   -3.5591   -3.0406   -0.0383 H   0  0  0  0  0  0  0  0  0  0  0  0
   -1.7921   -2.2226    0.8327 C   0  0  0  0  0  0  0  0  0  0  0  0
   -0.7611   -2.7766    1.1927 O   0  0  0  0  0  0  0  0  0  0  0  0
   -1.8201   -0.9926    0.3247 N   0  0  0  0  0  0  0  0  0  0  0  0
   -2.7141   -0.5816    0.0927 H   0  0  0  0  0  0  0  0  0  0  0  0
   -0.6481   -0.1156    0.2017 C   0  0  1  0  0  0  0  0  0  0  0  0
    0.1042   -0.6345   -0.3958 H   0  0  0  0  0  0  0  0  0  0  0  0
   -1.0420    1.1781   -0.5372 C   0  0  0  0  0  0  0  0  0  0  0  0
   -0.1737    1.8330   -0.6235 H   0  0  0  0  0  0  0  0  0  0  0  0
   -1.3745    0.9390   -1.5483 H   0  0  0  0  0  0  0  0  0  0  0  0
   -2.1213    1.9557    0.1759 C   0  0  0  0  0  0  0  0  0  0  0  0
   -3.3764    2.2764   -0.3430 N   0  0  0  0  0  0  0  0  0  0  0  0
   -4.0260    2.9239    0.6353 C   0  0  0  0  0  0  0  0  0  0  0  0
   -5.0299    3.3197    0.5464 H   0  0  0  0  0  0  0  0  0  0  0  0
   -3.2596    3.0015    1.7362 N   0  0  0  0  0  0  0  0  0  0  0  0
   -3.5333    3.4251    2.6123 H   0  0  0  0  0  0  0  0  0  0  0  0
   -2.0544    2.3920    1.4668 C   0  0  0  0  0  0  0  0  0  0  0  0
   -1.2169    2.2569    2.1396 H   0  0  0  0  0  0  0  0  0  0  0  0
   -0.0283    0.1609    1.5831 C   0  0  0  0  0  0  0  0  0  0  0  0
    1.1923    0.1056    1.7329 O   0  0  0  0  0  0  0  0  0  0  0  0
   -0.8586    0.4659    2.5853 N   0  0  0  0  0  0  0  0  0  0  0  0
   -1.8521    0.3848    2.4000 H   0  0  0  0  0  0  0  0  0  0  0  0
   -0.4403    0.7694    3.9518 C   0  0  0  0  0  0  0  0  0  0  0  0
    0.5066    1.3154    3.9421 H   0  0  0  0  0  0  0  0  0  0  0  0
   -1.1988    1.3789    4.4452 H   0  0  0  0  0  0  0  0  0  0  0  0
   -0.3053   -0.1600    4.5075 H   0  0  0  0  0  0  0  0  0  0  0  0
  5  6  2  0  0  0  0
  5  7  1  0  0  0  0
  2  3  1  0  0  0  0
  2  4  1  0  0  0  0
  2  5  1  0  0  0  0
  1  2  1  0  0  0  0
 22 23  2  0  0  0  0
 22 24  1  0  0  0  0
 20 21  1  0  0  0  0
 18 19  1  0  0  0  0
 18 20  1  0  0  0  0
 16 17  1  0  0  0  0
 16 18  1  0  0  0  0
 15 16  2  0  0  0  0
 14 15  1  0  0  0  0
 14 20  2  0  0  0  0
 11 12  1  0  0  0  0
 11 13  1  0  0  0  0
 11 14  1  0  0  0  0
  9 10  1  0  0  0  0
  9 11  1  0  0  0  0
  9 22  1  0  0  0  0
  7  8  1  0  0  0  0
  7  9  1  0  0  0  0
 26 27  1  0  0  0  0
 26 28  1  0  0  0  0
 26 29  1  0  0  0  0
 24 25  1  0  0  0  0
 24 26  1  0  0  0  0
M  END
$$$$
default_name
  -OEChem-02102213163D

 29 29  0     1  0  0  0  0  0999 V2000
   -2.9561   -3.9186    1.3887 H   0  0  0  0  0  0  0  0  0  0  0  0
   -3.1191   -2.9346    0.9517 C   0  0  0  0  0  0  0  0  0  0  0  0
   -3.7811   -2.3546    1.5917 H   0  0  0  0  0  0  0  0  0  0  0  0
   -3.5591   -3.0406   -0.0383 H   0  0  0  0  0  0  0  0  0  0  0  0
   -1.7921   -2.2226    0.8327 C   0  0  0  0  0  0  0  0  0  0  0  0
   -0.7611   -2.7766    1.1927 O   0  0  0  0  0  0  0  0  0  0  0  0
   -1.8201   -0.9926    0.3247 N   0  0  0  0  0  0  0  0  0  0  0  0
   -2.7141   -0.5816    0.0927 H   0  0  0  0  0  0  0  0  0  0  0  0
   -0.6481   -0.1156    0.2017 C   0  0  1  0  0  0  0  0  0  0  0  0
    0.1042   -0.6345   -0.3958 H   0  0  0  0  0  0  0  0  0  0  0  0
   -1.0420    1.1781   -0.5372 C   0  0  0  0  0  0  0  0  0  0  0  0
   -0.1737    1.8330   -0.6235 H   0  0  0  0  0  0  0  0  0  0  0  0
   -1.3745    0.9390   -1.5483 H   0  0  0  0  0  0  0  0  0  0  0  0
   -2.1213    1.9557    0.1759 C   0  0  0  0  0  0  0  0  0  0  0  0
   -3.4619    2.0303   -0.2041 N   0  0  0  0  0  0  0  0  0  0  0  0
   -4.0689    2.7795    0.7278 C   0  0  0  0  0  0  0  0  0  0  0  0
   -5.1202    3.0380    0.7168 H   0  0  0  0  0  0  0  0  0  0  0  0
   -3.1916    3.1521    1.6749 N   0  0  0  0  0  0  0  0  0  0  0  0
   -3.4110    3.7045    2.4926 H   0  0  0  0  0  0  0  0  0  0  0  0
   -1.9571    2.6380    1.3458 C   0  0  0  0  0  0  0  0  0  0  0  0
   -1.0333    2.7283    1.9033 H   0  0  0  0  0  0  0  0  0  0  0  0
   -0.0283    0.1609    1.5831 C   0  0  0  0  0  0  0  0  0  0  0  0
    1.1923    0.1056    1.7329 O   0  0  0  0  0  0  0  0  0  0  0  0
   -0.8586    0.4659    2.5853 N   0  0  0  0  0  0  0  0  0  0  0  0
   -1.8521    0.3848    2.4000 H   0  0  0  0  0  0  0  0  0  0  0  0
   -0.4403    0.7694    3.9518 C   0  0  0  0  0  0  0  0  0  0  0  0
    0.5066    1.3154    3.9421 H   0  0  0  0  0  0  0  0  0  0  0  0
   -1.1988    1.3789    4.4452 H   0  0  0  0  0  0  0  0  0  0  0  0
   -0.3053   -0.1600    4.5075 H   0  0  0  0  0  0  0  0  0  0  0  0
  5  6  2  0  0  0  0
  5  7  1  0  0  0  0
  2  3  1  0  0  0  0
  2  4  1  0  0  0  0
  2  5  1  0  0  0  0
  1  2  1  0  0  0  0
 22 23  2  0  0  0  0
 22 24  1  0  0  0  0
 20 21  1  0  0  0  0
 18 19  1  0  0  0  0
 18 20  1  0  0  0  0
 16 17  1  0  0  0  0
 16 18  1  0  0  0  0
 15 16  2  0  0  0  0
 14 15  1  0  0  0  0
 14 20  2  0  0  0  0
 11 12  1  0  0  0  0
 11 13  1  0  0  0  0
 11 14  1  0  0  0  0
  9 10  1  0  0  0  0
  9 11  1  0  0  0  0
  9 22  1  0  0  0  0
  7  8  1  0  0  0  0
  7  9  1  0  0  0  0
 26 27  1  0  0  0  0
 26 28  1  0  0  0  0
 26 29  1  0  0  0  0
 24 25  1  0  0  0  0
 24 26  1  0  0  0  0
M  END
$$$$
default_name
  -OEChem-02102213163D

 29 29  0     1  0  0  0  0  0999 V2000
   -2.9561   -3.9186    1.3887 H   0  0  0  0  0  0  0  0  0  0  0  0
   -3.1191   -2.9346    0.9517 C   0  0  0  0  0  0  0  0  0  0  0  0
   -3.7811   -2.3546    1.5917 H   0  0  0  0  0  0  0  0  0  0  0  0
   -3.5591   -3.0406   -0.0383 H   0  0  0  0  0  0  0  0  0  0  0  0
   -1.7921   -2.2226    0.8327 C   0  0  0  0  0  0  0  0  0  0  0  0
   -0.7611   -2.7766    1.1927 O   0  0  0  0  0  0  0  0  0  0  0  0
   -1.8201   -0.9926    0.3247 N   0  0  0  0  0  0  0  0  0  0  0  0
   -2.7141   -0.5816    0.0927 H   0  0  0  0  0  0  0  0  0  0  0  0
   -0.6481   -0.1156    0.2017 C   0  0  1  0  0  0  0  0  0  0  0  0
    0.1042   -0.6345   -0.3958 H   0  0  0  0  0  0  0  0  0  0  0  0
   -1.0420    1.1781   -0.5372 C   0  0  0  0  0  0  0  0  0  0  0  0
   -0.1737    1.8330   -0.6235 H   0  0  0  0  0  0  0  0  0  0  0  0
   -1.3745    0.9390   -1.5483 H   0  0  0  0  0  0  0  0  0  0  0  0
   -2.1213    1.9557    0.1759 C   0  0  0  0  0  0  0  0  0  0  0  0
   -3.4960    1.8078   -0.0131 N   0  0  0  0  0  0  0  0  0  0  0  0
   -4.0803    2.6519    0.8497 C   0  0  0  0  0  0  0  0  0  0  0  0
   -5.1503    2.7865    0.9456 H   0  0  0  0  0  0  0  0  0  0  0  0
   -3.1525    3.2946    1.5788 N   0  0  0  0  0  0  0  0  0  0  0  0
   -3.3431    3.9671    2.3089 H   0  0  0  0  0  0  0  0  0  0  0  0
   -1.9093    2.8652    1.1705 C   0  0  0  0  0  0  0  0  0  0  0  0
   -0.9452    3.1624    1.5635 H   0  0  0  0  0  0  0  0  0  0  0  0
   -0.0283    0.1609    1.5831 C   0  0  0  0  0  0  0  0  0  0  0  0
    1.1923    0.1056    1.7329 O   0  0  0  0  0  0  0  0  0  0  0  0
   -0.8586    0.4659    2.5853 N   0  0  0  0  0  0  0  0  0  0  0  0
   -1.8521    0.3848    2.4000 H   0  0  0  0  0  0  0  0  0  0  0  0
   -0.4403    0.7694    3.9518 C   0  0  0  0  0  0  0  0  0  0  0  0
    0.5066    1.3154    3.9421 H   0  0  0  0  0  0  0  0  0  0  0  0
   -1.1988    1.3789    4.4452 H   0  0  0  0  0  0  0  0  0  0  0  0
   -0.3053   -0.1600    4.5075 H   0  0  0  0  0  0  0  0  0  0  0  0
  5  6  2  0  0  0  0
  5  7  1  0  0  0  0
  2  3  1  0  0  0  0
  2  4  1  0  0  0  0
  2  5  1  0  0  0  0
  1  2  1  0  0  0  0
 22 23  2  0  0  0  0
 22 24  1  0  0  0  0
 20 21  1  0  0  0  0
 18 19  1  0  0  0  0
 18 20  1  0  0  0  0
 16 17  1  0  0  0  0
 16 18  1  0  0  0  0
 15 16  2  0  0  0  0
 14 15  1  0  0  0  0
 14 20  2  0  0  0  0
 11 12  1  0  0  0  0
 11 13  1  0  0  0  0
 11 14  1  0  0  0  0
  9 10  1  0  0  0  0
  9 11  1  0  0  0  0
  9 22  1  0  0  0  0
  7  8  1  0  0  0  0
  7  9  1  0  0  0  0
 26 27  1  0  0  0  0
 26 28  1  0  0  0  0
 26 29  1  0  0  0  0
 24 25  1  0  0  0  0
 24 26  1  0  0  0  0
M  END
$$$$
default_name
  -OEChem-02102213163D

 29 29  0     1  0  0  0  0  0999 V2000
   -2.9561   -3.9186    1.3887 H   0  0  0  0  0  0  0  0  0  0  0  0
   -3.1191   -2.9346    0.9517 C   0  0  0  0  0  0  0  0  0  0  0  0
   -3.7811   -2.3546    1.5917 H   0  0  0  0  0  0  0  0  0  0  0  0
   -3.5591   -3.0406   -0.0383 H   0  0  0  0  0  0  0  0  0  0  0  0
   -1.7921   -2.2226    0.8327 C   0  0  0  0  0  0  0  0  0  0  0  0
   -0.7611   -2.7766    1.1927 O   0  0  0  0  0  0  0  0  0  0  0  0
   -1.8201   -0.9926    0.3247 N   0  0  0  0  0  0  0  0  0  0  0  0
   -2.7141   -0.5816    0.0927 H   0  0  0  0  0  0  0  0  0  0  0  0
   -0.6481   -0.1156    0.2017 C   0  0  1  0  0  0  0  0  0  0  0  0
    0.1042   -0.6345   -0.3958 H   0  0  0  0  0  0  0  0  0  0  0  0
   -1.0420    1.1781   -0.5372 C   0  0  0  0  0  0  0  0  0  0  0  0
   -0.1737    1.8330   -0.6235 H   0  0  0  0  0  0  0  0  0  0  0  0
   -1.3745    0.9390   -1.5483 H   0  0  0  0  0  0  0  0  0  0  0  0
   -2.1213    1.9557    0.1759 C   0  0  0  0  0  0  0  0  0  0  0  0
   -3.4762    1.6241    0.2172 N   0  0  0  0  0  0  0  0  0  0  0  0
   -4.0594    2.5498    0.9926 C   0  0  0  0  0  0  0  0  0  0  0  0
   -5.1181    2.5821    1.2171 H   0  0  0  0  0  0  0  0  0  0  0  0
   -3.1449    3.4192    1.4543 N   0  0  0  0  0  0  0  0  0  0  0  0
   -3.3341    4.1952    2.0739 H   0  0  0  0  0  0  0  0  0  0  0  0
   -1.9143    3.0580    0.9527 C   0  0  0  0  0  0  0  0  0  0  0  0
   -0.9584    3.5296    1.1430 H   0  0  0  0  0  0  0  0  0  0  0  0
   -0.0283    0.1609    1.5831 C   0  0  0  0  0  0  0  0  0  0  0  0
    1.1923    0.1056    1.7329 O   0  0  0  0  0  0  0  0  0  0  0  0
   -0.8586    0.4659    2.5853 N   0  0  0  0  0  0  0  0  0  0  0  0
   -1.8521    0.3848    2.4000 H   0  0  0  0  0  0  0  0  0  0  0  0
   -0.4403    0.7694    3.9518 C   0  0  0  0  0  0  0  0  0  0  0  0
    0.5066    1.3154    3.9421 H   0  0  0  0  0  0  0  0  0  0  0  0
   -1.1988    1.3789    4.4452 H   0  0  0  0  0  0  0  0  0  0  0  0
   -0.3053   -0.1600    4.5075 H   0  0  0  0  0  0  0  0  0  0  0  0
  5  6  2  0  0  0  0
  5  7  1  0  0  0  0
  2  3  1  0  0  0  0
  2  4  1  0  0  0  0
  2  5  1  0  0  0  0
  1  2  1  0  0  0  0
 22 23  2  0  0  0  0
 22 24  1  0  0  0  0
 20 21  1  0  0  0  0
 18 19  1  0  0  0  0
 18 20  1  0  0  0  0
 16 17  1  0  0  0  0
 16 18  1  0  0  0  0
 15 16  2  0  0  0  0
 14 15  1  0  0  0  0
 14 20  2  0  0  0  0
 11 12  1  0  0  0  0
 11 13  1  0  0  0  0
 11 14  1  0  0  0  0
  9 10  1  0  0  0  0
  9 11  1  0  0  0  0
  9 22  1  0  0  0  0
  7  8  1  0  0  0  0
  7  9  1  0  0  0  0
 26 27  1  0  0  0  0
 26 28  1  0  0  0  0
 26 29  1  0  0  0  0
 24 25  1  0  0  0  0
 24 26  1  0  0  0  0
M  END
$$$$
default_name
  -OEChem-02102213163D

 29 29  0     1  0  0  0  0  0999 V2000
   -2.9561   -3.9186    1.3887 H   0  0  0  0  0  0  0  0  0  0  0  0
   -3.1191   -2.9346    0.9517 C   0  0  0  0  0  0  0  0  0  0  0  0
   -3.7811   -2.3546    1.5917 H   0  0  0  0  0  0  0  0  0  0  0  0
   -3.5591   -3.0406   -0.0383 H   0  0  0  0  0  0  0  0  0  0  0  0
   -1.7921   -2.2226    0.8327 C   0  0  0  0  0  0  0  0  0  0  0  0
   -0.7611   -2.7766    1.1927 O   0  0  0  0  0  0  0  0  0  0  0  0
   -1.8201   -0.9926    0.3247 N   0  0  0  0  0  0  0  0  0  0  0  0
   -2.7141   -0.5816    0.0927 H   0  0  0  0  0  0  0  0  0  0  0  0
   -0.6481   -0.1156    0.2017 C   0  0  1  0  0  0  0  0  0  0  0  0
    0.1042   -0.6345   -0.3958 H   0  0  0  0  0  0  0  0  0  0  0  0
   -1.0420    1.1781   -0.5372 C   0  0  0  0  0  0  0  0  0  0  0  0
   -0.1737    1.8330   -0.6235 H   0  0  0  0  0  0  0  0  0  0  0  0
   -1.3745    0.9390   -1.5483 H   0  0  0  0  0  0  0  0  0  0  0  0
   -2.1213    1.9557    0.1759 C   0  0  0  0  0  0  0  0  0  0  0  0
   -3.4039    1.4917    0.4710 N   0  0  0  0  0  0  0  0  0  0  0  0
   -4.0078    2.4802    1.1467 C   0  0  0  0  0  0  0  0  0  0  0  0
   -5.0258    2.4389    1.5129 H   0  0  0  0  0  0  0  0  0  0  0  0
   -3.1695    3.5174    1.3101 N   0  0  0  0  0  0  0  0  0  0  0  0
   -3.3847    4.3730    1.8035 H   0  0  0  0  0  0  0  0  0  0  0  0
   -1.9718    3.2033    0.7073 C   0  0  0  0  0  0  0  0  0  0  0  0
   -1.0722    3.8048    0.6708 H   0  0  0  0  0  0  0  0  0  0  0  0
   -0.0283    0.1609    1.5831 C   0  0  0  0  0  0  0  0  0  0  0  0
    1.1923    0.1056    1.7329 O   0  0  0  0  0  0  0  0  0  0  0  0
   -0.8586    0.4659    2.5853 N   0  0  0  0  0  0  0  0  0  0  0  0
   -1.8521    0.3848    2.4000 H   0  0  0  0  0  0  0  0  0  0  0  0
   -0.4403    0.7694    3.9518 C   0  0  0  0  0  0  0  0  0  0  0  0
    0.5066    1.3154    3.9421 H   0  0  0  0  0  0  0  0  0  0  0  0
   -1.1988    1.3789    4.4452 H   0  0  0  0  0  0  0  0  0  0  0  0
   -0.3053   -0.1600    4.5075 H   0  0  0  0  0  0  0  0  0  0  0  0
  5  6  2  0  0  0  0
  5  7  1  0  0  0  0
  2  3  1  0  0  0  0
  2  4  1  0  0  0  0
  2  5  1  0  0  0  0
  1  2  1  0  0  0  0
 22 23  2  0  0  0  0
 22 24  1  0  0  0  0
 20 21  1  0  0  0  0
 18 19  1  0  0  0  0
 18 20  1  0  0  0  0
 16 17  1  0  0  0  0
 16 18  1  0  0  0  0
 15 16  2  0  0  0  0
 14 15  1  0  0  0  0
 14 20  2  0  0  0  0
 11 12  1  0  0  0  0
 11 13  1  0  0  0  0
 11 14  1  0  0  0  0
  9 10  1  0  0  0  0
  9 11  1  0  0  0  0
  9 22  1  0  0  0  0
  7  8  1  0  0  0  0
  7  9  1  0  0  0  0
 26 27  1  0  0  0  0
 26 28  1  0  0  0  0
 26 29  1  0  0  0  0
 24 25  1  0  0  0  0
 24 26  1  0  0  0  0
M  END
$$$$
default_name
  -OEChem-02102213163D

 29 29  0     1  0  0  0  0  0999 V2000
   -2.9561   -3.9186    1.3887 H   0  0  0  0  0  0  0  0  0  0  0  0
   -3.1191   -2.9346    0.9517 C   0  0  0  0  0  0  0  0  0  0  0  0
   -3.7811   -2.3546    1.5917 H   0  0  0  0  0  0  0  0  0  0  0  0
   -3.5591   -3.0406   -0.0383 H   0  0  0  0  0  0  0  0  0  0  0  0
   -1.7921   -2.2226    0.8327 C   0  0  0  0  0  0  0  0  0  0  0  0
   -0.7611   -2.7766    1.1927 O   0  0  0  0  0  0  0  0  0  0  0  0
   -1.8201   -0.9926    0.3247 N   0  0  0  0  0  0  0  0  0  0  0  0
   -2.7141   -0.5816    0.0927 H   0  0  0  0  0  0  0  0  0  0  0  0
   -0.6481   -0.1156    0.2017 C   0  0  1  0  0  0  0  0  0  0  0  0
    0.1042   -0.6345   -0.3958 H   0  0  0  0  0  0  0  0  0  0  0  0
   -1.0420    1.1781   -0.5372 C   0  0  0  0  0  0  0  0  0  0  0  0
   -0.1737    1.8330   -0.6235 H   0  0  0  0  0  0  0  0  0  0  0  0
   -1.3745    0.9390   -1.5483 H   0  0  0  0  0  0  0  0  0  0  0  0
   -2.1213    1.9557    0.1759 C   0  0  0  0  0  0  0  0  0  0  0  0
   -3.2840    1.4197    0.7310 N   0  0  0  0  0  0  0  0  0  0  0  0
   -3.9288    2.4478    1.3016 C   0  0  0  0  0  0  0  0  0  0  0  0
   -4.8797    2.3666    1.8129 H   0  0  0  0  0  0  0  0  0  0  0  0
   -3.2244    3.5826    1.1558 N   0  0  0  0  0  0  0  0  0  0  0  0
   -3.4913    4.4886    1.5161 H   0  0  0  0  0  0  0  0  0  0  0  0
   -2.0777    3.2913    0.4510 C   0  0  0  0  0  0  0  0  0  0  0  0
   -1.2787    3.9693    0.1788 H   0  0  0  0  0  0  0  0  0  0  0  0
   -0.0283    0.1609    1.5831 C   0  0  0  0  0  0  0  0  0  0  0  0
    1.1923    0.1056    1.7329 O   0  0  0  0  0  0  0  0  0  0  0  0
   -0.8586    0.4659    2.5853 N   0  0  0  0  0  0  0  0  0  0  0  0
   -1.8521    0.3848    2.4000 H   0  0  0  0  0  0  0  0  0  0  0  0
   -0.4403    0.7694    3.9518 C   0  0  0  0  0  0  0  0  0  0  0  0
    0.5066    1.3154    3.9421 H   0  0  0  0  0  0  0  0  0  0  0  0
   -1.1988    1.3789    4.4452 H   0  0  0  0  0  0  0  0  0  0  0  0
   -0.3053   -0.1600    4.5075 H   0  0  0  0  0  0  0  0  0  0  0  0
  5  6  2  0  0  0  0
  5  7  1  0  0  0  0
  2  3  1  0  0  0  0
  2  4  1  0  0  0  0
  2  5  1  0  0  0  0
  1  2  1  0  0  0  0
 22 23  2  0  0  0  0
 22 24  1  0  0  0  0
 20 21  1  0  0  0  0
 18 19  1  0  0  0  0
 18 20  1  0  0  0  0
 16 17  1  0  0  0  0
 16 18  1  0  0  0  0
 15 16  2  0  0  0  0
 14 15  1  0  0  0  0
 14 20  2  0  0  0  0
 11 12  1  0  0  0  0
 11 13  1  0  0  0  0
 11 14  1  0  0  0  0
  9 10  1  0  0  0  0
  9 11  1  0  0  0  0
  9 22  1  0  0  0  0
  7  8  1  0  0  0  0
  7  9  1  0  0  0  0
 26 27  1  0  0  0  0
 26 28  1  0  0  0  0
 26 29  1  0  0  0  0
 24 25  1  0  0  0  0
 24 26  1  0  0  0  0
M  END
$$$$
default_name
  -OEChem-02102213163D

 29 29  0     1  0  0  0  0  0999 V2000
   -2.9561   -3.9186    1.3887 H   0  0  0  0  0  0  0  0  0  0  0  0
   -3.1191   -2.9346    0.9517 C   0  0  0  0  0  0  0  0  0  0  0  0
   -3.7811   -2.3546    1.5917 H   0  0  0  0  0  0  0  0  0  0  0  0
   -3.5591   -3.0406   -0.0383 H   0  0  0  0  0  0  0  0  0  0  0  0
   -1.7921   -2.2226    0.8327 C   0  0  0  0  0  0  0  0  0  0  0  0
   -0.7611   -2.7766    1.1927 O   0  0  0  0  0  0  0  0  0  0  0  0
   -1.8201   -0.9926    0.3247 N   0  0  0  0  0  0  0  0  0  0  0  0
   -2.7141   -0.5816    0.0927 H   0  0  0  0  0  0  0  0  0  0  0  0
   -0.6481   -0.1156    0.2017 C   0  0  1  0  0  0  0  0  0  0  0  0
    0.1042   -0.6345   -0.3958 H   0  0  0  0  0  0  0  0  0  0  0  0
   -1.0420    1.1781   -0.5372 C   0  0  0  0  0  0  0  0  0  0  0  0
   -0.1737    1.8330   -0.6235 H   0  0  0  0  0  0  0  0  0  0  0  0
   -1.3745    0.9390   -1.5483 H   0  0  0  0  0  0  0  0  0  0  0  0
   -2.1213    1.9557    0.1759 C   0  0  0  0  0  0  0  0  0  0  0  0
   -3.1247    1.4128    0.9795 N   0  0  0  0  0  0  0  0  0  0  0  0
   -3.8279    2.4548    1.4466 C   0  0  0  0  0  0  0  0  0  0  0  0
   -4.6898    2.3702    2.0965 H   0  0  0  0  0  0  0  0  0  0  0  0
   -3.3060    3.6103    1.0021 N   0  0  0  0  0  0  0  0  0  0  0  0
   -3.6468    4.5340    1.2313 H   0  0  0  0  0  0  0  0  0  0  0  0
   -2.2250    3.3158    0.2013 C   0  0  0  0  0  0  0  0  0  0  0  0
   -1.5639    4.0120   -0.2993 H   0  0  0  0  0  0  0  0  0  0  0  0
   -0.0283    0.1609    1.5831 C   0  0  0  0  0  0  0  0  0  0  0  0
    1.1923    0.1056    1.7329 O   0  0  0  0  0  0  0  0  0  0  0  0
   -0.8586    0.4659    2.5853 N   0  0  0  0  0  0  0  0  0  0  0  0
   -1.8521    0.3848    2.4000 H   0  0  0  0  0  0  0  0  0  0  0  0
   -0.4403    0.7694    3.9518 C   0  0  0  0  0  0  0  0  0  0  0  0
    0.5066    1.3154    3.9421 H   0  0  0  0  0  0  0  0  0  0  0  0
   -1.1988    1.3789    4.4452 H   0  0  0  0  0  0  0  0  0  0  0  0
   -0.3053   -0.1600    4.5075 H   0  0  0  0  0  0  0  0  0  0  0  0
  5  6  2  0  0  0  0
  5  7  1  0  0  0  0
  2  3  1  0  0  0  0
  2  4  1  0  0  0  0
  2  5  1  0  0  0  0
  1  2  1  0  0  0  0
 22 23  2  0  0  0  0
 22 24  1  0  0  0  0
 20 21  1  0  0  0  0
 18 19  1  0  0  0  0
 18 20  1  0  0  0  0
 16 17  1  0  0  0  0
 16 18  1  0  0  0  0
 15 16  2  0  0  0  0
 14 15  1  0  0  0  0
 14 20  2  0  0  0  0
 11 12  1  0  0  0  0
 11 13  1  0  0  0  0
 11 14  1  0  0  0  0
  9 10  1  0  0  0  0
  9 11  1  0  0  0  0
  9 22  1  0  0  0  0
  7  8  1  0  0  0  0
  7  9  1  0  0  0  0
 26 27  1  0  0  0  0
 26 28  1  0  0  0  0
 26 29  1  0  0  0  0
 24 25  1  0  0  0  0
 24 26  1  0  0  0  0
M  END
$$$$
default_name
  -OEChem-02102213163D

 29 29  0     1  0  0  0  0  0999 V2000
   -2.9561   -3.9186    1.3887 H   0  0  0  0  0  0  0  0  0  0  0  0
   -3.1191   -2.9346    0.9517 C   0  0  0  0  0  0  0  0  0  0  0  0
   -3.7811   -2.3546    1.5917 H   0  0  0  0  0  0  0  0  0  0  0  0
   -3.5591   -3.0406   -0.0383 H   0  0  0  0  0  0  0  0  0  0  0  0
   -1.7921   -2.2226    0.8327 C   0  0  0  0  0  0  0  0  0  0  0  0
   -0.7611   -2.7766    1.1927 O   0  0  0  0  0  0  0  0  0  0  0  0
   -1.8201   -0.9926    0.3247 N   0  0  0  0  0  0  0  0  0  0  0  0
   -2.7141   -0.5816    0.0927 H   0  0  0  0  0  0  0  0  0  0  0  0
   -0.6481   -0.1156    0.2017 C   0  0  1  0  0  0  0  0  0  0  0  0
    0.1042   -0.6345   -0.3958 H   0  0  0  0  0  0  0  0  0  0  0  0
   -1.0420    1.1781   -0.5372 C   0  0  0  0  0  0  0  0  0  0  0  0
   -0.1737    1.8330   -0.6235 H   0  0  0  0  0  0  0  0  0  0  0  0
   -1.3745    0.9390   -1.5483 H   0  0  0  0  0  0  0  0  0  0  0  0
   -2.1213    1.9557    0.1759 C   0  0  0  0  0  0  0  0  0  0  0  0
   -2.9369    1.4717    1.1996 N   0  0  0  0  0  0  0  0  0  0  0  0
   -3.7120    2.5007    1.5720 C   0  0  0  0  0  0  0  0  0  0  0  0
   -4.4689    2.4493    2.3444 H   0  0  0  0  0  0  0  0  0  0  0  0
   -3.4088    3.5987    0.8593 N   0  0  0  0  0  0  0  0  0  0  0  0
   -3.8404    4.5062    0.9685 H   0  0  0  0  0  0  0  0  0  0  0  0
   -2.4036    3.2753   -0.0248 C   0  0  0  0  0  0  0  0  0  0  0  0
   -1.9083    3.9298   -0.7309 H   0  0  0  0  0  0  0  0  0  0  0  0
   -0.0283    0.1609    1.5831 C   0  0  0  0  0  0  0  0  0  0  0  0
    1.1923    0.1056    1.7329 O   0  0  0  0  0  0  0  0  0  0  0  0
   -0.8586    0.4659    2.5853 N   0  0  0  0  0  0  0  0  0  0  0  0
   -1.8521    0.3848    2.4000 H   0  0  0  0  0  0  0  0  0  0  0  0
   -0.4403    0.7694    3.9518 C   0  0  0  0  0  0  0  0  0  0  0  0
    0.5066    1.3154    3.9421 H   0  0  0  0  0  0  0  0  0  0  0  0
   -1.1988    1.3789    4.4452 H   0  0  0  0  0  0  0  0  0  0  0  0
   -0.3053   -0.1600    4.5075 H   0  0  0  0  0  0  0  0  0  0  0  0
  5  6  2  0  0  0  0
  5  7  1  0  0  0  0
  2  3  1  0  0  0  0
  2  4  1  0  0  0  0
  2  5  1  0  0  0  0
  1  2  1  0  0  0  0
 22 23  2  0  0  0  0
 22 24  1  0  0  0  0
 20 21  1  0  0  0  0
 18 19  1  0  0  0  0
 18 20  1  0  0  0  0
 16 17  1  0  0  0  0
 16 18  1  0  0  0  0
 15 16  2  0  0  0  0
 14 15  1  0  0  0  0
 14 20  2  0  0  0  0
 11 12  1  0  0  0  0
 11 13  1  0  0  0  0
 11 14  1  0  0  0  0
  9 10  1  0  0  0  0
  9 11  1  0  0  0  0
  9 22  1  0  0  0  0
  7  8  1  0  0  0  0
  7  9  1  0  0  0  0
 26 27  1  0  0  0  0
 26 28  1  0  0  0  0
 26 29  1  0  0  0  0
 24 25  1  0  0  0  0
 24 26  1  0  0  0  0
M  END
$$$$
default_name
  -OEChem-02102213163D

 29 29  0     1  0  0  0  0  0999 V2000
   -2.9561   -3.9186    1.3887 H   0  0  0  0  0  0  0  0  0  0  0  0
   -3.1191   -2.9346    0.9517 C   0  0  0  0  0  0  0  0  0  0  0  0
   -3.7811   -2.3546    1.5917 H   0  0  0  0  0  0  0  0  0  0  0  0
   -3.5591   -3.0406   -0.0383 H   0  0  0  0  0  0  0  0  0  0  0  0
   -1.7921   -2.2226    0.8327 C   0  0  0  0  0  0  0  0  0  0  0  0
   -0.7611   -2.7766    1.1927 O   0  0  0  0  0  0  0  0  0  0  0  0
   -1.8201   -0.9926    0.3247 N   0  0  0  0  0  0  0  0  0  0  0  0
   -2.7141   -0.5816    0.0927 H   0  0  0  0  0  0  0  0  0  0  0  0
   -0.6481   -0.1156    0.2017 C   0  0  1  0  0  0  0  0  0  0  0  0
    0.1042   -0.6345   -0.3958 H   0  0  0  0  0  0  0  0  0  0  0  0
   -1.0420    1.1781   -0.5372 C   0  0  0  0  0  0  0  0  0  0  0  0
   -0.1737    1.8330   -0.6235 H   0  0  0  0  0  0  0  0  0  0  0  0
   -1.3745    0.9390   -1.5483 H   0  0  0  0  0  0  0  0  0  0  0  0
   -2.1213    1.9557    0.1759 C   0  0  0  0  0  0  0  0  0  0  0  0
   -2.7333    1.5923    1.3762 N   0  0  0  0  0  0  0  0  0  0  0  0
   -3.5889    2.5825    1.6691 C   0  0  0  0  0  0  0  0  0  0  0  0
   -4.2322    2.5987    2.5399 H   0  0  0  0  0  0  0  0  0  0  0  0
   -3.5256    3.5484    0.7373 N   0  0  0  0  0  0  0  0  0  0  0  0
   -4.0592    4.4069    0.7457 H   0  0  0  0  0  0  0  0  0  0  0  0
   -2.6013    3.1725   -0.2118 C   0  0  0  0  0  0  0  0  0  0  0  0
   -2.2885    3.7284   -1.0868 H   0  0  0  0  0  0  0  0  0  0  0  0
   -0.0283    0.1609    1.5831 C   0  0  0  0  0  0  0  0  0  0  0  0
    1.1923    0.1056    1.7329 O   0  0  0  0  0  0  0  0  0  0  0  0
   -0.8586    0.4659    2.5853 N   0  0  0  0  0  0  0  0  0  0  0  0
   -1.8521    0.3848    2.4000 H   0  0  0  0  0  0  0  0  0  0  0  0
   -0.4403    0.7694    3.9518 C   0  0  0  0  0  0  0  0  0  0  0  0
    0.5066    1.3154    3.9421 H   0  0  0  0  0  0  0  0  0  0  0  0
   -1.1988    1.3789    4.4452 H   0  0  0  0  0  0  0  0  0  0  0  0
   -0.3053   -0.1600    4.5075 H   0  0  0  0  0  0  0  0  0  0  0  0
  5  6  2  0  0  0  0
  5  7  1  0  0  0  0
  2  3  1  0  0  0  0
  2  4  1  0  0  0  0
  2  5  1  0  0  0  0
  1  2  1  0  0  0  0
 22 23  2  0  0  0  0
 22 24  1  0  0  0  0
 20 21  1  0  0  0  0
 18 19  1  0  0  0  0
 18 20  1  0  0  0  0
 16 17  1  0  0  0  0
 16 18  1  0  0  0  0
 15 16  2  0  0  0  0
 14 15  1  0  0  0  0
 14 20  2  0  0  0  0
 11 12  1  0  0  0  0
 11 13  1  0  0  0  0
 11 14  1  0  0  0  0
  9 10  1  0  0  0  0
  9 11  1  0  0  0  0
  9 22  1  0  0  0  0
  7  8  1  0  0  0  0
  7  9  1  0  0  0  0
 26 27  1  0  0  0  0
 26 28  1  0  0  0  0
 26 29  1  0  0  0  0
 24 25  1  0  0  0  0
 24 26  1  0  0  0  0
M  END
$$$$
default_name
  -OEChem-02102213163D

 29 29  0     1  0  0  0  0  0999 V2000
   -2.9561   -3.9186    1.3887 H   0  0  0  0  0  0  0  0  0  0  0  0
   -3.1191   -2.9346    0.9517 C   0  0  0  0  0  0  0  0  0  0  0  0
   -3.7811   -2.3546    1.5917 H   0  0  0  0  0  0  0  0  0  0  0  0
   -3.5591   -3.0406   -0.0383 H   0  0  0  0  0  0  0  0  0  0  0  0
   -1.7921   -2.2226    0.8327 C   0  0  0  0  0  0  0  0  0  0  0  0
   -0.7611   -2.7766    1.1927 O   0  0  0  0  0  0  0  0  0  0  0  0
   -1.8201   -0.9926    0.3247 N   0  0  0  0  0  0  0  0  0  0  0  0
   -2.7141   -0.5816    0.0927 H   0  0  0  0  0  0  0  0  0  0  0  0
   -0.6481   -0.1156    0.2017 C   0  0  1  0  0  0  0  0  0  0  0  0
    0.1042   -0.6345   -0.3958 H   0  0  0  0  0  0  0  0  0  0  0  0
   -1.0420    1.1781   -0.5372 C   0  0  0  0  0  0  0  0  0  0  0  0
   -0.1737    1.8330   -0.6235 H   0  0  0  0  0  0  0  0  0  0  0  0
   -1.3745    0.9390   -1.5483 H   0  0  0  0  0  0  0  0  0  0  0  0
   -2.1213    1.9557    0.1759 C   0  0  0  0  0  0  0  0  0  0  0  0
   -2.5279    1.7663    1.4973 N   0  0  0  0  0  0  0  0  0  0  0  0
   -3.4670    2.6945    1.7314 C   0  0  0  0  0  0  0  0  0  0  0  0
   -3.9957    2.8080    2.6694 H   0  0  0  0  0  0  0  0  0  0  0  0
   -3.6486    3.4630    0.6443 N   0  0  0  0  0  0  0  0  0  0  0  0
   -4.2880    4.2431    0.5780 H   0  0  0  0  0  0  0  0  0  0  0  0
   -2.8046    3.0144   -0.3471 C   0  0  0  0  0  0  0  0  0  0  0  0
   -2.6786    3.4215   -1.3425 H   0  0  0  0  0  0  0  0  0  0  0  0
   -0.0283    0.1609    1.5831 C   0  0  0  0  0  0  0  0  0  0  0  0
    1.1923    0.1056    1.7329 O   0  0  0  0  0  0  0  0  0  0  0  0
   -0.8586    0.4659    2.5853 N   0  0  0  0  0  0  0  0  0  0  0  0
   -1.8521    0.3848    2.4000 H   0  0  0  0  0  0  0  0  0  0  0  0
   -0.4403    0.7694    3.9518 C   0  0  0  0  0  0  0  0  0  0  0  0
    0.5066    1.3154    3.9421 H   0  0  0  0  0  0  0  0  0  0  0  0
   -1.1988    1.3789    4.4452 H   0  0  0  0  0  0  0  0  0  0  0  0
   -0.3053   -0.1600    4.5075 H   0  0  0  0  0  0  0  0  0  0  0  0
  5  6  2  0  0  0  0
  5  7  1  0  0  0  0
  2  3  1  0  0  0  0
  2  4  1  0  0  0  0
  2  5  1  0  0  0  0
  1  2  1  0  0  0  0
 22 23  2  0  0  0  0
 22 24  1  0  0  0  0
 20 21  1  0  0  0  0
 18 19  1  0  0  0  0
 18 20  1  0  0  0  0
 16 17  1  0  0  0  0
 16 18  1  0  0  0  0
 15 16  2  0  0  0  0
 14 15  1  0  0  0  0
 14 20  2  0  0  0  0
 11 12  1  0  0  0  0
 11 13  1  0  0  0  0
 11 14  1  0  0  0  0
  9 10  1  0  0  0  0
  9 11  1  0  0  0  0
  9 22  1  0  0  0  0
  7  8  1  0  0  0  0
  7  9  1  0  0  0  0
 26 27  1  0  0  0  0
 26 28  1  0  0  0  0
 26 29  1  0  0  0  0
 24 25  1  0  0  0  0
 24 26  1  0  0  0  0
M  END
$$$$
default_name
  -OEChem-02102213163D

 29 29  0     1  0  0  0  0  0999 V2000
   -2.9561   -3.9186    1.3887 H   0  0  0  0  0  0  0  0  0  0  0  0
   -3.1191   -2.9346    0.9517 C   0  0  0  0  0  0  0  0  0  0  0  0
   -3.7811   -2.3546    1.5917 H   0  0  0  0  0  0  0  0  0  0  0  0
   -3.5591   -3.0406   -0.0383 H   0  0  0  0  0  0  0  0  0  0  0  0
   -1.7921   -2.2226    0.8327 C   0  0  0  0  0  0  0  0  0  0  0  0
   -0.7611   -2.7766    1.1927 O   0  0  0  0  0  0  0  0  0  0  0  0
   -1.8201   -0.9926    0.3247 N   0  0  0  0  0  0  0  0  0  0  0  0
   -2.7141   -0.5816    0.0927 H   0  0  0  0  0  0  0  0  0  0  0  0
   -0.6481   -0.1156    0.2017 C   0  0  1  0  0  0  0  0  0  0  0  0
    0.1042   -0.6345   -0.3958 H   0  0  0  0  0  0  0  0  0  0  0  0
   -1.0420    1.1781   -0.5372 C   0  0  0  0  0  0  0  0  0  0  0  0
   -0.1737    1.8330   -0.6235 H   0  0  0  0  0  0  0  0  0  0  0  0
   -1.3745    0.9390   -1.5483 H   0  0  0  0  0  0  0  0  0  0  0  0
   -2.1213    1.9557    0.1759 C   0  0  0  0  0  0  0  0  0  0  0  0
   -2.3346    1.9819    1.5547 N   0  0  0  0  0  0  0  0  0  0  0  0
   -3.3547    2.8291    1.7546 C   0  0  0  0  0  0  0  0  0  0  0  0
   -3.7756    3.0632    2.7243 H   0  0  0  0  0  0  0  0  0  0  0  0
   -3.7693    3.3482    0.5867 N   0  0  0  0  0  0  0  0  0  0  0  0
   -4.5114    4.0259    0.4769 H   0  0  0  0  0  0  0  0  0  0  0  0
   -2.9997    2.8117   -0.4215 C   0  0  0  0  0  0  0  0  0  0  0  0
   -3.0519    3.0300   -1.4807 H   0  0  0  0  0  0  0  0  0  0  0  0
   -0.0283    0.1609    1.5831 C   0  0  0  0  0  0  0  0  0  0  0  0
    1.1923    0.1056    1.7329 O   0  0  0  0  0  0  0  0  0  0  0  0
   -0.8586    0.4659    2.5853 N   0  0  0  0  0  0  0  0  0  0  0  0
   -1.8521    0.3848    2.4000 H   0  0  0  0  0  0  0  0  0  0  0  0
   -0.4403    0.7694    3.9518 C   0  0  0  0  0  0  0  0  0  0  0  0
    0.5066    1.3154    3.9421 H   0  0  0  0  0  0  0  0  0  0  0  0
   -1.1988    1.3789    4.4452 H   0  0  0  0  0  0  0  0  0  0  0  0
   -0.3053   -0.1600    4.5075 H   0  0  0  0  0  0  0  0  0  0  0  0
  5  6  2  0  0  0  0
  5  7  1  0  0  0  0
  2  3  1  0  0  0  0
  2  4  1  0  0  0  0
  2  5  1  0  0  0  0
  1  2  1  0  0  0  0
 22 23  2  0  0  0  0
 22 24  1  0  0  0  0
 20 21  1  0  0  0  0
 18 19  1  0  0  0  0
 18 20  1  0  0  0  0
 16 17  1  0  0  0  0
 16 18  1  0  0  0  0
 15 16  2  0  0  0  0
 14 15  1  0  0  0  0
 14 20  2  0  0  0  0
 11 12  1  0  0  0  0
 11 13  1  0  0  0  0
 11 14  1  0  0  0  0
  9 10  1  0  0  0  0
  9 11  1  0  0  0  0
  9 22  1  0  0  0  0
  7  8  1  0  0  0  0
  7  9  1  0  0  0  0
 26 27  1  0  0  0  0
 26 28  1  0  0  0  0
 26 29  1  0  0  0  0
 24 25  1  0  0  0  0
 24 26  1  0  0  0  0
M  END
$$$$
default_name
  -OEChem-02102213163D

 29 29  0     1  0  0  0  0  0999 V2000
   -2.9561   -3.9186    1.3887 H   0  0  0  0  0  0  0  0  0  0  0  0
   -3.1191   -2.9346    0.9517 C   0  0  0  0  0  0  0  0  0  0  0  0
   -3.7811   -2.3546    1.5917 H   0  0  0  0  0  0  0  0  0  0  0  0
   -3.5591   -3.0406   -0.0383 H   0  0  0  0  0  0  0  0  0  0  0  0
   -1.7921   -2.2226    0.8327 C   0  0  0  0  0  0  0  0  0  0  0  0
   -0.7611   -2.7766    1.1927 O   0  0  0  0  0  0  0  0  0  0  0  0
   -1.8201   -0.9926    0.3247 N   0  0  0  0  0  0  0  0  0  0  0  0
   -2.7141   -0.5816    0.0927 H   0  0  0  0  0  0  0  0  0  0  0  0
   -0.6481   -0.1156    0.2017 C   0  0  1  0  0  0  0  0  0  0  0  0
    0.1042   -0.6345   -0.3958 H   0  0  0  0  0  0  0  0  0  0  0  0
   -1.0420    1.1781   -0.5372 C   0  0  0  0  0  0  0  0  0  0  0  0
   -0.1737    1.8330   -0.6235 H   0  0  0  0  0  0  0  0  0  0  0  0
   -1.3745    0.9390   -1.5483 H   0  0  0  0  0  0  0  0  0  0  0  0
   -2.1213    1.9557    0.1759 C   0  0  0  0  0  0  0  0  0  0  0  0
   -2.1666    2.2245    1.5445 N   0  0  0  0  0  0  0  0  0  0  0  0
   -3.2596    2.9771    1.7371 C   0  0  0  0  0  0  0  0  0  0  0  0
   -3.5870    3.3467    2.7007 H   0  0  0  0  0  0  0  0  0  0  0  0
   -3.8796    3.2120    0.5684 N   0  0  0  0  0  0  0  0  0  0  0  0
   -4.7140    3.7700    0.4492 H   0  0  0  0  0  0  0  0  0  0  0  0
   -3.1733    2.5784   -0.4297 C   0  0  0  0  0  0  0  0  0  0  0  0
   -3.3831    2.5807   -1.4920 H   0  0  0  0  0  0  0  0  0  0  0  0
   -0.0283    0.1609    1.5831 C   0  0  0  0  0  0  0  0  0  0  0  0
    1.1923    0.1056    1.7329 O   0  0  0  0  0  0  0  0  0  0  0  0
   -0.8586    0.4659    2.5853 N   0  0  0  0  0  0  0  0  0  0  0  0
   -1.8521    0.3848    2.4000 H   0  0  0  0  0  0  0  0  0  0  0  0
   -0.4403    0.7694    3.9518 C   0  0  0  0  0  0  0  0  0  0  0  0
    0.5066    1.3154    3.9421 H   0  0  0  0  0  0  0  0  0  0  0  0
   -1.1988    1.3789    4.4452 H   0  0  0  0  0  0  0  0  0  0  0  0
   -0.3053   -0.1600    4.5075 H   0  0  0  0  0  0  0  0  0  0  0  0
  5  6  2  0  0  0  0
  5  7  1  0  0  0  0
  2  3  1  0  0  0  0
  2  4  1  0  0  0  0
  2  5  1  0  0  0  0
  1  2  1  0  0  0  0
 22 23  2  0  0  0  0
 22 24  1  0  0  0  0
 20 21  1  0  0  0  0
 18 19  1  0  0  0  0
 18 20  1  0  0  0  0
 16 17  1  0  0  0  0
 16 18  1  0  0  0  0
 15 16  2  0  0  0  0
 14 15  1  0  0  0  0
 14 20  2  0  0  0  0
 11 12  1  0  0  0  0
 11 13  1  0  0  0  0
 11 14  1  0  0  0  0
  9 10  1  0  0  0  0
  9 11  1  0  0  0  0
  9 22  1  0  0  0  0
  7  8  1  0  0  0  0
  7  9  1  0  0  0  0
 26 27  1  0  0  0  0
 26 28  1  0  0  0  0
 26 29  1  0  0  0  0
 24 25  1  0  0  0  0
 24 26  1  0  0  0  0
M  END
$$$$
default_name
  -OEChem-02102213163D

 29 29  0     1  0  0  0  0  0999 V2000
   -2.9561   -3.9186    1.3887 H   0  0  0  0  0  0  0  0  0  0  0  0
   -3.1191   -2.9346    0.9517 C   0  0  0  0  0  0  0  0  0  0  0  0
   -3.7811   -2.3546    1.5917 H   0  0  0  0  0  0  0  0  0  0  0  0
   -3.5591   -3.0406   -0.0383 H   0  0  0  0  0  0  0  0  0  0  0  0
   -1.7921   -2.2226    0.8327 C   0  0  0  0  0  0  0  0  0  0  0  0
   -0.7611   -2.7766    1.1927 O   0  0  0  0  0  0  0  0  0  0  0  0
   -1.8201   -0.9926    0.3247 N   0  0  0  0  0  0  0  0  0  0  0  0
   -2.7141   -0.5816    0.0927 H   0  0  0  0  0  0  0  0  0  0  0  0
   -0.6481   -0.1156    0.2017 C   0  0  1  0  0  0  0  0  0  0  0  0
    0.1042   -0.6345   -0.3958 H   0  0  0  0  0  0  0  0  0  0  0  0
   -1.0420    1.1781   -0.5372 C   0  0  0  0  0  0  0  0  0  0  0  0
   -0.1737    1.8330   -0.6235 H   0  0  0  0  0  0  0  0  0  0  0  0
   -1.3745    0.9390   -1.5483 H   0  0  0  0  0  0  0  0  0  0  0  0
   -2.1213    1.9557    0.1759 C   0  0  0  0  0  0  0  0  0  0  0  0
   -2.0353    2.4774    1.4673 N   0  0  0  0  0  0  0  0  0  0  0  0
   -3.1882    3.1285    1.6801 C   0  0  0  0  0  0  0  0  0  0  0  0
   -3.4425    3.6392    2.6003 H   0  0  0  0  0  0  0  0  0  0  0  0
   -3.9719    3.0635    0.5906 N   0  0  0  0  0  0  0  0  0  0  0  0
   -4.8822    3.4929    0.4968 H   0  0  0  0  0  0  0  0  0  0  0  0
   -3.3135    2.3303   -0.3714 C   0  0  0  0  0  0  0  0  0  0  0  0
   -3.6496    2.1041   -1.3755 H   0  0  0  0  0  0  0  0  0  0  0  0
   -0.0283    0.1609    1.5831 C   0  0  0  0  0  0  0  0  0  0  0  0
    1.1923    0.1056    1.7329 O   0  0  0  0  0  0  0  0  0  0  0  0
   -0.8586    0.4659    2.5853 N   0  0  0  0  0  0  0  0  0  0  0  0
   -1.8521    0.3848    2.4000 H   0  0  0  0  0  0  0  0  0  0  0  0
   -0.4403    0.7694    3.9518 C   0  0  0  0  0  0  0  0  0  0  0  0
    0.5066    1.3154    3.9421 H   0  0  0  0  0  0  0  0  0  0  0  0
   -1.1988    1.3789    4.4452 H   0  0  0  0  0  0  0  0  0  0  0  0
   -0.3053   -0.1600    4.5075 H   0  0  0  0  0  0  0  0  0  0  0  0
  5  6  2  0  0  0  0
  5  7  1  0  0  0  0
  2  3  1  0  0  0  0
  2  4  1  0  0  0  0
  2  5  1  0  0  0  0
  1  2  1  0  0  0  0
 22 23  2  0  0  0  0
 22 24  1  0  0  0  0
 20 21  1  0  0  0  0
 18 19  1  0  0  0  0
 18 20  1  0  0  0  0
 16 17  1  0  0  0  0
 16 18  1  0  0  0  0
 15 16  2  0  0  0  0
 14 15  1  0  0  0  0
 14 20  2  0  0  0  0
 11 12  1  0  0  0  0
 11 13  1  0  0  0  0
 11 14  1  0  0  0  0
  9 10  1  0  0  0  0
  9 11  1  0  0  0  0
  9 22  1  0  0  0  0
  7  8  1  0  0  0  0
  7  9  1  0  0  0  0
 26 27  1  0  0  0  0
 26 28  1  0  0  0  0
 26 29  1  0  0  0  0
 24 25  1  0  0  0  0
 24 26  1  0  0  0  0
M  END
$$$$
default_name
  -OEChem-02102213163D

 29 29  0     1  0  0  0  0  0999 V2000
   -2.9561   -3.9186    1.3887 H   0  0  0  0  0  0  0  0  0  0  0  0
   -3.1191   -2.9346    0.9517 C   0  0  0  0  0  0  0  0  0  0  0  0
   -3.7811   -2.3546    1.5917 H   0  0  0  0  0  0  0  0  0  0  0  0
   -3.5591   -3.0406   -0.0383 H   0  0  0  0  0  0  0  0  0  0  0  0
   -1.7921   -2.2226    0.8327 C   0  0  0  0  0  0  0  0  0  0  0  0
   -0.7611   -2.7766    1.1927 O   0  0  0  0  0  0  0  0  0  0  0  0
   -1.8201   -0.9926    0.3247 N   0  0  0  0  0  0  0  0  0  0  0  0
   -2.7141   -0.5816    0.0927 H   0  0  0  0  0  0  0  0  0  0  0  0
   -0.6481   -0.1156    0.2017 C   0  0  1  0  0  0  0  0  0  0  0  0
    0.1042   -0.6345   -0.3958 H   0  0  0  0  0  0  0  0  0  0  0  0
   -1.0420    1.1781   -0.5372 C   0  0  0  0  0  0  0  0  0  0  0  0
   -0.1737    1.8330   -0.6235 H   0  0  0  0  0  0  0  0  0  0  0  0
   -1.3745    0.9390   -1.5483 H   0  0  0  0  0  0  0  0  0  0  0  0
   -2.1213    1.9557    0.1759 C   0  0  0  0  0  0  0  0  0  0  0  0
   -1.9498    2.7235    1.3285 N   0  0  0  0  0  0  0  0  0  0  0  0
   -3.1453    3.2729    1.5875 C   0  0  0  0  0  0  0  0  0  0  0  0
   -3.3522    3.9209    2.4299 H   0  0  0  0  0  0  0  0  0  0  0  0
   -4.0399    2.9129    0.6519 N   0  0  0  0  0  0  0  0  0  0  0  0
   -5.0044    3.2135    0.6165 H   0  0  0  0  0  0  0  0  0  0  0  0
   -3.4108    2.0842   -0.2504 C   0  0  0  0  0  0  0  0  0  0  0  0
   -3.8332    1.6327   -1.1393 H   0  0  0  0  0  0  0  0  0  0  0  0
   -0.0283    0.1609    1.5831 C   0  0  0  0  0  0  0  0  0  0  0  0
    1.1923    0.1056    1.7329 O   0  0  0  0  0  0  0  0  0  0  0  0
   -0.8586    0.4659    2.5853 N   0  0  0  0  0  0  0  0  0  0  0  0
   -1.8521    0.3848    2.4000 H   0  0  0  0  0  0  0  0  0  0  0  0
   -0.4403    0.7694    3.9518 C   0  0  0  0  0  0  0  0  0  0  0  0
    0.5066    1.3154    3.9421 H   0  0  0  0  0  0  0  0  0  0  0  0
   -1.1988    1.3789    4.4452 H   0  0  0  0  0  0  0  0  0  0  0  0
   -0.3053   -0.1600    4.5075 H   0  0  0  0  0  0  0  0  0  0  0  0
  5  6  2  0  0  0  0
  5  7  1  0  0  0  0
  2  3  1  0  0  0  0
  2  4  1  0  0  0  0
  2  5  1  0  0  0  0
  1  2  1  0  0  0  0
 22 23  2  0  0  0  0
 22 24  1  0  0  0  0
 20 21  1  0  0  0  0
 18 19  1  0  0  0  0
 18 20  1  0  0  0  0
 16 17  1  0  0  0  0
 16 18  1  0  0  0  0
 15 16  2  0  0  0  0
 14 15  1  0  0  0  0
 14 20  2  0  0  0  0
 11 12  1  0  0  0  0
 11 13  1  0  0  0  0
 11 14  1  0  0  0  0
  9 10  1  0  0  0  0
  9 11  1  0  0  0  0
  9 22  1  0  0  0  0
  7  8  1  0  0  0  0
  7  9  1  0  0  0  0
 26 27  1  0  0  0  0
 26 28  1  0  0  0  0
 26 29  1  0  0  0  0
 24 25  1  0  0  0  0
 24 26  1  0  0  0  0
M  END
$$$$
default_name
  -OEChem-02102213163D

 29 29  0     1  0  0  0  0  0999 V2000
   -2.9561   -3.9186    1.3887 H   0  0  0  0  0  0  0  0  0  0  0  0
   -3.1191   -2.9346    0.9517 C   0  0  0  0  0  0  0  0  0  0  0  0
   -3.7811   -2.3546    1.5917 H   0  0  0  0  0  0  0  0  0  0  0  0
   -3.5591   -3.0406   -0.0383 H   0  0  0  0  0  0  0  0  0  0  0  0
   -1.7921   -2.2226    0.8327 C   0  0  0  0  0  0  0  0  0  0  0  0
   -0.7611   -2.7766    1.1927 O   0  0  0  0  0  0  0  0  0  0  0  0
   -1.8201   -0.9926    0.3247 N   0  0  0  0  0  0  0  0  0  0  0  0
   -2.7141   -0.5816    0.0927 H   0  0  0  0  0  0  0  0  0  0  0  0
   -0.6481   -0.1156    0.2017 C   0  0  1  0  0  0  0  0  0  0  0  0
    0.1042   -0.6345   -0.3958 H   0  0  0  0  0  0  0  0  0  0  0  0
   -1.0420    1.1781   -0.5372 C   0  0  0  0  0  0  0  0  0  0  0  0
   -0.1737    1.8330   -0.6235 H   0  0  0  0  0  0  0  0  0  0  0  0
   -1.3745    0.9390   -1.5483 H   0  0  0  0  0  0  0  0  0  0  0  0
   -2.1213    1.9557    0.1759 C   0  0  0  0  0  0  0  0  0  0  0  0
   -1.9157    2.9460    1.1374 N   0  0  0  0  0  0  0  0  0  0  0  0
   -3.1339    3.4006    1.4656 C   0  0  0  0  0  0  0  0  0  0  0  0
   -3.3221    4.1725    2.2011 H   0  0  0  0  0  0  0  0  0  0  0  0
   -4.0791    2.7704    0.7480 N   0  0  0  0  0  0  0  0  0  0  0  0
   -5.0723    2.9508    0.8001 H   0  0  0  0  0  0  0  0  0  0  0  0
   -3.4586    1.8571   -0.0751 C   0  0  0  0  0  0  0  0  0  0  0  0
   -3.9213    1.1986   -0.7994 H   0  0  0  0  0  0  0  0  0  0  0  0
   -0.0283    0.1609    1.5831 C   0  0  0  0  0  0  0  0  0  0  0  0
    1.1923    0.1056    1.7329 O   0  0  0  0  0  0  0  0  0  0  0  0
   -0.8586    0.4659    2.5853 N   0  0  0  0  0  0  0  0  0  0  0  0
   -1.8521    0.3848    2.4000 H   0  0  0  0  0  0  0  0  0  0  0  0
   -0.4403    0.7694    3.9518 C   0  0  0  0  0  0  0  0  0  0  0  0
    0.5066    1.3154    3.9421 H   0  0  0  0  0  0  0  0  0  0  0  0
   -1.1988    1.3789    4.4452 H   0  0  0  0  0  0  0  0  0  0  0  0
   -0.3053   -0.1600    4.5075 H   0  0  0  0  0  0  0  0  0  0  0  0
  5  6  2  0  0  0  0
  5  7  1  0  0  0  0
  2  3  1  0  0  0  0
  2  4  1  0  0  0  0
  2  5  1  0  0  0  0
  1  2  1  0  0  0  0
 22 23  2  0  0  0  0
 22 24  1  0  0  0  0
 20 21  1  0  0  0  0
 18 19  1  0  0  0  0
 18 20  1  0  0  0  0
 16 17  1  0  0  0  0
 16 18  1  0  0  0  0
 15 16  2  0  0  0  0
 14 15  1  0  0  0  0
 14 20  2  0  0  0  0
 11 12  1  0  0  0  0
 11 13  1  0  0  0  0
 11 14  1  0  0  0  0
  9 10  1  0  0  0  0
  9 11  1  0  0  0  0
  9 22  1  0  0  0  0
  7  8  1  0  0  0  0
  7  9  1  0  0  0  0
 26 27  1  0  0  0  0
 26 28  1  0  0  0  0
 26 29  1  0  0  0  0
 24 25  1  0  0  0  0
 24 26  1  0  0  0  0
M  END
$$$$
default_name
  -OEChem-02102213163D

 29 29  0     1  0  0  0  0  0999 V2000
   -2.9561   -3.9186    1.3887 H   0  0  0  0  0  0  0  0  0  0  0  0
   -3.1191   -2.9346    0.9517 C   0  0  0  0  0  0  0  0  0  0  0  0
   -3.7811   -2.3546    1.5917 H   0  0  0  0  0  0  0  0  0  0  0  0
   -3.5591   -3.0406   -0.0383 H   0  0  0  0  0  0  0  0  0  0  0  0
   -1.7921   -2.2226    0.8327 C   0  0  0  0  0  0  0  0  0  0  0  0
   -0.7611   -2.7766    1.1927 O   0  0  0  0  0  0  0  0  0  0  0  0
   -1.8201   -0.9926    0.3247 N   0  0  0  0  0  0  0  0  0  0  0  0
   -2.7141   -0.5816    0.0927 H   0  0  0  0  0  0  0  0  0  0  0  0
   -0.6481   -0.1156    0.2017 C   0  0  1  0  0  0  0  0  0  0  0  0
    0.1042   -0.6345   -0.3958 H   0  0  0  0  0  0  0  0  0  0  0  0
   -1.0420    1.1781   -0.5372 C   0  0  0  0  0  0  0  0  0  0  0  0
   -0.1737    1.8330   -0.6235 H   0  0  0  0  0  0  0  0  0  0  0  0
   -1.3745    0.9390   -1.5483 H   0  0  0  0  0  0  0  0  0  0  0  0
   -2.1213    1.9557    0.1759 C   0  0  0  0  0  0  0  0  0  0  0  0
   -1.9356    3.1297    0.9071 N   0  0  0  0  0  0  0  0  0  0  0  0
   -3.1548    3.5027    1.3228 C   0  0  0  0  0  0  0  0  0  0  0  0
   -3.3542    4.3769    1.9296 H   0  0  0  0  0  0  0  0  0  0  0  0
   -4.0866    2.6458    0.8725 N   0  0  0  0  0  0  0  0  0  0  0  0
   -5.0813    2.7228    1.0352 H   0  0  0  0  0  0  0  0  0  0  0  0
   -3.4536    1.6643    0.1427 C   0  0  0  0  0  0  0  0  0  0  0  0
   -3.9081    0.8314   -0.3790 H   0  0  0  0  0  0  0  0  0  0  0  0
   -0.0283    0.1609    1.5831 C   0  0  0  0  0  0  0  0  0  0  0  0
    1.1923    0.1056    1.7329 O   0  0  0  0  0  0  0  0  0  0  0  0
   -0.8586    0.4659    2.5853 N   0  0  0  0  0  0  0  0  0  0  0  0
   -1.8521    0.3848    2.4000 H   0  0  0  0  0  0  0  0  0  0  0  0
   -0.4403    0.7694    3.9518 C   0  0  0  0  0  0  0  0  0  0  0  0
    0.5066    1.3154    3.9421 H   0  0  0  0  0  0  0  0  0  0  0  0
   -1.1988    1.3789    4.4452 H   0  0  0  0  0  0  0  0  0  0  0  0
   -0.3053   -0.1600    4.5075 H   0  0  0  0  0  0  0  0  0  0  0  0
  5  6  2  0  0  0  0
  5  7  1  0  0  0  0
  2  3  1  0  0  0  0
  2  4  1  0  0  0  0
  2  5  1  0  0  0  0
  1  2  1  0  0  0  0
 22 23  2  0  0  0  0
 22 24  1  0  0  0  0
 20 21  1  0  0  0  0
 18 19  1  0  0  0  0
 18 20  1  0  0  0  0
 16 17  1  0  0  0  0
 16 18  1  0  0  0  0
 15 16  2  0  0  0  0
 14 15  1  0  0  0  0
 14 20  2  0  0  0  0
 11 12  1  0  0  0  0
 11 13  1  0  0  0  0
 11 14  1  0  0  0  0
  9 10  1  0  0  0  0
  9 11  1  0  0  0  0
  9 22  1  0  0  0  0
  7  8  1  0  0  0  0
  7  9  1  0  0  0  0
 26 27  1  0  0  0  0
 26 28  1  0  0  0  0
 26 29  1  0  0  0  0
 24 25  1  0  0  0  0
 24 26  1  0  0  0  0
M  END
$$$$
default_name
  -OEChem-02102213163D

 29 29  0     1  0  0  0  0  0999 V2000
   -2.9561   -3.9186    1.3887 H   0  0  0  0  0  0  0  0  0  0  0  0
   -3.1191   -2.9346    0.9517 C   0  0  0  0  0  0  0  0  0  0  0  0
   -3.7811   -2.3546    1.5917 H   0  0  0  0  0  0  0  0  0  0  0  0
   -3.5591   -3.0406   -0.0383 H   0  0  0  0  0  0  0  0  0  0  0  0
   -1.7921   -2.2226    0.8327 C   0  0  0  0  0  0  0  0  0  0  0  0
   -0.7611   -2.7766    1.1927 O   0  0  0  0  0  0  0  0  0  0  0  0
   -1.8201   -0.9926    0.3247 N   0  0  0  0  0  0  0  0  0  0  0  0
   -2.7141   -0.5816    0.0927 H   0  0  0  0  0  0  0  0  0  0  0  0
   -0.6481   -0.1156    0.2017 C   0  0  1  0  0  0  0  0  0  0  0  0
    0.1042   -0.6345   -0.3958 H   0  0  0  0  0  0  0  0  0  0  0  0
   -1.0420    1.1781   -0.5372 C   0  0  0  0  0  0  0  0  0  0  0  0
   -0.1737    1.8330   -0.6235 H   0  0  0  0  0  0  0  0  0  0  0  0
   -1.3745    0.9390   -1.5483 H   0  0  0  0  0  0  0  0  0  0  0  0
   -2.1213    1.9557    0.1759 C   0  0  0  0  0  0  0  0  0  0  0  0
   -2.0079    3.2621    0.6533 N   0  0  0  0  0  0  0  0  0  0  0  0
   -3.2064    3.5723    1.1686 C   0  0  0  0  0  0  0  0  0  0  0  0
   -3.4465    4.5201    1.6338 H   0  0  0  0  0  0  0  0  0  0  0  0
   -4.0621    2.5476    1.0167 N   0  0  0  0  0  0  0  0  0  0  0  0
   -5.0308    2.5449    1.3056 H   0  0  0  0  0  0  0  0  0  0  0  0
   -3.3962    1.5189    0.3882 C   0  0  0  0  0  0  0  0  0  0  0  0
   -3.7943    0.5562    0.0933 H   0  0  0  0  0  0  0  0  0  0  0  0
   -0.0283    0.1609    1.5831 C   0  0  0  0  0  0  0  0  0  0  0  0
    1.1923    0.1056    1.7329 O   0  0  0  0  0  0  0  0  0  0  0  0
   -0.8586    0.4659    2.5853 N   0  0  0  0  0  0  0  0  0  0  0  0
   -1.8521    0.3848    2.4000 H   0  0  0  0  0  0  0  0  0  0  0  0
   -0.4403    0.7694    3.9518 C   0  0  0  0  0  0  0  0  0  0  0  0
    0.5066    1.3154    3.9421 H   0  0  0  0  0  0  0  0  0  0  0  0
   -1.1988    1.3789    4.4452 H   0  0  0  0  0  0  0  0  0  0  0  0
   -0.3053   -0.1600    4.5075 H   0  0  0  0  0  0  0  0  0  0  0  0
  5  6  2  0  0  0  0
  5  7  1  0  0  0  0
  2  3  1  0  0  0  0
  2  4  1  0  0  0  0
  2  5  1  0  0  0  0
  1  2  1  0  0  0  0
 22 23  2  0  0  0  0
 22 24  1  0  0  0  0
 20 21  1  0  0  0  0
 18 19  1  0  0  0  0
 18 20  1  0  0  0  0
 16 17  1  0  0  0  0
 16 18  1  0  0  0  0
 15 16  2  0  0  0  0
 14 15  1  0  0  0  0
 14 20  2  0  0  0  0
 11 12  1  0  0  0  0
 11 13  1  0  0  0  0
 11 14  1  0  0  0  0
  9 10  1  0  0  0  0
  9 11  1  0  0  0  0
  9 22  1  0  0  0  0
  7  8  1  0  0  0  0
  7  9  1  0  0  0  0
 26 27  1  0  0  0  0
 26 28  1  0  0  0  0
 26 29  1  0  0  0  0
 24 25  1  0  0  0  0
 24 26  1  0  0  0  0
M  END
$$$$
default_name
  -OEChem-02102213163D

 29 29  0     1  0  0  0  0  0999 V2000
   -2.9561   -3.9186    1.3887 H   0  0  0  0  0  0  0  0  0  0  0  0
   -3.1191   -2.9346    0.9517 C   0  0  0  0  0  0  0  0  0  0  0  0
   -3.7811   -2.3546    1.5917 H   0  0  0  0  0  0  0  0  0  0  0  0
   -3.5591   -3.0406   -0.0383 H   0  0  0  0  0  0  0  0  0  0  0  0
   -1.7921   -2.2226    0.8327 C   0  0  0  0  0  0  0  0  0  0  0  0
   -0.7611   -2.7766    1.1927 O   0  0  0  0  0  0  0  0  0  0  0  0
   -1.8201   -0.9926    0.3247 N   0  0  0  0  0  0  0  0  0  0  0  0
   -2.7141   -0.5816    0.0927 H   0  0  0  0  0  0  0  0  0  0  0  0
   -0.6481   -0.1156    0.2017 C   0  0  1  0  0  0  0  0  0  0  0  0
    0.1042   -0.6345   -0.3958 H   0  0  0  0  0  0  0  0  0  0  0  0
   -1.0420    1.1781   -0.5372 C   0  0  0  0  0  0  0  0  0  0  0  0
   -0.1737    1.8330   -0.6235 H   0  0  0  0  0  0  0  0  0  0  0  0
   -1.3745    0.9390   -1.5483 H   0  0  0  0  0  0  0  0  0  0  0  0
   -2.1213    1.9557    0.1759 C   0  0  0  0  0  0  0  0  0  0  0  0
   -2.1277    3.3342    0.3933 N   0  0  0  0  0  0  0  0  0  0  0  0
   -3.2854    3.6047    1.0138 C   0  0  0  0  0  0  0  0  0  0  0  0
   -3.5926    4.5924    1.3338 H   0  0  0  0  0  0  0  0  0  0  0  0
   -4.0071    2.4824    1.1710 N   0  0  0  0  0  0  0  0  0  0  0  0
   -4.9241    2.4293    1.5930 H   0  0  0  0  0  0  0  0  0  0  0  0
   -3.2902    1.4310    0.6444 C   0  0  0  0  0  0  0  0  0  0  0  0
   -3.5878    0.3916    0.5852 H   0  0  0  0  0  0  0  0  0  0  0  0
   -0.0283    0.1609    1.5831 C   0  0  0  0  0  0  0  0  0  0  0  0
    1.1923    0.1056    1.7329 O   0  0  0  0  0  0  0  0  0  0  0  0
   -0.8586    0.4659    2.5853 N   0  0  0  0  0  0  0  0  0  0  0  0
   -1.8521    0.3848    2.4000 H   0  0  0  0  0  0  0  0  0  0  0  0
   -0.4403    0.7694    3.9518 C   0  0  0  0  0  0  0  0  0  0  0  0
    0.5066    1.3154    3.9421 H   0  0  0  0  0  0  0  0  0  0  0  0
   -1.1988    1.3789    4.4452 H   0  0  0  0  0  0  0  0  0  0  0  0
   -0.3053   -0.1600    4.5075 H   0  0  0  0  0  0  0  0  0  0  0  0
  5  6  2  0  0  0  0
  5  7  1  0  0  0  0
  2  3  1  0  0  0  0
  2  4  1  0  0  0  0
  2  5  1  0  0  0  0
  1  2  1  0  0  0  0
 22 23  2  0  0  0  0
 22 24  1  0  0  0  0
 20 21  1  0  0  0  0
 18 19  1  0  0  0  0
 18 20  1  0  0  0  0
 16 17  1  0  0  0  0
 16 18  1  0  0  0  0
 15 16  2  0  0  0  0
 14 15  1  0  0  0  0
 14 20  2  0  0  0  0
 11 12  1  0  0  0  0
 11 13  1  0  0  0  0
 11 14  1  0  0  0  0
  9 10  1  0  0  0  0
  9 11  1  0  0  0  0
  9 22  1  0  0  0  0
  7  8  1  0  0  0  0
  7  9  1  0  0  0  0
 26 27  1  0  0  0  0
 26 28  1  0  0  0  0
 26 29  1  0  0  0  0
 24 25  1  0  0  0  0
 24 26  1  0  0  0  0
M  END
$$$$
default_name
  -OEChem-02102213163D

 29 29  0     1  0  0  0  0  0999 V2000
   -2.9561   -3.9186    1.3887 H   0  0  0  0  0  0  0  0  0  0  0  0
   -3.1191   -2.9346    0.9517 C   0  0  0  0  0  0  0  0  0  0  0  0
   -3.7811   -2.3546    1.5917 H   0  0  0  0  0  0  0  0  0  0  0  0
   -3.5591   -3.0406   -0.0383 H   0  0  0  0  0  0  0  0  0  0  0  0
   -1.7921   -2.2226    0.8327 C   0  0  0  0  0  0  0  0  0  0  0  0
   -0.7611   -2.7766    1.1927 O   0  0  0  0  0  0  0  0  0  0  0  0
   -1.8201   -0.9926    0.3247 N   0  0  0  0  0  0  0  0  0  0  0  0
   -2.7141   -0.5816    0.0927 H   0  0  0  0  0  0  0  0  0  0  0  0
   -0.6481   -0.1156    0.2017 C   0  0  1  0  0  0  0  0  0  0  0  0
    0.1042   -0.6345   -0.3958 H   0  0  0  0  0  0  0  0  0  0  0  0
   -1.0420    1.1781   -0.5372 C   0  0  0  0  0  0  0  0  0  0  0  0
   -0.1737    1.8330   -0.6235 H   0  0  0  0  0  0  0  0  0  0  0  0
   -1.3745    0.9390   -1.5483 H   0  0  0  0  0  0  0  0  0  0  0  0
   -2.1213    1.9557    0.1759 C   0  0  0  0  0  0  0  0  0  0  0  0
   -2.2870    3.3410    0.1448 N   0  0  0  0  0  0  0  0  0  0  0  0
   -3.3863    3.5977    0.8687 C   0  0  0  0  0  0  0  0  0  0  0  0
   -3.7826    4.5888    1.0502 H   0  0  0  0  0  0  0  0  0  0  0  0
   -3.9255    2.4546    1.3247 N   0  0  0  0  0  0  0  0  0  0  0  0
   -4.7687    2.3839    1.8778 H   0  0  0  0  0  0  0  0  0  0  0  0
   -3.1429    1.4065    0.8941 C   0  0  0  0  0  0  0  0  0  0  0  0
   -3.3026    0.3490    1.0633 H   0  0  0  0  0  0  0  0  0  0  0  0
   -0.0283    0.1609    1.5831 C   0  0  0  0  0  0  0  0  0  0  0  0
    1.1923    0.1056    1.7329 O   0  0  0  0  0  0  0  0  0  0  0  0
   -0.8586    0.4659    2.5853 N   0  0  0  0  0  0  0  0  0  0  0  0
   -1.8521    0.3848    2.4000 H   0  0  0  0  0  0  0  0  0  0  0  0
   -0.4403    0.7694    3.9518 C   0  0  0  0  0  0  0  0  0  0  0  0
    0.5066    1.3154    3.9421 H   0  0  0  0  0  0  0  0  0  0  0  0
   -1.1988    1.3789    4.4452 H   0  0  0  0  0  0  0  0  0  0  0  0
   -0.3053   -0.1600    4.5075 H   0  0  0  0  0  0  0  0  0  0  0  0
  5  6  2  0  0  0  0
  5  7  1  0  0  0  0
  2  3  1  0  0  0  0
  2  4  1  0  0  0  0
  2  5  1  0  0  0  0
  1  2  1  0  0  0  0
 22 23  2  0  0  0  0
 22 24  1  0  0  0  0
 20 21  1  0  0  0  0
 18 19  1  0  0  0  0
 18 20  1  0  0  0  0
 16 17  1  0  0  0  0
 16 18  1  0  0  0  0
 15 16  2  0  0  0  0
 14 15  1  0  0  0  0
 14 20  2  0  0  0  0
 11 12  1  0  0  0  0
 11 13  1  0  0  0  0
 11 14  1  0  0  0  0
  9 10  1  0  0  0  0
  9 11  1  0  0  0  0
  9 22  1  0  0  0  0
  7  8  1  0  0  0  0
  7  9  1  0  0  0  0
 26 27  1  0  0  0  0
 26 28  1  0  0  0  0
 26 29  1  0  0  0  0
 24 25  1  0  0  0  0
 24 26  1  0  0  0  0
M  END
$$$$
default_name
  -OEChem-02102213163D

 29 29  0     1  0  0  0  0  0999 V2000
   -2.9561   -3.9186    1.3887 H   0  0  0  0  0  0  0  0  0  0  0  0
   -3.1191   -2.9346    0.9517 C   0  0  0  0  0  0  0  0  0  0  0  0
   -3.7811   -2.3546    1.5917 H   0  0  0  0  0  0  0  0  0  0  0  0
   -3.5591   -3.0406   -0.0383 H   0  0  0  0  0  0  0  0  0  0  0  0
   -1.7921   -2.2226    0.8327 C   0  0  0  0  0  0  0  0  0  0  0  0
   -0.7611   -2.7766    1.1927 O   0  0  0  0  0  0  0  0  0  0  0  0
   -1.8201   -0.9926    0.3247 N   0  0  0  0  0  0  0  0  0  0  0  0
   -2.7141   -0.5816    0.0927 H   0  0  0  0  0  0  0  0  0  0  0  0
   -0.6481   -0.1156    0.2017 C   0  0  1  0  0  0  0  0  0  0  0  0
    0.1042   -0.6345   -0.3958 H   0  0  0  0  0  0  0  0  0  0  0  0
   -1.0420    1.1781   -0.5372 C   0  0  0  0  0  0  0  0  0  0  0  0
   -0.1737    1.8330   -0.6235 H   0  0  0  0  0  0  0  0  0  0  0  0
   -1.3745    0.9390   -1.5483 H   0  0  0  0  0  0  0  0  0  0  0  0
   -2.1213    1.9557    0.1759 C   0  0  0  0  0  0  0  0  0  0  0  0
   -2.4748    3.2821   -0.0752 N   0  0  0  0  0  0  0  0  0  0  0  0
   -3.5022    3.5518    0.7434 C   0  0  0  0  0  0  0  0  0  0  0  0
   -4.0035    4.5097    0.8022 H   0  0  0  0  0  0  0  0  0  0  0  0
   -3.8228    2.4663    1.4675 N   0  0  0  0  0  0  0  0  0  0  0  0
   -4.5750    2.4118    2.1405 H   0  0  0  0  0  0  0  0  0  0  0  0
   -2.9643    1.4470    1.1202 C   0  0  0  0  0  0  0  0  0  0  0  0
   -2.9582    0.4312    1.4950 H   0  0  0  0  0  0  0  0  0  0  0  0
   -0.0283    0.1609    1.5831 C   0  0  0  0  0  0  0  0  0  0  0  0
    1.1923    0.1056    1.7329 O   0  0  0  0  0  0  0  0  0  0  0  0
   -0.8586    0.4659    2.5853 N   0  0  0  0  0  0  0  0  0  0  0  0
   -1.8521    0.3848    2.4000 H   0  0  0  0  0  0  0  0  0  0  0  0
   -0.4403    0.7694    3.9518 C   0  0  0  0  0  0  0  0  0  0  0  0
    0.5066    1.3154    3.9421 H   0  0  0  0  0  0  0  0  0  0  0  0
   -1.1988    1.3789    4.4452 H   0  0  0  0  0  0  0  0  0  0  0  0
   -0.3053   -0.1600    4.5075 H   0  0  0  0  0  0  0  0  0  0  0  0
  5  6  2  0  0  0  0
  5  7  1  0  0  0  0
  2  3  1  0  0  0  0
  2  4  1  0  0  0  0
  2  5  1  0  0  0  0
  1  2  1  0  0  0  0
 22 23  2  0  0  0  0
 22 24  1  0  0  0  0
 20 21  1  0  0  0  0
 18 19  1  0  0  0  0
 18 20  1  0  0  0  0
 16 17  1  0  0  0  0
 16 18  1  0  0  0  0
 15 16  2  0  0  0  0
 14 15  1  0  0  0  0
 14 20  2  0  0  0  0
 11 12  1  0  0  0  0
 11 13  1  0  0  0  0
 11 14  1  0  0  0  0
  9 10  1  0  0  0  0
  9 11  1  0  0  0  0
  9 22  1  0  0  0  0
  7  8  1  0  0  0  0
  7  9  1  0  0  0  0
 26 27  1  0  0  0  0
 26 28  1  0  0  0  0
 26 29  1  0  0  0  0
 24 25  1  0  0  0  0
 24 26  1  0  0  0  0
M  END
$$$$
default_name
  -OEChem-02102213163D

 29 29  0     1  0  0  0  0  0999 V2000
   -2.9561   -3.9186    1.3887 H   0  0  0  0  0  0  0  0  0  0  0  0
   -3.1191   -2.9346    0.9517 C   0  0  0  0  0  0  0  0  0  0  0  0
   -3.7811   -2.3546    1.5917 H   0  0  0  0  0  0  0  0  0  0  0  0
   -3.5591   -3.0406   -0.0383 H   0  0  0  0  0  0  0  0  0  0  0  0
   -1.7921   -2.2226    0.8327 C   0  0  0  0  0  0  0  0  0  0  0  0
   -0.7611   -2.7766    1.1927 O   0  0  0  0  0  0  0  0  0  0  0  0
   -1.8201   -0.9926    0.3247 N   0  0  0  0  0  0  0  0  0  0  0  0
   -2.7141   -0.5816    0.0927 H   0  0  0  0  0  0  0  0  0  0  0  0
   -0.6481   -0.1156    0.2017 C   0  0  1  0  0  0  0  0  0  0  0  0
    0.1042   -0.6345   -0.3958 H   0  0  0  0  0  0  0  0  0  0  0  0
   -1.0420    1.1781   -0.5372 C   0  0  0  0  0  0  0  0  0  0  0  0
   -0.1440    1.7078   -0.8586 H   0  0  0  0  0  0  0  0  0  0  0  0
   -1.6158    0.9321   -1.4318 H   0  0  0  0  0  0  0  0  0  0  0  0
   -1.8382    2.1271    0.3251 C   0  0  0  0  0  0  0  0  0  0  0  0
   -2.3314    3.3716   -0.0690 N   0  0  0  0  0  0  0  0  0  0  0  0
   -3.0133    3.8485    0.9826 C   0  0  0  0  0  0  0  0  0  0  0  0
   -3.5133    4.8086    1.0042 H   0  0  0  0  0  0  0  0  0  0  0  0
   -2.9938    2.9647    1.9945 N   0  0  0  0  0  0  0  0  0  0  0  0
   -3.4527    3.0852    2.8871 H   0  0  0  0  0  0  0  0  0  0  0  0
   -2.2599    1.8694    1.5967 C   0  0  0  0  0  0  0  0  0  0  0  0
   -2.0639    0.9651    2.1590 H   0  0  0  0  0  0  0  0  0  0  0  0
   -0.0283    0.1609    1.5831 C   0  0  0  0  0  0  0  0  0  0  0  0
    1.1923    0.1056    1.7329 O   0  0  0  0  0  0  0  0  0  0  0  0
   -0.8586    0.4659    2.5853 N   0  0  0  0  0  0  0  0  0  0  0  0
   -1.8521    0.3848    2.4000 H   0  0  0  0  0  0  0  0  0  0  0  0
   -0.4403    0.7694    3.9518 C   0  0  0  0  0  0  0  0  0  0  0  0
    0.5066    1.3154    3.9421 H   0  0  0  0  0  0  0  0  0  0  0  0
   -1.1988    1.3789    4.4452 H   0  0  0  0  0  0  0  0  0  0  0  0
   -0.3053   -0.1600    4.5075 H   0  0  0  0  0  0  0  0  0  0  0  0
  5  6  2  0  0  0  0
  5  7  1  0  0  0  0
  2  3  1  0  0  0  0
  2  4  1  0  0  0  0
  2  5  1  0  0  0  0
  1  2  1  0  0  0  0
 22 23  2  0  0  0  0
 22 24  1  0  0  0  0
 20 21  1  0  0  0  0
 18 19  1  0  0  0  0
 18 20  1  0  0  0  0
 16 17  1  0  0  0  0
 16 18  1  0  0  0  0
 15 16  2  0  0  0  0
 14 15  1  0  0  0  0
 14 20  2  0  0  0  0
 11 12  1  0  0  0  0
 11 13  1  0  0  0  0
 11 14  1  0  0  0  0
  9 10  1  0  0  0  0
  9 11  1  0  0  0  0
  9 22  1  0  0  0  0
  7  8  1  0  0  0  0
  7  9  1  0  0  0  0
 26 27  1  0  0  0  0
 26 28  1  0  0  0  0
 26 29  1  0  0  0  0
 24 25  1  0  0  0  0
 24 26  1  0  0  0  0
M  END
$$$$
default_name
  -OEChem-02102213163D

 29 29  0     1  0  0  0  0  0999 V2000
   -2.9561   -3.9186    1.3887 H   0  0  0  0  0  0  0  0  0  0  0  0
   -3.1191   -2.9346    0.9517 C   0  0  0  0  0  0  0  0  0  0  0  0
   -3.7811   -2.3546    1.5917 H   0  0  0  0  0  0  0  0  0  0  0  0
   -3.5591   -3.0406   -0.0383 H   0  0  0  0  0  0  0  0  0  0  0  0
   -1.7921   -2.2226    0.8327 C   0  0  0  0  0  0  0  0  0  0  0  0
   -0.7611   -2.7766    1.1927 O   0  0  0  0  0  0  0  0  0  0  0  0
   -1.8201   -0.9926    0.3247 N   0  0  0  0  0  0  0  0  0  0  0  0
   -2.7141   -0.5816    0.0927 H   0  0  0  0  0  0  0  0  0  0  0  0
   -0.6481   -0.1156    0.2017 C   0  0  1  0  0  0  0  0  0  0  0  0
    0.1042   -0.6345   -0.3958 H   0  0  0  0  0  0  0  0  0  0  0  0
   -1.0420    1.1781   -0.5372 C   0  0  0  0  0  0  0  0  0  0  0  0
   -0.1440    1.7078   -0.8586 H   0  0  0  0  0  0  0  0  0  0  0  0
   -1.6158    0.9321   -1.4318 H   0  0  0  0  0  0  0  0  0  0  0  0
   -1.8382    2.1271    0.3251 C   0  0  0  0  0  0  0  0  0  0  0  0
   -2.5775    3.2200   -0.1293 N   0  0  0  0  0  0  0  0  0  0  0  0
   -3.1581    3.7504    0.9569 C   0  0  0  0  0  0  0  0  0  0  0  0
   -3.7954    4.6256    0.9452 H   0  0  0  0  0  0  0  0  0  0  0  0
   -2.8442    3.0380    2.0520 N   0  0  0  0  0  0  0  0  0  0  0  0
   -3.1749    3.2261    2.9885 H   0  0  0  0  0  0  0  0  0  0  0  0
   -2.0146    2.0063    1.6725 C   0  0  0  0  0  0  0  0  0  0  0  0
   -1.5938    1.2311    2.3004 H   0  0  0  0  0  0  0  0  0  0  0  0
   -0.0283    0.1609    1.5831 C   0  0  0  0  0  0  0  0  0  0  0  0
    1.1923    0.1056    1.7329 O   0  0  0  0  0  0  0  0  0  0  0  0
   -0.8586    0.4659    2.5853 N   0  0  0  0  0  0  0  0  0  0  0  0
   -1.8521    0.3848    2.4000 H   0  0  0  0  0  0  0  0  0  0  0  0
   -0.4403    0.7694    3.9518 C   0  0  0  0  0  0  0  0  0  0  0  0
    0.5066    1.3154    3.9421 H   0  0  0  0  0  0  0  0  0  0  0  0
   -1.1988    1.3789    4.4452 H   0  0  0  0  0  0  0  0  0  0  0  0
   -0.3053   -0.1600    4.5075 H   0  0  0  0  0  0  0  0  0  0  0  0
  5  6  2  0  0  0  0
  5  7  1  0  0  0  0
  2  3  1  0  0  0  0
  2  4  1  0  0  0  0
  2  5  1  0  0  0  0
  1  2  1  0  0  0  0
 22 23  2  0  0  0  0
 22 24  1  0  0  0  0
 20 21  1  0  0  0  0
 18 19  1  0  0  0  0
 18 20  1  0  0  0  0
 16 17  1  0  0  0  0
 16 18  1  0  0  0  0
 15 16  2  0  0  0  0
 14 15  1  0  0  0  0
 14 20  2  0  0  0  0
 11 12  1  0  0  0  0
 11 13  1  0  0  0  0
 11 14  1  0  0  0  0
  9 10  1  0  0  0  0
  9 11  1  0  0  0  0
  9 22  1  0  0  0  0
  7  8  1  0  0  0  0
  7  9  1  0  0  0  0
 26 27  1  0  0  0  0
 26 28  1  0  0  0  0
 26 29  1  0  0  0  0
 24 25  1  0  0  0  0
 24 26  1  0  0  0  0
M  END
$$$$
default_name
  -OEChem-02102213163D

 29 29  0     1  0  0  0  0  0999 V2000
   -2.9561   -3.9186    1.3887 H   0  0  0  0  0  0  0  0  0  0  0  0
   -3.1191   -2.9346    0.9517 C   0  0  0  0  0  0  0  0  0  0  0  0
   -3.7811   -2.3546    1.5917 H   0  0  0  0  0  0  0  0  0  0  0  0
   -3.5591   -3.0406   -0.0383 H   0  0  0  0  0  0  0  0  0  0  0  0
   -1.7921   -2.2226    0.8327 C   0  0  0  0  0  0  0  0  0  0  0  0
   -0.7611   -2.7766    1.1927 O   0  0  0  0  0  0  0  0  0  0  0  0
   -1.8201   -0.9926    0.3247 N   0  0  0  0  0  0  0  0  0  0  0  0
   -2.7141   -0.5816    0.0927 H   0  0  0  0  0  0  0  0  0  0  0  0
   -0.6481   -0.1156    0.2017 C   0  0  1  0  0  0  0  0  0  0  0  0
    0.1042   -0.6345   -0.3958 H   0  0  0  0  0  0  0  0  0  0  0  0
   -1.0420    1.1781   -0.5372 C   0  0  0  0  0  0  0  0  0  0  0  0
   -0.1440    1.7078   -0.8586 H   0  0  0  0  0  0  0  0  0  0  0  0
   -1.6158    0.9321   -1.4318 H   0  0  0  0  0  0  0  0  0  0  0  0
   -1.8382    2.1271    0.3251 C   0  0  0  0  0  0  0  0  0  0  0  0
   -2.8025    3.0289   -0.1268 N   0  0  0  0  0  0  0  0  0  0  0  0
   -3.2877    3.6306    0.9690 C   0  0  0  0  0  0  0  0  0  0  0  0
   -4.0504    4.3990    0.9590 H   0  0  0  0  0  0  0  0  0  0  0  0
   -2.7011    3.1387    2.0732 N   0  0  0  0  0  0  0  0  0  0  0  0
   -2.9109    3.4172    3.0221 H   0  0  0  0  0  0  0  0  0  0  0  0
   -1.7856    2.1852    1.6871 C   0  0  0  0  0  0  0  0  0  0  0  0
   -1.1560    1.5768    2.3242 H   0  0  0  0  0  0  0  0  0  0  0  0
   -0.0283    0.1609    1.5831 C   0  0  0  0  0  0  0  0  0  0  0  0
    1.1923    0.1056    1.7329 O   0  0  0  0  0  0  0  0  0  0  0  0
   -0.8586    0.4659    2.5853 N   0  0  0  0  0  0  0  0  0  0  0  0
   -1.8521    0.3848    2.4000 H   0  0  0  0  0  0  0  0  0  0  0  0
   -0.4403    0.7694    3.9518 C   0  0  0  0  0  0  0  0  0  0  0  0
    0.5066    1.3154    3.9421 H   0  0  0  0  0  0  0  0  0  0  0  0
   -1.1988    1.3789    4.4452 H   0  0  0  0  0  0  0  0  0  0  0  0
   -0.3053   -0.1600    4.5075 H   0  0  0  0  0  0  0  0  0  0  0  0
  5  6  2  0  0  0  0
  5  7  1  0  0  0  0
  2  3  1  0  0  0  0
  2  4  1  0  0  0  0
  2  5  1  0  0  0  0
  1  2  1  0  0  0  0
 22 23  2  0  0  0  0
 22 24  1  0  0  0  0
 20 21  1  0  0  0  0
 18 19  1  0  0  0  0
 18 20  1  0  0  0  0
 16 17  1  0  0  0  0
 16 18  1  0  0  0  0
 15 16  2  0  0  0  0
 14 15  1  0  0  0  0
 14 20  2  0  0  0  0
 11 12  1  0  0  0  0
 11 13  1  0  0  0  0
 11 14  1  0  0  0  0
  9 10  1  0  0  0  0
  9 11  1  0  0  0  0
  9 22  1  0  0  0  0
  7  8  1  0  0  0  0
  7  9  1  0  0  0  0
 26 27  1  0  0  0  0
 26 28  1  0  0  0  0
 26 29  1  0  0  0  0
 24 25  1  0  0  0  0
 24 26  1  0  0  0  0
M  END
$$$$
default_name
  -OEChem-02102213163D

 29 29  0     1  0  0  0  0  0999 V2000
   -2.9561   -3.9186    1.3887 H   0  0  0  0  0  0  0  0  0  0  0  0
   -3.1191   -2.9346    0.9517 C   0  0  0  0  0  0  0  0  0  0  0  0
   -3.7811   -2.3546    1.5917 H   0  0  0  0  0  0  0  0  0  0  0  0
   -3.5591   -3.0406   -0.0383 H   0  0  0  0  0  0  0  0  0  0  0  0
   -1.7921   -2.2226    0.8327 C   0  0  0  0  0  0  0  0  0  0  0  0
   -0.7611   -2.7766    1.1927 O   0  0  0  0  0  0  0  0  0  0  0  0
   -1.8201   -0.9926    0.3247 N   0  0  0  0  0  0  0  0  0  0  0  0
   -2.7141   -0.5816    0.0927 H   0  0  0  0  0  0  0  0  0  0  0  0
   -0.6481   -0.1156    0.2017 C   0  0  1  0  0  0  0  0  0  0  0  0
    0.1042   -0.6345   -0.3958 H   0  0  0  0  0  0  0  0  0  0  0  0
   -1.0420    1.1781   -0.5372 C   0  0  0  0  0  0  0  0  0  0  0  0
   -0.1440    1.7078   -0.8586 H   0  0  0  0  0  0  0  0  0  0  0  0
   -1.6158    0.9321   -1.4318 H   0  0  0  0  0  0  0  0  0  0  0  0
   -1.8382    2.1271    0.3251 C   0  0  0  0  0  0  0  0  0  0  0  0
   -2.9912    2.8114   -0.0617 N   0  0  0  0  0  0  0  0  0  0  0  0
   -3.3932    3.4975    1.0182 C   0  0  0  0  0  0  0  0  0  0  0  0
   -4.2610    4.1444    1.0448 H   0  0  0  0  0  0  0  0  0  0  0  0
   -2.5744    3.2601    2.0567 N   0  0  0  0  0  0  0  0  0  0  0  0
   -2.6786    3.6453    2.9854 H   0  0  0  0  0  0  0  0  0  0  0  0
   -1.5884    2.3938    1.6395 C   0  0  0  0  0  0  0  0  0  0  0  0
   -0.7804    1.9787    2.2287 H   0  0  0  0  0  0  0  0  0  0  0  0
   -0.0283    0.1609    1.5831 C   0  0  0  0  0  0  0  0  0  0  0  0
    1.1923    0.1056    1.7329 O   0  0  0  0  0  0  0  0  0  0  0  0
   -0.8586    0.4659    2.5853 N   0  0  0  0  0  0  0  0  0  0  0  0
   -1.8521    0.3848    2.4000 H   0  0  0  0  0  0  0  0  0  0  0  0
   -0.4403    0.7694    3.9518 C   0  0  0  0  0  0  0  0  0  0  0  0
    0.5066    1.3154    3.9421 H   0  0  0  0  0  0  0  0  0  0  0  0
   -1.1988    1.3789    4.4452 H   0  0  0  0  0  0  0  0  0  0  0  0
   -0.3053   -0.1600    4.5075 H   0  0  0  0  0  0  0  0  0  0  0  0
  5  6  2  0  0  0  0
  5  7  1  0  0  0  0
  2  3  1  0  0  0  0
  2  4  1  0  0  0  0
  2  5  1  0  0  0  0
  1  2  1  0  0  0  0
 22 23  2  0  0  0  0
 22 24  1  0  0  0  0
 20 21  1  0  0  0  0
 18 19  1  0  0  0  0
 18 20  1  0  0  0  0
 16 17  1  0  0  0  0
 16 18  1  0  0  0  0
 15 16  2  0  0  0  0
 14 15  1  0  0  0  0
 14 20  2  0  0  0  0
 11 12  1  0  0  0  0
 11 13  1  0  0  0  0
 11 14  1  0  0  0  0
  9 10  1  0  0  0  0
  9 11  1  0  0  0  0
  9 22  1  0  0  0  0
  7  8  1  0  0  0  0
  7  9  1  0  0  0  0
 26 27  1  0  0  0  0
 26 28  1  0  0  0  0
 26 29  1  0  0  0  0
 24 25  1  0  0  0  0
 24 26  1  0  0  0  0
M  END
$$$$
default_name
  -OEChem-02102213163D

 29 29  0     1  0  0  0  0  0999 V2000
   -2.9561   -3.9186    1.3887 H   0  0  0  0  0  0  0  0  0  0  0  0
   -3.1191   -2.9346    0.9517 C   0  0  0  0  0  0  0  0  0  0  0  0
   -3.7811   -2.3546    1.5917 H   0  0  0  0  0  0  0  0  0  0  0  0
   -3.5591   -3.0406   -0.0383 H   0  0  0  0  0  0  0  0  0  0  0  0
   -1.7921   -2.2226    0.8327 C   0  0  0  0  0  0  0  0  0  0  0  0
   -0.7611   -2.7766    1.1927 O   0  0  0  0  0  0  0  0  0  0  0  0
   -1.8201   -0.9926    0.3247 N   0  0  0  0  0  0  0  0  0  0  0  0
   -2.7141   -0.5816    0.0927 H   0  0  0  0  0  0  0  0  0  0  0  0
   -0.6481   -0.1156    0.2017 C   0  0  1  0  0  0  0  0  0  0  0  0
    0.1042   -0.6345   -0.3958 H   0  0  0  0  0  0  0  0  0  0  0  0
   -1.0420    1.1781   -0.5372 C   0  0  0  0  0  0  0  0  0  0  0  0
   -0.1440    1.7078   -0.8586 H   0  0  0  0  0  0  0  0  0  0  0  0
   -1.6158    0.9321   -1.4318 H   0  0  0  0  0  0  0  0  0  0  0  0
   -1.8382    2.1271    0.3251 C   0  0  0  0  0  0  0  0  0  0  0  0
   -3.1308    2.5823    0.0617 N   0  0  0  0  0  0  0  0  0  0  0  0
   -3.4674    3.3600    1.1010 C   0  0  0  0  0  0  0  0  0  0  0  0
   -4.4127    3.8790    1.1968 H   0  0  0  0  0  0  0  0  0  0  0  0
   -2.4726    3.3938    2.0035 N   0  0  0  0  0  0  0  0  0  0  0  0
   -2.4940    3.8950    2.8811 H   0  0  0  0  0  0  0  0  0  0  0  0
   -1.4366    2.6179    1.5330 C   0  0  0  0  0  0  0  0  0  0  0  0
   -0.4925    2.4094    2.0204 H   0  0  0  0  0  0  0  0  0  0  0  0
   -0.0283    0.1609    1.5831 C   0  0  0  0  0  0  0  0  0  0  0  0
    1.1923    0.1056    1.7329 O   0  0  0  0  0  0  0  0  0  0  0  0
   -0.8586    0.4659    2.5853 N   0  0  0  0  0  0  0  0  0  0  0  0
   -1.8521    0.3848    2.4000 H   0  0  0  0  0  0  0  0  0  0  0  0
   -0.4403    0.7694    3.9518 C   0  0  0  0  0  0  0  0  0  0  0  0
    0.5066    1.3154    3.9421 H   0  0  0  0  0  0  0  0  0  0  0  0
   -1.1988    1.3789    4.4452 H   0  0  0  0  0  0  0  0  0  0  0  0
   -0.3053   -0.1600    4.5075 H   0  0  0  0  0  0  0  0  0  0  0  0
  5  6  2  0  0  0  0
  5  7  1  0  0  0  0
  2  3  1  0  0  0  0
  2  4  1  0  0  0  0
  2  5  1  0  0  0  0
  1  2  1  0  0  0  0
 22 23  2  0  0  0  0
 22 24  1  0  0  0  0
 20 21  1  0  0  0  0
 18 19  1  0  0  0  0
 18 20  1  0  0  0  0
 16 17  1  0  0  0  0
 16 18  1  0  0  0  0
 15 16  2  0  0  0  0
 14 15  1  0  0  0  0
 14 20  2  0  0  0  0
 11 12  1  0  0  0  0
 11 13  1  0  0  0  0
 11 14  1  0  0  0  0
  9 10  1  0  0  0  0
  9 11  1  0  0  0  0
  9 22  1  0  0  0  0
  7  8  1  0  0  0  0
  7  9  1  0  0  0  0
 26 27  1  0  0  0  0
 26 28  1  0  0  0  0
 26 29  1  0  0  0  0
 24 25  1  0  0  0  0
 24 26  1  0  0  0  0
M  END
$$$$
default_name
  -OEChem-02102213163D

 29 29  0     1  0  0  0  0  0999 V2000
   -2.9561   -3.9186    1.3887 H   0  0  0  0  0  0  0  0  0  0  0  0
   -3.1191   -2.9346    0.9517 C   0  0  0  0  0  0  0  0  0  0  0  0
   -3.7811   -2.3546    1.5917 H   0  0  0  0  0  0  0  0  0  0  0  0
   -3.5591   -3.0406   -0.0383 H   0  0  0  0  0  0  0  0  0  0  0  0
   -1.7921   -2.2226    0.8327 C   0  0  0  0  0  0  0  0  0  0  0  0
   -0.7611   -2.7766    1.1927 O   0  0  0  0  0  0  0  0  0  0  0  0
   -1.8201   -0.9926    0.3247 N   0  0  0  0  0  0  0  0  0  0  0  0
   -2.7141   -0.5816    0.0927 H   0  0  0  0  0  0  0  0  0  0  0  0
   -0.6481   -0.1156    0.2017 C   0  0  1  0  0  0  0  0  0  0  0  0
    0.1042   -0.6345   -0.3958 H   0  0  0  0  0  0  0  0  0  0  0  0
   -1.0420    1.1781   -0.5372 C   0  0  0  0  0  0  0  0  0  0  0  0
   -0.1440    1.7078   -0.8586 H   0  0  0  0  0  0  0  0  0  0  0  0
   -1.6158    0.9321   -1.4318 H   0  0  0  0  0  0  0  0  0  0  0  0
   -1.8382    2.1271    0.3251 C   0  0  0  0  0  0  0  0  0  0  0  0
   -3.2116    2.3572    0.2348 N   0  0  0  0  0  0  0  0  0  0  0  0
   -3.5053    3.2275    1.2118 C   0  0  0  0  0  0  0  0  0  0  0  0
   -4.4954    3.6210    1.4044 H   0  0  0  0  0  0  0  0  0  0  0  0
   -2.4027    3.5307    1.9173 N   0  0  0  0  0  0  0  0  0  0  0  0
   -2.3696    4.1492    2.7162 H   0  0  0  0  0  0  0  0  0  0  0  0
   -1.3404    2.8423    1.3748 C   0  0  0  0  0  0  0  0  0  0  0  0
   -0.3121    2.8395    1.7136 H   0  0  0  0  0  0  0  0  0  0  0  0
   -0.0283    0.1609    1.5831 C   0  0  0  0  0  0  0  0  0  0  0  0
    1.1923    0.1056    1.7329 O   0  0  0  0  0  0  0  0  0  0  0  0
   -0.8586    0.4659    2.5853 N   0  0  0  0  0  0  0  0  0  0  0  0
   -1.8521    0.3848    2.4000 H   0  0  0  0  0  0  0  0  0  0  0  0
   -0.4403    0.7694    3.9518 C   0  0  0  0  0  0  0  0  0  0  0  0
    0.5066    1.3154    3.9421 H   0  0  0  0  0  0  0  0  0  0  0  0
   -1.1988    1.3789    4.4452 H   0  0  0  0  0  0  0  0  0  0  0  0
   -0.3053   -0.1600    4.5075 H   0  0  0  0  0  0  0  0  0  0  0  0
  5  6  2  0  0  0  0
  5  7  1  0  0  0  0
  2  3  1  0  0  0  0
  2  4  1  0  0  0  0
  2  5  1  0  0  0  0
  1  2  1  0  0  0  0
 22 23  2  0  0  0  0
 22 24  1  0  0  0  0
 20 21  1  0  0  0  0
 18 19  1  0  0  0  0
 18 20  1  0  0  0  0
 16 17  1  0  0  0  0
 16 18  1  0  0  0  0
 15 16  2  0  0  0  0
 14 15  1  0  0  0  0
 14 20  2  0  0  0  0
 11 12  1  0  0  0  0
 11 13  1  0  0  0  0
 11 14  1  0  0  0  0
  9 10  1  0  0  0  0
  9 11  1  0  0  0  0
  9 22  1  0  0  0  0
  7  8  1  0  0  0  0
  7  9  1  0  0  0  0
 26 27  1  0  0  0  0
 26 28  1  0  0  0  0
 26 29  1  0  0  0  0
 24 25  1  0  0  0  0
 24 26  1  0  0  0  0
M  END
$$$$
default_name
  -OEChem-02102213163D

 29 29  0     1  0  0  0  0  0999 V2000
   -2.9561   -3.9186    1.3887 H   0  0  0  0  0  0  0  0  0  0  0  0
   -3.1191   -2.9346    0.9517 C   0  0  0  0  0  0  0  0  0  0  0  0
   -3.7811   -2.3546    1.5917 H   0  0  0  0  0  0  0  0  0  0  0  0
   -3.5591   -3.0406   -0.0383 H   0  0  0  0  0  0  0  0  0  0  0  0
   -1.7921   -2.2226    0.8327 C   0  0  0  0  0  0  0  0  0  0  0  0
   -0.7611   -2.7766    1.1927 O   0  0  0  0  0  0  0  0  0  0  0  0
   -1.8201   -0.9926    0.3247 N   0  0  0  0  0  0  0  0  0  0  0  0
   -2.7141   -0.5816    0.0927 H   0  0  0  0  0  0  0  0  0  0  0  0
   -0.6481   -0.1156    0.2017 C   0  0  1  0  0  0  0  0  0  0  0  0
    0.1042   -0.6345   -0.3958 H   0  0  0  0  0  0  0  0  0  0  0  0
   -1.0420    1.1781   -0.5372 C   0  0  0  0  0  0  0  0  0  0  0  0
   -0.1440    1.7078   -0.8586 H   0  0  0  0  0  0  0  0  0  0  0  0
   -1.6158    0.9321   -1.4318 H   0  0  0  0  0  0  0  0  0  0  0  0
   -1.8382    2.1271    0.3251 C   0  0  0  0  0  0  0  0  0  0  0  0
   -3.2282    2.1514    0.4458 N   0  0  0  0  0  0  0  0  0  0  0  0
   -3.5042    3.1091    1.3431 C   0  0  0  0  0  0  0  0  0  0  0  0
   -4.5033    3.3879    1.6537 H   0  0  0  0  0  0  0  0  0  0  0  0
   -2.3695    3.6616    1.8040 N   0  0  0  0  0  0  0  0  0  0  0  0
   -2.3138    4.3907    2.5019 H   0  0  0  0  0  0  0  0  0  0  0  0
   -1.3065    3.0517    1.1758 C   0  0  0  0  0  0  0  0  0  0  0  0
   -0.2513    3.2399    1.3292 H   0  0  0  0  0  0  0  0  0  0  0  0
   -0.0283    0.1609    1.5831 C   0  0  0  0  0  0  0  0  0  0  0  0
    1.1923    0.1056    1.7329 O   0  0  0  0  0  0  0  0  0  0  0  0
   -0.8586    0.4659    2.5853 N   0  0  0  0  0  0  0  0  0  0  0  0
   -1.8521    0.3848    2.4000 H   0  0  0  0  0  0  0  0  0  0  0  0
   -0.4403    0.7694    3.9518 C   0  0  0  0  0  0  0  0  0  0  0  0
    0.5066    1.3154    3.9421 H   0  0  0  0  0  0  0  0  0  0  0  0
   -1.1988    1.3789    4.4452 H   0  0  0  0  0  0  0  0  0  0  0  0
   -0.3053   -0.1600    4.5075 H   0  0  0  0  0  0  0  0  0  0  0  0
  5  6  2  0  0  0  0
  5  7  1  0  0  0  0
  2  3  1  0  0  0  0
  2  4  1  0  0  0  0
  2  5  1  0  0  0  0
  1  2  1  0  0  0  0
 22 23  2  0  0  0  0
 22 24  1  0  0  0  0
 20 21  1  0  0  0  0
 18 19  1  0  0  0  0
 18 20  1  0  0  0  0
 16 17  1  0  0  0  0
 16 18  1  0  0  0  0
 15 16  2  0  0  0  0
 14 15  1  0  0  0  0
 14 20  2  0  0  0  0
 11 12  1  0  0  0  0
 11 13  1  0  0  0  0
 11 14  1  0  0  0  0
  9 10  1  0  0  0  0
  9 11  1  0  0  0  0
  9 22  1  0  0  0  0
  7  8  1  0  0  0  0
  7  9  1  0  0  0  0
 26 27  1  0  0  0  0
 26 28  1  0  0  0  0
 26 29  1  0  0  0  0
 24 25  1  0  0  0  0
 24 26  1  0  0  0  0
M  END
$$$$
default_name
  -OEChem-02102213163D

 29 29  0     1  0  0  0  0  0999 V2000
   -2.9561   -3.9186    1.3887 H   0  0  0  0  0  0  0  0  0  0  0  0
   -3.1191   -2.9346    0.9517 C   0  0  0  0  0  0  0  0  0  0  0  0
   -3.7811   -2.3546    1.5917 H   0  0  0  0  0  0  0  0  0  0  0  0
   -3.5591   -3.0406   -0.0383 H   0  0  0  0  0  0  0  0  0  0  0  0
   -1.7921   -2.2226    0.8327 C   0  0  0  0  0  0  0  0  0  0  0  0
   -0.7611   -2.7766    1.1927 O   0  0  0  0  0  0  0  0  0  0  0  0
   -1.8201   -0.9926    0.3247 N   0  0  0  0  0  0  0  0  0  0  0  0
   -2.7141   -0.5816    0.0927 H   0  0  0  0  0  0  0  0  0  0  0  0
   -0.6481   -0.1156    0.2017 C   0  0  1  0  0  0  0  0  0  0  0  0
    0.1042   -0.6345   -0.3958 H   0  0  0  0  0  0  0  0  0  0  0  0
   -1.0420    1.1781   -0.5372 C   0  0  0  0  0  0  0  0  0  0  0  0
   -0.1440    1.7078   -0.8586 H   0  0  0  0  0  0  0  0  0  0  0  0
   -1.6158    0.9321   -1.4318 H   0  0  0  0  0  0  0  0  0  0  0  0
   -1.8382    2.1271    0.3251 C   0  0  0  0  0  0  0  0  0  0  0  0
   -3.1795    1.9791    0.6805 N   0  0  0  0  0  0  0  0  0  0  0  0
   -3.4644    3.0128    1.4859 C   0  0  0  0  0  0  0  0  0  0  0  0
   -4.4358    3.1956    1.9276 H   0  0  0  0  0  0  0  0  0  0  0  0
   -2.3752    3.7774    1.6712 N   0  0  0  0  0  0  0  0  0  0  0  0
   -2.3305    4.6030    2.2529 H   0  0  0  0  0  0  0  0  0  0  0  0
   -1.3370    3.2319    0.9493 C   0  0  0  0  0  0  0  0  0  0  0  0
   -0.3143    3.5830    0.8933 H   0  0  0  0  0  0  0  0  0  0  0  0
   -0.0283    0.1609    1.5831 C   0  0  0  0  0  0  0  0  0  0  0  0
    1.1923    0.1056    1.7329 O   0  0  0  0  0  0  0  0  0  0  0  0
   -0.8586    0.4659    2.5853 N   0  0  0  0  0  0  0  0  0  0  0  0
   -1.8521    0.3848    2.4000 H   0  0  0  0  0  0  0  0  0  0  0  0
   -0.4403    0.7694    3.9518 C   0  0  0  0  0  0  0  0  0  0  0  0
    0.5066    1.3154    3.9421 H   0  0  0  0  0  0  0  0  0  0  0  0
   -1.1988    1.3789    4.4452 H   0  0  0  0  0  0  0  0  0  0  0  0
   -0.3053   -0.1600    4.5075 H   0  0  0  0  0  0  0  0  0  0  0  0
  5  6  2  0  0  0  0
  5  7  1  0  0  0  0
  2  3  1  0  0  0  0
  2  4  1  0  0  0  0
  2  5  1  0  0  0  0
  1  2  1  0  0  0  0
 22 23  2  0  0  0  0
 22 24  1  0  0  0  0
 20 21  1  0  0  0  0
 18 19  1  0  0  0  0
 18 20  1  0  0  0  0
 16 17  1  0  0  0  0
 16 18  1  0  0  0  0
 15 16  2  0  0  0  0
 14 15  1  0  0  0  0
 14 20  2  0  0  0  0
 11 12  1  0  0  0  0
 11 13  1  0  0  0  0
 11 14  1  0  0  0  0
  9 10  1  0  0  0  0
  9 11  1  0  0  0  0
  9 22  1  0  0  0  0
  7  8  1  0  0  0  0
  7  9  1  0  0  0  0
 26 27  1  0  0  0  0
 26 28  1  0  0  0  0
 26 29  1  0  0  0  0
 24 25  1  0  0  0  0
 24 26  1  0  0  0  0
M  END
$$$$
default_name
  -OEChem-02102213163D

 29 29  0     1  0  0  0  0  0999 V2000
   -2.9561   -3.9186    1.3887 H   0  0  0  0  0  0  0  0  0  0  0  0
   -3.1191   -2.9346    0.9517 C   0  0  0  0  0  0  0  0  0  0  0  0
   -3.7811   -2.3546    1.5917 H   0  0  0  0  0  0  0  0  0  0  0  0
   -3.5591   -3.0406   -0.0383 H   0  0  0  0  0  0  0  0  0  0  0  0
   -1.7921   -2.2226    0.8327 C   0  0  0  0  0  0  0  0  0  0  0  0
   -0.7611   -2.7766    1.1927 O   0  0  0  0  0  0  0  0  0  0  0  0
   -1.8201   -0.9926    0.3247 N   0  0  0  0  0  0  0  0  0  0  0  0
   -2.7141   -0.5816    0.0927 H   0  0  0  0  0  0  0  0  0  0  0  0
   -0.6481   -0.1156    0.2017 C   0  0  1  0  0  0  0  0  0  0  0  0
    0.1042   -0.6345   -0.3958 H   0  0  0  0  0  0  0  0  0  0  0  0
   -1.0420    1.1781   -0.5372 C   0  0  0  0  0  0  0  0  0  0  0  0
   -0.1440    1.7078   -0.8586 H   0  0  0  0  0  0  0  0  0  0  0  0
   -1.6158    0.9321   -1.4318 H   0  0  0  0  0  0  0  0  0  0  0  0
   -1.8382    2.1271    0.3251 C   0  0  0  0  0  0  0  0  0  0  0  0
   -3.0687    1.8518    0.9228 N   0  0  0  0  0  0  0  0  0  0  0  0
   -3.3883    2.9451    1.6305 C   0  0  0  0  0  0  0  0  0  0  0  0
   -4.2977    3.0572    2.2074 H   0  0  0  0  0  0  0  0  0  0  0  0
   -2.4194    3.8703    1.5282 N   0  0  0  0  0  0  0  0  0  0  0  0
   -2.4186    4.7715    1.9861 H   0  0  0  0  0  0  0  0  0  0  0  0
   -1.4300    3.3704    0.7110 C   0  0  0  0  0  0  0  0  0  0  0  0
   -0.4969    3.8457    0.4357 H   0  0  0  0  0  0  0  0  0  0  0  0
   -0.0283    0.1609    1.5831 C   0  0  0  0  0  0  0  0  0  0  0  0
    1.1923    0.1056    1.7329 O   0  0  0  0  0  0  0  0  0  0  0  0
   -0.8586    0.4659    2.5853 N   0  0  0  0  0  0  0  0  0  0  0  0
   -1.8521    0.3848    2.4000 H   0  0  0  0  0  0  0  0  0  0  0  0
   -0.4403    0.7694    3.9518 C   0  0  0  0  0  0  0  0  0  0  0  0
    0.5066    1.3154    3.9421 H   0  0  0  0  0  0  0  0  0  0  0  0
   -1.1988    1.3789    4.4452 H   0  0  0  0  0  0  0  0  0  0  0  0
   -0.3053   -0.1600    4.5075 H   0  0  0  0  0  0  0  0  0  0  0  0
  5  6  2  0  0  0  0
  5  7  1  0  0  0  0
  2  3  1  0  0  0  0
  2  4  1  0  0  0  0
  2  5  1  0  0  0  0
  1  2  1  0  0  0  0
 22 23  2  0  0  0  0
 22 24  1  0  0  0  0
 20 21  1  0  0  0  0
 18 19  1  0  0  0  0
 18 20  1  0  0  0  0
 16 17  1  0  0  0  0
 16 18  1  0  0  0  0
 15 16  2  0  0  0  0
 14 15  1  0  0  0  0
 14 20  2  0  0  0  0
 11 12  1  0  0  0  0
 11 13  1  0  0  0  0
 11 14  1  0  0  0  0
  9 10  1  0  0  0  0
  9 11  1  0  0  0  0
  9 22  1  0  0  0  0
  7  8  1  0  0  0  0
  7  9  1  0  0  0  0
 26 27  1  0  0  0  0
 26 28  1  0  0  0  0
 26 29  1  0  0  0  0
 24 25  1  0  0  0  0
 24 26  1  0  0  0  0
M  END
$$$$
default_name
  -OEChem-02102213163D

 29 29  0     1  0  0  0  0  0999 V2000
   -2.9561   -3.9186    1.3887 H   0  0  0  0  0  0  0  0  0  0  0  0
   -3.1191   -2.9346    0.9517 C   0  0  0  0  0  0  0  0  0  0  0  0
   -3.7811   -2.3546    1.5917 H   0  0  0  0  0  0  0  0  0  0  0  0
   -3.5591   -3.0406   -0.0383 H   0  0  0  0  0  0  0  0  0  0  0  0
   -1.7921   -2.2226    0.8327 C   0  0  0  0  0  0  0  0  0  0  0  0
   -0.7611   -2.7766    1.1927 O   0  0  0  0  0  0  0  0  0  0  0  0
   -1.8201   -0.9926    0.3247 N   0  0  0  0  0  0  0  0  0  0  0  0
   -2.7141   -0.5816    0.0927 H   0  0  0  0  0  0  0  0  0  0  0  0
   -0.6481   -0.1156    0.2017 C   0  0  1  0  0  0  0  0  0  0  0  0
    0.1042   -0.6345   -0.3958 H   0  0  0  0  0  0  0  0  0  0  0  0
   -1.0420    1.1781   -0.5372 C   0  0  0  0  0  0  0  0  0  0  0  0
   -0.1440    1.7078   -0.8586 H   0  0  0  0  0  0  0  0  0  0  0  0
   -1.6158    0.9321   -1.4318 H   0  0  0  0  0  0  0  0  0  0  0  0
   -1.8382    2.1271    0.3251 C   0  0  0  0  0  0  0  0  0  0  0  0
   -2.9035    1.7784    1.1562 N   0  0  0  0  0  0  0  0  0  0  0  0
   -3.2814    2.9108    1.7671 C   0  0  0  0  0  0  0  0  0  0  0  0
   -4.0983    2.9822    2.4741 H   0  0  0  0  0  0  0  0  0  0  0  0
   -2.4992    3.9340    1.3844 N   0  0  0  0  0  0  0  0  0  0  0  0
   -2.5720    4.8848    1.7198 H   0  0  0  0  0  0  0  0  0  0  0  0
   -1.5791    3.4579    0.4770 C   0  0  0  0  0  0  0  0  0  0  0  0
   -0.7866    4.0099   -0.0124 H   0  0  0  0  0  0  0  0  0  0  0  0
   -0.0283    0.1609    1.5831 C   0  0  0  0  0  0  0  0  0  0  0  0
    1.1923    0.1056    1.7329 O   0  0  0  0  0  0  0  0  0  0  0  0
   -0.8586    0.4659    2.5853 N   0  0  0  0  0  0  0  0  0  0  0  0
   -1.8521    0.3848    2.4000 H   0  0  0  0  0  0  0  0  0  0  0  0
   -0.4403    0.7694    3.9518 C   0  0  0  0  0  0  0  0  0  0  0  0
    0.5066    1.3154    3.9421 H   0  0  0  0  0  0  0  0  0  0  0  0
   -1.1988    1.3789    4.4452 H   0  0  0  0  0  0  0  0  0  0  0  0
   -0.3053   -0.1600    4.5075 H   0  0  0  0  0  0  0  0  0  0  0  0
  5  6  2  0  0  0  0
  5  7  1  0  0  0  0
  2  3  1  0  0  0  0
  2  4  1  0  0  0  0
  2  5  1  0  0  0  0
  1  2  1  0  0  0  0
 22 23  2  0  0  0  0
 22 24  1  0  0  0  0
 20 21  1  0  0  0  0
 18 19  1  0  0  0  0
 18 20  1  0  0  0  0
 16 17  1  0  0  0  0
 16 18  1  0  0  0  0
 15 16  2  0  0  0  0
 14 15  1  0  0  0  0
 14 20  2  0  0  0  0
 11 12  1  0  0  0  0
 11 13  1  0  0  0  0
 11 14  1  0  0  0  0
  9 10  1  0  0  0  0
  9 11  1  0  0  0  0
  9 22  1  0  0  0  0
  7  8  1  0  0  0  0
  7  9  1  0  0  0  0
 26 27  1  0  0  0  0
 26 28  1  0  0  0  0
 26 29  1  0  0  0  0
 24 25  1  0  0  0  0
 24 26  1  0  0  0  0
M  END
$$$$
default_name
  -OEChem-02102213163D

 29 29  0     1  0  0  0  0  0999 V2000
   -2.9561   -3.9186    1.3887 H   0  0  0  0  0  0  0  0  0  0  0  0
   -3.1191   -2.9346    0.9517 C   0  0  0  0  0  0  0  0  0  0  0  0
   -3.7811   -2.3546    1.5917 H   0  0  0  0  0  0  0  0  0  0  0  0
   -3.5591   -3.0406   -0.0383 H   0  0  0  0  0  0  0  0  0  0  0  0
   -1.7921   -2.2226    0.8327 C   0  0  0  0  0  0  0  0  0  0  0  0
   -0.7611   -2.7766    1.1927 O   0  0  0  0  0  0  0  0  0  0  0  0
   -1.8201   -0.9926    0.3247 N   0  0  0  0  0  0  0  0  0  0  0  0
   -2.7141   -0.5816    0.0927 H   0  0  0  0  0  0  0  0  0  0  0  0
   -0.6481   -0.1156    0.2017 C   0  0  1  0  0  0  0  0  0  0  0  0
    0.1042   -0.6345   -0.3958 H   0  0  0  0  0  0  0  0  0  0  0  0
   -1.0420    1.1781   -0.5372 C   0  0  0  0  0  0  0  0  0  0  0  0
   -0.1440    1.7078   -0.8586 H   0  0  0  0  0  0  0  0  0  0  0  0
   -1.6158    0.9321   -1.4318 H   0  0  0  0  0  0  0  0  0  0  0  0
   -1.8382    2.1271    0.3251 C   0  0  0  0  0  0  0  0  0  0  0  0
   -2.6951    1.7637    1.3648 N   0  0  0  0  0  0  0  0  0  0  0  0
   -3.1508    2.9120    1.8863 C   0  0  0  0  0  0  0  0  0  0  0  0
   -3.8511    2.9756    2.7095 H   0  0  0  0  0  0  0  0  0  0  0  0
   -2.6090    3.9641    1.2499 N   0  0  0  0  0  0  0  0  0  0  0  0
   -2.7802    4.9353    1.4720 H   0  0  0  0  0  0  0  0  0  0  0  0
   -1.7741    3.4885    0.2633 C   0  0  0  0  0  0  0  0  0  0  0  0
   -1.1636    4.0645   -0.4206 H   0  0  0  0  0  0  0  0  0  0  0  0
   -0.0283    0.1609    1.5831 C   0  0  0  0  0  0  0  0  0  0  0  0
    1.1923    0.1056    1.7329 O   0  0  0  0  0  0  0  0  0  0  0  0
   -0.8586    0.4659    2.5853 N   0  0  0  0  0  0  0  0  0  0  0  0
   -1.8521    0.3848    2.4000 H   0  0  0  0  0  0  0  0  0  0  0  0
   -0.4403    0.7694    3.9518 C   0  0  0  0  0  0  0  0  0  0  0  0
    0.5066    1.3154    3.9421 H   0  0  0  0  0  0  0  0  0  0  0  0
   -1.1988    1.3789    4.4452 H   0  0  0  0  0  0  0  0  0  0  0  0
   -0.3053   -0.1600    4.5075 H   0  0  0  0  0  0  0  0  0  0  0  0
  5  6  2  0  0  0  0
  5  7  1  0  0  0  0
  2  3  1  0  0  0  0
  2  4  1  0  0  0  0
  2  5  1  0  0  0  0
  1  2  1  0  0  0  0
 22 23  2  0  0  0  0
 22 24  1  0  0  0  0
 20 21  1  0  0  0  0
 18 19  1  0  0  0  0
 18 20  1  0  0  0  0
 16 17  1  0  0  0  0
 16 18  1  0  0  0  0
 15 16  2  0  0  0  0
 14 15  1  0  0  0  0
 14 20  2  0  0  0  0
 11 12  1  0  0  0  0
 11 13  1  0  0  0  0
 11 14  1  0  0  0  0
  9 10  1  0  0  0  0
  9 11  1  0  0  0  0
  9 22  1  0  0  0  0
  7  8  1  0  0  0  0
  7  9  1  0  0  0  0
 26 27  1  0  0  0  0
 26 28  1  0  0  0  0
 26 29  1  0  0  0  0
 24 25  1  0  0  0  0
 24 26  1  0  0  0  0
M  END
$$$$
default_name
  -OEChem-02102213163D

 29 29  0     1  0  0  0  0  0999 V2000
   -2.9561   -3.9186    1.3887 H   0  0  0  0  0  0  0  0  0  0  0  0
   -3.1191   -2.9346    0.9517 C   0  0  0  0  0  0  0  0  0  0  0  0
   -3.7811   -2.3546    1.5917 H   0  0  0  0  0  0  0  0  0  0  0  0
   -3.5591   -3.0406   -0.0383 H   0  0  0  0  0  0  0  0  0  0  0  0
   -1.7921   -2.2226    0.8327 C   0  0  0  0  0  0  0  0  0  0  0  0
   -0.7611   -2.7766    1.1927 O   0  0  0  0  0  0  0  0  0  0  0  0
   -1.8201   -0.9926    0.3247 N   0  0  0  0  0  0  0  0  0  0  0  0
   -2.7141   -0.5816    0.0927 H   0  0  0  0  0  0  0  0  0  0  0  0
   -0.6481   -0.1156    0.2017 C   0  0  1  0  0  0  0  0  0  0  0  0
    0.1042   -0.6345   -0.3958 H   0  0  0  0  0  0  0  0  0  0  0  0
   -1.0420    1.1781   -0.5372 C   0  0  0  0  0  0  0  0  0  0  0  0
   -0.1440    1.7078   -0.8586 H   0  0  0  0  0  0  0  0  0  0  0  0
   -1.6158    0.9321   -1.4318 H   0  0  0  0  0  0  0  0  0  0  0  0
   -1.8382    2.1271    0.3251 C   0  0  0  0  0  0  0  0  0  0  0  0
   -2.4576    1.8088    1.5344 N   0  0  0  0  0  0  0  0  0  0  0  0
   -3.0054    2.9489    1.9800 C   0  0  0  0  0  0  0  0  0  0  0  0
   -3.5731    3.0380    2.8976 H   0  0  0  0  0  0  0  0  0  0  0  0
   -2.7414    3.9586    1.1337 N   0  0  0  0  0  0  0  0  0  0  0  0
   -3.0292    4.9194    1.2596 H   0  0  0  0  0  0  0  0  0  0  0  0
   -2.0018    3.4600    0.0845 C   0  0  0  0  0  0  0  0  0  0  0  0
   -1.6022    4.0058   -0.7610 H   0  0  0  0  0  0  0  0  0  0  0  0
   -0.0283    0.1609    1.5831 C   0  0  0  0  0  0  0  0  0  0  0  0
    1.1923    0.1056    1.7329 O   0  0  0  0  0  0  0  0  0  0  0  0
   -0.8586    0.4659    2.5853 N   0  0  0  0  0  0  0  0  0  0  0  0
   -1.8521    0.3848    2.4000 H   0  0  0  0  0  0  0  0  0  0  0  0
   -0.4403    0.7694    3.9518 C   0  0  0  0  0  0  0  0  0  0  0  0
    0.5066    1.3154    3.9421 H   0  0  0  0  0  0  0  0  0  0  0  0
   -1.1988    1.3789    4.4452 H   0  0  0  0  0  0  0  0  0  0  0  0
   -0.3053   -0.1600    4.5075 H   0  0  0  0  0  0  0  0  0  0  0  0
  5  6  2  0  0  0  0
  5  7  1  0  0  0  0
  2  3  1  0  0  0  0
  2  4  1  0  0  0  0
  2  5  1  0  0  0  0
  1  2  1  0  0  0  0
 22 23  2  0  0  0  0
 22 24  1  0  0  0  0
 20 21  1  0  0  0  0
 18 19  1  0  0  0  0
 18 20  1  0  0  0  0
 16 17  1  0  0  0  0
 16 18  1  0  0  0  0
 15 16  2  0  0  0  0
 14 15  1  0  0  0  0
 14 20  2  0  0  0  0
 11 12  1  0  0  0  0
 11 13  1  0  0  0  0
 11 14  1  0  0  0  0
  9 10  1  0  0  0  0
  9 11  1  0  0  0  0
  9 22  1  0  0  0  0
  7  8  1  0  0  0  0
  7  9  1  0  0  0  0
 26 27  1  0  0  0  0
 26 28  1  0  0  0  0
 26 29  1  0  0  0  0
 24 25  1  0  0  0  0
 24 26  1  0  0  0  0
M  END
$$$$
default_name
  -OEChem-02102213163D

 29 29  0     1  0  0  0  0  0999 V2000
   -2.9561   -3.9186    1.3887 H   0  0  0  0  0  0  0  0  0  0  0  0
   -3.1191   -2.9346    0.9517 C   0  0  0  0  0  0  0  0  0  0  0  0
   -3.7811   -2.3546    1.5917 H   0  0  0  0  0  0  0  0  0  0  0  0
   -3.5591   -3.0406   -0.0383 H   0  0  0  0  0  0  0  0  0  0  0  0
   -1.7921   -2.2226    0.8327 C   0  0  0  0  0  0  0  0  0  0  0  0
   -0.7611   -2.7766    1.1927 O   0  0  0  0  0  0  0  0  0  0  0  0
   -1.8201   -0.9926    0.3247 N   0  0  0  0  0  0  0  0  0  0  0  0
   -2.7141   -0.5816    0.0927 H   0  0  0  0  0  0  0  0  0  0  0  0
   -0.6481   -0.1156    0.2017 C   0  0  1  0  0  0  0  0  0  0  0  0
    0.1042   -0.6345   -0.3958 H   0  0  0  0  0  0  0  0  0  0  0  0
   -1.0420    1.1781   -0.5372 C   0  0  0  0  0  0  0  0  0  0  0  0
   -0.1440    1.7078   -0.8586 H   0  0  0  0  0  0  0  0  0  0  0  0
   -1.6158    0.9321   -1.4318 H   0  0  0  0  0  0  0  0  0  0  0  0
   -1.8382    2.1271    0.3251 C   0  0  0  0  0  0  0  0  0  0  0  0
   -2.2074    1.9107    1.6533 N   0  0  0  0  0  0  0  0  0  0  0  0
   -2.8552    3.0187    2.0418 C   0  0  0  0  0  0  0  0  0  0  0  0
   -3.2832    3.1649    3.0255 H   0  0  0  0  0  0  0  0  0  0  0  0
   -2.8874    3.9178    1.0438 N   0  0  0  0  0  0  0  0  0  0  0  0
   -3.3019    4.8382    1.0972 H   0  0  0  0  0  0  0  0  0  0  0  0
   -2.2466    3.3744   -0.0474 C   0  0  0  0  0  0  0  0  0  0  0  0
   -2.0727    3.8377   -1.0104 H   0  0  0  0  0  0  0  0  0  0  0  0
   -0.0283    0.1609    1.5831 C   0  0  0  0  0  0  0  0  0  0  0  0
    1.1923    0.1056    1.7329 O   0  0  0  0  0  0  0  0  0  0  0  0
   -0.8586    0.4659    2.5853 N   0  0  0  0  0  0  0  0  0  0  0  0
   -1.8521    0.3848    2.4000 H   0  0  0  0  0  0  0  0  0  0  0  0
   -0.4403    0.7694    3.9518 C   0  0  0  0  0  0  0  0  0  0  0  0
    0.5066    1.3154    3.9421 H   0  0  0  0  0  0  0  0  0  0  0  0
   -1.1988    1.3789    4.4452 H   0  0  0  0  0  0  0  0  0  0  0  0
   -0.3053   -0.1600    4.5075 H   0  0  0  0  0  0  0  0  0  0  0  0
  5  6  2  0  0  0  0
  5  7  1  0  0  0  0
  2  3  1  0  0  0  0
  2  4  1  0  0  0  0
  2  5  1  0  0  0  0
  1  2  1  0  0  0  0
 22 23  2  0  0  0  0
 22 24  1  0  0  0  0
 20 21  1  0  0  0  0
 18 19  1  0  0  0  0
 18 20  1  0  0  0  0
 16 17  1  0  0  0  0
 16 18  1  0  0  0  0
 15 16  2  0  0  0  0
 14 15  1  0  0  0  0
 14 20  2  0  0  0  0
 11 12  1  0  0  0  0
 11 13  1  0  0  0  0
 11 14  1  0  0  0  0
  9 10  1  0  0  0  0
  9 11  1  0  0  0  0
  9 22  1  0  0  0  0
  7  8  1  0  0  0  0
  7  9  1  0  0  0  0
 26 27  1  0  0  0  0
 26 28  1  0  0  0  0
 26 29  1  0  0  0  0
 24 25  1  0  0  0  0
 24 26  1  0  0  0  0
M  END
$$$$
default_name
  -OEChem-02102213163D

 29 29  0     1  0  0  0  0  0999 V2000
   -2.9561   -3.9186    1.3887 H   0  0  0  0  0  0  0  0  0  0  0  0
   -3.1191   -2.9346    0.9517 C   0  0  0  0  0  0  0  0  0  0  0  0
   -3.7811   -2.3546    1.5917 H   0  0  0  0  0  0  0  0  0  0  0  0
   -3.5591   -3.0406   -0.0383 H   0  0  0  0  0  0  0  0  0  0  0  0
   -1.7921   -2.2226    0.8327 C   0  0  0  0  0  0  0  0  0  0  0  0
   -0.7611   -2.7766    1.1927 O   0  0  0  0  0  0  0  0  0  0  0  0
   -1.8201   -0.9926    0.3247 N   0  0  0  0  0  0  0  0  0  0  0  0
   -2.7141   -0.5816    0.0927 H   0  0  0  0  0  0  0  0  0  0  0  0
   -0.6481   -0.1156    0.2017 C   0  0  1  0  0  0  0  0  0  0  0  0
    0.1042   -0.6345   -0.3958 H   0  0  0  0  0  0  0  0  0  0  0  0
   -1.0420    1.1781   -0.5372 C   0  0  0  0  0  0  0  0  0  0  0  0
   -0.1440    1.7078   -0.8586 H   0  0  0  0  0  0  0  0  0  0  0  0
   -1.6158    0.9321   -1.4318 H   0  0  0  0  0  0  0  0  0  0  0  0
   -1.8382    2.1271    0.3251 C   0  0  0  0  0  0  0  0  0  0  0  0
   -1.9613    2.0623    1.7136 N   0  0  0  0  0  0  0  0  0  0  0  0
   -2.7103    3.1168    2.0675 C   0  0  0  0  0  0  0  0  0  0  0  0
   -3.0012    3.3479    3.0845 H   0  0  0  0  0  0  0  0  0  0  0  0
   -3.0370    3.8445    0.9863 N   0  0  0  0  0  0  0  0  0  0  0  0
   -3.5797    4.6973    0.9957 H   0  0  0  0  0  0  0  0  0  0  0  0
   -2.4919    3.2375   -0.1232 C   0  0  0  0  0  0  0  0  0  0  0  0
   -2.5428    3.5718   -1.1518 H   0  0  0  0  0  0  0  0  0  0  0  0
   -0.0283    0.1609    1.5831 C   0  0  0  0  0  0  0  0  0  0  0  0
    1.1923    0.1056    1.7329 O   0  0  0  0  0  0  0  0  0  0  0  0
   -0.8586    0.4659    2.5853 N   0  0  0  0  0  0  0  0  0  0  0  0
   -1.8521    0.3848    2.4000 H   0  0  0  0  0  0  0  0  0  0  0  0
   -0.4403    0.7694    3.9518 C   0  0  0  0  0  0  0  0  0  0  0  0
    0.5066    1.3154    3.9421 H   0  0  0  0  0  0  0  0  0  0  0  0
   -1.1988    1.3789    4.4452 H   0  0  0  0  0  0  0  0  0  0  0  0
   -0.3053   -0.1600    4.5075 H   0  0  0  0  0  0  0  0  0  0  0  0
  5  6  2  0  0  0  0
  5  7  1  0  0  0  0
  2  3  1  0  0  0  0
  2  4  1  0  0  0  0
  2  5  1  0  0  0  0
  1  2  1  0  0  0  0
 22 23  2  0  0  0  0
 22 24  1  0  0  0  0
 20 21  1  0  0  0  0
 18 19  1  0  0  0  0
 18 20  1  0  0  0  0
 16 17  1  0  0  0  0
 16 18  1  0  0  0  0
 15 16  2  0  0  0  0
 14 15  1  0  0  0  0
 14 20  2  0  0  0  0
 11 12  1  0  0  0  0
 11 13  1  0  0  0  0
 11 14  1  0  0  0  0
  9 10  1  0  0  0  0
  9 11  1  0  0  0  0
  9 22  1  0  0  0  0
  7  8  1  0  0  0  0
  7  9  1  0  0  0  0
 26 27  1  0  0  0  0
 26 28  1  0  0  0  0
 26 29  1  0  0  0  0
 24 25  1  0  0  0  0
 24 26  1  0  0  0  0
M  END
$$$$
default_name
  -OEChem-02102213163D

 29 29  0     1  0  0  0  0  0999 V2000
   -2.9561   -3.9186    1.3887 H   0  0  0  0  0  0  0  0  0  0  0  0
   -3.1191   -2.9346    0.9517 C   0  0  0  0  0  0  0  0  0  0  0  0
   -3.7811   -2.3546    1.5917 H   0  0  0  0  0  0  0  0  0  0  0  0
   -3.5591   -3.0406   -0.0383 H   0  0  0  0  0  0  0  0  0  0  0  0
   -1.7921   -2.2226    0.8327 C   0  0  0  0  0  0  0  0  0  0  0  0
   -0.7611   -2.7766    1.1927 O   0  0  0  0  0  0  0  0  0  0  0  0
   -1.8201   -0.9926    0.3247 N   0  0  0  0  0  0  0  0  0  0  0  0
   -2.7141   -0.5816    0.0927 H   0  0  0  0  0  0  0  0  0  0  0  0
   -0.6481   -0.1156    0.2017 C   0  0  1  0  0  0  0  0  0  0  0  0
    0.1042   -0.6345   -0.3958 H   0  0  0  0  0  0  0  0  0  0  0  0
   -1.0420    1.1781   -0.5372 C   0  0  0  0  0  0  0  0  0  0  0  0
   -0.1440    1.7078   -0.8586 H   0  0  0  0  0  0  0  0  0  0  0  0
   -1.6158    0.9321   -1.4318 H   0  0  0  0  0  0  0  0  0  0  0  0
   -1.8382    2.1271    0.3251 C   0  0  0  0  0  0  0  0  0  0  0  0
   -1.7363    2.2534    1.7111 N   0  0  0  0  0  0  0  0  0  0  0  0
   -2.5807    3.2366    2.0554 C   0  0  0  0  0  0  0  0  0  0  0  0
   -2.7462    3.5745    3.0707 H   0  0  0  0  0  0  0  0  0  0  0  0
   -3.1801    3.7438    0.9651 N   0  0  0  0  0  0  0  0  0  0  0  0
   -3.8437    4.5063    0.9622 H   0  0  0  0  0  0  0  0  0  0  0  0
   -2.7209    3.0587   -0.1378 C   0  0  0  0  0  0  0  0  0  0  0  0
   -2.9806    3.2261   -1.1755 H   0  0  0  0  0  0  0  0  0  0  0  0
   -0.0283    0.1609    1.5831 C   0  0  0  0  0  0  0  0  0  0  0  0
    1.1923    0.1056    1.7329 O   0  0  0  0  0  0  0  0  0  0  0  0
   -0.8586    0.4659    2.5853 N   0  0  0  0  0  0  0  0  0  0  0  0
   -1.8521    0.3848    2.4000 H   0  0  0  0  0  0  0  0  0  0  0  0
   -0.4403    0.7694    3.9518 C   0  0  0  0  0  0  0  0  0  0  0  0
    0.5066    1.3154    3.9421 H   0  0  0  0  0  0  0  0  0  0  0  0
   -1.1988    1.3789    4.4452 H   0  0  0  0  0  0  0  0  0  0  0  0
   -0.3053   -0.1600    4.5075 H   0  0  0  0  0  0  0  0  0  0  0  0
  5  6  2  0  0  0  0
  5  7  1  0  0  0  0
  2  3  1  0  0  0  0
  2  4  1  0  0  0  0
  2  5  1  0  0  0  0
  1  2  1  0  0  0  0
 22 23  2  0  0  0  0
 22 24  1  0  0  0  0
 20 21  1  0  0  0  0
 18 19  1  0  0  0  0
 18 20  1  0  0  0  0
 16 17  1  0  0  0  0
 16 18  1  0  0  0  0
 15 16  2  0  0  0  0
 14 15  1  0  0  0  0
 14 20  2  0  0  0  0
 11 12  1  0  0  0  0
 11 13  1  0  0  0  0
 11 14  1  0  0  0  0
  9 10  1  0  0  0  0
  9 11  1  0  0  0  0
  9 22  1  0  0  0  0
  7  8  1  0  0  0  0
  7  9  1  0  0  0  0
 26 27  1  0  0  0  0
 26 28  1  0  0  0  0
 26 29  1  0  0  0  0
 24 25  1  0  0  0  0
 24 26  1  0  0  0  0
M  END
$$$$
default_name
  -OEChem-02102213163D

 29 29  0     1  0  0  0  0  0999 V2000
   -2.9561   -3.9186    1.3887 H   0  0  0  0  0  0  0  0  0  0  0  0
   -3.1191   -2.9346    0.9517 C   0  0  0  0  0  0  0  0  0  0  0  0
   -3.7811   -2.3546    1.5917 H   0  0  0  0  0  0  0  0  0  0  0  0
   -3.5591   -3.0406   -0.0383 H   0  0  0  0  0  0  0  0  0  0  0  0
   -1.7921   -2.2226    0.8327 C   0  0  0  0  0  0  0  0  0  0  0  0
   -0.7611   -2.7766    1.1927 O   0  0  0  0  0  0  0  0  0  0  0  0
   -1.8201   -0.9926    0.3247 N   0  0  0  0  0  0  0  0  0  0  0  0
   -2.7141   -0.5816    0.0927 H   0  0  0  0  0  0  0  0  0  0  0  0
   -0.6481   -0.1156    0.2017 C   0  0  1  0  0  0  0  0  0  0  0  0
    0.1042   -0.6345   -0.3958 H   0  0  0  0  0  0  0  0  0  0  0  0
   -1.0420    1.1781   -0.5372 C   0  0  0  0  0  0  0  0  0  0  0  0
   -0.1440    1.7078   -0.8586 H   0  0  0  0  0  0  0  0  0  0  0  0
   -1.6158    0.9321   -1.4318 H   0  0  0  0  0  0  0  0  0  0  0  0
   -1.8382    2.1271    0.3251 C   0  0  0  0  0  0  0  0  0  0  0  0
   -1.5475    2.4709    1.6460 N   0  0  0  0  0  0  0  0  0  0  0  0
   -2.4752    3.3697    2.0063 C   0  0  0  0  0  0  0  0  0  0  0  0
   -2.5356    3.8291    2.9849 H   0  0  0  0  0  0  0  0  0  0  0  0
   -3.3068    3.6224    0.9817 N   0  0  0  0  0  0  0  0  0  0  0  0
   -4.0759    4.2782    0.9988 H   0  0  0  0  0  0  0  0  0  0  0  0
   -2.9181    2.8500   -0.0902 C   0  0  0  0  0  0  0  0  0  0  0  0
   -3.3562    2.8242   -1.0800 H   0  0  0  0  0  0  0  0  0  0  0  0
   -0.0283    0.1609    1.5831 C   0  0  0  0  0  0  0  0  0  0  0  0
    1.1923    0.1056    1.7329 O   0  0  0  0  0  0  0  0  0  0  0  0
   -0.8586    0.4659    2.5853 N   0  0  0  0  0  0  0  0  0  0  0  0
   -1.8521    0.3848    2.4000 H   0  0  0  0  0  0  0  0  0  0  0  0
   -0.4403    0.7694    3.9518 C   0  0  0  0  0  0  0  0  0  0  0  0
    0.5066    1.3154    3.9421 H   0  0  0  0  0  0  0  0  0  0  0  0
   -1.1988    1.3789    4.4452 H   0  0  0  0  0  0  0  0  0  0  0  0
   -0.3053   -0.1600    4.5075 H   0  0  0  0  0  0  0  0  0  0  0  0
  5  6  2  0  0  0  0
  5  7  1  0  0  0  0
  2  3  1  0  0  0  0
  2  4  1  0  0  0  0
  2  5  1  0  0  0  0
  1  2  1  0  0  0  0
 22 23  2  0  0  0  0
 22 24  1  0  0  0  0
 20 21  1  0  0  0  0
 18 19  1  0  0  0  0
 18 20  1  0  0  0  0
 16 17  1  0  0  0  0
 16 18  1  0  0  0  0
 15 16  2  0  0  0  0
 14 15  1  0  0  0  0
 14 20  2  0  0  0  0
 11 12  1  0  0  0  0
 11 13  1  0  0  0  0
 11 14  1  0  0  0  0
  9 10  1  0  0  0  0
  9 11  1  0  0  0  0
  9 22  1  0  0  0  0
  7  8  1  0  0  0  0
  7  9  1  0  0  0  0
 26 27  1  0  0  0  0
 26 28  1  0  0  0  0
 26 29  1  0  0  0  0
 24 25  1  0  0  0  0
 24 26  1  0  0  0  0
M  END
$$$$
default_name
  -OEChem-02102213163D

 29 29  0     1  0  0  0  0  0999 V2000
   -2.9561   -3.9186    1.3887 H   0  0  0  0  0  0  0  0  0  0  0  0
   -3.1191   -2.9346    0.9517 C   0  0  0  0  0  0  0  0  0  0  0  0
   -3.7811   -2.3546    1.5917 H   0  0  0  0  0  0  0  0  0  0  0  0
   -3.5591   -3.0406   -0.0383 H   0  0  0  0  0  0  0  0  0  0  0  0
   -1.7921   -2.2226    0.8327 C   0  0  0  0  0  0  0  0  0  0  0  0
   -0.7611   -2.7766    1.1927 O   0  0  0  0  0  0  0  0  0  0  0  0
   -1.8201   -0.9926    0.3247 N   0  0  0  0  0  0  0  0  0  0  0  0
   -2.7141   -0.5816    0.0927 H   0  0  0  0  0  0  0  0  0  0  0  0
   -0.6481   -0.1156    0.2017 C   0  0  1  0  0  0  0  0  0  0  0  0
    0.1042   -0.6345   -0.3958 H   0  0  0  0  0  0  0  0  0  0  0  0
   -1.0420    1.1781   -0.5372 C   0  0  0  0  0  0  0  0  0  0  0  0
   -0.1440    1.7078   -0.8586 H   0  0  0  0  0  0  0  0  0  0  0  0
   -1.6158    0.9321   -1.4318 H   0  0  0  0  0  0  0  0  0  0  0  0
   -1.8382    2.1271    0.3251 C   0  0  0  0  0  0  0  0  0  0  0  0
   -1.4080    2.7000    1.5227 N   0  0  0  0  0  0  0  0  0  0  0  0
   -2.4010    3.5072    1.9235 C   0  0  0  0  0  0  0  0  0  0  0  0
   -2.3838    4.0945    2.8329 H   0  0  0  0  0  0  0  0  0  0  0  0
   -3.4086    3.4887    1.0348 N   0  0  0  0  0  0  0  0  0  0  0  0
   -4.2606    4.0285    1.1032 H   0  0  0  0  0  0  0  0  0  0  0  0
   -3.0699    2.6259    0.0163 C   0  0  0  0  0  0  0  0  0  0  0  0
   -3.6440    2.3935   -0.8718 H   0  0  0  0  0  0  0  0  0  0  0  0
   -0.0283    0.1609    1.5831 C   0  0  0  0  0  0  0  0  0  0  0  0
    1.1923    0.1056    1.7329 O   0  0  0  0  0  0  0  0  0  0  0  0
   -0.8586    0.4659    2.5853 N   0  0  0  0  0  0  0  0  0  0  0  0
   -1.8521    0.3848    2.4000 H   0  0  0  0  0  0  0  0  0  0  0  0
   -0.4403    0.7694    3.9518 C   0  0  0  0  0  0  0  0  0  0  0  0
    0.5066    1.3154    3.9421 H   0  0  0  0  0  0  0  0  0  0  0  0
   -1.1988    1.3789    4.4452 H   0  0  0  0  0  0  0  0  0  0  0  0
   -0.3053   -0.1600    4.5075 H   0  0  0  0  0  0  0  0  0  0  0  0
  5  6  2  0  0  0  0
  5  7  1  0  0  0  0
  2  3  1  0  0  0  0
  2  4  1  0  0  0  0
  2  5  1  0  0  0  0
  1  2  1  0  0  0  0
 22 23  2  0  0  0  0
 22 24  1  0  0  0  0
 20 21  1  0  0  0  0
 18 19  1  0  0  0  0
 18 20  1  0  0  0  0
 16 17  1  0  0  0  0
 16 18  1  0  0  0  0
 15 16  2  0  0  0  0
 14 15  1  0  0  0  0
 14 20  2  0  0  0  0
 11 12  1  0  0  0  0
 11 13  1  0  0  0  0
 11 14  1  0  0  0  0
  9 10  1  0  0  0  0
  9 11  1  0  0  0  0
  9 22  1  0  0  0  0
  7  8  1  0  0  0  0
  7  9  1  0  0  0  0
 26 27  1  0  0  0  0
 26 28  1  0  0  0  0
 26 29  1  0  0  0  0
 24 25  1  0  0  0  0
 24 26  1  0  0  0  0
M  END
$$$$
default_name
  -OEChem-02102213163D

 29 29  0     1  0  0  0  0  0999 V2000
   -2.9561   -3.9186    1.3887 H   0  0  0  0  0  0  0  0  0  0  0  0
   -3.1191   -2.9346    0.9517 C   0  0  0  0  0  0  0  0  0  0  0  0
   -3.7811   -2.3546    1.5917 H   0  0  0  0  0  0  0  0  0  0  0  0
   -3.5591   -3.0406   -0.0383 H   0  0  0  0  0  0  0  0  0  0  0  0
   -1.7921   -2.2226    0.8327 C   0  0  0  0  0  0  0  0  0  0  0  0
   -0.7611   -2.7766    1.1927 O   0  0  0  0  0  0  0  0  0  0  0  0
   -1.8201   -0.9926    0.3247 N   0  0  0  0  0  0  0  0  0  0  0  0
   -2.7141   -0.5816    0.0927 H   0  0  0  0  0  0  0  0  0  0  0  0
   -0.6481   -0.1156    0.2017 C   0  0  1  0  0  0  0  0  0  0  0  0
    0.1042   -0.6345   -0.3958 H   0  0  0  0  0  0  0  0  0  0  0  0
   -1.0420    1.1781   -0.5372 C   0  0  0  0  0  0  0  0  0  0  0  0
   -0.1440    1.7078   -0.8586 H   0  0  0  0  0  0  0  0  0  0  0  0
   -1.6158    0.9321   -1.4318 H   0  0  0  0  0  0  0  0  0  0  0  0
   -1.8382    2.1271    0.3251 C   0  0  0  0  0  0  0  0  0  0  0  0
   -1.3272    2.9251    1.3496 N   0  0  0  0  0  0  0  0  0  0  0  0
   -2.3632    3.6397    1.8127 C   0  0  0  0  0  0  0  0  0  0  0  0
   -2.3012    4.3525    2.6253 H   0  0  0  0  0  0  0  0  0  0  0  0
   -3.4785    3.3517    1.1210 N   0  0  0  0  0  0  0  0  0  0  0  0
   -4.3850    3.7742    1.2681 H   0  0  0  0  0  0  0  0  0  0  0  0
   -3.1661    2.4015    0.1745 C   0  0  0  0  0  0  0  0  0  0  0  0
   -3.8245    1.9633   -0.5650 H   0  0  0  0  0  0  0  0  0  0  0  0
   -0.0283    0.1609    1.5831 C   0  0  0  0  0  0  0  0  0  0  0  0
    1.1923    0.1056    1.7329 O   0  0  0  0  0  0  0  0  0  0  0  0
   -0.8586    0.4659    2.5853 N   0  0  0  0  0  0  0  0  0  0  0  0
   -1.8521    0.3848    2.4000 H   0  0  0  0  0  0  0  0  0  0  0  0
   -0.4403    0.7694    3.9518 C   0  0  0  0  0  0  0  0  0  0  0  0
    0.5066    1.3154    3.9421 H   0  0  0  0  0  0  0  0  0  0  0  0
   -1.1988    1.3789    4.4452 H   0  0  0  0  0  0  0  0  0  0  0  0
   -0.3053   -0.1600    4.5075 H   0  0  0  0  0  0  0  0  0  0  0  0
  5  6  2  0  0  0  0
  5  7  1  0  0  0  0
  2  3  1  0  0  0  0
  2  4  1  0  0  0  0
  2  5  1  0  0  0  0
  1  2  1  0  0  0  0
 22 23  2  0  0  0  0
 22 24  1  0  0  0  0
 20 21  1  0  0  0  0
 18 19  1  0  0  0  0
 18 20  1  0  0  0  0
 16 17  1  0  0  0  0
 16 18  1  0  0  0  0
 15 16  2  0  0  0  0
 14 15  1  0  0  0  0
 14 20  2  0  0  0  0
 11 12  1  0  0  0  0
 11 13  1  0  0  0  0
 11 14  1  0  0  0  0
  9 10  1  0  0  0  0
  9 11  1  0  0  0  0
  9 22  1  0  0  0  0
  7  8  1  0  0  0  0
  7  9  1  0  0  0  0
 26 27  1  0  0  0  0
 26 28  1  0  0  0  0
 26 29  1  0  0  0  0
 24 25  1  0  0  0  0
 24 26  1  0  0  0  0
M  END
$$$$
default_name
  -OEChem-02102213163D

 29 29  0     1  0  0  0  0  0999 V2000
   -2.9561   -3.9186    1.3887 H   0  0  0  0  0  0  0  0  0  0  0  0
   -3.1191   -2.9346    0.9517 C   0  0  0  0  0  0  0  0  0  0  0  0
   -3.7811   -2.3546    1.5917 H   0  0  0  0  0  0  0  0  0  0  0  0
   -3.5591   -3.0406   -0.0383 H   0  0  0  0  0  0  0  0  0  0  0  0
   -1.7921   -2.2226    0.8327 C   0  0  0  0  0  0  0  0  0  0  0  0
   -0.7611   -2.7766    1.1927 O   0  0  0  0  0  0  0  0  0  0  0  0
   -1.8201   -0.9926    0.3247 N   0  0  0  0  0  0  0  0  0  0  0  0
   -2.7141   -0.5816    0.0927 H   0  0  0  0  0  0  0  0  0  0  0  0
   -0.6481   -0.1156    0.2017 C   0  0  1  0  0  0  0  0  0  0  0  0
    0.1042   -0.6345   -0.3958 H   0  0  0  0  0  0  0  0  0  0  0  0
   -1.0420    1.1781   -0.5372 C   0  0  0  0  0  0  0  0  0  0  0  0
   -0.1440    1.7078   -0.8586 H   0  0  0  0  0  0  0  0  0  0  0  0
   -1.6158    0.9321   -1.4318 H   0  0  0  0  0  0  0  0  0  0  0  0
   -1.8382    2.1271    0.3251 C   0  0  0  0  0  0  0  0  0  0  0  0
   -1.3106    3.1309    1.1385 N   0  0  0  0  0  0  0  0  0  0  0  0
   -2.3642    3.7581    1.6814 C   0  0  0  0  0  0  0  0  0  0  0  0
   -2.2933    4.5856    2.3760 H   0  0  0  0  0  0  0  0  0  0  0  0
   -3.5117    3.2209    1.2343 N   0  0  0  0  0  0  0  0  0  0  0  0
   -4.4408    3.5327    1.4823 H   0  0  0  0  0  0  0  0  0  0  0  0
   -3.2000    2.1921    0.3736 C   0  0  0  0  0  0  0  0  0  0  0  0
   -3.8853    1.5630   -0.1806 H   0  0  0  0  0  0  0  0  0  0  0  0
   -0.0283    0.1609    1.5831 C   0  0  0  0  0  0  0  0  0  0  0  0
    1.1923    0.1056    1.7329 O   0  0  0  0  0  0  0  0  0  0  0  0
   -0.8586    0.4659    2.5853 N   0  0  0  0  0  0  0  0  0  0  0  0
   -1.8521    0.3848    2.4000 H   0  0  0  0  0  0  0  0  0  0  0  0
   -0.4403    0.7694    3.9518 C   0  0  0  0  0  0  0  0  0  0  0  0
    0.5066    1.3154    3.9421 H   0  0  0  0  0  0  0  0  0  0  0  0
   -1.1988    1.3789    4.4452 H   0  0  0  0  0  0  0  0  0  0  0  0
   -0.3053   -0.1600    4.5075 H   0  0  0  0  0  0  0  0  0  0  0  0
  5  6  2  0  0  0  0
  5  7  1  0  0  0  0
  2  3  1  0  0  0  0
  2  4  1  0  0  0  0
  2  5  1  0  0  0  0
  1  2  1  0  0  0  0
 22 23  2  0  0  0  0
 22 24  1  0  0  0  0
 20 21  1  0  0  0  0
 18 19  1  0  0  0  0
 18 20  1  0  0  0  0
 16 17  1  0  0  0  0
 16 18  1  0  0  0  0
 15 16  2  0  0  0  0
 14 15  1  0  0  0  0
 14 20  2  0  0  0  0
 11 12  1  0  0  0  0
 11 13  1  0  0  0  0
 11 14  1  0  0  0  0
  9 10  1  0  0  0  0
  9 11  1  0  0  0  0
  9 22  1  0  0  0  0
  7  8  1  0  0  0  0
  7  9  1  0  0  0  0
 26 27  1  0  0  0  0
 26 28  1  0  0  0  0
 26 29  1  0  0  0  0
 24 25  1  0  0  0  0
 24 26  1  0  0  0  0
M  END
$$$$
default_name
  -OEChem-02102213163D

 29 29  0     1  0  0  0  0  0999 V2000
   -2.9561   -3.9186    1.3887 H   0  0  0  0  0  0  0  0  0  0  0  0
   -3.1191   -2.9346    0.9517 C   0  0  0  0  0  0  0  0  0  0  0  0
   -3.7811   -2.3546    1.5917 H   0  0  0  0  0  0  0  0  0  0  0  0
   -3.5591   -3.0406   -0.0383 H   0  0  0  0  0  0  0  0  0  0  0  0
   -1.7921   -2.2226    0.8327 C   0  0  0  0  0  0  0  0  0  0  0  0
   -0.7611   -2.7766    1.1927 O   0  0  0  0  0  0  0  0  0  0  0  0
   -1.8201   -0.9926    0.3247 N   0  0  0  0  0  0  0  0  0  0  0  0
   -2.7141   -0.5816    0.0927 H   0  0  0  0  0  0  0  0  0  0  0  0
   -0.6481   -0.1156    0.2017 C   0  0  1  0  0  0  0  0  0  0  0  0
    0.1042   -0.6345   -0.3958 H   0  0  0  0  0  0  0  0  0  0  0  0
   -1.0420    1.1781   -0.5372 C   0  0  0  0  0  0  0  0  0  0  0  0
   -0.1440    1.7078   -0.8586 H   0  0  0  0  0  0  0  0  0  0  0  0
   -1.6158    0.9321   -1.4318 H   0  0  0  0  0  0  0  0  0  0  0  0
   -1.8382    2.1271    0.3251 C   0  0  0  0  0  0  0  0  0  0  0  0
   -1.3593    3.3032    0.9038 N   0  0  0  0  0  0  0  0  0  0  0  0
   -2.4041    3.8544    1.5385 C   0  0  0  0  0  0  0  0  0  0  0  0
   -2.3607    4.7779    2.1021 H   0  0  0  0  0  0  0  0  0  0  0  0
   -3.5060    3.1051    1.3671 N   0  0  0  0  0  0  0  0  0  0  0  0
   -4.4241    3.3205    1.7313 H   0  0  0  0  0  0  0  0  0  0  0  0
   -3.1695    2.0119    0.6000 C   0  0  0  0  0  0  0  0  0  0  0  0
   -3.8222    1.2198    0.2553 H   0  0  0  0  0  0  0  0  0  0  0  0
   -0.0283    0.1609    1.5831 C   0  0  0  0  0  0  0  0  0  0  0  0
    1.1923    0.1056    1.7329 O   0  0  0  0  0  0  0  0  0  0  0  0
   -0.8586    0.4659    2.5853 N   0  0  0  0  0  0  0  0  0  0  0  0
   -1.8521    0.3848    2.4000 H   0  0  0  0  0  0  0  0  0  0  0  0
   -0.4403    0.7694    3.9518 C   0  0  0  0  0  0  0  0  0  0  0  0
    0.5066    1.3154    3.9421 H   0  0  0  0  0  0  0  0  0  0  0  0
   -1.1988    1.3789    4.4452 H   0  0  0  0  0  0  0  0  0  0  0  0
   -0.3053   -0.1600    4.5075 H   0  0  0  0  0  0  0  0  0  0  0  0
  5  6  2  0  0  0  0
  5  7  1  0  0  0  0
  2  3  1  0  0  0  0
  2  4  1  0  0  0  0
  2  5  1  0  0  0  0
  1  2  1  0  0  0  0
 22 23  2  0  0  0  0
 22 24  1  0  0  0  0
 20 21  1  0  0  0  0
 18 19  1  0  0  0  0
 18 20  1  0  0  0  0
 16 17  1  0  0  0  0
 16 18  1  0  0  0  0
 15 16  2  0  0  0  0
 14 15  1  0  0  0  0
 14 20  2  0  0  0  0
 11 12  1  0  0  0  0
 11 13  1  0  0  0  0
 11 14  1  0  0  0  0
  9 10  1  0  0  0  0
  9 11  1  0  0  0  0
  9 22  1  0  0  0  0
  7  8  1  0  0  0  0
  7  9  1  0  0  0  0
 26 27  1  0  0  0  0
 26 28  1  0  0  0  0
 26 29  1  0  0  0  0
 24 25  1  0  0  0  0
 24 26  1  0  0  0  0
M  END
$$$$
default_name
  -OEChem-02102213163D

 29 29  0     1  0  0  0  0  0999 V2000
   -2.9561   -3.9186    1.3887 H   0  0  0  0  0  0  0  0  0  0  0  0
   -3.1191   -2.9346    0.9517 C   0  0  0  0  0  0  0  0  0  0  0  0
   -3.7811   -2.3546    1.5917 H   0  0  0  0  0  0  0  0  0  0  0  0
   -3.5591   -3.0406   -0.0383 H   0  0  0  0  0  0  0  0  0  0  0  0
   -1.7921   -2.2226    0.8327 C   0  0  0  0  0  0  0  0  0  0  0  0
   -0.7611   -2.7766    1.1927 O   0  0  0  0  0  0  0  0  0  0  0  0
   -1.8201   -0.9926    0.3247 N   0  0  0  0  0  0  0  0  0  0  0  0
   -2.7141   -0.5816    0.0927 H   0  0  0  0  0  0  0  0  0  0  0  0
   -0.6481   -0.1156    0.2017 C   0  0  1  0  0  0  0  0  0  0  0  0
    0.1042   -0.6345   -0.3958 H   0  0  0  0  0  0  0  0  0  0  0  0
   -1.0420    1.1781   -0.5372 C   0  0  0  0  0  0  0  0  0  0  0  0
   -0.1440    1.7078   -0.8586 H   0  0  0  0  0  0  0  0  0  0  0  0
   -1.6158    0.9321   -1.4318 H   0  0  0  0  0  0  0  0  0  0  0  0
   -1.8382    2.1271    0.3251 C   0  0  0  0  0  0  0  0  0  0  0  0
   -1.4701    3.4305    0.6615 N   0  0  0  0  0  0  0  0  0  0  0  0
   -2.4801    3.9221    1.3939 C   0  0  0  0  0  0  0  0  0  0  0  0
   -2.4989    4.9163    1.8223 H   0  0  0  0  0  0  0  0  0  0  0  0
   -3.4618    3.0121    1.5102 N   0  0  0  0  0  0  0  0  0  0  0  0
   -4.3360    3.1520    1.9981 H   0  0  0  0  0  0  0  0  0  0  0  0
   -3.0765    1.8734    0.8383 C   0  0  0  0  0  0  0  0  0  0  0  0
   -3.6397    0.9572    0.7129 H   0  0  0  0  0  0  0  0  0  0  0  0
   -0.0283    0.1609    1.5831 C   0  0  0  0  0  0  0  0  0  0  0  0
    1.1923    0.1056    1.7329 O   0  0  0  0  0  0  0  0  0  0  0  0
   -0.8586    0.4659    2.5853 N   0  0  0  0  0  0  0  0  0  0  0  0
   -1.8521    0.3848    2.4000 H   0  0  0  0  0  0  0  0  0  0  0  0
   -0.4403    0.7694    3.9518 C   0  0  0  0  0  0  0  0  0  0  0  0
    0.5066    1.3154    3.9421 H   0  0  0  0  0  0  0  0  0  0  0  0
   -1.1988    1.3789    4.4452 H   0  0  0  0  0  0  0  0  0  0  0  0
   -0.3053   -0.1600    4.5075 H   0  0  0  0  0  0  0  0  0  0  0  0
  5  6  2  0  0  0  0
  5  7  1  0  0  0  0
  2  3  1  0  0  0  0
  2  4  1  0  0  0  0
  2  5  1  0  0  0  0
  1  2  1  0  0  0  0
 22 23  2  0  0  0  0
 22 24  1  0  0  0  0
 20 21  1  0  0  0  0
 18 19  1  0  0  0  0
 18 20  1  0  0  0  0
 16 17  1  0  0  0  0
 16 18  1  0  0  0  0
 15 16  2  0  0  0  0
 14 15  1  0  0  0  0
 14 20  2  0  0  0  0
 11 12  1  0  0  0  0
 11 13  1  0  0  0  0
 11 14  1  0  0  0  0
  9 10  1  0  0  0  0
  9 11  1  0  0  0  0
  9 22  1  0  0  0  0
  7  8  1  0  0  0  0
  7  9  1  0  0  0  0
 26 27  1  0  0  0  0
 26 28  1  0  0  0  0
 26 29  1  0  0  0  0
 24 25  1  0  0  0  0
 24 26  1  0  0  0  0
M  END
$$$$
default_name
  -OEChem-02102213163D

 29 29  0     1  0  0  0  0  0999 V2000
   -2.9561   -3.9186    1.3887 H   0  0  0  0  0  0  0  0  0  0  0  0
   -3.1191   -2.9346    0.9517 C   0  0  0  0  0  0  0  0  0  0  0  0
   -3.7811   -2.3546    1.5917 H   0  0  0  0  0  0  0  0  0  0  0  0
   -3.5591   -3.0406   -0.0383 H   0  0  0  0  0  0  0  0  0  0  0  0
   -1.7921   -2.2226    0.8327 C   0  0  0  0  0  0  0  0  0  0  0  0
   -0.7611   -2.7766    1.1927 O   0  0  0  0  0  0  0  0  0  0  0  0
   -1.8201   -0.9926    0.3247 N   0  0  0  0  0  0  0  0  0  0  0  0
   -2.7141   -0.5816    0.0927 H   0  0  0  0  0  0  0  0  0  0  0  0
   -0.6481   -0.1156    0.2017 C   0  0  1  0  0  0  0  0  0  0  0  0
    0.1042   -0.6345   -0.3958 H   0  0  0  0  0  0  0  0  0  0  0  0
   -1.0420    1.1781   -0.5372 C   0  0  0  0  0  0  0  0  0  0  0  0
   -0.1440    1.7078   -0.8586 H   0  0  0  0  0  0  0  0  0  0  0  0
   -1.6158    0.9321   -1.4318 H   0  0  0  0  0  0  0  0  0  0  0  0
   -1.8382    2.1271    0.3251 C   0  0  0  0  0  0  0  0  0  0  0  0
   -1.6353    3.5039    0.4281 N   0  0  0  0  0  0  0  0  0  0  0  0
   -2.5871    3.9564    1.2573 C   0  0  0  0  0  0  0  0  0  0  0  0
   -2.6983    4.9913    1.5556 H   0  0  0  0  0  0  0  0  0  0  0  0
   -3.3821    2.9485    1.6539 N   0  0  0  0  0  0  0  0  0  0  0  0
   -4.1826    3.0386    2.2645 H   0  0  0  0  0  0  0  0  0  0  0  0
   -2.9274    1.7859    1.0723 C   0  0  0  0  0  0  0  0  0  0  0  0
   -3.3500    0.7930    1.1611 H   0  0  0  0  0  0  0  0  0  0  0  0
   -0.0283    0.1609    1.5831 C   0  0  0  0  0  0  0  0  0  0  0  0
    1.1923    0.1056    1.7329 O   0  0  0  0  0  0  0  0  0  0  0  0
   -0.8586    0.4659    2.5853 N   0  0  0  0  0  0  0  0  0  0  0  0
   -1.8521    0.3848    2.4000 H   0  0  0  0  0  0  0  0  0  0  0  0
   -0.4403    0.7694    3.9518 C   0  0  0  0  0  0  0  0  0  0  0  0
    0.5066    1.3154    3.9421 H   0  0  0  0  0  0  0  0  0  0  0  0
   -1.1988    1.3789    4.4452 H   0  0  0  0  0  0  0  0  0  0  0  0
   -0.3053   -0.1600    4.5075 H   0  0  0  0  0  0  0  0  0  0  0  0
  5  6  2  0  0  0  0
  5  7  1  0  0  0  0
  2  3  1  0  0  0  0
  2  4  1  0  0  0  0
  2  5  1  0  0  0  0
  1  2  1  0  0  0  0
 22 23  2  0  0  0  0
 22 24  1  0  0  0  0
 20 21  1  0  0  0  0
 18 19  1  0  0  0  0
 18 20  1  0  0  0  0
 16 17  1  0  0  0  0
 16 18  1  0  0  0  0
 15 16  2  0  0  0  0
 14 15  1  0  0  0  0
 14 20  2  0  0  0  0
 11 12  1  0  0  0  0
 11 13  1  0  0  0  0
 11 14  1  0  0  0  0
  9 10  1  0  0  0  0
  9 11  1  0  0  0  0
  9 22  1  0  0  0  0
  7  8  1  0  0  0  0
  7  9  1  0  0  0  0
 26 27  1  0  0  0  0
 26 28  1  0  0  0  0
 26 29  1  0  0  0  0
 24 25  1  0  0  0  0
 24 26  1  0  0  0  0
M  END
$$$$
default_name
  -OEChem-02102213163D

 29 29  0     1  0  0  0  0  0999 V2000
   -2.9561   -3.9186    1.3887 H   0  0  0  0  0  0  0  0  0  0  0  0
   -3.1191   -2.9346    0.9517 C   0  0  0  0  0  0  0  0  0  0  0  0
   -3.7811   -2.3546    1.5917 H   0  0  0  0  0  0  0  0  0  0  0  0
   -3.5591   -3.0406   -0.0383 H   0  0  0  0  0  0  0  0  0  0  0  0
   -1.7921   -2.2226    0.8327 C   0  0  0  0  0  0  0  0  0  0  0  0
   -0.7611   -2.7766    1.1927 O   0  0  0  0  0  0  0  0  0  0  0  0
   -1.8201   -0.9926    0.3247 N   0  0  0  0  0  0  0  0  0  0  0  0
   -2.7141   -0.5816    0.0927 H   0  0  0  0  0  0  0  0  0  0  0  0
   -0.6481   -0.1156    0.2017 C   0  0  1  0  0  0  0  0  0  0  0  0
    0.1042   -0.6345   -0.3958 H   0  0  0  0  0  0  0  0  0  0  0  0
   -1.0420    1.1781   -0.5372 C   0  0  0  0  0  0  0  0  0  0  0  0
   -0.1440    1.7078   -0.8586 H   0  0  0  0  0  0  0  0  0  0  0  0
   -1.6158    0.9321   -1.4318 H   0  0  0  0  0  0  0  0  0  0  0  0
   -1.8382    2.1271    0.3251 C   0  0  0  0  0  0  0  0  0  0  0  0
   -1.8437    3.5186    0.2195 N   0  0  0  0  0  0  0  0  0  0  0  0
   -2.7177    3.9552    1.1382 C   0  0  0  0  0  0  0  0  0  0  0  0
   -2.9454    4.9979    1.3202 H   0  0  0  0  0  0  0  0  0  0  0  0
   -3.2723    2.9184    1.7884 N   0  0  0  0  0  0  0  0  0  0  0  0
   -3.9744    2.9882    2.5123 H   0  0  0  0  0  0  0  0  0  0  0  0
   -2.7324    1.7553    1.2860 C   0  0  0  0  0  0  0  0  0  0  0  0
   -2.9730    0.7383    1.5693 H   0  0  0  0  0  0  0  0  0  0  0  0
   -0.0283    0.1609    1.5831 C   0  0  0  0  0  0  0  0  0  0  0  0
    1.1923    0.1056    1.7329 O   0  0  0  0  0  0  0  0  0  0  0  0
   -0.8586    0.4659    2.5853 N   0  0  0  0  0  0  0  0  0  0  0  0
   -1.8521    0.3848    2.4000 H   0  0  0  0  0  0  0  0  0  0  0  0
   -0.4403    0.7694    3.9518 C   0  0  0  0  0  0  0  0  0  0  0  0
    0.5066    1.3154    3.9421 H   0  0  0  0  0  0  0  0  0  0  0  0
   -1.1988    1.3789    4.4452 H   0  0  0  0  0  0  0  0  0  0  0  0
   -0.3053   -0.1600    4.5075 H   0  0  0  0  0  0  0  0  0  0  0  0
  5  6  2  0  0  0  0
  5  7  1  0  0  0  0
  2  3  1  0  0  0  0
  2  4  1  0  0  0  0
  2  5  1  0  0  0  0
  1  2  1  0  0  0  0
 22 23  2  0  0  0  0
 22 24  1  0  0  0  0
 20 21  1  0  0  0  0
 18 19  1  0  0  0  0
 18 20  1  0  0  0  0
 16 17  1  0  0  0  0
 16 18  1  0  0  0  0
 15 16  2  0  0  0  0
 14 15  1  0  0  0  0
 14 20  2  0  0  0  0
 11 12  1  0  0  0  0
 11 13  1  0  0  0  0
 11 14  1  0  0  0  0
  9 10  1  0  0  0  0
  9 11  1  0  0  0  0
  9 22  1  0  0  0  0
  7  8  1  0  0  0  0
  7  9  1  0  0  0  0
 26 27  1  0  0  0  0
 26 28  1  0  0  0  0
 26 29  1  0  0  0  0
 24 25  1  0  0  0  0
 24 26  1  0  0  0  0
M  END
$$$$
default_name
  -OEChem-02102213163D

 29 29  0     1  0  0  0  0  0999 V2000
   -2.9561   -3.9186    1.3887 H   0  0  0  0  0  0  0  0  0  0  0  0
   -3.1191   -2.9346    0.9517 C   0  0  0  0  0  0  0  0  0  0  0  0
   -3.7811   -2.3546    1.5917 H   0  0  0  0  0  0  0  0  0  0  0  0
   -3.5591   -3.0406   -0.0383 H   0  0  0  0  0  0  0  0  0  0  0  0
   -1.7921   -2.2226    0.8327 C   0  0  0  0  0  0  0  0  0  0  0  0
   -0.7611   -2.7766    1.1927 O   0  0  0  0  0  0  0  0  0  0  0  0
   -1.8201   -0.9926    0.3247 N   0  0  0  0  0  0  0  0  0  0  0  0
   -2.7141   -0.5816    0.0927 H   0  0  0  0  0  0  0  0  0  0  0  0
   -0.6481   -0.1156    0.2017 C   0  0  1  0  0  0  0  0  0  0  0  0
    0.1042   -0.6345   -0.3958 H   0  0  0  0  0  0  0  0  0  0  0  0
   -1.0420    1.1781   -0.5372 C   0  0  0  0  0  0  0  0  0  0  0  0
   -0.1440    1.7078   -0.8586 H   0  0  0  0  0  0  0  0  0  0  0  0
   -1.6158    0.9321   -1.4318 H   0  0  0  0  0  0  0  0  0  0  0  0
   -1.8382    2.1271    0.3251 C   0  0  0  0  0  0  0  0  0  0  0  0
   -2.0812    3.4735    0.0500 N   0  0  0  0  0  0  0  0  0  0  0  0
   -2.8631    3.9183    1.0445 C   0  0  0  0  0  0  0  0  0  0  0  0
   -3.2234    4.9356    1.1321 H   0  0  0  0  0  0  0  0  0  0  0  0
   -3.1398    2.9239    1.9046 N   0  0  0  0  0  0  0  0  0  0  0  0
   -3.7254    3.0041    2.7246 H   0  0  0  0  0  0  0  0  0  0  0  0
   -2.5047    1.7838    1.4649 C   0  0  0  0  0  0  0  0  0  0  0  0
   -2.5343    0.7971    1.9097 H   0  0  0  0  0  0  0  0  0  0  0  0
   -0.0283    0.1609    1.5831 C   0  0  0  0  0  0  0  0  0  0  0  0
    1.1923    0.1056    1.7329 O   0  0  0  0  0  0  0  0  0  0  0  0
   -0.8586    0.4659    2.5853 N   0  0  0  0  0  0  0  0  0  0  0  0
   -1.8521    0.3848    2.4000 H   0  0  0  0  0  0  0  0  0  0  0  0
   -0.4403    0.7694    3.9518 C   0  0  0  0  0  0  0  0  0  0  0  0
    0.5066    1.3154    3.9421 H   0  0  0  0  0  0  0  0  0  0  0  0
   -1.1988    1.3789    4.4452 H   0  0  0  0  0  0  0  0  0  0  0  0
   -0.3053   -0.1600    4.5075 H   0  0  0  0  0  0  0  0  0  0  0  0
  5  6  2  0  0  0  0
  5  7  1  0  0  0  0
  2  3  1  0  0  0  0
  2  4  1  0  0  0  0
  2  5  1  0  0  0  0
  1  2  1  0  0  0  0
 22 23  2  0  0  0  0
 22 24  1  0  0  0  0
 20 21  1  0  0  0  0
 18 19  1  0  0  0  0
 18 20  1  0  0  0  0
 16 17  1  0  0  0  0
 16 18  1  0  0  0  0
 15 16  2  0  0  0  0
 14 15  1  0  0  0  0
 14 20  2  0  0  0  0
 11 12  1  0  0  0  0
 11 13  1  0  0  0  0
 11 14  1  0  0  0  0
  9 10  1  0  0  0  0
  9 11  1  0  0  0  0
  9 22  1  0  0  0  0
  7  8  1  0  0  0  0
  7  9  1  0  0  0  0
 26 27  1  0  0  0  0
 26 28  1  0  0  0  0
 26 29  1  0  0  0  0
 24 25  1  0  0  0  0
 24 26  1  0  0  0  0
M  END
$$$$
default_name
  -OEChem-02102213163D

 29 29  0     1  0  0  0  0  0999 V2000
   -2.9561   -3.9186    1.3887 H   0  0  0  0  0  0  0  0  0  0  0  0
   -3.1191   -2.9346    0.9517 C   0  0  0  0  0  0  0  0  0  0  0  0
   -3.7811   -2.3546    1.5917 H   0  0  0  0  0  0  0  0  0  0  0  0
   -3.5591   -3.0406   -0.0383 H   0  0  0  0  0  0  0  0  0  0  0  0
   -1.7921   -2.2226    0.8327 C   0  0  0  0  0  0  0  0  0  0  0  0
   -0.7611   -2.7766    1.1927 O   0  0  0  0  0  0  0  0  0  0  0  0
   -1.8201   -0.9926    0.3247 N   0  0  0  0  0  0  0  0  0  0  0  0
   -2.7141   -0.5816    0.0927 H   0  0  0  0  0  0  0  0  0  0  0  0
   -0.6481   -0.1156    0.2017 C   0  0  1  0  0  0  0  0  0  0  0  0
    0.1042   -0.6345   -0.3958 H   0  0  0  0  0  0  0  0  0  0  0  0
   -1.0420    1.1781   -0.5372 C   0  0  0  0  0  0  0  0  0  0  0  0
   -0.1819    1.5676   -1.0839 H   0  0  0  0  0  0  0  0  0  0  0  0
   -1.8243    0.9631   -1.2664 H   0  0  0  0  0  0  0  0  0  0  0  0
   -1.5110    2.2674    0.3963 C   0  0  0  0  0  0  0  0  0  0  0  0
   -1.9305    3.5435    0.0183 N   0  0  0  0  0  0  0  0  0  0  0  0
   -2.3020    4.1604    1.1496 C   0  0  0  0  0  0  0  0  0  0  0  0
   -2.6693    5.1776    1.2005 H   0  0  0  0  0  0  0  0  0  0  0  0
   -2.1623    3.3360    2.2013 N   0  0  0  0  0  0  0  0  0  0  0  0
   -2.3949    3.5624    3.1586 H   0  0  0  0  0  0  0  0  0  0  0  0
   -1.6678    2.1344    1.7450 C   0  0  0  0  0  0  0  0  0  0  0  0
   -1.4591    1.2429    2.3231 H   0  0  0  0  0  0  0  0  0  0  0  0
   -0.0283    0.1609    1.5831 C   0  0  0  0  0  0  0  0  0  0  0  0
    1.1923    0.1056    1.7329 O   0  0  0  0  0  0  0  0  0  0  0  0
   -0.8586    0.4659    2.5853 N   0  0  0  0  0  0  0  0  0  0  0  0
   -1.8521    0.3848    2.4000 H   0  0  0  0  0  0  0  0  0  0  0  0
   -0.4403    0.7694    3.9518 C   0  0  0  0  0  0  0  0  0  0  0  0
    0.5066    1.3154    3.9421 H   0  0  0  0  0  0  0  0  0  0  0  0
   -1.1988    1.3789    4.4452 H   0  0  0  0  0  0  0  0  0  0  0  0
   -0.3053   -0.1600    4.5075 H   0  0  0  0  0  0  0  0  0  0  0  0
  5  6  2  0  0  0  0
  5  7  1  0  0  0  0
  2  3  1  0  0  0  0
  2  4  1  0  0  0  0
  2  5  1  0  0  0  0
  1  2  1  0  0  0  0
 22 23  2  0  0  0  0
 22 24  1  0  0  0  0
 20 21  1  0  0  0  0
 18 19  1  0  0  0  0
 18 20  1  0  0  0  0
 16 17  1  0  0  0  0
 16 18  1  0  0  0  0
 15 16  2  0  0  0  0
 14 15  1  0  0  0  0
 14 20  2  0  0  0  0
 11 12  1  0  0  0  0
 11 13  1  0  0  0  0
 11 14  1  0  0  0  0
  9 10  1  0  0  0  0
  9 11  1  0  0  0  0
  9 22  1  0  0  0  0
  7  8  1  0  0  0  0
  7  9  1  0  0  0  0
 26 27  1  0  0  0  0
 26 28  1  0  0  0  0
 26 29  1  0  0  0  0
 24 25  1  0  0  0  0
 24 26  1  0  0  0  0
M  END
$$$$
default_name
  -OEChem-02102213163D

 29 29  0     1  0  0  0  0  0999 V2000
   -2.9561   -3.9186    1.3887 H   0  0  0  0  0  0  0  0  0  0  0  0
   -3.1191   -2.9346    0.9517 C   0  0  0  0  0  0  0  0  0  0  0  0
   -3.7811   -2.3546    1.5917 H   0  0  0  0  0  0  0  0  0  0  0  0
   -3.5591   -3.0406   -0.0383 H   0  0  0  0  0  0  0  0  0  0  0  0
   -1.7921   -2.2226    0.8327 C   0  0  0  0  0  0  0  0  0  0  0  0
   -0.7611   -2.7766    1.1927 O   0  0  0  0  0  0  0  0  0  0  0  0
   -1.8201   -0.9926    0.3247 N   0  0  0  0  0  0  0  0  0  0  0  0
   -2.7141   -0.5816    0.0927 H   0  0  0  0  0  0  0  0  0  0  0  0
   -0.6481   -0.1156    0.2017 C   0  0  1  0  0  0  0  0  0  0  0  0
    0.1042   -0.6345   -0.3958 H   0  0  0  0  0  0  0  0  0  0  0  0
   -1.0420    1.1781   -0.5372 C   0  0  0  0  0  0  0  0  0  0  0  0
   -0.1819    1.5676   -1.0839 H   0  0  0  0  0  0  0  0  0  0  0  0
   -1.8243    0.9631   -1.2664 H   0  0  0  0  0  0  0  0  0  0  0  0
   -1.5110    2.2674    0.3963 C   0  0  0  0  0  0  0  0  0  0  0  0
   -2.1998    3.4226    0.0241 N   0  0  0  0  0  0  0  0  0  0  0  0
   -2.4594    4.0809    1.1632 C   0  0  0  0  0  0  0  0  0  0  0  0
   -2.9768    5.0305    1.2177 H   0  0  0  0  0  0  0  0  0  0  0  0
   -1.9962    3.3918    2.2196 N   0  0  0  0  0  0  0  0  0  0  0  0
   -2.0870    3.6707    3.1870 H   0  0  0  0  0  0  0  0  0  0  0  0
   -1.3975    2.2416    1.7556 C   0  0  0  0  0  0  0  0  0  0  0  0
   -0.9416    1.4518    2.3393 H   0  0  0  0  0  0  0  0  0  0  0  0
   -0.0283    0.1609    1.5831 C   0  0  0  0  0  0  0  0  0  0  0  0
    1.1923    0.1056    1.7329 O   0  0  0  0  0  0  0  0  0  0  0  0
   -0.8586    0.4659    2.5853 N   0  0  0  0  0  0  0  0  0  0  0  0
   -1.8521    0.3848    2.4000 H   0  0  0  0  0  0  0  0  0  0  0  0
   -0.4403    0.7694    3.9518 C   0  0  0  0  0  0  0  0  0  0  0  0
    0.5066    1.3154    3.9421 H   0  0  0  0  0  0  0  0  0  0  0  0
   -1.1988    1.3789    4.4452 H   0  0  0  0  0  0  0  0  0  0  0  0
   -0.3053   -0.1600    4.5075 H   0  0  0  0  0  0  0  0  0  0  0  0
  5  6  2  0  0  0  0
  5  7  1  0  0  0  0
  2  3  1  0  0  0  0
  2  4  1  0  0  0  0
  2  5  1  0  0  0  0
  1  2  1  0  0  0  0
 22 23  2  0  0  0  0
 22 24  1  0  0  0  0
 20 21  1  0  0  0  0
 18 19  1  0  0  0  0
 18 20  1  0  0  0  0
 16 17  1  0  0  0  0
 16 18  1  0  0  0  0
 15 16  2  0  0  0  0
 14 15  1  0  0  0  0
 14 20  2  0  0  0  0
 11 12  1  0  0  0  0
 11 13  1  0  0  0  0
 11 14  1  0  0  0  0
  9 10  1  0  0  0  0
  9 11  1  0  0  0  0
  9 22  1  0  0  0  0
  7  8  1  0  0  0  0
  7  9  1  0  0  0  0
 26 27  1  0  0  0  0
 26 28  1  0  0  0  0
 26 29  1  0  0  0  0
 24 25  1  0  0  0  0
 24 26  1  0  0  0  0
M  END
$$$$
default_name
  -OEChem-02102213163D

 29 29  0     1  0  0  0  0  0999 V2000
   -2.9561   -3.9186    1.3887 H   0  0  0  0  0  0  0  0  0  0  0  0
   -3.1191   -2.9346    0.9517 C   0  0  0  0  0  0  0  0  0  0  0  0
   -3.7811   -2.3546    1.5917 H   0  0  0  0  0  0  0  0  0  0  0  0
   -3.5591   -3.0406   -0.0383 H   0  0  0  0  0  0  0  0  0  0  0  0
   -1.7921   -2.2226    0.8327 C   0  0  0  0  0  0  0  0  0  0  0  0
   -0.7611   -2.7766    1.1927 O   0  0  0  0  0  0  0  0  0  0  0  0
   -1.8201   -0.9926    0.3247 N   0  0  0  0  0  0  0  0  0  0  0  0
   -2.7141   -0.5816    0.0927 H   0  0  0  0  0  0  0  0  0  0  0  0
   -0.6481   -0.1156    0.2017 C   0  0  1  0  0  0  0  0  0  0  0  0
    0.1042   -0.6345   -0.3958 H   0  0  0  0  0  0  0  0  0  0  0  0
   -1.0420    1.1781   -0.5372 C   0  0  0  0  0  0  0  0  0  0  0  0
   -0.1819    1.5676   -1.0839 H   0  0  0  0  0  0  0  0  0  0  0  0
   -1.8243    0.9631   -1.2664 H   0  0  0  0  0  0  0  0  0  0  0  0
   -1.5110    2.2674    0.3963 C   0  0  0  0  0  0  0  0  0  0  0  0
   -2.4394    3.2632    0.0898 N   0  0  0  0  0  0  0  0  0  0  0  0
   -2.5962    3.9801    1.2122 C   0  0  0  0  0  0  0  0  0  0  0  0
   -3.2471    4.8404    1.3036 H   0  0  0  0  0  0  0  0  0  0  0  0
   -1.8412    3.4739    2.2017 N   0  0  0  0  0  0  0  0  0  0  0  0
   -1.8016    3.8268    3.1481 H   0  0  0  0  0  0  0  0  0  0  0  0
   -1.1517    2.3894    1.7068 C   0  0  0  0  0  0  0  0  0  0  0  0
   -0.4721    1.7378    2.2415 H   0  0  0  0  0  0  0  0  0  0  0  0
   -0.0283    0.1609    1.5831 C   0  0  0  0  0  0  0  0  0  0  0  0
    1.1923    0.1056    1.7329 O   0  0  0  0  0  0  0  0  0  0  0  0
   -0.8586    0.4659    2.5853 N   0  0  0  0  0  0  0  0  0  0  0  0
   -1.8521    0.3848    2.4000 H   0  0  0  0  0  0  0  0  0  0  0  0
   -0.4403    0.7694    3.9518 C   0  0  0  0  0  0  0  0  0  0  0  0
    0.5066    1.3154    3.9421 H   0  0  0  0  0  0  0  0  0  0  0  0
   -1.1988    1.3789    4.4452 H   0  0  0  0  0  0  0  0  0  0  0  0
   -0.3053   -0.1600    4.5075 H   0  0  0  0  0  0  0  0  0  0  0  0
  5  6  2  0  0  0  0
  5  7  1  0  0  0  0
  2  3  1  0  0  0  0
  2  4  1  0  0  0  0
  2  5  1  0  0  0  0
  1  2  1  0  0  0  0
 22 23  2  0  0  0  0
 22 24  1  0  0  0  0
 20 21  1  0  0  0  0
 18 19  1  0  0  0  0
 18 20  1  0  0  0  0
 16 17  1  0  0  0  0
 16 18  1  0  0  0  0
 15 16  2  0  0  0  0
 14 15  1  0  0  0  0
 14 20  2  0  0  0  0
 11 12  1  0  0  0  0
 11 13  1  0  0  0  0
 11 14  1  0  0  0  0
  9 10  1  0  0  0  0
  9 11  1  0  0  0  0
  9 22  1  0  0  0  0
  7  8  1  0  0  0  0
  7  9  1  0  0  0  0
 26 27  1  0  0  0  0
 26 28  1  0  0  0  0
 26 29  1  0  0  0  0
 24 25  1  0  0  0  0
 24 26  1  0  0  0  0
M  END
$$$$
default_name
  -OEChem-02102213163D

 29 29  0     1  0  0  0  0  0999 V2000
   -2.9561   -3.9186    1.3887 H   0  0  0  0  0  0  0  0  0  0  0  0
   -3.1191   -2.9346    0.9517 C   0  0  0  0  0  0  0  0  0  0  0  0
   -3.7811   -2.3546    1.5917 H   0  0  0  0  0  0  0  0  0  0  0  0
   -3.5591   -3.0406   -0.0383 H   0  0  0  0  0  0  0  0  0  0  0  0
   -1.7921   -2.2226    0.8327 C   0  0  0  0  0  0  0  0  0  0  0  0
   -0.7611   -2.7766    1.1927 O   0  0  0  0  0  0  0  0  0  0  0  0
   -1.8201   -0.9926    0.3247 N   0  0  0  0  0  0  0  0  0  0  0  0
   -2.7141   -0.5816    0.0927 H   0  0  0  0  0  0  0  0  0  0  0  0
   -0.6481   -0.1156    0.2017 C   0  0  1  0  0  0  0  0  0  0  0  0
    0.1042   -0.6345   -0.3958 H   0  0  0  0  0  0  0  0  0  0  0  0
   -1.0420    1.1781   -0.5372 C   0  0  0  0  0  0  0  0  0  0  0  0
   -0.1819    1.5676   -1.0839 H   0  0  0  0  0  0  0  0  0  0  0  0
   -1.8243    0.9631   -1.2664 H   0  0  0  0  0  0  0  0  0  0  0  0
   -1.5110    2.2674    0.3963 C   0  0  0  0  0  0  0  0  0  0  0  0
   -2.6331    3.0761    0.2108 N   0  0  0  0  0  0  0  0  0  0  0  0
   -2.7030    3.8647    1.2931 C   0  0  0  0  0  0  0  0  0  0  0  0
   -3.4617    4.6205    1.4524 H   0  0  0  0  0  0  0  0  0  0  0  0
   -1.7080    3.5765    2.1489 N   0  0  0  0  0  0  0  0  0  0  0  0
   -1.5583    4.0202    3.0447 H   0  0  0  0  0  0  0  0  0  0  0  0
   -0.9470    2.5675    1.6018 C   0  0  0  0  0  0  0  0  0  0  0  0
   -0.0827    2.0813    2.0364 H   0  0  0  0  0  0  0  0  0  0  0  0
   -0.0283    0.1609    1.5831 C   0  0  0  0  0  0  0  0  0  0  0  0
    1.1923    0.1056    1.7329 O   0  0  0  0  0  0  0  0  0  0  0  0
   -0.8586    0.4659    2.5853 N   0  0  0  0  0  0  0  0  0  0  0  0
   -1.8521    0.3848    2.4000 H   0  0  0  0  0  0  0  0  0  0  0  0
   -0.4403    0.7694    3.9518 C   0  0  0  0  0  0  0  0  0  0  0  0
    0.5066    1.3154    3.9421 H   0  0  0  0  0  0  0  0  0  0  0  0
   -1.1988    1.3789    4.4452 H   0  0  0  0  0  0  0  0  0  0  0  0
   -0.3053   -0.1600    4.5075 H   0  0  0  0  0  0  0  0  0  0  0  0
  5  6  2  0  0  0  0
  5  7  1  0  0  0  0
  2  3  1  0  0  0  0
  2  4  1  0  0  0  0
  2  5  1  0  0  0  0
  1  2  1  0  0  0  0
 22 23  2  0  0  0  0
 22 24  1  0  0  0  0
 20 21  1  0  0  0  0
 18 19  1  0  0  0  0
 18 20  1  0  0  0  0
 16 17  1  0  0  0  0
 16 18  1  0  0  0  0
 15 16  2  0  0  0  0
 14 15  1  0  0  0  0
 14 20  2  0  0  0  0
 11 12  1  0  0  0  0
 11 13  1  0  0  0  0
 11 14  1  0  0  0  0
  9 10  1  0  0  0  0
  9 11  1  0  0  0  0
  9 22  1  0  0  0  0
  7  8  1  0  0  0  0
  7  9  1  0  0  0  0
 26 27  1  0  0  0  0
 26 28  1  0  0  0  0
 26 29  1  0  0  0  0
 24 25  1  0  0  0  0
 24 26  1  0  0  0  0
M  END
$$$$
default_name
  -OEChem-02102213163D

 29 29  0     1  0  0  0  0  0999 V2000
   -2.9561   -3.9186    1.3887 H   0  0  0  0  0  0  0  0  0  0  0  0
   -3.1191   -2.9346    0.9517 C   0  0  0  0  0  0  0  0  0  0  0  0
   -3.7811   -2.3546    1.5917 H   0  0  0  0  0  0  0  0  0  0  0  0
   -3.5591   -3.0406   -0.0383 H   0  0  0  0  0  0  0  0  0  0  0  0
   -1.7921   -2.2226    0.8327 C   0  0  0  0  0  0  0  0  0  0  0  0
   -0.7611   -2.7766    1.1927 O   0  0  0  0  0  0  0  0  0  0  0  0
   -1.8201   -0.9926    0.3247 N   0  0  0  0  0  0  0  0  0  0  0  0
   -2.7141   -0.5816    0.0927 H   0  0  0  0  0  0  0  0  0  0  0  0
   -0.6481   -0.1156    0.2017 C   0  0  1  0  0  0  0  0  0  0  0  0
    0.1042   -0.6345   -0.3958 H   0  0  0  0  0  0  0  0  0  0  0  0
   -1.0420    1.1781   -0.5372 C   0  0  0  0  0  0  0  0  0  0  0  0
   -0.1819    1.5676   -1.0839 H   0  0  0  0  0  0  0  0  0  0  0  0
   -1.8243    0.9631   -1.2664 H   0  0  0  0  0  0  0  0  0  0  0  0
   -1.5110    2.2674    0.3963 C   0  0  0  0  0  0  0  0  0  0  0  0
   -2.7676    2.8741    0.3789 N   0  0  0  0  0  0  0  0  0  0  0  0
   -2.7725    3.7427    1.4006 C   0  0  0  0  0  0  0  0  0  0  0  0
   -3.6060    4.3858    1.6539 H   0  0  0  0  0  0  0  0  0  0  0  0
   -1.6056    3.6927    2.0647 N   0  0  0  0  0  0  0  0  0  0  0  0
   -1.3735    4.2377    2.8838 H   0  0  0  0  0  0  0  0  0  0  0  0
   -0.7974    2.7638    1.4478 C   0  0  0  0  0  0  0  0  0  0  0  0
    0.2002    2.4589    1.7379 H   0  0  0  0  0  0  0  0  0  0  0  0
   -0.0283    0.1609    1.5831 C   0  0  0  0  0  0  0  0  0  0  0  0
    1.1923    0.1056    1.7329 O   0  0  0  0  0  0  0  0  0  0  0  0
   -0.8586    0.4659    2.5853 N   0  0  0  0  0  0  0  0  0  0  0  0
   -1.8521    0.3848    2.4000 H   0  0  0  0  0  0  0  0  0  0  0  0
   -0.4403    0.7694    3.9518 C   0  0  0  0  0  0  0  0  0  0  0  0
    0.5066    1.3154    3.9421 H   0  0  0  0  0  0  0  0  0  0  0  0
   -1.1988    1.3789    4.4452 H   0  0  0  0  0  0  0  0  0  0  0  0
   -0.3053   -0.1600    4.5075 H   0  0  0  0  0  0  0  0  0  0  0  0
  5  6  2  0  0  0  0
  5  7  1  0  0  0  0
  2  3  1  0  0  0  0
  2  4  1  0  0  0  0
  2  5  1  0  0  0  0
  1  2  1  0  0  0  0
 22 23  2  0  0  0  0
 22 24  1  0  0  0  0
 20 21  1  0  0  0  0
 18 19  1  0  0  0  0
 18 20  1  0  0  0  0
 16 17  1  0  0  0  0
 16 18  1  0  0  0  0
 15 16  2  0  0  0  0
 14 15  1  0  0  0  0
 14 20  2  0  0  0  0
 11 12  1  0  0  0  0
 11 13  1  0  0  0  0
 11 14  1  0  0  0  0
  9 10  1  0  0  0  0
  9 11  1  0  0  0  0
  9 22  1  0  0  0  0
  7  8  1  0  0  0  0
  7  9  1  0  0  0  0
 26 27  1  0  0  0  0
 26 28  1  0  0  0  0
 26 29  1  0  0  0  0
 24 25  1  0  0  0  0
 24 26  1  0  0  0  0
M  END
$$$$
default_name
  -OEChem-02102213163D

 29 29  0     1  0  0  0  0  0999 V2000
   -2.9561   -3.9186    1.3887 H   0  0  0  0  0  0  0  0  0  0  0  0
   -3.1191   -2.9346    0.9517 C   0  0  0  0  0  0  0  0  0  0  0  0
   -3.7811   -2.3546    1.5917 H   0  0  0  0  0  0  0  0  0  0  0  0
   -3.5591   -3.0406   -0.0383 H   0  0  0  0  0  0  0  0  0  0  0  0
   -1.7921   -2.2226    0.8327 C   0  0  0  0  0  0  0  0  0  0  0  0
   -0.7611   -2.7766    1.1927 O   0  0  0  0  0  0  0  0  0  0  0  0
   -1.8201   -0.9926    0.3247 N   0  0  0  0  0  0  0  0  0  0  0  0
   -2.7141   -0.5816    0.0927 H   0  0  0  0  0  0  0  0  0  0  0  0
   -0.6481   -0.1156    0.2017 C   0  0  1  0  0  0  0  0  0  0  0  0
    0.1042   -0.6345   -0.3958 H   0  0  0  0  0  0  0  0  0  0  0  0
   -1.0420    1.1781   -0.5372 C   0  0  0  0  0  0  0  0  0  0  0  0
   -0.1819    1.5676   -1.0839 H   0  0  0  0  0  0  0  0  0  0  0  0
   -1.8243    0.9631   -1.2664 H   0  0  0  0  0  0  0  0  0  0  0  0
   -1.5110    2.2674    0.3963 C   0  0  0  0  0  0  0  0  0  0  0  0
   -2.8338    2.6709    0.5827 N   0  0  0  0  0  0  0  0  0  0  0  0
   -2.8001    3.6223    1.5271 C   0  0  0  0  0  0  0  0  0  0  0  0
   -3.6701    4.1521    1.8943 H   0  0  0  0  0  0  0  0  0  0  0  0
   -1.5411    3.8146    1.9550 N   0  0  0  0  0  0  0  0  0  0  0  0
   -1.2598    4.4644    2.6764 H   0  0  0  0  0  0  0  0  0  0  0  0
   -0.7131    2.9651    1.2554 C   0  0  0  0  0  0  0  0  0  0  0  0
    0.3572    2.8449    1.3663 H   0  0  0  0  0  0  0  0  0  0  0  0
   -0.0283    0.1609    1.5831 C   0  0  0  0  0  0  0  0  0  0  0  0
    1.1923    0.1056    1.7329 O   0  0  0  0  0  0  0  0  0  0  0  0
   -0.8586    0.4659    2.5853 N   0  0  0  0  0  0  0  0  0  0  0  0
   -1.8521    0.3848    2.4000 H   0  0  0  0  0  0  0  0  0  0  0  0
   -0.4403    0.7694    3.9518 C   0  0  0  0  0  0  0  0  0  0  0  0
    0.5066    1.3154    3.9421 H   0  0  0  0  0  0  0  0  0  0  0  0
   -1.1988    1.3789    4.4452 H   0  0  0  0  0  0  0  0  0  0  0  0
   -0.3053   -0.1600    4.5075 H   0  0  0  0  0  0  0  0  0  0  0  0
  5  6  2  0  0  0  0
  5  7  1  0  0  0  0
  2  3  1  0  0  0  0
  2  4  1  0  0  0  0
  2  5  1  0  0  0  0
  1  2  1  0  0  0  0
 22 23  2  0  0  0  0
 22 24  1  0  0  0  0
 20 21  1  0  0  0  0
 18 19  1  0  0  0  0
 18 20  1  0  0  0  0
 16 17  1  0  0  0  0
 16 18  1  0  0  0  0
 15 16  2  0  0  0  0
 14 15  1  0  0  0  0
 14 20  2  0  0  0  0
 11 12  1  0  0  0  0
 11 13  1  0  0  0  0
 11 14  1  0  0  0  0
  9 10  1  0  0  0  0
  9 11  1  0  0  0  0
  9 22  1  0  0  0  0
  7  8  1  0  0  0  0
  7  9  1  0  0  0  0
 26 27  1  0  0  0  0
 26 28  1  0  0  0  0
 26 29  1  0  0  0  0
 24 25  1  0  0  0  0
 24 26  1  0  0  0  0
M  END
$$$$
default_name
  -OEChem-02102213163D

 29 29  0     1  0  0  0  0  0999 V2000
   -2.9561   -3.9186    1.3887 H   0  0  0  0  0  0  0  0  0  0  0  0
   -3.1191   -2.9346    0.9517 C   0  0  0  0  0  0  0  0  0  0  0  0
   -3.7811   -2.3546    1.5917 H   0  0  0  0  0  0  0  0  0  0  0  0
   -3.5591   -3.0406   -0.0383 H   0  0  0  0  0  0  0  0  0  0  0  0
   -1.7921   -2.2226    0.8327 C   0  0  0  0  0  0  0  0  0  0  0  0
   -0.7611   -2.7766    1.1927 O   0  0  0  0  0  0  0  0  0  0  0  0
   -1.8201   -0.9926    0.3247 N   0  0  0  0  0  0  0  0  0  0  0  0
   -2.7141   -0.5816    0.0927 H   0  0  0  0  0  0  0  0  0  0  0  0
   -0.6481   -0.1156    0.2017 C   0  0  1  0  0  0  0  0  0  0  0  0
    0.1042   -0.6345   -0.3958 H   0  0  0  0  0  0  0  0  0  0  0  0
   -1.0420    1.1781   -0.5372 C   0  0  0  0  0  0  0  0  0  0  0  0
   -0.1819    1.5676   -1.0839 H   0  0  0  0  0  0  0  0  0  0  0  0
   -1.8243    0.9631   -1.2664 H   0  0  0  0  0  0  0  0  0  0  0  0
   -1.5110    2.2674    0.3963 C   0  0  0  0  0  0  0  0  0  0  0  0
   -2.8272    2.4805    0.8082 N   0  0  0  0  0  0  0  0  0  0  0  0
   -2.7839    3.5118    1.6642 C   0  0  0  0  0  0  0  0  0  0  0  0
   -3.6497    3.9354    2.1573 H   0  0  0  0  0  0  0  0  0  0  0  0
   -1.5187    3.9338    1.8271 N   0  0  0  0  0  0  0  0  0  0  0  0
   -1.2251    4.6849    2.4366 H   0  0  0  0  0  0  0  0  0  0  0  0
   -0.6999    3.1575    1.0375 C   0  0  0  0  0  0  0  0  0  0  0  0
    0.3777    3.2131    0.9471 H   0  0  0  0  0  0  0  0  0  0  0  0
   -0.0283    0.1609    1.5831 C   0  0  0  0  0  0  0  0  0  0  0  0
    1.1923    0.1056    1.7329 O   0  0  0  0  0  0  0  0  0  0  0  0
   -0.8586    0.4659    2.5853 N   0  0  0  0  0  0  0  0  0  0  0  0
   -1.8521    0.3848    2.4000 H   0  0  0  0  0  0  0  0  0  0  0  0
   -0.4403    0.7694    3.9518 C   0  0  0  0  0  0  0  0  0  0  0  0
    0.5066    1.3154    3.9421 H   0  0  0  0  0  0  0  0  0  0  0  0
   -1.1988    1.3789    4.4452 H   0  0  0  0  0  0  0  0  0  0  0  0
   -0.3053   -0.1600    4.5075 H   0  0  0  0  0  0  0  0  0  0  0  0
  5  6  2  0  0  0  0
  5  7  1  0  0  0  0
  2  3  1  0  0  0  0
  2  4  1  0  0  0  0
  2  5  1  0  0  0  0
  1  2  1  0  0  0  0
 22 23  2  0  0  0  0
 22 24  1  0  0  0  0
 20 21  1  0  0  0  0
 18 19  1  0  0  0  0
 18 20  1  0  0  0  0
 16 17  1  0  0  0  0
 16 18  1  0  0  0  0
 15 16  2  0  0  0  0
 14 15  1  0  0  0  0
 14 20  2  0  0  0  0
 11 12  1  0  0  0  0
 11 13  1  0  0  0  0
 11 14  1  0  0  0  0
  9 10  1  0  0  0  0
  9 11  1  0  0  0  0
  9 22  1  0  0  0  0
  7  8  1  0  0  0  0
  7  9  1  0  0  0  0
 26 27  1  0  0  0  0
 26 28  1  0  0  0  0
 26 29  1  0  0  0  0
 24 25  1  0  0  0  0
 24 26  1  0  0  0  0
M  END
$$$$
default_name
  -OEChem-02102213163D

 29 29  0     1  0  0  0  0  0999 V2000
   -2.9561   -3.9186    1.3887 H   0  0  0  0  0  0  0  0  0  0  0  0
   -3.1191   -2.9346    0.9517 C   0  0  0  0  0  0  0  0  0  0  0  0
   -3.7811   -2.3546    1.5917 H   0  0  0  0  0  0  0  0  0  0  0  0
   -3.5591   -3.0406   -0.0383 H   0  0  0  0  0  0  0  0  0  0  0  0
   -1.7921   -2.2226    0.8327 C   0  0  0  0  0  0  0  0  0  0  0  0
   -0.7611   -2.7766    1.1927 O   0  0  0  0  0  0  0  0  0  0  0  0
   -1.8201   -0.9926    0.3247 N   0  0  0  0  0  0  0  0  0  0  0  0
   -2.7141   -0.5816    0.0927 H   0  0  0  0  0  0  0  0  0  0  0  0
   -0.6481   -0.1156    0.2017 C   0  0  1  0  0  0  0  0  0  0  0  0
    0.1042   -0.6345   -0.3958 H   0  0  0  0  0  0  0  0  0  0  0  0
   -1.0420    1.1781   -0.5372 C   0  0  0  0  0  0  0  0  0  0  0  0
   -0.1819    1.5676   -1.0839 H   0  0  0  0  0  0  0  0  0  0  0  0
   -1.8243    0.9631   -1.2664 H   0  0  0  0  0  0  0  0  0  0  0  0
   -1.5110    2.2674    0.3963 C   0  0  0  0  0  0  0  0  0  0  0  0
   -2.7482    2.3158    1.0401 N   0  0  0  0  0  0  0  0  0  0  0  0
   -2.7249    3.4187    1.8025 C   0  0  0  0  0  0  0  0  0  0  0  0
   -3.5463    3.7506    2.4250 H   0  0  0  0  0  0  0  0  0  0  0  0
   -1.5401    4.0422    1.6898 N   0  0  0  0  0  0  0  0  0  0  0  0
   -1.2716    4.8841    2.1807 H   0  0  0  0  0  0  0  0  0  0  0  0
   -0.7586    3.3279    0.8092 C   0  0  0  0  0  0  0  0  0  0  0  0
    0.2602    3.5382    0.5087 H   0  0  0  0  0  0  0  0  0  0  0  0
   -0.0283    0.1609    1.5831 C   0  0  0  0  0  0  0  0  0  0  0  0
    1.1923    0.1056    1.7329 O   0  0  0  0  0  0  0  0  0  0  0  0
   -0.8586    0.4659    2.5853 N   0  0  0  0  0  0  0  0  0  0  0  0
   -1.8521    0.3848    2.4000 H   0  0  0  0  0  0  0  0  0  0  0  0
   -0.4403    0.7694    3.9518 C   0  0  0  0  0  0  0  0  0  0  0  0
    0.5066    1.3154    3.9421 H   0  0  0  0  0  0  0  0  0  0  0  0
   -1.1988    1.3789    4.4452 H   0  0  0  0  0  0  0  0  0  0  0  0
   -0.3053   -0.1600    4.5075 H   0  0  0  0  0  0  0  0  0  0  0  0
  5  6  2  0  0  0  0
  5  7  1  0  0  0  0
  2  3  1  0  0  0  0
  2  4  1  0  0  0  0
  2  5  1  0  0  0  0
  1  2  1  0  0  0  0
 22 23  2  0  0  0  0
 22 24  1  0  0  0  0
 20 21  1  0  0  0  0
 18 19  1  0  0  0  0
 18 20  1  0  0  0  0
 16 17  1  0  0  0  0
 16 18  1  0  0  0  0
 15 16  2  0  0  0  0
 14 15  1  0  0  0  0
 14 20  2  0  0  0  0
 11 12  1  0  0  0  0
 11 13  1  0  0  0  0
 11 14  1  0  0  0  0
  9 10  1  0  0  0  0
  9 11  1  0  0  0  0
  9 22  1  0  0  0  0
  7  8  1  0  0  0  0
  7  9  1  0  0  0  0
 26 27  1  0  0  0  0
 26 28  1  0  0  0  0
 26 29  1  0  0  0  0
 24 25  1  0  0  0  0
 24 26  1  0  0  0  0
M  END
$$$$
default_name
  -OEChem-02102213163D

 29 29  0     1  0  0  0  0  0999 V2000
   -2.9561   -3.9186    1.3887 H   0  0  0  0  0  0  0  0  0  0  0  0
   -3.1191   -2.9346    0.9517 C   0  0  0  0  0  0  0  0  0  0  0  0
   -3.7811   -2.3546    1.5917 H   0  0  0  0  0  0  0  0  0  0  0  0
   -3.5591   -3.0406   -0.0383 H   0  0  0  0  0  0  0  0  0  0  0  0
   -1.7921   -2.2226    0.8327 C   0  0  0  0  0  0  0  0  0  0  0  0
   -0.7611   -2.7766    1.1927 O   0  0  0  0  0  0  0  0  0  0  0  0
   -1.8201   -0.9926    0.3247 N   0  0  0  0  0  0  0  0  0  0  0  0
   -2.7141   -0.5816    0.0927 H   0  0  0  0  0  0  0  0  0  0  0  0
   -0.6481   -0.1156    0.2017 C   0  0  1  0  0  0  0  0  0  0  0  0
    0.1042   -0.6345   -0.3958 H   0  0  0  0  0  0  0  0  0  0  0  0
   -1.0420    1.1781   -0.5372 C   0  0  0  0  0  0  0  0  0  0  0  0
   -0.1819    1.5676   -1.0839 H   0  0  0  0  0  0  0  0  0  0  0  0
   -1.8243    0.9631   -1.2664 H   0  0  0  0  0  0  0  0  0  0  0  0
   -1.5110    2.2674    0.3963 C   0  0  0  0  0  0  0  0  0  0  0  0
   -2.6022    2.1879    1.2626 N   0  0  0  0  0  0  0  0  0  0  0  0
   -2.6272    3.3493    1.9325 C   0  0  0  0  0  0  0  0  0  0  0  0
   -3.3667    3.6101    2.6791 H   0  0  0  0  0  0  0  0  0  0  0  0
   -1.6037    4.1325    1.5525 N   0  0  0  0  0  0  0  0  0  0  0  0
   -1.3962    5.0485    1.9263 H   0  0  0  0  0  0  0  0  0  0  0  0
   -0.8852    3.4648    0.5858 C   0  0  0  0  0  0  0  0  0  0  0  0
    0.0127    3.7982    0.0810 H   0  0  0  0  0  0  0  0  0  0  0  0
   -0.0283    0.1609    1.5831 C   0  0  0  0  0  0  0  0  0  0  0  0
    1.1923    0.1056    1.7329 O   0  0  0  0  0  0  0  0  0  0  0  0
   -0.8586    0.4659    2.5853 N   0  0  0  0  0  0  0  0  0  0  0  0
   -1.8521    0.3848    2.4000 H   0  0  0  0  0  0  0  0  0  0  0  0
   -0.4403    0.7694    3.9518 C   0  0  0  0  0  0  0  0  0  0  0  0
    0.5066    1.3154    3.9421 H   0  0  0  0  0  0  0  0  0  0  0  0
   -1.1988    1.3789    4.4452 H   0  0  0  0  0  0  0  0  0  0  0  0
   -0.3053   -0.1600    4.5075 H   0  0  0  0  0  0  0  0  0  0  0  0
  5  6  2  0  0  0  0
  5  7  1  0  0  0  0
  2  3  1  0  0  0  0
  2  4  1  0  0  0  0
  2  5  1  0  0  0  0
  1  2  1  0  0  0  0
 22 23  2  0  0  0  0
 22 24  1  0  0  0  0
 20 21  1  0  0  0  0
 18 19  1  0  0  0  0
 18 20  1  0  0  0  0
 16 17  1  0  0  0  0
 16 18  1  0  0  0  0
 15 16  2  0  0  0  0
 14 15  1  0  0  0  0
 14 20  2  0  0  0  0
 11 12  1  0  0  0  0
 11 13  1  0  0  0  0
 11 14  1  0  0  0  0
  9 10  1  0  0  0  0
  9 11  1  0  0  0  0
  9 22  1  0  0  0  0
  7  8  1  0  0  0  0
  7  9  1  0  0  0  0
 26 27  1  0  0  0  0
 26 28  1  0  0  0  0
 26 29  1  0  0  0  0
 24 25  1  0  0  0  0
 24 26  1  0  0  0  0
M  END
$$$$
default_name
  -OEChem-02102213163D

 29 29  0     1  0  0  0  0  0999 V2000
   -2.9561   -3.9186    1.3887 H   0  0  0  0  0  0  0  0  0  0  0  0
   -3.1191   -2.9346    0.9517 C   0  0  0  0  0  0  0  0  0  0  0  0
   -3.7811   -2.3546    1.5917 H   0  0  0  0  0  0  0  0  0  0  0  0
   -3.5591   -3.0406   -0.0383 H   0  0  0  0  0  0  0  0  0  0  0  0
   -1.7921   -2.2226    0.8327 C   0  0  0  0  0  0  0  0  0  0  0  0
   -0.7611   -2.7766    1.1927 O   0  0  0  0  0  0  0  0  0  0  0  0
   -1.8201   -0.9926    0.3247 N   0  0  0  0  0  0  0  0  0  0  0  0
   -2.7141   -0.5816    0.0927 H   0  0  0  0  0  0  0  0  0  0  0  0
   -0.6481   -0.1156    0.2017 C   0  0  1  0  0  0  0  0  0  0  0  0
    0.1042   -0.6345   -0.3958 H   0  0  0  0  0  0  0  0  0  0  0  0
   -1.0420    1.1781   -0.5372 C   0  0  0  0  0  0  0  0  0  0  0  0
   -0.1819    1.5676   -1.0839 H   0  0  0  0  0  0  0  0  0  0  0  0
   -1.8243    0.9631   -1.2664 H   0  0  0  0  0  0  0  0  0  0  0  0
   -1.5110    2.2674    0.3963 C   0  0  0  0  0  0  0  0  0  0  0  0
   -2.3991    2.1057    1.4605 N   0  0  0  0  0  0  0  0  0  0  0  0
   -2.4974    3.3084    2.0455 C   0  0  0  0  0  0  0  0  0  0  0  0
   -3.1233    3.5236    2.9023 H   0  0  0  0  0  0  0  0  0  0  0  0
   -1.7053    4.1985    1.4244 N   0  0  0  0  0  0  0  0  0  0  0  0
   -1.5905    5.1670    1.6905 H   0  0  0  0  0  0  0  0  0  0  0  0
   -1.0711    3.5588    0.3828 C   0  0  0  0  0  0  0  0  0  0  0  0
   -0.3478    3.9754   -0.3068 H   0  0  0  0  0  0  0  0  0  0  0  0
   -0.0283    0.1609    1.5831 C   0  0  0  0  0  0  0  0  0  0  0  0
    1.1923    0.1056    1.7329 O   0  0  0  0  0  0  0  0  0  0  0  0
   -0.8586    0.4659    2.5853 N   0  0  0  0  0  0  0  0  0  0  0  0
   -1.8521    0.3848    2.4000 H   0  0  0  0  0  0  0  0  0  0  0  0
   -0.4403    0.7694    3.9518 C   0  0  0  0  0  0  0  0  0  0  0  0
    0.5066    1.3154    3.9421 H   0  0  0  0  0  0  0  0  0  0  0  0
   -1.1988    1.3789    4.4452 H   0  0  0  0  0  0  0  0  0  0  0  0
   -0.3053   -0.1600    4.5075 H   0  0  0  0  0  0  0  0  0  0  0  0
  5  6  2  0  0  0  0
  5  7  1  0  0  0  0
  2  3  1  0  0  0  0
  2  4  1  0  0  0  0
  2  5  1  0  0  0  0
  1  2  1  0  0  0  0
 22 23  2  0  0  0  0
 22 24  1  0  0  0  0
 20 21  1  0  0  0  0
 18 19  1  0  0  0  0
 18 20  1  0  0  0  0
 16 17  1  0  0  0  0
 16 18  1  0  0  0  0
 15 16  2  0  0  0  0
 14 15  1  0  0  0  0
 14 20  2  0  0  0  0
 11 12  1  0  0  0  0
 11 13  1  0  0  0  0
 11 14  1  0  0  0  0
  9 10  1  0  0  0  0
  9 11  1  0  0  0  0
  9 22  1  0  0  0  0
  7  8  1  0  0  0  0
  7  9  1  0  0  0  0
 26 27  1  0  0  0  0
 26 28  1  0  0  0  0
 26 29  1  0  0  0  0
 24 25  1  0  0  0  0
 24 26  1  0  0  0  0
M  END
$$$$
default_name
  -OEChem-02102213163D

 29 29  0     1  0  0  0  0  0999 V2000
   -2.9561   -3.9186    1.3887 H   0  0  0  0  0  0  0  0  0  0  0  0
   -3.1191   -2.9346    0.9517 C   0  0  0  0  0  0  0  0  0  0  0  0
   -3.7811   -2.3546    1.5917 H   0  0  0  0  0  0  0  0  0  0  0  0
   -3.5591   -3.0406   -0.0383 H   0  0  0  0  0  0  0  0  0  0  0  0
   -1.7921   -2.2226    0.8327 C   0  0  0  0  0  0  0  0  0  0  0  0
   -0.7611   -2.7766    1.1927 O   0  0  0  0  0  0  0  0  0  0  0  0
   -1.8201   -0.9926    0.3247 N   0  0  0  0  0  0  0  0  0  0  0  0
   -2.7141   -0.5816    0.0927 H   0  0  0  0  0  0  0  0  0  0  0  0
   -0.6481   -0.1156    0.2017 C   0  0  1  0  0  0  0  0  0  0  0  0
    0.1042   -0.6345   -0.3958 H   0  0  0  0  0  0  0  0  0  0  0  0
   -1.0420    1.1781   -0.5372 C   0  0  0  0  0  0  0  0  0  0  0  0
   -0.1819    1.5676   -1.0839 H   0  0  0  0  0  0  0  0  0  0  0  0
   -1.8243    0.9631   -1.2664 H   0  0  0  0  0  0  0  0  0  0  0  0
   -1.5110    2.2674    0.3963 C   0  0  0  0  0  0  0  0  0  0  0  0
   -2.1528    2.0748    1.6204 N   0  0  0  0  0  0  0  0  0  0  0  0
   -2.3444    3.2988    2.1336 C   0  0  0  0  0  0  0  0  0  0  0  0
   -2.8327    3.4969    3.0794 H   0  0  0  0  0  0  0  0  0  0  0  0
   -1.8379    4.2357    1.3145 N   0  0  0  0  0  0  0  0  0  0  0  0
   -1.8411    5.2313    1.4896 H   0  0  0  0  0  0  0  0  0  0  0  0
   -1.3037    3.6034    0.2138 C   0  0  0  0  0  0  0  0  0  0  0  0
   -0.7968    4.0576   -0.6283 H   0  0  0  0  0  0  0  0  0  0  0  0
   -0.0283    0.1609    1.5831 C   0  0  0  0  0  0  0  0  0  0  0  0
    1.1923    0.1056    1.7329 O   0  0  0  0  0  0  0  0  0  0  0  0
   -0.8586    0.4659    2.5853 N   0  0  0  0  0  0  0  0  0  0  0  0
   -1.8521    0.3848    2.4000 H   0  0  0  0  0  0  0  0  0  0  0  0
   -0.4403    0.7694    3.9518 C   0  0  0  0  0  0  0  0  0  0  0  0
    0.5066    1.3154    3.9421 H   0  0  0  0  0  0  0  0  0  0  0  0
   -1.1988    1.3789    4.4452 H   0  0  0  0  0  0  0  0  0  0  0  0
   -0.3053   -0.1600    4.5075 H   0  0  0  0  0  0  0  0  0  0  0  0
  5  6  2  0  0  0  0
  5  7  1  0  0  0  0
  2  3  1  0  0  0  0
  2  4  1  0  0  0  0
  2  5  1  0  0  0  0
  1  2  1  0  0  0  0
 22 23  2  0  0  0  0
 22 24  1  0  0  0  0
 20 21  1  0  0  0  0
 18 19  1  0  0  0  0
 18 20  1  0  0  0  0
 16 17  1  0  0  0  0
 16 18  1  0  0  0  0
 15 16  2  0  0  0  0
 14 15  1  0  0  0  0
 14 20  2  0  0  0  0
 11 12  1  0  0  0  0
 11 13  1  0  0  0  0
 11 14  1  0  0  0  0
  9 10  1  0  0  0  0
  9 11  1  0  0  0  0
  9 22  1  0  0  0  0
  7  8  1  0  0  0  0
  7  9  1  0  0  0  0
 26 27  1  0  0  0  0
 26 28  1  0  0  0  0
 26 29  1  0  0  0  0
 24 25  1  0  0  0  0
 24 26  1  0  0  0  0
M  END
$$$$
default_name
  -OEChem-02102213163D

 29 29  0     1  0  0  0  0  0999 V2000
   -2.9561   -3.9186    1.3887 H   0  0  0  0  0  0  0  0  0  0  0  0
   -3.1191   -2.9346    0.9517 C   0  0  0  0  0  0  0  0  0  0  0  0
   -3.7811   -2.3546    1.5917 H   0  0  0  0  0  0  0  0  0  0  0  0
   -3.5591   -3.0406   -0.0383 H   0  0  0  0  0  0  0  0  0  0  0  0
   -1.7921   -2.2226    0.8327 C   0  0  0  0  0  0  0  0  0  0  0  0
   -0.7611   -2.7766    1.1927 O   0  0  0  0  0  0  0  0  0  0  0  0
   -1.8201   -0.9926    0.3247 N   0  0  0  0  0  0  0  0  0  0  0  0
   -2.7141   -0.5816    0.0927 H   0  0  0  0  0  0  0  0  0  0  0  0
   -0.6481   -0.1156    0.2017 C   0  0  1  0  0  0  0  0  0  0  0  0
    0.1042   -0.6345   -0.3958 H   0  0  0  0  0  0  0  0  0  0  0  0
   -1.0420    1.1781   -0.5372 C   0  0  0  0  0  0  0  0  0  0  0  0
   -0.1819    1.5676   -1.0839 H   0  0  0  0  0  0  0  0  0  0  0  0
   -1.8243    0.9631   -1.2664 H   0  0  0  0  0  0  0  0  0  0  0  0
   -1.5110    2.2674    0.3963 C   0  0  0  0  0  0  0  0  0  0  0  0
   -1.8801    2.0971    1.7313 N   0  0  0  0  0  0  0  0  0  0  0  0
   -2.1786    3.3210    2.1909 C   0  0  0  0  0  0  0  0  0  0  0  0
   -2.5147    3.5320    3.1983 H   0  0  0  0  0  0  0  0  0  0  0  0
   -1.9925    4.2415    1.2300 N   0  0  0  0  0  0  0  0  0  0  0  0
   -2.1310    5.2371    1.3371 H   0  0  0  0  0  0  0  0  0  0  0  0
   -1.5671    3.5958    0.0904 C   0  0  0  0  0  0  0  0  0  0  0  0
   -1.3037    4.0392   -0.8616 H   0  0  0  0  0  0  0  0  0  0  0  0
   -0.0283    0.1609    1.5831 C   0  0  0  0  0  0  0  0  0  0  0  0
    1.1923    0.1056    1.7329 O   0  0  0  0  0  0  0  0  0  0  0  0
   -0.8586    0.4659    2.5853 N   0  0  0  0  0  0  0  0  0  0  0  0
   -1.8521    0.3848    2.4000 H   0  0  0  0  0  0  0  0  0  0  0  0
   -0.4403    0.7694    3.9518 C   0  0  0  0  0  0  0  0  0  0  0  0
    0.5066    1.3154    3.9421 H   0  0  0  0  0  0  0  0  0  0  0  0
   -1.1988    1.3789    4.4452 H   0  0  0  0  0  0  0  0  0  0  0  0
   -0.3053   -0.1600    4.5075 H   0  0  0  0  0  0  0  0  0  0  0  0
  5  6  2  0  0  0  0
  5  7  1  0  0  0  0
  2  3  1  0  0  0  0
  2  4  1  0  0  0  0
  2  5  1  0  0  0  0
  1  2  1  0  0  0  0
 22 23  2  0  0  0  0
 22 24  1  0  0  0  0
 20 21  1  0  0  0  0
 18 19  1  0  0  0  0
 18 20  1  0  0  0  0
 16 17  1  0  0  0  0
 16 18  1  0  0  0  0
 15 16  2  0  0  0  0
 14 15  1  0  0  0  0
 14 20  2  0  0  0  0
 11 12  1  0  0  0  0
 11 13  1  0  0  0  0
 11 14  1  0  0  0  0
  9 10  1  0  0  0  0
  9 11  1  0  0  0  0
  9 22  1  0  0  0  0
  7  8  1  0  0  0  0
  7  9  1  0  0  0  0
 26 27  1  0  0  0  0
 26 28  1  0  0  0  0
 26 29  1  0  0  0  0
 24 25  1  0  0  0  0
 24 26  1  0  0  0  0
M  END
$$$$
default_name
  -OEChem-02102213163D

 29 29  0     1  0  0  0  0  0999 V2000
   -2.9561   -3.9186    1.3887 H   0  0  0  0  0  0  0  0  0  0  0  0
   -3.1191   -2.9346    0.9517 C   0  0  0  0  0  0  0  0  0  0  0  0
   -3.7811   -2.3546    1.5917 H   0  0  0  0  0  0  0  0  0  0  0  0
   -3.5591   -3.0406   -0.0383 H   0  0  0  0  0  0  0  0  0  0  0  0
   -1.7921   -2.2226    0.8327 C   0  0  0  0  0  0  0  0  0  0  0  0
   -0.7611   -2.7766    1.1927 O   0  0  0  0  0  0  0  0  0  0  0  0
   -1.8201   -0.9926    0.3247 N   0  0  0  0  0  0  0  0  0  0  0  0
   -2.7141   -0.5816    0.0927 H   0  0  0  0  0  0  0  0  0  0  0  0
   -0.6481   -0.1156    0.2017 C   0  0  1  0  0  0  0  0  0  0  0  0
    0.1042   -0.6345   -0.3958 H   0  0  0  0  0  0  0  0  0  0  0  0
   -1.0420    1.1781   -0.5372 C   0  0  0  0  0  0  0  0  0  0  0  0
   -0.1819    1.5676   -1.0839 H   0  0  0  0  0  0  0  0  0  0  0  0
   -1.8243    0.9631   -1.2664 H   0  0  0  0  0  0  0  0  0  0  0  0
   -1.5110    2.2674    0.3963 C   0  0  0  0  0  0  0  0  0  0  0  0
   -1.5996    2.1713    1.7857 N   0  0  0  0  0  0  0  0  0  0  0  0
   -2.0113    3.3737    2.2135 C   0  0  0  0  0  0  0  0  0  0  0  0
   -2.1908    3.6263    3.2509 H   0  0  0  0  0  0  0  0  0  0  0  0
   -2.1585    4.2156    1.1768 N   0  0  0  0  0  0  0  0  0  0  0  0
   -2.4405    5.1841    1.2435 H   0  0  0  0  0  0  0  0  0  0  0  0
   -1.8433    3.5363    0.0211 C   0  0  0  0  0  0  0  0  0  0  0  0
   -1.8340    3.9216   -0.9907 H   0  0  0  0  0  0  0  0  0  0  0  0
   -0.0283    0.1609    1.5831 C   0  0  0  0  0  0  0  0  0  0  0  0
    1.1923    0.1056    1.7329 O   0  0  0  0  0  0  0  0  0  0  0  0
   -0.8586    0.4659    2.5853 N   0  0  0  0  0  0  0  0  0  0  0  0
   -1.8521    0.3848    2.4000 H   0  0  0  0  0  0  0  0  0  0  0  0
   -0.4403    0.7694    3.9518 C   0  0  0  0  0  0  0  0  0  0  0  0
    0.5066    1.3154    3.9421 H   0  0  0  0  0  0  0  0  0  0  0  0
   -1.1988    1.3789    4.4452 H   0  0  0  0  0  0  0  0  0  0  0  0
   -0.3053   -0.1600    4.5075 H   0  0  0  0  0  0  0  0  0  0  0  0
  5  6  2  0  0  0  0
  5  7  1  0  0  0  0
  2  3  1  0  0  0  0
  2  4  1  0  0  0  0
  2  5  1  0  0  0  0
  1  2  1  0  0  0  0
 22 23  2  0  0  0  0
 22 24  1  0  0  0  0
 20 21  1  0  0  0  0
 18 19  1  0  0  0  0
 18 20  1  0  0  0  0
 16 17  1  0  0  0  0
 16 18  1  0  0  0  0
 15 16  2  0  0  0  0
 14 15  1  0  0  0  0
 14 20  2  0  0  0  0
 11 12  1  0  0  0  0
 11 13  1  0  0  0  0
 11 14  1  0  0  0  0
  9 10  1  0  0  0  0
  9 11  1  0  0  0  0
  9 22  1  0  0  0  0
  7  8  1  0  0  0  0
  7  9  1  0  0  0  0
 26 27  1  0  0  0  0
 26 28  1  0  0  0  0
 26 29  1  0  0  0  0
 24 25  1  0  0  0  0
 24 26  1  0  0  0  0
M  END
$$$$
default_name
  -OEChem-02102213163D

 29 29  0     1  0  0  0  0  0999 V2000
   -2.9561   -3.9186    1.3887 H   0  0  0  0  0  0  0  0  0  0  0  0
   -3.1191   -2.9346    0.9517 C   0  0  0  0  0  0  0  0  0  0  0  0
   -3.7811   -2.3546    1.5917 H   0  0  0  0  0  0  0  0  0  0  0  0
   -3.5591   -3.0406   -0.0383 H   0  0  0  0  0  0  0  0  0  0  0  0
   -1.7921   -2.2226    0.8327 C   0  0  0  0  0  0  0  0  0  0  0  0
   -0.7611   -2.7766    1.1927 O   0  0  0  0  0  0  0  0  0  0  0  0
   -1.8201   -0.9926    0.3247 N   0  0  0  0  0  0  0  0  0  0  0  0
   -2.7141   -0.5816    0.0927 H   0  0  0  0  0  0  0  0  0  0  0  0
   -0.6481   -0.1156    0.2017 C   0  0  1  0  0  0  0  0  0  0  0  0
    0.1042   -0.6345   -0.3958 H   0  0  0  0  0  0  0  0  0  0  0  0
   -1.0420    1.1781   -0.5372 C   0  0  0  0  0  0  0  0  0  0  0  0
   -0.1819    1.5676   -1.0839 H   0  0  0  0  0  0  0  0  0  0  0  0
   -1.8243    0.9631   -1.2664 H   0  0  0  0  0  0  0  0  0  0  0  0
   -1.5110    2.2674    0.3963 C   0  0  0  0  0  0  0  0  0  0  0  0
   -1.3303    2.2922    1.7798 N   0  0  0  0  0  0  0  0  0  0  0  0
   -1.8539    3.4532    2.1999 C   0  0  0  0  0  0  0  0  0  0  0  0
   -1.8833    3.7735    3.2337 H   0  0  0  0  0  0  0  0  0  0  0  0
   -2.3247    4.1597    1.1585 N   0  0  0  0  0  0  0  0  0  0  0  0
   -2.7484    5.0758    1.2152 H   0  0  0  0  0  0  0  0  0  0  0  0
   -2.1135    3.4290    0.0105 C   0  0  0  0  0  0  0  0  0  0  0  0
   -2.3515    3.7127   -1.0070 H   0  0  0  0  0  0  0  0  0  0  0  0
   -0.0283    0.1609    1.5831 C   0  0  0  0  0  0  0  0  0  0  0  0
    1.1923    0.1056    1.7329 O   0  0  0  0  0  0  0  0  0  0  0  0
   -0.8586    0.4659    2.5853 N   0  0  0  0  0  0  0  0  0  0  0  0
   -1.8521    0.3848    2.4000 H   0  0  0  0  0  0  0  0  0  0  0  0
   -0.4403    0.7694    3.9518 C   0  0  0  0  0  0  0  0  0  0  0  0
    0.5066    1.3154    3.9421 H   0  0  0  0  0  0  0  0  0  0  0  0
   -1.1988    1.3789    4.4452 H   0  0  0  0  0  0  0  0  0  0  0  0
   -0.3053   -0.1600    4.5075 H   0  0  0  0  0  0  0  0  0  0  0  0
  5  6  2  0  0  0  0
  5  7  1  0  0  0  0
  2  3  1  0  0  0  0
  2  4  1  0  0  0  0
  2  5  1  0  0  0  0
  1  2  1  0  0  0  0
 22 23  2  0  0  0  0
 22 24  1  0  0  0  0
 20 21  1  0  0  0  0
 18 19  1  0  0  0  0
 18 20  1  0  0  0  0
 16 17  1  0  0  0  0
 16 18  1  0  0  0  0
 15 16  2  0  0  0  0
 14 15  1  0  0  0  0
 14 20  2  0  0  0  0
 11 12  1  0  0  0  0
 11 13  1  0  0  0  0
 11 14  1  0  0  0  0
  9 10  1  0  0  0  0
  9 11  1  0  0  0  0
  9 22  1  0  0  0  0
  7  8  1  0  0  0  0
  7  9  1  0  0  0  0
 26 27  1  0  0  0  0
 26 28  1  0  0  0  0
 26 29  1  0  0  0  0
 24 25  1  0  0  0  0
 24 26  1  0  0  0  0
M  END
$$$$
default_name
  -OEChem-02102213163D

 29 29  0     1  0  0  0  0  0999 V2000
   -2.9561   -3.9186    1.3887 H   0  0  0  0  0  0  0  0  0  0  0  0
   -3.1191   -2.9346    0.9517 C   0  0  0  0  0  0  0  0  0  0  0  0
   -3.7811   -2.3546    1.5917 H   0  0  0  0  0  0  0  0  0  0  0  0
   -3.5591   -3.0406   -0.0383 H   0  0  0  0  0  0  0  0  0  0  0  0
   -1.7921   -2.2226    0.8327 C   0  0  0  0  0  0  0  0  0  0  0  0
   -0.7611   -2.7766    1.1927 O   0  0  0  0  0  0  0  0  0  0  0  0
   -1.8201   -0.9926    0.3247 N   0  0  0  0  0  0  0  0  0  0  0  0
   -2.7141   -0.5816    0.0927 H   0  0  0  0  0  0  0  0  0  0  0  0
   -0.6481   -0.1156    0.2017 C   0  0  1  0  0  0  0  0  0  0  0  0
    0.1042   -0.6345   -0.3958 H   0  0  0  0  0  0  0  0  0  0  0  0
   -1.0420    1.1781   -0.5372 C   0  0  0  0  0  0  0  0  0  0  0  0
   -0.1819    1.5676   -1.0839 H   0  0  0  0  0  0  0  0  0  0  0  0
   -1.8243    0.9631   -1.2664 H   0  0  0  0  0  0  0  0  0  0  0  0
   -1.5110    2.2674    0.3963 C   0  0  0  0  0  0  0  0  0  0  0  0
   -1.0907    2.4517    1.7142 N   0  0  0  0  0  0  0  0  0  0  0  0
   -1.7172    3.5540    2.1509 C   0  0  0  0  0  0  0  0  0  0  0  0
   -1.6130    3.9635    3.1478 H   0  0  0  0  0  0  0  0  0  0  0  0
   -2.4797    4.0777    1.1764 N   0  0  0  0  0  0  0  0  0  0  0  0
   -3.0337    4.9196    1.2541 H   0  0  0  0  0  0  0  0  0  0  0  0
   -2.3594    3.2813    0.0593 C   0  0  0  0  0  0  0  0  0  0  0  0
   -2.8210    3.4268   -0.9092 H   0  0  0  0  0  0  0  0  0  0  0  0
   -0.0283    0.1609    1.5831 C   0  0  0  0  0  0  0  0  0  0  0  0
    1.1923    0.1056    1.7329 O   0  0  0  0  0  0  0  0  0  0  0  0
   -0.8586    0.4659    2.5853 N   0  0  0  0  0  0  0  0  0  0  0  0
   -1.8521    0.3848    2.4000 H   0  0  0  0  0  0  0  0  0  0  0  0
   -0.4403    0.7694    3.9518 C   0  0  0  0  0  0  0  0  0  0  0  0
    0.5066    1.3154    3.9421 H   0  0  0  0  0  0  0  0  0  0  0  0
   -1.1988    1.3789    4.4452 H   0  0  0  0  0  0  0  0  0  0  0  0
   -0.3053   -0.1600    4.5075 H   0  0  0  0  0  0  0  0  0  0  0  0
  5  6  2  0  0  0  0
  5  7  1  0  0  0  0
  2  3  1  0  0  0  0
  2  4  1  0  0  0  0
  2  5  1  0  0  0  0
  1  2  1  0  0  0  0
 22 23  2  0  0  0  0
 22 24  1  0  0  0  0
 20 21  1  0  0  0  0
 18 19  1  0  0  0  0
 18 20  1  0  0  0  0
 16 17  1  0  0  0  0
 16 18  1  0  0  0  0
 15 16  2  0  0  0  0
 14 15  1  0  0  0  0
 14 20  2  0  0  0  0
 11 12  1  0  0  0  0
 11 13  1  0  0  0  0
 11 14  1  0  0  0  0
  9 10  1  0  0  0  0
  9 11  1  0  0  0  0
  9 22  1  0  0  0  0
  7  8  1  0  0  0  0
  7  9  1  0  0  0  0
 26 27  1  0  0  0  0
 26 28  1  0  0  0  0
 26 29  1  0  0  0  0
 24 25  1  0  0  0  0
 24 26  1  0  0  0  0
M  END
$$$$
default_name
  -OEChem-02102213163D

 29 29  0     1  0  0  0  0  0999 V2000
   -2.9561   -3.9186    1.3887 H   0  0  0  0  0  0  0  0  0  0  0  0
   -3.1191   -2.9346    0.9517 C   0  0  0  0  0  0  0  0  0  0  0  0
   -3.7811   -2.3546    1.5917 H   0  0  0  0  0  0  0  0  0  0  0  0
   -3.5591   -3.0406   -0.0383 H   0  0  0  0  0  0  0  0  0  0  0  0
   -1.7921   -2.2226    0.8327 C   0  0  0  0  0  0  0  0  0  0  0  0
   -0.7611   -2.7766    1.1927 O   0  0  0  0  0  0  0  0  0  0  0  0
   -1.8201   -0.9926    0.3247 N   0  0  0  0  0  0  0  0  0  0  0  0
   -2.7141   -0.5816    0.0927 H   0  0  0  0  0  0  0  0  0  0  0  0
   -0.6481   -0.1156    0.2017 C   0  0  1  0  0  0  0  0  0  0  0  0
    0.1042   -0.6345   -0.3958 H   0  0  0  0  0  0  0  0  0  0  0  0
   -1.0420    1.1781   -0.5372 C   0  0  0  0  0  0  0  0  0  0  0  0
   -0.1819    1.5676   -1.0839 H   0  0  0  0  0  0  0  0  0  0  0  0
   -1.8243    0.9631   -1.2664 H   0  0  0  0  0  0  0  0  0  0  0  0
   -1.5110    2.2674    0.3963 C   0  0  0  0  0  0  0  0  0  0  0  0
   -0.8970    2.6388    1.5932 N   0  0  0  0  0  0  0  0  0  0  0  0
   -1.6104    3.6694    2.0700 C   0  0  0  0  0  0  0  0  0  0  0  0
   -1.3984    4.1834    2.9990 H   0  0  0  0  0  0  0  0  0  0  0  0
   -2.6129    3.9751    1.2292 N   0  0  0  0  0  0  0  0  0  0  0  0
   -3.2771    4.7262    1.3575 H   0  0  0  0  0  0  0  0  0  0  0  0
   -2.5640    3.1032    0.1643 C   0  0  0  0  0  0  0  0  0  0  0  0
   -3.2104    3.0833   -0.7041 H   0  0  0  0  0  0  0  0  0  0  0  0
   -0.0283    0.1609    1.5831 C   0  0  0  0  0  0  0  0  0  0  0  0
    1.1923    0.1056    1.7329 O   0  0  0  0  0  0  0  0  0  0  0  0
   -0.8586    0.4659    2.5853 N   0  0  0  0  0  0  0  0  0  0  0  0
   -1.8521    0.3848    2.4000 H   0  0  0  0  0  0  0  0  0  0  0  0
   -0.4403    0.7694    3.9518 C   0  0  0  0  0  0  0  0  0  0  0  0
    0.5066    1.3154    3.9421 H   0  0  0  0  0  0  0  0  0  0  0  0
   -1.1988    1.3789    4.4452 H   0  0  0  0  0  0  0  0  0  0  0  0
   -0.3053   -0.1600    4.5075 H   0  0  0  0  0  0  0  0  0  0  0  0
  5  6  2  0  0  0  0
  5  7  1  0  0  0  0
  2  3  1  0  0  0  0
  2  4  1  0  0  0  0
  2  5  1  0  0  0  0
  1  2  1  0  0  0  0
 22 23  2  0  0  0  0
 22 24  1  0  0  0  0
 20 21  1  0  0  0  0
 18 19  1  0  0  0  0
 18 20  1  0  0  0  0
 16 17  1  0  0  0  0
 16 18  1  0  0  0  0
 15 16  2  0  0  0  0
 14 15  1  0  0  0  0
 14 20  2  0  0  0  0
 11 12  1  0  0  0  0
 11 13  1  0  0  0  0
 11 14  1  0  0  0  0
  9 10  1  0  0  0  0
  9 11  1  0  0  0  0
  9 22  1  0  0  0  0
  7  8  1  0  0  0  0
  7  9  1  0  0  0  0
 26 27  1  0  0  0  0
 26 28  1  0  0  0  0
 26 29  1  0  0  0  0
 24 25  1  0  0  0  0
 24 26  1  0  0  0  0
M  END
$$$$
default_name
  -OEChem-02102213163D

 29 29  0     1  0  0  0  0  0999 V2000
   -2.9561   -3.9186    1.3887 H   0  0  0  0  0  0  0  0  0  0  0  0
   -3.1191   -2.9346    0.9517 C   0  0  0  0  0  0  0  0  0  0  0  0
   -3.7811   -2.3546    1.5917 H   0  0  0  0  0  0  0  0  0  0  0  0
   -3.5591   -3.0406   -0.0383 H   0  0  0  0  0  0  0  0  0  0  0  0
   -1.7921   -2.2226    0.8327 C   0  0  0  0  0  0  0  0  0  0  0  0
   -0.7611   -2.7766    1.1927 O   0  0  0  0  0  0  0  0  0  0  0  0
   -1.8201   -0.9926    0.3247 N   0  0  0  0  0  0  0  0  0  0  0  0
   -2.7141   -0.5816    0.0927 H   0  0  0  0  0  0  0  0  0  0  0  0
   -0.6481   -0.1156    0.2017 C   0  0  1  0  0  0  0  0  0  0  0  0
    0.1042   -0.6345   -0.3958 H   0  0  0  0  0  0  0  0  0  0  0  0
   -1.0420    1.1781   -0.5372 C   0  0  0  0  0  0  0  0  0  0  0  0
   -0.1819    1.5676   -1.0839 H   0  0  0  0  0  0  0  0  0  0  0  0
   -1.8243    0.9631   -1.2664 H   0  0  0  0  0  0  0  0  0  0  0  0
   -1.5110    2.2674    0.3963 C   0  0  0  0  0  0  0  0  0  0  0  0
   -0.7625    2.8408    1.4251 N   0  0  0  0  0  0  0  0  0  0  0  0
   -1.5408    3.7914    1.9625 C   0  0  0  0  0  0  0  0  0  0  0  0
   -1.2541    4.4182    2.7975 H   0  0  0  0  0  0  0  0  0  0  0  0
   -2.7153    3.8589    1.3134 N   0  0  0  0  0  0  0  0  0  0  0  0
   -3.4619    4.5088    1.5184 H   0  0  0  0  0  0  0  0  0  0  0  0
   -2.7136    2.9068    0.3183 C   0  0  0  0  0  0  0  0  0  0  0  0
   -3.4933    2.7057   -0.4056 H   0  0  0  0  0  0  0  0  0  0  0  0
   -0.0283    0.1609    1.5831 C   0  0  0  0  0  0  0  0  0  0  0  0
    1.1923    0.1056    1.7329 O   0  0  0  0  0  0  0  0  0  0  0  0
   -0.8586    0.4659    2.5853 N   0  0  0  0  0  0  0  0  0  0  0  0
   -1.8521    0.3848    2.4000 H   0  0  0  0  0  0  0  0  0  0  0  0
   -0.4403    0.7694    3.9518 C   0  0  0  0  0  0  0  0  0  0  0  0
    0.5066    1.3154    3.9421 H   0  0  0  0  0  0  0  0  0  0  0  0
   -1.1988    1.3789    4.4452 H   0  0  0  0  0  0  0  0  0  0  0  0
   -0.3053   -0.1600    4.5075 H   0  0  0  0  0  0  0  0  0  0  0  0
  5  6  2  0  0  0  0
  5  7  1  0  0  0  0
  2  3  1  0  0  0  0
  2  4  1  0  0  0  0
  2  5  1  0  0  0  0
  1  2  1  0  0  0  0
 22 23  2  0  0  0  0
 22 24  1  0  0  0  0
 20 21  1  0  0  0  0
 18 19  1  0  0  0  0
 18 20  1  0  0  0  0
 16 17  1  0  0  0  0
 16 18  1  0  0  0  0
 15 16  2  0  0  0  0
 14 15  1  0  0  0  0
 14 20  2  0  0  0  0
 11 12  1  0  0  0  0
 11 13  1  0  0  0  0
 11 14  1  0  0  0  0
  9 10  1  0  0  0  0
  9 11  1  0  0  0  0
  9 22  1  0  0  0  0
  7  8  1  0  0  0  0
  7  9  1  0  0  0  0
 26 27  1  0  0  0  0
 26 28  1  0  0  0  0
 26 29  1  0  0  0  0
 24 25  1  0  0  0  0
 24 26  1  0  0  0  0
M  END
$$$$
default_name
  -OEChem-02102213163D

 29 29  0     1  0  0  0  0  0999 V2000
   -2.9561   -3.9186    1.3887 H   0  0  0  0  0  0  0  0  0  0  0  0
   -3.1191   -2.9346    0.9517 C   0  0  0  0  0  0  0  0  0  0  0  0
   -3.7811   -2.3546    1.5917 H   0  0  0  0  0  0  0  0  0  0  0  0
   -3.5591   -3.0406   -0.0383 H   0  0  0  0  0  0  0  0  0  0  0  0
   -1.7921   -2.2226    0.8327 C   0  0  0  0  0  0  0  0  0  0  0  0
   -0.7611   -2.7766    1.1927 O   0  0  0  0  0  0  0  0  0  0  0  0
   -1.8201   -0.9926    0.3247 N   0  0  0  0  0  0  0  0  0  0  0  0
   -2.7141   -0.5816    0.0927 H   0  0  0  0  0  0  0  0  0  0  0  0
   -0.6481   -0.1156    0.2017 C   0  0  1  0  0  0  0  0  0  0  0  0
    0.1042   -0.6345   -0.3958 H   0  0  0  0  0  0  0  0  0  0  0  0
   -1.0420    1.1781   -0.5372 C   0  0  0  0  0  0  0  0  0  0  0  0
   -0.1819    1.5676   -1.0839 H   0  0  0  0  0  0  0  0  0  0  0  0
   -1.8243    0.9631   -1.2664 H   0  0  0  0  0  0  0  0  0  0  0  0
   -1.5110    2.2674    0.3963 C   0  0  0  0  0  0  0  0  0  0  0  0
   -0.6962    3.0439    1.2213 N   0  0  0  0  0  0  0  0  0  0  0  0
   -1.5132    3.9118    1.8360 C   0  0  0  0  0  0  0  0  0  0  0  0
   -1.1900    4.6519    2.5571 H   0  0  0  0  0  0  0  0  0  0  0  0
   -2.7798    3.7370    1.4231 N   0  0  0  0  0  0  0  0  0  0  0  0
   -3.5755    4.2821    1.7258 H   0  0  0  0  0  0  0  0  0  0  0  0
   -2.7979    2.7056    0.5108 C   0  0  0  0  0  0  0  0  0  0  0  0
   -3.6503    2.3196   -0.0340 H   0  0  0  0  0  0  0  0  0  0  0  0
   -0.0283    0.1609    1.5831 C   0  0  0  0  0  0  0  0  0  0  0  0
    1.1923    0.1056    1.7329 O   0  0  0  0  0  0  0  0  0  0  0  0
   -0.8586    0.4659    2.5853 N   0  0  0  0  0  0  0  0  0  0  0  0
   -1.8521    0.3848    2.4000 H   0  0  0  0  0  0  0  0  0  0  0  0
   -0.4403    0.7694    3.9518 C   0  0  0  0  0  0  0  0  0  0  0  0
    0.5066    1.3154    3.9421 H   0  0  0  0  0  0  0  0  0  0  0  0
   -1.1988    1.3789    4.4452 H   0  0  0  0  0  0  0  0  0  0  0  0
   -0.3053   -0.1600    4.5075 H   0  0  0  0  0  0  0  0  0  0  0  0
  5  6  2  0  0  0  0
  5  7  1  0  0  0  0
  2  3  1  0  0  0  0
  2  4  1  0  0  0  0
  2  5  1  0  0  0  0
  1  2  1  0  0  0  0
 22 23  2  0  0  0  0
 22 24  1  0  0  0  0
 20 21  1  0  0  0  0
 18 19  1  0  0  0  0
 18 20  1  0  0  0  0
 16 17  1  0  0  0  0
 16 18  1  0  0  0  0
 15 16  2  0  0  0  0
 14 15  1  0  0  0  0
 14 20  2  0  0  0  0
 11 12  1  0  0  0  0
 11 13  1  0  0  0  0
 11 14  1  0  0  0  0
  9 10  1  0  0  0  0
  9 11  1  0  0  0  0
  9 22  1  0  0  0  0
  7  8  1  0  0  0  0
  7  9  1  0  0  0  0
 26 27  1  0  0  0  0
 26 28  1  0  0  0  0
 26 29  1  0  0  0  0
 24 25  1  0  0  0  0
 24 26  1  0  0  0  0
M  END
$$$$
default_name
  -OEChem-02102213163D

 29 29  0     1  0  0  0  0  0999 V2000
   -2.9561   -3.9186    1.3887 H   0  0  0  0  0  0  0  0  0  0  0  0
   -3.1191   -2.9346    0.9517 C   0  0  0  0  0  0  0  0  0  0  0  0
   -3.7811   -2.3546    1.5917 H   0  0  0  0  0  0  0  0  0  0  0  0
   -3.5591   -3.0406   -0.0383 H   0  0  0  0  0  0  0  0  0  0  0  0
   -1.7921   -2.2226    0.8327 C   0  0  0  0  0  0  0  0  0  0  0  0
   -0.7611   -2.7766    1.1927 O   0  0  0  0  0  0  0  0  0  0  0  0
   -1.8201   -0.9926    0.3247 N   0  0  0  0  0  0  0  0  0  0  0  0
   -2.7141   -0.5816    0.0927 H   0  0  0  0  0  0  0  0  0  0  0  0
   -0.6481   -0.1156    0.2017 C   0  0  1  0  0  0  0  0  0  0  0  0
    0.1042   -0.6345   -0.3958 H   0  0  0  0  0  0  0  0  0  0  0  0
   -1.0420    1.1781   -0.5372 C   0  0  0  0  0  0  0  0  0  0  0  0
   -0.1819    1.5676   -1.0839 H   0  0  0  0  0  0  0  0  0  0  0  0
   -1.8243    0.9631   -1.2664 H   0  0  0  0  0  0  0  0  0  0  0  0
   -1.5110    2.2674    0.3963 C   0  0  0  0  0  0  0  0  0  0  0  0
   -0.7029    3.2344    0.9958 N   0  0  0  0  0  0  0  0  0  0  0  0
   -1.5294    4.0223    1.6989 C   0  0  0  0  0  0  0  0  0  0  0  0
   -1.2103    4.8685    2.2941 H   0  0  0  0  0  0  0  0  0  0  0  0
   -2.8022    3.6178    1.5510 N   0  0  0  0  0  0  0  0  0  0  0  0
   -3.6103    4.0616    1.9656 H   0  0  0  0  0  0  0  0  0  0  0  0
   -2.8112    2.5132    0.7286 C   0  0  0  0  0  0  0  0  0  0  0  0
   -3.6708    1.9515    0.3853 H   0  0  0  0  0  0  0  0  0  0  0  0
   -0.0283    0.1609    1.5831 C   0  0  0  0  0  0  0  0  0  0  0  0
    1.1923    0.1056    1.7329 O   0  0  0  0  0  0  0  0  0  0  0  0
   -0.8586    0.4659    2.5853 N   0  0  0  0  0  0  0  0  0  0  0  0
   -1.8521    0.3848    2.4000 H   0  0  0  0  0  0  0  0  0  0  0  0
   -0.4403    0.7694    3.9518 C   0  0  0  0  0  0  0  0  0  0  0  0
    0.5066    1.3154    3.9421 H   0  0  0  0  0  0  0  0  0  0  0  0
   -1.1988    1.3789    4.4452 H   0  0  0  0  0  0  0  0  0  0  0  0
   -0.3053   -0.1600    4.5075 H   0  0  0  0  0  0  0  0  0  0  0  0
  5  6  2  0  0  0  0
  5  7  1  0  0  0  0
  2  3  1  0  0  0  0
  2  4  1  0  0  0  0
  2  5  1  0  0  0  0
  1  2  1  0  0  0  0
 22 23  2  0  0  0  0
 22 24  1  0  0  0  0
 20 21  1  0  0  0  0
 18 19  1  0  0  0  0
 18 20  1  0  0  0  0
 16 17  1  0  0  0  0
 16 18  1  0  0  0  0
 15 16  2  0  0  0  0
 14 15  1  0  0  0  0
 14 20  2  0  0  0  0
 11 12  1  0  0  0  0
 11 13  1  0  0  0  0
 11 14  1  0  0  0  0
  9 10  1  0  0  0  0
  9 11  1  0  0  0  0
  9 22  1  0  0  0  0
  7  8  1  0  0  0  0
  7  9  1  0  0  0  0
 26 27  1  0  0  0  0
 26 28  1  0  0  0  0
 26 29  1  0  0  0  0
 24 25  1  0  0  0  0
 24 26  1  0  0  0  0
M  END
$$$$
default_name
  -OEChem-02102213163D

 29 29  0     1  0  0  0  0  0999 V2000
   -2.9561   -3.9186    1.3887 H   0  0  0  0  0  0  0  0  0  0  0  0
   -3.1191   -2.9346    0.9517 C   0  0  0  0  0  0  0  0  0  0  0  0
   -3.7811   -2.3546    1.5917 H   0  0  0  0  0  0  0  0  0  0  0  0
   -3.5591   -3.0406   -0.0383 H   0  0  0  0  0  0  0  0  0  0  0  0
   -1.7921   -2.2226    0.8327 C   0  0  0  0  0  0  0  0  0  0  0  0
   -0.7611   -2.7766    1.1927 O   0  0  0  0  0  0  0  0  0  0  0  0
   -1.8201   -0.9926    0.3247 N   0  0  0  0  0  0  0  0  0  0  0  0
   -2.7141   -0.5816    0.0927 H   0  0  0  0  0  0  0  0  0  0  0  0
   -0.6481   -0.1156    0.2017 C   0  0  1  0  0  0  0  0  0  0  0  0
    0.1042   -0.6345   -0.3958 H   0  0  0  0  0  0  0  0  0  0  0  0
   -1.0420    1.1781   -0.5372 C   0  0  0  0  0  0  0  0  0  0  0  0
   -0.1819    1.5676   -1.0839 H   0  0  0  0  0  0  0  0  0  0  0  0
   -1.8243    0.9631   -1.2664 H   0  0  0  0  0  0  0  0  0  0  0  0
   -1.5110    2.2674    0.3963 C   0  0  0  0  0  0  0  0  0  0  0  0
   -0.7819    3.3991    0.7639 N   0  0  0  0  0  0  0  0  0  0  0  0
   -1.5884    4.1154    1.5606 C   0  0  0  0  0  0  0  0  0  0  0  0
   -1.3138    5.0534    2.0264 H   0  0  0  0  0  0  0  0  0  0  0  0
   -2.7808    3.5093    1.6883 N   0  0  0  0  0  0  0  0  0  0  0  0
   -3.5637    3.8624    2.2214 H   0  0  0  0  0  0  0  0  0  0  0  0
   -2.7525    2.3428    0.9569 C   0  0  0  0  0  0  0  0  0  0  0  0
   -3.5533    1.6263    0.8237 H   0  0  0  0  0  0  0  0  0  0  0  0
   -0.0283    0.1609    1.5831 C   0  0  0  0  0  0  0  0  0  0  0  0
    1.1923    0.1056    1.7329 O   0  0  0  0  0  0  0  0  0  0  0  0
   -0.8586    0.4659    2.5853 N   0  0  0  0  0  0  0  0  0  0  0  0
   -1.8521    0.3848    2.4000 H   0  0  0  0  0  0  0  0  0  0  0  0
   -0.4403    0.7694    3.9518 C   0  0  0  0  0  0  0  0  0  0  0  0
    0.5066    1.3154    3.9421 H   0  0  0  0  0  0  0  0  0  0  0  0
   -1.1988    1.3789    4.4452 H   0  0  0  0  0  0  0  0  0  0  0  0
   -0.3053   -0.1600    4.5075 H   0  0  0  0  0  0  0  0  0  0  0  0
  5  6  2  0  0  0  0
  5  7  1  0  0  0  0
  2  3  1  0  0  0  0
  2  4  1  0  0  0  0
  2  5  1  0  0  0  0
  1  2  1  0  0  0  0
 22 23  2  0  0  0  0
 22 24  1  0  0  0  0
 20 21  1  0  0  0  0
 18 19  1  0  0  0  0
 18 20  1  0  0  0  0
 16 17  1  0  0  0  0
 16 18  1  0  0  0  0
 15 16  2  0  0  0  0
 14 15  1  0  0  0  0
 14 20  2  0  0  0  0
 11 12  1  0  0  0  0
 11 13  1  0  0  0  0
 11 14  1  0  0  0  0
  9 10  1  0  0  0  0
  9 11  1  0  0  0  0
  9 22  1  0  0  0  0
  7  8  1  0  0  0  0
  7  9  1  0  0  0  0
 26 27  1  0  0  0  0
 26 28  1  0  0  0  0
 26 29  1  0  0  0  0
 24 25  1  0  0  0  0
 24 26  1  0  0  0  0
M  END
$$$$
default_name
  -OEChem-02102213163D

 29 29  0     1  0  0  0  0  0999 V2000
   -2.9561   -3.9186    1.3887 H   0  0  0  0  0  0  0  0  0  0  0  0
   -3.1191   -2.9346    0.9517 C   0  0  0  0  0  0  0  0  0  0  0  0
   -3.7811   -2.3546    1.5917 H   0  0  0  0  0  0  0  0  0  0  0  0
   -3.5591   -3.0406   -0.0383 H   0  0  0  0  0  0  0  0  0  0  0  0
   -1.7921   -2.2226    0.8327 C   0  0  0  0  0  0  0  0  0  0  0  0
   -0.7611   -2.7766    1.1927 O   0  0  0  0  0  0  0  0  0  0  0  0
   -1.8201   -0.9926    0.3247 N   0  0  0  0  0  0  0  0  0  0  0  0
   -2.7141   -0.5816    0.0927 H   0  0  0  0  0  0  0  0  0  0  0  0
   -0.6481   -0.1156    0.2017 C   0  0  1  0  0  0  0  0  0  0  0  0
    0.1042   -0.6345   -0.3958 H   0  0  0  0  0  0  0  0  0  0  0  0
   -1.0420    1.1781   -0.5372 C   0  0  0  0  0  0  0  0  0  0  0  0
   -0.1819    1.5676   -1.0839 H   0  0  0  0  0  0  0  0  0  0  0  0
   -1.8243    0.9631   -1.2664 H   0  0  0  0  0  0  0  0  0  0  0  0
   -1.5110    2.2674    0.3963 C   0  0  0  0  0  0  0  0  0  0  0  0
   -0.9279    3.5269    0.5414 N   0  0  0  0  0  0  0  0  0  0  0  0
   -1.6862    4.1847    1.4306 C   0  0  0  0  0  0  0  0  0  0  0  0
   -1.4934    5.1938    1.7723 H   0  0  0  0  0  0  0  0  0  0  0  0
   -2.7172    3.4190    1.8256 N   0  0  0  0  0  0  0  0  0  0  0  0
   -3.4391    3.6979    2.4759 H   0  0  0  0  0  0  0  0  0  0  0  0
   -2.6259    2.2059    1.1803 C   0  0  0  0  0  0  0  0  0  0  0  0
   -3.3059    1.3663    1.2513 H   0  0  0  0  0  0  0  0  0  0  0  0
   -0.0283    0.1609    1.5831 C   0  0  0  0  0  0  0  0  0  0  0  0
    1.1923    0.1056    1.7329 O   0  0  0  0  0  0  0  0  0  0  0  0
   -0.8586    0.4659    2.5853 N   0  0  0  0  0  0  0  0  0  0  0  0
   -1.8521    0.3848    2.4000 H   0  0  0  0  0  0  0  0  0  0  0  0
   -0.4403    0.7694    3.9518 C   0  0  0  0  0  0  0  0  0  0  0  0
    0.5066    1.3154    3.9421 H   0  0  0  0  0  0  0  0  0  0  0  0
   -1.1988    1.3789    4.4452 H   0  0  0  0  0  0  0  0  0  0  0  0
   -0.3053   -0.1600    4.5075 H   0  0  0  0  0  0  0  0  0  0  0  0
  5  6  2  0  0  0  0
  5  7  1  0  0  0  0
  2  3  1  0  0  0  0
  2  4  1  0  0  0  0
  2  5  1  0  0  0  0
  1  2  1  0  0  0  0
 22 23  2  0  0  0  0
 22 24  1  0  0  0  0
 20 21  1  0  0  0  0
 18 19  1  0  0  0  0
 18 20  1  0  0  0  0
 16 17  1  0  0  0  0
 16 18  1  0  0  0  0
 15 16  2  0  0  0  0
 14 15  1  0  0  0  0
 14 20  2  0  0  0  0
 11 12  1  0  0  0  0
 11 13  1  0  0  0  0
 11 14  1  0  0  0  0
  9 10  1  0  0  0  0
  9 11  1  0  0  0  0
  9 22  1  0  0  0  0
  7  8  1  0  0  0  0
  7  9  1  0  0  0  0
 26 27  1  0  0  0  0
 26 28  1  0  0  0  0
 26 29  1  0  0  0  0
 24 25  1  0  0  0  0
 24 26  1  0  0  0  0
M  END
$$$$
default_name
  -OEChem-02102213163D

 29 29  0     1  0  0  0  0  0999 V2000
   -2.9561   -3.9186    1.3887 H   0  0  0  0  0  0  0  0  0  0  0  0
   -3.1191   -2.9346    0.9517 C   0  0  0  0  0  0  0  0  0  0  0  0
   -3.7811   -2.3546    1.5917 H   0  0  0  0  0  0  0  0  0  0  0  0
   -3.5591   -3.0406   -0.0383 H   0  0  0  0  0  0  0  0  0  0  0  0
   -1.7921   -2.2226    0.8327 C   0  0  0  0  0  0  0  0  0  0  0  0
   -0.7611   -2.7766    1.1927 O   0  0  0  0  0  0  0  0  0  0  0  0
   -1.8201   -0.9926    0.3247 N   0  0  0  0  0  0  0  0  0  0  0  0
   -2.7141   -0.5816    0.0927 H   0  0  0  0  0  0  0  0  0  0  0  0
   -0.6481   -0.1156    0.2017 C   0  0  1  0  0  0  0  0  0  0  0  0
    0.1042   -0.6345   -0.3958 H   0  0  0  0  0  0  0  0  0  0  0  0
   -1.0420    1.1781   -0.5372 C   0  0  0  0  0  0  0  0  0  0  0  0
   -0.1819    1.5676   -1.0839 H   0  0  0  0  0  0  0  0  0  0  0  0
   -1.8243    0.9631   -1.2664 H   0  0  0  0  0  0  0  0  0  0  0  0
   -1.5110    2.2674    0.3963 C   0  0  0  0  0  0  0  0  0  0  0  0
   -1.1310    3.6091    0.3434 N   0  0  0  0  0  0  0  0  0  0  0  0
   -1.8159    4.2256    1.3176 C   0  0  0  0  0  0  0  0  0  0  0  0
   -1.7367    5.2803    1.5491 H   0  0  0  0  0  0  0  0  0  0  0  0
   -2.6156    3.3531    1.9537 N   0  0  0  0  0  0  0  0  0  0  0  0
   -3.2449    3.5795    2.7116 H   0  0  0  0  0  0  0  0  0  0  0  0
   -2.4399    2.1119    1.3833 C   0  0  0  0  0  0  0  0  0  0  0  0
   -2.9454    1.1892    1.6391 H   0  0  0  0  0  0  0  0  0  0  0  0
   -0.0283    0.1609    1.5831 C   0  0  0  0  0  0  0  0  0  0  0  0
    1.1923    0.1056    1.7329 O   0  0  0  0  0  0  0  0  0  0  0  0
   -0.8586    0.4659    2.5853 N   0  0  0  0  0  0  0  0  0  0  0  0
   -1.8521    0.3848    2.4000 H   0  0  0  0  0  0  0  0  0  0  0  0
   -0.4403    0.7694    3.9518 C   0  0  0  0  0  0  0  0  0  0  0  0
    0.5066    1.3154    3.9421 H   0  0  0  0  0  0  0  0  0  0  0  0
   -1.1988    1.3789    4.4452 H   0  0  0  0  0  0  0  0  0  0  0  0
   -0.3053   -0.1600    4.5075 H   0  0  0  0  0  0  0  0  0  0  0  0
  5  6  2  0  0  0  0
  5  7  1  0  0  0  0
  2  3  1  0  0  0  0
  2  4  1  0  0  0  0
  2  5  1  0  0  0  0
  1  2  1  0  0  0  0
 22 23  2  0  0  0  0
 22 24  1  0  0  0  0
 20 21  1  0  0  0  0
 18 19  1  0  0  0  0
 18 20  1  0  0  0  0
 16 17  1  0  0  0  0
 16 18  1  0  0  0  0
 15 16  2  0  0  0  0
 14 15  1  0  0  0  0
 14 20  2  0  0  0  0
 11 12  1  0  0  0  0
 11 13  1  0  0  0  0
 11 14  1  0  0  0  0
  9 10  1  0  0  0  0
  9 11  1  0  0  0  0
  9 22  1  0  0  0  0
  7  8  1  0  0  0  0
  7  9  1  0  0  0  0
 26 27  1  0  0  0  0
 26 28  1  0  0  0  0
 26 29  1  0  0  0  0
 24 25  1  0  0  0  0
 24 26  1  0  0  0  0
M  END
$$$$
default_name
  -OEChem-02102213163D

 29 29  0     1  0  0  0  0  0999 V2000
   -2.9561   -3.9186    1.3887 H   0  0  0  0  0  0  0  0  0  0  0  0
   -3.1191   -2.9346    0.9517 C   0  0  0  0  0  0  0  0  0  0  0  0
   -3.7811   -2.3546    1.5917 H   0  0  0  0  0  0  0  0  0  0  0  0
   -3.5591   -3.0406   -0.0383 H   0  0  0  0  0  0  0  0  0  0  0  0
   -1.7921   -2.2226    0.8327 C   0  0  0  0  0  0  0  0  0  0  0  0
   -0.7611   -2.7766    1.1927 O   0  0  0  0  0  0  0  0  0  0  0  0
   -1.8201   -0.9926    0.3247 N   0  0  0  0  0  0  0  0  0  0  0  0
   -2.7141   -0.5816    0.0927 H   0  0  0  0  0  0  0  0  0  0  0  0
   -0.6481   -0.1156    0.2017 C   0  0  1  0  0  0  0  0  0  0  0  0
    0.1042   -0.6345   -0.3958 H   0  0  0  0  0  0  0  0  0  0  0  0
   -1.0420    1.1781   -0.5372 C   0  0  0  0  0  0  0  0  0  0  0  0
   -0.1819    1.5676   -1.0839 H   0  0  0  0  0  0  0  0  0  0  0  0
   -1.8243    0.9631   -1.2664 H   0  0  0  0  0  0  0  0  0  0  0  0
   -1.5110    2.2674    0.3963 C   0  0  0  0  0  0  0  0  0  0  0  0
   -1.3772    3.6401    0.1836 N   0  0  0  0  0  0  0  0  0  0  0  0
   -1.9690    4.2353    1.2295 C   0  0  0  0  0  0  0  0  0  0  0  0
   -2.0274    5.3070    1.3720 H   0  0  0  0  0  0  0  0  0  0  0  0
   -2.4830    3.3159    2.0637 N   0  0  0  0  0  0  0  0  0  0  0  0
   -2.9942    3.5152    2.9126 H   0  0  0  0  0  0  0  0  0  0  0  0
   -2.2073    2.0672    1.5523 C   0  0  0  0  0  0  0  0  0  0  0  0
   -2.4964    1.1070    1.9606 H   0  0  0  0  0  0  0  0  0  0  0  0
   -0.0283    0.1609    1.5831 C   0  0  0  0  0  0  0  0  0  0  0  0
    1.1923    0.1056    1.7329 O   0  0  0  0  0  0  0  0  0  0  0  0
   -0.8586    0.4659    2.5853 N   0  0  0  0  0  0  0  0  0  0  0  0
   -1.8521    0.3848    2.4000 H   0  0  0  0  0  0  0  0  0  0  0  0
   -0.4403    0.7694    3.9518 C   0  0  0  0  0  0  0  0  0  0  0  0
    0.5066    1.3154    3.9421 H   0  0  0  0  0  0  0  0  0  0  0  0
   -1.1988    1.3789    4.4452 H   0  0  0  0  0  0  0  0  0  0  0  0
   -0.3053   -0.1600    4.5075 H   0  0  0  0  0  0  0  0  0  0  0  0
  5  6  2  0  0  0  0
  5  7  1  0  0  0  0
  2  3  1  0  0  0  0
  2  4  1  0  0  0  0
  2  5  1  0  0  0  0
  1  2  1  0  0  0  0
 22 23  2  0  0  0  0
 22 24  1  0  0  0  0
 20 21  1  0  0  0  0
 18 19  1  0  0  0  0
 18 20  1  0  0  0  0
 16 17  1  0  0  0  0
 16 18  1  0  0  0  0
 15 16  2  0  0  0  0
 14 15  1  0  0  0  0
 14 20  2  0  0  0  0
 11 12  1  0  0  0  0
 11 13  1  0  0  0  0
 11 14  1  0  0  0  0
  9 10  1  0  0  0  0
  9 11  1  0  0  0  0
  9 22  1  0  0  0  0
  7  8  1  0  0  0  0
  7  9  1  0  0  0  0
 26 27  1  0  0  0  0
 26 28  1  0  0  0  0
 26 29  1  0  0  0  0
 24 25  1  0  0  0  0
 24 26  1  0  0  0  0
M  END
$$$$
default_name
  -OEChem-02102213163D

 29 29  0     1  0  0  0  0  0999 V2000
   -2.9561   -3.9186    1.3887 H   0  0  0  0  0  0  0  0  0  0  0  0
   -3.1191   -2.9346    0.9517 C   0  0  0  0  0  0  0  0  0  0  0  0
   -3.7811   -2.3546    1.5917 H   0  0  0  0  0  0  0  0  0  0  0  0
   -3.5591   -3.0406   -0.0383 H   0  0  0  0  0  0  0  0  0  0  0  0
   -1.7921   -2.2226    0.8327 C   0  0  0  0  0  0  0  0  0  0  0  0
   -0.7611   -2.7766    1.1927 O   0  0  0  0  0  0  0  0  0  0  0  0
   -1.8201   -0.9926    0.3247 N   0  0  0  0  0  0  0  0  0  0  0  0
   -2.7141   -0.5816    0.0927 H   0  0  0  0  0  0  0  0  0  0  0  0
   -0.6481   -0.1156    0.2017 C   0  0  1  0  0  0  0  0  0  0  0  0
    0.1042   -0.6345   -0.3958 H   0  0  0  0  0  0  0  0  0  0  0  0
   -1.0420    1.1781   -0.5372 C   0  0  0  0  0  0  0  0  0  0  0  0
   -0.1819    1.5676   -1.0839 H   0  0  0  0  0  0  0  0  0  0  0  0
   -1.8243    0.9631   -1.2664 H   0  0  0  0  0  0  0  0  0  0  0  0
   -1.5110    2.2674    0.3963 C   0  0  0  0  0  0  0  0  0  0  0  0
   -1.6499    3.6177    0.0727 N   0  0  0  0  0  0  0  0  0  0  0  0
   -2.1347    4.2130    1.1722 C   0  0  0  0  0  0  0  0  0  0  0  0
   -2.3454    5.2720    1.2531 H   0  0  0  0  0  0  0  0  0  0  0  0
   -2.3284    3.3101    2.1481 N   0  0  0  0  0  0  0  0  0  0  0  0
   -2.7043    3.5094    3.0651 H   0  0  0  0  0  0  0  0  0  0  0  0
   -1.9440    2.0749    1.6757 C   0  0  0  0  0  0  0  0  0  0  0  0
   -1.9894    1.1253    2.1939 H   0  0  0  0  0  0  0  0  0  0  0  0
   -0.0283    0.1609    1.5831 C   0  0  0  0  0  0  0  0  0  0  0  0
    1.1923    0.1056    1.7329 O   0  0  0  0  0  0  0  0  0  0  0  0
   -0.8586    0.4659    2.5853 N   0  0  0  0  0  0  0  0  0  0  0  0
   -1.8521    0.3848    2.4000 H   0  0  0  0  0  0  0  0  0  0  0  0
   -0.4403    0.7694    3.9518 C   0  0  0  0  0  0  0  0  0  0  0  0
    0.5066    1.3154    3.9421 H   0  0  0  0  0  0  0  0  0  0  0  0
   -1.1988    1.3789    4.4452 H   0  0  0  0  0  0  0  0  0  0  0  0
   -0.3053   -0.1600    4.5075 H   0  0  0  0  0  0  0  0  0  0  0  0
  5  6  2  0  0  0  0
  5  7  1  0  0  0  0
  2  3  1  0  0  0  0
  2  4  1  0  0  0  0
  2  5  1  0  0  0  0
  1  2  1  0  0  0  0
 22 23  2  0  0  0  0
 22 24  1  0  0  0  0
 20 21  1  0  0  0  0
 18 19  1  0  0  0  0
 18 20  1  0  0  0  0
 16 17  1  0  0  0  0
 16 18  1  0  0  0  0
 15 16  2  0  0  0  0
 14 15  1  0  0  0  0
 14 20  2  0  0  0  0
 11 12  1  0  0  0  0
 11 13  1  0  0  0  0
 11 14  1  0  0  0  0
  9 10  1  0  0  0  0
  9 11  1  0  0  0  0
  9 22  1  0  0  0  0
  7  8  1  0  0  0  0
  7  9  1  0  0  0  0
 26 27  1  0  0  0  0
 26 28  1  0  0  0  0
 26 29  1  0  0  0  0
 24 25  1  0  0  0  0
 24 26  1  0  0  0  0
M  END
$$$$
default_name
  -OEChem-02102213163D

 29 29  0     1  0  0  0  0  0999 V2000
   -2.9561   -3.9186    1.3887 H   0  0  0  0  0  0  0  0  0  0  0  0
   -3.1191   -2.9346    0.9517 C   0  0  0  0  0  0  0  0  0  0  0  0
   -3.7811   -2.3546    1.5917 H   0  0  0  0  0  0  0  0  0  0  0  0
   -3.5591   -3.0406   -0.0383 H   0  0  0  0  0  0  0  0  0  0  0  0
   -1.7921   -2.2226    0.8327 C   0  0  0  0  0  0  0  0  0  0  0  0
   -0.7611   -2.7766    1.1927 O   0  0  0  0  0  0  0  0  0  0  0  0
   -1.8201   -0.9926    0.3247 N   0  0  0  0  0  0  0  0  0  0  0  0
   -2.7141   -0.5816    0.0927 H   0  0  0  0  0  0  0  0  0  0  0  0
   -0.6481   -0.1156    0.2017 C   0  0  1  0  0  0  0  0  0  0  0  0
    0.1042   -0.6345   -0.3958 H   0  0  0  0  0  0  0  0  0  0  0  0
   -1.0420    1.1781   -0.5372 C   0  0  0  0  0  0  0  0  0  0  0  0
   -0.2849    1.4220   -1.2839 H   0  0  0  0  0  0  0  0  0  0  0  0
   -1.9860    1.0298   -1.0634 H   0  0  0  0  0  0  0  0  0  0  0  0
   -1.1621    2.3670    0.3848 C   0  0  0  0  0  0  0  0  0  0  0  0
   -1.5029    3.6656    0.0041 N   0  0  0  0  0  0  0  0  0  0  0  0
   -1.5401    4.3844    1.1356 C   0  0  0  0  0  0  0  0  0  0  0  0
   -1.7655    5.4424    1.1822 H   0  0  0  0  0  0  0  0  0  0  0  0
   -1.2682    3.6051    2.1959 N   0  0  0  0  0  0  0  0  0  0  0  0
   -1.2549    3.9100    3.1595 H   0  0  0  0  0  0  0  0  0  0  0  0
   -1.0307    2.3267    1.7421 C   0  0  0  0  0  0  0  0  0  0  0  0
   -0.8048    1.4471    2.3317 H   0  0  0  0  0  0  0  0  0  0  0  0
   -0.0283    0.1609    1.5831 C   0  0  0  0  0  0  0  0  0  0  0  0
    1.1923    0.1056    1.7329 O   0  0  0  0  0  0  0  0  0  0  0  0
   -0.8586    0.4659    2.5853 N   0  0  0  0  0  0  0  0  0  0  0  0
   -1.8521    0.3848    2.4000 H   0  0  0  0  0  0  0  0  0  0  0  0
   -0.4403    0.7694    3.9518 C   0  0  0  0  0  0  0  0  0  0  0  0
    0.5066    1.3154    3.9421 H   0  0  0  0  0  0  0  0  0  0  0  0
   -1.1988    1.3789    4.4452 H   0  0  0  0  0  0  0  0  0  0  0  0
   -0.3053   -0.1600    4.5075 H   0  0  0  0  0  0  0  0  0  0  0  0
  5  6  2  0  0  0  0
  5  7  1  0  0  0  0
  2  3  1  0  0  0  0
  2  4  1  0  0  0  0
  2  5  1  0  0  0  0
  1  2  1  0  0  0  0
 22 23  2  0  0  0  0
 22 24  1  0  0  0  0
 20 21  1  0  0  0  0
 18 19  1  0  0  0  0
 18 20  1  0  0  0  0
 16 17  1  0  0  0  0
 16 18  1  0  0  0  0
 15 16  2  0  0  0  0
 14 15  1  0  0  0  0
 14 20  2  0  0  0  0
 11 12  1  0  0  0  0
 11 13  1  0  0  0  0
 11 14  1  0  0  0  0
  9 10  1  0  0  0  0
  9 11  1  0  0  0  0
  9 22  1  0  0  0  0
  7  8  1  0  0  0  0
  7  9  1  0  0  0  0
 26 27  1  0  0  0  0
 26 28  1  0  0  0  0
 26 29  1  0  0  0  0
 24 25  1  0  0  0  0
 24 26  1  0  0  0  0
M  END
$$$$
default_name
  -OEChem-02102213163D

 29 29  0     1  0  0  0  0  0999 V2000
   -2.9561   -3.9186    1.3887 H   0  0  0  0  0  0  0  0  0  0  0  0
   -3.1191   -2.9346    0.9517 C   0  0  0  0  0  0  0  0  0  0  0  0
   -3.7811   -2.3546    1.5917 H   0  0  0  0  0  0  0  0  0  0  0  0
   -3.5591   -3.0406   -0.0383 H   0  0  0  0  0  0  0  0  0  0  0  0
   -1.7921   -2.2226    0.8327 C   0  0  0  0  0  0  0  0  0  0  0  0
   -0.7611   -2.7766    1.1927 O   0  0  0  0  0  0  0  0  0  0  0  0
   -1.8201   -0.9926    0.3247 N   0  0  0  0  0  0  0  0  0  0  0  0
   -2.7141   -0.5816    0.0927 H   0  0  0  0  0  0  0  0  0  0  0  0
   -0.6481   -0.1156    0.2017 C   0  0  1  0  0  0  0  0  0  0  0  0
    0.1042   -0.6345   -0.3958 H   0  0  0  0  0  0  0  0  0  0  0  0
   -1.0420    1.1781   -0.5372 C   0  0  0  0  0  0  0  0  0  0  0  0
   -0.2849    1.4220   -1.2839 H   0  0  0  0  0  0  0  0  0  0  0  0
   -1.9860    1.0298   -1.0634 H   0  0  0  0  0  0  0  0  0  0  0  0
   -1.1621    2.3670    0.3848 C   0  0  0  0  0  0  0  0  0  0  0  0
   -1.7764    3.5816    0.0769 N   0  0  0  0  0  0  0  0  0  0  0  0
   -1.6987    4.3271    1.1888 C   0  0  0  0  0  0  0  0  0  0  0  0
   -2.0766    5.3380    1.2763 H   0  0  0  0  0  0  0  0  0  0  0  0
   -1.0967    3.6395    2.1738 N   0  0  0  0  0  0  0  0  0  0  0  0
   -0.9379    3.9782    3.1129 H   0  0  0  0  0  0  0  0  0  0  0  0
   -0.7542    2.3979    1.6863 C   0  0  0  0  0  0  0  0  0  0  0  0
   -0.2758    1.5867    2.2206 H   0  0  0  0  0  0  0  0  0  0  0  0
   -0.0283    0.1609    1.5831 C   0  0  0  0  0  0  0  0  0  0  0  0
    1.1923    0.1056    1.7329 O   0  0  0  0  0  0  0  0  0  0  0  0
   -0.8586    0.4659    2.5853 N   0  0  0  0  0  0  0  0  0  0  0  0
   -1.8521    0.3848    2.4000 H   0  0  0  0  0  0  0  0  0  0  0  0
   -0.4403    0.7694    3.9518 C   0  0  0  0  0  0  0  0  0  0  0  0
    0.5066    1.3154    3.9421 H   0  0  0  0  0  0  0  0  0  0  0  0
   -1.1988    1.3789    4.4452 H   0  0  0  0  0  0  0  0  0  0  0  0
   -0.3053   -0.1600    4.5075 H   0  0  0  0  0  0  0  0  0  0  0  0
  5  6  2  0  0  0  0
  5  7  1  0  0  0  0
  2  3  1  0  0  0  0
  2  4  1  0  0  0  0
  2  5  1  0  0  0  0
  1  2  1  0  0  0  0
 22 23  2  0  0  0  0
 22 24  1  0  0  0  0
 20 21  1  0  0  0  0
 18 19  1  0  0  0  0
 18 20  1  0  0  0  0
 16 17  1  0  0  0  0
 16 18  1  0  0  0  0
 15 16  2  0  0  0  0
 14 15  1  0  0  0  0
 14 20  2  0  0  0  0
 11 12  1  0  0  0  0
 11 13  1  0  0  0  0
 11 14  1  0  0  0  0
  9 10  1  0  0  0  0
  9 11  1  0  0  0  0
  9 22  1  0  0  0  0
  7  8  1  0  0  0  0
  7  9  1  0  0  0  0
 26 27  1  0  0  0  0
 26 28  1  0  0  0  0
 26 29  1  0  0  0  0
 24 25  1  0  0  0  0
 24 26  1  0  0  0  0
M  END
$$$$
default_name
  -OEChem-02102213163D

 29 29  0     1  0  0  0  0  0999 V2000
   -2.9561   -3.9186    1.3887 H   0  0  0  0  0  0  0  0  0  0  0  0
   -3.1191   -2.9346    0.9517 C   0  0  0  0  0  0  0  0  0  0  0  0
   -3.7811   -2.3546    1.5917 H   0  0  0  0  0  0  0  0  0  0  0  0
   -3.5591   -3.0406   -0.0383 H   0  0  0  0  0  0  0  0  0  0  0  0
   -1.7921   -2.2226    0.8327 C   0  0  0  0  0  0  0  0  0  0  0  0
   -0.7611   -2.7766    1.1927 O   0  0  0  0  0  0  0  0  0  0  0  0
   -1.8201   -0.9926    0.3247 N   0  0  0  0  0  0  0  0  0  0  0  0
   -2.7141   -0.5816    0.0927 H   0  0  0  0  0  0  0  0  0  0  0  0
   -0.6481   -0.1156    0.2017 C   0  0  1  0  0  0  0  0  0  0  0  0
    0.1042   -0.6345   -0.3958 H   0  0  0  0  0  0  0  0  0  0  0  0
   -1.0420    1.1781   -0.5372 C   0  0  0  0  0  0  0  0  0  0  0  0
   -0.2849    1.4220   -1.2839 H   0  0  0  0  0  0  0  0  0  0  0  0
   -1.9860    1.0298   -1.0634 H   0  0  0  0  0  0  0  0  0  0  0  0
   -1.1621    2.3670    0.3848 C   0  0  0  0  0  0  0  0  0  0  0  0
   -2.0125    3.4587    0.2046 N   0  0  0  0  0  0  0  0  0  0  0  0
   -1.8320    4.2478    1.2737 C   0  0  0  0  0  0  0  0  0  0  0  0
   -2.3414    5.1899    1.4327 H   0  0  0  0  0  0  0  0  0  0  0  0
   -0.9411    3.6994    2.1168 N   0  0  0  0  0  0  0  0  0  0  0  0
   -0.6520    4.0933    3.0017 H   0  0  0  0  0  0  0  0  0  0  0  0
   -0.5098    2.5093    1.5745 C   0  0  0  0  0  0  0  0  0  0  0  0
    0.1905    1.8030    2.0025 H   0  0  0  0  0  0  0  0  0  0  0  0
   -0.0283    0.1609    1.5831 C   0  0  0  0  0  0  0  0  0  0  0  0
    1.1923    0.1056    1.7329 O   0  0  0  0  0  0  0  0  0  0  0  0
   -0.8586    0.4659    2.5853 N   0  0  0  0  0  0  0  0  0  0  0  0
   -1.8521    0.3848    2.4000 H   0  0  0  0  0  0  0  0  0  0  0  0
   -0.4403    0.7694    3.9518 C   0  0  0  0  0  0  0  0  0  0  0  0
    0.5066    1.3154    3.9421 H   0  0  0  0  0  0  0  0  0  0  0  0
   -1.1988    1.3789    4.4452 H   0  0  0  0  0  0  0  0  0  0  0  0
   -0.3053   -0.1600    4.5075 H   0  0  0  0  0  0  0  0  0  0  0  0
  5  6  2  0  0  0  0
  5  7  1  0  0  0  0
  2  3  1  0  0  0  0
  2  4  1  0  0  0  0
  2  5  1  0  0  0  0
  1  2  1  0  0  0  0
 22 23  2  0  0  0  0
 22 24  1  0  0  0  0
 20 21  1  0  0  0  0
 18 19  1  0  0  0  0
 18 20  1  0  0  0  0
 16 17  1  0  0  0  0
 16 18  1  0  0  0  0
 15 16  2  0  0  0  0
 14 15  1  0  0  0  0
 14 20  2  0  0  0  0
 11 12  1  0  0  0  0
 11 13  1  0  0  0  0
 11 14  1  0  0  0  0
  9 10  1  0  0  0  0
  9 11  1  0  0  0  0
  9 22  1  0  0  0  0
  7  8  1  0  0  0  0
  7  9  1  0  0  0  0
 26 27  1  0  0  0  0
 26 28  1  0  0  0  0
 26 29  1  0  0  0  0
 24 25  1  0  0  0  0
 24 26  1  0  0  0  0
M  END
$$$$
default_name
  -OEChem-02102213163D

 29 29  0     1  0  0  0  0  0999 V2000
   -2.9561   -3.9186    1.3887 H   0  0  0  0  0  0  0  0  0  0  0  0
   -3.1191   -2.9346    0.9517 C   0  0  0  0  0  0  0  0  0  0  0  0
   -3.7811   -2.3546    1.5917 H   0  0  0  0  0  0  0  0  0  0  0  0
   -3.5591   -3.0406   -0.0383 H   0  0  0  0  0  0  0  0  0  0  0  0
   -1.7921   -2.2226    0.8327 C   0  0  0  0  0  0  0  0  0  0  0  0
   -0.7611   -2.7766    1.1927 O   0  0  0  0  0  0  0  0  0  0  0  0
   -1.8201   -0.9926    0.3247 N   0  0  0  0  0  0  0  0  0  0  0  0
   -2.7141   -0.5816    0.0927 H   0  0  0  0  0  0  0  0  0  0  0  0
   -0.6481   -0.1156    0.2017 C   0  0  1  0  0  0  0  0  0  0  0  0
    0.1042   -0.6345   -0.3958 H   0  0  0  0  0  0  0  0  0  0  0  0
   -1.0420    1.1781   -0.5372 C   0  0  0  0  0  0  0  0  0  0  0  0
   -0.2849    1.4220   -1.2839 H   0  0  0  0  0  0  0  0  0  0  0  0
   -1.9860    1.0298   -1.0634 H   0  0  0  0  0  0  0  0  0  0  0  0
   -1.1621    2.3670    0.3848 C   0  0  0  0  0  0  0  0  0  0  0  0
   -2.1951    3.3053    0.3787 N   0  0  0  0  0  0  0  0  0  0  0  0
   -1.9310    4.1519    1.3845 C   0  0  0  0  0  0  0  0  0  0  0  0
   -2.5419    5.0082    1.6409 H   0  0  0  0  0  0  0  0  0  0  0  0
   -0.8118    3.7807    2.0288 N   0  0  0  0  0  0  0  0  0  0  0  0
   -0.4166    4.2473    2.8338 H   0  0  0  0  0  0  0  0  0  0  0  0
   -0.3141    2.6532    1.4145 C   0  0  0  0  0  0  0  0  0  0  0  0
    0.5622    2.0811    1.6923 H   0  0  0  0  0  0  0  0  0  0  0  0
   -0.0283    0.1609    1.5831 C   0  0  0  0  0  0  0  0  0  0  0  0
    1.1923    0.1056    1.7329 O   0  0  0  0  0  0  0  0  0  0  0  0
   -0.8586    0.4659    2.5853 N   0  0  0  0  0  0  0  0  0  0  0  0
   -1.8521    0.3848    2.4000 H   0  0  0  0  0  0  0  0  0  0  0  0
   -0.4403    0.7694    3.9518 C   0  0  0  0  0  0  0  0  0  0  0  0
    0.5066    1.3154    3.9421 H   0  0  0  0  0  0  0  0  0  0  0  0
   -1.1988    1.3789    4.4452 H   0  0  0  0  0  0  0  0  0  0  0  0
   -0.3053   -0.1600    4.5075 H   0  0  0  0  0  0  0  0  0  0  0  0
  5  6  2  0  0  0  0
  5  7  1  0  0  0  0
  2  3  1  0  0  0  0
  2  4  1  0  0  0  0
  2  5  1  0  0  0  0
  1  2  1  0  0  0  0
 22 23  2  0  0  0  0
 22 24  1  0  0  0  0
 20 21  1  0  0  0  0
 18 19  1  0  0  0  0
 18 20  1  0  0  0  0
 16 17  1  0  0  0  0
 16 18  1  0  0  0  0
 15 16  2  0  0  0  0
 14 15  1  0  0  0  0
 14 20  2  0  0  0  0
 11 12  1  0  0  0  0
 11 13  1  0  0  0  0
 11 14  1  0  0  0  0
  9 10  1  0  0  0  0
  9 11  1  0  0  0  0
  9 22  1  0  0  0  0
  7  8  1  0  0  0  0
  7  9  1  0  0  0  0
 26 27  1  0  0  0  0
 26 28  1  0  0  0  0
 26 29  1  0  0  0  0
 24 25  1  0  0  0  0
 24 26  1  0  0  0  0
M  END
$$$$
default_name
  -OEChem-02102213163D

 29 29  0     1  0  0  0  0  0999 V2000
   -2.9561   -3.9186    1.3887 H   0  0  0  0  0  0  0  0  0  0  0  0
   -3.1191   -2.9346    0.9517 C   0  0  0  0  0  0  0  0  0  0  0  0
   -3.7811   -2.3546    1.5917 H   0  0  0  0  0  0  0  0  0  0  0  0
   -3.5591   -3.0406   -0.0383 H   0  0  0  0  0  0  0  0  0  0  0  0
   -1.7921   -2.2226    0.8327 C   0  0  0  0  0  0  0  0  0  0  0  0
   -0.7611   -2.7766    1.1927 O   0  0  0  0  0  0  0  0  0  0  0  0
   -1.8201   -0.9926    0.3247 N   0  0  0  0  0  0  0  0  0  0  0  0
   -2.7141   -0.5816    0.0927 H   0  0  0  0  0  0  0  0  0  0  0  0
   -0.6481   -0.1156    0.2017 C   0  0  1  0  0  0  0  0  0  0  0  0
    0.1042   -0.6345   -0.3958 H   0  0  0  0  0  0  0  0  0  0  0  0
   -1.0420    1.1781   -0.5372 C   0  0  0  0  0  0  0  0  0  0  0  0
   -0.2849    1.4220   -1.2839 H   0  0  0  0  0  0  0  0  0  0  0  0
   -1.9860    1.0298   -1.0634 H   0  0  0  0  0  0  0  0  0  0  0  0
   -1.1621    2.3670    0.3848 C   0  0  0  0  0  0  0  0  0  0  0  0
   -2.3117    3.1318    0.5872 N   0  0  0  0  0  0  0  0  0  0  0  0
   -1.9888    4.0459    1.5137 C   0  0  0  0  0  0  0  0  0  0  0  0
   -2.6644    4.8053    1.8866 H   0  0  0  0  0  0  0  0  0  0  0  0
   -0.7178    3.8779    1.9157 N   0  0  0  0  0  0  0  0  0  0  0  0
   -0.2480    4.4299    2.6203 H   0  0  0  0  0  0  0  0  0  0  0  0
   -0.1804    2.8198    1.2170 C   0  0  0  0  0  0  0  0  0  0  0  0
    0.8140    2.4021    1.3112 H   0  0  0  0  0  0  0  0  0  0  0  0
   -0.0283    0.1609    1.5831 C   0  0  0  0  0  0  0  0  0  0  0  0
    1.1923    0.1056    1.7329 O   0  0  0  0  0  0  0  0  0  0  0  0
   -0.8586    0.4659    2.5853 N   0  0  0  0  0  0  0  0  0  0  0  0
   -1.8521    0.3848    2.4000 H   0  0  0  0  0  0  0  0  0  0  0  0
   -0.4403    0.7694    3.9518 C   0  0  0  0  0  0  0  0  0  0  0  0
    0.5066    1.3154    3.9421 H   0  0  0  0  0  0  0  0  0  0  0  0
   -1.1988    1.3789    4.4452 H   0  0  0  0  0  0  0  0  0  0  0  0
   -0.3053   -0.1600    4.5075 H   0  0  0  0  0  0  0  0  0  0  0  0
  5  6  2  0  0  0  0
  5  7  1  0  0  0  0
  2  3  1  0  0  0  0
  2  4  1  0  0  0  0
  2  5  1  0  0  0  0
  1  2  1  0  0  0  0
 22 23  2  0  0  0  0
 22 24  1  0  0  0  0
 20 21  1  0  0  0  0
 18 19  1  0  0  0  0
 18 20  1  0  0  0  0
 16 17  1  0  0  0  0
 16 18  1  0  0  0  0
 15 16  2  0  0  0  0
 14 15  1  0  0  0  0
 14 20  2  0  0  0  0
 11 12  1  0  0  0  0
 11 13  1  0  0  0  0
 11 14  1  0  0  0  0
  9 10  1  0  0  0  0
  9 11  1  0  0  0  0
  9 22  1  0  0  0  0
  7  8  1  0  0  0  0
  7  9  1  0  0  0  0
 26 27  1  0  0  0  0
 26 28  1  0  0  0  0
 26 29  1  0  0  0  0
 24 25  1  0  0  0  0
 24 26  1  0  0  0  0
M  END
$$$$
default_name
  -OEChem-02102213163D

 29 29  0     1  0  0  0  0  0999 V2000
   -2.9561   -3.9186    1.3887 H   0  0  0  0  0  0  0  0  0  0  0  0
   -3.1191   -2.9346    0.9517 C   0  0  0  0  0  0  0  0  0  0  0  0
   -3.7811   -2.3546    1.5917 H   0  0  0  0  0  0  0  0  0  0  0  0
   -3.5591   -3.0406   -0.0383 H   0  0  0  0  0  0  0  0  0  0  0  0
   -1.7921   -2.2226    0.8327 C   0  0  0  0  0  0  0  0  0  0  0  0
   -0.7611   -2.7766    1.1927 O   0  0  0  0  0  0  0  0  0  0  0  0
   -1.8201   -0.9926    0.3247 N   0  0  0  0  0  0  0  0  0  0  0  0
   -2.7141   -0.5816    0.0927 H   0  0  0  0  0  0  0  0  0  0  0  0
   -0.6481   -0.1156    0.2017 C   0  0  1  0  0  0  0  0  0  0  0  0
    0.1042   -0.6345   -0.3958 H   0  0  0  0  0  0  0  0  0  0  0  0
   -1.0420    1.1781   -0.5372 C   0  0  0  0  0  0  0  0  0  0  0  0
   -0.2849    1.4220   -1.2839 H   0  0  0  0  0  0  0  0  0  0  0  0
   -1.9860    1.0298   -1.0634 H   0  0  0  0  0  0  0  0  0  0  0  0
   -1.1621    2.3670    0.3848 C   0  0  0  0  0  0  0  0  0  0  0  0
   -2.3544    2.9501    0.8159 N   0  0  0  0  0  0  0  0  0  0  0  0
   -2.0015    3.9370    1.6524 C   0  0  0  0  0  0  0  0  0  0  0  0
   -2.7006    4.5950    2.1530 H   0  0  0  0  0  0  0  0  0  0  0  0
   -0.6653    3.9843    1.7854 N   0  0  0  0  0  0  0  0  0  0  0  0
   -0.1574    4.6285    2.3760 H   0  0  0  0  0  0  0  0  0  0  0  0
   -0.1179    2.9979    0.9955 C   0  0  0  0  0  0  0  0  0  0  0  0
    0.9289    2.7441    0.8851 H   0  0  0  0  0  0  0  0  0  0  0  0
   -0.0283    0.1609    1.5831 C   0  0  0  0  0  0  0  0  0  0  0  0
    1.1923    0.1056    1.7329 O   0  0  0  0  0  0  0  0  0  0  0  0
   -0.8586    0.4659    2.5853 N   0  0  0  0  0  0  0  0  0  0  0  0
   -1.8521    0.3848    2.4000 H   0  0  0  0  0  0  0  0  0  0  0  0
   -0.4403    0.7694    3.9518 C   0  0  0  0  0  0  0  0  0  0  0  0
    0.5066    1.3154    3.9421 H   0  0  0  0  0  0  0  0  0  0  0  0
   -1.1988    1.3789    4.4452 H   0  0  0  0  0  0  0  0  0  0  0  0
   -0.3053   -0.1600    4.5075 H   0  0  0  0  0  0  0  0  0  0  0  0
  5  6  2  0  0  0  0
  5  7  1  0  0  0  0
  2  3  1  0  0  0  0
  2  4  1  0  0  0  0
  2  5  1  0  0  0  0
  1  2  1  0  0  0  0
 22 23  2  0  0  0  0
 22 24  1  0  0  0  0
 20 21  1  0  0  0  0
 18 19  1  0  0  0  0
 18 20  1  0  0  0  0
 16 17  1  0  0  0  0
 16 18  1  0  0  0  0
 15 16  2  0  0  0  0
 14 15  1  0  0  0  0
 14 20  2  0  0  0  0
 11 12  1  0  0  0  0
 11 13  1  0  0  0  0
 11 14  1  0  0  0  0
  9 10  1  0  0  0  0
  9 11  1  0  0  0  0
  9 22  1  0  0  0  0
  7  8  1  0  0  0  0
  7  9  1  0  0  0  0
 26 27  1  0  0  0  0
 26 28  1  0  0  0  0
 26 29  1  0  0  0  0
 24 25  1  0  0  0  0
 24 26  1  0  0  0  0
M  END
$$$$
default_name
  -OEChem-02102213163D

 29 29  0     1  0  0  0  0  0999 V2000
   -2.9561   -3.9186    1.3887 H   0  0  0  0  0  0  0  0  0  0  0  0
   -3.1191   -2.9346    0.9517 C   0  0  0  0  0  0  0  0  0  0  0  0
   -3.7811   -2.3546    1.5917 H   0  0  0  0  0  0  0  0  0  0  0  0
   -3.5591   -3.0406   -0.0383 H   0  0  0  0  0  0  0  0  0  0  0  0
   -1.7921   -2.2226    0.8327 C   0  0  0  0  0  0  0  0  0  0  0  0
   -0.7611   -2.7766    1.1927 O   0  0  0  0  0  0  0  0  0  0  0  0
   -1.8201   -0.9926    0.3247 N   0  0  0  0  0  0  0  0  0  0  0  0
   -2.7141   -0.5816    0.0927 H   0  0  0  0  0  0  0  0  0  0  0  0
   -0.6481   -0.1156    0.2017 C   0  0  1  0  0  0  0  0  0  0  0  0
    0.1042   -0.6345   -0.3958 H   0  0  0  0  0  0  0  0  0  0  0  0
   -1.0420    1.1781   -0.5372 C   0  0  0  0  0  0  0  0  0  0  0  0
   -0.2849    1.4220   -1.2839 H   0  0  0  0  0  0  0  0  0  0  0  0
   -1.9860    1.0298   -1.0634 H   0  0  0  0  0  0  0  0  0  0  0  0
   -1.1621    2.3670    0.3848 C   0  0  0  0  0  0  0  0  0  0  0  0
   -2.3203    2.7725    1.0493 N   0  0  0  0  0  0  0  0  0  0  0  0
   -1.9683    3.8327    1.7913 C   0  0  0  0  0  0  0  0  0  0  0  0
   -2.6479    4.3917    2.4221 H   0  0  0  0  0  0  0  0  0  0  0  0
   -0.6581    4.0927    1.6466 N   0  0  0  0  0  0  0  0  0  0  0  0
   -0.1511    4.8296    2.1175 H   0  0  0  0  0  0  0  0  0  0  0  0
   -0.1309    3.1752    0.7652 C   0  0  0  0  0  0  0  0  0  0  0  0
    0.8988    3.0839    0.4431 H   0  0  0  0  0  0  0  0  0  0  0  0
   -0.0283    0.1609    1.5831 C   0  0  0  0  0  0  0  0  0  0  0  0
    1.1923    0.1056    1.7329 O   0  0  0  0  0  0  0  0  0  0  0  0
   -0.8586    0.4659    2.5853 N   0  0  0  0  0  0  0  0  0  0  0  0
   -1.8521    0.3848    2.4000 H   0  0  0  0  0  0  0  0  0  0  0  0
   -0.4403    0.7694    3.9518 C   0  0  0  0  0  0  0  0  0  0  0  0
    0.5066    1.3154    3.9421 H   0  0  0  0  0  0  0  0  0  0  0  0
   -1.1988    1.3789    4.4452 H   0  0  0  0  0  0  0  0  0  0  0  0
   -0.3053   -0.1600    4.5075 H   0  0  0  0  0  0  0  0  0  0  0  0
  5  6  2  0  0  0  0
  5  7  1  0  0  0  0
  2  3  1  0  0  0  0
  2  4  1  0  0  0  0
  2  5  1  0  0  0  0
  1  2  1  0  0  0  0
 22 23  2  0  0  0  0
 22 24  1  0  0  0  0
 20 21  1  0  0  0  0
 18 19  1  0  0  0  0
 18 20  1  0  0  0  0
 16 17  1  0  0  0  0
 16 18  1  0  0  0  0
 15 16  2  0  0  0  0
 14 15  1  0  0  0  0
 14 20  2  0  0  0  0
 11 12  1  0  0  0  0
 11 13  1  0  0  0  0
 11 14  1  0  0  0  0
  9 10  1  0  0  0  0
  9 11  1  0  0  0  0
  9 22  1  0  0  0  0
  7  8  1  0  0  0  0
  7  9  1  0  0  0  0
 26 27  1  0  0  0  0
 26 28  1  0  0  0  0
 26 29  1  0  0  0  0
 24 25  1  0  0  0  0
 24 26  1  0  0  0  0
M  END
$$$$
default_name
  -OEChem-02102213163D

 29 29  0     1  0  0  0  0  0999 V2000
   -2.9561   -3.9186    1.3887 H   0  0  0  0  0  0  0  0  0  0  0  0
   -3.1191   -2.9346    0.9517 C   0  0  0  0  0  0  0  0  0  0  0  0
   -3.7811   -2.3546    1.5917 H   0  0  0  0  0  0  0  0  0  0  0  0
   -3.5591   -3.0406   -0.0383 H   0  0  0  0  0  0  0  0  0  0  0  0
   -1.7921   -2.2226    0.8327 C   0  0  0  0  0  0  0  0  0  0  0  0
   -0.7611   -2.7766    1.1927 O   0  0  0  0  0  0  0  0  0  0  0  0
   -1.8201   -0.9926    0.3247 N   0  0  0  0  0  0  0  0  0  0  0  0
   -2.7141   -0.5816    0.0927 H   0  0  0  0  0  0  0  0  0  0  0  0
   -0.6481   -0.1156    0.2017 C   0  0  1  0  0  0  0  0  0  0  0  0
    0.1042   -0.6345   -0.3958 H   0  0  0  0  0  0  0  0  0  0  0  0
   -1.0420    1.1781   -0.5372 C   0  0  0  0  0  0  0  0  0  0  0  0
   -0.2849    1.4220   -1.2839 H   0  0  0  0  0  0  0  0  0  0  0  0
   -1.9860    1.0298   -1.0634 H   0  0  0  0  0  0  0  0  0  0  0  0
   -1.1621    2.3670    0.3848 C   0  0  0  0  0  0  0  0  0  0  0  0
   -2.2117    2.6112    1.2715 N   0  0  0  0  0  0  0  0  0  0  0  0
   -1.8915    3.7400    1.9208 C   0  0  0  0  0  0  0  0  0  0  0  0
   -2.5101    4.2091    2.6755 H   0  0  0  0  0  0  0  0  0  0  0  0
   -0.6965    4.1957    1.5088 N   0  0  0  0  0  0  0  0  0  0  0  0
   -0.2296    5.0195    1.8624 H   0  0  0  0  0  0  0  0  0  0  0  0
   -0.2183    3.3396    0.5417 C   0  0  0  0  0  0  0  0  0  0  0  0
    0.7260    3.3982    0.0152 H   0  0  0  0  0  0  0  0  0  0  0  0
   -0.0283    0.1609    1.5831 C   0  0  0  0  0  0  0  0  0  0  0  0
    1.1923    0.1056    1.7329 O   0  0  0  0  0  0  0  0  0  0  0  0
   -0.8586    0.4659    2.5853 N   0  0  0  0  0  0  0  0  0  0  0  0
   -1.8521    0.3848    2.4000 H   0  0  0  0  0  0  0  0  0  0  0  0
   -0.4403    0.7694    3.9518 C   0  0  0  0  0  0  0  0  0  0  0  0
    0.5066    1.3154    3.9421 H   0  0  0  0  0  0  0  0  0  0  0  0
   -1.1988    1.3789    4.4452 H   0  0  0  0  0  0  0  0  0  0  0  0
   -0.3053   -0.1600    4.5075 H   0  0  0  0  0  0  0  0  0  0  0  0
  5  6  2  0  0  0  0
  5  7  1  0  0  0  0
  2  3  1  0  0  0  0
  2  4  1  0  0  0  0
  2  5  1  0  0  0  0
  1  2  1  0  0  0  0
 22 23  2  0  0  0  0
 22 24  1  0  0  0  0
 20 21  1  0  0  0  0
 18 19  1  0  0  0  0
 18 20  1  0  0  0  0
 16 17  1  0  0  0  0
 16 18  1  0  0  0  0
 15 16  2  0  0  0  0
 14 15  1  0  0  0  0
 14 20  2  0  0  0  0
 11 12  1  0  0  0  0
 11 13  1  0  0  0  0
 11 14  1  0  0  0  0
  9 10  1  0  0  0  0
  9 11  1  0  0  0  0
  9 22  1  0  0  0  0
  7  8  1  0  0  0  0
  7  9  1  0  0  0  0
 26 27  1  0  0  0  0
 26 28  1  0  0  0  0
 26 29  1  0  0  0  0
 24 25  1  0  0  0  0
 24 26  1  0  0  0  0
M  END
$$$$
default_name
  -OEChem-02102213163D

 29 29  0     1  0  0  0  0  0999 V2000
   -2.9561   -3.9186    1.3887 H   0  0  0  0  0  0  0  0  0  0  0  0
   -3.1191   -2.9346    0.9517 C   0  0  0  0  0  0  0  0  0  0  0  0
   -3.7811   -2.3546    1.5917 H   0  0  0  0  0  0  0  0  0  0  0  0
   -3.5591   -3.0406   -0.0383 H   0  0  0  0  0  0  0  0  0  0  0  0
   -1.7921   -2.2226    0.8327 C   0  0  0  0  0  0  0  0  0  0  0  0
   -0.7611   -2.7766    1.1927 O   0  0  0  0  0  0  0  0  0  0  0  0
   -1.8201   -0.9926    0.3247 N   0  0  0  0  0  0  0  0  0  0  0  0
   -2.7141   -0.5816    0.0927 H   0  0  0  0  0  0  0  0  0  0  0  0
   -0.6481   -0.1156    0.2017 C   0  0  1  0  0  0  0  0  0  0  0  0
    0.1042   -0.6345   -0.3958 H   0  0  0  0  0  0  0  0  0  0  0  0
   -1.0420    1.1781   -0.5372 C   0  0  0  0  0  0  0  0  0  0  0  0
   -0.2849    1.4220   -1.2839 H   0  0  0  0  0  0  0  0  0  0  0  0
   -1.9860    1.0298   -1.0634 H   0  0  0  0  0  0  0  0  0  0  0  0
   -1.1621    2.3670    0.3848 C   0  0  0  0  0  0  0  0  0  0  0  0
   -2.0360    2.4772    1.4672 N   0  0  0  0  0  0  0  0  0  0  0  0
   -1.7762    3.6653    2.0321 C   0  0  0  0  0  0  0  0  0  0  0  0
   -2.2964    4.0598    2.8959 H   0  0  0  0  0  0  0  0  0  0  0  0
   -0.7780    4.2862    1.3814 N   0  0  0  0  0  0  0  0  0  0  0  0
   -0.3874    5.1853    1.6280 H   0  0  0  0  0  0  0  0  0  0  0  0
   -0.3744    3.4801    0.3403 C   0  0  0  0  0  0  0  0  0  0  0  0
    0.4221    3.6657   -0.3693 H   0  0  0  0  0  0  0  0  0  0  0  0
   -0.0283    0.1609    1.5831 C   0  0  0  0  0  0  0  0  0  0  0  0
    1.1923    0.1056    1.7329 O   0  0  0  0  0  0  0  0  0  0  0  0
   -0.8586    0.4659    2.5853 N   0  0  0  0  0  0  0  0  0  0  0  0
   -1.8521    0.3848    2.4000 H   0  0  0  0  0  0  0  0  0  0  0  0
   -0.4403    0.7694    3.9518 C   0  0  0  0  0  0  0  0  0  0  0  0
    0.5066    1.3154    3.9421 H   0  0  0  0  0  0  0  0  0  0  0  0
   -1.1988    1.3789    4.4452 H   0  0  0  0  0  0  0  0  0  0  0  0
   -0.3053   -0.1600    4.5075 H   0  0  0  0  0  0  0  0  0  0  0  0
  5  6  2  0  0  0  0
  5  7  1  0  0  0  0
  2  3  1  0  0  0  0
  2  4  1  0  0  0  0
  2  5  1  0  0  0  0
  1  2  1  0  0  0  0
 22 23  2  0  0  0  0
 22 24  1  0  0  0  0
 20 21  1  0  0  0  0
 18 19  1  0  0  0  0
 18 20  1  0  0  0  0
 16 17  1  0  0  0  0
 16 18  1  0  0  0  0
 15 16  2  0  0  0  0
 14 15  1  0  0  0  0
 14 20  2  0  0  0  0
 11 12  1  0  0  0  0
 11 13  1  0  0  0  0
 11 14  1  0  0  0  0
  9 10  1  0  0  0  0
  9 11  1  0  0  0  0
  9 22  1  0  0  0  0
  7  8  1  0  0  0  0
  7  9  1  0  0  0  0
 26 27  1  0  0  0  0
 26 28  1  0  0  0  0
 26 29  1  0  0  0  0
 24 25  1  0  0  0  0
 24 26  1  0  0  0  0
M  END
$$$$
default_name
  -OEChem-02102213163D

 29 29  0     1  0  0  0  0  0999 V2000
   -2.9561   -3.9186    1.3887 H   0  0  0  0  0  0  0  0  0  0  0  0
   -3.1191   -2.9346    0.9517 C   0  0  0  0  0  0  0  0  0  0  0  0
   -3.7811   -2.3546    1.5917 H   0  0  0  0  0  0  0  0  0  0  0  0
   -3.5591   -3.0406   -0.0383 H   0  0  0  0  0  0  0  0  0  0  0  0
   -1.7921   -2.2226    0.8327 C   0  0  0  0  0  0  0  0  0  0  0  0
   -0.7611   -2.7766    1.1927 O   0  0  0  0  0  0  0  0  0  0  0  0
   -1.8201   -0.9926    0.3247 N   0  0  0  0  0  0  0  0  0  0  0  0
   -2.7141   -0.5816    0.0927 H   0  0  0  0  0  0  0  0  0  0  0  0
   -0.6481   -0.1156    0.2017 C   0  0  1  0  0  0  0  0  0  0  0  0
    0.1042   -0.6345   -0.3958 H   0  0  0  0  0  0  0  0  0  0  0  0
   -1.0420    1.1781   -0.5372 C   0  0  0  0  0  0  0  0  0  0  0  0
   -0.2849    1.4220   -1.2839 H   0  0  0  0  0  0  0  0  0  0  0  0
   -1.9860    1.0298   -1.0634 H   0  0  0  0  0  0  0  0  0  0  0  0
   -1.1621    2.3670    0.3848 C   0  0  0  0  0  0  0  0  0  0  0  0
   -1.8051    2.3795    1.6232 N   0  0  0  0  0  0  0  0  0  0  0  0
   -1.6303    3.6137    2.1177 C   0  0  0  0  0  0  0  0  0  0  0  0
   -2.0214    3.9538    3.0683 H   0  0  0  0  0  0  0  0  0  0  0  0
   -0.8970    4.3582    1.2731 N   0  0  0  0  0  0  0  0  0  0  0  0
   -0.6138    5.3157    1.4304 H   0  0  0  0  0  0  0  0  0  0  0  0
   -0.5884    3.5869    0.1747 C   0  0  0  0  0  0  0  0  0  0  0  0
    0.0079    3.8681   -0.6842 H   0  0  0  0  0  0  0  0  0  0  0  0
   -0.0283    0.1609    1.5831 C   0  0  0  0  0  0  0  0  0  0  0  0
    1.1923    0.1056    1.7329 O   0  0  0  0  0  0  0  0  0  0  0  0
   -0.8586    0.4659    2.5853 N   0  0  0  0  0  0  0  0  0  0  0  0
   -1.8521    0.3848    2.4000 H   0  0  0  0  0  0  0  0  0  0  0  0
   -0.4403    0.7694    3.9518 C   0  0  0  0  0  0  0  0  0  0  0  0
    0.5066    1.3154    3.9421 H   0  0  0  0  0  0  0  0  0  0  0  0
   -1.1988    1.3789    4.4452 H   0  0  0  0  0  0  0  0  0  0  0  0
   -0.3053   -0.1600    4.5075 H   0  0  0  0  0  0  0  0  0  0  0  0
  5  6  2  0  0  0  0
  5  7  1  0  0  0  0
  2  3  1  0  0  0  0
  2  4  1  0  0  0  0
  2  5  1  0  0  0  0
  1  2  1  0  0  0  0
 22 23  2  0  0  0  0
 22 24  1  0  0  0  0
 20 21  1  0  0  0  0
 18 19  1  0  0  0  0
 18 20  1  0  0  0  0
 16 17  1  0  0  0  0
 16 18  1  0  0  0  0
 15 16  2  0  0  0  0
 14 15  1  0  0  0  0
 14 20  2  0  0  0  0
 11 12  1  0  0  0  0
 11 13  1  0  0  0  0
 11 14  1  0  0  0  0
  9 10  1  0  0  0  0
  9 11  1  0  0  0  0
  9 22  1  0  0  0  0
  7  8  1  0  0  0  0
  7  9  1  0  0  0  0
 26 27  1  0  0  0  0
 26 28  1  0  0  0  0
 26 29  1  0  0  0  0
 24 25  1  0  0  0  0
 24 26  1  0  0  0  0
M  END
$$$$
default_name
  -OEChem-02102213163D

 29 29  0     1  0  0  0  0  0999 V2000
   -2.9561   -3.9186    1.3887 H   0  0  0  0  0  0  0  0  0  0  0  0
   -3.1191   -2.9346    0.9517 C   0  0  0  0  0  0  0  0  0  0  0  0
   -3.7811   -2.3546    1.5917 H   0  0  0  0  0  0  0  0  0  0  0  0
   -3.5591   -3.0406   -0.0383 H   0  0  0  0  0  0  0  0  0  0  0  0
   -1.7921   -2.2226    0.8327 C   0  0  0  0  0  0  0  0  0  0  0  0
   -0.7611   -2.7766    1.1927 O   0  0  0  0  0  0  0  0  0  0  0  0
   -1.8201   -0.9926    0.3247 N   0  0  0  0  0  0  0  0  0  0  0  0
   -2.7141   -0.5816    0.0927 H   0  0  0  0  0  0  0  0  0  0  0  0
   -0.6481   -0.1156    0.2017 C   0  0  1  0  0  0  0  0  0  0  0  0
    0.1042   -0.6345   -0.3958 H   0  0  0  0  0  0  0  0  0  0  0  0
   -1.0420    1.1781   -0.5372 C   0  0  0  0  0  0  0  0  0  0  0  0
   -0.2849    1.4220   -1.2839 H   0  0  0  0  0  0  0  0  0  0  0  0
   -1.9860    1.0298   -1.0634 H   0  0  0  0  0  0  0  0  0  0  0  0
   -1.1621    2.3670    0.3848 C   0  0  0  0  0  0  0  0  0  0  0  0
   -1.5349    2.3249    1.7289 N   0  0  0  0  0  0  0  0  0  0  0  0
   -1.4638    3.5886    2.1717 C   0  0  0  0  0  0  0  0  0  0  0  0
   -1.7040    3.8986    3.1809 H   0  0  0  0  0  0  0  0  0  0  0  0
   -1.0454    4.4066    1.1913 N   0  0  0  0  0  0  0  0  0  0  0  0
   -0.8934    5.4018    1.2830 H   0  0  0  0  0  0  0  0  0  0  0  0
   -0.8458    3.6528    0.0562 C   0  0  0  0  0  0  0  0  0  0  0  0
   -0.4885    3.9916   -0.9081 H   0  0  0  0  0  0  0  0  0  0  0  0
   -0.0283    0.1609    1.5831 C   0  0  0  0  0  0  0  0  0  0  0  0
    1.1923    0.1056    1.7329 O   0  0  0  0  0  0  0  0  0  0  0  0
   -0.8586    0.4659    2.5853 N   0  0  0  0  0  0  0  0  0  0  0  0
   -1.8521    0.3848    2.4000 H   0  0  0  0  0  0  0  0  0  0  0  0
   -0.4403    0.7694    3.9518 C   0  0  0  0  0  0  0  0  0  0  0  0
    0.5066    1.3154    3.9421 H   0  0  0  0  0  0  0  0  0  0  0  0
   -1.1988    1.3789    4.4452 H   0  0  0  0  0  0  0  0  0  0  0  0
   -0.3053   -0.1600    4.5075 H   0  0  0  0  0  0  0  0  0  0  0  0
  5  6  2  0  0  0  0
  5  7  1  0  0  0  0
  2  3  1  0  0  0  0
  2  4  1  0  0  0  0
  2  5  1  0  0  0  0
  1  2  1  0  0  0  0
 22 23  2  0  0  0  0
 22 24  1  0  0  0  0
 20 21  1  0  0  0  0
 18 19  1  0  0  0  0
 18 20  1  0  0  0  0
 16 17  1  0  0  0  0
 16 18  1  0  0  0  0
 15 16  2  0  0  0  0
 14 15  1  0  0  0  0
 14 20  2  0  0  0  0
 11 12  1  0  0  0  0
 11 13  1  0  0  0  0
 11 14  1  0  0  0  0
  9 10  1  0  0  0  0
  9 11  1  0  0  0  0
  9 22  1  0  0  0  0
  7  8  1  0  0  0  0
  7  9  1  0  0  0  0
 26 27  1  0  0  0  0
 26 28  1  0  0  0  0
 26 29  1  0  0  0  0
 24 25  1  0  0  0  0
 24 26  1  0  0  0  0
M  END
$$$$
default_name
  -OEChem-02102213163D

 29 29  0     1  0  0  0  0  0999 V2000
   -2.9561   -3.9186    1.3887 H   0  0  0  0  0  0  0  0  0  0  0  0
   -3.1191   -2.9346    0.9517 C   0  0  0  0  0  0  0  0  0  0  0  0
   -3.7811   -2.3546    1.5917 H   0  0  0  0  0  0  0  0  0  0  0  0
   -3.5591   -3.0406   -0.0383 H   0  0  0  0  0  0  0  0  0  0  0  0
   -1.7921   -2.2226    0.8327 C   0  0  0  0  0  0  0  0  0  0  0  0
   -0.7611   -2.7766    1.1927 O   0  0  0  0  0  0  0  0  0  0  0  0
   -1.8201   -0.9926    0.3247 N   0  0  0  0  0  0  0  0  0  0  0  0
   -2.7141   -0.5816    0.0927 H   0  0  0  0  0  0  0  0  0  0  0  0
   -0.6481   -0.1156    0.2017 C   0  0  1  0  0  0  0  0  0  0  0  0
    0.1042   -0.6345   -0.3958 H   0  0  0  0  0  0  0  0  0  0  0  0
   -1.0420    1.1781   -0.5372 C   0  0  0  0  0  0  0  0  0  0  0  0
   -0.2849    1.4220   -1.2839 H   0  0  0  0  0  0  0  0  0  0  0  0
   -1.9860    1.0298   -1.0634 H   0  0  0  0  0  0  0  0  0  0  0  0
   -1.1621    2.3670    0.3848 C   0  0  0  0  0  0  0  0  0  0  0  0
   -1.2437    2.3170    1.7770 N   0  0  0  0  0  0  0  0  0  0  0  0
   -1.2880    3.5919    2.1904 C   0  0  0  0  0  0  0  0  0  0  0  0
   -1.3656    3.8977    3.2261 H   0  0  0  0  0  0  0  0  0  0  0  0
   -1.2131    4.4283    1.1415 N   0  0  0  0  0  0  0  0  0  0  0  0
   -1.2072    5.4377    1.1958 H   0  0  0  0  0  0  0  0  0  0  0  0
   -1.1290    3.6734   -0.0072 C   0  0  0  0  0  0  0  0  0  0  0  0
   -1.0330    4.0278   -1.0258 H   0  0  0  0  0  0  0  0  0  0  0  0
   -0.0283    0.1609    1.5831 C   0  0  0  0  0  0  0  0  0  0  0  0
    1.1923    0.1056    1.7329 O   0  0  0  0  0  0  0  0  0  0  0  0
   -0.8586    0.4659    2.5853 N   0  0  0  0  0  0  0  0  0  0  0  0
   -1.8521    0.3848    2.4000 H   0  0  0  0  0  0  0  0  0  0  0  0
   -0.4403    0.7694    3.9518 C   0  0  0  0  0  0  0  0  0  0  0  0
    0.5066    1.3154    3.9421 H   0  0  0  0  0  0  0  0  0  0  0  0
   -1.1988    1.3789    4.4452 H   0  0  0  0  0  0  0  0  0  0  0  0
   -0.3053   -0.1600    4.5075 H   0  0  0  0  0  0  0  0  0  0  0  0
  5  6  2  0  0  0  0
  5  7  1  0  0  0  0
  2  3  1  0  0  0  0
  2  4  1  0  0  0  0
  2  5  1  0  0  0  0
  1  2  1  0  0  0  0
 22 23  2  0  0  0  0
 22 24  1  0  0  0  0
 20 21  1  0  0  0  0
 18 19  1  0  0  0  0
 18 20  1  0  0  0  0
 16 17  1  0  0  0  0
 16 18  1  0  0  0  0
 15 16  2  0  0  0  0
 14 15  1  0  0  0  0
 14 20  2  0  0  0  0
 11 12  1  0  0  0  0
 11 13  1  0  0  0  0
 11 14  1  0  0  0  0
  9 10  1  0  0  0  0
  9 11  1  0  0  0  0
  9 22  1  0  0  0  0
  7  8  1  0  0  0  0
  7  9  1  0  0  0  0
 26 27  1  0  0  0  0
 26 28  1  0  0  0  0
 26 29  1  0  0  0  0
 24 25  1  0  0  0  0
 24 26  1  0  0  0  0
M  END
$$$$
default_name
  -OEChem-02102213163D

 29 29  0     1  0  0  0  0  0999 V2000
   -2.9561   -3.9186    1.3887 H   0  0  0  0  0  0  0  0  0  0  0  0
   -3.1191   -2.9346    0.9517 C   0  0  0  0  0  0  0  0  0  0  0  0
   -3.7811   -2.3546    1.5917 H   0  0  0  0  0  0  0  0  0  0  0  0
   -3.5591   -3.0406   -0.0383 H   0  0  0  0  0  0  0  0  0  0  0  0
   -1.7921   -2.2226    0.8327 C   0  0  0  0  0  0  0  0  0  0  0  0
   -0.7611   -2.7766    1.1927 O   0  0  0  0  0  0  0  0  0  0  0  0
   -1.8201   -0.9926    0.3247 N   0  0  0  0  0  0  0  0  0  0  0  0
   -2.7141   -0.5816    0.0927 H   0  0  0  0  0  0  0  0  0  0  0  0
   -0.6481   -0.1156    0.2017 C   0  0  1  0  0  0  0  0  0  0  0  0
    0.1042   -0.6345   -0.3958 H   0  0  0  0  0  0  0  0  0  0  0  0
   -1.0420    1.1781   -0.5372 C   0  0  0  0  0  0  0  0  0  0  0  0
   -0.2849    1.4220   -1.2839 H   0  0  0  0  0  0  0  0  0  0  0  0
   -1.9860    1.0298   -1.0634 H   0  0  0  0  0  0  0  0  0  0  0  0
   -1.1621    2.3670    0.3848 C   0  0  0  0  0  0  0  0  0  0  0  0
   -0.9514    2.3564    1.7642 N   0  0  0  0  0  0  0  0  0  0  0  0
   -1.1148    3.6232    2.1726 C   0  0  0  0  0  0  0  0  0  0  0  0
   -1.0294    3.9513    3.2008 H   0  0  0  0  0  0  0  0  0  0  0  0
   -1.3886    4.4217    1.1272 N   0  0  0  0  0  0  0  0  0  0  0  0
   -1.5337    5.4209    1.1749 H   0  0  0  0  0  0  0  0  0  0  0  0
   -1.4187    3.6471   -0.0111 C   0  0  0  0  0  0  0  0  0  0  0  0
   -1.5888    3.9743   -1.0292 H   0  0  0  0  0  0  0  0  0  0  0  0
   -0.0283    0.1609    1.5831 C   0  0  0  0  0  0  0  0  0  0  0  0
    1.1923    0.1056    1.7329 O   0  0  0  0  0  0  0  0  0  0  0  0
   -0.8586    0.4659    2.5853 N   0  0  0  0  0  0  0  0  0  0  0  0
   -1.8521    0.3848    2.4000 H   0  0  0  0  0  0  0  0  0  0  0  0
   -0.4403    0.7694    3.9518 C   0  0  0  0  0  0  0  0  0  0  0  0
    0.5066    1.3154    3.9421 H   0  0  0  0  0  0  0  0  0  0  0  0
   -1.1988    1.3789    4.4452 H   0  0  0  0  0  0  0  0  0  0  0  0
   -0.3053   -0.1600    4.5075 H   0  0  0  0  0  0  0  0  0  0  0  0
  5  6  2  0  0  0  0
  5  7  1  0  0  0  0
  2  3  1  0  0  0  0
  2  4  1  0  0  0  0
  2  5  1  0  0  0  0
  1  2  1  0  0  0  0
 22 23  2  0  0  0  0
 22 24  1  0  0  0  0
 20 21  1  0  0  0  0
 18 19  1  0  0  0  0
 18 20  1  0  0  0  0
 16 17  1  0  0  0  0
 16 18  1  0  0  0  0
 15 16  2  0  0  0  0
 14 15  1  0  0  0  0
 14 20  2  0  0  0  0
 11 12  1  0  0  0  0
 11 13  1  0  0  0  0
 11 14  1  0  0  0  0
  9 10  1  0  0  0  0
  9 11  1  0  0  0  0
  9 22  1  0  0  0  0
  7  8  1  0  0  0  0
  7  9  1  0  0  0  0
 26 27  1  0  0  0  0
 26 28  1  0  0  0  0
 26 29  1  0  0  0  0
 24 25  1  0  0  0  0
 24 26  1  0  0  0  0
M  END
$$$$
default_name
  -OEChem-02102213163D

 29 29  0     1  0  0  0  0  0999 V2000
   -2.9561   -3.9186    1.3887 H   0  0  0  0  0  0  0  0  0  0  0  0
   -3.1191   -2.9346    0.9517 C   0  0  0  0  0  0  0  0  0  0  0  0
   -3.7811   -2.3546    1.5917 H   0  0  0  0  0  0  0  0  0  0  0  0
   -3.5591   -3.0406   -0.0383 H   0  0  0  0  0  0  0  0  0  0  0  0
   -1.7921   -2.2226    0.8327 C   0  0  0  0  0  0  0  0  0  0  0  0
   -0.7611   -2.7766    1.1927 O   0  0  0  0  0  0  0  0  0  0  0  0
   -1.8201   -0.9926    0.3247 N   0  0  0  0  0  0  0  0  0  0  0  0
   -2.7141   -0.5816    0.0927 H   0  0  0  0  0  0  0  0  0  0  0  0
   -0.6481   -0.1156    0.2017 C   0  0  1  0  0  0  0  0  0  0  0  0
    0.1042   -0.6345   -0.3958 H   0  0  0  0  0  0  0  0  0  0  0  0
   -1.0420    1.1781   -0.5372 C   0  0  0  0  0  0  0  0  0  0  0  0
   -0.2849    1.4220   -1.2839 H   0  0  0  0  0  0  0  0  0  0  0  0
   -1.9860    1.0298   -1.0634 H   0  0  0  0  0  0  0  0  0  0  0  0
   -1.1621    2.3670    0.3848 C   0  0  0  0  0  0  0  0  0  0  0  0
   -0.6779    2.4404    1.6915 N   0  0  0  0  0  0  0  0  0  0  0  0
   -0.9562    3.6805    2.1194 C   0  0  0  0  0  0  0  0  0  0  0  0
   -0.7183    4.0556    3.1068 H   0  0  0  0  0  0  0  0  0  0  0  0
   -1.5601    4.3872    1.1493 N   0  0  0  0  0  0  0  0  0  0  0  0
   -1.8507    5.3527    1.2216 H   0  0  0  0  0  0  0  0  0  0  0  0
   -1.6952    3.5759    0.0447 C   0  0  0  0  0  0  0  0  0  0  0  0
   -2.1178    3.8347   -0.9180 H   0  0  0  0  0  0  0  0  0  0  0  0
   -0.0283    0.1609    1.5831 C   0  0  0  0  0  0  0  0  0  0  0  0
    1.1923    0.1056    1.7329 O   0  0  0  0  0  0  0  0  0  0  0  0
   -0.8586    0.4659    2.5853 N   0  0  0  0  0  0  0  0  0  0  0  0
   -1.8521    0.3848    2.4000 H   0  0  0  0  0  0  0  0  0  0  0  0
   -0.4403    0.7694    3.9518 C   0  0  0  0  0  0  0  0  0  0  0  0
    0.5066    1.3154    3.9421 H   0  0  0  0  0  0  0  0  0  0  0  0
   -1.1988    1.3789    4.4452 H   0  0  0  0  0  0  0  0  0  0  0  0
   -0.3053   -0.1600    4.5075 H   0  0  0  0  0  0  0  0  0  0  0  0
  5  6  2  0  0  0  0
  5  7  1  0  0  0  0
  2  3  1  0  0  0  0
  2  4  1  0  0  0  0
  2  5  1  0  0  0  0
  1  2  1  0  0  0  0
 22 23  2  0  0  0  0
 22 24  1  0  0  0  0
 20 21  1  0  0  0  0
 18 19  1  0  0  0  0
 18 20  1  0  0  0  0
 16 17  1  0  0  0  0
 16 18  1  0  0  0  0
 15 16  2  0  0  0  0
 14 15  1  0  0  0  0
 14 20  2  0  0  0  0
 11 12  1  0  0  0  0
 11 13  1  0  0  0  0
 11 14  1  0  0  0  0
  9 10  1  0  0  0  0
  9 11  1  0  0  0  0
  9 22  1  0  0  0  0
  7  8  1  0  0  0  0
  7  9  1  0  0  0  0
 26 27  1  0  0  0  0
 26 28  1  0  0  0  0
 26 29  1  0  0  0  0
 24 25  1  0  0  0  0
 24 26  1  0  0  0  0
M  END
$$$$
default_name
  -OEChem-02102213163D

 29 29  0     1  0  0  0  0  0999 V2000
   -2.9561   -3.9186    1.3887 H   0  0  0  0  0  0  0  0  0  0  0  0
   -3.1191   -2.9346    0.9517 C   0  0  0  0  0  0  0  0  0  0  0  0
   -3.7811   -2.3546    1.5917 H   0  0  0  0  0  0  0  0  0  0  0  0
   -3.5591   -3.0406   -0.0383 H   0  0  0  0  0  0  0  0  0  0  0  0
   -1.7921   -2.2226    0.8327 C   0  0  0  0  0  0  0  0  0  0  0  0
   -0.7611   -2.7766    1.1927 O   0  0  0  0  0  0  0  0  0  0  0  0
   -1.8201   -0.9926    0.3247 N   0  0  0  0  0  0  0  0  0  0  0  0
   -2.7141   -0.5816    0.0927 H   0  0  0  0  0  0  0  0  0  0  0  0
   -0.6481   -0.1156    0.2017 C   0  0  1  0  0  0  0  0  0  0  0  0
    0.1042   -0.6345   -0.3958 H   0  0  0  0  0  0  0  0  0  0  0  0
   -1.0420    1.1781   -0.5372 C   0  0  0  0  0  0  0  0  0  0  0  0
   -0.2849    1.4220   -1.2839 H   0  0  0  0  0  0  0  0  0  0  0  0
   -1.9860    1.0298   -1.0634 H   0  0  0  0  0  0  0  0  0  0  0  0
   -1.1621    2.3670    0.3848 C   0  0  0  0  0  0  0  0  0  0  0  0
   -0.4418    2.5633    1.5638 N   0  0  0  0  0  0  0  0  0  0  0  0
   -0.8229    3.7598    2.0345 C   0  0  0  0  0  0  0  0  0  0  0  0
   -0.4535    4.2037    2.9503 H   0  0  0  0  0  0  0  0  0  0  0  0
   -1.7157    4.3273    1.2062 N   0  0  0  0  0  0  0  0  0  0  0  0
   -2.1366    5.2377    1.3327 H   0  0  0  0  0  0  0  0  0  0  0  0
   -1.9397    3.4646    0.1564 C   0  0  0  0  0  0  0  0  0  0  0  0
   -2.5841    3.6184   -0.6999 H   0  0  0  0  0  0  0  0  0  0  0  0
   -0.0283    0.1609    1.5831 C   0  0  0  0  0  0  0  0  0  0  0  0
    1.1923    0.1056    1.7329 O   0  0  0  0  0  0  0  0  0  0  0  0
   -0.8586    0.4659    2.5853 N   0  0  0  0  0  0  0  0  0  0  0  0
   -1.8521    0.3848    2.4000 H   0  0  0  0  0  0  0  0  0  0  0  0
   -0.4403    0.7694    3.9518 C   0  0  0  0  0  0  0  0  0  0  0  0
    0.5066    1.3154    3.9421 H   0  0  0  0  0  0  0  0  0  0  0  0
   -1.1988    1.3789    4.4452 H   0  0  0  0  0  0  0  0  0  0  0  0
   -0.3053   -0.1600    4.5075 H   0  0  0  0  0  0  0  0  0  0  0  0
  5  6  2  0  0  0  0
  5  7  1  0  0  0  0
  2  3  1  0  0  0  0
  2  4  1  0  0  0  0
  2  5  1  0  0  0  0
  1  2  1  0  0  0  0
 22 23  2  0  0  0  0
 22 24  1  0  0  0  0
 20 21  1  0  0  0  0
 18 19  1  0  0  0  0
 18 20  1  0  0  0  0
 16 17  1  0  0  0  0
 16 18  1  0  0  0  0
 15 16  2  0  0  0  0
 14 15  1  0  0  0  0
 14 20  2  0  0  0  0
 11 12  1  0  0  0  0
 11 13  1  0  0  0  0
 11 14  1  0  0  0  0
  9 10  1  0  0  0  0
  9 11  1  0  0  0  0
  9 22  1  0  0  0  0
  7  8  1  0  0  0  0
  7  9  1  0  0  0  0
 26 27  1  0  0  0  0
 26 28  1  0  0  0  0
 26 29  1  0  0  0  0
 24 25  1  0  0  0  0
 24 26  1  0  0  0  0
M  END
$$$$
default_name
  -OEChem-02102213163D

 29 29  0     1  0  0  0  0  0999 V2000
   -2.9561   -3.9186    1.3887 H   0  0  0  0  0  0  0  0  0  0  0  0
   -3.1191   -2.9346    0.9517 C   0  0  0  0  0  0  0  0  0  0  0  0
   -3.7811   -2.3546    1.5917 H   0  0  0  0  0  0  0  0  0  0  0  0
   -3.5591   -3.0406   -0.0383 H   0  0  0  0  0  0  0  0  0  0  0  0
   -1.7921   -2.2226    0.8327 C   0  0  0  0  0  0  0  0  0  0  0  0
   -0.7611   -2.7766    1.1927 O   0  0  0  0  0  0  0  0  0  0  0  0
   -1.8201   -0.9926    0.3247 N   0  0  0  0  0  0  0  0  0  0  0  0
   -2.7141   -0.5816    0.0927 H   0  0  0  0  0  0  0  0  0  0  0  0
   -0.6481   -0.1156    0.2017 C   0  0  1  0  0  0  0  0  0  0  0  0
    0.1042   -0.6345   -0.3958 H   0  0  0  0  0  0  0  0  0  0  0  0
   -1.0420    1.1781   -0.5372 C   0  0  0  0  0  0  0  0  0  0  0  0
   -0.2849    1.4220   -1.2839 H   0  0  0  0  0  0  0  0  0  0  0  0
   -1.9860    1.0298   -1.0634 H   0  0  0  0  0  0  0  0  0  0  0  0
   -1.1621    2.3670    0.3848 C   0  0  0  0  0  0  0  0  0  0  0  0
   -0.2592    2.7168    1.3897 N   0  0  0  0  0  0  0  0  0  0  0  0
   -0.7239    3.8557    1.9237 C   0  0  0  0  0  0  0  0  0  0  0  0
   -0.2530    4.3854    2.7422 H   0  0  0  0  0  0  0  0  0  0  0  0
   -1.8450    4.2460    1.2943 N   0  0  0  0  0  0  0  0  0  0  0  0
   -2.3719    5.0836    1.5007 H   0  0  0  0  0  0  0  0  0  0  0  0
   -2.1354    3.3206    0.3165 C   0  0  0  0  0  0  0  0  0  0  0  0
   -2.9558    3.3403   -0.3898 H   0  0  0  0  0  0  0  0  0  0  0  0
   -0.0283    0.1609    1.5831 C   0  0  0  0  0  0  0  0  0  0  0  0
    1.1923    0.1056    1.7329 O   0  0  0  0  0  0  0  0  0  0  0  0
   -0.8586    0.4659    2.5853 N   0  0  0  0  0  0  0  0  0  0  0  0
   -1.8521    0.3848    2.4000 H   0  0  0  0  0  0  0  0  0  0  0  0
   -0.4403    0.7694    3.9518 C   0  0  0  0  0  0  0  0  0  0  0  0
    0.5066    1.3154    3.9421 H   0  0  0  0  0  0  0  0  0  0  0  0
   -1.1988    1.3789    4.4452 H   0  0  0  0  0  0  0  0  0  0  0  0
   -0.3053   -0.1600    4.5075 H   0  0  0  0  0  0  0  0  0  0  0  0
  5  6  2  0  0  0  0
  5  7  1  0  0  0  0
  2  3  1  0  0  0  0
  2  4  1  0  0  0  0
  2  5  1  0  0  0  0
  1  2  1  0  0  0  0
 22 23  2  0  0  0  0
 22 24  1  0  0  0  0
 20 21  1  0  0  0  0
 18 19  1  0  0  0  0
 18 20  1  0  0  0  0
 16 17  1  0  0  0  0
 16 18  1  0  0  0  0
 15 16  2  0  0  0  0
 14 15  1  0  0  0  0
 14 20  2  0  0  0  0
 11 12  1  0  0  0  0
 11 13  1  0  0  0  0
 11 14  1  0  0  0  0
  9 10  1  0  0  0  0
  9 11  1  0  0  0  0
  9 22  1  0  0  0  0
  7  8  1  0  0  0  0
  7  9  1  0  0  0  0
 26 27  1  0  0  0  0
 26 28  1  0  0  0  0
 26 29  1  0  0  0  0
 24 25  1  0  0  0  0
 24 26  1  0  0  0  0
M  END
$$$$
default_name
  -OEChem-02102213163D

 29 29  0     1  0  0  0  0  0999 V2000
   -2.9561   -3.9186    1.3887 H   0  0  0  0  0  0  0  0  0  0  0  0
   -3.1191   -2.9346    0.9517 C   0  0  0  0  0  0  0  0  0  0  0  0
   -3.7811   -2.3546    1.5917 H   0  0  0  0  0  0  0  0  0  0  0  0
   -3.5591   -3.0406   -0.0383 H   0  0  0  0  0  0  0  0  0  0  0  0
   -1.7921   -2.2226    0.8327 C   0  0  0  0  0  0  0  0  0  0  0  0
   -0.7611   -2.7766    1.1927 O   0  0  0  0  0  0  0  0  0  0  0  0
   -1.8201   -0.9926    0.3247 N   0  0  0  0  0  0  0  0  0  0  0  0
   -2.7141   -0.5816    0.0927 H   0  0  0  0  0  0  0  0  0  0  0  0
   -0.6481   -0.1156    0.2017 C   0  0  1  0  0  0  0  0  0  0  0  0
    0.1042   -0.6345   -0.3958 H   0  0  0  0  0  0  0  0  0  0  0  0
   -1.0420    1.1781   -0.5372 C   0  0  0  0  0  0  0  0  0  0  0  0
   -0.2849    1.4220   -1.2839 H   0  0  0  0  0  0  0  0  0  0  0  0
   -1.9860    1.0298   -1.0634 H   0  0  0  0  0  0  0  0  0  0  0  0
   -1.1621    2.3670    0.3848 C   0  0  0  0  0  0  0  0  0  0  0  0
   -0.1426    2.8902    1.1812 N   0  0  0  0  0  0  0  0  0  0  0  0
   -0.6661    3.9617    1.7945 C   0  0  0  0  0  0  0  0  0  0  0  0
   -0.1305    4.5883    2.4965 H   0  0  0  0  0  0  0  0  0  0  0  0
   -1.9390    4.1488    1.4073 N   0  0  0  0  0  0  0  0  0  0  0  0
   -2.5406    4.9011    1.7141 H   0  0  0  0  0  0  0  0  0  0  0  0
   -2.2690    3.1540    0.5140 C   0  0  0  0  0  0  0  0  0  0  0  0
   -3.2077    3.0193   -0.0086 H   0  0  0  0  0  0  0  0  0  0  0  0
   -0.0283    0.1609    1.5831 C   0  0  0  0  0  0  0  0  0  0  0  0
    1.1923    0.1056    1.7329 O   0  0  0  0  0  0  0  0  0  0  0  0
   -0.8586    0.4659    2.5853 N   0  0  0  0  0  0  0  0  0  0  0  0
   -1.8521    0.3848    2.4000 H   0  0  0  0  0  0  0  0  0  0  0  0
   -0.4403    0.7694    3.9518 C   0  0  0  0  0  0  0  0  0  0  0  0
    0.5066    1.3154    3.9421 H   0  0  0  0  0  0  0  0  0  0  0  0
   -1.1988    1.3789    4.4452 H   0  0  0  0  0  0  0  0  0  0  0  0
   -0.3053   -0.1600    4.5075 H   0  0  0  0  0  0  0  0  0  0  0  0
  5  6  2  0  0  0  0
  5  7  1  0  0  0  0
  2  3  1  0  0  0  0
  2  4  1  0  0  0  0
  2  5  1  0  0  0  0
  1  2  1  0  0  0  0
 22 23  2  0  0  0  0
 22 24  1  0  0  0  0
 20 21  1  0  0  0  0
 18 19  1  0  0  0  0
 18 20  1  0  0  0  0
 16 17  1  0  0  0  0
 16 18  1  0  0  0  0
 15 16  2  0  0  0  0
 14 15  1  0  0  0  0
 14 20  2  0  0  0  0
 11 12  1  0  0  0  0
 11 13  1  0  0  0  0
 11 14  1  0  0  0  0
  9 10  1  0  0  0  0
  9 11  1  0  0  0  0
  9 22  1  0  0  0  0
  7  8  1  0  0  0  0
  7  9  1  0  0  0  0
 26 27  1  0  0  0  0
 26 28  1  0  0  0  0
 26 29  1  0  0  0  0
 24 25  1  0  0  0  0
 24 26  1  0  0  0  0
M  END
$$$$
default_name
  -OEChem-02102213163D

 29 29  0     1  0  0  0  0  0999 V2000
   -2.9561   -3.9186    1.3887 H   0  0  0  0  0  0  0  0  0  0  0  0
   -3.1191   -2.9346    0.9517 C   0  0  0  0  0  0  0  0  0  0  0  0
   -3.7811   -2.3546    1.5917 H   0  0  0  0  0  0  0  0  0  0  0  0
   -3.5591   -3.0406   -0.0383 H   0  0  0  0  0  0  0  0  0  0  0  0
   -1.7921   -2.2226    0.8327 C   0  0  0  0  0  0  0  0  0  0  0  0
   -0.7611   -2.7766    1.1927 O   0  0  0  0  0  0  0  0  0  0  0  0
   -1.8201   -0.9926    0.3247 N   0  0  0  0  0  0  0  0  0  0  0  0
   -2.7141   -0.5816    0.0927 H   0  0  0  0  0  0  0  0  0  0  0  0
   -0.6481   -0.1156    0.2017 C   0  0  1  0  0  0  0  0  0  0  0  0
    0.1042   -0.6345   -0.3958 H   0  0  0  0  0  0  0  0  0  0  0  0
   -1.0420    1.1781   -0.5372 C   0  0  0  0  0  0  0  0  0  0  0  0
   -0.2849    1.4220   -1.2839 H   0  0  0  0  0  0  0  0  0  0  0  0
   -1.9860    1.0298   -1.0634 H   0  0  0  0  0  0  0  0  0  0  0  0
   -1.1621    2.3670    0.3848 C   0  0  0  0  0  0  0  0  0  0  0  0
   -0.0999    3.0719    0.9525 N   0  0  0  0  0  0  0  0  0  0  0  0
   -0.6534    4.0706    1.6558 C   0  0  0  0  0  0  0  0  0  0  0  0
   -0.0943    4.7986    2.2300 H   0  0  0  0  0  0  0  0  0  0  0  0
   -1.9915    4.0424    1.5377 N   0  0  0  0  0  0  0  0  0  0  0  0
   -2.6312    4.7025    1.9584 H   0  0  0  0  0  0  0  0  0  0  0  0
   -2.3315    2.9759    0.7355 C   0  0  0  0  0  0  0  0  0  0  0  0
   -3.3225    2.6773    0.4175 H   0  0  0  0  0  0  0  0  0  0  0  0
   -0.0283    0.1609    1.5831 C   0  0  0  0  0  0  0  0  0  0  0  0
    1.1923    0.1056    1.7329 O   0  0  0  0  0  0  0  0  0  0  0  0
   -0.8586    0.4659    2.5853 N   0  0  0  0  0  0  0  0  0  0  0  0
   -1.8521    0.3848    2.4000 H   0  0  0  0  0  0  0  0  0  0  0  0
   -0.4403    0.7694    3.9518 C   0  0  0  0  0  0  0  0  0  0  0  0
    0.5066    1.3154    3.9421 H   0  0  0  0  0  0  0  0  0  0  0  0
   -1.1988    1.3789    4.4452 H   0  0  0  0  0  0  0  0  0  0  0  0
   -0.3053   -0.1600    4.5075 H   0  0  0  0  0  0  0  0  0  0  0  0
  5  6  2  0  0  0  0
  5  7  1  0  0  0  0
  2  3  1  0  0  0  0
  2  4  1  0  0  0  0
  2  5  1  0  0  0  0
  1  2  1  0  0  0  0
 22 23  2  0  0  0  0
 22 24  1  0  0  0  0
 20 21  1  0  0  0  0
 18 19  1  0  0  0  0
 18 20  1  0  0  0  0
 16 17  1  0  0  0  0
 16 18  1  0  0  0  0
 15 16  2  0  0  0  0
 14 15  1  0  0  0  0
 14 20  2  0  0  0  0
 11 12  1  0  0  0  0
 11 13  1  0  0  0  0
 11 14  1  0  0  0  0
  9 10  1  0  0  0  0
  9 11  1  0  0  0  0
  9 22  1  0  0  0  0
  7  8  1  0  0  0  0
  7  9  1  0  0  0  0
 26 27  1  0  0  0  0
 26 28  1  0  0  0  0
 26 29  1  0  0  0  0
 24 25  1  0  0  0  0
 24 26  1  0  0  0  0
M  END
$$$$
default_name
  -OEChem-02102213163D

 29 29  0     1  0  0  0  0  0999 V2000
   -2.9561   -3.9186    1.3887 H   0  0  0  0  0  0  0  0  0  0  0  0
   -3.1191   -2.9346    0.9517 C   0  0  0  0  0  0  0  0  0  0  0  0
   -3.7811   -2.3546    1.5917 H   0  0  0  0  0  0  0  0  0  0  0  0
   -3.5591   -3.0406   -0.0383 H   0  0  0  0  0  0  0  0  0  0  0  0
   -1.7921   -2.2226    0.8327 C   0  0  0  0  0  0  0  0  0  0  0  0
   -0.7611   -2.7766    1.1927 O   0  0  0  0  0  0  0  0  0  0  0  0
   -1.8201   -0.9926    0.3247 N   0  0  0  0  0  0  0  0  0  0  0  0
   -2.7141   -0.5816    0.0927 H   0  0  0  0  0  0  0  0  0  0  0  0
   -0.6481   -0.1156    0.2017 C   0  0  1  0  0  0  0  0  0  0  0  0
    0.1042   -0.6345   -0.3958 H   0  0  0  0  0  0  0  0  0  0  0  0
   -1.0420    1.1781   -0.5372 C   0  0  0  0  0  0  0  0  0  0  0  0
   -0.2849    1.4220   -1.2839 H   0  0  0  0  0  0  0  0  0  0  0  0
   -1.9860    1.0298   -1.0634 H   0  0  0  0  0  0  0  0  0  0  0  0
   -1.1621    2.3670    0.3848 C   0  0  0  0  0  0  0  0  0  0  0  0
   -0.1340    3.2495    0.7191 N   0  0  0  0  0  0  0  0  0  0  0  0
   -0.6866    4.1749    1.5169 C   0  0  0  0  0  0  0  0  0  0  0  0
   -0.1470    5.0020    1.9609 H   0  0  0  0  0  0  0  0  0  0  0  0
   -1.9987    3.9341    1.6765 N   0  0  0  0  0  0  0  0  0  0  0  0
   -2.6375    4.5013    2.2169 H   0  0  0  0  0  0  0  0  0  0  0  0
   -2.3186    2.7986    0.9658 C   0  0  0  0  0  0  0  0  0  0  0  0
   -3.2925    2.3375    0.8595 H   0  0  0  0  0  0  0  0  0  0  0  0
   -0.0283    0.1609    1.5831 C   0  0  0  0  0  0  0  0  0  0  0  0
    1.1923    0.1056    1.7329 O   0  0  0  0  0  0  0  0  0  0  0  0
   -0.8586    0.4659    2.5853 N   0  0  0  0  0  0  0  0  0  0  0  0
   -1.8521    0.3848    2.4000 H   0  0  0  0  0  0  0  0  0  0  0  0
   -0.4403    0.7694    3.9518 C   0  0  0  0  0  0  0  0  0  0  0  0
    0.5066    1.3154    3.9421 H   0  0  0  0  0  0  0  0  0  0  0  0
   -1.1988    1.3789    4.4452 H   0  0  0  0  0  0  0  0  0  0  0  0
   -0.3053   -0.1600    4.5075 H   0  0  0  0  0  0  0  0  0  0  0  0
  5  6  2  0  0  0  0
  5  7  1  0  0  0  0
  2  3  1  0  0  0  0
  2  4  1  0  0  0  0
  2  5  1  0  0  0  0
  1  2  1  0  0  0  0
 22 23  2  0  0  0  0
 22 24  1  0  0  0  0
 20 21  1  0  0  0  0
 18 19  1  0  0  0  0
 18 20  1  0  0  0  0
 16 17  1  0  0  0  0
 16 18  1  0  0  0  0
 15 16  2  0  0  0  0
 14 15  1  0  0  0  0
 14 20  2  0  0  0  0
 11 12  1  0  0  0  0
 11 13  1  0  0  0  0
 11 14  1  0  0  0  0
  9 10  1  0  0  0  0
  9 11  1  0  0  0  0
  9 22  1  0  0  0  0
  7  8  1  0  0  0  0
  7  9  1  0  0  0  0
 26 27  1  0  0  0  0
 26 28  1  0  0  0  0
 26 29  1  0  0  0  0
 24 25  1  0  0  0  0
 24 26  1  0  0  0  0
M  END
$$$$
default_name
  -OEChem-02102213163D

 29 29  0     1  0  0  0  0  0999 V2000
   -2.9561   -3.9186    1.3887 H   0  0  0  0  0  0  0  0  0  0  0  0
   -3.1191   -2.9346    0.9517 C   0  0  0  0  0  0  0  0  0  0  0  0
   -3.7811   -2.3546    1.5917 H   0  0  0  0  0  0  0  0  0  0  0  0
   -3.5591   -3.0406   -0.0383 H   0  0  0  0  0  0  0  0  0  0  0  0
   -1.7921   -2.2226    0.8327 C   0  0  0  0  0  0  0  0  0  0  0  0
   -0.7611   -2.7766    1.1927 O   0  0  0  0  0  0  0  0  0  0  0  0
   -1.8201   -0.9926    0.3247 N   0  0  0  0  0  0  0  0  0  0  0  0
   -2.7141   -0.5816    0.0927 H   0  0  0  0  0  0  0  0  0  0  0  0
   -0.6481   -0.1156    0.2017 C   0  0  1  0  0  0  0  0  0  0  0  0
    0.1042   -0.6345   -0.3958 H   0  0  0  0  0  0  0  0  0  0  0  0
   -1.0420    1.1781   -0.5372 C   0  0  0  0  0  0  0  0  0  0  0  0
   -0.2849    1.4220   -1.2839 H   0  0  0  0  0  0  0  0  0  0  0  0
   -1.9860    1.0298   -1.0634 H   0  0  0  0  0  0  0  0  0  0  0  0
   -1.1621    2.3670    0.3848 C   0  0  0  0  0  0  0  0  0  0  0  0
   -0.2427    3.4108    0.4969 N   0  0  0  0  0  0  0  0  0  0  0  0
   -0.7634    4.2676    1.3874 C   0  0  0  0  0  0  0  0  0  0  0  0
   -0.2848    5.1845    1.7076 H   0  0  0  0  0  0  0  0  0  0  0  0
   -1.9603    3.8311    1.8143 N   0  0  0  0  0  0  0  0  0  0  0  0
   -2.5590    4.3114    2.4721 H   0  0  0  0  0  0  0  0  0  0  0  0
   -2.2311    2.6342    1.1892 C   0  0  0  0  0  0  0  0  0  0  0  0
   -3.1196    2.0232    1.2873 H   0  0  0  0  0  0  0  0  0  0  0  0
   -0.0283    0.1609    1.5831 C   0  0  0  0  0  0  0  0  0  0  0  0
    1.1923    0.1056    1.7329 O   0  0  0  0  0  0  0  0  0  0  0  0
   -0.8586    0.4659    2.5853 N   0  0  0  0  0  0  0  0  0  0  0  0
   -1.8521    0.3848    2.4000 H   0  0  0  0  0  0  0  0  0  0  0  0
   -0.4403    0.7694    3.9518 C   0  0  0  0  0  0  0  0  0  0  0  0
    0.5066    1.3154    3.9421 H   0  0  0  0  0  0  0  0  0  0  0  0
   -1.1988    1.3789    4.4452 H   0  0  0  0  0  0  0  0  0  0  0  0
   -0.3053   -0.1600    4.5075 H   0  0  0  0  0  0  0  0  0  0  0  0
  5  6  2  0  0  0  0
  5  7  1  0  0  0  0
  2  3  1  0  0  0  0
  2  4  1  0  0  0  0
  2  5  1  0  0  0  0
  1  2  1  0  0  0  0
 22 23  2  0  0  0  0
 22 24  1  0  0  0  0
 20 21  1  0  0  0  0
 18 19  1  0  0  0  0
 18 20  1  0  0  0  0
 16 17  1  0  0  0  0
 16 18  1  0  0  0  0
 15 16  2  0  0  0  0
 14 15  1  0  0  0  0
 14 20  2  0  0  0  0
 11 12  1  0  0  0  0
 11 13  1  0  0  0  0
 11 14  1  0  0  0  0
  9 10  1  0  0  0  0
  9 11  1  0  0  0  0
  9 22  1  0  0  0  0
  7  8  1  0  0  0  0
  7  9  1  0  0  0  0
 26 27  1  0  0  0  0
 26 28  1  0  0  0  0
 26 29  1  0  0  0  0
 24 25  1  0  0  0  0
 24 26  1  0  0  0  0
M  END
$$$$
default_name
  -OEChem-02102213163D

 29 29  0     1  0  0  0  0  0999 V2000
   -2.9561   -3.9186    1.3887 H   0  0  0  0  0  0  0  0  0  0  0  0
   -3.1191   -2.9346    0.9517 C   0  0  0  0  0  0  0  0  0  0  0  0
   -3.7811   -2.3546    1.5917 H   0  0  0  0  0  0  0  0  0  0  0  0
   -3.5591   -3.0406   -0.0383 H   0  0  0  0  0  0  0  0  0  0  0  0
   -1.7921   -2.2226    0.8327 C   0  0  0  0  0  0  0  0  0  0  0  0
   -0.7611   -2.7766    1.1927 O   0  0  0  0  0  0  0  0  0  0  0  0
   -1.8201   -0.9926    0.3247 N   0  0  0  0  0  0  0  0  0  0  0  0
   -2.7141   -0.5816    0.0927 H   0  0  0  0  0  0  0  0  0  0  0  0
   -0.6481   -0.1156    0.2017 C   0  0  1  0  0  0  0  0  0  0  0  0
    0.1042   -0.6345   -0.3958 H   0  0  0  0  0  0  0  0  0  0  0  0
   -1.0420    1.1781   -0.5372 C   0  0  0  0  0  0  0  0  0  0  0  0
   -0.2849    1.4220   -1.2839 H   0  0  0  0  0  0  0  0  0  0  0  0
   -1.9860    1.0298   -1.0634 H   0  0  0  0  0  0  0  0  0  0  0  0
   -1.1621    2.3670    0.3848 C   0  0  0  0  0  0  0  0  0  0  0  0
   -0.4184    3.5449    0.3012 N   0  0  0  0  0  0  0  0  0  0  0  0
   -0.8787    4.3423    1.2761 C   0  0  0  0  0  0  0  0  0  0  0  0
   -0.4985    5.3338    1.4872 H   0  0  0  0  0  0  0  0  0  0  0  0
   -1.8788    3.7405    1.9416 N   0  0  0  0  0  0  0  0  0  0  0  0
   -2.4012    4.1456    2.7064 H   0  0  0  0  0  0  0  0  0  0  0  0
   -2.0750    2.4937    1.3906 C   0  0  0  0  0  0  0  0  0  0  0  0
   -2.8157    1.7557    1.6718 H   0  0  0  0  0  0  0  0  0  0  0  0
   -0.0283    0.1609    1.5831 C   0  0  0  0  0  0  0  0  0  0  0  0
    1.1923    0.1056    1.7329 O   0  0  0  0  0  0  0  0  0  0  0  0
   -0.8586    0.4659    2.5853 N   0  0  0  0  0  0  0  0  0  0  0  0
   -1.8521    0.3848    2.4000 H   0  0  0  0  0  0  0  0  0  0  0  0
   -0.4403    0.7694    3.9518 C   0  0  0  0  0  0  0  0  0  0  0  0
    0.5066    1.3154    3.9421 H   0  0  0  0  0  0  0  0  0  0  0  0
   -1.1988    1.3789    4.4452 H   0  0  0  0  0  0  0  0  0  0  0  0
   -0.3053   -0.1600    4.5075 H   0  0  0  0  0  0  0  0  0  0  0  0
  5  6  2  0  0  0  0
  5  7  1  0  0  0  0
  2  3  1  0  0  0  0
  2  4  1  0  0  0  0
  2  5  1  0  0  0  0
  1  2  1  0  0  0  0
 22 23  2  0  0  0  0
 22 24  1  0  0  0  0
 20 21  1  0  0  0  0
 18 19  1  0  0  0  0
 18 20  1  0  0  0  0
 16 17  1  0  0  0  0
 16 18  1  0  0  0  0
 15 16  2  0  0  0  0
 14 15  1  0  0  0  0
 14 20  2  0  0  0  0
 11 12  1  0  0  0  0
 11 13  1  0  0  0  0
 11 14  1  0  0  0  0
  9 10  1  0  0  0  0
  9 11  1  0  0  0  0
  9 22  1  0  0  0  0
  7  8  1  0  0  0  0
  7  9  1  0  0  0  0
 26 27  1  0  0  0  0
 26 28  1  0  0  0  0
 26 29  1  0  0  0  0
 24 25  1  0  0  0  0
 24 26  1  0  0  0  0
M  END
$$$$
default_name
  -OEChem-02102213163D

 29 29  0     1  0  0  0  0  0999 V2000
   -2.9561   -3.9186    1.3887 H   0  0  0  0  0  0  0  0  0  0  0  0
   -3.1191   -2.9346    0.9517 C   0  0  0  0  0  0  0  0  0  0  0  0
   -3.7811   -2.3546    1.5917 H   0  0  0  0  0  0  0  0  0  0  0  0
   -3.5591   -3.0406   -0.0383 H   0  0  0  0  0  0  0  0  0  0  0  0
   -1.7921   -2.2226    0.8327 C   0  0  0  0  0  0  0  0  0  0  0  0
   -0.7611   -2.7766    1.1927 O   0  0  0  0  0  0  0  0  0  0  0  0
   -1.8201   -0.9926    0.3247 N   0  0  0  0  0  0  0  0  0  0  0  0
   -2.7141   -0.5816    0.0927 H   0  0  0  0  0  0  0  0  0  0  0  0
   -0.6481   -0.1156    0.2017 C   0  0  1  0  0  0  0  0  0  0  0  0
    0.1042   -0.6345   -0.3958 H   0  0  0  0  0  0  0  0  0  0  0  0
   -1.0420    1.1781   -0.5372 C   0  0  0  0  0  0  0  0  0  0  0  0
   -0.2849    1.4220   -1.2839 H   0  0  0  0  0  0  0  0  0  0  0  0
   -1.9860    1.0298   -1.0634 H   0  0  0  0  0  0  0  0  0  0  0  0
   -1.1621    2.3670    0.3848 C   0  0  0  0  0  0  0  0  0  0  0  0
   -0.6492    3.6425    0.1451 N   0  0  0  0  0  0  0  0  0  0  0  0
   -1.0246    4.3939    1.1905 C   0  0  0  0  0  0  0  0  0  0  0  0
   -0.7735    5.4398    1.3148 H   0  0  0  0  0  0  0  0  0  0  0  0
   -1.7598    3.6686    2.0499 N   0  0  0  0  0  0  0  0  0  0  0  0
   -2.1748    4.0152    2.9040 H   0  0  0  0  0  0  0  0  0  0  0  0
   -1.8610    2.3869    1.5563 C   0  0  0  0  0  0  0  0  0  0  0  0
   -2.4015    1.5533    1.9868 H   0  0  0  0  0  0  0  0  0  0  0  0
   -0.0283    0.1609    1.5831 C   0  0  0  0  0  0  0  0  0  0  0  0
    1.1923    0.1056    1.7329 O   0  0  0  0  0  0  0  0  0  0  0  0
   -0.8586    0.4659    2.5853 N   0  0  0  0  0  0  0  0  0  0  0  0
   -1.8521    0.3848    2.4000 H   0  0  0  0  0  0  0  0  0  0  0  0
   -0.4403    0.7694    3.9518 C   0  0  0  0  0  0  0  0  0  0  0  0
    0.5066    1.3154    3.9421 H   0  0  0  0  0  0  0  0  0  0  0  0
   -1.1988    1.3789    4.4452 H   0  0  0  0  0  0  0  0  0  0  0  0
   -0.3053   -0.1600    4.5075 H   0  0  0  0  0  0  0  0  0  0  0  0
  5  6  2  0  0  0  0
  5  7  1  0  0  0  0
  2  3  1  0  0  0  0
  2  4  1  0  0  0  0
  2  5  1  0  0  0  0
  1  2  1  0  0  0  0
 22 23  2  0  0  0  0
 22 24  1  0  0  0  0
 20 21  1  0  0  0  0
 18 19  1  0  0  0  0
 18 20  1  0  0  0  0
 16 17  1  0  0  0  0
 16 18  1  0  0  0  0
 15 16  2  0  0  0  0
 14 15  1  0  0  0  0
 14 20  2  0  0  0  0
 11 12  1  0  0  0  0
 11 13  1  0  0  0  0
 11 14  1  0  0  0  0
  9 10  1  0  0  0  0
  9 11  1  0  0  0  0
  9 22  1  0  0  0  0
  7  8  1  0  0  0  0
  7  9  1  0  0  0  0
 26 27  1  0  0  0  0
 26 28  1  0  0  0  0
 26 29  1  0  0  0  0
 24 25  1  0  0  0  0
 24 26  1  0  0  0  0
M  END
$$$$
default_name
  -OEChem-02102213163D

 29 29  0     1  0  0  0  0  0999 V2000
   -2.9561   -3.9186    1.3887 H   0  0  0  0  0  0  0  0  0  0  0  0
   -3.1191   -2.9346    0.9517 C   0  0  0  0  0  0  0  0  0  0  0  0
   -3.7811   -2.3546    1.5917 H   0  0  0  0  0  0  0  0  0  0  0  0
   -3.5591   -3.0406   -0.0383 H   0  0  0  0  0  0  0  0  0  0  0  0
   -1.7921   -2.2226    0.8327 C   0  0  0  0  0  0  0  0  0  0  0  0
   -0.7611   -2.7766    1.1927 O   0  0  0  0  0  0  0  0  0  0  0  0
   -1.8201   -0.9926    0.3247 N   0  0  0  0  0  0  0  0  0  0  0  0
   -2.7141   -0.5816    0.0927 H   0  0  0  0  0  0  0  0  0  0  0  0
   -0.6481   -0.1156    0.2017 C   0  0  1  0  0  0  0  0  0  0  0  0
    0.1042   -0.6345   -0.3958 H   0  0  0  0  0  0  0  0  0  0  0  0
   -1.0420    1.1781   -0.5372 C   0  0  0  0  0  0  0  0  0  0  0  0
   -0.2849    1.4220   -1.2839 H   0  0  0  0  0  0  0  0  0  0  0  0
   -1.9860    1.0298   -1.0634 H   0  0  0  0  0  0  0  0  0  0  0  0
   -1.1621    2.3670    0.3848 C   0  0  0  0  0  0  0  0  0  0  0  0
   -0.9194    3.6972    0.0395 N   0  0  0  0  0  0  0  0  0  0  0  0
   -1.1911    4.4190    1.1365 C   0  0  0  0  0  0  0  0  0  0  0  0
   -1.0910    5.4950    1.2021 H   0  0  0  0  0  0  0  0  0  0  0  0
   -1.6114    3.6201    2.1317 N   0  0  0  0  0  0  0  0  0  0  0  0
   -1.8951    3.9291    3.0514 H   0  0  0  0  0  0  0  0  0  0  0  0
   -1.6036    2.3210    1.6748 C   0  0  0  0  0  0  0  0  0  0  0  0
   -1.9052    1.4298    2.2107 H   0  0  0  0  0  0  0  0  0  0  0  0
   -0.0283    0.1609    1.5831 C   0  0  0  0  0  0  0  0  0  0  0  0
    1.1923    0.1056    1.7329 O   0  0  0  0  0  0  0  0  0  0  0  0
   -0.8586    0.4659    2.5853 N   0  0  0  0  0  0  0  0  0  0  0  0
   -1.8521    0.3848    2.4000 H   0  0  0  0  0  0  0  0  0  0  0  0
   -0.4403    0.7694    3.9518 C   0  0  0  0  0  0  0  0  0  0  0  0
    0.5066    1.3154    3.9421 H   0  0  0  0  0  0  0  0  0  0  0  0
   -1.1988    1.3789    4.4452 H   0  0  0  0  0  0  0  0  0  0  0  0
   -0.3053   -0.1600    4.5075 H   0  0  0  0  0  0  0  0  0  0  0  0
  5  6  2  0  0  0  0
  5  7  1  0  0  0  0
  2  3  1  0  0  0  0
  2  4  1  0  0  0  0
  2  5  1  0  0  0  0
  1  2  1  0  0  0  0
 22 23  2  0  0  0  0
 22 24  1  0  0  0  0
 20 21  1  0  0  0  0
 18 19  1  0  0  0  0
 18 20  1  0  0  0  0
 16 17  1  0  0  0  0
 16 18  1  0  0  0  0
 15 16  2  0  0  0  0
 14 15  1  0  0  0  0
 14 20  2  0  0  0  0
 11 12  1  0  0  0  0
 11 13  1  0  0  0  0
 11 14  1  0  0  0  0
  9 10  1  0  0  0  0
  9 11  1  0  0  0  0
  9 22  1  0  0  0  0
  7  8  1  0  0  0  0
  7  9  1  0  0  0  0
 26 27  1  0  0  0  0
 26 28  1  0  0  0  0
 26 29  1  0  0  0  0
 24 25  1  0  0  0  0
 24 26  1  0  0  0  0
M  END
$$$$
default_name
  -OEChem-02102213163D

 29 29  0     1  0  0  0  0  0999 V2000
   -2.9561   -3.9186    1.3887 H   0  0  0  0  0  0  0  0  0  0  0  0
   -3.1191   -2.9346    0.9517 C   0  0  0  0  0  0  0  0  0  0  0  0
   -3.7811   -2.3546    1.5917 H   0  0  0  0  0  0  0  0  0  0  0  0
   -3.5591   -3.0406   -0.0383 H   0  0  0  0  0  0  0  0  0  0  0  0
   -1.7921   -2.2226    0.8327 C   0  0  0  0  0  0  0  0  0  0  0  0
   -0.7611   -2.7766    1.1927 O   0  0  0  0  0  0  0  0  0  0  0  0
   -1.8201   -0.9926    0.3247 N   0  0  0  0  0  0  0  0  0  0  0  0
   -2.7141   -0.5816    0.0927 H   0  0  0  0  0  0  0  0  0  0  0  0
   -0.6481   -0.1156    0.2017 C   0  0  1  0  0  0  0  0  0  0  0  0
    0.1042   -0.6345   -0.3958 H   0  0  0  0  0  0  0  0  0  0  0  0
   -1.0420    1.1781   -0.5372 C   0  0  0  0  0  0  0  0  0  0  0  0
   -0.2849    1.4220   -1.2839 H   0  0  0  0  0  0  0  0  0  0  0  0
   -1.9860    1.0298   -1.0634 H   0  0  0  0  0  0  0  0  0  0  0  0
   -1.1621    2.3670    0.3848 C   0  0  0  0  0  0  0  0  0  0  0  0
   -1.2106    3.7051   -0.0086 N   0  0  0  0  0  0  0  0  0  0  0  0
   -1.3669    4.4157    1.1178 C   0  0  0  0  0  0  0  0  0  0  0  0
   -1.4293    5.4959    1.1569 H   0  0  0  0  0  0  0  0  0  0  0  0
   -1.4437    3.5985    2.1815 N   0  0  0  0  0  0  0  0  0  0  0  0
   -1.5814    3.8932    3.1386 H   0  0  0  0  0  0  0  0  0  0  0  0
   -1.3204    2.3004    1.7382 C   0  0  0  0  0  0  0  0  0  0  0  0
   -1.3606    1.3936    2.3284 H   0  0  0  0  0  0  0  0  0  0  0  0
   -0.0283    0.1609    1.5831 C   0  0  0  0  0  0  0  0  0  0  0  0
    1.1923    0.1056    1.7329 O   0  0  0  0  0  0  0  0  0  0  0  0
   -0.8586    0.4659    2.5853 N   0  0  0  0  0  0  0  0  0  0  0  0
   -1.8521    0.3848    2.4000 H   0  0  0  0  0  0  0  0  0  0  0  0
   -0.4403    0.7694    3.9518 C   0  0  0  0  0  0  0  0  0  0  0  0
    0.5066    1.3154    3.9421 H   0  0  0  0  0  0  0  0  0  0  0  0
   -1.1988    1.3789    4.4452 H   0  0  0  0  0  0  0  0  0  0  0  0
   -0.3053   -0.1600    4.5075 H   0  0  0  0  0  0  0  0  0  0  0  0
  5  6  2  0  0  0  0
  5  7  1  0  0  0  0
  2  3  1  0  0  0  0
  2  4  1  0  0  0  0
  2  5  1  0  0  0  0
  1  2  1  0  0  0  0
 22 23  2  0  0  0  0
 22 24  1  0  0  0  0
 20 21  1  0  0  0  0
 18 19  1  0  0  0  0
 18 20  1  0  0  0  0
 16 17  1  0  0  0  0
 16 18  1  0  0  0  0
 15 16  2  0  0  0  0
 14 15  1  0  0  0  0
 14 20  2  0  0  0  0
 11 12  1  0  0  0  0
 11 13  1  0  0  0  0
 11 14  1  0  0  0  0
  9 10  1  0  0  0  0
  9 11  1  0  0  0  0
  9 22  1  0  0  0  0
  7  8  1  0  0  0  0
  7  9  1  0  0  0  0
 26 27  1  0  0  0  0
 26 28  1  0  0  0  0
 26 29  1  0  0  0  0
 24 25  1  0  0  0  0
 24 26  1  0  0  0  0
M  END
$$$$
default_name
  -OEChem-02102213163D

 29 29  0     1  0  0  0  0  0999 V2000
   -2.9561   -3.9186    1.3887 H   0  0  0  0  0  0  0  0  0  0  0  0
   -3.1191   -2.9346    0.9517 C   0  0  0  0  0  0  0  0  0  0  0  0
   -3.7811   -2.3546    1.5917 H   0  0  0  0  0  0  0  0  0  0  0  0
   -3.5591   -3.0406   -0.0383 H   0  0  0  0  0  0  0  0  0  0  0  0
   -1.7921   -2.2226    0.8327 C   0  0  0  0  0  0  0  0  0  0  0  0
   -0.7611   -2.7766    1.1927 O   0  0  0  0  0  0  0  0  0  0  0  0
   -1.8201   -0.9926    0.3247 N   0  0  0  0  0  0  0  0  0  0  0  0
   -2.7141   -0.5816    0.0927 H   0  0  0  0  0  0  0  0  0  0  0  0
   -0.6481   -0.1156    0.2017 C   0  0  1  0  0  0  0  0  0  0  0  0
    0.1042   -0.6345   -0.3958 H   0  0  0  0  0  0  0  0  0  0  0  0
   -1.0420    1.1781   -0.5372 C   0  0  0  0  0  0  0  0  0  0  0  0
   -0.4458    1.2809   -1.4451 H   0  0  0  0  0  0  0  0  0  0  0  0
   -2.0898    1.1278   -0.8365 H   0  0  0  0  0  0  0  0  0  0  0  0
   -0.8152    2.4192    0.2912 C   0  0  0  0  0  0  0  0  0  0  0  0
   -1.0778    3.7296   -0.1105 N   0  0  0  0  0  0  0  0  0  0  0  0
   -0.7793    4.5053    0.9418 C   0  0  0  0  0  0  0  0  0  0  0  0
   -0.8637    5.5847    0.9507 H   0  0  0  0  0  0  0  0  0  0  0  0
   -0.3723    3.7537    1.9785 N   0  0  0  0  0  0  0  0  0  0  0  0
   -0.1104    4.1043    2.8897 H   0  0  0  0  0  0  0  0  0  0  0  0
   -0.3922    2.4331    1.5882 C   0  0  0  0  0  0  0  0  0  0  0  0
   -0.1456    1.5636    2.1844 H   0  0  0  0  0  0  0  0  0  0  0  0
   -0.0283    0.1609    1.5831 C   0  0  0  0  0  0  0  0  0  0  0  0
    1.1923    0.1056    1.7329 O   0  0  0  0  0  0  0  0  0  0  0  0
   -0.8586    0.4659    2.5853 N   0  0  0  0  0  0  0  0  0  0  0  0
   -1.8521    0.3848    2.4000 H   0  0  0  0  0  0  0  0  0  0  0  0
   -0.4403    0.7694    3.9518 C   0  0  0  0  0  0  0  0  0  0  0  0
    0.5066    1.3154    3.9421 H   0  0  0  0  0  0  0  0  0  0  0  0
   -1.1988    1.3789    4.4452 H   0  0  0  0  0  0  0  0  0  0  0  0
   -0.3053   -0.1600    4.5075 H   0  0  0  0  0  0  0  0  0  0  0  0
  5  6  2  0  0  0  0
  5  7  1  0  0  0  0
  2  3  1  0  0  0  0
  2  4  1  0  0  0  0
  2  5  1  0  0  0  0
  1  2  1  0  0  0  0
 22 23  2  0  0  0  0
 22 24  1  0  0  0  0
 20 21  1  0  0  0  0
 18 19  1  0  0  0  0
 18 20  1  0  0  0  0
 16 17  1  0  0  0  0
 16 18  1  0  0  0  0
 15 16  2  0  0  0  0
 14 15  1  0  0  0  0
 14 20  2  0  0  0  0
 11 12  1  0  0  0  0
 11 13  1  0  0  0  0
 11 14  1  0  0  0  0
  9 10  1  0  0  0  0
  9 11  1  0  0  0  0
  9 22  1  0  0  0  0
  7  8  1  0  0  0  0
  7  9  1  0  0  0  0
 26 27  1  0  0  0  0
 26 28  1  0  0  0  0
 26 29  1  0  0  0  0
 24 25  1  0  0  0  0
 24 26  1  0  0  0  0
M  END
$$$$
default_name
  -OEChem-02102213163D

 29 29  0     1  0  0  0  0  0999 V2000
   -2.9561   -3.9186    1.3887 H   0  0  0  0  0  0  0  0  0  0  0  0
   -3.1191   -2.9346    0.9517 C   0  0  0  0  0  0  0  0  0  0  0  0
   -3.7811   -2.3546    1.5917 H   0  0  0  0  0  0  0  0  0  0  0  0
   -3.5591   -3.0406   -0.0383 H   0  0  0  0  0  0  0  0  0  0  0  0
   -1.7921   -2.2226    0.8327 C   0  0  0  0  0  0  0  0  0  0  0  0
   -0.7611   -2.7766    1.1927 O   0  0  0  0  0  0  0  0  0  0  0  0
   -1.8201   -0.9926    0.3247 N   0  0  0  0  0  0  0  0  0  0  0  0
   -2.7141   -0.5816    0.0927 H   0  0  0  0  0  0  0  0  0  0  0  0
   -0.6481   -0.1156    0.2017 C   0  0  1  0  0  0  0  0  0  0  0  0
    0.1042   -0.6345   -0.3958 H   0  0  0  0  0  0  0  0  0  0  0  0
   -1.0420    1.1781   -0.5372 C   0  0  0  0  0  0  0  0  0  0  0  0
   -0.4458    1.2809   -1.4451 H   0  0  0  0  0  0  0  0  0  0  0  0
   -2.0898    1.1278   -0.8365 H   0  0  0  0  0  0  0  0  0  0  0  0
   -0.8152    2.4192    0.2912 C   0  0  0  0  0  0  0  0  0  0  0  0
   -1.3363    3.6861    0.0253 N   0  0  0  0  0  0  0  0  0  0  0  0
   -0.9278    4.4723    1.0320 C   0  0  0  0  0  0  0  0  0  0  0  0
   -1.1562    5.5272    1.1170 H   0  0  0  0  0  0  0  0  0  0  0  0
   -0.2072    3.7641    1.9177 N   0  0  0  0  0  0  0  0  0  0  0  0
    0.1942    4.1277    2.7713 H   0  0  0  0  0  0  0  0  0  0  0  0
   -0.1285    2.4644    1.4692 C   0  0  0  0  0  0  0  0  0  0  0  0
    0.3582    1.6265    1.9523 H   0  0  0  0  0  0  0  0  0  0  0  0
   -0.0283    0.1609    1.5831 C   0  0  0  0  0  0  0  0  0  0  0  0
    1.1923    0.1056    1.7329 O   0  0  0  0  0  0  0  0  0  0  0  0
   -0.8586    0.4659    2.5853 N   0  0  0  0  0  0  0  0  0  0  0  0
   -1.8521    0.3848    2.4000 H   0  0  0  0  0  0  0  0  0  0  0  0
   -0.4403    0.7694    3.9518 C   0  0  0  0  0  0  0  0  0  0  0  0
    0.5066    1.3154    3.9421 H   0  0  0  0  0  0  0  0  0  0  0  0
   -1.1988    1.3789    4.4452 H   0  0  0  0  0  0  0  0  0  0  0  0
   -0.3053   -0.1600    4.5075 H   0  0  0  0  0  0  0  0  0  0  0  0
  5  6  2  0  0  0  0
  5  7  1  0  0  0  0
  2  3  1  0  0  0  0
  2  4  1  0  0  0  0
  2  5  1  0  0  0  0
  1  2  1  0  0  0  0
 22 23  2  0  0  0  0
 22 24  1  0  0  0  0
 20 21  1  0  0  0  0
 18 19  1  0  0  0  0
 18 20  1  0  0  0  0
 16 17  1  0  0  0  0
 16 18  1  0  0  0  0
 15 16  2  0  0  0  0
 14 15  1  0  0  0  0
 14 20  2  0  0  0  0
 11 12  1  0  0  0  0
 11 13  1  0  0  0  0
 11 14  1  0  0  0  0
  9 10  1  0  0  0  0
  9 11  1  0  0  0  0
  9 22  1  0  0  0  0
  7  8  1  0  0  0  0
  7  9  1  0  0  0  0
 26 27  1  0  0  0  0
 26 28  1  0  0  0  0
 26 29  1  0  0  0  0
 24 25  1  0  0  0  0
 24 26  1  0  0  0  0
M  END
$$$$
default_name
  -OEChem-02102213163D

 29 29  0     1  0  0  0  0  0999 V2000
   -2.9561   -3.9186    1.3887 H   0  0  0  0  0  0  0  0  0  0  0  0
   -3.1191   -2.9346    0.9517 C   0  0  0  0  0  0  0  0  0  0  0  0
   -3.7811   -2.3546    1.5917 H   0  0  0  0  0  0  0  0  0  0  0  0
   -3.5591   -3.0406   -0.0383 H   0  0  0  0  0  0  0  0  0  0  0  0
   -1.7921   -2.2226    0.8327 C   0  0  0  0  0  0  0  0  0  0  0  0
   -0.7611   -2.7766    1.1927 O   0  0  0  0  0  0  0  0  0  0  0  0
   -1.8201   -0.9926    0.3247 N   0  0  0  0  0  0  0  0  0  0  0  0
   -2.7141   -0.5816    0.0927 H   0  0  0  0  0  0  0  0  0  0  0  0
   -0.6481   -0.1156    0.2017 C   0  0  1  0  0  0  0  0  0  0  0  0
    0.1042   -0.6345   -0.3958 H   0  0  0  0  0  0  0  0  0  0  0  0
   -1.0420    1.1781   -0.5372 C   0  0  0  0  0  0  0  0  0  0  0  0
   -0.4458    1.2809   -1.4451 H   0  0  0  0  0  0  0  0  0  0  0  0
   -2.0898    1.1278   -0.8365 H   0  0  0  0  0  0  0  0  0  0  0  0
   -0.8152    2.4192    0.2912 C   0  0  0  0  0  0  0  0  0  0  0  0
   -1.5510    3.6022    0.2098 N   0  0  0  0  0  0  0  0  0  0  0  0
   -1.0473    4.4157    1.1494 C   0  0  0  0  0  0  0  0  0  0  0  0
   -1.3953    5.4236    1.3376 H   0  0  0  0  0  0  0  0  0  0  0  0
   -0.0621    3.8000    1.8243 N   0  0  0  0  0  0  0  0  0  0  0  0
    0.4598    4.1982    2.5929 H   0  0  0  0  0  0  0  0  0  0  0  0
    0.0964    2.5367    1.2994 C   0  0  0  0  0  0  0  0  0  0  0  0
    0.7866    1.7679    1.6233 H   0  0  0  0  0  0  0  0  0  0  0  0
   -0.0283    0.1609    1.5831 C   0  0  0  0  0  0  0  0  0  0  0  0
    1.1923    0.1056    1.7329 O   0  0  0  0  0  0  0  0  0  0  0  0
   -0.8586    0.4659    2.5853 N   0  0  0  0  0  0  0  0  0  0  0  0
   -1.8521    0.3848    2.4000 H   0  0  0  0  0  0  0  0  0  0  0  0
   -0.4403    0.7694    3.9518 C   0  0  0  0  0  0  0  0  0  0  0  0
    0.5066    1.3154    3.9421 H   0  0  0  0  0  0  0  0  0  0  0  0
   -1.1988    1.3789    4.4452 H   0  0  0  0  0  0  0  0  0  0  0  0
   -0.3053   -0.1600    4.5075 H   0  0  0  0  0  0  0  0  0  0  0  0
  5  6  2  0  0  0  0
  5  7  1  0  0  0  0
  2  3  1  0  0  0  0
  2  4  1  0  0  0  0
  2  5  1  0  0  0  0
  1  2  1  0  0  0  0
 22 23  2  0  0  0  0
 22 24  1  0  0  0  0
 20 21  1  0  0  0  0
 18 19  1  0  0  0  0
 18 20  1  0  0  0  0
 16 17  1  0  0  0  0
 16 18  1  0  0  0  0
 15 16  2  0  0  0  0
 14 15  1  0  0  0  0
 14 20  2  0  0  0  0
 11 12  1  0  0  0  0
 11 13  1  0  0  0  0
 11 14  1  0  0  0  0
  9 10  1  0  0  0  0
  9 11  1  0  0  0  0
  9 22  1  0  0  0  0
  7  8  1  0  0  0  0
  7  9  1  0  0  0  0
 26 27  1  0  0  0  0
 26 28  1  0  0  0  0
 26 29  1  0  0  0  0
 24 25  1  0  0  0  0
 24 26  1  0  0  0  0
M  END
$$$$
default_name
  -OEChem-02102213163D

 29 29  0     1  0  0  0  0  0999 V2000
   -2.9561   -3.9186    1.3887 H   0  0  0  0  0  0  0  0  0  0  0  0
   -3.1191   -2.9346    0.9517 C   0  0  0  0  0  0  0  0  0  0  0  0
   -3.7811   -2.3546    1.5917 H   0  0  0  0  0  0  0  0  0  0  0  0
   -3.5591   -3.0406   -0.0383 H   0  0  0  0  0  0  0  0  0  0  0  0
   -1.7921   -2.2226    0.8327 C   0  0  0  0  0  0  0  0  0  0  0  0
   -0.7611   -2.7766    1.1927 O   0  0  0  0  0  0  0  0  0  0  0  0
   -1.8201   -0.9926    0.3247 N   0  0  0  0  0  0  0  0  0  0  0  0
   -2.7141   -0.5816    0.0927 H   0  0  0  0  0  0  0  0  0  0  0  0
   -0.6481   -0.1156    0.2017 C   0  0  1  0  0  0  0  0  0  0  0  0
    0.1042   -0.6345   -0.3958 H   0  0  0  0  0  0  0  0  0  0  0  0
   -1.0420    1.1781   -0.5372 C   0  0  0  0  0  0  0  0  0  0  0  0
   -0.4458    1.2809   -1.4451 H   0  0  0  0  0  0  0  0  0  0  0  0
   -2.0898    1.1278   -0.8365 H   0  0  0  0  0  0  0  0  0  0  0  0
   -0.8152    2.4192    0.2912 C   0  0  0  0  0  0  0  0  0  0  0  0
   -1.7071    3.4834    0.4305 N   0  0  0  0  0  0  0  0  0  0  0  0
   -1.1298    4.3396    1.2860 C   0  0  0  0  0  0  0  0  0  0  0  0
   -1.5645    5.2810    1.5975 H   0  0  0  0  0  0  0  0  0  0  0  0
    0.0531    3.8589    1.7045 N   0  0  0  0  0  0  0  0  0  0  0  0
    0.6684    4.3110    2.3669 H   0  0  0  0  0  0  0  0  0  0  0  0
    0.2672    2.6450    1.0903 C   0  0  0  0  0  0  0  0  0  0  0  0
    1.1103    1.9781    1.2198 H   0  0  0  0  0  0  0  0  0  0  0  0
   -0.0283    0.1609    1.5831 C   0  0  0  0  0  0  0  0  0  0  0  0
    1.1923    0.1056    1.7329 O   0  0  0  0  0  0  0  0  0  0  0  0
   -0.8586    0.4659    2.5853 N   0  0  0  0  0  0  0  0  0  0  0  0
   -1.8521    0.3848    2.4000 H   0  0  0  0  0  0  0  0  0  0  0  0
   -0.4403    0.7694    3.9518 C   0  0  0  0  0  0  0  0  0  0  0  0
    0.5066    1.3154    3.9421 H   0  0  0  0  0  0  0  0  0  0  0  0
   -1.1988    1.3789    4.4452 H   0  0  0  0  0  0  0  0  0  0  0  0
   -0.3053   -0.1600    4.5075 H   0  0  0  0  0  0  0  0  0  0  0  0
  5  6  2  0  0  0  0
  5  7  1  0  0  0  0
  2  3  1  0  0  0  0
  2  4  1  0  0  0  0
  2  5  1  0  0  0  0
  1  2  1  0  0  0  0
 22 23  2  0  0  0  0
 22 24  1  0  0  0  0
 20 21  1  0  0  0  0
 18 19  1  0  0  0  0
 18 20  1  0  0  0  0
 16 17  1  0  0  0  0
 16 18  1  0  0  0  0
 15 16  2  0  0  0  0
 14 15  1  0  0  0  0
 14 20  2  0  0  0  0
 11 12  1  0  0  0  0
 11 13  1  0  0  0  0
 11 14  1  0  0  0  0
  9 10  1  0  0  0  0
  9 11  1  0  0  0  0
  9 22  1  0  0  0  0
  7  8  1  0  0  0  0
  7  9  1  0  0  0  0
 26 27  1  0  0  0  0
 26 28  1  0  0  0  0
 26 29  1  0  0  0  0
 24 25  1  0  0  0  0
 24 26  1  0  0  0  0
M  END
$$$$
default_name
  -OEChem-02102213163D

 29 29  0     1  0  0  0  0  0999 V2000
   -2.9561   -3.9186    1.3887 H   0  0  0  0  0  0  0  0  0  0  0  0
   -3.1191   -2.9346    0.9517 C   0  0  0  0  0  0  0  0  0  0  0  0
   -3.7811   -2.3546    1.5917 H   0  0  0  0  0  0  0  0  0  0  0  0
   -3.5591   -3.0406   -0.0383 H   0  0  0  0  0  0  0  0  0  0  0  0
   -1.7921   -2.2226    0.8327 C   0  0  0  0  0  0  0  0  0  0  0  0
   -0.7611   -2.7766    1.1927 O   0  0  0  0  0  0  0  0  0  0  0  0
   -1.8201   -0.9926    0.3247 N   0  0  0  0  0  0  0  0  0  0  0  0
   -2.7141   -0.5816    0.0927 H   0  0  0  0  0  0  0  0  0  0  0  0
   -0.6481   -0.1156    0.2017 C   0  0  1  0  0  0  0  0  0  0  0  0
    0.1042   -0.6345   -0.3958 H   0  0  0  0  0  0  0  0  0  0  0  0
   -1.0420    1.1781   -0.5372 C   0  0  0  0  0  0  0  0  0  0  0  0
   -0.4458    1.2809   -1.4451 H   0  0  0  0  0  0  0  0  0  0  0  0
   -2.0898    1.1278   -0.8365 H   0  0  0  0  0  0  0  0  0  0  0  0
   -0.8152    2.4192    0.2912 C   0  0  0  0  0  0  0  0  0  0  0  0
   -1.7941    3.3380    0.6722 N   0  0  0  0  0  0  0  0  0  0  0  0
   -1.1695    4.2490    1.4326 C   0  0  0  0  0  0  0  0  0  0  0  0
   -1.6524    5.1091    1.8790 H   0  0  0  0  0  0  0  0  0  0  0  0
    0.1304    3.9368    1.5667 N   0  0  0  0  0  0  0  0  0  0  0  0
    0.8058    4.4584    2.1086 H   0  0  0  0  0  0  0  0  0  0  0  0
    0.3724    2.7821    0.8562 C   0  0  0  0  0  0  0  0  0  0  0  0
    1.3072    2.2428    0.7694 H   0  0  0  0  0  0  0  0  0  0  0  0
   -0.0283    0.1609    1.5831 C   0  0  0  0  0  0  0  0  0  0  0  0
    1.1923    0.1056    1.7329 O   0  0  0  0  0  0  0  0  0  0  0  0
   -0.8586    0.4659    2.5853 N   0  0  0  0  0  0  0  0  0  0  0  0
   -1.8521    0.3848    2.4000 H   0  0  0  0  0  0  0  0  0  0  0  0
   -0.4403    0.7694    3.9518 C   0  0  0  0  0  0  0  0  0  0  0  0
    0.5066    1.3154    3.9421 H   0  0  0  0  0  0  0  0  0  0  0  0
   -1.1988    1.3789    4.4452 H   0  0  0  0  0  0  0  0  0  0  0  0
   -0.3053   -0.1600    4.5075 H   0  0  0  0  0  0  0  0  0  0  0  0
  5  6  2  0  0  0  0
  5  7  1  0  0  0  0
  2  3  1  0  0  0  0
  2  4  1  0  0  0  0
  2  5  1  0  0  0  0
  1  2  1  0  0  0  0
 22 23  2  0  0  0  0
 22 24  1  0  0  0  0
 20 21  1  0  0  0  0
 18 19  1  0  0  0  0
 18 20  1  0  0  0  0
 16 17  1  0  0  0  0
 16 18  1  0  0  0  0
 15 16  2  0  0  0  0
 14 15  1  0  0  0  0
 14 20  2  0  0  0  0
 11 12  1  0  0  0  0
 11 13  1  0  0  0  0
 11 14  1  0  0  0  0
  9 10  1  0  0  0  0
  9 11  1  0  0  0  0
  9 22  1  0  0  0  0
  7  8  1  0  0  0  0
  7  9  1  0  0  0  0
 26 27  1  0  0  0  0
 26 28  1  0  0  0  0
 26 29  1  0  0  0  0
 24 25  1  0  0  0  0
 24 26  1  0  0  0  0
M  END
$$$$
default_name
  -OEChem-02102213163D

 29 29  0     1  0  0  0  0  0999 V2000
   -2.9561   -3.9186    1.3887 H   0  0  0  0  0  0  0  0  0  0  0  0
   -3.1191   -2.9346    0.9517 C   0  0  0  0  0  0  0  0  0  0  0  0
   -3.7811   -2.3546    1.5917 H   0  0  0  0  0  0  0  0  0  0  0  0
   -3.5591   -3.0406   -0.0383 H   0  0  0  0  0  0  0  0  0  0  0  0
   -1.7921   -2.2226    0.8327 C   0  0  0  0  0  0  0  0  0  0  0  0
   -0.7611   -2.7766    1.1927 O   0  0  0  0  0  0  0  0  0  0  0  0
   -1.8201   -0.9926    0.3247 N   0  0  0  0  0  0  0  0  0  0  0  0
   -2.7141   -0.5816    0.0927 H   0  0  0  0  0  0  0  0  0  0  0  0
   -0.6481   -0.1156    0.2017 C   0  0  1  0  0  0  0  0  0  0  0  0
    0.1042   -0.6345   -0.3958 H   0  0  0  0  0  0  0  0  0  0  0  0
   -1.0420    1.1781   -0.5372 C   0  0  0  0  0  0  0  0  0  0  0  0
   -0.4458    1.2809   -1.4451 H   0  0  0  0  0  0  0  0  0  0  0  0
   -2.0898    1.1278   -0.8365 H   0  0  0  0  0  0  0  0  0  0  0  0
   -0.8152    2.4192    0.2912 C   0  0  0  0  0  0  0  0  0  0  0  0
   -1.8060    3.1757    0.9186 N   0  0  0  0  0  0  0  0  0  0  0  0
   -1.1638    4.1502    1.5791 C   0  0  0  0  0  0  0  0  0  0  0  0
   -1.6529    4.9197    2.1630 H   0  0  0  0  0  0  0  0  0  0  0  0
    0.1648    4.0284    1.4200 N   0  0  0  0  0  0  0  0  0  0  0  0
    0.8626    4.6303    1.8355 H   0  0  0  0  0  0  0  0  0  0  0  0
    0.4046    2.9385    0.6130 C   0  0  0  0  0  0  0  0  0  0  0  0
    1.3640    2.5439    0.3027 H   0  0  0  0  0  0  0  0  0  0  0  0
   -0.0283    0.1609    1.5831 C   0  0  0  0  0  0  0  0  0  0  0  0
    1.1923    0.1056    1.7329 O   0  0  0  0  0  0  0  0  0  0  0  0
   -0.8586    0.4659    2.5853 N   0  0  0  0  0  0  0  0  0  0  0  0
   -1.8521    0.3848    2.4000 H   0  0  0  0  0  0  0  0  0  0  0  0
   -0.4403    0.7694    3.9518 C   0  0  0  0  0  0  0  0  0  0  0  0
    0.5066    1.3154    3.9421 H   0  0  0  0  0  0  0  0  0  0  0  0
   -1.1988    1.3789    4.4452 H   0  0  0  0  0  0  0  0  0  0  0  0
   -0.3053   -0.1600    4.5075 H   0  0  0  0  0  0  0  0  0  0  0  0
  5  6  2  0  0  0  0
  5  7  1  0  0  0  0
  2  3  1  0  0  0  0
  2  4  1  0  0  0  0
  2  5  1  0  0  0  0
  1  2  1  0  0  0  0
 22 23  2  0  0  0  0
 22 24  1  0  0  0  0
 20 21  1  0  0  0  0
 18 19  1  0  0  0  0
 18 20  1  0  0  0  0
 16 17  1  0  0  0  0
 16 18  1  0  0  0  0
 15 16  2  0  0  0  0
 14 15  1  0  0  0  0
 14 20  2  0  0  0  0
 11 12  1  0  0  0  0
 11 13  1  0  0  0  0
 11 14  1  0  0  0  0
  9 10  1  0  0  0  0
  9 11  1  0  0  0  0
  9 22  1  0  0  0  0
  7  8  1  0  0  0  0
  7  9  1  0  0  0  0
 26 27  1  0  0  0  0
 26 28  1  0  0  0  0
 26 29  1  0  0  0  0
 24 25  1  0  0  0  0
 24 26  1  0  0  0  0
M  END
$$$$
default_name
  -OEChem-02102213163D

 29 29  0     1  0  0  0  0  0999 V2000
   -2.9561   -3.9186    1.3887 H   0  0  0  0  0  0  0  0  0  0  0  0
   -3.1191   -2.9346    0.9517 C   0  0  0  0  0  0  0  0  0  0  0  0
   -3.7811   -2.3546    1.5917 H   0  0  0  0  0  0  0  0  0  0  0  0
   -3.5591   -3.0406   -0.0383 H   0  0  0  0  0  0  0  0  0  0  0  0
   -1.7921   -2.2226    0.8327 C   0  0  0  0  0  0  0  0  0  0  0  0
   -0.7611   -2.7766    1.1927 O   0  0  0  0  0  0  0  0  0  0  0  0
   -1.8201   -0.9926    0.3247 N   0  0  0  0  0  0  0  0  0  0  0  0
   -2.7141   -0.5816    0.0927 H   0  0  0  0  0  0  0  0  0  0  0  0
   -0.6481   -0.1156    0.2017 C   0  0  1  0  0  0  0  0  0  0  0  0
    0.1042   -0.6345   -0.3958 H   0  0  0  0  0  0  0  0  0  0  0  0
   -1.0420    1.1781   -0.5372 C   0  0  0  0  0  0  0  0  0  0  0  0
   -0.4458    1.2809   -1.4451 H   0  0  0  0  0  0  0  0  0  0  0  0
   -2.0898    1.1278   -0.8365 H   0  0  0  0  0  0  0  0  0  0  0  0
   -0.8152    2.4192    0.2912 C   0  0  0  0  0  0  0  0  0  0  0  0
   -1.7420    3.0077    1.1527 N   0  0  0  0  0  0  0  0  0  0  0  0
   -1.1131    4.0498    1.7156 C   0  0  0  0  0  0  0  0  0  0  0  0
   -1.5661    4.7255    2.4301 H   0  0  0  0  0  0  0  0  0  0  0  0
    0.1537    4.1274    1.2747 N   0  0  0  0  0  0  0  0  0  0  0  0
    0.8349    4.8150    1.5664 H   0  0  0  0  0  0  0  0  0  0  0  0
    0.3618    3.1036    0.3774 C   0  0  0  0  0  0  0  0  0  0  0  0
    1.2767    2.8610   -0.1484 H   0  0  0  0  0  0  0  0  0  0  0  0
   -0.0283    0.1609    1.5831 C   0  0  0  0  0  0  0  0  0  0  0  0
    1.1923    0.1056    1.7329 O   0  0  0  0  0  0  0  0  0  0  0  0
   -0.8586    0.4659    2.5853 N   0  0  0  0  0  0  0  0  0  0  0  0
   -1.8521    0.3848    2.4000 H   0  0  0  0  0  0  0  0  0  0  0  0
   -0.4403    0.7694    3.9518 C   0  0  0  0  0  0  0  0  0  0  0  0
    0.5066    1.3154    3.9421 H   0  0  0  0  0  0  0  0  0  0  0  0
   -1.1988    1.3789    4.4452 H   0  0  0  0  0  0  0  0  0  0  0  0
   -0.3053   -0.1600    4.5075 H   0  0  0  0  0  0  0  0  0  0  0  0
  5  6  2  0  0  0  0
  5  7  1  0  0  0  0
  2  3  1  0  0  0  0
  2  4  1  0  0  0  0
  2  5  1  0  0  0  0
  1  2  1  0  0  0  0
 22 23  2  0  0  0  0
 22 24  1  0  0  0  0
 20 21  1  0  0  0  0
 18 19  1  0  0  0  0
 18 20  1  0  0  0  0
 16 17  1  0  0  0  0
 16 18  1  0  0  0  0
 15 16  2  0  0  0  0
 14 15  1  0  0  0  0
 14 20  2  0  0  0  0
 11 12  1  0  0  0  0
 11 13  1  0  0  0  0
 11 14  1  0  0  0  0
  9 10  1  0  0  0  0
  9 11  1  0  0  0  0
  9 22  1  0  0  0  0
  7  8  1  0  0  0  0
  7  9  1  0  0  0  0
 26 27  1  0  0  0  0
 26 28  1  0  0  0  0
 26 29  1  0  0  0  0
 24 25  1  0  0  0  0
 24 26  1  0  0  0  0
M  END
$$$$
default_name
  -OEChem-02102213163D

 29 29  0     1  0  0  0  0  0999 V2000
   -2.9561   -3.9186    1.3887 H   0  0  0  0  0  0  0  0  0  0  0  0
   -3.1191   -2.9346    0.9517 C   0  0  0  0  0  0  0  0  0  0  0  0
   -3.7811   -2.3546    1.5917 H   0  0  0  0  0  0  0  0  0  0  0  0
   -3.5591   -3.0406   -0.0383 H   0  0  0  0  0  0  0  0  0  0  0  0
   -1.7921   -2.2226    0.8327 C   0  0  0  0  0  0  0  0  0  0  0  0
   -0.7611   -2.7766    1.1927 O   0  0  0  0  0  0  0  0  0  0  0  0
   -1.8201   -0.9926    0.3247 N   0  0  0  0  0  0  0  0  0  0  0  0
   -2.7141   -0.5816    0.0927 H   0  0  0  0  0  0  0  0  0  0  0  0
   -0.6481   -0.1156    0.2017 C   0  0  1  0  0  0  0  0  0  0  0  0
    0.1042   -0.6345   -0.3958 H   0  0  0  0  0  0  0  0  0  0  0  0
   -1.0420    1.1781   -0.5372 C   0  0  0  0  0  0  0  0  0  0  0  0
   -0.4458    1.2809   -1.4451 H   0  0  0  0  0  0  0  0  0  0  0  0
   -2.0898    1.1278   -0.8365 H   0  0  0  0  0  0  0  0  0  0  0  0
   -0.8152    2.4192    0.2912 C   0  0  0  0  0  0  0  0  0  0  0  0
   -1.6065    2.8454    1.3588 N   0  0  0  0  0  0  0  0  0  0  0  0
   -1.0209    3.9547    1.8327 C   0  0  0  0  0  0  0  0  0  0  0  0
   -1.3979    4.5400    2.6620 H   0  0  0  0  0  0  0  0  0  0  0  0
    0.0980    4.2272    1.1405 N   0  0  0  0  0  0  0  0  0  0  0  0
    0.7246    4.9999    1.3195 H   0  0  0  0  0  0  0  0  0  0  0  0
    0.2468    3.2662    0.1653 C   0  0  0  0  0  0  0  0  0  0  0  0
    1.0513    3.1725   -0.5533 H   0  0  0  0  0  0  0  0  0  0  0  0
   -0.0283    0.1609    1.5831 C   0  0  0  0  0  0  0  0  0  0  0  0
    1.1923    0.1056    1.7329 O   0  0  0  0  0  0  0  0  0  0  0  0
   -0.8586    0.4659    2.5853 N   0  0  0  0  0  0  0  0  0  0  0  0
   -1.8521    0.3848    2.4000 H   0  0  0  0  0  0  0  0  0  0  0  0
   -0.4403    0.7694    3.9518 C   0  0  0  0  0  0  0  0  0  0  0  0
    0.5066    1.3154    3.9421 H   0  0  0  0  0  0  0  0  0  0  0  0
   -1.1988    1.3789    4.4452 H   0  0  0  0  0  0  0  0  0  0  0  0
   -0.3053   -0.1600    4.5075 H   0  0  0  0  0  0  0  0  0  0  0  0
  5  6  2  0  0  0  0
  5  7  1  0  0  0  0
  2  3  1  0  0  0  0
  2  4  1  0  0  0  0
  2  5  1  0  0  0  0
  1  2  1  0  0  0  0
 22 23  2  0  0  0  0
 22 24  1  0  0  0  0
 20 21  1  0  0  0  0
 18 19  1  0  0  0  0
 18 20  1  0  0  0  0
 16 17  1  0  0  0  0
 16 18  1  0  0  0  0
 15 16  2  0  0  0  0
 14 15  1  0  0  0  0
 14 20  2  0  0  0  0
 11 12  1  0  0  0  0
 11 13  1  0  0  0  0
 11 14  1  0  0  0  0
  9 10  1  0  0  0  0
  9 11  1  0  0  0  0
  9 22  1  0  0  0  0
  7  8  1  0  0  0  0
  7  9  1  0  0  0  0
 26 27  1  0  0  0  0
 26 28  1  0  0  0  0
 26 29  1  0  0  0  0
 24 25  1  0  0  0  0
 24 26  1  0  0  0  0
M  END
$$$$
default_name
  -OEChem-02102213163D

 29 29  0     1  0  0  0  0  0999 V2000
   -2.9561   -3.9186    1.3887 H   0  0  0  0  0  0  0  0  0  0  0  0
   -3.1191   -2.9346    0.9517 C   0  0  0  0  0  0  0  0  0  0  0  0
   -3.7811   -2.3546    1.5917 H   0  0  0  0  0  0  0  0  0  0  0  0
   -3.5591   -3.0406   -0.0383 H   0  0  0  0  0  0  0  0  0  0  0  0
   -1.7921   -2.2226    0.8327 C   0  0  0  0  0  0  0  0  0  0  0  0
   -0.7611   -2.7766    1.1927 O   0  0  0  0  0  0  0  0  0  0  0  0
   -1.8201   -0.9926    0.3247 N   0  0  0  0  0  0  0  0  0  0  0  0
   -2.7141   -0.5816    0.0927 H   0  0  0  0  0  0  0  0  0  0  0  0
   -0.6481   -0.1156    0.2017 C   0  0  1  0  0  0  0  0  0  0  0  0
    0.1042   -0.6345   -0.3958 H   0  0  0  0  0  0  0  0  0  0  0  0
   -1.0420    1.1781   -0.5372 C   0  0  0  0  0  0  0  0  0  0  0  0
   -0.4458    1.2809   -1.4451 H   0  0  0  0  0  0  0  0  0  0  0  0
   -2.0898    1.1278   -0.8365 H   0  0  0  0  0  0  0  0  0  0  0  0
   -0.8152    2.4192    0.2912 C   0  0  0  0  0  0  0  0  0  0  0  0
   -1.4087    2.6998    1.5227 N   0  0  0  0  0  0  0  0  0  0  0  0
   -0.8933    3.8715    1.9225 C   0  0  0  0  0  0  0  0  0  0  0  0
   -1.1596    4.3756    2.8430 H   0  0  0  0  0  0  0  0  0  0  0  0
    0.0015    4.3208    1.0266 N   0  0  0  0  0  0  0  0  0  0  0  0
    0.5393    5.1725    1.1117 H   0  0  0  0  0  0  0  0  0  0  0  0
    0.0675    3.4152   -0.0088 C   0  0  0  0  0  0  0  0  0  0  0  0
    0.7032    3.4571   -0.8843 H   0  0  0  0  0  0  0  0  0  0  0  0
   -0.0283    0.1609    1.5831 C   0  0  0  0  0  0  0  0  0  0  0  0
    1.1923    0.1056    1.7329 O   0  0  0  0  0  0  0  0  0  0  0  0
   -0.8586    0.4659    2.5853 N   0  0  0  0  0  0  0  0  0  0  0  0
   -1.8521    0.3848    2.4000 H   0  0  0  0  0  0  0  0  0  0  0  0
   -0.4403    0.7694    3.9518 C   0  0  0  0  0  0  0  0  0  0  0  0
    0.5066    1.3154    3.9421 H   0  0  0  0  0  0  0  0  0  0  0  0
   -1.1988    1.3789    4.4452 H   0  0  0  0  0  0  0  0  0  0  0  0
   -0.3053   -0.1600    4.5075 H   0  0  0  0  0  0  0  0  0  0  0  0
  5  6  2  0  0  0  0
  5  7  1  0  0  0  0
  2  3  1  0  0  0  0
  2  4  1  0  0  0  0
  2  5  1  0  0  0  0
  1  2  1  0  0  0  0
 22 23  2  0  0  0  0
 22 24  1  0  0  0  0
 20 21  1  0  0  0  0
 18 19  1  0  0  0  0
 18 20  1  0  0  0  0
 16 17  1  0  0  0  0
 16 18  1  0  0  0  0
 15 16  2  0  0  0  0
 14 15  1  0  0  0  0
 14 20  2  0  0  0  0
 11 12  1  0  0  0  0
 11 13  1  0  0  0  0
 11 14  1  0  0  0  0
  9 10  1  0  0  0  0
  9 11  1  0  0  0  0
  9 22  1  0  0  0  0
  7  8  1  0  0  0  0
  7  9  1  0  0  0  0
 26 27  1  0  0  0  0
 26 28  1  0  0  0  0
 26 29  1  0  0  0  0
 24 25  1  0  0  0  0
 24 26  1  0  0  0  0
M  END
$$$$
default_name
  -OEChem-02102213163D

 29 29  0     1  0  0  0  0  0999 V2000
   -2.9561   -3.9186    1.3887 H   0  0  0  0  0  0  0  0  0  0  0  0
   -3.1191   -2.9346    0.9517 C   0  0  0  0  0  0  0  0  0  0  0  0
   -3.7811   -2.3546    1.5917 H   0  0  0  0  0  0  0  0  0  0  0  0
   -3.5591   -3.0406   -0.0383 H   0  0  0  0  0  0  0  0  0  0  0  0
   -1.7921   -2.2226    0.8327 C   0  0  0  0  0  0  0  0  0  0  0  0
   -0.7611   -2.7766    1.1927 O   0  0  0  0  0  0  0  0  0  0  0  0
   -1.8201   -0.9926    0.3247 N   0  0  0  0  0  0  0  0  0  0  0  0
   -2.7141   -0.5816    0.0927 H   0  0  0  0  0  0  0  0  0  0  0  0
   -0.6481   -0.1156    0.2017 C   0  0  1  0  0  0  0  0  0  0  0  0
    0.1042   -0.6345   -0.3958 H   0  0  0  0  0  0  0  0  0  0  0  0
   -1.0420    1.1781   -0.5372 C   0  0  0  0  0  0  0  0  0  0  0  0
   -0.4458    1.2809   -1.4451 H   0  0  0  0  0  0  0  0  0  0  0  0
   -2.0898    1.1278   -0.8365 H   0  0  0  0  0  0  0  0  0  0  0  0
   -0.8152    2.4192    0.2912 C   0  0  0  0  0  0  0  0  0  0  0  0
   -1.1621    2.5810    1.6332 N   0  0  0  0  0  0  0  0  0  0  0  0
   -0.7391    3.8057    1.9789 C   0  0  0  0  0  0  0  0  0  0  0  0
   -0.8676    4.2437    2.9607 H   0  0  0  0  0  0  0  0  0  0  0  0
   -0.1293    4.4020    0.9407 N   0  0  0  0  0  0  0  0  0  0  0  0
    0.2915    5.3210    0.9571 H   0  0  0  0  0  0  0  0  0  0  0  0
   -0.1639    3.5404   -0.1330 C   0  0  0  0  0  0  0  0  0  0  0  0
    0.2560    3.6953   -1.1189 H   0  0  0  0  0  0  0  0  0  0  0  0
   -0.0283    0.1609    1.5831 C   0  0  0  0  0  0  0  0  0  0  0  0
    1.1923    0.1056    1.7329 O   0  0  0  0  0  0  0  0  0  0  0  0
   -0.8586    0.4659    2.5853 N   0  0  0  0  0  0  0  0  0  0  0  0
   -1.8521    0.3848    2.4000 H   0  0  0  0  0  0  0  0  0  0  0  0
   -0.4403    0.7694    3.9518 C   0  0  0  0  0  0  0  0  0  0  0  0
    0.5066    1.3154    3.9421 H   0  0  0  0  0  0  0  0  0  0  0  0
   -1.1988    1.3789    4.4452 H   0  0  0  0  0  0  0  0  0  0  0  0
   -0.3053   -0.1600    4.5075 H   0  0  0  0  0  0  0  0  0  0  0  0
  5  6  2  0  0  0  0
  5  7  1  0  0  0  0
  2  3  1  0  0  0  0
  2  4  1  0  0  0  0
  2  5  1  0  0  0  0
  1  2  1  0  0  0  0
 22 23  2  0  0  0  0
 22 24  1  0  0  0  0
 20 21  1  0  0  0  0
 18 19  1  0  0  0  0
 18 20  1  0  0  0  0
 16 17  1  0  0  0  0
 16 18  1  0  0  0  0
 15 16  2  0  0  0  0
 14 15  1  0  0  0  0
 14 20  2  0  0  0  0
 11 12  1  0  0  0  0
 11 13  1  0  0  0  0
 11 14  1  0  0  0  0
  9 10  1  0  0  0  0
  9 11  1  0  0  0  0
  9 22  1  0  0  0  0
  7  8  1  0  0  0  0
  7  9  1  0  0  0  0
 26 27  1  0  0  0  0
 26 28  1  0  0  0  0
 26 29  1  0  0  0  0
 24 25  1  0  0  0  0
 24 26  1  0  0  0  0
M  END
$$$$
default_name
  -OEChem-02102213163D

 29 29  0     1  0  0  0  0  0999 V2000
   -2.9561   -3.9186    1.3887 H   0  0  0  0  0  0  0  0  0  0  0  0
   -3.1191   -2.9346    0.9517 C   0  0  0  0  0  0  0  0  0  0  0  0
   -3.7811   -2.3546    1.5917 H   0  0  0  0  0  0  0  0  0  0  0  0
   -3.5591   -3.0406   -0.0383 H   0  0  0  0  0  0  0  0  0  0  0  0
   -1.7921   -2.2226    0.8327 C   0  0  0  0  0  0  0  0  0  0  0  0
   -0.7611   -2.7766    1.1927 O   0  0  0  0  0  0  0  0  0  0  0  0
   -1.8201   -0.9926    0.3247 N   0  0  0  0  0  0  0  0  0  0  0  0
   -2.7141   -0.5816    0.0927 H   0  0  0  0  0  0  0  0  0  0  0  0
   -0.6481   -0.1156    0.2017 C   0  0  1  0  0  0  0  0  0  0  0  0
    0.1042   -0.6345   -0.3958 H   0  0  0  0  0  0  0  0  0  0  0  0
   -1.0420    1.1781   -0.5372 C   0  0  0  0  0  0  0  0  0  0  0  0
   -0.4458    1.2809   -1.4451 H   0  0  0  0  0  0  0  0  0  0  0  0
   -2.0898    1.1278   -0.8365 H   0  0  0  0  0  0  0  0  0  0  0  0
   -0.8152    2.4192    0.2912 C   0  0  0  0  0  0  0  0  0  0  0  0
   -0.8834    2.4969    1.6829 N   0  0  0  0  0  0  0  0  0  0  0  0
   -0.5689    3.7619    1.9980 C   0  0  0  0  0  0  0  0  0  0  0  0
   -0.5417    4.1531    3.0071 H   0  0  0  0  0  0  0  0  0  0  0  0
   -0.2855    4.4652    0.8888 N   0  0  0  0  0  0  0  0  0  0  0  0
   -0.0018    5.4352    0.8662 H   0  0  0  0  0  0  0  0  0  0  0  0
   -0.4316    3.6333   -0.1989 C   0  0  0  0  0  0  0  0  0  0  0  0
   -0.2596    3.8711   -1.2411 H   0  0  0  0  0  0  0  0  0  0  0  0
   -0.0283    0.1609    1.5831 C   0  0  0  0  0  0  0  0  0  0  0  0
    1.1923    0.1056    1.7329 O   0  0  0  0  0  0  0  0  0  0  0  0
   -0.8586    0.4659    2.5853 N   0  0  0  0  0  0  0  0  0  0  0  0
   -1.8521    0.3848    2.4000 H   0  0  0  0  0  0  0  0  0  0  0  0
   -0.4403    0.7694    3.9518 C   0  0  0  0  0  0  0  0  0  0  0  0
    0.5066    1.3154    3.9421 H   0  0  0  0  0  0  0  0  0  0  0  0
   -1.1988    1.3789    4.4452 H   0  0  0  0  0  0  0  0  0  0  0  0
   -0.3053   -0.1600    4.5075 H   0  0  0  0  0  0  0  0  0  0  0  0
  5  6  2  0  0  0  0
  5  7  1  0  0  0  0
  2  3  1  0  0  0  0
  2  4  1  0  0  0  0
  2  5  1  0  0  0  0
  1  2  1  0  0  0  0
 22 23  2  0  0  0  0
 22 24  1  0  0  0  0
 20 21  1  0  0  0  0
 18 19  1  0  0  0  0
 18 20  1  0  0  0  0
 16 17  1  0  0  0  0
 16 18  1  0  0  0  0
 15 16  2  0  0  0  0
 14 15  1  0  0  0  0
 14 20  2  0  0  0  0
 11 12  1  0  0  0  0
 11 13  1  0  0  0  0
 11 14  1  0  0  0  0
  9 10  1  0  0  0  0
  9 11  1  0  0  0  0
  9 22  1  0  0  0  0
  7  8  1  0  0  0  0
  7  9  1  0  0  0  0
 26 27  1  0  0  0  0
 26 28  1  0  0  0  0
 26 29  1  0  0  0  0
 24 25  1  0  0  0  0
 24 26  1  0  0  0  0
M  END
$$$$
default_name
  -OEChem-02102213163D

 29 29  0     1  0  0  0  0  0999 V2000
   -2.9561   -3.9186    1.3887 H   0  0  0  0  0  0  0  0  0  0  0  0
   -3.1191   -2.9346    0.9517 C   0  0  0  0  0  0  0  0  0  0  0  0
   -3.7811   -2.3546    1.5917 H   0  0  0  0  0  0  0  0  0  0  0  0
   -3.5591   -3.0406   -0.0383 H   0  0  0  0  0  0  0  0  0  0  0  0
   -1.7921   -2.2226    0.8327 C   0  0  0  0  0  0  0  0  0  0  0  0
   -0.7611   -2.7766    1.1927 O   0  0  0  0  0  0  0  0  0  0  0  0
   -1.8201   -0.9926    0.3247 N   0  0  0  0  0  0  0  0  0  0  0  0
   -2.7141   -0.5816    0.0927 H   0  0  0  0  0  0  0  0  0  0  0  0
   -0.6481   -0.1156    0.2017 C   0  0  1  0  0  0  0  0  0  0  0  0
    0.1042   -0.6345   -0.3958 H   0  0  0  0  0  0  0  0  0  0  0  0
   -1.0420    1.1781   -0.5372 C   0  0  0  0  0  0  0  0  0  0  0  0
   -0.4458    1.2809   -1.4451 H   0  0  0  0  0  0  0  0  0  0  0  0
   -2.0898    1.1278   -0.8365 H   0  0  0  0  0  0  0  0  0  0  0  0
   -0.8152    2.4192    0.2912 C   0  0  0  0  0  0  0  0  0  0  0  0
   -0.5918    2.4534    1.6683 N   0  0  0  0  0  0  0  0  0  0  0  0
   -0.3942    3.7430    1.9785 C   0  0  0  0  0  0  0  0  0  0  0  0
   -0.2042    4.1102    2.9791 H   0  0  0  0  0  0  0  0  0  0  0  0
   -0.4563    4.5061    0.8744 N   0  0  0  0  0  0  0  0  0  0  0  0
   -0.3207    5.5074    0.8454 H   0  0  0  0  0  0  0  0  0  0  0  0
   -0.7174    3.6875   -0.2019 C   0  0  0  0  0  0  0  0  0  0  0  0
   -0.8087    3.9724   -1.2425 H   0  0  0  0  0  0  0  0  0  0  0  0
   -0.0283    0.1609    1.5831 C   0  0  0  0  0  0  0  0  0  0  0  0
    1.1923    0.1056    1.7329 O   0  0  0  0  0  0  0  0  0  0  0  0
   -0.8586    0.4659    2.5853 N   0  0  0  0  0  0  0  0  0  0  0  0
   -1.8521    0.3848    2.4000 H   0  0  0  0  0  0  0  0  0  0  0  0
   -0.4403    0.7694    3.9518 C   0  0  0  0  0  0  0  0  0  0  0  0
    0.5066    1.3154    3.9421 H   0  0  0  0  0  0  0  0  0  0  0  0
   -1.1988    1.3789    4.4452 H   0  0  0  0  0  0  0  0  0  0  0  0
   -0.3053   -0.1600    4.5075 H   0  0  0  0  0  0  0  0  0  0  0  0
  5  6  2  0  0  0  0
  5  7  1  0  0  0  0
  2  3  1  0  0  0  0
  2  4  1  0  0  0  0
  2  5  1  0  0  0  0
  1  2  1  0  0  0  0
 22 23  2  0  0  0  0
 22 24  1  0  0  0  0
 20 21  1  0  0  0  0
 18 19  1  0  0  0  0
 18 20  1  0  0  0  0
 16 17  1  0  0  0  0
 16 18  1  0  0  0  0
 15 16  2  0  0  0  0
 14 15  1  0  0  0  0
 14 20  2  0  0  0  0
 11 12  1  0  0  0  0
 11 13  1  0  0  0  0
 11 14  1  0  0  0  0
  9 10  1  0  0  0  0
  9 11  1  0  0  0  0
  9 22  1  0  0  0  0
  7  8  1  0  0  0  0
  7  9  1  0  0  0  0
 26 27  1  0  0  0  0
 26 28  1  0  0  0  0
 26 29  1  0  0  0  0
 24 25  1  0  0  0  0
 24 26  1  0  0  0  0
M  END
$$$$
default_name
  -OEChem-02102213163D

 29 29  0     1  0  0  0  0  0999 V2000
   -2.9561   -3.9186    1.3887 H   0  0  0  0  0  0  0  0  0  0  0  0
   -3.1191   -2.9346    0.9517 C   0  0  0  0  0  0  0  0  0  0  0  0
   -3.7811   -2.3546    1.5917 H   0  0  0  0  0  0  0  0  0  0  0  0
   -3.5591   -3.0406   -0.0383 H   0  0  0  0  0  0  0  0  0  0  0  0
   -1.7921   -2.2226    0.8327 C   0  0  0  0  0  0  0  0  0  0  0  0
   -0.7611   -2.7766    1.1927 O   0  0  0  0  0  0  0  0  0  0  0  0
   -1.8201   -0.9926    0.3247 N   0  0  0  0  0  0  0  0  0  0  0  0
   -2.7141   -0.5816    0.0927 H   0  0  0  0  0  0  0  0  0  0  0  0
   -0.6481   -0.1156    0.2017 C   0  0  1  0  0  0  0  0  0  0  0  0
    0.1042   -0.6345   -0.3958 H   0  0  0  0  0  0  0  0  0  0  0  0
   -1.0420    1.1781   -0.5372 C   0  0  0  0  0  0  0  0  0  0  0  0
   -0.4458    1.2809   -1.4451 H   0  0  0  0  0  0  0  0  0  0  0  0
   -2.0898    1.1278   -0.8365 H   0  0  0  0  0  0  0  0  0  0  0  0
   -0.8152    2.4192    0.2912 C   0  0  0  0  0  0  0  0  0  0  0  0
   -0.3070    2.4533    1.5904 N   0  0  0  0  0  0  0  0  0  0  0  0
   -0.2269    3.7503    1.9217 C   0  0  0  0  0  0  0  0  0  0  0  0
    0.1219    4.1177    2.8786 H   0  0  0  0  0  0  0  0  0  0  0  0
   -0.6302    4.5219    0.8983 N   0  0  0  0  0  0  0  0  0  0  0  0
   -0.6434    5.5326    0.8959 H   0  0  0  0  0  0  0  0  0  0  0  0
   -1.0019    3.6994   -0.1419 C   0  0  0  0  0  0  0  0  0  0  0  0
   -1.3537    3.9922   -1.1231 H   0  0  0  0  0  0  0  0  0  0  0  0
   -0.0283    0.1609    1.5831 C   0  0  0  0  0  0  0  0  0  0  0  0
    1.1923    0.1056    1.7329 O   0  0  0  0  0  0  0  0  0  0  0  0
   -0.8586    0.4659    2.5853 N   0  0  0  0  0  0  0  0  0  0  0  0
   -1.8521    0.3848    2.4000 H   0  0  0  0  0  0  0  0  0  0  0  0
   -0.4403    0.7694    3.9518 C   0  0  0  0  0  0  0  0  0  0  0  0
    0.5066    1.3154    3.9421 H   0  0  0  0  0  0  0  0  0  0  0  0
   -1.1988    1.3789    4.4452 H   0  0  0  0  0  0  0  0  0  0  0  0
   -0.3053   -0.1600    4.5075 H   0  0  0  0  0  0  0  0  0  0  0  0
  5  6  2  0  0  0  0
  5  7  1  0  0  0  0
  2  3  1  0  0  0  0
  2  4  1  0  0  0  0
  2  5  1  0  0  0  0
  1  2  1  0  0  0  0
 22 23  2  0  0  0  0
 22 24  1  0  0  0  0
 20 21  1  0  0  0  0
 18 19  1  0  0  0  0
 18 20  1  0  0  0  0
 16 17  1  0  0  0  0
 16 18  1  0  0  0  0
 15 16  2  0  0  0  0
 14 15  1  0  0  0  0
 14 20  2  0  0  0  0
 11 12  1  0  0  0  0
 11 13  1  0  0  0  0
 11 14  1  0  0  0  0
  9 10  1  0  0  0  0
  9 11  1  0  0  0  0
  9 22  1  0  0  0  0
  7  8  1  0  0  0  0
  7  9  1  0  0  0  0
 26 27  1  0  0  0  0
 26 28  1  0  0  0  0
 26 29  1  0  0  0  0
 24 25  1  0  0  0  0
 24 26  1  0  0  0  0
M  END
$$$$
default_name
  -OEChem-02102213163D

 29 29  0     1  0  0  0  0  0999 V2000
   -2.9561   -3.9186    1.3887 H   0  0  0  0  0  0  0  0  0  0  0  0
   -3.1191   -2.9346    0.9517 C   0  0  0  0  0  0  0  0  0  0  0  0
   -3.7811   -2.3546    1.5917 H   0  0  0  0  0  0  0  0  0  0  0  0
   -3.5591   -3.0406   -0.0383 H   0  0  0  0  0  0  0  0  0  0  0  0
   -1.7921   -2.2226    0.8327 C   0  0  0  0  0  0  0  0  0  0  0  0
   -0.7611   -2.7766    1.1927 O   0  0  0  0  0  0  0  0  0  0  0  0
   -1.8201   -0.9926    0.3247 N   0  0  0  0  0  0  0  0  0  0  0  0
   -2.7141   -0.5816    0.0927 H   0  0  0  0  0  0  0  0  0  0  0  0
   -0.6481   -0.1156    0.2017 C   0  0  1  0  0  0  0  0  0  0  0  0
    0.1042   -0.6345   -0.3958 H   0  0  0  0  0  0  0  0  0  0  0  0
   -1.0420    1.1781   -0.5372 C   0  0  0  0  0  0  0  0  0  0  0  0
   -0.4458    1.2809   -1.4451 H   0  0  0  0  0  0  0  0  0  0  0  0
   -2.0898    1.1278   -0.8365 H   0  0  0  0  0  0  0  0  0  0  0  0
   -0.8152    2.4192    0.2912 C   0  0  0  0  0  0  0  0  0  0  0  0
   -0.0485    2.4967    1.4546 N   0  0  0  0  0  0  0  0  0  0  0  0
   -0.0784    3.7833    1.8315 C   0  0  0  0  0  0  0  0  0  0  0  0
    0.4145    4.1752    2.7123 H   0  0  0  0  0  0  0  0  0  0  0  0
   -0.7953    4.5115    0.9591 N   0  0  0  0  0  0  0  0  0  0  0  0
   -0.9479    5.5092    1.0143 H   0  0  0  0  0  0  0  0  0  0  0  0
   -1.2655    3.6681   -0.0229 C   0  0  0  0  0  0  0  0  0  0  0  0
   -1.8576    3.9293   -0.8909 H   0  0  0  0  0  0  0  0  0  0  0  0
   -0.0283    0.1609    1.5831 C   0  0  0  0  0  0  0  0  0  0  0  0
    1.1923    0.1056    1.7329 O   0  0  0  0  0  0  0  0  0  0  0  0
   -0.8586    0.4659    2.5853 N   0  0  0  0  0  0  0  0  0  0  0  0
   -1.8521    0.3848    2.4000 H   0  0  0  0  0  0  0  0  0  0  0  0
   -0.4403    0.7694    3.9518 C   0  0  0  0  0  0  0  0  0  0  0  0
    0.5066    1.3154    3.9421 H   0  0  0  0  0  0  0  0  0  0  0  0
   -1.1988    1.3789    4.4452 H   0  0  0  0  0  0  0  0  0  0  0  0
   -0.3053   -0.1600    4.5075 H   0  0  0  0  0  0  0  0  0  0  0  0
  5  6  2  0  0  0  0
  5  7  1  0  0  0  0
  2  3  1  0  0  0  0
  2  4  1  0  0  0  0
  2  5  1  0  0  0  0
  1  2  1  0  0  0  0
 22 23  2  0  0  0  0
 22 24  1  0  0  0  0
 20 21  1  0  0  0  0
 18 19  1  0  0  0  0
 18 20  1  0  0  0  0
 16 17  1  0  0  0  0
 16 18  1  0  0  0  0
 15 16  2  0  0  0  0
 14 15  1  0  0  0  0
 14 20  2  0  0  0  0
 11 12  1  0  0  0  0
 11 13  1  0  0  0  0
 11 14  1  0  0  0  0
  9 10  1  0  0  0  0
  9 11  1  0  0  0  0
  9 22  1  0  0  0  0
  7  8  1  0  0  0  0
  7  9  1  0  0  0  0
 26 27  1  0  0  0  0
 26 28  1  0  0  0  0
 26 29  1  0  0  0  0
 24 25  1  0  0  0  0
 24 26  1  0  0  0  0
M  END
$$$$
default_name
  -OEChem-02102213163D

 29 29  0     1  0  0  0  0  0999 V2000
   -2.9561   -3.9186    1.3887 H   0  0  0  0  0  0  0  0  0  0  0  0
   -3.1191   -2.9346    0.9517 C   0  0  0  0  0  0  0  0  0  0  0  0
   -3.7811   -2.3546    1.5917 H   0  0  0  0  0  0  0  0  0  0  0  0
   -3.5591   -3.0406   -0.0383 H   0  0  0  0  0  0  0  0  0  0  0  0
   -1.7921   -2.2226    0.8327 C   0  0  0  0  0  0  0  0  0  0  0  0
   -0.7611   -2.7766    1.1927 O   0  0  0  0  0  0  0  0  0  0  0  0
   -1.8201   -0.9926    0.3247 N   0  0  0  0  0  0  0  0  0  0  0  0
   -2.7141   -0.5816    0.0927 H   0  0  0  0  0  0  0  0  0  0  0  0
   -0.6481   -0.1156    0.2017 C   0  0  1  0  0  0  0  0  0  0  0  0
    0.1042   -0.6345   -0.3958 H   0  0  0  0  0  0  0  0  0  0  0  0
   -1.0420    1.1781   -0.5372 C   0  0  0  0  0  0  0  0  0  0  0  0
   -0.4458    1.2809   -1.4451 H   0  0  0  0  0  0  0  0  0  0  0  0
   -2.0898    1.1278   -0.8365 H   0  0  0  0  0  0  0  0  0  0  0  0
   -0.8152    2.4192    0.2912 C   0  0  0  0  0  0  0  0  0  0  0  0
    0.1662    2.5807    1.2701 N   0  0  0  0  0  0  0  0  0  0  0  0
    0.0412    3.8399    1.7141 C   0  0  0  0  0  0  0  0  0  0  0  0
    0.6535    4.2788    2.4917 H   0  0  0  0  0  0  0  0  0  0  0  0
   -0.9404    4.4756    1.0526 N   0  0  0  0  0  0  0  0  0  0  0  0
   -1.2135    5.4387    1.1927 H   0  0  0  0  0  0  0  0  0  0  0  0
   -1.4904    3.5959    0.1469 C   0  0  0  0  0  0  0  0  0  0  0  0
   -2.2860    3.7880   -0.5619 H   0  0  0  0  0  0  0  0  0  0  0  0
   -0.0283    0.1609    1.5831 C   0  0  0  0  0  0  0  0  0  0  0  0
    1.1923    0.1056    1.7329 O   0  0  0  0  0  0  0  0  0  0  0  0
   -0.8586    0.4659    2.5853 N   0  0  0  0  0  0  0  0  0  0  0  0
   -1.8521    0.3848    2.4000 H   0  0  0  0  0  0  0  0  0  0  0  0
   -0.4403    0.7694    3.9518 C   0  0  0  0  0  0  0  0  0  0  0  0
    0.5066    1.3154    3.9421 H   0  0  0  0  0  0  0  0  0  0  0  0
   -1.1988    1.3789    4.4452 H   0  0  0  0  0  0  0  0  0  0  0  0
   -0.3053   -0.1600    4.5075 H   0  0  0  0  0  0  0  0  0  0  0  0
  5  6  2  0  0  0  0
  5  7  1  0  0  0  0
  2  3  1  0  0  0  0
  2  4  1  0  0  0  0
  2  5  1  0  0  0  0
  1  2  1  0  0  0  0
 22 23  2  0  0  0  0
 22 24  1  0  0  0  0
 20 21  1  0  0  0  0
 18 19  1  0  0  0  0
 18 20  1  0  0  0  0
 16 17  1  0  0  0  0
 16 18  1  0  0  0  0
 15 16  2  0  0  0  0
 14 15  1  0  0  0  0
 14 20  2  0  0  0  0
 11 12  1  0  0  0  0
 11 13  1  0  0  0  0
 11 14  1  0  0  0  0
  9 10  1  0  0  0  0
  9 11  1  0  0  0  0
  9 22  1  0  0  0  0
  7  8  1  0  0  0  0
  7  9  1  0  0  0  0
 26 27  1  0  0  0  0
 26 28  1  0  0  0  0
 26 29  1  0  0  0  0
 24 25  1  0  0  0  0
 24 26  1  0  0  0  0
M  END
$$$$
default_name
  -OEChem-02102213163D

 29 29  0     1  0  0  0  0  0999 V2000
   -2.9561   -3.9186    1.3887 H   0  0  0  0  0  0  0  0  0  0  0  0
   -3.1191   -2.9346    0.9517 C   0  0  0  0  0  0  0  0  0  0  0  0
   -3.7811   -2.3546    1.5917 H   0  0  0  0  0  0  0  0  0  0  0  0
   -3.5591   -3.0406   -0.0383 H   0  0  0  0  0  0  0  0  0  0  0  0
   -1.7921   -2.2226    0.8327 C   0  0  0  0  0  0  0  0  0  0  0  0
   -0.7611   -2.7766    1.1927 O   0  0  0  0  0  0  0  0  0  0  0  0
   -1.8201   -0.9926    0.3247 N   0  0  0  0  0  0  0  0  0  0  0  0
   -2.7141   -0.5816    0.0927 H   0  0  0  0  0  0  0  0  0  0  0  0
   -0.6481   -0.1156    0.2017 C   0  0  1  0  0  0  0  0  0  0  0  0
    0.1042   -0.6345   -0.3958 H   0  0  0  0  0  0  0  0  0  0  0  0
   -1.0420    1.1781   -0.5372 C   0  0  0  0  0  0  0  0  0  0  0  0
   -0.4458    1.2809   -1.4451 H   0  0  0  0  0  0  0  0  0  0  0  0
   -2.0898    1.1278   -0.8365 H   0  0  0  0  0  0  0  0  0  0  0  0
   -0.8152    2.4192    0.2912 C   0  0  0  0  0  0  0  0  0  0  0  0
    0.3223    2.6994    1.0495 N   0  0  0  0  0  0  0  0  0  0  0  0
    0.1236    3.9160    1.5775 C   0  0  0  0  0  0  0  0  0  0  0  0
    0.8227    4.4214    2.2318 H   0  0  0  0  0  0  0  0  0  0  0  0
   -1.0555    4.4167    1.1723 N   0  0  0  0  0  0  0  0  0  0  0  0
   -1.4221    5.3259    1.4187 H   0  0  0  0  0  0  0  0  0  0  0  0
   -1.6613    3.4875    0.3560 C   0  0  0  0  0  0  0  0  0  0  0  0
   -2.6097    3.5778   -0.1585 H   0  0  0  0  0  0  0  0  0  0  0  0
   -0.0283    0.1609    1.5831 C   0  0  0  0  0  0  0  0  0  0  0  0
    1.1923    0.1056    1.7329 O   0  0  0  0  0  0  0  0  0  0  0  0
   -0.8586    0.4659    2.5853 N   0  0  0  0  0  0  0  0  0  0  0  0
   -1.8521    0.3848    2.4000 H   0  0  0  0  0  0  0  0  0  0  0  0
   -0.4403    0.7694    3.9518 C   0  0  0  0  0  0  0  0  0  0  0  0
    0.5066    1.3154    3.9421 H   0  0  0  0  0  0  0  0  0  0  0  0
   -1.1988    1.3789    4.4452 H   0  0  0  0  0  0  0  0  0  0  0  0
   -0.3053   -0.1600    4.5075 H   0  0  0  0  0  0  0  0  0  0  0  0
  5  6  2  0  0  0  0
  5  7  1  0  0  0  0
  2  3  1  0  0  0  0
  2  4  1  0  0  0  0
  2  5  1  0  0  0  0
  1  2  1  0  0  0  0
 22 23  2  0  0  0  0
 22 24  1  0  0  0  0
 20 21  1  0  0  0  0
 18 19  1  0  0  0  0
 18 20  1  0  0  0  0
 16 17  1  0  0  0  0
 16 18  1  0  0  0  0
 15 16  2  0  0  0  0
 14 15  1  0  0  0  0
 14 20  2  0  0  0  0
 11 12  1  0  0  0  0
 11 13  1  0  0  0  0
 11 14  1  0  0  0  0
  9 10  1  0  0  0  0
  9 11  1  0  0  0  0
  9 22  1  0  0  0  0
  7  8  1  0  0  0  0
  7  9  1  0  0  0  0
 26 27  1  0  0  0  0
 26 28  1  0  0  0  0
 26 29  1  0  0  0  0
 24 25  1  0  0  0  0
 24 26  1  0  0  0  0
M  END
$$$$
default_name
  -OEChem-02102213163D

 29 29  0     1  0  0  0  0  0999 V2000
   -2.9561   -3.9186    1.3887 H   0  0  0  0  0  0  0  0  0  0  0  0
   -3.1191   -2.9346    0.9517 C   0  0  0  0  0  0  0  0  0  0  0  0
   -3.7811   -2.3546    1.5917 H   0  0  0  0  0  0  0  0  0  0  0  0
   -3.5591   -3.0406   -0.0383 H   0  0  0  0  0  0  0  0  0  0  0  0
   -1.7921   -2.2226    0.8327 C   0  0  0  0  0  0  0  0  0  0  0  0
   -0.7611   -2.7766    1.1927 O   0  0  0  0  0  0  0  0  0  0  0  0
   -1.8201   -0.9926    0.3247 N   0  0  0  0  0  0  0  0  0  0  0  0
   -2.7141   -0.5816    0.0927 H   0  0  0  0  0  0  0  0  0  0  0  0
   -0.6481   -0.1156    0.2017 C   0  0  1  0  0  0  0  0  0  0  0  0
    0.1042   -0.6345   -0.3958 H   0  0  0  0  0  0  0  0  0  0  0  0
   -1.0420    1.1781   -0.5372 C   0  0  0  0  0  0  0  0  0  0  0  0
   -0.4458    1.2809   -1.4451 H   0  0  0  0  0  0  0  0  0  0  0  0
   -2.0898    1.1278   -0.8365 H   0  0  0  0  0  0  0  0  0  0  0  0
   -0.8152    2.4192    0.2912 C   0  0  0  0  0  0  0  0  0  0  0  0
    0.4093    2.8449    0.8077 N   0  0  0  0  0  0  0  0  0  0  0  0
    0.1634    4.0066    1.4309 C   0  0  0  0  0  0  0  0  0  0  0  0
    0.9106    4.5933    1.9503 H   0  0  0  0  0  0  0  0  0  0  0  0
   -1.1329    4.3388    1.3102 N   0  0  0  0  0  0  0  0  0  0  0  0
   -1.5595    5.1786    1.6770 H   0  0  0  0  0  0  0  0  0  0  0  0
   -1.7664    3.3505    0.5901 C   0  0  0  0  0  0  0  0  0  0  0  0
   -2.8066    3.3131    0.2920 H   0  0  0  0  0  0  0  0  0  0  0  0
   -0.0283    0.1609    1.5831 C   0  0  0  0  0  0  0  0  0  0  0  0
    1.1923    0.1056    1.7329 O   0  0  0  0  0  0  0  0  0  0  0  0
   -0.8586    0.4659    2.5853 N   0  0  0  0  0  0  0  0  0  0  0  0
   -1.8521    0.3848    2.4000 H   0  0  0  0  0  0  0  0  0  0  0  0
   -0.4403    0.7694    3.9518 C   0  0  0  0  0  0  0  0  0  0  0  0
    0.5066    1.3154    3.9421 H   0  0  0  0  0  0  0  0  0  0  0  0
   -1.1988    1.3789    4.4452 H   0  0  0  0  0  0  0  0  0  0  0  0
   -0.3053   -0.1600    4.5075 H   0  0  0  0  0  0  0  0  0  0  0  0
  5  6  2  0  0  0  0
  5  7  1  0  0  0  0
  2  3  1  0  0  0  0
  2  4  1  0  0  0  0
  2  5  1  0  0  0  0
  1  2  1  0  0  0  0
 22 23  2  0  0  0  0
 22 24  1  0  0  0  0
 20 21  1  0  0  0  0
 18 19  1  0  0  0  0
 18 20  1  0  0  0  0
 16 17  1  0  0  0  0
 16 18  1  0  0  0  0
 15 16  2  0  0  0  0
 14 15  1  0  0  0  0
 14 20  2  0  0  0  0
 11 12  1  0  0  0  0
 11 13  1  0  0  0  0
 11 14  1  0  0  0  0
  9 10  1  0  0  0  0
  9 11  1  0  0  0  0
  9 22  1  0  0  0  0
  7  8  1  0  0  0  0
  7  9  1  0  0  0  0
 26 27  1  0  0  0  0
 26 28  1  0  0  0  0
 26 29  1  0  0  0  0
 24 25  1  0  0  0  0
 24 26  1  0  0  0  0
M  END
$$$$
default_name
  -OEChem-02102213163D

 29 29  0     1  0  0  0  0  0999 V2000
   -2.9561   -3.9186    1.3887 H   0  0  0  0  0  0  0  0  0  0  0  0
   -3.1191   -2.9346    0.9517 C   0  0  0  0  0  0  0  0  0  0  0  0
   -3.7811   -2.3546    1.5917 H   0  0  0  0  0  0  0  0  0  0  0  0
   -3.5591   -3.0406   -0.0383 H   0  0  0  0  0  0  0  0  0  0  0  0
   -1.7921   -2.2226    0.8327 C   0  0  0  0  0  0  0  0  0  0  0  0
   -0.7611   -2.7766    1.1927 O   0  0  0  0  0  0  0  0  0  0  0  0
   -1.8201   -0.9926    0.3247 N   0  0  0  0  0  0  0  0  0  0  0  0
   -2.7141   -0.5816    0.0927 H   0  0  0  0  0  0  0  0  0  0  0  0
   -0.6481   -0.1156    0.2017 C   0  0  1  0  0  0  0  0  0  0  0  0
    0.1042   -0.6345   -0.3958 H   0  0  0  0  0  0  0  0  0  0  0  0
   -1.0420    1.1781   -0.5372 C   0  0  0  0  0  0  0  0  0  0  0  0
   -0.4458    1.2809   -1.4451 H   0  0  0  0  0  0  0  0  0  0  0  0
   -2.0898    1.1278   -0.8365 H   0  0  0  0  0  0  0  0  0  0  0  0
   -0.8152    2.4192    0.2912 C   0  0  0  0  0  0  0  0  0  0  0  0
    0.4212    3.0072    0.5614 N   0  0  0  0  0  0  0  0  0  0  0  0
    0.1577    4.1054    1.2844 C   0  0  0  0  0  0  0  0  0  0  0  0
    0.9112    4.7827    1.6663 H   0  0  0  0  0  0  0  0  0  0  0  0
   -1.1672    4.2472    1.4568 N   0  0  0  0  0  0  0  0  0  0  0  0
   -1.6163    5.0067    1.9501 H   0  0  0  0  0  0  0  0  0  0  0  0
   -1.7986    3.1940    0.8333 C   0  0  0  0  0  0  0  0  0  0  0  0
   -2.8634    3.0120    0.7587 H   0  0  0  0  0  0  0  0  0  0  0  0
   -0.0283    0.1609    1.5831 C   0  0  0  0  0  0  0  0  0  0  0  0
    1.1923    0.1056    1.7329 O   0  0  0  0  0  0  0  0  0  0  0  0
   -0.8586    0.4659    2.5853 N   0  0  0  0  0  0  0  0  0  0  0  0
   -1.8521    0.3848    2.4000 H   0  0  0  0  0  0  0  0  0  0  0  0
   -0.4403    0.7694    3.9518 C   0  0  0  0  0  0  0  0  0  0  0  0
    0.5066    1.3154    3.9421 H   0  0  0  0  0  0  0  0  0  0  0  0
   -1.1988    1.3789    4.4452 H   0  0  0  0  0  0  0  0  0  0  0  0
   -0.3053   -0.1600    4.5075 H   0  0  0  0  0  0  0  0  0  0  0  0
  5  6  2  0  0  0  0
  5  7  1  0  0  0  0
  2  3  1  0  0  0  0
  2  4  1  0  0  0  0
  2  5  1  0  0  0  0
  1  2  1  0  0  0  0
 22 23  2  0  0  0  0
 22 24  1  0  0  0  0
 20 21  1  0  0  0  0
 18 19  1  0  0  0  0
 18 20  1  0  0  0  0
 16 17  1  0  0  0  0
 16 18  1  0  0  0  0
 15 16  2  0  0  0  0
 14 15  1  0  0  0  0
 14 20  2  0  0  0  0
 11 12  1  0  0  0  0
 11 13  1  0  0  0  0
 11 14  1  0  0  0  0
  9 10  1  0  0  0  0
  9 11  1  0  0  0  0
  9 22  1  0  0  0  0
  7  8  1  0  0  0  0
  7  9  1  0  0  0  0
 26 27  1  0  0  0  0
 26 28  1  0  0  0  0
 26 29  1  0  0  0  0
 24 25  1  0  0  0  0
 24 26  1  0  0  0  0
M  END
$$$$
default_name
  -OEChem-02102213163D

 29 29  0     1  0  0  0  0  0999 V2000
   -2.9561   -3.9186    1.3887 H   0  0  0  0  0  0  0  0  0  0  0  0
   -3.1191   -2.9346    0.9517 C   0  0  0  0  0  0  0  0  0  0  0  0
   -3.7811   -2.3546    1.5917 H   0  0  0  0  0  0  0  0  0  0  0  0
   -3.5591   -3.0406   -0.0383 H   0  0  0  0  0  0  0  0  0  0  0  0
   -1.7921   -2.2226    0.8327 C   0  0  0  0  0  0  0  0  0  0  0  0
   -0.7611   -2.7766    1.1927 O   0  0  0  0  0  0  0  0  0  0  0  0
   -1.8201   -0.9926    0.3247 N   0  0  0  0  0  0  0  0  0  0  0  0
   -2.7141   -0.5816    0.0927 H   0  0  0  0  0  0  0  0  0  0  0  0
   -0.6481   -0.1156    0.2017 C   0  0  1  0  0  0  0  0  0  0  0  0
    0.1042   -0.6345   -0.3958 H   0  0  0  0  0  0  0  0  0  0  0  0
   -1.0420    1.1781   -0.5372 C   0  0  0  0  0  0  0  0  0  0  0  0
   -0.4458    1.2809   -1.4451 H   0  0  0  0  0  0  0  0  0  0  0  0
   -2.0898    1.1278   -0.8365 H   0  0  0  0  0  0  0  0  0  0  0  0
   -0.8152    2.4192    0.2912 C   0  0  0  0  0  0  0  0  0  0  0  0
    0.3572    3.1752    0.3272 N   0  0  0  0  0  0  0  0  0  0  0  0
    0.1070    4.2058    1.1479 C   0  0  0  0  0  0  0  0  0  0  0  0
    0.8244    4.9769    1.3992 H   0  0  0  0  0  0  0  0  0  0  0  0
   -1.1562    4.1481    1.6022 N   0  0  0  0  0  0  0  0  0  0  0  0
   -1.5886    4.8220    2.2192 H   0  0  0  0  0  0  0  0  0  0  0  0
   -1.7558    3.0289    1.0689 C   0  0  0  0  0  0  0  0  0  0  0  0
   -2.7761    2.6948    1.2098 H   0  0  0  0  0  0  0  0  0  0  0  0
   -0.0283    0.1609    1.5831 C   0  0  0  0  0  0  0  0  0  0  0  0
    1.1923    0.1056    1.7329 O   0  0  0  0  0  0  0  0  0  0  0  0
   -0.8586    0.4659    2.5853 N   0  0  0  0  0  0  0  0  0  0  0  0
   -1.8521    0.3848    2.4000 H   0  0  0  0  0  0  0  0  0  0  0  0
   -0.4403    0.7694    3.9518 C   0  0  0  0  0  0  0  0  0  0  0  0
    0.5066    1.3154    3.9421 H   0  0  0  0  0  0  0  0  0  0  0  0
   -1.1988    1.3789    4.4452 H   0  0  0  0  0  0  0  0  0  0  0  0
   -0.3053   -0.1600    4.5075 H   0  0  0  0  0  0  0  0  0  0  0  0
  5  6  2  0  0  0  0
  5  7  1  0  0  0  0
  2  3  1  0  0  0  0
  2  4  1  0  0  0  0
  2  5  1  0  0  0  0
  1  2  1  0  0  0  0
 22 23  2  0  0  0  0
 22 24  1  0  0  0  0
 20 21  1  0  0  0  0
 18 19  1  0  0  0  0
 18 20  1  0  0  0  0
 16 17  1  0  0  0  0
 16 18  1  0  0  0  0
 15 16  2  0  0  0  0
 14 15  1  0  0  0  0
 14 20  2  0  0  0  0
 11 12  1  0  0  0  0
 11 13  1  0  0  0  0
 11 14  1  0  0  0  0
  9 10  1  0  0  0  0
  9 11  1  0  0  0  0
  9 22  1  0  0  0  0
  7  8  1  0  0  0  0
  7  9  1  0  0  0  0
 26 27  1  0  0  0  0
 26 28  1  0  0  0  0
 26 29  1  0  0  0  0
 24 25  1  0  0  0  0
 24 26  1  0  0  0  0
M  END
$$$$
default_name
  -OEChem-02102213163D

 29 29  0     1  0  0  0  0  0999 V2000
   -2.9561   -3.9186    1.3887 H   0  0  0  0  0  0  0  0  0  0  0  0
   -3.1191   -2.9346    0.9517 C   0  0  0  0  0  0  0  0  0  0  0  0
   -3.7811   -2.3546    1.5917 H   0  0  0  0  0  0  0  0  0  0  0  0
   -3.5591   -3.0406   -0.0383 H   0  0  0  0  0  0  0  0  0  0  0  0
   -1.7921   -2.2226    0.8327 C   0  0  0  0  0  0  0  0  0  0  0  0
   -0.7611   -2.7766    1.1927 O   0  0  0  0  0  0  0  0  0  0  0  0
   -1.8201   -0.9926    0.3247 N   0  0  0  0  0  0  0  0  0  0  0  0
   -2.7141   -0.5816    0.0927 H   0  0  0  0  0  0  0  0  0  0  0  0
   -0.6481   -0.1156    0.2017 C   0  0  1  0  0  0  0  0  0  0  0  0
    0.1042   -0.6345   -0.3958 H   0  0  0  0  0  0  0  0  0  0  0  0
   -1.0420    1.1781   -0.5372 C   0  0  0  0  0  0  0  0  0  0  0  0
   -0.4458    1.2809   -1.4451 H   0  0  0  0  0  0  0  0  0  0  0  0
   -2.0898    1.1278   -0.8365 H   0  0  0  0  0  0  0  0  0  0  0  0
   -0.8152    2.4192    0.2912 C   0  0  0  0  0  0  0  0  0  0  0  0
    0.2217    3.3375    0.1211 N   0  0  0  0  0  0  0  0  0  0  0  0
    0.0147    4.3008    1.0308 C   0  0  0  0  0  0  0  0  0  0  0  0
    0.6561    5.1624    1.1673 H   0  0  0  0  0  0  0  0  0  0  0  0
   -1.1005    4.0484    1.7364 N   0  0  0  0  0  0  0  0  0  0  0  0
   -1.4783    4.6370    2.4661 H   0  0  0  0  0  0  0  0  0  0  0  0
   -1.6408    2.8663    1.2810 C   0  0  0  0  0  0  0  0  0  0  0  0
   -2.5507    2.3834    1.6147 H   0  0  0  0  0  0  0  0  0  0  0  0
   -0.0283    0.1609    1.5831 C   0  0  0  0  0  0  0  0  0  0  0  0
    1.1923    0.1056    1.7329 O   0  0  0  0  0  0  0  0  0  0  0  0
   -0.8586    0.4659    2.5853 N   0  0  0  0  0  0  0  0  0  0  0  0
   -1.8521    0.3848    2.4000 H   0  0  0  0  0  0  0  0  0  0  0  0
   -0.4403    0.7694    3.9518 C   0  0  0  0  0  0  0  0  0  0  0  0
    0.5066    1.3154    3.9421 H   0  0  0  0  0  0  0  0  0  0  0  0
   -1.1988    1.3789    4.4452 H   0  0  0  0  0  0  0  0  0  0  0  0
   -0.3053   -0.1600    4.5075 H   0  0  0  0  0  0  0  0  0  0  0  0
  5  6  2  0  0  0  0
  5  7  1  0  0  0  0
  2  3  1  0  0  0  0
  2  4  1  0  0  0  0
  2  5  1  0  0  0  0
  1  2  1  0  0  0  0
 22 23  2  0  0  0  0
 22 24  1  0  0  0  0
 20 21  1  0  0  0  0
 18 19  1  0  0  0  0
 18 20  1  0  0  0  0
 16 17  1  0  0  0  0
 16 18  1  0  0  0  0
 15 16  2  0  0  0  0
 14 15  1  0  0  0  0
 14 20  2  0  0  0  0
 11 12  1  0  0  0  0
 11 13  1  0  0  0  0
 11 14  1  0  0  0  0
  9 10  1  0  0  0  0
  9 11  1  0  0  0  0
  9 22  1  0  0  0  0
  7  8  1  0  0  0  0
  7  9  1  0  0  0  0
 26 27  1  0  0  0  0
 26 28  1  0  0  0  0
 26 29  1  0  0  0  0
 24 25  1  0  0  0  0
 24 26  1  0  0  0  0
M  END
$$$$
default_name
  -OEChem-02102213163D

 29 29  0     1  0  0  0  0  0999 V2000
   -2.9561   -3.9186    1.3887 H   0  0  0  0  0  0  0  0  0  0  0  0
   -3.1191   -2.9346    0.9517 C   0  0  0  0  0  0  0  0  0  0  0  0
   -3.7811   -2.3546    1.5917 H   0  0  0  0  0  0  0  0  0  0  0  0
   -3.5591   -3.0406   -0.0383 H   0  0  0  0  0  0  0  0  0  0  0  0
   -1.7921   -2.2226    0.8327 C   0  0  0  0  0  0  0  0  0  0  0  0
   -0.7611   -2.7766    1.1927 O   0  0  0  0  0  0  0  0  0  0  0  0
   -1.8201   -0.9926    0.3247 N   0  0  0  0  0  0  0  0  0  0  0  0
   -2.7141   -0.5816    0.0927 H   0  0  0  0  0  0  0  0  0  0  0  0
   -0.6481   -0.1156    0.2017 C   0  0  1  0  0  0  0  0  0  0  0  0
    0.1042   -0.6345   -0.3958 H   0  0  0  0  0  0  0  0  0  0  0  0
   -1.0420    1.1781   -0.5372 C   0  0  0  0  0  0  0  0  0  0  0  0
   -0.4458    1.2809   -1.4451 H   0  0  0  0  0  0  0  0  0  0  0  0
   -2.0898    1.1278   -0.8365 H   0  0  0  0  0  0  0  0  0  0  0  0
   -0.8152    2.4192    0.2912 C   0  0  0  0  0  0  0  0  0  0  0  0
    0.0239    3.4831   -0.0428 N   0  0  0  0  0  0  0  0  0  0  0  0
   -0.1128    4.3841    0.9410 C   0  0  0  0  0  0  0  0  0  0  0  0
    0.4178    5.3268    0.9863 H   0  0  0  0  0  0  0  0  0  0  0  0
   -1.0039    3.9547    1.8503 N   0  0  0  0  0  0  0  0  0  0  0  0
   -1.2930    4.4644    2.6740 H   0  0  0  0  0  0  0  0  0  0  0  0
   -1.4615    2.7174    1.4551 C   0  0  0  0  0  0  0  0  0  0  0  0
   -2.2026    2.0988    1.9457 H   0  0  0  0  0  0  0  0  0  0  0  0
   -0.0283    0.1609    1.5831 C   0  0  0  0  0  0  0  0  0  0  0  0
    1.1923    0.1056    1.7329 O   0  0  0  0  0  0  0  0  0  0  0  0
   -0.8586    0.4659    2.5853 N   0  0  0  0  0  0  0  0  0  0  0  0
   -1.8521    0.3848    2.4000 H   0  0  0  0  0  0  0  0  0  0  0  0
   -0.4403    0.7694    3.9518 C   0  0  0  0  0  0  0  0  0  0  0  0
    0.5066    1.3154    3.9421 H   0  0  0  0  0  0  0  0  0  0  0  0
   -1.1988    1.3789    4.4452 H   0  0  0  0  0  0  0  0  0  0  0  0
   -0.3053   -0.1600    4.5075 H   0  0  0  0  0  0  0  0  0  0  0  0
  5  6  2  0  0  0  0
  5  7  1  0  0  0  0
  2  3  1  0  0  0  0
  2  4  1  0  0  0  0
  2  5  1  0  0  0  0
  1  2  1  0  0  0  0
 22 23  2  0  0  0  0
 22 24  1  0  0  0  0
 20 21  1  0  0  0  0
 18 19  1  0  0  0  0
 18 20  1  0  0  0  0
 16 17  1  0  0  0  0
 16 18  1  0  0  0  0
 15 16  2  0  0  0  0
 14 15  1  0  0  0  0
 14 20  2  0  0  0  0
 11 12  1  0  0  0  0
 11 13  1  0  0  0  0
 11 14  1  0  0  0  0
  9 10  1  0  0  0  0
  9 11  1  0  0  0  0
  9 22  1  0  0  0  0
  7  8  1  0  0  0  0
  7  9  1  0  0  0  0
 26 27  1  0  0  0  0
 26 28  1  0  0  0  0
 26 29  1  0  0  0  0
 24 25  1  0  0  0  0
 24 26  1  0  0  0  0
M  END
$$$$
default_name
  -OEChem-02102213163D

 29 29  0     1  0  0  0  0  0999 V2000
   -2.9561   -3.9186    1.3887 H   0  0  0  0  0  0  0  0  0  0  0  0
   -3.1191   -2.9346    0.9517 C   0  0  0  0  0  0  0  0  0  0  0  0
   -3.7811   -2.3546    1.5917 H   0  0  0  0  0  0  0  0  0  0  0  0
   -3.5591   -3.0406   -0.0383 H   0  0  0  0  0  0  0  0  0  0  0  0
   -1.7921   -2.2226    0.8327 C   0  0  0  0  0  0  0  0  0  0  0  0
   -0.7611   -2.7766    1.1927 O   0  0  0  0  0  0  0  0  0  0  0  0
   -1.8201   -0.9926    0.3247 N   0  0  0  0  0  0  0  0  0  0  0  0
   -2.7141   -0.5816    0.0927 H   0  0  0  0  0  0  0  0  0  0  0  0
   -0.6481   -0.1156    0.2017 C   0  0  1  0  0  0  0  0  0  0  0  0
    0.1042   -0.6345   -0.3958 H   0  0  0  0  0  0  0  0  0  0  0  0
   -1.0420    1.1781   -0.5372 C   0  0  0  0  0  0  0  0  0  0  0  0
   -0.4458    1.2809   -1.4451 H   0  0  0  0  0  0  0  0  0  0  0  0
   -2.0898    1.1278   -0.8365 H   0  0  0  0  0  0  0  0  0  0  0  0
   -0.8152    2.4192    0.2912 C   0  0  0  0  0  0  0  0  0  0  0  0
   -0.2228    3.6019   -0.1533 N   0  0  0  0  0  0  0  0  0  0  0  0
   -0.2670    4.4499    0.8846 C   0  0  0  0  0  0  0  0  0  0  0  0
    0.1258    5.4587    0.8686 H   0  0  0  0  0  0  0  0  0  0  0  0
   -0.8732    3.8735    1.9361 N   0  0  0  0  0  0  0  0  0  0  0  0
   -1.0452    4.3160    2.8286 H   0  0  0  0  0  0  0  0  0  0  0  0
   -1.2301    2.5922    1.5793 C   0  0  0  0  0  0  0  0  0  0  0  0
   -1.7554    1.8605    2.1803 H   0  0  0  0  0  0  0  0  0  0  0  0
   -0.0283    0.1609    1.5831 C   0  0  0  0  0  0  0  0  0  0  0  0
    1.1923    0.1056    1.7329 O   0  0  0  0  0  0  0  0  0  0  0  0
   -0.8586    0.4659    2.5853 N   0  0  0  0  0  0  0  0  0  0  0  0
   -1.8521    0.3848    2.4000 H   0  0  0  0  0  0  0  0  0  0  0  0
   -0.4403    0.7694    3.9518 C   0  0  0  0  0  0  0  0  0  0  0  0
    0.5066    1.3154    3.9421 H   0  0  0  0  0  0  0  0  0  0  0  0
   -1.1988    1.3789    4.4452 H   0  0  0  0  0  0  0  0  0  0  0  0
   -0.3053   -0.1600    4.5075 H   0  0  0  0  0  0  0  0  0  0  0  0
  5  6  2  0  0  0  0
  5  7  1  0  0  0  0
  2  3  1  0  0  0  0
  2  4  1  0  0  0  0
  2  5  1  0  0  0  0
  1  2  1  0  0  0  0
 22 23  2  0  0  0  0
 22 24  1  0  0  0  0
 20 21  1  0  0  0  0
 18 19  1  0  0  0  0
 18 20  1  0  0  0  0
 16 17  1  0  0  0  0
 16 18  1  0  0  0  0
 15 16  2  0  0  0  0
 14 15  1  0  0  0  0
 14 20  2  0  0  0  0
 11 12  1  0  0  0  0
 11 13  1  0  0  0  0
 11 14  1  0  0  0  0
  9 10  1  0  0  0  0
  9 11  1  0  0  0  0
  9 22  1  0  0  0  0
  7  8  1  0  0  0  0
  7  9  1  0  0  0  0
 26 27  1  0  0  0  0
 26 28  1  0  0  0  0
 26 29  1  0  0  0  0
 24 25  1  0  0  0  0
 24 26  1  0  0  0  0
M  END
$$$$
default_name
  -OEChem-02102213163D

 29 29  0     1  0  0  0  0  0999 V2000
   -2.9561   -3.9186    1.3887 H   0  0  0  0  0  0  0  0  0  0  0  0
   -3.1191   -2.9346    0.9517 C   0  0  0  0  0  0  0  0  0  0  0  0
   -3.7811   -2.3546    1.5917 H   0  0  0  0  0  0  0  0  0  0  0  0
   -3.5591   -3.0406   -0.0383 H   0  0  0  0  0  0  0  0  0  0  0  0
   -1.7921   -2.2226    0.8327 C   0  0  0  0  0  0  0  0  0  0  0  0
   -0.7611   -2.7766    1.1927 O   0  0  0  0  0  0  0  0  0  0  0  0
   -1.8201   -0.9926    0.3247 N   0  0  0  0  0  0  0  0  0  0  0  0
   -2.7141   -0.5816    0.0927 H   0  0  0  0  0  0  0  0  0  0  0  0
   -0.6481   -0.1156    0.2017 C   0  0  1  0  0  0  0  0  0  0  0  0
    0.1042   -0.6345   -0.3958 H   0  0  0  0  0  0  0  0  0  0  0  0
   -1.0420    1.1781   -0.5372 C   0  0  0  0  0  0  0  0  0  0  0  0
   -0.4458    1.2809   -1.4451 H   0  0  0  0  0  0  0  0  0  0  0  0
   -2.0898    1.1278   -0.8365 H   0  0  0  0  0  0  0  0  0  0  0  0
   -0.8152    2.4192    0.2912 C   0  0  0  0  0  0  0  0  0  0  0  0
   -0.5014    3.6860   -0.2030 N   0  0  0  0  0  0  0  0  0  0  0  0
   -0.4372    4.4937    0.8655 C   0  0  0  0  0  0  0  0  0  0  0  0
   -0.2000    5.5493    0.8222 H   0  0  0  0  0  0  0  0  0  0  0  0
   -0.7170    3.8103    1.9880 N   0  0  0  0  0  0  0  0  0  0  0  0
   -0.7519    4.2017    2.9194 H   0  0  0  0  0  0  0  0  0  0  0  0
   -0.9624    2.4993    1.6452 C   0  0  0  0  0  0  0  0  0  0  0  0
   -1.2398    1.6848    2.3024 H   0  0  0  0  0  0  0  0  0  0  0  0
   -0.0283    0.1609    1.5831 C   0  0  0  0  0  0  0  0  0  0  0  0
    1.1923    0.1056    1.7329 O   0  0  0  0  0  0  0  0  0  0  0  0
   -0.8586    0.4659    2.5853 N   0  0  0  0  0  0  0  0  0  0  0  0
   -1.8521    0.3848    2.4000 H   0  0  0  0  0  0  0  0  0  0  0  0
   -0.4403    0.7694    3.9518 C   0  0  0  0  0  0  0  0  0  0  0  0
    0.5066    1.3154    3.9421 H   0  0  0  0  0  0  0  0  0  0  0  0
   -1.1988    1.3789    4.4452 H   0  0  0  0  0  0  0  0  0  0  0  0
   -0.3053   -0.1600    4.5075 H   0  0  0  0  0  0  0  0  0  0  0  0
  5  6  2  0  0  0  0
  5  7  1  0  0  0  0
  2  3  1  0  0  0  0
  2  4  1  0  0  0  0
  2  5  1  0  0  0  0
  1  2  1  0  0  0  0
 22 23  2  0  0  0  0
 22 24  1  0  0  0  0
 20 21  1  0  0  0  0
 18 19  1  0  0  0  0
 18 20  1  0  0  0  0
 16 17  1  0  0  0  0
 16 18  1  0  0  0  0
 15 16  2  0  0  0  0
 14 15  1  0  0  0  0
 14 20  2  0  0  0  0
 11 12  1  0  0  0  0
 11 13  1  0  0  0  0
 11 14  1  0  0  0  0
  9 10  1  0  0  0  0
  9 11  1  0  0  0  0
  9 22  1  0  0  0  0
  7  8  1  0  0  0  0
  7  9  1  0  0  0  0
 26 27  1  0  0  0  0
 26 28  1  0  0  0  0
 26 29  1  0  0  0  0
 24 25  1  0  0  0  0
 24 26  1  0  0  0  0
M  END
$$$$
default_name
  -OEChem-02102213163D

 29 29  0     1  0  0  0  0  0999 V2000
   -2.9561   -3.9186    1.3887 H   0  0  0  0  0  0  0  0  0  0  0  0
   -3.1191   -2.9346    0.9517 C   0  0  0  0  0  0  0  0  0  0  0  0
   -3.7811   -2.3546    1.5917 H   0  0  0  0  0  0  0  0  0  0  0  0
   -3.5591   -3.0406   -0.0383 H   0  0  0  0  0  0  0  0  0  0  0  0
   -1.7921   -2.2226    0.8327 C   0  0  0  0  0  0  0  0  0  0  0  0
   -0.7611   -2.7766    1.1927 O   0  0  0  0  0  0  0  0  0  0  0  0
   -1.8201   -0.9926    0.3247 N   0  0  0  0  0  0  0  0  0  0  0  0
   -2.7141   -0.5816    0.0927 H   0  0  0  0  0  0  0  0  0  0  0  0
   -0.6481   -0.1156    0.2017 C   0  0  1  0  0  0  0  0  0  0  0  0
    0.1042   -0.6345   -0.3958 H   0  0  0  0  0  0  0  0  0  0  0  0
   -1.0420    1.1781   -0.5372 C   0  0  0  0  0  0  0  0  0  0  0  0
   -0.4458    1.2809   -1.4451 H   0  0  0  0  0  0  0  0  0  0  0  0
   -2.0898    1.1278   -0.8365 H   0  0  0  0  0  0  0  0  0  0  0  0
   -0.8152    2.4192    0.2912 C   0  0  0  0  0  0  0  0  0  0  0  0
   -0.7930    3.7295   -0.1884 N   0  0  0  0  0  0  0  0  0  0  0  0
   -0.6119    4.5126    0.8851 C   0  0  0  0  0  0  0  0  0  0  0  0
   -0.5375    5.5922    0.8502 H   0  0  0  0  0  0  0  0  0  0  0  0
   -0.5462    3.7694    2.0025 N   0  0  0  0  0  0  0  0  0  0  0  0
   -0.4331    4.1295    2.9402 H   0  0  0  0  0  0  0  0  0  0  0  0
   -0.6766    2.4451    1.6482 C   0  0  0  0  0  0  0  0  0  0  0  0
   -0.6907    1.5835    2.3039 H   0  0  0  0  0  0  0  0  0  0  0  0
   -0.0283    0.1609    1.5831 C   0  0  0  0  0  0  0  0  0  0  0  0
    1.1923    0.1056    1.7329 O   0  0  0  0  0  0  0  0  0  0  0  0
   -0.8586    0.4659    2.5853 N   0  0  0  0  0  0  0  0  0  0  0  0
   -1.8521    0.3848    2.4000 H   0  0  0  0  0  0  0  0  0  0  0  0
   -0.4403    0.7694    3.9518 C   0  0  0  0  0  0  0  0  0  0  0  0
    0.5066    1.3154    3.9421 H   0  0  0  0  0  0  0  0  0  0  0  0
   -1.1988    1.3789    4.4452 H   0  0  0  0  0  0  0  0  0  0  0  0
   -0.3053   -0.1600    4.5075 H   0  0  0  0  0  0  0  0  0  0  0  0
  5  6  2  0  0  0  0
  5  7  1  0  0  0  0
  2  3  1  0  0  0  0
  2  4  1  0  0  0  0
  2  5  1  0  0  0  0
  1  2  1  0  0  0  0
 22 23  2  0  0  0  0
 22 24  1  0  0  0  0
 20 21  1  0  0  0  0
 18 19  1  0  0  0  0
 18 20  1  0  0  0  0
 16 17  1  0  0  0  0
 16 18  1  0  0  0  0
 15 16  2  0  0  0  0
 14 15  1  0  0  0  0
 14 20  2  0  0  0  0
 11 12  1  0  0  0  0
 11 13  1  0  0  0  0
 11 14  1  0  0  0  0
  9 10  1  0  0  0  0
  9 11  1  0  0  0  0
  9 22  1  0  0  0  0
  7  8  1  0  0  0  0
  7  9  1  0  0  0  0
 26 27  1  0  0  0  0
 26 28  1  0  0  0  0
 26 29  1  0  0  0  0
 24 25  1  0  0  0  0
 24 26  1  0  0  0  0
M  END
$$$$
default_name
  -OEChem-02102213163D

 29 29  0     1  0  0  0  0  0999 V2000
   -2.9561   -3.9186    1.3887 H   0  0  0  0  0  0  0  0  0  0  0  0
   -3.1191   -2.9346    0.9517 C   0  0  0  0  0  0  0  0  0  0  0  0
   -3.7811   -2.3546    1.5917 H   0  0  0  0  0  0  0  0  0  0  0  0
   -3.5591   -3.0406   -0.0383 H   0  0  0  0  0  0  0  0  0  0  0  0
   -1.7921   -2.2226    0.8327 C   0  0  0  0  0  0  0  0  0  0  0  0
   -0.7611   -2.7766    1.1927 O   0  0  0  0  0  0  0  0  0  0  0  0
   -1.8201   -0.9926    0.3247 N   0  0  0  0  0  0  0  0  0  0  0  0
   -2.7141   -0.5816    0.0927 H   0  0  0  0  0  0  0  0  0  0  0  0
   -0.6481   -0.1156    0.2017 C   0  0  1  0  0  0  0  0  0  0  0  0
    0.1042   -0.6345   -0.3958 H   0  0  0  0  0  0  0  0  0  0  0  0
   -1.0420    1.1781   -0.5372 C   0  0  0  0  0  0  0  0  0  0  0  0
   -0.6539    1.1539   -1.5566 H   0  0  0  0  0  0  0  0  0  0  0  0
   -2.1286    1.2503   -0.6014 H   0  0  0  0  0  0  0  0  0  0  0  0
   -0.4940    2.4204    0.1220 C   0  0  0  0  0  0  0  0  0  0  0  0
   -0.6842    3.7310   -0.3178 N   0  0  0  0  0  0  0  0  0  0  0  0
   -0.0715    4.5149    0.5813 C   0  0  0  0  0  0  0  0  0  0  0  0
   -0.0252    5.5949    0.5217 H   0  0  0  0  0  0  0  0  0  0  0  0
    0.4643    3.7717    1.5641 N   0  0  0  0  0  0  0  0  0  0  0  0
    0.9606    4.1321    2.3676 H   0  0  0  0  0  0  0  0  0  0  0  0
    0.2044    2.4466    1.2937 C   0  0  0  0  0  0  0  0  0  0  0  0
    0.4736    1.5847    1.8912 H   0  0  0  0  0  0  0  0  0  0  0  0
   -0.0283    0.1609    1.5831 C   0  0  0  0  0  0  0  0  0  0  0  0
    1.1923    0.1056    1.7329 O   0  0  0  0  0  0  0  0  0  0  0  0
   -0.8586    0.4659    2.5853 N   0  0  0  0  0  0  0  0  0  0  0  0
   -1.8521    0.3848    2.4000 H   0  0  0  0  0  0  0  0  0  0  0  0
   -0.4403    0.7694    3.9518 C   0  0  0  0  0  0  0  0  0  0  0  0
    0.5066    1.3154    3.9421 H   0  0  0  0  0  0  0  0  0  0  0  0
   -1.1988    1.3789    4.4452 H   0  0  0  0  0  0  0  0  0  0  0  0
   -0.3053   -0.1600    4.5075 H   0  0  0  0  0  0  0  0  0  0  0  0
  5  6  2  0  0  0  0
  5  7  1  0  0  0  0
  2  3  1  0  0  0  0
  2  4  1  0  0  0  0
  2  5  1  0  0  0  0
  1  2  1  0  0  0  0
 22 23  2  0  0  0  0
 22 24  1  0  0  0  0
 20 21  1  0  0  0  0
 18 19  1  0  0  0  0
 18 20  1  0  0  0  0
 16 17  1  0  0  0  0
 16 18  1  0  0  0  0
 15 16  2  0  0  0  0
 14 15  1  0  0  0  0
 14 20  2  0  0  0  0
 11 12  1  0  0  0  0
 11 13  1  0  0  0  0
 11 14  1  0  0  0  0
  9 10  1  0  0  0  0
  9 11  1  0  0  0  0
  9 22  1  0  0  0  0
  7  8  1  0  0  0  0
  7  9  1  0  0  0  0
 26 27  1  0  0  0  0
 26 28  1  0  0  0  0
 26 29  1  0  0  0  0
 24 25  1  0  0  0  0
 24 26  1  0  0  0  0
M  END
$$$$
default_name
  -OEChem-02102213163D

 29 29  0     1  0  0  0  0  0999 V2000
   -2.9561   -3.9186    1.3887 H   0  0  0  0  0  0  0  0  0  0  0  0
   -3.1191   -2.9346    0.9517 C   0  0  0  0  0  0  0  0  0  0  0  0
   -3.7811   -2.3546    1.5917 H   0  0  0  0  0  0  0  0  0  0  0  0
   -3.5591   -3.0406   -0.0383 H   0  0  0  0  0  0  0  0  0  0  0  0
   -1.7921   -2.2226    0.8327 C   0  0  0  0  0  0  0  0  0  0  0  0
   -0.7611   -2.7766    1.1927 O   0  0  0  0  0  0  0  0  0  0  0  0
   -1.8201   -0.9926    0.3247 N   0  0  0  0  0  0  0  0  0  0  0  0
   -2.7141   -0.5816    0.0927 H   0  0  0  0  0  0  0  0  0  0  0  0
   -0.6481   -0.1156    0.2017 C   0  0  1  0  0  0  0  0  0  0  0  0
    0.1042   -0.6345   -0.3958 H   0  0  0  0  0  0  0  0  0  0  0  0
   -1.0420    1.1781   -0.5372 C   0  0  0  0  0  0  0  0  0  0  0  0
   -0.6539    1.1539   -1.5566 H   0  0  0  0  0  0  0  0  0  0  0  0
   -2.1286    1.2503   -0.6014 H   0  0  0  0  0  0  0  0  0  0  0  0
   -0.4940    2.4204    0.1220 C   0  0  0  0  0  0  0  0  0  0  0  0
   -0.9095    3.7291   -0.1270 N   0  0  0  0  0  0  0  0  0  0  0  0
   -0.1992    4.5064    0.7034 C   0  0  0  0  0  0  0  0  0  0  0  0
   -0.2783    5.5852    0.7505 H   0  0  0  0  0  0  0  0  0  0  0  0
    0.6119    3.7571    1.4689 N   0  0  0  0  0  0  0  0  0  0  0  0
    1.2320    4.1091    2.1854 H   0  0  0  0  0  0  0  0  0  0  0  0
    0.4369    2.4366    1.1192 C   0  0  0  0  0  0  0  0  0  0  0  0
    0.9173    1.5685    1.5528 H   0  0  0  0  0  0  0  0  0  0  0  0
   -0.0283    0.1609    1.5831 C   0  0  0  0  0  0  0  0  0  0  0  0
    1.1923    0.1056    1.7329 O   0  0  0  0  0  0  0  0  0  0  0  0
   -0.8586    0.4659    2.5853 N   0  0  0  0  0  0  0  0  0  0  0  0
   -1.8521    0.3848    2.4000 H   0  0  0  0  0  0  0  0  0  0  0  0
   -0.4403    0.7694    3.9518 C   0  0  0  0  0  0  0  0  0  0  0  0
    0.5066    1.3154    3.9421 H   0  0  0  0  0  0  0  0  0  0  0  0
   -1.1988    1.3789    4.4452 H   0  0  0  0  0  0  0  0  0  0  0  0
   -0.3053   -0.1600    4.5075 H   0  0  0  0  0  0  0  0  0  0  0  0
  5  6  2  0  0  0  0
  5  7  1  0  0  0  0
  2  3  1  0  0  0  0
  2  4  1  0  0  0  0
  2  5  1  0  0  0  0
  1  2  1  0  0  0  0
 22 23  2  0  0  0  0
 22 24  1  0  0  0  0
 20 21  1  0  0  0  0
 18 19  1  0  0  0  0
 18 20  1  0  0  0  0
 16 17  1  0  0  0  0
 16 18  1  0  0  0  0
 15 16  2  0  0  0  0
 14 15  1  0  0  0  0
 14 20  2  0  0  0  0
 11 12  1  0  0  0  0
 11 13  1  0  0  0  0
 11 14  1  0  0  0  0
  9 10  1  0  0  0  0
  9 11  1  0  0  0  0
  9 22  1  0  0  0  0
  7  8  1  0  0  0  0
  7  9  1  0  0  0  0
 26 27  1  0  0  0  0
 26 28  1  0  0  0  0
 26 29  1  0  0  0  0
 24 25  1  0  0  0  0
 24 26  1  0  0  0  0
M  END
$$$$
default_name
  -OEChem-02102213163D

 29 29  0     1  0  0  0  0  0999 V2000
   -2.9561   -3.9186    1.3887 H   0  0  0  0  0  0  0  0  0  0  0  0
   -3.1191   -2.9346    0.9517 C   0  0  0  0  0  0  0  0  0  0  0  0
   -3.7811   -2.3546    1.5917 H   0  0  0  0  0  0  0  0  0  0  0  0
   -3.5591   -3.0406   -0.0383 H   0  0  0  0  0  0  0  0  0  0  0  0
   -1.7921   -2.2226    0.8327 C   0  0  0  0  0  0  0  0  0  0  0  0
   -0.7611   -2.7766    1.1927 O   0  0  0  0  0  0  0  0  0  0  0  0
   -1.8201   -0.9926    0.3247 N   0  0  0  0  0  0  0  0  0  0  0  0
   -2.7141   -0.5816    0.0927 H   0  0  0  0  0  0  0  0  0  0  0  0
   -0.6481   -0.1156    0.2017 C   0  0  1  0  0  0  0  0  0  0  0  0
    0.1042   -0.6345   -0.3958 H   0  0  0  0  0  0  0  0  0  0  0  0
   -1.0420    1.1781   -0.5372 C   0  0  0  0  0  0  0  0  0  0  0  0
   -0.6539    1.1539   -1.5566 H   0  0  0  0  0  0  0  0  0  0  0  0
   -2.1286    1.2503   -0.6014 H   0  0  0  0  0  0  0  0  0  0  0  0
   -0.4940    2.4204    0.1220 C   0  0  0  0  0  0  0  0  0  0  0  0
   -1.0862    3.6839    0.1051 N   0  0  0  0  0  0  0  0  0  0  0  0
   -0.2955    4.4723    0.8477 C   0  0  0  0  0  0  0  0  0  0  0  0
   -0.4730    5.5256    1.0246 H   0  0  0  0  0  0  0  0  0  0  0  0
    0.7359    3.7686    1.3441 N   0  0  0  0  0  0  0  0  0  0  0  0
    1.4579    4.1346    1.9496 H   0  0  0  0  0  0  0  0  0  0  0  0
    0.6255    2.4697    0.9001 C   0  0  0  0  0  0  0  0  0  0  0  0
    1.2757    1.6349    1.1298 H   0  0  0  0  0  0  0  0  0  0  0  0
   -0.0283    0.1609    1.5831 C   0  0  0  0  0  0  0  0  0  0  0  0
    1.1923    0.1056    1.7329 O   0  0  0  0  0  0  0  0  0  0  0  0
   -0.8586    0.4659    2.5853 N   0  0  0  0  0  0  0  0  0  0  0  0
   -1.8521    0.3848    2.4000 H   0  0  0  0  0  0  0  0  0  0  0  0
   -0.4403    0.7694    3.9518 C   0  0  0  0  0  0  0  0  0  0  0  0
    0.5066    1.3154    3.9421 H   0  0  0  0  0  0  0  0  0  0  0  0
   -1.1988    1.3789    4.4452 H   0  0  0  0  0  0  0  0  0  0  0  0
   -0.3053   -0.1600    4.5075 H   0  0  0  0  0  0  0  0  0  0  0  0
  5  6  2  0  0  0  0
  5  7  1  0  0  0  0
  2  3  1  0  0  0  0
  2  4  1  0  0  0  0
  2  5  1  0  0  0  0
  1  2  1  0  0  0  0
 22 23  2  0  0  0  0
 22 24  1  0  0  0  0
 20 21  1  0  0  0  0
 18 19  1  0  0  0  0
 18 20  1  0  0  0  0
 16 17  1  0  0  0  0
 16 18  1  0  0  0  0
 15 16  2  0  0  0  0
 14 15  1  0  0  0  0
 14 20  2  0  0  0  0
 11 12  1  0  0  0  0
 11 13  1  0  0  0  0
 11 14  1  0  0  0  0
  9 10  1  0  0  0  0
  9 11  1  0  0  0  0
  9 22  1  0  0  0  0
  7  8  1  0  0  0  0
  7  9  1  0  0  0  0
 26 27  1  0  0  0  0
 26 28  1  0  0  0  0
 26 29  1  0  0  0  0
 24 25  1  0  0  0  0
 24 26  1  0  0  0  0
M  END
$$$$
default_name
  -OEChem-02102213163D

 29 29  0     1  0  0  0  0  0999 V2000
   -2.9561   -3.9186    1.3887 H   0  0  0  0  0  0  0  0  0  0  0  0
   -3.1191   -2.9346    0.9517 C   0  0  0  0  0  0  0  0  0  0  0  0
   -3.7811   -2.3546    1.5917 H   0  0  0  0  0  0  0  0  0  0  0  0
   -3.5591   -3.0406   -0.0383 H   0  0  0  0  0  0  0  0  0  0  0  0
   -1.7921   -2.2226    0.8327 C   0  0  0  0  0  0  0  0  0  0  0  0
   -0.7611   -2.7766    1.1927 O   0  0  0  0  0  0  0  0  0  0  0  0
   -1.8201   -0.9926    0.3247 N   0  0  0  0  0  0  0  0  0  0  0  0
   -2.7141   -0.5816    0.0927 H   0  0  0  0  0  0  0  0  0  0  0  0
   -0.6481   -0.1156    0.2017 C   0  0  1  0  0  0  0  0  0  0  0  0
    0.1042   -0.6345   -0.3958 H   0  0  0  0  0  0  0  0  0  0  0  0
   -1.0420    1.1781   -0.5372 C   0  0  0  0  0  0  0  0  0  0  0  0
   -0.6539    1.1539   -1.5566 H   0  0  0  0  0  0  0  0  0  0  0  0
   -2.1286    1.2503   -0.6014 H   0  0  0  0  0  0  0  0  0  0  0  0
   -0.4940    2.4204    0.1220 C   0  0  0  0  0  0  0  0  0  0  0  0
   -1.2024    3.5984    0.3627 N   0  0  0  0  0  0  0  0  0  0  0  0
   -0.3540    4.4149    1.0044 C   0  0  0  0  0  0  0  0  0  0  0  0
   -0.5959    5.4203    1.3251 H   0  0  0  0  0  0  0  0  0  0  0  0
    0.8277    3.8055    1.1982 N   0  0  0  0  0  0  0  0  0  0  0  0
    1.6230    4.2070    1.6760 H   0  0  0  0  0  0  0  0  0  0  0  0
    0.7573    2.5435    0.6515 C   0  0  0  0  0  0  0  0  0  0  0  0
    1.5243    1.7793    0.6512 H   0  0  0  0  0  0  0  0  0  0  0  0
   -0.0283    0.1609    1.5831 C   0  0  0  0  0  0  0  0  0  0  0  0
    1.1923    0.1056    1.7329 O   0  0  0  0  0  0  0  0  0  0  0  0
   -0.8586    0.4659    2.5853 N   0  0  0  0  0  0  0  0  0  0  0  0
   -1.8521    0.3848    2.4000 H   0  0  0  0  0  0  0  0  0  0  0  0
   -0.4403    0.7694    3.9518 C   0  0  0  0  0  0  0  0  0  0  0  0
    0.5066    1.3154    3.9421 H   0  0  0  0  0  0  0  0  0  0  0  0
   -1.1988    1.3789    4.4452 H   0  0  0  0  0  0  0  0  0  0  0  0
   -0.3053   -0.1600    4.5075 H   0  0  0  0  0  0  0  0  0  0  0  0
  5  6  2  0  0  0  0
  5  7  1  0  0  0  0
  2  3  1  0  0  0  0
  2  4  1  0  0  0  0
  2  5  1  0  0  0  0
  1  2  1  0  0  0  0
 22 23  2  0  0  0  0
 22 24  1  0  0  0  0
 20 21  1  0  0  0  0
 18 19  1  0  0  0  0
 18 20  1  0  0  0  0
 16 17  1  0  0  0  0
 16 18  1  0  0  0  0
 15 16  2  0  0  0  0
 14 15  1  0  0  0  0
 14 20  2  0  0  0  0
 11 12  1  0  0  0  0
 11 13  1  0  0  0  0
 11 14  1  0  0  0  0
  9 10  1  0  0  0  0
  9 11  1  0  0  0  0
  9 22  1  0  0  0  0
  7  8  1  0  0  0  0
  7  9  1  0  0  0  0
 26 27  1  0  0  0  0
 26 28  1  0  0  0  0
 26 29  1  0  0  0  0
 24 25  1  0  0  0  0
 24 26  1  0  0  0  0
M  END
$$$$
default_name
  -OEChem-02102213163D

 29 29  0     1  0  0  0  0  0999 V2000
   -2.9561   -3.9186    1.3887 H   0  0  0  0  0  0  0  0  0  0  0  0
   -3.1191   -2.9346    0.9517 C   0  0  0  0  0  0  0  0  0  0  0  0
   -3.7811   -2.3546    1.5917 H   0  0  0  0  0  0  0  0  0  0  0  0
   -3.5591   -3.0406   -0.0383 H   0  0  0  0  0  0  0  0  0  0  0  0
   -1.7921   -2.2226    0.8327 C   0  0  0  0  0  0  0  0  0  0  0  0
   -0.7611   -2.7766    1.1927 O   0  0  0  0  0  0  0  0  0  0  0  0
   -1.8201   -0.9926    0.3247 N   0  0  0  0  0  0  0  0  0  0  0  0
   -2.7141   -0.5816    0.0927 H   0  0  0  0  0  0  0  0  0  0  0  0
   -0.6481   -0.1156    0.2017 C   0  0  1  0  0  0  0  0  0  0  0  0
    0.1042   -0.6345   -0.3958 H   0  0  0  0  0  0  0  0  0  0  0  0
   -1.0420    1.1781   -0.5372 C   0  0  0  0  0  0  0  0  0  0  0  0
   -0.6539    1.1539   -1.5566 H   0  0  0  0  0  0  0  0  0  0  0  0
   -2.1286    1.2503   -0.6014 H   0  0  0  0  0  0  0  0  0  0  0  0
   -0.4940    2.4204    0.1220 C   0  0  0  0  0  0  0  0  0  0  0  0
   -1.2501    3.4785    0.6282 N   0  0  0  0  0  0  0  0  0  0  0  0
   -0.3706    4.3382    1.1628 C   0  0  0  0  0  0  0  0  0  0  0  0
   -0.6387    5.2765    1.6318 H   0  0  0  0  0  0  0  0  0  0  0  0
    0.8812    3.8652    1.0413 N   0  0  0  0  0  0  0  0  0  0  0  0
    1.7160    4.3213    1.3834 H   0  0  0  0  0  0  0  0  0  0  0  0
    0.8232    2.6531    0.3901 C   0  0  0  0  0  0  0  0  0  0  0  0
    1.6461    1.9918    0.1495 H   0  0  0  0  0  0  0  0  0  0  0  0
   -0.0283    0.1609    1.5831 C   0  0  0  0  0  0  0  0  0  0  0  0
    1.1923    0.1056    1.7329 O   0  0  0  0  0  0  0  0  0  0  0  0
   -0.8586    0.4659    2.5853 N   0  0  0  0  0  0  0  0  0  0  0  0
   -1.8521    0.3848    2.4000 H   0  0  0  0  0  0  0  0  0  0  0  0
   -0.4403    0.7694    3.9518 C   0  0  0  0  0  0  0  0  0  0  0  0
    0.5066    1.3154    3.9421 H   0  0  0  0  0  0  0  0  0  0  0  0
   -1.1988    1.3789    4.4452 H   0  0  0  0  0  0  0  0  0  0  0  0
   -0.3053   -0.1600    4.5075 H   0  0  0  0  0  0  0  0  0  0  0  0
  5  6  2  0  0  0  0
  5  7  1  0  0  0  0
  2  3  1  0  0  0  0
  2  4  1  0  0  0  0
  2  5  1  0  0  0  0
  1  2  1  0  0  0  0
 22 23  2  0  0  0  0
 22 24  1  0  0  0  0
 20 21  1  0  0  0  0
 18 19  1  0  0  0  0
 18 20  1  0  0  0  0
 16 17  1  0  0  0  0
 16 18  1  0  0  0  0
 15 16  2  0  0  0  0
 14 15  1  0  0  0  0
 14 20  2  0  0  0  0
 11 12  1  0  0  0  0
 11 13  1  0  0  0  0
 11 14  1  0  0  0  0
  9 10  1  0  0  0  0
  9 11  1  0  0  0  0
  9 22  1  0  0  0  0
  7  8  1  0  0  0  0
  7  9  1  0  0  0  0
 26 27  1  0  0  0  0
 26 28  1  0  0  0  0
 26 29  1  0  0  0  0
 24 25  1  0  0  0  0
 24 26  1  0  0  0  0
M  END
$$$$
default_name
  -OEChem-02102213163D

 29 29  0     1  0  0  0  0  0999 V2000
   -2.9561   -3.9186    1.3887 H   0  0  0  0  0  0  0  0  0  0  0  0
   -3.1191   -2.9346    0.9517 C   0  0  0  0  0  0  0  0  0  0  0  0
   -3.7811   -2.3546    1.5917 H   0  0  0  0  0  0  0  0  0  0  0  0
   -3.5591   -3.0406   -0.0383 H   0  0  0  0  0  0  0  0  0  0  0  0
   -1.7921   -2.2226    0.8327 C   0  0  0  0  0  0  0  0  0  0  0  0
   -0.7611   -2.7766    1.1927 O   0  0  0  0  0  0  0  0  0  0  0  0
   -1.8201   -0.9926    0.3247 N   0  0  0  0  0  0  0  0  0  0  0  0
   -2.7141   -0.5816    0.0927 H   0  0  0  0  0  0  0  0  0  0  0  0
   -0.6481   -0.1156    0.2017 C   0  0  1  0  0  0  0  0  0  0  0  0
    0.1042   -0.6345   -0.3958 H   0  0  0  0  0  0  0  0  0  0  0  0
   -1.0420    1.1781   -0.5372 C   0  0  0  0  0  0  0  0  0  0  0  0
   -0.6539    1.1539   -1.5566 H   0  0  0  0  0  0  0  0  0  0  0  0
   -2.1286    1.2503   -0.6014 H   0  0  0  0  0  0  0  0  0  0  0  0
   -0.4940    2.4204    0.1220 C   0  0  0  0  0  0  0  0  0  0  0  0
   -1.2260    3.3323    0.8836 N   0  0  0  0  0  0  0  0  0  0  0  0
   -0.3442    4.2472    1.3122 C   0  0  0  0  0  0  0  0  0  0  0  0
   -0.5985    5.1039    1.9235 H   0  0  0  0  0  0  0  0  0  0  0  0
    0.8927    3.9437    0.8839 N   0  0  0  0  0  0  0  0  0  0  0  0
    1.7305    4.4697    1.0917 H   0  0  0  0  0  0  0  0  0  0  0  0
    0.8189    2.7910    0.1340 C   0  0  0  0  0  0  0  0  0  0  0  0
    1.6329    2.2580   -0.3411 H   0  0  0  0  0  0  0  0  0  0  0  0
   -0.0283    0.1609    1.5831 C   0  0  0  0  0  0  0  0  0  0  0  0
    1.1923    0.1056    1.7329 O   0  0  0  0  0  0  0  0  0  0  0  0
   -0.8586    0.4659    2.5853 N   0  0  0  0  0  0  0  0  0  0  0  0
   -1.8521    0.3848    2.4000 H   0  0  0  0  0  0  0  0  0  0  0  0
   -0.4403    0.7694    3.9518 C   0  0  0  0  0  0  0  0  0  0  0  0
    0.5066    1.3154    3.9421 H   0  0  0  0  0  0  0  0  0  0  0  0
   -1.1988    1.3789    4.4452 H   0  0  0  0  0  0  0  0  0  0  0  0
   -0.3053   -0.1600    4.5075 H   0  0  0  0  0  0  0  0  0  0  0  0
  5  6  2  0  0  0  0
  5  7  1  0  0  0  0
  2  3  1  0  0  0  0
  2  4  1  0  0  0  0
  2  5  1  0  0  0  0
  1  2  1  0  0  0  0
 22 23  2  0  0  0  0
 22 24  1  0  0  0  0
 20 21  1  0  0  0  0
 18 19  1  0  0  0  0
 18 20  1  0  0  0  0
 16 17  1  0  0  0  0
 16 18  1  0  0  0  0
 15 16  2  0  0  0  0
 14 15  1  0  0  0  0
 14 20  2  0  0  0  0
 11 12  1  0  0  0  0
 11 13  1  0  0  0  0
 11 14  1  0  0  0  0
  9 10  1  0  0  0  0
  9 11  1  0  0  0  0
  9 22  1  0  0  0  0
  7  8  1  0  0  0  0
  7  9  1  0  0  0  0
 26 27  1  0  0  0  0
 26 28  1  0  0  0  0
 26 29  1  0  0  0  0
 24 25  1  0  0  0  0
 24 26  1  0  0  0  0
M  END
$$$$
default_name
  -OEChem-02102213163D

 29 29  0     1  0  0  0  0  0999 V2000
   -2.9561   -3.9186    1.3887 H   0  0  0  0  0  0  0  0  0  0  0  0
   -3.1191   -2.9346    0.9517 C   0  0  0  0  0  0  0  0  0  0  0  0
   -3.7811   -2.3546    1.5917 H   0  0  0  0  0  0  0  0  0  0  0  0
   -3.5591   -3.0406   -0.0383 H   0  0  0  0  0  0  0  0  0  0  0  0
   -1.7921   -2.2226    0.8327 C   0  0  0  0  0  0  0  0  0  0  0  0
   -0.7611   -2.7766    1.1927 O   0  0  0  0  0  0  0  0  0  0  0  0
   -1.8201   -0.9926    0.3247 N   0  0  0  0  0  0  0  0  0  0  0  0
   -2.7141   -0.5816    0.0927 H   0  0  0  0  0  0  0  0  0  0  0  0
   -0.6481   -0.1156    0.2017 C   0  0  1  0  0  0  0  0  0  0  0  0
    0.1042   -0.6345   -0.3958 H   0  0  0  0  0  0  0  0  0  0  0  0
   -1.0420    1.1781   -0.5372 C   0  0  0  0  0  0  0  0  0  0  0  0
   -0.6539    1.1539   -1.5566 H   0  0  0  0  0  0  0  0  0  0  0  0
   -2.1286    1.2503   -0.6014 H   0  0  0  0  0  0  0  0  0  0  0  0
   -0.4940    2.4204    0.1220 C   0  0  0  0  0  0  0  0  0  0  0  0
   -1.1318    3.1699    1.1115 N   0  0  0  0  0  0  0  0  0  0  0  0
   -0.2766    4.1484    1.4423 C   0  0  0  0  0  0  0  0  0  0  0  0
   -0.4780    4.9143    2.1806 H   0  0  0  0  0  0  0  0  0  0  0  0
    0.8613    4.0356    0.7368 N   0  0  0  0  0  0  0  0  0  0  0  0
    1.6657    4.6420    0.8207 H   0  0  0  0  0  0  0  0  0  0  0  0
    0.7445    2.9477   -0.0996 C   0  0  0  0  0  0  0  0  0  0  0  0
    1.4855    2.5598   -0.7872 H   0  0  0  0  0  0  0  0  0  0  0  0
   -0.0283    0.1609    1.5831 C   0  0  0  0  0  0  0  0  0  0  0  0
    1.1923    0.1056    1.7329 O   0  0  0  0  0  0  0  0  0  0  0  0
   -0.8586    0.4659    2.5853 N   0  0  0  0  0  0  0  0  0  0  0  0
   -1.8521    0.3848    2.4000 H   0  0  0  0  0  0  0  0  0  0  0  0
   -0.4403    0.7694    3.9518 C   0  0  0  0  0  0  0  0  0  0  0  0
    0.5066    1.3154    3.9421 H   0  0  0  0  0  0  0  0  0  0  0  0
   -1.1988    1.3789    4.4452 H   0  0  0  0  0  0  0  0  0  0  0  0
   -0.3053   -0.1600    4.5075 H   0  0  0  0  0  0  0  0  0  0  0  0
  5  6  2  0  0  0  0
  5  7  1  0  0  0  0
  2  3  1  0  0  0  0
  2  4  1  0  0  0  0
  2  5  1  0  0  0  0
  1  2  1  0  0  0  0
 22 23  2  0  0  0  0
 22 24  1  0  0  0  0
 20 21  1  0  0  0  0
 18 19  1  0  0  0  0
 18 20  1  0  0  0  0
 16 17  1  0  0  0  0
 16 18  1  0  0  0  0
 15 16  2  0  0  0  0
 14 15  1  0  0  0  0
 14 20  2  0  0  0  0
 11 12  1  0  0  0  0
 11 13  1  0  0  0  0
 11 14  1  0  0  0  0
  9 10  1  0  0  0  0
  9 11  1  0  0  0  0
  9 22  1  0  0  0  0
  7  8  1  0  0  0  0
  7  9  1  0  0  0  0
 26 27  1  0  0  0  0
 26 28  1  0  0  0  0
 26 29  1  0  0  0  0
 24 25  1  0  0  0  0
 24 26  1  0  0  0  0
M  END
$$$$
default_name
  -OEChem-02102213163D

 29 29  0     1  0  0  0  0  0999 V2000
   -2.9561   -3.9186    1.3887 H   0  0  0  0  0  0  0  0  0  0  0  0
   -3.1191   -2.9346    0.9517 C   0  0  0  0  0  0  0  0  0  0  0  0
   -3.7811   -2.3546    1.5917 H   0  0  0  0  0  0  0  0  0  0  0  0
   -3.5591   -3.0406   -0.0383 H   0  0  0  0  0  0  0  0  0  0  0  0
   -1.7921   -2.2226    0.8327 C   0  0  0  0  0  0  0  0  0  0  0  0
   -0.7611   -2.7766    1.1927 O   0  0  0  0  0  0  0  0  0  0  0  0
   -1.8201   -0.9926    0.3247 N   0  0  0  0  0  0  0  0  0  0  0  0
   -2.7141   -0.5816    0.0927 H   0  0  0  0  0  0  0  0  0  0  0  0
   -0.6481   -0.1156    0.2017 C   0  0  1  0  0  0  0  0  0  0  0  0
    0.1042   -0.6345   -0.3958 H   0  0  0  0  0  0  0  0  0  0  0  0
   -1.0420    1.1781   -0.5372 C   0  0  0  0  0  0  0  0  0  0  0  0
   -0.6539    1.1539   -1.5566 H   0  0  0  0  0  0  0  0  0  0  0  0
   -2.1286    1.2503   -0.6014 H   0  0  0  0  0  0  0  0  0  0  0  0
   -0.4940    2.4204    0.1220 C   0  0  0  0  0  0  0  0  0  0  0  0
   -0.9739    3.0022    1.2962 N   0  0  0  0  0  0  0  0  0  0  0  0
   -0.1724    4.0483    1.5443 C   0  0  0  0  0  0  0  0  0  0  0  0
   -0.2854    4.7207    2.3854 H   0  0  0  0  0  0  0  0  0  0  0  0
    0.7893    4.1347    0.6100 N   0  0  0  0  0  0  0  0  0  0  0  0
    1.5259    4.8267    0.5891 H   0  0  0  0  0  0  0  0  0  0  0  0
    0.6052    3.1127   -0.2946 C   0  0  0  0  0  0  0  0  0  0  0  0
    1.2140    2.8765   -1.1583 H   0  0  0  0  0  0  0  0  0  0  0  0
   -0.0283    0.1609    1.5831 C   0  0  0  0  0  0  0  0  0  0  0  0
    1.1923    0.1056    1.7329 O   0  0  0  0  0  0  0  0  0  0  0  0
   -0.8586    0.4659    2.5853 N   0  0  0  0  0  0  0  0  0  0  0  0
   -1.8521    0.3848    2.4000 H   0  0  0  0  0  0  0  0  0  0  0  0
   -0.4403    0.7694    3.9518 C   0  0  0  0  0  0  0  0  0  0  0  0
    0.5066    1.3154    3.9421 H   0  0  0  0  0  0  0  0  0  0  0  0
   -1.1988    1.3789    4.4452 H   0  0  0  0  0  0  0  0  0  0  0  0
   -0.3053   -0.1600    4.5075 H   0  0  0  0  0  0  0  0  0  0  0  0
  5  6  2  0  0  0  0
  5  7  1  0  0  0  0
  2  3  1  0  0  0  0
  2  4  1  0  0  0  0
  2  5  1  0  0  0  0
  1  2  1  0  0  0  0
 22 23  2  0  0  0  0
 22 24  1  0  0  0  0
 20 21  1  0  0  0  0
 18 19  1  0  0  0  0
 18 20  1  0  0  0  0
 16 17  1  0  0  0  0
 16 18  1  0  0  0  0
 15 16  2  0  0  0  0
 14 15  1  0  0  0  0
 14 20  2  0  0  0  0
 11 12  1  0  0  0  0
 11 13  1  0  0  0  0
 11 14  1  0  0  0  0
  9 10  1  0  0  0  0
  9 11  1  0  0  0  0
  9 22  1  0  0  0  0
  7  8  1  0  0  0  0
  7  9  1  0  0  0  0
 26 27  1  0  0  0  0
 26 28  1  0  0  0  0
 26 29  1  0  0  0  0
 24 25  1  0  0  0  0
 24 26  1  0  0  0  0
M  END
$$$$
default_name
  -OEChem-02102213163D

 29 29  0     1  0  0  0  0  0999 V2000
   -2.9561   -3.9186    1.3887 H   0  0  0  0  0  0  0  0  0  0  0  0
   -3.1191   -2.9346    0.9517 C   0  0  0  0  0  0  0  0  0  0  0  0
   -3.7811   -2.3546    1.5917 H   0  0  0  0  0  0  0  0  0  0  0  0
   -3.5591   -3.0406   -0.0383 H   0  0  0  0  0  0  0  0  0  0  0  0
   -1.7921   -2.2226    0.8327 C   0  0  0  0  0  0  0  0  0  0  0  0
   -0.7611   -2.7766    1.1927 O   0  0  0  0  0  0  0  0  0  0  0  0
   -1.8201   -0.9926    0.3247 N   0  0  0  0  0  0  0  0  0  0  0  0
   -2.7141   -0.5816    0.0927 H   0  0  0  0  0  0  0  0  0  0  0  0
   -0.6481   -0.1156    0.2017 C   0  0  1  0  0  0  0  0  0  0  0  0
    0.1042   -0.6345   -0.3958 H   0  0  0  0  0  0  0  0  0  0  0  0
   -1.0420    1.1781   -0.5372 C   0  0  0  0  0  0  0  0  0  0  0  0
   -0.6539    1.1539   -1.5566 H   0  0  0  0  0  0  0  0  0  0  0  0
   -2.1286    1.2503   -0.6014 H   0  0  0  0  0  0  0  0  0  0  0  0
   -0.4940    2.4204    0.1220 C   0  0  0  0  0  0  0  0  0  0  0  0
   -0.7631    2.8407    1.4252 N   0  0  0  0  0  0  0  0  0  0  0  0
   -0.0387    3.9538    1.6112 C   0  0  0  0  0  0  0  0  0  0  0  0
   -0.0339    4.5361    2.5240 H   0  0  0  0  0  0  0  0  0  0  0  0
    0.6816    4.2341    0.5122 N   0  0  0  0  0  0  0  0  0  0  0  0
    1.3206    5.0110    0.4124 H   0  0  0  0  0  0  0  0  0  0  0  0
    0.4105    3.2746   -0.4378 C   0  0  0  0  0  0  0  0  0  0  0  0
    0.8369    3.1866   -1.4291 H   0  0  0  0  0  0  0  0  0  0  0  0
   -0.0283    0.1609    1.5831 C   0  0  0  0  0  0  0  0  0  0  0  0
    1.1923    0.1056    1.7329 O   0  0  0  0  0  0  0  0  0  0  0  0
   -0.8586    0.4659    2.5853 N   0  0  0  0  0  0  0  0  0  0  0  0
   -1.8521    0.3848    2.4000 H   0  0  0  0  0  0  0  0  0  0  0  0
   -0.4403    0.7694    3.9518 C   0  0  0  0  0  0  0  0  0  0  0  0
    0.5066    1.3154    3.9421 H   0  0  0  0  0  0  0  0  0  0  0  0
   -1.1988    1.3789    4.4452 H   0  0  0  0  0  0  0  0  0  0  0  0
   -0.3053   -0.1600    4.5075 H   0  0  0  0  0  0  0  0  0  0  0  0
  5  6  2  0  0  0  0
  5  7  1  0  0  0  0
  2  3  1  0  0  0  0
  2  4  1  0  0  0  0
  2  5  1  0  0  0  0
  1  2  1  0  0  0  0
 22 23  2  0  0  0  0
 22 24  1  0  0  0  0
 20 21  1  0  0  0  0
 18 19  1  0  0  0  0
 18 20  1  0  0  0  0
 16 17  1  0  0  0  0
 16 18  1  0  0  0  0
 15 16  2  0  0  0  0
 14 15  1  0  0  0  0
 14 20  2  0  0  0  0
 11 12  1  0  0  0  0
 11 13  1  0  0  0  0
 11 14  1  0  0  0  0
  9 10  1  0  0  0  0
  9 11  1  0  0  0  0
  9 22  1  0  0  0  0
  7  8  1  0  0  0  0
  7  9  1  0  0  0  0
 26 27  1  0  0  0  0
 26 28  1  0  0  0  0
 26 29  1  0  0  0  0
 24 25  1  0  0  0  0
 24 26  1  0  0  0  0
M  END
$$$$
default_name
  -OEChem-02102213163D

 29 29  0     1  0  0  0  0  0999 V2000
   -2.9561   -3.9186    1.3887 H   0  0  0  0  0  0  0  0  0  0  0  0
   -3.1191   -2.9346    0.9517 C   0  0  0  0  0  0  0  0  0  0  0  0
   -3.7811   -2.3546    1.5917 H   0  0  0  0  0  0  0  0  0  0  0  0
   -3.5591   -3.0406   -0.0383 H   0  0  0  0  0  0  0  0  0  0  0  0
   -1.7921   -2.2226    0.8327 C   0  0  0  0  0  0  0  0  0  0  0  0
   -0.7611   -2.7766    1.1927 O   0  0  0  0  0  0  0  0  0  0  0  0
   -1.8201   -0.9926    0.3247 N   0  0  0  0  0  0  0  0  0  0  0  0
   -2.7141   -0.5816    0.0927 H   0  0  0  0  0  0  0  0  0  0  0  0
   -0.6481   -0.1156    0.2017 C   0  0  1  0  0  0  0  0  0  0  0  0
    0.1042   -0.6345   -0.3958 H   0  0  0  0  0  0  0  0  0  0  0  0
   -1.0420    1.1781   -0.5372 C   0  0  0  0  0  0  0  0  0  0  0  0
   -0.6539    1.1539   -1.5566 H   0  0  0  0  0  0  0  0  0  0  0  0
   -2.1286    1.2503   -0.6014 H   0  0  0  0  0  0  0  0  0  0  0  0
   -0.4940    2.4204    0.1220 C   0  0  0  0  0  0  0  0  0  0  0  0
   -0.5137    2.6964    1.4898 N   0  0  0  0  0  0  0  0  0  0  0  0
    0.1153    3.8714    1.6385 C   0  0  0  0  0  0  0  0  0  0  0  0
    0.2595    4.3733    2.5869 H   0  0  0  0  0  0  0  0  0  0  0  0
    0.5454    4.3272    0.4500 N   0  0  0  0  0  0  0  0  0  0  0  0
    1.0638    5.1824    0.3028 H   0  0  0  0  0  0  0  0  0  0  0  0
    0.1736    3.4224   -0.5194 C   0  0  0  0  0  0  0  0  0  0  0  0
    0.3799    3.4689   -1.5813 H   0  0  0  0  0  0  0  0  0  0  0  0
   -0.0283    0.1609    1.5831 C   0  0  0  0  0  0  0  0  0  0  0  0
    1.1923    0.1056    1.7329 O   0  0  0  0  0  0  0  0  0  0  0  0
   -0.8586    0.4659    2.5853 N   0  0  0  0  0  0  0  0  0  0  0  0
   -1.8521    0.3848    2.4000 H   0  0  0  0  0  0  0  0  0  0  0  0
   -0.4403    0.7694    3.9518 C   0  0  0  0  0  0  0  0  0  0  0  0
    0.5066    1.3154    3.9421 H   0  0  0  0  0  0  0  0  0  0  0  0
   -1.1988    1.3789    4.4452 H   0  0  0  0  0  0  0  0  0  0  0  0
   -0.3053   -0.1600    4.5075 H   0  0  0  0  0  0  0  0  0  0  0  0
  5  6  2  0  0  0  0
  5  7  1  0  0  0  0
  2  3  1  0  0  0  0
  2  4  1  0  0  0  0
  2  5  1  0  0  0  0
  1  2  1  0  0  0  0
 22 23  2  0  0  0  0
 22 24  1  0  0  0  0
 20 21  1  0  0  0  0
 18 19  1  0  0  0  0
 18 20  1  0  0  0  0
 16 17  1  0  0  0  0
 16 18  1  0  0  0  0
 15 16  2  0  0  0  0
 14 15  1  0  0  0  0
 14 20  2  0  0  0  0
 11 12  1  0  0  0  0
 11 13  1  0  0  0  0
 11 14  1  0  0  0  0
  9 10  1  0  0  0  0
  9 11  1  0  0  0  0
  9 22  1  0  0  0  0
  7  8  1  0  0  0  0
  7  9  1  0  0  0  0
 26 27  1  0  0  0  0
 26 28  1  0  0  0  0
 26 29  1  0  0  0  0
 24 25  1  0  0  0  0
 24 26  1  0  0  0  0
M  END
$$$$
default_name
  -OEChem-02102213163D

 29 29  0     1  0  0  0  0  0999 V2000
   -2.9561   -3.9186    1.3887 H   0  0  0  0  0  0  0  0  0  0  0  0
   -3.1191   -2.9346    0.9517 C   0  0  0  0  0  0  0  0  0  0  0  0
   -3.7811   -2.3546    1.5917 H   0  0  0  0  0  0  0  0  0  0  0  0
   -3.5591   -3.0406   -0.0383 H   0  0  0  0  0  0  0  0  0  0  0  0
   -1.7921   -2.2226    0.8327 C   0  0  0  0  0  0  0  0  0  0  0  0
   -0.7611   -2.7766    1.1927 O   0  0  0  0  0  0  0  0  0  0  0  0
   -1.8201   -0.9926    0.3247 N   0  0  0  0  0  0  0  0  0  0  0  0
   -2.7141   -0.5816    0.0927 H   0  0  0  0  0  0  0  0  0  0  0  0
   -0.6481   -0.1156    0.2017 C   0  0  1  0  0  0  0  0  0  0  0  0
    0.1042   -0.6345   -0.3958 H   0  0  0  0  0  0  0  0  0  0  0  0
   -1.0420    1.1781   -0.5372 C   0  0  0  0  0  0  0  0  0  0  0  0
   -0.6539    1.1539   -1.5566 H   0  0  0  0  0  0  0  0  0  0  0  0
   -2.1286    1.2503   -0.6014 H   0  0  0  0  0  0  0  0  0  0  0  0
   -0.4940    2.4204    0.1220 C   0  0  0  0  0  0  0  0  0  0  0  0
   -0.2428    2.5792    1.4855 N   0  0  0  0  0  0  0  0  0  0  0  0
    0.2792    3.8066    1.6243 C   0  0  0  0  0  0  0  0  0  0  0  0
    0.5747    4.2433    2.5699 H   0  0  0  0  0  0  0  0  0  0  0  0
    0.3902    4.4075    0.4276 N   0  0  0  0  0  0  0  0  0  0  0  0
    0.7731    5.3293    0.2677 H   0  0  0  0  0  0  0  0  0  0  0  0
   -0.0894    3.5461   -0.5339 C   0  0  0  0  0  0  0  0  0  0  0  0
   -0.1259    3.7043   -1.6044 H   0  0  0  0  0  0  0  0  0  0  0  0
   -0.0283    0.1609    1.5831 C   0  0  0  0  0  0  0  0  0  0  0  0
    1.1923    0.1056    1.7329 O   0  0  0  0  0  0  0  0  0  0  0  0
   -0.8586    0.4659    2.5853 N   0  0  0  0  0  0  0  0  0  0  0  0
   -1.8521    0.3848    2.4000 H   0  0  0  0  0  0  0  0  0  0  0  0
   -0.4403    0.7694    3.9518 C   0  0  0  0  0  0  0  0  0  0  0  0
    0.5066    1.3154    3.9421 H   0  0  0  0  0  0  0  0  0  0  0  0
   -1.1988    1.3789    4.4452 H   0  0  0  0  0  0  0  0  0  0  0  0
   -0.3053   -0.1600    4.5075 H   0  0  0  0  0  0  0  0  0  0  0  0
  5  6  2  0  0  0  0
  5  7  1  0  0  0  0
  2  3  1  0  0  0  0
  2  4  1  0  0  0  0
  2  5  1  0  0  0  0
  1  2  1  0  0  0  0
 22 23  2  0  0  0  0
 22 24  1  0  0  0  0
 20 21  1  0  0  0  0
 18 19  1  0  0  0  0
 18 20  1  0  0  0  0
 16 17  1  0  0  0  0
 16 18  1  0  0  0  0
 15 16  2  0  0  0  0
 14 15  1  0  0  0  0
 14 20  2  0  0  0  0
 11 12  1  0  0  0  0
 11 13  1  0  0  0  0
 11 14  1  0  0  0  0
  9 10  1  0  0  0  0
  9 11  1  0  0  0  0
  9 22  1  0  0  0  0
  7  8  1  0  0  0  0
  7  9  1  0  0  0  0
 26 27  1  0  0  0  0
 26 28  1  0  0  0  0
 26 29  1  0  0  0  0
 24 25  1  0  0  0  0
 24 26  1  0  0  0  0
M  END
$$$$
default_name
  -OEChem-02102213163D

 29 29  0     1  0  0  0  0  0999 V2000
   -2.9561   -3.9186    1.3887 H   0  0  0  0  0  0  0  0  0  0  0  0
   -3.1191   -2.9346    0.9517 C   0  0  0  0  0  0  0  0  0  0  0  0
   -3.7811   -2.3546    1.5917 H   0  0  0  0  0  0  0  0  0  0  0  0
   -3.5591   -3.0406   -0.0383 H   0  0  0  0  0  0  0  0  0  0  0  0
   -1.7921   -2.2226    0.8327 C   0  0  0  0  0  0  0  0  0  0  0  0
   -0.7611   -2.7766    1.1927 O   0  0  0  0  0  0  0  0  0  0  0  0
   -1.8201   -0.9926    0.3247 N   0  0  0  0  0  0  0  0  0  0  0  0
   -2.7141   -0.5816    0.0927 H   0  0  0  0  0  0  0  0  0  0  0  0
   -0.6481   -0.1156    0.2017 C   0  0  1  0  0  0  0  0  0  0  0  0
    0.1042   -0.6345   -0.3958 H   0  0  0  0  0  0  0  0  0  0  0  0
   -1.0420    1.1781   -0.5372 C   0  0  0  0  0  0  0  0  0  0  0  0
   -0.6539    1.1539   -1.5566 H   0  0  0  0  0  0  0  0  0  0  0  0
   -2.1286    1.2503   -0.6014 H   0  0  0  0  0  0  0  0  0  0  0  0
   -0.4940    2.4204    0.1220 C   0  0  0  0  0  0  0  0  0  0  0  0
    0.0312    2.4970    1.4126 N   0  0  0  0  0  0  0  0  0  0  0  0
    0.4419    3.7639    1.5696 C   0  0  0  0  0  0  0  0  0  0  0  0
    0.8902    4.1550    2.4742 H   0  0  0  0  0  0  0  0  0  0  0  0
    0.2263    4.4697    0.4467 N   0  0  0  0  0  0  0  0  0  0  0  0
    0.4682    5.4415    0.3096 H   0  0  0  0  0  0  0  0  0  0  0  0
   -0.3604    3.6372   -0.4803 C   0  0  0  0  0  0  0  0  0  0  0  0
   -0.6460    3.8766   -1.4969 H   0  0  0  0  0  0  0  0  0  0  0  0
   -0.0283    0.1609    1.5831 C   0  0  0  0  0  0  0  0  0  0  0  0
    1.1923    0.1056    1.7329 O   0  0  0  0  0  0  0  0  0  0  0  0
   -0.8586    0.4659    2.5853 N   0  0  0  0  0  0  0  0  0  0  0  0
   -1.8521    0.3848    2.4000 H   0  0  0  0  0  0  0  0  0  0  0  0
   -0.4403    0.7694    3.9518 C   0  0  0  0  0  0  0  0  0  0  0  0
    0.5066    1.3154    3.9421 H   0  0  0  0  0  0  0  0  0  0  0  0
   -1.1988    1.3789    4.4452 H   0  0  0  0  0  0  0  0  0  0  0  0
   -0.3053   -0.1600    4.5075 H   0  0  0  0  0  0  0  0  0  0  0  0
  5  6  2  0  0  0  0
  5  7  1  0  0  0  0
  2  3  1  0  0  0  0
  2  4  1  0  0  0  0
  2  5  1  0  0  0  0
  1  2  1  0  0  0  0
 22 23  2  0  0  0  0
 22 24  1  0  0  0  0
 20 21  1  0  0  0  0
 18 19  1  0  0  0  0
 18 20  1  0  0  0  0
 16 17  1  0  0  0  0
 16 18  1  0  0  0  0
 15 16  2  0  0  0  0
 14 15  1  0  0  0  0
 14 20  2  0  0  0  0
 11 12  1  0  0  0  0
 11 13  1  0  0  0  0
 11 14  1  0  0  0  0
  9 10  1  0  0  0  0
  9 11  1  0  0  0  0
  9 22  1  0  0  0  0
  7  8  1  0  0  0  0
  7  9  1  0  0  0  0
 26 27  1  0  0  0  0
 26 28  1  0  0  0  0
 26 29  1  0  0  0  0
 24 25  1  0  0  0  0
 24 26  1  0  0  0  0
M  END
$$$$
default_name
  -OEChem-02102213163D

 29 29  0     1  0  0  0  0  0999 V2000
   -2.9561   -3.9186    1.3887 H   0  0  0  0  0  0  0  0  0  0  0  0
   -3.1191   -2.9346    0.9517 C   0  0  0  0  0  0  0  0  0  0  0  0
   -3.7811   -2.3546    1.5917 H   0  0  0  0  0  0  0  0  0  0  0  0
   -3.5591   -3.0406   -0.0383 H   0  0  0  0  0  0  0  0  0  0  0  0
   -1.7921   -2.2226    0.8327 C   0  0  0  0  0  0  0  0  0  0  0  0
   -0.7611   -2.7766    1.1927 O   0  0  0  0  0  0  0  0  0  0  0  0
   -1.8201   -0.9926    0.3247 N   0  0  0  0  0  0  0  0  0  0  0  0
   -2.7141   -0.5816    0.0927 H   0  0  0  0  0  0  0  0  0  0  0  0
   -0.6481   -0.1156    0.2017 C   0  0  1  0  0  0  0  0  0  0  0  0
    0.1042   -0.6345   -0.3958 H   0  0  0  0  0  0  0  0  0  0  0  0
   -1.0420    1.1781   -0.5372 C   0  0  0  0  0  0  0  0  0  0  0  0
   -0.6539    1.1539   -1.5566 H   0  0  0  0  0  0  0  0  0  0  0  0
   -2.1286    1.2503   -0.6014 H   0  0  0  0  0  0  0  0  0  0  0  0
   -0.4940    2.4204    0.1220 C   0  0  0  0  0  0  0  0  0  0  0  0
    0.2897    2.4554    1.2761 N   0  0  0  0  0  0  0  0  0  0  0  0
    0.5921    3.7462    1.4780 C   0  0  0  0  0  0  0  0  0  0  0  0
    1.1846    4.1143    2.3062 H   0  0  0  0  0  0  0  0  0  0  0  0
    0.0651    4.5094    0.5059 N   0  0  0  0  0  0  0  0  0  0  0  0
    0.1699    5.5116    0.4256 H   0  0  0  0  0  0  0  0  0  0  0  0
   -0.6211    3.6895   -0.3621 C   0  0  0  0  0  0  0  0  0  0  0  0
   -1.1449    3.9742   -1.2660 H   0  0  0  0  0  0  0  0  0  0  0  0
   -0.0283    0.1609    1.5831 C   0  0  0  0  0  0  0  0  0  0  0  0
    1.1923    0.1056    1.7329 O   0  0  0  0  0  0  0  0  0  0  0  0
   -0.8586    0.4659    2.5853 N   0  0  0  0  0  0  0  0  0  0  0  0
   -1.8521    0.3848    2.4000 H   0  0  0  0  0  0  0  0  0  0  0  0
   -0.4403    0.7694    3.9518 C   0  0  0  0  0  0  0  0  0  0  0  0
    0.5066    1.3154    3.9421 H   0  0  0  0  0  0  0  0  0  0  0  0
   -1.1988    1.3789    4.4452 H   0  0  0  0  0  0  0  0  0  0  0  0
   -0.3053   -0.1600    4.5075 H   0  0  0  0  0  0  0  0  0  0  0  0
  5  6  2  0  0  0  0
  5  7  1  0  0  0  0
  2  3  1  0  0  0  0
  2  4  1  0  0  0  0
  2  5  1  0  0  0  0
  1  2  1  0  0  0  0
 22 23  2  0  0  0  0
 22 24  1  0  0  0  0
 20 21  1  0  0  0  0
 18 19  1  0  0  0  0
 18 20  1  0  0  0  0
 16 17  1  0  0  0  0
 16 18  1  0  0  0  0
 15 16  2  0  0  0  0
 14 15  1  0  0  0  0
 14 20  2  0  0  0  0
 11 12  1  0  0  0  0
 11 13  1  0  0  0  0
 11 14  1  0  0  0  0
  9 10  1  0  0  0  0
  9 11  1  0  0  0  0
  9 22  1  0  0  0  0
  7  8  1  0  0  0  0
  7  9  1  0  0  0  0
 26 27  1  0  0  0  0
 26 28  1  0  0  0  0
 26 29  1  0  0  0  0
 24 25  1  0  0  0  0
 24 26  1  0  0  0  0
M  END
$$$$
default_name
  -OEChem-02102213163D

 29 29  0     1  0  0  0  0  0999 V2000
   -2.9561   -3.9186    1.3887 H   0  0  0  0  0  0  0  0  0  0  0  0
   -3.1191   -2.9346    0.9517 C   0  0  0  0  0  0  0  0  0  0  0  0
   -3.7811   -2.3546    1.5917 H   0  0  0  0  0  0  0  0  0  0  0  0
   -3.5591   -3.0406   -0.0383 H   0  0  0  0  0  0  0  0  0  0  0  0
   -1.7921   -2.2226    0.8327 C   0  0  0  0  0  0  0  0  0  0  0  0
   -0.7611   -2.7766    1.1927 O   0  0  0  0  0  0  0  0  0  0  0  0
   -1.8201   -0.9926    0.3247 N   0  0  0  0  0  0  0  0  0  0  0  0
   -2.7141   -0.5816    0.0927 H   0  0  0  0  0  0  0  0  0  0  0  0
   -0.6481   -0.1156    0.2017 C   0  0  1  0  0  0  0  0  0  0  0  0
    0.1042   -0.6345   -0.3958 H   0  0  0  0  0  0  0  0  0  0  0  0
   -1.0420    1.1781   -0.5372 C   0  0  0  0  0  0  0  0  0  0  0  0
   -0.6539    1.1539   -1.5566 H   0  0  0  0  0  0  0  0  0  0  0  0
   -2.1286    1.2503   -0.6014 H   0  0  0  0  0  0  0  0  0  0  0  0
   -0.4940    2.4204    0.1220 C   0  0  0  0  0  0  0  0  0  0  0  0
    0.5150    2.4573    1.0853 N   0  0  0  0  0  0  0  0  0  0  0  0
    0.7198    3.7547    1.3560 C   0  0  0  0  0  0  0  0  0  0  0  0
    1.4377    4.1241    2.0773 H   0  0  0  0  0  0  0  0  0  0  0  0
   -0.0825    4.5240    0.6011 N   0  0  0  0  0  0  0  0  0  0  0  0
   -0.1015    5.5346    0.6077 H   0  0  0  0  0  0  0  0  0  0  0  0
   -0.8537    3.6994   -0.1876 C   0  0  0  0  0  0  0  0  0  0  0  0
   -1.5887    3.9903   -0.9276 H   0  0  0  0  0  0  0  0  0  0  0  0
   -0.0283    0.1609    1.5831 C   0  0  0  0  0  0  0  0  0  0  0  0
    1.1923    0.1056    1.7329 O   0  0  0  0  0  0  0  0  0  0  0  0
   -0.8586    0.4659    2.5853 N   0  0  0  0  0  0  0  0  0  0  0  0
   -1.8521    0.3848    2.4000 H   0  0  0  0  0  0  0  0  0  0  0  0
   -0.4403    0.7694    3.9518 C   0  0  0  0  0  0  0  0  0  0  0  0
    0.5066    1.3154    3.9421 H   0  0  0  0  0  0  0  0  0  0  0  0
   -1.1988    1.3789    4.4452 H   0  0  0  0  0  0  0  0  0  0  0  0
   -0.3053   -0.1600    4.5075 H   0  0  0  0  0  0  0  0  0  0  0  0
  5  6  2  0  0  0  0
  5  7  1  0  0  0  0
  2  3  1  0  0  0  0
  2  4  1  0  0  0  0
  2  5  1  0  0  0  0
  1  2  1  0  0  0  0
 22 23  2  0  0  0  0
 22 24  1  0  0  0  0
 20 21  1  0  0  0  0
 18 19  1  0  0  0  0
 18 20  1  0  0  0  0
 16 17  1  0  0  0  0
 16 18  1  0  0  0  0
 15 16  2  0  0  0  0
 14 15  1  0  0  0  0
 14 20  2  0  0  0  0
 11 12  1  0  0  0  0
 11 13  1  0  0  0  0
 11 14  1  0  0  0  0
  9 10  1  0  0  0  0
  9 11  1  0  0  0  0
  9 22  1  0  0  0  0
  7  8  1  0  0  0  0
  7  9  1  0  0  0  0
 26 27  1  0  0  0  0
 26 28  1  0  0  0  0
 26 29  1  0  0  0  0
 24 25  1  0  0  0  0
 24 26  1  0  0  0  0
M  END
$$$$
default_name
  -OEChem-02102213163D

 29 29  0     1  0  0  0  0  0999 V2000
   -2.9561   -3.9186    1.3887 H   0  0  0  0  0  0  0  0  0  0  0  0
   -3.1191   -2.9346    0.9517 C   0  0  0  0  0  0  0  0  0  0  0  0
   -3.7811   -2.3546    1.5917 H   0  0  0  0  0  0  0  0  0  0  0  0
   -3.5591   -3.0406   -0.0383 H   0  0  0  0  0  0  0  0  0  0  0  0
   -1.7921   -2.2226    0.8327 C   0  0  0  0  0  0  0  0  0  0  0  0
   -0.7611   -2.7766    1.1927 O   0  0  0  0  0  0  0  0  0  0  0  0
   -1.8201   -0.9926    0.3247 N   0  0  0  0  0  0  0  0  0  0  0  0
   -2.7141   -0.5816    0.0927 H   0  0  0  0  0  0  0  0  0  0  0  0
   -0.6481   -0.1156    0.2017 C   0  0  1  0  0  0  0  0  0  0  0  0
    0.1042   -0.6345   -0.3958 H   0  0  0  0  0  0  0  0  0  0  0  0
   -1.0420    1.1781   -0.5372 C   0  0  0  0  0  0  0  0  0  0  0  0
   -0.6539    1.1539   -1.5566 H   0  0  0  0  0  0  0  0  0  0  0  0
   -2.1286    1.2503   -0.6014 H   0  0  0  0  0  0  0  0  0  0  0  0
   -0.4940    2.4204    0.1220 C   0  0  0  0  0  0  0  0  0  0  0  0
    0.6917    2.5026    0.8532 N   0  0  0  0  0  0  0  0  0  0  0  0
    0.8161    3.7888    1.2117 C   0  0  0  0  0  0  0  0  0  0  0  0
    1.6324    4.1836    1.8033 H   0  0  0  0  0  0  0  0  0  0  0  0
   -0.2064    4.5124    0.7258 N   0  0  0  0  0  0  0  0  0  0  0  0
   -0.3274    5.5091    0.8436 H   0  0  0  0  0  0  0  0  0  0  0  0
   -1.0422    3.6664    0.0314 C   0  0  0  0  0  0  0  0  0  0  0  0
   -1.9470    3.9239   -0.5046 H   0  0  0  0  0  0  0  0  0  0  0  0
   -0.0283    0.1609    1.5831 C   0  0  0  0  0  0  0  0  0  0  0  0
    1.1923    0.1056    1.7329 O   0  0  0  0  0  0  0  0  0  0  0  0
   -0.8586    0.4659    2.5853 N   0  0  0  0  0  0  0  0  0  0  0  0
   -1.8521    0.3848    2.4000 H   0  0  0  0  0  0  0  0  0  0  0  0
   -0.4403    0.7694    3.9518 C   0  0  0  0  0  0  0  0  0  0  0  0
    0.5066    1.3154    3.9421 H   0  0  0  0  0  0  0  0  0  0  0  0
   -1.1988    1.3789    4.4452 H   0  0  0  0  0  0  0  0  0  0  0  0
   -0.3053   -0.1600    4.5075 H   0  0  0  0  0  0  0  0  0  0  0  0
  5  6  2  0  0  0  0
  5  7  1  0  0  0  0
  2  3  1  0  0  0  0
  2  4  1  0  0  0  0
  2  5  1  0  0  0  0
  1  2  1  0  0  0  0
 22 23  2  0  0  0  0
 22 24  1  0  0  0  0
 20 21  1  0  0  0  0
 18 19  1  0  0  0  0
 18 20  1  0  0  0  0
 16 17  1  0  0  0  0
 16 18  1  0  0  0  0
 15 16  2  0  0  0  0
 14 15  1  0  0  0  0
 14 20  2  0  0  0  0
 11 12  1  0  0  0  0
 11 13  1  0  0  0  0
 11 14  1  0  0  0  0
  9 10  1  0  0  0  0
  9 11  1  0  0  0  0
  9 22  1  0  0  0  0
  7  8  1  0  0  0  0
  7  9  1  0  0  0  0
 26 27  1  0  0  0  0
 26 28  1  0  0  0  0
 26 29  1  0  0  0  0
 24 25  1  0  0  0  0
 24 26  1  0  0  0  0
M  END
$$$$
default_name
  -OEChem-02102213163D

 29 29  0     1  0  0  0  0  0999 V2000
   -2.9561   -3.9186    1.3887 H   0  0  0  0  0  0  0  0  0  0  0  0
   -3.1191   -2.9346    0.9517 C   0  0  0  0  0  0  0  0  0  0  0  0
   -3.7811   -2.3546    1.5917 H   0  0  0  0  0  0  0  0  0  0  0  0
   -3.5591   -3.0406   -0.0383 H   0  0  0  0  0  0  0  0  0  0  0  0
   -1.7921   -2.2226    0.8327 C   0  0  0  0  0  0  0  0  0  0  0  0
   -0.7611   -2.7766    1.1927 O   0  0  0  0  0  0  0  0  0  0  0  0
   -1.8201   -0.9926    0.3247 N   0  0  0  0  0  0  0  0  0  0  0  0
   -2.7141   -0.5816    0.0927 H   0  0  0  0  0  0  0  0  0  0  0  0
   -0.6481   -0.1156    0.2017 C   0  0  1  0  0  0  0  0  0  0  0  0
    0.1042   -0.6345   -0.3958 H   0  0  0  0  0  0  0  0  0  0  0  0
   -1.0420    1.1781   -0.5372 C   0  0  0  0  0  0  0  0  0  0  0  0
   -0.6539    1.1539   -1.5566 H   0  0  0  0  0  0  0  0  0  0  0  0
   -2.1286    1.2503   -0.6014 H   0  0  0  0  0  0  0  0  0  0  0  0
   -0.4940    2.4204    0.1220 C   0  0  0  0  0  0  0  0  0  0  0  0
    0.8079    2.5880    0.5956 N   0  0  0  0  0  0  0  0  0  0  0  0
    0.8746    3.8462    1.0549 C   0  0  0  0  0  0  0  0  0  0  0  0
    1.7553    4.2889    1.5028 H   0  0  0  0  0  0  0  0  0  0  0  0
   -0.2983    4.4755    0.8717 N   0  0  0  0  0  0  0  0  0  0  0  0
   -0.4924    5.4367    1.1171 H   0  0  0  0  0  0  0  0  0  0  0  0
   -1.1740    3.5925    0.2801 C   0  0  0  0  0  0  0  0  0  0  0  0
   -2.1956    3.7795   -0.0260 H   0  0  0  0  0  0  0  0  0  0  0  0
   -0.0283    0.1609    1.5831 C   0  0  0  0  0  0  0  0  0  0  0  0
    1.1923    0.1056    1.7329 O   0  0  0  0  0  0  0  0  0  0  0  0
   -0.8586    0.4659    2.5853 N   0  0  0  0  0  0  0  0  0  0  0  0
   -1.8521    0.3848    2.4000 H   0  0  0  0  0  0  0  0  0  0  0  0
   -0.4403    0.7694    3.9518 C   0  0  0  0  0  0  0  0  0  0  0  0
    0.5066    1.3154    3.9421 H   0  0  0  0  0  0  0  0  0  0  0  0
   -1.1988    1.3789    4.4452 H   0  0  0  0  0  0  0  0  0  0  0  0
   -0.3053   -0.1600    4.5075 H   0  0  0  0  0  0  0  0  0  0  0  0
  5  6  2  0  0  0  0
  5  7  1  0  0  0  0
  2  3  1  0  0  0  0
  2  4  1  0  0  0  0
  2  5  1  0  0  0  0
  1  2  1  0  0  0  0
 22 23  2  0  0  0  0
 22 24  1  0  0  0  0
 20 21  1  0  0  0  0
 18 19  1  0  0  0  0
 18 20  1  0  0  0  0
 16 17  1  0  0  0  0
 16 18  1  0  0  0  0
 15 16  2  0  0  0  0
 14 15  1  0  0  0  0
 14 20  2  0  0  0  0
 11 12  1  0  0  0  0
 11 13  1  0  0  0  0
 11 14  1  0  0  0  0
  9 10  1  0  0  0  0
  9 11  1  0  0  0  0
  9 22  1  0  0  0  0
  7  8  1  0  0  0  0
  7  9  1  0  0  0  0
 26 27  1  0  0  0  0
 26 28  1  0  0  0  0
 26 29  1  0  0  0  0
 24 25  1  0  0  0  0
 24 26  1  0  0  0  0
M  END
$$$$
default_name
  -OEChem-02102213163D

 29 29  0     1  0  0  0  0  0999 V2000
   -2.9561   -3.9186    1.3887 H   0  0  0  0  0  0  0  0  0  0  0  0
   -3.1191   -2.9346    0.9517 C   0  0  0  0  0  0  0  0  0  0  0  0
   -3.7811   -2.3546    1.5917 H   0  0  0  0  0  0  0  0  0  0  0  0
   -3.5591   -3.0406   -0.0383 H   0  0  0  0  0  0  0  0  0  0  0  0
   -1.7921   -2.2226    0.8327 C   0  0  0  0  0  0  0  0  0  0  0  0
   -0.7611   -2.7766    1.1927 O   0  0  0  0  0  0  0  0  0  0  0  0
   -1.8201   -0.9926    0.3247 N   0  0  0  0  0  0  0  0  0  0  0  0
   -2.7141   -0.5816    0.0927 H   0  0  0  0  0  0  0  0  0  0  0  0
   -0.6481   -0.1156    0.2017 C   0  0  1  0  0  0  0  0  0  0  0  0
    0.1042   -0.6345   -0.3958 H   0  0  0  0  0  0  0  0  0  0  0  0
   -1.0420    1.1781   -0.5372 C   0  0  0  0  0  0  0  0  0  0  0  0
   -0.6539    1.1539   -1.5566 H   0  0  0  0  0  0  0  0  0  0  0  0
   -2.1286    1.2503   -0.6014 H   0  0  0  0  0  0  0  0  0  0  0  0
   -0.4940    2.4204    0.1220 C   0  0  0  0  0  0  0  0  0  0  0  0
    0.8556    2.7080    0.3300 N   0  0  0  0  0  0  0  0  0  0  0  0
    0.8912    3.9229    0.8965 C   0  0  0  0  0  0  0  0  0  0  0  0
    1.7982    4.4327    1.1961 H   0  0  0  0  0  0  0  0  0  0  0  0
   -0.3517    4.4158    1.0287 N   0  0  0  0  0  0  0  0  0  0  0  0
   -0.5854    5.3224    1.4097 H   0  0  0  0  0  0  0  0  0  0  0  0
   -1.2399    3.4829    0.5414 C   0  0  0  0  0  0  0  0  0  0  0  0
   -2.3174    3.5670    0.4757 H   0  0  0  0  0  0  0  0  0  0  0  0
   -0.0283    0.1609    1.5831 C   0  0  0  0  0  0  0  0  0  0  0  0
    1.1923    0.1056    1.7329 O   0  0  0  0  0  0  0  0  0  0  0  0
   -0.8586    0.4659    2.5853 N   0  0  0  0  0  0  0  0  0  0  0  0
   -1.8521    0.3848    2.4000 H   0  0  0  0  0  0  0  0  0  0  0  0
   -0.4403    0.7694    3.9518 C   0  0  0  0  0  0  0  0  0  0  0  0
    0.5066    1.3154    3.9421 H   0  0  0  0  0  0  0  0  0  0  0  0
   -1.1988    1.3789    4.4452 H   0  0  0  0  0  0  0  0  0  0  0  0
   -0.3053   -0.1600    4.5075 H   0  0  0  0  0  0  0  0  0  0  0  0
  5  6  2  0  0  0  0
  5  7  1  0  0  0  0
  2  3  1  0  0  0  0
  2  4  1  0  0  0  0
  2  5  1  0  0  0  0
  1  2  1  0  0  0  0
 22 23  2  0  0  0  0
 22 24  1  0  0  0  0
 20 21  1  0  0  0  0
 18 19  1  0  0  0  0
 18 20  1  0  0  0  0
 16 17  1  0  0  0  0
 16 18  1  0  0  0  0
 15 16  2  0  0  0  0
 14 15  1  0  0  0  0
 14 20  2  0  0  0  0
 11 12  1  0  0  0  0
 11 13  1  0  0  0  0
 11 14  1  0  0  0  0
  9 10  1  0  0  0  0
  9 11  1  0  0  0  0
  9 22  1  0  0  0  0
  7  8  1  0  0  0  0
  7  9  1  0  0  0  0
 26 27  1  0  0  0  0
 26 28  1  0  0  0  0
 26 29  1  0  0  0  0
 24 25  1  0  0  0  0
 24 26  1  0  0  0  0
M  END
$$$$
default_name
  -OEChem-02102213163D

 29 29  0     1  0  0  0  0  0999 V2000
   -2.9561   -3.9186    1.3887 H   0  0  0  0  0  0  0  0  0  0  0  0
   -3.1191   -2.9346    0.9517 C   0  0  0  0  0  0  0  0  0  0  0  0
   -3.7811   -2.3546    1.5917 H   0  0  0  0  0  0  0  0  0  0  0  0
   -3.5591   -3.0406   -0.0383 H   0  0  0  0  0  0  0  0  0  0  0  0
   -1.7921   -2.2226    0.8327 C   0  0  0  0  0  0  0  0  0  0  0  0
   -0.7611   -2.7766    1.1927 O   0  0  0  0  0  0  0  0  0  0  0  0
   -1.8201   -0.9926    0.3247 N   0  0  0  0  0  0  0  0  0  0  0  0
   -2.7141   -0.5816    0.0927 H   0  0  0  0  0  0  0  0  0  0  0  0
   -0.6481   -0.1156    0.2017 C   0  0  1  0  0  0  0  0  0  0  0  0
    0.1042   -0.6345   -0.3958 H   0  0  0  0  0  0  0  0  0  0  0  0
   -1.0420    1.1781   -0.5372 C   0  0  0  0  0  0  0  0  0  0  0  0
   -0.6539    1.1539   -1.5566 H   0  0  0  0  0  0  0  0  0  0  0  0
   -2.1286    1.2503   -0.6014 H   0  0  0  0  0  0  0  0  0  0  0  0
   -0.4940    2.4204    0.1220 C   0  0  0  0  0  0  0  0  0  0  0  0
    0.8315    2.8541    0.0746 N   0  0  0  0  0  0  0  0  0  0  0  0
    0.8648    4.0138    0.7471 C   0  0  0  0  0  0  0  0  0  0  0  0
    1.7579    4.6053    0.9044 H   0  0  0  0  0  0  0  0  0  0  0  0
   -0.3632    4.3373    1.1861 N   0  0  0  0  0  0  0  0  0  0  0  0
   -0.6000    5.1741    1.7014 H   0  0  0  0  0  0  0  0  0  0  0  0
   -1.2356    3.3451    0.7976 C   0  0  0  0  0  0  0  0  0  0  0  0
   -2.3042    3.3008    0.9663 H   0  0  0  0  0  0  0  0  0  0  0  0
   -0.0283    0.1609    1.5831 C   0  0  0  0  0  0  0  0  0  0  0  0
    1.1923    0.1056    1.7329 O   0  0  0  0  0  0  0  0  0  0  0  0
   -0.8586    0.4659    2.5853 N   0  0  0  0  0  0  0  0  0  0  0  0
   -1.8521    0.3848    2.4000 H   0  0  0  0  0  0  0  0  0  0  0  0
   -0.4403    0.7694    3.9518 C   0  0  0  0  0  0  0  0  0  0  0  0
    0.5066    1.3154    3.9421 H   0  0  0  0  0  0  0  0  0  0  0  0
   -1.1988    1.3789    4.4452 H   0  0  0  0  0  0  0  0  0  0  0  0
   -0.3053   -0.1600    4.5075 H   0  0  0  0  0  0  0  0  0  0  0  0
  5  6  2  0  0  0  0
  5  7  1  0  0  0  0
  2  3  1  0  0  0  0
  2  4  1  0  0  0  0
  2  5  1  0  0  0  0
  1  2  1  0  0  0  0
 22 23  2  0  0  0  0
 22 24  1  0  0  0  0
 20 21  1  0  0  0  0
 18 19  1  0  0  0  0
 18 20  1  0  0  0  0
 16 17  1  0  0  0  0
 16 18  1  0  0  0  0
 15 16  2  0  0  0  0
 14 15  1  0  0  0  0
 14 20  2  0  0  0  0
 11 12  1  0  0  0  0
 11 13  1  0  0  0  0
 11 14  1  0  0  0  0
  9 10  1  0  0  0  0
  9 11  1  0  0  0  0
  9 22  1  0  0  0  0
  7  8  1  0  0  0  0
  7  9  1  0  0  0  0
 26 27  1  0  0  0  0
 26 28  1  0  0  0  0
 26 29  1  0  0  0  0
 24 25  1  0  0  0  0
 24 26  1  0  0  0  0
M  END
$$$$
default_name
  -OEChem-02102213163D

 29 29  0     1  0  0  0  0  0999 V2000
   -2.9561   -3.9186    1.3887 H   0  0  0  0  0  0  0  0  0  0  0  0
   -3.1191   -2.9346    0.9517 C   0  0  0  0  0  0  0  0  0  0  0  0
   -3.7811   -2.3546    1.5917 H   0  0  0  0  0  0  0  0  0  0  0  0
   -3.5591   -3.0406   -0.0383 H   0  0  0  0  0  0  0  0  0  0  0  0
   -1.7921   -2.2226    0.8327 C   0  0  0  0  0  0  0  0  0  0  0  0
   -0.7611   -2.7766    1.1927 O   0  0  0  0  0  0  0  0  0  0  0  0
   -1.8201   -0.9926    0.3247 N   0  0  0  0  0  0  0  0  0  0  0  0
   -2.7141   -0.5816    0.0927 H   0  0  0  0  0  0  0  0  0  0  0  0
   -0.6481   -0.1156    0.2017 C   0  0  1  0  0  0  0  0  0  0  0  0
    0.1042   -0.6345   -0.3958 H   0  0  0  0  0  0  0  0  0  0  0  0
   -1.0420    1.1781   -0.5372 C   0  0  0  0  0  0  0  0  0  0  0  0
   -0.6539    1.1539   -1.5566 H   0  0  0  0  0  0  0  0  0  0  0  0
   -2.1286    1.2503   -0.6014 H   0  0  0  0  0  0  0  0  0  0  0  0
   -0.4940    2.4204    0.1220 C   0  0  0  0  0  0  0  0  0  0  0  0
    0.7373    3.0166   -0.1532 N   0  0  0  0  0  0  0  0  0  0  0  0
    0.7972    4.1127    0.6170 C   0  0  0  0  0  0  0  0  0  0  0  0
    1.6374    4.7949    0.6473 H   0  0  0  0  0  0  0  0  0  0  0  0
   -0.3319    4.2454    1.3332 N   0  0  0  0  0  0  0  0  0  0  0  0
   -0.5352    5.0017    1.9724 H   0  0  0  0  0  0  0  0  0  0  0  0
   -1.1612    3.1883    1.0311 C   0  0  0  0  0  0  0  0  0  0  0  0
   -2.1568    2.9991    1.4124 H   0  0  0  0  0  0  0  0  0  0  0  0
   -0.0283    0.1609    1.5831 C   0  0  0  0  0  0  0  0  0  0  0  0
    1.1923    0.1056    1.7329 O   0  0  0  0  0  0  0  0  0  0  0  0
   -0.8586    0.4659    2.5853 N   0  0  0  0  0  0  0  0  0  0  0  0
   -1.8521    0.3848    2.4000 H   0  0  0  0  0  0  0  0  0  0  0  0
   -0.4403    0.7694    3.9518 C   0  0  0  0  0  0  0  0  0  0  0  0
    0.5066    1.3154    3.9421 H   0  0  0  0  0  0  0  0  0  0  0  0
   -1.1988    1.3789    4.4452 H   0  0  0  0  0  0  0  0  0  0  0  0
   -0.3053   -0.1600    4.5075 H   0  0  0  0  0  0  0  0  0  0  0  0
  5  6  2  0  0  0  0
  5  7  1  0  0  0  0
  2  3  1  0  0  0  0
  2  4  1  0  0  0  0
  2  5  1  0  0  0  0
  1  2  1  0  0  0  0
 22 23  2  0  0  0  0
 22 24  1  0  0  0  0
 20 21  1  0  0  0  0
 18 19  1  0  0  0  0
 18 20  1  0  0  0  0
 16 17  1  0  0  0  0
 16 18  1  0  0  0  0
 15 16  2  0  0  0  0
 14 15  1  0  0  0  0
 14 20  2  0  0  0  0
 11 12  1  0  0  0  0
 11 13  1  0  0  0  0
 11 14  1  0  0  0  0
  9 10  1  0  0  0  0
  9 11  1  0  0  0  0
  9 22  1  0  0  0  0
  7  8  1  0  0  0  0
  7  9  1  0  0  0  0
 26 27  1  0  0  0  0
 26 28  1  0  0  0  0
 26 29  1  0  0  0  0
 24 25  1  0  0  0  0
 24 26  1  0  0  0  0
M  END
$$$$
default_name
  -OEChem-02102213163D

 29 29  0     1  0  0  0  0  0999 V2000
   -2.9561   -3.9186    1.3887 H   0  0  0  0  0  0  0  0  0  0  0  0
   -3.1191   -2.9346    0.9517 C   0  0  0  0  0  0  0  0  0  0  0  0
   -3.7811   -2.3546    1.5917 H   0  0  0  0  0  0  0  0  0  0  0  0
   -3.5591   -3.0406   -0.0383 H   0  0  0  0  0  0  0  0  0  0  0  0
   -1.7921   -2.2226    0.8327 C   0  0  0  0  0  0  0  0  0  0  0  0
   -0.7611   -2.7766    1.1927 O   0  0  0  0  0  0  0  0  0  0  0  0
   -1.8201   -0.9926    0.3247 N   0  0  0  0  0  0  0  0  0  0  0  0
   -2.7141   -0.5816    0.0927 H   0  0  0  0  0  0  0  0  0  0  0  0
   -0.6481   -0.1156    0.2017 C   0  0  1  0  0  0  0  0  0  0  0  0
    0.1042   -0.6345   -0.3958 H   0  0  0  0  0  0  0  0  0  0  0  0
   -1.0420    1.1781   -0.5372 C   0  0  0  0  0  0  0  0  0  0  0  0
   -0.6539    1.1539   -1.5566 H   0  0  0  0  0  0  0  0  0  0  0  0
   -2.1286    1.2503   -0.6014 H   0  0  0  0  0  0  0  0  0  0  0  0
   -0.4940    2.4204    0.1220 C   0  0  0  0  0  0  0  0  0  0  0  0
    0.5794    3.1843   -0.3379 N   0  0  0  0  0  0  0  0  0  0  0  0
    0.6930    4.2128    0.5151 C   0  0  0  0  0  0  0  0  0  0  0  0
    1.4448    4.9886    0.4425 H   0  0  0  0  0  0  0  0  0  0  0  0
   -0.2599    4.1464    1.4599 N   0  0  0  0  0  0  0  0  0  0  0  0
   -0.3954    4.8170    2.2041 H   0  0  0  0  0  0  0  0  0  0  0  0
   -1.0219    3.0234    1.2261 C   0  0  0  0  0  0  0  0  0  0  0  0
   -1.8853    2.6824    1.7835 H   0  0  0  0  0  0  0  0  0  0  0  0
   -0.0283    0.1609    1.5831 C   0  0  0  0  0  0  0  0  0  0  0  0
    1.1923    0.1056    1.7329 O   0  0  0  0  0  0  0  0  0  0  0  0
   -0.8586    0.4659    2.5853 N   0  0  0  0  0  0  0  0  0  0  0  0
   -1.8521    0.3848    2.4000 H   0  0  0  0  0  0  0  0  0  0  0  0
   -0.4403    0.7694    3.9518 C   0  0  0  0  0  0  0  0  0  0  0  0
    0.5066    1.3154    3.9421 H   0  0  0  0  0  0  0  0  0  0  0  0
   -1.1988    1.3789    4.4452 H   0  0  0  0  0  0  0  0  0  0  0  0
   -0.3053   -0.1600    4.5075 H   0  0  0  0  0  0  0  0  0  0  0  0
  5  6  2  0  0  0  0
  5  7  1  0  0  0  0
  2  3  1  0  0  0  0
  2  4  1  0  0  0  0
  2  5  1  0  0  0  0
  1  2  1  0  0  0  0
 22 23  2  0  0  0  0
 22 24  1  0  0  0  0
 20 21  1  0  0  0  0
 18 19  1  0  0  0  0
 18 20  1  0  0  0  0
 16 17  1  0  0  0  0
 16 18  1  0  0  0  0
 15 16  2  0  0  0  0
 14 15  1  0  0  0  0
 14 20  2  0  0  0  0
 11 12  1  0  0  0  0
 11 13  1  0  0  0  0
 11 14  1  0  0  0  0
  9 10  1  0  0  0  0
  9 11  1  0  0  0  0
  9 22  1  0  0  0  0
  7  8  1  0  0  0  0
  7  9  1  0  0  0  0
 26 27  1  0  0  0  0
 26 28  1  0  0  0  0
 26 29  1  0  0  0  0
 24 25  1  0  0  0  0
 24 26  1  0  0  0  0
M  END
$$$$
default_name
  -OEChem-02102213163D

 29 29  0     1  0  0  0  0  0999 V2000
   -2.9561   -3.9186    1.3887 H   0  0  0  0  0  0  0  0  0  0  0  0
   -3.1191   -2.9346    0.9517 C   0  0  0  0  0  0  0  0  0  0  0  0
   -3.7811   -2.3546    1.5917 H   0  0  0  0  0  0  0  0  0  0  0  0
   -3.5591   -3.0406   -0.0383 H   0  0  0  0  0  0  0  0  0  0  0  0
   -1.7921   -2.2226    0.8327 C   0  0  0  0  0  0  0  0  0  0  0  0
   -0.7611   -2.7766    1.1927 O   0  0  0  0  0  0  0  0  0  0  0  0
   -1.8201   -0.9926    0.3247 N   0  0  0  0  0  0  0  0  0  0  0  0
   -2.7141   -0.5816    0.0927 H   0  0  0  0  0  0  0  0  0  0  0  0
   -0.6481   -0.1156    0.2017 C   0  0  1  0  0  0  0  0  0  0  0  0
    0.1042   -0.6345   -0.3958 H   0  0  0  0  0  0  0  0  0  0  0  0
   -1.0420    1.1781   -0.5372 C   0  0  0  0  0  0  0  0  0  0  0  0
   -0.6539    1.1539   -1.5566 H   0  0  0  0  0  0  0  0  0  0  0  0
   -2.1286    1.2503   -0.6014 H   0  0  0  0  0  0  0  0  0  0  0  0
   -0.4940    2.4204    0.1220 C   0  0  0  0  0  0  0  0  0  0  0  0
    0.3686    3.3457   -0.4670 N   0  0  0  0  0  0  0  0  0  0  0  0
    0.5594    4.3072    0.4481 C   0  0  0  0  0  0  0  0  0  0  0  0
    1.1933    5.1731    0.3039 H   0  0  0  0  0  0  0  0  0  0  0  0
   -0.1521    4.0469    1.5578 N   0  0  0  0  0  0  0  0  0  0  0  0
   -0.1901    4.6327    2.3807 H   0  0  0  0  0  0  0  0  0  0  0  0
   -0.8272    2.8615    1.3693 C   0  0  0  0  0  0  0  0  0  0  0  0
   -1.5082    2.3723    2.0543 H   0  0  0  0  0  0  0  0  0  0  0  0
   -0.0283    0.1609    1.5831 C   0  0  0  0  0  0  0  0  0  0  0  0
    1.1923    0.1056    1.7329 O   0  0  0  0  0  0  0  0  0  0  0  0
   -0.8586    0.4659    2.5853 N   0  0  0  0  0  0  0  0  0  0  0  0
   -1.8521    0.3848    2.4000 H   0  0  0  0  0  0  0  0  0  0  0  0
   -0.4403    0.7694    3.9518 C   0  0  0  0  0  0  0  0  0  0  0  0
    0.5066    1.3154    3.9421 H   0  0  0  0  0  0  0  0  0  0  0  0
   -1.1988    1.3789    4.4452 H   0  0  0  0  0  0  0  0  0  0  0  0
   -0.3053   -0.1600    4.5075 H   0  0  0  0  0  0  0  0  0  0  0  0
  5  6  2  0  0  0  0
  5  7  1  0  0  0  0
  2  3  1  0  0  0  0
  2  4  1  0  0  0  0
  2  5  1  0  0  0  0
  1  2  1  0  0  0  0
 22 23  2  0  0  0  0
 22 24  1  0  0  0  0
 20 21  1  0  0  0  0
 18 19  1  0  0  0  0
 18 20  1  0  0  0  0
 16 17  1  0  0  0  0
 16 18  1  0  0  0  0
 15 16  2  0  0  0  0
 14 15  1  0  0  0  0
 14 20  2  0  0  0  0
 11 12  1  0  0  0  0
 11 13  1  0  0  0  0
 11 14  1  0  0  0  0
  9 10  1  0  0  0  0
  9 11  1  0  0  0  0
  9 22  1  0  0  0  0
  7  8  1  0  0  0  0
  7  9  1  0  0  0  0
 26 27  1  0  0  0  0
 26 28  1  0  0  0  0
 26 29  1  0  0  0  0
 24 25  1  0  0  0  0
 24 26  1  0  0  0  0
M  END
$$$$
default_name
  -OEChem-02102213163D

 29 29  0     1  0  0  0  0  0999 V2000
   -2.9561   -3.9186    1.3887 H   0  0  0  0  0  0  0  0  0  0  0  0
   -3.1191   -2.9346    0.9517 C   0  0  0  0  0  0  0  0  0  0  0  0
   -3.7811   -2.3546    1.5917 H   0  0  0  0  0  0  0  0  0  0  0  0
   -3.5591   -3.0406   -0.0383 H   0  0  0  0  0  0  0  0  0  0  0  0
   -1.7921   -2.2226    0.8327 C   0  0  0  0  0  0  0  0  0  0  0  0
   -0.7611   -2.7766    1.1927 O   0  0  0  0  0  0  0  0  0  0  0  0
   -1.8201   -0.9926    0.3247 N   0  0  0  0  0  0  0  0  0  0  0  0
   -2.7141   -0.5816    0.0927 H   0  0  0  0  0  0  0  0  0  0  0  0
   -0.6481   -0.1156    0.2017 C   0  0  1  0  0  0  0  0  0  0  0  0
    0.1042   -0.6345   -0.3958 H   0  0  0  0  0  0  0  0  0  0  0  0
   -1.0420    1.1781   -0.5372 C   0  0  0  0  0  0  0  0  0  0  0  0
   -0.6539    1.1539   -1.5566 H   0  0  0  0  0  0  0  0  0  0  0  0
   -2.1286    1.2503   -0.6014 H   0  0  0  0  0  0  0  0  0  0  0  0
   -0.4940    2.4204    0.1220 C   0  0  0  0  0  0  0  0  0  0  0  0
    0.1192    3.4900   -0.5315 N   0  0  0  0  0  0  0  0  0  0  0  0
    0.4053    4.3897    0.4208 C   0  0  0  0  0  0  0  0  0  0  0  0
    0.8999    5.3359    0.2410 H   0  0  0  0  0  0  0  0  0  0  0  0
   -0.0160    3.9539    1.6200 N   0  0  0  0  0  0  0  0  0  0  0  0
    0.0667    4.4613    2.4903 H   0  0  0  0  0  0  0  0  0  0  0  0
   -0.5903    2.7136    1.4509 C   0  0  0  0  0  0  0  0  0  0  0  0
   -1.0512    2.0899    2.2065 H   0  0  0  0  0  0  0  0  0  0  0  0
   -0.0283    0.1609    1.5831 C   0  0  0  0  0  0  0  0  0  0  0  0
    1.1923    0.1056    1.7329 O   0  0  0  0  0  0  0  0  0  0  0  0
   -0.8586    0.4659    2.5853 N   0  0  0  0  0  0  0  0  0  0  0  0
   -1.8521    0.3848    2.4000 H   0  0  0  0  0  0  0  0  0  0  0  0
   -0.4403    0.7694    3.9518 C   0  0  0  0  0  0  0  0  0  0  0  0
    0.5066    1.3154    3.9421 H   0  0  0  0  0  0  0  0  0  0  0  0
   -1.1988    1.3789    4.4452 H   0  0  0  0  0  0  0  0  0  0  0  0
   -0.3053   -0.1600    4.5075 H   0  0  0  0  0  0  0  0  0  0  0  0
  5  6  2  0  0  0  0
  5  7  1  0  0  0  0
  2  3  1  0  0  0  0
  2  4  1  0  0  0  0
  2  5  1  0  0  0  0
  1  2  1  0  0  0  0
 22 23  2  0  0  0  0
 22 24  1  0  0  0  0
 20 21  1  0  0  0  0
 18 19  1  0  0  0  0
 18 20  1  0  0  0  0
 16 17  1  0  0  0  0
 16 18  1  0  0  0  0
 15 16  2  0  0  0  0
 14 15  1  0  0  0  0
 14 20  2  0  0  0  0
 11 12  1  0  0  0  0
 11 13  1  0  0  0  0
 11 14  1  0  0  0  0
  9 10  1  0  0  0  0
  9 11  1  0  0  0  0
  9 22  1  0  0  0  0
  7  8  1  0  0  0  0
  7  9  1  0  0  0  0
 26 27  1  0  0  0  0
 26 28  1  0  0  0  0
 26 29  1  0  0  0  0
 24 25  1  0  0  0  0
 24 26  1  0  0  0  0
M  END
$$$$
default_name
  -OEChem-02102213163D

 29 29  0     1  0  0  0  0  0999 V2000
   -2.9561   -3.9186    1.3887 H   0  0  0  0  0  0  0  0  0  0  0  0
   -3.1191   -2.9346    0.9517 C   0  0  0  0  0  0  0  0  0  0  0  0
   -3.7811   -2.3546    1.5917 H   0  0  0  0  0  0  0  0  0  0  0  0
   -3.5591   -3.0406   -0.0383 H   0  0  0  0  0  0  0  0  0  0  0  0
   -1.7921   -2.2226    0.8327 C   0  0  0  0  0  0  0  0  0  0  0  0
   -0.7611   -2.7766    1.1927 O   0  0  0  0  0  0  0  0  0  0  0  0
   -1.8201   -0.9926    0.3247 N   0  0  0  0  0  0  0  0  0  0  0  0
   -2.7141   -0.5816    0.0927 H   0  0  0  0  0  0  0  0  0  0  0  0
   -0.6481   -0.1156    0.2017 C   0  0  1  0  0  0  0  0  0  0  0  0
    0.1042   -0.6345   -0.3958 H   0  0  0  0  0  0  0  0  0  0  0  0
   -1.0420    1.1781   -0.5372 C   0  0  0  0  0  0  0  0  0  0  0  0
   -0.6539    1.1539   -1.5566 H   0  0  0  0  0  0  0  0  0  0  0  0
   -2.1286    1.2503   -0.6014 H   0  0  0  0  0  0  0  0  0  0  0  0
   -0.4940    2.4204    0.1220 C   0  0  0  0  0  0  0  0  0  0  0  0
   -0.1517    3.6072   -0.5272 N   0  0  0  0  0  0  0  0  0  0  0  0
    0.2414    4.4545    0.4350 C   0  0  0  0  0  0  0  0  0  0  0  0
    0.5847    5.4659    0.2580 H   0  0  0  0  0  0  0  0  0  0  0  0
    0.1393    3.8735    1.6423 N   0  0  0  0  0  0  0  0  0  0  0  0
    0.3574    4.3144    2.5254 H   0  0  0  0  0  0  0  0  0  0  0  0
   -0.3273    2.5900    1.4654 C   0  0  0  0  0  0  0  0  0  0  0  0
   -0.5454    1.8546    2.2296 H   0  0  0  0  0  0  0  0  0  0  0  0
   -0.0283    0.1609    1.5831 C   0  0  0  0  0  0  0  0  0  0  0  0
    1.1923    0.1056    1.7329 O   0  0  0  0  0  0  0  0  0  0  0  0
   -0.8586    0.4659    2.5853 N   0  0  0  0  0  0  0  0  0  0  0  0
   -1.8521    0.3848    2.4000 H   0  0  0  0  0  0  0  0  0  0  0  0
   -0.4403    0.7694    3.9518 C   0  0  0  0  0  0  0  0  0  0  0  0
    0.5066    1.3154    3.9421 H   0  0  0  0  0  0  0  0  0  0  0  0
   -1.1988    1.3789    4.4452 H   0  0  0  0  0  0  0  0  0  0  0  0
   -0.3053   -0.1600    4.5075 H   0  0  0  0  0  0  0  0  0  0  0  0
  5  6  2  0  0  0  0
  5  7  1  0  0  0  0
  2  3  1  0  0  0  0
  2  4  1  0  0  0  0
  2  5  1  0  0  0  0
  1  2  1  0  0  0  0
 22 23  2  0  0  0  0
 22 24  1  0  0  0  0
 20 21  1  0  0  0  0
 18 19  1  0  0  0  0
 18 20  1  0  0  0  0
 16 17  1  0  0  0  0
 16 18  1  0  0  0  0
 15 16  2  0  0  0  0
 14 15  1  0  0  0  0
 14 20  2  0  0  0  0
 11 12  1  0  0  0  0
 11 13  1  0  0  0  0
 11 14  1  0  0  0  0
  9 10  1  0  0  0  0
  9 11  1  0  0  0  0
  9 22  1  0  0  0  0
  7  8  1  0  0  0  0
  7  9  1  0  0  0  0
 26 27  1  0  0  0  0
 26 28  1  0  0  0  0
 26 29  1  0  0  0  0
 24 25  1  0  0  0  0
 24 26  1  0  0  0  0
M  END
$$$$
default_name
  -OEChem-02102213163D

 29 29  0     1  0  0  0  0  0999 V2000
   -2.9561   -3.9186    1.3887 H   0  0  0  0  0  0  0  0  0  0  0  0
   -3.1191   -2.9346    0.9517 C   0  0  0  0  0  0  0  0  0  0  0  0
   -3.7811   -2.3546    1.5917 H   0  0  0  0  0  0  0  0  0  0  0  0
   -3.5591   -3.0406   -0.0383 H   0  0  0  0  0  0  0  0  0  0  0  0
   -1.7921   -2.2226    0.8327 C   0  0  0  0  0  0  0  0  0  0  0  0
   -0.7611   -2.7766    1.1927 O   0  0  0  0  0  0  0  0  0  0  0  0
   -1.8201   -0.9926    0.3247 N   0  0  0  0  0  0  0  0  0  0  0  0
   -2.7141   -0.5816    0.0927 H   0  0  0  0  0  0  0  0  0  0  0  0
   -0.6481   -0.1156    0.2017 C   0  0  1  0  0  0  0  0  0  0  0  0
    0.1042   -0.6345   -0.3958 H   0  0  0  0  0  0  0  0  0  0  0  0
   -1.0420    1.1781   -0.5372 C   0  0  0  0  0  0  0  0  0  0  0  0
   -0.6539    1.1539   -1.5566 H   0  0  0  0  0  0  0  0  0  0  0  0
   -2.1286    1.2503   -0.6014 H   0  0  0  0  0  0  0  0  0  0  0  0
   -0.4940    2.4204    0.1220 C   0  0  0  0  0  0  0  0  0  0  0  0
   -0.4257    3.6894   -0.4543 N   0  0  0  0  0  0  0  0  0  0  0  0
    0.0788    4.4971    0.4898 C   0  0  0  0  0  0  0  0  0  0  0  0
    0.2692    5.5543    0.3537 H   0  0  0  0  0  0  0  0  0  0  0  0
    0.3031    3.8114    1.6232 N   0  0  0  0  0  0  0  0  0  0  0  0
    0.6623    4.2022    2.4835 H   0  0  0  0  0  0  0  0  0  0  0  0
   -0.0563    2.4989    1.4118 C   0  0  0  0  0  0  0  0  0  0  0  0
   -0.0254    1.6822    2.1221 H   0  0  0  0  0  0  0  0  0  0  0  0
   -0.0283    0.1609    1.5831 C   0  0  0  0  0  0  0  0  0  0  0  0
    1.1923    0.1056    1.7329 O   0  0  0  0  0  0  0  0  0  0  0  0
   -0.8586    0.4659    2.5853 N   0  0  0  0  0  0  0  0  0  0  0  0
   -1.8521    0.3848    2.4000 H   0  0  0  0  0  0  0  0  0  0  0  0
   -0.4403    0.7694    3.9518 C   0  0  0  0  0  0  0  0  0  0  0  0
    0.5066    1.3154    3.9421 H   0  0  0  0  0  0  0  0  0  0  0  0
   -1.1988    1.3789    4.4452 H   0  0  0  0  0  0  0  0  0  0  0  0
   -0.3053   -0.1600    4.5075 H   0  0  0  0  0  0  0  0  0  0  0  0
  5  6  2  0  0  0  0
  5  7  1  0  0  0  0
  2  3  1  0  0  0  0
  2  4  1  0  0  0  0
  2  5  1  0  0  0  0
  1  2  1  0  0  0  0
 22 23  2  0  0  0  0
 22 24  1  0  0  0  0
 20 21  1  0  0  0  0
 18 19  1  0  0  0  0
 18 20  1  0  0  0  0
 16 17  1  0  0  0  0
 16 18  1  0  0  0  0
 15 16  2  0  0  0  0
 14 15  1  0  0  0  0
 14 20  2  0  0  0  0
 11 12  1  0  0  0  0
 11 13  1  0  0  0  0
 11 14  1  0  0  0  0
  9 10  1  0  0  0  0
  9 11  1  0  0  0  0
  9 22  1  0  0  0  0
  7  8  1  0  0  0  0
  7  9  1  0  0  0  0
 26 27  1  0  0  0  0
 26 28  1  0  0  0  0
 26 29  1  0  0  0  0
 24 25  1  0  0  0  0
 24 26  1  0  0  0  0
M  END
$$$$
default_name
  -OEChem-02102213163D

 29 29  0     1  0  0  0  0  0999 V2000
   -2.9561   -3.9186    1.3887 H   0  0  0  0  0  0  0  0  0  0  0  0
   -3.1191   -2.9346    0.9517 C   0  0  0  0  0  0  0  0  0  0  0  0
   -3.7811   -2.3546    1.5917 H   0  0  0  0  0  0  0  0  0  0  0  0
   -3.5591   -3.0406   -0.0383 H   0  0  0  0  0  0  0  0  0  0  0  0
   -1.7921   -2.2226    0.8327 C   0  0  0  0  0  0  0  0  0  0  0  0
   -0.7611   -2.7766    1.1927 O   0  0  0  0  0  0  0  0  0  0  0  0
   -1.8201   -0.9926    0.3247 N   0  0  0  0  0  0  0  0  0  0  0  0
   -2.7141   -0.5816    0.0927 H   0  0  0  0  0  0  0  0  0  0  0  0
   -0.6481   -0.1156    0.2017 C   0  0  1  0  0  0  0  0  0  0  0  0
    0.1042   -0.6345   -0.3958 H   0  0  0  0  0  0  0  0  0  0  0  0
   -1.0420    1.1781   -0.5372 C   0  0  0  0  0  0  0  0  0  0  0  0
   -0.8948    1.0497   -1.6106 H   0  0  0  0  0  0  0  0  0  0  0  0
   -2.0997    1.3890   -0.3739 H   0  0  0  0  0  0  0  0  0  0  0  0
   -0.2204    2.3704   -0.1112 C   0  0  0  0  0  0  0  0  0  0  0  0
   -0.3489    3.6698   -0.6037 N   0  0  0  0  0  0  0  0  0  0  0  0
    0.5350    4.4124    0.0786 C   0  0  0  0  0  0  0  0  0  0  0  0
    0.6928    5.4724   -0.0755 H   0  0  0  0  0  0  0  0  0  0  0  0
    1.1846    3.6578    0.9808 N   0  0  0  0  0  0  0  0  0  0  0  0
    1.8851    3.9915    1.6287 H   0  0  0  0  0  0  0  0  0  0  0  0
    0.7183    2.3660    0.8787 C   0  0  0  0  0  0  0  0  0  0  0  0
    1.0106    1.5087    1.4721 H   0  0  0  0  0  0  0  0  0  0  0  0
   -0.0283    0.1609    1.5831 C   0  0  0  0  0  0  0  0  0  0  0  0
    1.1923    0.1056    1.7329 O   0  0  0  0  0  0  0  0  0  0  0  0
   -0.8586    0.4659    2.5853 N   0  0  0  0  0  0  0  0  0  0  0  0
   -1.8521    0.3848    2.4000 H   0  0  0  0  0  0  0  0  0  0  0  0
   -0.4403    0.7694    3.9518 C   0  0  0  0  0  0  0  0  0  0  0  0
    0.5066    1.3154    3.9421 H   0  0  0  0  0  0  0  0  0  0  0  0
   -1.1988    1.3789    4.4452 H   0  0  0  0  0  0  0  0  0  0  0  0
   -0.3053   -0.1600    4.5075 H   0  0  0  0  0  0  0  0  0  0  0  0
  5  6  2  0  0  0  0
  5  7  1  0  0  0  0
  2  3  1  0  0  0  0
  2  4  1  0  0  0  0
  2  5  1  0  0  0  0
  1  2  1  0  0  0  0
 22 23  2  0  0  0  0
 22 24  1  0  0  0  0
 20 21  1  0  0  0  0
 18 19  1  0  0  0  0
 18 20  1  0  0  0  0
 16 17  1  0  0  0  0
 16 18  1  0  0  0  0
 15 16  2  0  0  0  0
 14 15  1  0  0  0  0
 14 20  2  0  0  0  0
 11 12  1  0  0  0  0
 11 13  1  0  0  0  0
 11 14  1  0  0  0  0
  9 10  1  0  0  0  0
  9 11  1  0  0  0  0
  9 22  1  0  0  0  0
  7  8  1  0  0  0  0
  7  9  1  0  0  0  0
 26 27  1  0  0  0  0
 26 28  1  0  0  0  0
 26 29  1  0  0  0  0
 24 25  1  0  0  0  0
 24 26  1  0  0  0  0
M  END
$$$$
default_name
  -OEChem-02102213163D

 29 29  0     1  0  0  0  0  0999 V2000
   -2.9561   -3.9186    1.3887 H   0  0  0  0  0  0  0  0  0  0  0  0
   -3.1191   -2.9346    0.9517 C   0  0  0  0  0  0  0  0  0  0  0  0
   -3.7811   -2.3546    1.5917 H   0  0  0  0  0  0  0  0  0  0  0  0
   -3.5591   -3.0406   -0.0383 H   0  0  0  0  0  0  0  0  0  0  0  0
   -1.7921   -2.2226    0.8327 C   0  0  0  0  0  0  0  0  0  0  0  0
   -0.7611   -2.7766    1.1927 O   0  0  0  0  0  0  0  0  0  0  0  0
   -1.8201   -0.9926    0.3247 N   0  0  0  0  0  0  0  0  0  0  0  0
   -2.7141   -0.5816    0.0927 H   0  0  0  0  0  0  0  0  0  0  0  0
   -0.6481   -0.1156    0.2017 C   0  0  1  0  0  0  0  0  0  0  0  0
    0.1042   -0.6345   -0.3958 H   0  0  0  0  0  0  0  0  0  0  0  0
   -1.0420    1.1781   -0.5372 C   0  0  0  0  0  0  0  0  0  0  0  0
   -0.8948    1.0497   -1.6106 H   0  0  0  0  0  0  0  0  0  0  0  0
   -2.0997    1.3890   -0.3739 H   0  0  0  0  0  0  0  0  0  0  0  0
   -0.2204    2.3704   -0.1112 C   0  0  0  0  0  0  0  0  0  0  0  0
   -0.5249    3.7075   -0.3698 N   0  0  0  0  0  0  0  0  0  0  0  0
    0.4375    4.4272    0.2254 C   0  0  0  0  0  0  0  0  0  0  0  0
    0.4972    5.5080    0.2020 H   0  0  0  0  0  0  0  0  0  0  0  0
    1.3047    3.6190    0.8578 N   0  0  0  0  0  0  0  0  0  0  0  0
    2.1048    3.9235    1.3953 H   0  0  0  0  0  0  0  0  0  0  0  0
    0.9036    2.3164    0.6600 C   0  0  0  0  0  0  0  0  0  0  0  0
    1.3634    1.4167    1.0492 H   0  0  0  0  0  0  0  0  0  0  0  0
   -0.0283    0.1609    1.5831 C   0  0  0  0  0  0  0  0  0  0  0  0
    1.1923    0.1056    1.7329 O   0  0  0  0  0  0  0  0  0  0  0  0
   -0.8586    0.4659    2.5853 N   0  0  0  0  0  0  0  0  0  0  0  0
   -1.8521    0.3848    2.4000 H   0  0  0  0  0  0  0  0  0  0  0  0
   -0.4403    0.7694    3.9518 C   0  0  0  0  0  0  0  0  0  0  0  0
    0.5066    1.3154    3.9421 H   0  0  0  0  0  0  0  0  0  0  0  0
   -1.1988    1.3789    4.4452 H   0  0  0  0  0  0  0  0  0  0  0  0
   -0.3053   -0.1600    4.5075 H   0  0  0  0  0  0  0  0  0  0  0  0
  5  6  2  0  0  0  0
  5  7  1  0  0  0  0
  2  3  1  0  0  0  0
  2  4  1  0  0  0  0
  2  5  1  0  0  0  0
  1  2  1  0  0  0  0
 22 23  2  0  0  0  0
 22 24  1  0  0  0  0
 20 21  1  0  0  0  0
 18 19  1  0  0  0  0
 18 20  1  0  0  0  0
 16 17  1  0  0  0  0
 16 18  1  0  0  0  0
 15 16  2  0  0  0  0
 14 15  1  0  0  0  0
 14 20  2  0  0  0  0
 11 12  1  0  0  0  0
 11 13  1  0  0  0  0
 11 14  1  0  0  0  0
  9 10  1  0  0  0  0
  9 11  1  0  0  0  0
  9 22  1  0  0  0  0
  7  8  1  0  0  0  0
  7  9  1  0  0  0  0
 26 27  1  0  0  0  0
 26 28  1  0  0  0  0
 26 29  1  0  0  0  0
 24 25  1  0  0  0  0
 24 26  1  0  0  0  0
M  END
$$$$
default_name
  -OEChem-02102213163D

 29 29  0     1  0  0  0  0  0999 V2000
   -2.9561   -3.9186    1.3887 H   0  0  0  0  0  0  0  0  0  0  0  0
   -3.1191   -2.9346    0.9517 C   0  0  0  0  0  0  0  0  0  0  0  0
   -3.7811   -2.3546    1.5917 H   0  0  0  0  0  0  0  0  0  0  0  0
   -3.5591   -3.0406   -0.0383 H   0  0  0  0  0  0  0  0  0  0  0  0
   -1.7921   -2.2226    0.8327 C   0  0  0  0  0  0  0  0  0  0  0  0
   -0.7611   -2.7766    1.1927 O   0  0  0  0  0  0  0  0  0  0  0  0
   -1.8201   -0.9926    0.3247 N   0  0  0  0  0  0  0  0  0  0  0  0
   -2.7141   -0.5816    0.0927 H   0  0  0  0  0  0  0  0  0  0  0  0
   -0.6481   -0.1156    0.2017 C   0  0  1  0  0  0  0  0  0  0  0  0
    0.1042   -0.6345   -0.3958 H   0  0  0  0  0  0  0  0  0  0  0  0
   -1.0420    1.1781   -0.5372 C   0  0  0  0  0  0  0  0  0  0  0  0
   -0.8948    1.0497   -1.6106 H   0  0  0  0  0  0  0  0  0  0  0  0
   -2.0997    1.3890   -0.3739 H   0  0  0  0  0  0  0  0  0  0  0  0
   -0.2204    2.3704   -0.1112 C   0  0  0  0  0  0  0  0  0  0  0  0
   -0.6499    3.6981   -0.1025 N   0  0  0  0  0  0  0  0  0  0  0  0
    0.3722    4.4137    0.3892 C   0  0  0  0  0  0  0  0  0  0  0  0
    0.3625    5.4890    0.5151 H   0  0  0  0  0  0  0  0  0  0  0  0
    1.3984    3.6076    0.7090 N   0  0  0  0  0  0  0  0  0  0  0  0
    2.2743    3.9068    1.1155 H   0  0  0  0  0  0  0  0  0  0  0  0
    1.0416    2.3129    0.4039 C   0  0  0  0  0  0  0  0  0  0  0  0
    1.6244    1.4132    0.5557 H   0  0  0  0  0  0  0  0  0  0  0  0
   -0.0283    0.1609    1.5831 C   0  0  0  0  0  0  0  0  0  0  0  0
    1.1923    0.1056    1.7329 O   0  0  0  0  0  0  0  0  0  0  0  0
   -0.8586    0.4659    2.5853 N   0  0  0  0  0  0  0  0  0  0  0  0
   -1.8521    0.3848    2.4000 H   0  0  0  0  0  0  0  0  0  0  0  0
   -0.4403    0.7694    3.9518 C   0  0  0  0  0  0  0  0  0  0  0  0
    0.5066    1.3154    3.9421 H   0  0  0  0  0  0  0  0  0  0  0  0
   -1.1988    1.3789    4.4452 H   0  0  0  0  0  0  0  0  0  0  0  0
   -0.3053   -0.1600    4.5075 H   0  0  0  0  0  0  0  0  0  0  0  0
  5  6  2  0  0  0  0
  5  7  1  0  0  0  0
  2  3  1  0  0  0  0
  2  4  1  0  0  0  0
  2  5  1  0  0  0  0
  1  2  1  0  0  0  0
 22 23  2  0  0  0  0
 22 24  1  0  0  0  0
 20 21  1  0  0  0  0
 18 19  1  0  0  0  0
 18 20  1  0  0  0  0
 16 17  1  0  0  0  0
 16 18  1  0  0  0  0
 15 16  2  0  0  0  0
 14 15  1  0  0  0  0
 14 20  2  0  0  0  0
 11 12  1  0  0  0  0
 11 13  1  0  0  0  0
 11 14  1  0  0  0  0
  9 10  1  0  0  0  0
  9 11  1  0  0  0  0
  9 22  1  0  0  0  0
  7  8  1  0  0  0  0
  7  9  1  0  0  0  0
 26 27  1  0  0  0  0
 26 28  1  0  0  0  0
 26 29  1  0  0  0  0
 24 25  1  0  0  0  0
 24 26  1  0  0  0  0
M  END
$$$$
default_name
  -OEChem-02102213163D

 29 29  0     1  0  0  0  0  0999 V2000
   -2.9561   -3.9186    1.3887 H   0  0  0  0  0  0  0  0  0  0  0  0
   -3.1191   -2.9346    0.9517 C   0  0  0  0  0  0  0  0  0  0  0  0
   -3.7811   -2.3546    1.5917 H   0  0  0  0  0  0  0  0  0  0  0  0
   -3.5591   -3.0406   -0.0383 H   0  0  0  0  0  0  0  0  0  0  0  0
   -1.7921   -2.2226    0.8327 C   0  0  0  0  0  0  0  0  0  0  0  0
   -0.7611   -2.7766    1.1927 O   0  0  0  0  0  0  0  0  0  0  0  0
   -1.8201   -0.9926    0.3247 N   0  0  0  0  0  0  0  0  0  0  0  0
   -2.7141   -0.5816    0.0927 H   0  0  0  0  0  0  0  0  0  0  0  0
   -0.6481   -0.1156    0.2017 C   0  0  1  0  0  0  0  0  0  0  0  0
    0.1042   -0.6345   -0.3958 H   0  0  0  0  0  0  0  0  0  0  0  0
   -1.0420    1.1781   -0.5372 C   0  0  0  0  0  0  0  0  0  0  0  0
   -0.8948    1.0497   -1.6106 H   0  0  0  0  0  0  0  0  0  0  0  0
   -2.0997    1.3890   -0.3739 H   0  0  0  0  0  0  0  0  0  0  0  0
   -0.2204    2.3704   -0.1112 C   0  0  0  0  0  0  0  0  0  0  0  0
   -0.7153    3.6423    0.1800 N   0  0  0  0  0  0  0  0  0  0  0  0
    0.3436    4.3728    0.5588 C   0  0  0  0  0  0  0  0  0  0  0  0
    0.2978    5.4167    0.8424 H   0  0  0  0  0  0  0  0  0  0  0  0
    1.4594    3.6244    0.5444 N   0  0  0  0  0  0  0  0  0  0  0  0
    2.3820    3.9424    0.8081 H   0  0  0  0  0  0  0  0  0  0  0  0
    1.1227    2.3557    0.1278 C   0  0  0  0  0  0  0  0  0  0  0  0
    1.7759    1.4983    0.0251 H   0  0  0  0  0  0  0  0  0  0  0  0
   -0.0283    0.1609    1.5831 C   0  0  0  0  0  0  0  0  0  0  0  0
    1.1923    0.1056    1.7329 O   0  0  0  0  0  0  0  0  0  0  0  0
   -0.8586    0.4659    2.5853 N   0  0  0  0  0  0  0  0  0  0  0  0
   -1.8521    0.3848    2.4000 H   0  0  0  0  0  0  0  0  0  0  0  0
   -0.4403    0.7694    3.9518 C   0  0  0  0  0  0  0  0  0  0  0  0
    0.5066    1.3154    3.9421 H   0  0  0  0  0  0  0  0  0  0  0  0
   -1.1988    1.3789    4.4452 H   0  0  0  0  0  0  0  0  0  0  0  0
   -0.3053   -0.1600    4.5075 H   0  0  0  0  0  0  0  0  0  0  0  0
  5  6  2  0  0  0  0
  5  7  1  0  0  0  0
  2  3  1  0  0  0  0
  2  4  1  0  0  0  0
  2  5  1  0  0  0  0
  1  2  1  0  0  0  0
 22 23  2  0  0  0  0
 22 24  1  0  0  0  0
 20 21  1  0  0  0  0
 18 19  1  0  0  0  0
 18 20  1  0  0  0  0
 16 17  1  0  0  0  0
 16 18  1  0  0  0  0
 15 16  2  0  0  0  0
 14 15  1  0  0  0  0
 14 20  2  0  0  0  0
 11 12  1  0  0  0  0
 11 13  1  0  0  0  0
 11 14  1  0  0  0  0
  9 10  1  0  0  0  0
  9 11  1  0  0  0  0
  9 22  1  0  0  0  0
  7  8  1  0  0  0  0
  7  9  1  0  0  0  0
 26 27  1  0  0  0  0
 26 28  1  0  0  0  0
 26 29  1  0  0  0  0
 24 25  1  0  0  0  0
 24 26  1  0  0  0  0
M  END
$$$$
default_name
  -OEChem-02102213163D

 29 29  0     1  0  0  0  0  0999 V2000
   -2.9561   -3.9186    1.3887 H   0  0  0  0  0  0  0  0  0  0  0  0
   -3.1191   -2.9346    0.9517 C   0  0  0  0  0  0  0  0  0  0  0  0
   -3.7811   -2.3546    1.5917 H   0  0  0  0  0  0  0  0  0  0  0  0
   -3.5591   -3.0406   -0.0383 H   0  0  0  0  0  0  0  0  0  0  0  0
   -1.7921   -2.2226    0.8327 C   0  0  0  0  0  0  0  0  0  0  0  0
   -0.7611   -2.7766    1.1927 O   0  0  0  0  0  0  0  0  0  0  0  0
   -1.8201   -0.9926    0.3247 N   0  0  0  0  0  0  0  0  0  0  0  0
   -2.7141   -0.5816    0.0927 H   0  0  0  0  0  0  0  0  0  0  0  0
   -0.6481   -0.1156    0.2017 C   0  0  1  0  0  0  0  0  0  0  0  0
    0.1042   -0.6345   -0.3958 H   0  0  0  0  0  0  0  0  0  0  0  0
   -1.0420    1.1781   -0.5372 C   0  0  0  0  0  0  0  0  0  0  0  0
   -0.8948    1.0497   -1.6106 H   0  0  0  0  0  0  0  0  0  0  0  0
   -2.0997    1.3890   -0.3739 H   0  0  0  0  0  0  0  0  0  0  0  0
   -0.2204    2.3704   -0.1112 C   0  0  0  0  0  0  0  0  0  0  0  0
   -0.7167    3.5438    0.4583 N   0  0  0  0  0  0  0  0  0  0  0  0
    0.3536    4.3073    0.7228 C   0  0  0  0  0  0  0  0  0  0  0  0
    0.3074    5.2960    1.1616 H   0  0  0  0  0  0  0  0  0  0  0  0
    1.4833    3.6682    0.3754 N   0  0  0  0  0  0  0  0  0  0  0  0
    2.4206    4.0279    0.4942 H   0  0  0  0  0  0  0  0  0  0  0  0
    1.1415    2.4418   -0.1495 C   0  0  0  0  0  0  0  0  0  0  0  0
    1.8076    1.6664   -0.5064 H   0  0  0  0  0  0  0  0  0  0  0  0
   -0.0283    0.1609    1.5831 C   0  0  0  0  0  0  0  0  0  0  0  0
    1.1923    0.1056    1.7329 O   0  0  0  0  0  0  0  0  0  0  0  0
   -0.8586    0.4659    2.5853 N   0  0  0  0  0  0  0  0  0  0  0  0
   -1.8521    0.3848    2.4000 H   0  0  0  0  0  0  0  0  0  0  0  0
   -0.4403    0.7694    3.9518 C   0  0  0  0  0  0  0  0  0  0  0  0
    0.5066    1.3154    3.9421 H   0  0  0  0  0  0  0  0  0  0  0  0
   -1.1988    1.3789    4.4452 H   0  0  0  0  0  0  0  0  0  0  0  0
   -0.3053   -0.1600    4.5075 H   0  0  0  0  0  0  0  0  0  0  0  0
  5  6  2  0  0  0  0
  5  7  1  0  0  0  0
  2  3  1  0  0  0  0
  2  4  1  0  0  0  0
  2  5  1  0  0  0  0
  1  2  1  0  0  0  0
 22 23  2  0  0  0  0
 22 24  1  0  0  0  0
 20 21  1  0  0  0  0
 18 19  1  0  0  0  0
 18 20  1  0  0  0  0
 16 17  1  0  0  0  0
 16 18  1  0  0  0  0
 15 16  2  0  0  0  0
 14 15  1  0  0  0  0
 14 20  2  0  0  0  0
 11 12  1  0  0  0  0
 11 13  1  0  0  0  0
 11 14  1  0  0  0  0
  9 10  1  0  0  0  0
  9 11  1  0  0  0  0
  9 22  1  0  0  0  0
  7  8  1  0  0  0  0
  7  9  1  0  0  0  0
 26 27  1  0  0  0  0
 26 28  1  0  0  0  0
 26 29  1  0  0  0  0
 24 25  1  0  0  0  0
 24 26  1  0  0  0  0
M  END
$$$$
default_name
  -OEChem-02102213163D

 29 29  0     1  0  0  0  0  0999 V2000
   -2.9561   -3.9186    1.3887 H   0  0  0  0  0  0  0  0  0  0  0  0
   -3.1191   -2.9346    0.9517 C   0  0  0  0  0  0  0  0  0  0  0  0
   -3.7811   -2.3546    1.5917 H   0  0  0  0  0  0  0  0  0  0  0  0
   -3.5591   -3.0406   -0.0383 H   0  0  0  0  0  0  0  0  0  0  0  0
   -1.7921   -2.2226    0.8327 C   0  0  0  0  0  0  0  0  0  0  0  0
   -0.7611   -2.7766    1.1927 O   0  0  0  0  0  0  0  0  0  0  0  0
   -1.8201   -0.9926    0.3247 N   0  0  0  0  0  0  0  0  0  0  0  0
   -2.7141   -0.5816    0.0927 H   0  0  0  0  0  0  0  0  0  0  0  0
   -0.6481   -0.1156    0.2017 C   0  0  1  0  0  0  0  0  0  0  0  0
    0.1042   -0.6345   -0.3958 H   0  0  0  0  0  0  0  0  0  0  0  0
   -1.0420    1.1781   -0.5372 C   0  0  0  0  0  0  0  0  0  0  0  0
   -0.8948    1.0497   -1.6106 H   0  0  0  0  0  0  0  0  0  0  0  0
   -2.0997    1.3890   -0.3739 H   0  0  0  0  0  0  0  0  0  0  0  0
   -0.2204    2.3704   -0.1112 C   0  0  0  0  0  0  0  0  0  0  0  0
   -0.6539    3.4093    0.7135 N   0  0  0  0  0  0  0  0  0  0  0  0
    0.4016    4.2216    0.8698 C   0  0  0  0  0  0  0  0  0  0  0  0
    0.3908    5.1351    1.4509 H   0  0  0  0  0  0  0  0  0  0  0  0
    1.4687    3.7362    0.2134 N   0  0  0  0  0  0  0  0  0  0  0  0
    2.3874    4.1576    0.1952 H   0  0  0  0  0  0  0  0  0  0  0  0
    1.0966    2.5654   -0.4090 C   0  0  0  0  0  0  0  0  0  0  0  0
    1.7172    1.9060   -1.0025 H   0  0  0  0  0  0  0  0  0  0  0  0
   -0.0283    0.1609    1.5831 C   0  0  0  0  0  0  0  0  0  0  0  0
    1.1923    0.1056    1.7329 O   0  0  0  0  0  0  0  0  0  0  0  0
   -0.8586    0.4659    2.5853 N   0  0  0  0  0  0  0  0  0  0  0  0
   -1.8521    0.3848    2.4000 H   0  0  0  0  0  0  0  0  0  0  0  0
   -0.4403    0.7694    3.9518 C   0  0  0  0  0  0  0  0  0  0  0  0
    0.5066    1.3154    3.9421 H   0  0  0  0  0  0  0  0  0  0  0  0
   -1.1988    1.3789    4.4452 H   0  0  0  0  0  0  0  0  0  0  0  0
   -0.3053   -0.1600    4.5075 H   0  0  0  0  0  0  0  0  0  0  0  0
  5  6  2  0  0  0  0
  5  7  1  0  0  0  0
  2  3  1  0  0  0  0
  2  4  1  0  0  0  0
  2  5  1  0  0  0  0
  1  2  1  0  0  0  0
 22 23  2  0  0  0  0
 22 24  1  0  0  0  0
 20 21  1  0  0  0  0
 18 19  1  0  0  0  0
 18 20  1  0  0  0  0
 16 17  1  0  0  0  0
 16 18  1  0  0  0  0
 15 16  2  0  0  0  0
 14 15  1  0  0  0  0
 14 20  2  0  0  0  0
 11 12  1  0  0  0  0
 11 13  1  0  0  0  0
 11 14  1  0  0  0  0
  9 10  1  0  0  0  0
  9 11  1  0  0  0  0
  9 22  1  0  0  0  0
  7  8  1  0  0  0  0
  7  9  1  0  0  0  0
 26 27  1  0  0  0  0
 26 28  1  0  0  0  0
 26 29  1  0  0  0  0
 24 25  1  0  0  0  0
 24 26  1  0  0  0  0
M  END
$$$$
default_name
  -OEChem-02102213163D

 29 29  0     1  0  0  0  0  0999 V2000
   -2.9561   -3.9186    1.3887 H   0  0  0  0  0  0  0  0  0  0  0  0
   -3.1191   -2.9346    0.9517 C   0  0  0  0  0  0  0  0  0  0  0  0
   -3.7811   -2.3546    1.5917 H   0  0  0  0  0  0  0  0  0  0  0  0
   -3.5591   -3.0406   -0.0383 H   0  0  0  0  0  0  0  0  0  0  0  0
   -1.7921   -2.2226    0.8327 C   0  0  0  0  0  0  0  0  0  0  0  0
   -0.7611   -2.7766    1.1927 O   0  0  0  0  0  0  0  0  0  0  0  0
   -1.8201   -0.9926    0.3247 N   0  0  0  0  0  0  0  0  0  0  0  0
   -2.7141   -0.5816    0.0927 H   0  0  0  0  0  0  0  0  0  0  0  0
   -0.6481   -0.1156    0.2017 C   0  0  1  0  0  0  0  0  0  0  0  0
    0.1042   -0.6345   -0.3958 H   0  0  0  0  0  0  0  0  0  0  0  0
   -1.0420    1.1781   -0.5372 C   0  0  0  0  0  0  0  0  0  0  0  0
   -0.8948    1.0497   -1.6106 H   0  0  0  0  0  0  0  0  0  0  0  0
   -2.0997    1.3890   -0.3739 H   0  0  0  0  0  0  0  0  0  0  0  0
   -0.2204    2.3704   -0.1112 C   0  0  0  0  0  0  0  0  0  0  0  0
   -0.5312    3.2481    0.9283 N   0  0  0  0  0  0  0  0  0  0  0  0
    0.4843    4.1217    0.9900 C   0  0  0  0  0  0  0  0  0  0  0  0
    0.5423    4.9451    1.6907 H   0  0  0  0  0  0  0  0  0  0  0  0
    1.4166    3.8235    0.0695 N   0  0  0  0  0  0  0  0  0  0  0  0
    2.2848    4.3226   -0.0686 H   0  0  0  0  0  0  0  0  0  0  0  0
    0.9912    2.7181   -0.6331 C   0  0  0  0  0  0  0  0  0  0  0  0
    1.5110    2.2006   -1.4296 H   0  0  0  0  0  0  0  0  0  0  0  0
   -0.0283    0.1609    1.5831 C   0  0  0  0  0  0  0  0  0  0  0  0
    1.1923    0.1056    1.7329 O   0  0  0  0  0  0  0  0  0  0  0  0
   -0.8586    0.4659    2.5853 N   0  0  0  0  0  0  0  0  0  0  0  0
   -1.8521    0.3848    2.4000 H   0  0  0  0  0  0  0  0  0  0  0  0
   -0.4403    0.7694    3.9518 C   0  0  0  0  0  0  0  0  0  0  0  0
    0.5066    1.3154    3.9421 H   0  0  0  0  0  0  0  0  0  0  0  0
   -1.1988    1.3789    4.4452 H   0  0  0  0  0  0  0  0  0  0  0  0
   -0.3053   -0.1600    4.5075 H   0  0  0  0  0  0  0  0  0  0  0  0
  5  6  2  0  0  0  0
  5  7  1  0  0  0  0
  2  3  1  0  0  0  0
  2  4  1  0  0  0  0
  2  5  1  0  0  0  0
  1  2  1  0  0  0  0
 22 23  2  0  0  0  0
 22 24  1  0  0  0  0
 20 21  1  0  0  0  0
 18 19  1  0  0  0  0
 18 20  1  0  0  0  0
 16 17  1  0  0  0  0
 16 18  1  0  0  0  0
 15 16  2  0  0  0  0
 14 15  1  0  0  0  0
 14 20  2  0  0  0  0
 11 12  1  0  0  0  0
 11 13  1  0  0  0  0
 11 14  1  0  0  0  0
  9 10  1  0  0  0  0
  9 11  1  0  0  0  0
  9 22  1  0  0  0  0
  7  8  1  0  0  0  0
  7  9  1  0  0  0  0
 26 27  1  0  0  0  0
 26 28  1  0  0  0  0
 26 29  1  0  0  0  0
 24 25  1  0  0  0  0
 24 26  1  0  0  0  0
M  END
$$$$
default_name
  -OEChem-02102213163D

 29 29  0     1  0  0  0  0  0999 V2000
   -2.9561   -3.9186    1.3887 H   0  0  0  0  0  0  0  0  0  0  0  0
   -3.1191   -2.9346    0.9517 C   0  0  0  0  0  0  0  0  0  0  0  0
   -3.7811   -2.3546    1.5917 H   0  0  0  0  0  0  0  0  0  0  0  0
   -3.5591   -3.0406   -0.0383 H   0  0  0  0  0  0  0  0  0  0  0  0
   -1.7921   -2.2226    0.8327 C   0  0  0  0  0  0  0  0  0  0  0  0
   -0.7611   -2.7766    1.1927 O   0  0  0  0  0  0  0  0  0  0  0  0
   -1.8201   -0.9926    0.3247 N   0  0  0  0  0  0  0  0  0  0  0  0
   -2.7141   -0.5816    0.0927 H   0  0  0  0  0  0  0  0  0  0  0  0
   -0.6481   -0.1156    0.2017 C   0  0  1  0  0  0  0  0  0  0  0  0
    0.1042   -0.6345   -0.3958 H   0  0  0  0  0  0  0  0  0  0  0  0
   -1.0420    1.1781   -0.5372 C   0  0  0  0  0  0  0  0  0  0  0  0
   -0.8948    1.0497   -1.6106 H   0  0  0  0  0  0  0  0  0  0  0  0
   -2.0997    1.3890   -0.3739 H   0  0  0  0  0  0  0  0  0  0  0  0
   -0.2204    2.3704   -0.1112 C   0  0  0  0  0  0  0  0  0  0  0  0
   -0.3570    3.0710    1.0879 N   0  0  0  0  0  0  0  0  0  0  0  0
    0.5961    4.0143    1.0751 C   0  0  0  0  0  0  0  0  0  0  0  0
    0.7515    4.7388    1.8645 H   0  0  0  0  0  0  0  0  0  0  0  0
    1.3304    3.9244   -0.0465 N   0  0  0  0  0  0  0  0  0  0  0  0
    2.1196    4.5116   -0.2791 H   0  0  0  0  0  0  0  0  0  0  0  0
    0.8324    2.8895   -0.8065 C   0  0  0  0  0  0  0  0  0  0  0  0
    1.2030    2.5304   -1.7584 H   0  0  0  0  0  0  0  0  0  0  0  0
   -0.0283    0.1609    1.5831 C   0  0  0  0  0  0  0  0  0  0  0  0
    1.1923    0.1056    1.7329 O   0  0  0  0  0  0  0  0  0  0  0  0
   -0.8586    0.4659    2.5853 N   0  0  0  0  0  0  0  0  0  0  0  0
   -1.8521    0.3848    2.4000 H   0  0  0  0  0  0  0  0  0  0  0  0
   -0.4403    0.7694    3.9518 C   0  0  0  0  0  0  0  0  0  0  0  0
    0.5066    1.3154    3.9421 H   0  0  0  0  0  0  0  0  0  0  0  0
   -1.1988    1.3789    4.4452 H   0  0  0  0  0  0  0  0  0  0  0  0
   -0.3053   -0.1600    4.5075 H   0  0  0  0  0  0  0  0  0  0  0  0
  5  6  2  0  0  0  0
  5  7  1  0  0  0  0
  2  3  1  0  0  0  0
  2  4  1  0  0  0  0
  2  5  1  0  0  0  0
  1  2  1  0  0  0  0
 22 23  2  0  0  0  0
 22 24  1  0  0  0  0
 20 21  1  0  0  0  0
 18 19  1  0  0  0  0
 18 20  1  0  0  0  0
 16 17  1  0  0  0  0
 16 18  1  0  0  0  0
 15 16  2  0  0  0  0
 14 15  1  0  0  0  0
 14 20  2  0  0  0  0
 11 12  1  0  0  0  0
 11 13  1  0  0  0  0
 11 14  1  0  0  0  0
  9 10  1  0  0  0  0
  9 11  1  0  0  0  0
  9 22  1  0  0  0  0
  7  8  1  0  0  0  0
  7  9  1  0  0  0  0
 26 27  1  0  0  0  0
 26 28  1  0  0  0  0
 26 29  1  0  0  0  0
 24 25  1  0  0  0  0
 24 26  1  0  0  0  0
M  END
$$$$
default_name
  -OEChem-02102213163D

 29 29  0     1  0  0  0  0  0999 V2000
   -2.9561   -3.9186    1.3887 H   0  0  0  0  0  0  0  0  0  0  0  0
   -3.1191   -2.9346    0.9517 C   0  0  0  0  0  0  0  0  0  0  0  0
   -3.7811   -2.3546    1.5917 H   0  0  0  0  0  0  0  0  0  0  0  0
   -3.5591   -3.0406   -0.0383 H   0  0  0  0  0  0  0  0  0  0  0  0
   -1.7921   -2.2226    0.8327 C   0  0  0  0  0  0  0  0  0  0  0  0
   -0.7611   -2.7766    1.1927 O   0  0  0  0  0  0  0  0  0  0  0  0
   -1.8201   -0.9926    0.3247 N   0  0  0  0  0  0  0  0  0  0  0  0
   -2.7141   -0.5816    0.0927 H   0  0  0  0  0  0  0  0  0  0  0  0
   -0.6481   -0.1156    0.2017 C   0  0  1  0  0  0  0  0  0  0  0  0
    0.1042   -0.6345   -0.3958 H   0  0  0  0  0  0  0  0  0  0  0  0
   -1.0420    1.1781   -0.5372 C   0  0  0  0  0  0  0  0  0  0  0  0
   -0.8948    1.0497   -1.6106 H   0  0  0  0  0  0  0  0  0  0  0  0
   -2.0997    1.3890   -0.3739 H   0  0  0  0  0  0  0  0  0  0  0  0
   -0.2204    2.3704   -0.1112 C   0  0  0  0  0  0  0  0  0  0  0  0
   -0.1432    2.8902    1.1815 N   0  0  0  0  0  0  0  0  0  0  0  0
    0.7293    3.9067    1.1193 C   0  0  0  0  0  0  0  0  0  0  0  0
    1.0041    4.5304    1.9606 H   0  0  0  0  0  0  0  0  0  0  0  0
    1.2160    4.0319   -0.1267 N   0  0  0  0  0  0  0  0  0  0  0  0
    1.9033    4.7118   -0.4221 H   0  0  0  0  0  0  0  0  0  0  0  0
    0.6311    3.0678   -0.9173 C   0  0  0  0  0  0  0  0  0  0  0  0
    0.8141    2.8727   -1.9665 H   0  0  0  0  0  0  0  0  0  0  0  0
   -0.0283    0.1609    1.5831 C   0  0  0  0  0  0  0  0  0  0  0  0
    1.1923    0.1056    1.7329 O   0  0  0  0  0  0  0  0  0  0  0  0
   -0.8586    0.4659    2.5853 N   0  0  0  0  0  0  0  0  0  0  0  0
   -1.8521    0.3848    2.4000 H   0  0  0  0  0  0  0  0  0  0  0  0
   -0.4403    0.7694    3.9518 C   0  0  0  0  0  0  0  0  0  0  0  0
    0.5066    1.3154    3.9421 H   0  0  0  0  0  0  0  0  0  0  0  0
   -1.1988    1.3789    4.4452 H   0  0  0  0  0  0  0  0  0  0  0  0
   -0.3053   -0.1600    4.5075 H   0  0  0  0  0  0  0  0  0  0  0  0
  5  6  2  0  0  0  0
  5  7  1  0  0  0  0
  2  3  1  0  0  0  0
  2  4  1  0  0  0  0
  2  5  1  0  0  0  0
  1  2  1  0  0  0  0
 22 23  2  0  0  0  0
 22 24  1  0  0  0  0
 20 21  1  0  0  0  0
 18 19  1  0  0  0  0
 18 20  1  0  0  0  0
 16 17  1  0  0  0  0
 16 18  1  0  0  0  0
 15 16  2  0  0  0  0
 14 15  1  0  0  0  0
 14 20  2  0  0  0  0
 11 12  1  0  0  0  0
 11 13  1  0  0  0  0
 11 14  1  0  0  0  0
  9 10  1  0  0  0  0
  9 11  1  0  0  0  0
  9 22  1  0  0  0  0
  7  8  1  0  0  0  0
  7  9  1  0  0  0  0
 26 27  1  0  0  0  0
 26 28  1  0  0  0  0
 26 29  1  0  0  0  0
 24 25  1  0  0  0  0
 24 26  1  0  0  0  0
M  END
$$$$
default_name
  -OEChem-02102213163D

 29 29  0     1  0  0  0  0  0999 V2000
   -2.9561   -3.9186    1.3887 H   0  0  0  0  0  0  0  0  0  0  0  0
   -3.1191   -2.9346    0.9517 C   0  0  0  0  0  0  0  0  0  0  0  0
   -3.7811   -2.3546    1.5917 H   0  0  0  0  0  0  0  0  0  0  0  0
   -3.5591   -3.0406   -0.0383 H   0  0  0  0  0  0  0  0  0  0  0  0
   -1.7921   -2.2226    0.8327 C   0  0  0  0  0  0  0  0  0  0  0  0
   -0.7611   -2.7766    1.1927 O   0  0  0  0  0  0  0  0  0  0  0  0
   -1.8201   -0.9926    0.3247 N   0  0  0  0  0  0  0  0  0  0  0  0
   -2.7141   -0.5816    0.0927 H   0  0  0  0  0  0  0  0  0  0  0  0
   -0.6481   -0.1156    0.2017 C   0  0  1  0  0  0  0  0  0  0  0  0
    0.1042   -0.6345   -0.3958 H   0  0  0  0  0  0  0  0  0  0  0  0
   -1.0420    1.1781   -0.5372 C   0  0  0  0  0  0  0  0  0  0  0  0
   -0.8948    1.0497   -1.6106 H   0  0  0  0  0  0  0  0  0  0  0  0
   -2.0997    1.3890   -0.3739 H   0  0  0  0  0  0  0  0  0  0  0  0
   -0.2204    2.3704   -0.1112 C   0  0  0  0  0  0  0  0  0  0  0  0
    0.0957    2.7180    1.2028 N   0  0  0  0  0  0  0  0  0  0  0  0
    0.8748    3.8063    1.1197 C   0  0  0  0  0  0  0  0  0  0  0  0
    1.2831    4.3340    1.9724 H   0  0  0  0  0  0  0  0  0  0  0  0
    1.0813    4.1386   -0.1657 N   0  0  0  0  0  0  0  0  0  0  0  0
    1.6505    4.9094   -0.4878 H   0  0  0  0  0  0  0  0  0  0  0  0
    0.4009    3.2410   -0.9582 C   0  0  0  0  0  0  0  0  0  0  0  0
    0.3709    3.2043   -2.0399 H   0  0  0  0  0  0  0  0  0  0  0  0
   -0.0283    0.1609    1.5831 C   0  0  0  0  0  0  0  0  0  0  0  0
    1.1923    0.1056    1.7329 O   0  0  0  0  0  0  0  0  0  0  0  0
   -0.8586    0.4659    2.5853 N   0  0  0  0  0  0  0  0  0  0  0  0
   -1.8521    0.3848    2.4000 H   0  0  0  0  0  0  0  0  0  0  0  0
   -0.4403    0.7694    3.9518 C   0  0  0  0  0  0  0  0  0  0  0  0
    0.5066    1.3154    3.9421 H   0  0  0  0  0  0  0  0  0  0  0  0
   -1.1988    1.3789    4.4452 H   0  0  0  0  0  0  0  0  0  0  0  0
   -0.3053   -0.1600    4.5075 H   0  0  0  0  0  0  0  0  0  0  0  0
  5  6  2  0  0  0  0
  5  7  1  0  0  0  0
  2  3  1  0  0  0  0
  2  4  1  0  0  0  0
  2  5  1  0  0  0  0
  1  2  1  0  0  0  0
 22 23  2  0  0  0  0
 22 24  1  0  0  0  0
 20 21  1  0  0  0  0
 18 19  1  0  0  0  0
 18 20  1  0  0  0  0
 16 17  1  0  0  0  0
 16 18  1  0  0  0  0
 15 16  2  0  0  0  0
 14 15  1  0  0  0  0
 14 20  2  0  0  0  0
 11 12  1  0  0  0  0
 11 13  1  0  0  0  0
 11 14  1  0  0  0  0
  9 10  1  0  0  0  0
  9 11  1  0  0  0  0
  9 22  1  0  0  0  0
  7  8  1  0  0  0  0
  7  9  1  0  0  0  0
 26 27  1  0  0  0  0
 26 28  1  0  0  0  0
 26 29  1  0  0  0  0
 24 25  1  0  0  0  0
 24 26  1  0  0  0  0
M  END
$$$$
default_name
  -OEChem-02102213163D

 29 29  0     1  0  0  0  0  0999 V2000
   -2.9561   -3.9186    1.3887 H   0  0  0  0  0  0  0  0  0  0  0  0
   -3.1191   -2.9346    0.9517 C   0  0  0  0  0  0  0  0  0  0  0  0
   -3.7811   -2.3546    1.5917 H   0  0  0  0  0  0  0  0  0  0  0  0
   -3.5591   -3.0406   -0.0383 H   0  0  0  0  0  0  0  0  0  0  0  0
   -1.7921   -2.2226    0.8327 C   0  0  0  0  0  0  0  0  0  0  0  0
   -0.7611   -2.7766    1.1927 O   0  0  0  0  0  0  0  0  0  0  0  0
   -1.8201   -0.9926    0.3247 N   0  0  0  0  0  0  0  0  0  0  0  0
   -2.7141   -0.5816    0.0927 H   0  0  0  0  0  0  0  0  0  0  0  0
   -0.6481   -0.1156    0.2017 C   0  0  1  0  0  0  0  0  0  0  0  0
    0.1042   -0.6345   -0.3958 H   0  0  0  0  0  0  0  0  0  0  0  0
   -1.0420    1.1781   -0.5372 C   0  0  0  0  0  0  0  0  0  0  0  0
   -0.8948    1.0497   -1.6106 H   0  0  0  0  0  0  0  0  0  0  0  0
   -2.0997    1.3890   -0.3739 H   0  0  0  0  0  0  0  0  0  0  0  0
   -0.2204    2.3704   -0.1112 C   0  0  0  0  0  0  0  0  0  0  0  0
    0.3433    2.5662    1.1502 N   0  0  0  0  0  0  0  0  0  0  0  0
    1.0228    3.7199    1.0761 C   0  0  0  0  0  0  0  0  0  0  0  0
    1.5693    4.1629    1.8991 H   0  0  0  0  0  0  0  0  0  0  0  0
    0.9354    4.2374   -0.1608 N   0  0  0  0  0  0  0  0  0  0  0  0
    1.3784    5.0912   -0.4717 H   0  0  0  0  0  0  0  0  0  0  0  0
    0.1576    3.3972   -0.9261 C   0  0  0  0  0  0  0  0  0  0  0  0
   -0.0964    3.5025   -1.9734 H   0  0  0  0  0  0  0  0  0  0  0  0
   -0.0283    0.1609    1.5831 C   0  0  0  0  0  0  0  0  0  0  0  0
    1.1923    0.1056    1.7329 O   0  0  0  0  0  0  0  0  0  0  0  0
   -0.8586    0.4659    2.5853 N   0  0  0  0  0  0  0  0  0  0  0  0
   -1.8521    0.3848    2.4000 H   0  0  0  0  0  0  0  0  0  0  0  0
   -0.4403    0.7694    3.9518 C   0  0  0  0  0  0  0  0  0  0  0  0
    0.5066    1.3154    3.9421 H   0  0  0  0  0  0  0  0  0  0  0  0
   -1.1988    1.3789    4.4452 H   0  0  0  0  0  0  0  0  0  0  0  0
   -0.3053   -0.1600    4.5075 H   0  0  0  0  0  0  0  0  0  0  0  0
  5  6  2  0  0  0  0
  5  7  1  0  0  0  0
  2  3  1  0  0  0  0
  2  4  1  0  0  0  0
  2  5  1  0  0  0  0
  1  2  1  0  0  0  0
 22 23  2  0  0  0  0
 22 24  1  0  0  0  0
 20 21  1  0  0  0  0
 18 19  1  0  0  0  0
 18 20  1  0  0  0  0
 16 17  1  0  0  0  0
 16 18  1  0  0  0  0
 15 16  2  0  0  0  0
 14 15  1  0  0  0  0
 14 20  2  0  0  0  0
 11 12  1  0  0  0  0
 11 13  1  0  0  0  0
 11 14  1  0  0  0  0
  9 10  1  0  0  0  0
  9 11  1  0  0  0  0
  9 22  1  0  0  0  0
  7  8  1  0  0  0  0
  7  9  1  0  0  0  0
 26 27  1  0  0  0  0
 26 28  1  0  0  0  0
 26 29  1  0  0  0  0
 24 25  1  0  0  0  0
 24 26  1  0  0  0  0
M  END
$$$$
default_name
  -OEChem-02102213163D

 29 29  0     1  0  0  0  0  0999 V2000
   -2.9561   -3.9186    1.3887 H   0  0  0  0  0  0  0  0  0  0  0  0
   -3.1191   -2.9346    0.9517 C   0  0  0  0  0  0  0  0  0  0  0  0
   -3.7811   -2.3546    1.5917 H   0  0  0  0  0  0  0  0  0  0  0  0
   -3.5591   -3.0406   -0.0383 H   0  0  0  0  0  0  0  0  0  0  0  0
   -1.7921   -2.2226    0.8327 C   0  0  0  0  0  0  0  0  0  0  0  0
   -0.7611   -2.7766    1.1927 O   0  0  0  0  0  0  0  0  0  0  0  0
   -1.8201   -0.9926    0.3247 N   0  0  0  0  0  0  0  0  0  0  0  0
   -2.7141   -0.5816    0.0927 H   0  0  0  0  0  0  0  0  0  0  0  0
   -0.6481   -0.1156    0.2017 C   0  0  1  0  0  0  0  0  0  0  0  0
    0.1042   -0.6345   -0.3958 H   0  0  0  0  0  0  0  0  0  0  0  0
   -1.0420    1.1781   -0.5372 C   0  0  0  0  0  0  0  0  0  0  0  0
   -0.8948    1.0497   -1.6106 H   0  0  0  0  0  0  0  0  0  0  0  0
   -2.0997    1.3890   -0.3739 H   0  0  0  0  0  0  0  0  0  0  0  0
   -0.2204    2.3704   -0.1112 C   0  0  0  0  0  0  0  0  0  0  0  0
    0.5829    2.4449    1.0274 N   0  0  0  0  0  0  0  0  0  0  0  0
    1.1632    3.6534    0.9915 C   0  0  0  0  0  0  0  0  0  0  0  0
    1.8432    4.0290    1.7456 H   0  0  0  0  0  0  0  0  0  0  0  0
    0.7883    4.3215   -0.1123 N   0  0  0  0  0  0  0  0  0  0  0  0
    1.1055    5.2446   -0.3749 H   0  0  0  0  0  0  0  0  0  0  0  0
   -0.0823    3.5259   -0.8234 C   0  0  0  0  0  0  0  0  0  0  0  0
   -0.5559    3.7471   -1.7716 H   0  0  0  0  0  0  0  0  0  0  0  0
   -0.0283    0.1609    1.5831 C   0  0  0  0  0  0  0  0  0  0  0  0
    1.1923    0.1056    1.7329 O   0  0  0  0  0  0  0  0  0  0  0  0
   -0.8586    0.4659    2.5853 N   0  0  0  0  0  0  0  0  0  0  0  0
   -1.8521    0.3848    2.4000 H   0  0  0  0  0  0  0  0  0  0  0  0
   -0.4403    0.7694    3.9518 C   0  0  0  0  0  0  0  0  0  0  0  0
    0.5066    1.3154    3.9421 H   0  0  0  0  0  0  0  0  0  0  0  0
   -1.1988    1.3789    4.4452 H   0  0  0  0  0  0  0  0  0  0  0  0
   -0.3053   -0.1600    4.5075 H   0  0  0  0  0  0  0  0  0  0  0  0
  5  6  2  0  0  0  0
  5  7  1  0  0  0  0
  2  3  1  0  0  0  0
  2  4  1  0  0  0  0
  2  5  1  0  0  0  0
  1  2  1  0  0  0  0
 22 23  2  0  0  0  0
 22 24  1  0  0  0  0
 20 21  1  0  0  0  0
 18 19  1  0  0  0  0
 18 20  1  0  0  0  0
 16 17  1  0  0  0  0
 16 18  1  0  0  0  0
 15 16  2  0  0  0  0
 14 15  1  0  0  0  0
 14 20  2  0  0  0  0
 11 12  1  0  0  0  0
 11 13  1  0  0  0  0
 11 14  1  0  0  0  0
  9 10  1  0  0  0  0
  9 11  1  0  0  0  0
  9 22  1  0  0  0  0
  7  8  1  0  0  0  0
  7  9  1  0  0  0  0
 26 27  1  0  0  0  0
 26 28  1  0  0  0  0
 26 29  1  0  0  0  0
 24 25  1  0  0  0  0
 24 26  1  0  0  0  0
M  END
$$$$
default_name
  -OEChem-02102213163D

 29 29  0     1  0  0  0  0  0999 V2000
   -2.9561   -3.9186    1.3887 H   0  0  0  0  0  0  0  0  0  0  0  0
   -3.1191   -2.9346    0.9517 C   0  0  0  0  0  0  0  0  0  0  0  0
   -3.7811   -2.3546    1.5917 H   0  0  0  0  0  0  0  0  0  0  0  0
   -3.5591   -3.0406   -0.0383 H   0  0  0  0  0  0  0  0  0  0  0  0
   -1.7921   -2.2226    0.8327 C   0  0  0  0  0  0  0  0  0  0  0  0
   -0.7611   -2.7766    1.1927 O   0  0  0  0  0  0  0  0  0  0  0  0
   -1.8201   -0.9926    0.3247 N   0  0  0  0  0  0  0  0  0  0  0  0
   -2.7141   -0.5816    0.0927 H   0  0  0  0  0  0  0  0  0  0  0  0
   -0.6481   -0.1156    0.2017 C   0  0  1  0  0  0  0  0  0  0  0  0
    0.1042   -0.6345   -0.3958 H   0  0  0  0  0  0  0  0  0  0  0  0
   -1.0420    1.1781   -0.5372 C   0  0  0  0  0  0  0  0  0  0  0  0
   -0.8948    1.0497   -1.6106 H   0  0  0  0  0  0  0  0  0  0  0  0
   -2.0997    1.3890   -0.3739 H   0  0  0  0  0  0  0  0  0  0  0  0
   -0.2204    2.3704   -0.1112 C   0  0  0  0  0  0  0  0  0  0  0  0
    0.7980    2.3627    0.8427 N   0  0  0  0  0  0  0  0  0  0  0  0
    1.2863    3.6113    0.8718 C   0  0  0  0  0  0  0  0  0  0  0  0
    2.0863    3.9412    1.5226 H   0  0  0  0  0  0  0  0  0  0  0  0
    0.6499    4.3851   -0.0235 N   0  0  0  0  0  0  0  0  0  0  0  0
    0.8506    5.3592   -0.2041 H   0  0  0  0  0  0  0  0  0  0  0  0
   -0.3024    3.6181   -0.6570 C   0  0  0  0  0  0  0  0  0  0  0  0
   -0.9764    3.9214   -1.4483 H   0  0  0  0  0  0  0  0  0  0  0  0
   -0.0283    0.1609    1.5831 C   0  0  0  0  0  0  0  0  0  0  0  0
    1.1923    0.1056    1.7329 O   0  0  0  0  0  0  0  0  0  0  0  0
   -0.8586    0.4659    2.5853 N   0  0  0  0  0  0  0  0  0  0  0  0
   -1.8521    0.3848    2.4000 H   0  0  0  0  0  0  0  0  0  0  0  0
   -0.4403    0.7694    3.9518 C   0  0  0  0  0  0  0  0  0  0  0  0
    0.5066    1.3154    3.9421 H   0  0  0  0  0  0  0  0  0  0  0  0
   -1.1988    1.3789    4.4452 H   0  0  0  0  0  0  0  0  0  0  0  0
   -0.3053   -0.1600    4.5075 H   0  0  0  0  0  0  0  0  0  0  0  0
  5  6  2  0  0  0  0
  5  7  1  0  0  0  0
  2  3  1  0  0  0  0
  2  4  1  0  0  0  0
  2  5  1  0  0  0  0
  1  2  1  0  0  0  0
 22 23  2  0  0  0  0
 22 24  1  0  0  0  0
 20 21  1  0  0  0  0
 18 19  1  0  0  0  0
 18 20  1  0  0  0  0
 16 17  1  0  0  0  0
 16 18  1  0  0  0  0
 15 16  2  0  0  0  0
 14 15  1  0  0  0  0
 14 20  2  0  0  0  0
 11 12  1  0  0  0  0
 11 13  1  0  0  0  0
 11 14  1  0  0  0  0
  9 10  1  0  0  0  0
  9 11  1  0  0  0  0
  9 22  1  0  0  0  0
  7  8  1  0  0  0  0
  7  9  1  0  0  0  0
 26 27  1  0  0  0  0
 26 28  1  0  0  0  0
 26 29  1  0  0  0  0
 24 25  1  0  0  0  0
 24 26  1  0  0  0  0
M  END
$$$$
default_name
  -OEChem-02102213163D

 29 29  0     1  0  0  0  0  0999 V2000
   -2.9561   -3.9186    1.3887 H   0  0  0  0  0  0  0  0  0  0  0  0
   -3.1191   -2.9346    0.9517 C   0  0  0  0  0  0  0  0  0  0  0  0
   -3.7811   -2.3546    1.5917 H   0  0  0  0  0  0  0  0  0  0  0  0
   -3.5591   -3.0406   -0.0383 H   0  0  0  0  0  0  0  0  0  0  0  0
   -1.7921   -2.2226    0.8327 C   0  0  0  0  0  0  0  0  0  0  0  0
   -0.7611   -2.7766    1.1927 O   0  0  0  0  0  0  0  0  0  0  0  0
   -1.8201   -0.9926    0.3247 N   0  0  0  0  0  0  0  0  0  0  0  0
   -2.7141   -0.5816    0.0927 H   0  0  0  0  0  0  0  0  0  0  0  0
   -0.6481   -0.1156    0.2017 C   0  0  1  0  0  0  0  0  0  0  0  0
    0.1042   -0.6345   -0.3958 H   0  0  0  0  0  0  0  0  0  0  0  0
   -1.0420    1.1781   -0.5372 C   0  0  0  0  0  0  0  0  0  0  0  0
   -0.8948    1.0497   -1.6106 H   0  0  0  0  0  0  0  0  0  0  0  0
   -2.0997    1.3890   -0.3739 H   0  0  0  0  0  0  0  0  0  0  0  0
   -0.2204    2.3704   -0.1112 C   0  0  0  0  0  0  0  0  0  0  0  0
    0.9741    2.3249    0.6088 N   0  0  0  0  0  0  0  0  0  0  0  0
    1.3839    3.5965    0.7251 C   0  0  0  0  0  0  0  0  0  0  0  0
    2.2818    3.9056    1.2450 H   0  0  0  0  0  0  0  0  0  0  0  0
    0.5298    4.4239    0.0995 N   0  0  0  0  0  0  0  0  0  0  0  0
    0.6309    5.4272    0.0293 H   0  0  0  0  0  0  0  0  0  0  0  0
   -0.4878    3.6677   -0.4383 C   0  0  0  0  0  0  0  0  0  0  0  0
   -1.3293    4.0134   -1.0254 H   0  0  0  0  0  0  0  0  0  0  0  0
   -0.0283    0.1609    1.5831 C   0  0  0  0  0  0  0  0  0  0  0  0
    1.1923    0.1056    1.7329 O   0  0  0  0  0  0  0  0  0  0  0  0
   -0.8586    0.4659    2.5853 N   0  0  0  0  0  0  0  0  0  0  0  0
   -1.8521    0.3848    2.4000 H   0  0  0  0  0  0  0  0  0  0  0  0
   -0.4403    0.7694    3.9518 C   0  0  0  0  0  0  0  0  0  0  0  0
    0.5066    1.3154    3.9421 H   0  0  0  0  0  0  0  0  0  0  0  0
   -1.1988    1.3789    4.4452 H   0  0  0  0  0  0  0  0  0  0  0  0
   -0.3053   -0.1600    4.5075 H   0  0  0  0  0  0  0  0  0  0  0  0
  5  6  2  0  0  0  0
  5  7  1  0  0  0  0
  2  3  1  0  0  0  0
  2  4  1  0  0  0  0
  2  5  1  0  0  0  0
  1  2  1  0  0  0  0
 22 23  2  0  0  0  0
 22 24  1  0  0  0  0
 20 21  1  0  0  0  0
 18 19  1  0  0  0  0
 18 20  1  0  0  0  0
 16 17  1  0  0  0  0
 16 18  1  0  0  0  0
 15 16  2  0  0  0  0
 14 15  1  0  0  0  0
 14 20  2  0  0  0  0
 11 12  1  0  0  0  0
 11 13  1  0  0  0  0
 11 14  1  0  0  0  0
  9 10  1  0  0  0  0
  9 11  1  0  0  0  0
  9 22  1  0  0  0  0
  7  8  1  0  0  0  0
  7  9  1  0  0  0  0
 26 27  1  0  0  0  0
 26 28  1  0  0  0  0
 26 29  1  0  0  0  0
 24 25  1  0  0  0  0
 24 26  1  0  0  0  0
M  END
$$$$
default_name
  -OEChem-02102213163D

 29 29  0     1  0  0  0  0  0999 V2000
   -2.9561   -3.9186    1.3887 H   0  0  0  0  0  0  0  0  0  0  0  0
   -3.1191   -2.9346    0.9517 C   0  0  0  0  0  0  0  0  0  0  0  0
   -3.7811   -2.3546    1.5917 H   0  0  0  0  0  0  0  0  0  0  0  0
   -3.5591   -3.0406   -0.0383 H   0  0  0  0  0  0  0  0  0  0  0  0
   -1.7921   -2.2226    0.8327 C   0  0  0  0  0  0  0  0  0  0  0  0
   -0.7611   -2.7766    1.1927 O   0  0  0  0  0  0  0  0  0  0  0  0
   -1.8201   -0.9926    0.3247 N   0  0  0  0  0  0  0  0  0  0  0  0
   -2.7141   -0.5816    0.0927 H   0  0  0  0  0  0  0  0  0  0  0  0
   -0.6481   -0.1156    0.2017 C   0  0  1  0  0  0  0  0  0  0  0  0
    0.1042   -0.6345   -0.3958 H   0  0  0  0  0  0  0  0  0  0  0  0
   -1.0420    1.1781   -0.5372 C   0  0  0  0  0  0  0  0  0  0  0  0
   -0.8948    1.0497   -1.6106 H   0  0  0  0  0  0  0  0  0  0  0  0
   -2.0997    1.3890   -0.3739 H   0  0  0  0  0  0  0  0  0  0  0  0
   -0.2204    2.3704   -0.1112 C   0  0  0  0  0  0  0  0  0  0  0  0
    1.0991    2.3343    0.3415 N   0  0  0  0  0  0  0  0  0  0  0  0
    1.4492    3.6100    0.5613 C   0  0  0  0  0  0  0  0  0  0  0  0
    2.4166    3.9246    0.9319 H   0  0  0  0  0  0  0  0  0  0  0  0
    0.4361    4.4353    0.2483 N   0  0  0  0  0  0  0  0  0  0  0  0
    0.4615    5.4440    0.3091 H   0  0  0  0  0  0  0  0  0  0  0  0
   -0.6257    3.6712   -0.1822 C   0  0  0  0  0  0  0  0  0  0  0  0
   -1.5903    4.0169   -0.5319 H   0  0  0  0  0  0  0  0  0  0  0  0
   -0.0283    0.1609    1.5831 C   0  0  0  0  0  0  0  0  0  0  0  0
    1.1923    0.1056    1.7329 O   0  0  0  0  0  0  0  0  0  0  0  0
   -0.8586    0.4659    2.5853 N   0  0  0  0  0  0  0  0  0  0  0  0
   -1.8521    0.3848    2.4000 H   0  0  0  0  0  0  0  0  0  0  0  0
   -0.4403    0.7694    3.9518 C   0  0  0  0  0  0  0  0  0  0  0  0
    0.5066    1.3154    3.9421 H   0  0  0  0  0  0  0  0  0  0  0  0
   -1.1988    1.3789    4.4452 H   0  0  0  0  0  0  0  0  0  0  0  0
   -0.3053   -0.1600    4.5075 H   0  0  0  0  0  0  0  0  0  0  0  0
  5  6  2  0  0  0  0
  5  7  1  0  0  0  0
  2  3  1  0  0  0  0
  2  4  1  0  0  0  0
  2  5  1  0  0  0  0
  1  2  1  0  0  0  0
 22 23  2  0  0  0  0
 22 24  1  0  0  0  0
 20 21  1  0  0  0  0
 18 19  1  0  0  0  0
 18 20  1  0  0  0  0
 16 17  1  0  0  0  0
 16 18  1  0  0  0  0
 15 16  2  0  0  0  0
 14 15  1  0  0  0  0
 14 20  2  0  0  0  0
 11 12  1  0  0  0  0
 11 13  1  0  0  0  0
 11 14  1  0  0  0  0
  9 10  1  0  0  0  0
  9 11  1  0  0  0  0
  9 22  1  0  0  0  0
  7  8  1  0  0  0  0
  7  9  1  0  0  0  0
 26 27  1  0  0  0  0
 26 28  1  0  0  0  0
 26 29  1  0  0  0  0
 24 25  1  0  0  0  0
 24 26  1  0  0  0  0
M  END
$$$$
default_name
  -OEChem-02102213163D

 29 29  0     1  0  0  0  0  0999 V2000
   -2.9561   -3.9186    1.3887 H   0  0  0  0  0  0  0  0  0  0  0  0
   -3.1191   -2.9346    0.9517 C   0  0  0  0  0  0  0  0  0  0  0  0
   -3.7811   -2.3546    1.5917 H   0  0  0  0  0  0  0  0  0  0  0  0
   -3.5591   -3.0406   -0.0383 H   0  0  0  0  0  0  0  0  0  0  0  0
   -1.7921   -2.2226    0.8327 C   0  0  0  0  0  0  0  0  0  0  0  0
   -0.7611   -2.7766    1.1927 O   0  0  0  0  0  0  0  0  0  0  0  0
   -1.8201   -0.9926    0.3247 N   0  0  0  0  0  0  0  0  0  0  0  0
   -2.7141   -0.5816    0.0927 H   0  0  0  0  0  0  0  0  0  0  0  0
   -0.6481   -0.1156    0.2017 C   0  0  1  0  0  0  0  0  0  0  0  0
    0.1042   -0.6345   -0.3958 H   0  0  0  0  0  0  0  0  0  0  0  0
   -1.0420    1.1781   -0.5372 C   0  0  0  0  0  0  0  0  0  0  0  0
   -0.8948    1.0497   -1.6106 H   0  0  0  0  0  0  0  0  0  0  0  0
   -2.0997    1.3890   -0.3739 H   0  0  0  0  0  0  0  0  0  0  0  0
   -0.2204    2.3704   -0.1112 C   0  0  0  0  0  0  0  0  0  0  0  0
    1.1645    2.3902    0.0590 N   0  0  0  0  0  0  0  0  0  0  0  0
    1.4778    3.6509    0.3916 C   0  0  0  0  0  0  0  0  0  0  0  0
    2.4813    3.9970    0.6047 H   0  0  0  0  0  0  0  0  0  0  0  0
    0.3752    4.4185    0.4129 N   0  0  0  0  0  0  0  0  0  0  0  0
    0.3538    5.4084    0.6165 H   0  0  0  0  0  0  0  0  0  0  0  0
   -0.7068    3.6284    0.0939 C   0  0  0  0  0  0  0  0  0  0  0  0
   -1.7418    3.9318   -0.0013 H   0  0  0  0  0  0  0  0  0  0  0  0
   -0.0283    0.1609    1.5831 C   0  0  0  0  0  0  0  0  0  0  0  0
    1.1923    0.1056    1.7329 O   0  0  0  0  0  0  0  0  0  0  0  0
   -0.8586    0.4659    2.5853 N   0  0  0  0  0  0  0  0  0  0  0  0
   -1.8521    0.3848    2.4000 H   0  0  0  0  0  0  0  0  0  0  0  0
   -0.4403    0.7694    3.9518 C   0  0  0  0  0  0  0  0  0  0  0  0
    0.5066    1.3154    3.9421 H   0  0  0  0  0  0  0  0  0  0  0  0
   -1.1988    1.3789    4.4452 H   0  0  0  0  0  0  0  0  0  0  0  0
   -0.3053   -0.1600    4.5075 H   0  0  0  0  0  0  0  0  0  0  0  0
  5  6  2  0  0  0  0
  5  7  1  0  0  0  0
  2  3  1  0  0  0  0
  2  4  1  0  0  0  0
  2  5  1  0  0  0  0
  1  2  1  0  0  0  0
 22 23  2  0  0  0  0
 22 24  1  0  0  0  0
 20 21  1  0  0  0  0
 18 19  1  0  0  0  0
 18 20  1  0  0  0  0
 16 17  1  0  0  0  0
 16 18  1  0  0  0  0
 15 16  2  0  0  0  0
 14 15  1  0  0  0  0
 14 20  2  0  0  0  0
 11 12  1  0  0  0  0
 11 13  1  0  0  0  0
 11 14  1  0  0  0  0
  9 10  1  0  0  0  0
  9 11  1  0  0  0  0
  9 22  1  0  0  0  0
  7  8  1  0  0  0  0
  7  9  1  0  0  0  0
 26 27  1  0  0  0  0
 26 28  1  0  0  0  0
 26 29  1  0  0  0  0
 24 25  1  0  0  0  0
 24 26  1  0  0  0  0
M  END
$$$$
default_name
  -OEChem-02102213163D

 29 29  0     1  0  0  0  0  0999 V2000
   -2.9561   -3.9186    1.3887 H   0  0  0  0  0  0  0  0  0  0  0  0
   -3.1191   -2.9346    0.9517 C   0  0  0  0  0  0  0  0  0  0  0  0
   -3.7811   -2.3546    1.5917 H   0  0  0  0  0  0  0  0  0  0  0  0
   -3.5591   -3.0406   -0.0383 H   0  0  0  0  0  0  0  0  0  0  0  0
   -1.7921   -2.2226    0.8327 C   0  0  0  0  0  0  0  0  0  0  0  0
   -0.7611   -2.7766    1.1927 O   0  0  0  0  0  0  0  0  0  0  0  0
   -1.8201   -0.9926    0.3247 N   0  0  0  0  0  0  0  0  0  0  0  0
   -2.7141   -0.5816    0.0927 H   0  0  0  0  0  0  0  0  0  0  0  0
   -0.6481   -0.1156    0.2017 C   0  0  1  0  0  0  0  0  0  0  0  0
    0.1042   -0.6345   -0.3958 H   0  0  0  0  0  0  0  0  0  0  0  0
   -1.0420    1.1781   -0.5372 C   0  0  0  0  0  0  0  0  0  0  0  0
   -0.8948    1.0497   -1.6106 H   0  0  0  0  0  0  0  0  0  0  0  0
   -2.0997    1.3890   -0.3739 H   0  0  0  0  0  0  0  0  0  0  0  0
   -0.2204    2.3704   -0.1112 C   0  0  0  0  0  0  0  0  0  0  0  0
    1.1659    2.4887   -0.2193 N   0  0  0  0  0  0  0  0  0  0  0  0
    1.4677    3.7164    0.2277 C   0  0  0  0  0  0  0  0  0  0  0  0
    2.4717    4.1177    0.2855 H   0  0  0  0  0  0  0  0  0  0  0  0
    0.3512    4.3746    0.5819 N   0  0  0  0  0  0  0  0  0  0  0  0
    0.3152    5.3228    0.9304 H   0  0  0  0  0  0  0  0  0  0  0  0
   -0.7256    3.5423    0.3712 C   0  0  0  0  0  0  0  0  0  0  0  0
   -1.7735    3.7637    0.5302 H   0  0  0  0  0  0  0  0  0  0  0  0
   -0.0283    0.1609    1.5831 C   0  0  0  0  0  0  0  0  0  0  0  0
    1.1923    0.1056    1.7329 O   0  0  0  0  0  0  0  0  0  0  0  0
   -0.8586    0.4659    2.5853 N   0  0  0  0  0  0  0  0  0  0  0  0
   -1.8521    0.3848    2.4000 H   0  0  0  0  0  0  0  0  0  0  0  0
   -0.4403    0.7694    3.9518 C   0  0  0  0  0  0  0  0  0  0  0  0
    0.5066    1.3154    3.9421 H   0  0  0  0  0  0  0  0  0  0  0  0
   -1.1988    1.3789    4.4452 H   0  0  0  0  0  0  0  0  0  0  0  0
   -0.3053   -0.1600    4.5075 H   0  0  0  0  0  0  0  0  0  0  0  0
  5  6  2  0  0  0  0
  5  7  1  0  0  0  0
  2  3  1  0  0  0  0
  2  4  1  0  0  0  0
  2  5  1  0  0  0  0
  1  2  1  0  0  0  0
 22 23  2  0  0  0  0
 22 24  1  0  0  0  0
 20 21  1  0  0  0  0
 18 19  1  0  0  0  0
 18 20  1  0  0  0  0
 16 17  1  0  0  0  0
 16 18  1  0  0  0  0
 15 16  2  0  0  0  0
 14 15  1  0  0  0  0
 14 20  2  0  0  0  0
 11 12  1  0  0  0  0
 11 13  1  0  0  0  0
 11 14  1  0  0  0  0
  9 10  1  0  0  0  0
  9 11  1  0  0  0  0
  9 22  1  0  0  0  0
  7  8  1  0  0  0  0
  7  9  1  0  0  0  0
 26 27  1  0  0  0  0
 26 28  1  0  0  0  0
 26 29  1  0  0  0  0
 24 25  1  0  0  0  0
 24 26  1  0  0  0  0
M  END
$$$$
default_name
  -OEChem-02102213163D

 29 29  0     1  0  0  0  0  0999 V2000
   -2.9561   -3.9186    1.3887 H   0  0  0  0  0  0  0  0  0  0  0  0
   -3.1191   -2.9346    0.9517 C   0  0  0  0  0  0  0  0  0  0  0  0
   -3.7811   -2.3546    1.5917 H   0  0  0  0  0  0  0  0  0  0  0  0
   -3.5591   -3.0406   -0.0383 H   0  0  0  0  0  0  0  0  0  0  0  0
   -1.7921   -2.2226    0.8327 C   0  0  0  0  0  0  0  0  0  0  0  0
   -0.7611   -2.7766    1.1927 O   0  0  0  0  0  0  0  0  0  0  0  0
   -1.8201   -0.9926    0.3247 N   0  0  0  0  0  0  0  0  0  0  0  0
   -2.7141   -0.5816    0.0927 H   0  0  0  0  0  0  0  0  0  0  0  0
   -0.6481   -0.1156    0.2017 C   0  0  1  0  0  0  0  0  0  0  0  0
    0.1042   -0.6345   -0.3958 H   0  0  0  0  0  0  0  0  0  0  0  0
   -1.0420    1.1781   -0.5372 C   0  0  0  0  0  0  0  0  0  0  0  0
   -0.8948    1.0497   -1.6106 H   0  0  0  0  0  0  0  0  0  0  0  0
   -2.0997    1.3890   -0.3739 H   0  0  0  0  0  0  0  0  0  0  0  0
   -0.2204    2.3704   -0.1112 C   0  0  0  0  0  0  0  0  0  0  0  0
    1.1031    2.6231   -0.4745 N   0  0  0  0  0  0  0  0  0  0  0  0
    1.4197    3.8021    0.0806 C   0  0  0  0  0  0  0  0  0  0  0  0
    2.3883    4.2785   -0.0039 H   0  0  0  0  0  0  0  0  0  0  0  0
    0.3658    4.3067    0.7439 N   0  0  0  0  0  0  0  0  0  0  0  0
    0.3484    5.1932    1.2294 H   0  0  0  0  0  0  0  0  0  0  0  0
   -0.6807    3.4187    0.6307 C   0  0  0  0  0  0  0  0  0  0  0  0
   -1.6831    3.5242    1.0263 H   0  0  0  0  0  0  0  0  0  0  0  0
   -0.0283    0.1609    1.5831 C   0  0  0  0  0  0  0  0  0  0  0  0
    1.1923    0.1056    1.7329 O   0  0  0  0  0  0  0  0  0  0  0  0
   -0.8586    0.4659    2.5853 N   0  0  0  0  0  0  0  0  0  0  0  0
   -1.8521    0.3848    2.4000 H   0  0  0  0  0  0  0  0  0  0  0  0
   -0.4403    0.7694    3.9518 C   0  0  0  0  0  0  0  0  0  0  0  0
    0.5066    1.3154    3.9421 H   0  0  0  0  0  0  0  0  0  0  0  0
   -1.1988    1.3789    4.4452 H   0  0  0  0  0  0  0  0  0  0  0  0
   -0.3053   -0.1600    4.5075 H   0  0  0  0  0  0  0  0  0  0  0  0
  5  6  2  0  0  0  0
  5  7  1  0  0  0  0
  2  3  1  0  0  0  0
  2  4  1  0  0  0  0
  2  5  1  0  0  0  0
  1  2  1  0  0  0  0
 22 23  2  0  0  0  0
 22 24  1  0  0  0  0
 20 21  1  0  0  0  0
 18 19  1  0  0  0  0
 18 20  1  0  0  0  0
 16 17  1  0  0  0  0
 16 18  1  0  0  0  0
 15 16  2  0  0  0  0
 14 15  1  0  0  0  0
 14 20  2  0  0  0  0
 11 12  1  0  0  0  0
 11 13  1  0  0  0  0
 11 14  1  0  0  0  0
  9 10  1  0  0  0  0
  9 11  1  0  0  0  0
  9 22  1  0  0  0  0
  7  8  1  0  0  0  0
  7  9  1  0  0  0  0
 26 27  1  0  0  0  0
 26 28  1  0  0  0  0
 26 29  1  0  0  0  0
 24 25  1  0  0  0  0
 24 26  1  0  0  0  0
M  END
$$$$
default_name
  -OEChem-02102213163D

 29 29  0     1  0  0  0  0  0999 V2000
   -2.9561   -3.9186    1.3887 H   0  0  0  0  0  0  0  0  0  0  0  0
   -3.1191   -2.9346    0.9517 C   0  0  0  0  0  0  0  0  0  0  0  0
   -3.7811   -2.3546    1.5917 H   0  0  0  0  0  0  0  0  0  0  0  0
   -3.5591   -3.0406   -0.0383 H   0  0  0  0  0  0  0  0  0  0  0  0
   -1.7921   -2.2226    0.8327 C   0  0  0  0  0  0  0  0  0  0  0  0
   -0.7611   -2.7766    1.1927 O   0  0  0  0  0  0  0  0  0  0  0  0
   -1.8201   -0.9926    0.3247 N   0  0  0  0  0  0  0  0  0  0  0  0
   -2.7141   -0.5816    0.0927 H   0  0  0  0  0  0  0  0  0  0  0  0
   -0.6481   -0.1156    0.2017 C   0  0  1  0  0  0  0  0  0  0  0  0
    0.1042   -0.6345   -0.3958 H   0  0  0  0  0  0  0  0  0  0  0  0
   -1.0420    1.1781   -0.5372 C   0  0  0  0  0  0  0  0  0  0  0  0
   -0.8948    1.0497   -1.6106 H   0  0  0  0  0  0  0  0  0  0  0  0
   -2.0997    1.3890   -0.3739 H   0  0  0  0  0  0  0  0  0  0  0  0
   -0.2204    2.3704   -0.1112 C   0  0  0  0  0  0  0  0  0  0  0  0
    0.9804    2.7844   -0.6893 N   0  0  0  0  0  0  0  0  0  0  0  0
    1.3370    3.9020   -0.0396 C   0  0  0  0  0  0  0  0  0  0  0  0
    2.2368    4.4685   -0.2436 H   0  0  0  0  0  0  0  0  0  0  0  0
    0.4179    4.2193    0.8878 N   0  0  0  0  0  0  0  0  0  0  0  0
    0.4510    5.0282    1.4932 H   0  0  0  0  0  0  0  0  0  0  0  0
   -0.5753    3.2660    0.8548 C   0  0  0  0  0  0  0  0  0  0  0  0
   -1.4769    3.2295    1.4534 H   0  0  0  0  0  0  0  0  0  0  0  0
   -0.0283    0.1609    1.5831 C   0  0  0  0  0  0  0  0  0  0  0  0
    1.1923    0.1056    1.7329 O   0  0  0  0  0  0  0  0  0  0  0  0
   -0.8586    0.4659    2.5853 N   0  0  0  0  0  0  0  0  0  0  0  0
   -1.8521    0.3848    2.4000 H   0  0  0  0  0  0  0  0  0  0  0  0
   -0.4403    0.7694    3.9518 C   0  0  0  0  0  0  0  0  0  0  0  0
    0.5066    1.3154    3.9421 H   0  0  0  0  0  0  0  0  0  0  0  0
   -1.1988    1.3789    4.4452 H   0  0  0  0  0  0  0  0  0  0  0  0
   -0.3053   -0.1600    4.5075 H   0  0  0  0  0  0  0  0  0  0  0  0
  5  6  2  0  0  0  0
  5  7  1  0  0  0  0
  2  3  1  0  0  0  0
  2  4  1  0  0  0  0
  2  5  1  0  0  0  0
  1  2  1  0  0  0  0
 22 23  2  0  0  0  0
 22 24  1  0  0  0  0
 20 21  1  0  0  0  0
 18 19  1  0  0  0  0
 18 20  1  0  0  0  0
 16 17  1  0  0  0  0
 16 18  1  0  0  0  0
 15 16  2  0  0  0  0
 14 15  1  0  0  0  0
 14 20  2  0  0  0  0
 11 12  1  0  0  0  0
 11 13  1  0  0  0  0
 11 14  1  0  0  0  0
  9 10  1  0  0  0  0
  9 11  1  0  0  0  0
  9 22  1  0  0  0  0
  7  8  1  0  0  0  0
  7  9  1  0  0  0  0
 26 27  1  0  0  0  0
 26 28  1  0  0  0  0
 26 29  1  0  0  0  0
 24 25  1  0  0  0  0
 24 26  1  0  0  0  0
M  END
$$$$
default_name
  -OEChem-02102213163D

 29 29  0     1  0  0  0  0  0999 V2000
   -2.9561   -3.9186    1.3887 H   0  0  0  0  0  0  0  0  0  0  0  0
   -3.1191   -2.9346    0.9517 C   0  0  0  0  0  0  0  0  0  0  0  0
   -3.7811   -2.3546    1.5917 H   0  0  0  0  0  0  0  0  0  0  0  0
   -3.5591   -3.0406   -0.0383 H   0  0  0  0  0  0  0  0  0  0  0  0
   -1.7921   -2.2226    0.8327 C   0  0  0  0  0  0  0  0  0  0  0  0
   -0.7611   -2.7766    1.1927 O   0  0  0  0  0  0  0  0  0  0  0  0
   -1.8201   -0.9926    0.3247 N   0  0  0  0  0  0  0  0  0  0  0  0
   -2.7141   -0.5816    0.0927 H   0  0  0  0  0  0  0  0  0  0  0  0
   -0.6481   -0.1156    0.2017 C   0  0  1  0  0  0  0  0  0  0  0  0
    0.1042   -0.6345   -0.3958 H   0  0  0  0  0  0  0  0  0  0  0  0
   -1.0420    1.1781   -0.5372 C   0  0  0  0  0  0  0  0  0  0  0  0
   -0.8948    1.0497   -1.6106 H   0  0  0  0  0  0  0  0  0  0  0  0
   -2.0997    1.3890   -0.3739 H   0  0  0  0  0  0  0  0  0  0  0  0
   -0.2204    2.3704   -0.1112 C   0  0  0  0  0  0  0  0  0  0  0  0
    0.8062    2.9614   -0.8489 N   0  0  0  0  0  0  0  0  0  0  0  0
    1.2252    4.0094   -0.1247 C   0  0  0  0  0  0  0  0  0  0  0  0
    2.0276    4.6748   -0.4175 H   0  0  0  0  0  0  0  0  0  0  0  0
    0.5042    4.1185    1.0038 N   0  0  0  0  0  0  0  0  0  0  0  0
    0.6161    4.8392    1.7037 H   0  0  0  0  0  0  0  0  0  0  0  0
   -0.4166    3.0946    1.0282 C   0  0  0  0  0  0  0  0  0  0  0  0
   -1.1688    2.8997    1.7822 H   0  0  0  0  0  0  0  0  0  0  0  0
   -0.0283    0.1609    1.5831 C   0  0  0  0  0  0  0  0  0  0  0  0
    1.1923    0.1056    1.7329 O   0  0  0  0  0  0  0  0  0  0  0  0
   -0.8586    0.4659    2.5853 N   0  0  0  0  0  0  0  0  0  0  0  0
   -1.8521    0.3848    2.4000 H   0  0  0  0  0  0  0  0  0  0  0  0
   -0.4403    0.7694    3.9518 C   0  0  0  0  0  0  0  0  0  0  0  0
    0.5066    1.3154    3.9421 H   0  0  0  0  0  0  0  0  0  0  0  0
   -1.1988    1.3789    4.4452 H   0  0  0  0  0  0  0  0  0  0  0  0
   -0.3053   -0.1600    4.5075 H   0  0  0  0  0  0  0  0  0  0  0  0
  5  6  2  0  0  0  0
  5  7  1  0  0  0  0
  2  3  1  0  0  0  0
  2  4  1  0  0  0  0
  2  5  1  0  0  0  0
  1  2  1  0  0  0  0
 22 23  2  0  0  0  0
 22 24  1  0  0  0  0
 20 21  1  0  0  0  0
 18 19  1  0  0  0  0
 18 20  1  0  0  0  0
 16 17  1  0  0  0  0
 16 18  1  0  0  0  0
 15 16  2  0  0  0  0
 14 15  1  0  0  0  0
 14 20  2  0  0  0  0
 11 12  1  0  0  0  0
 11 13  1  0  0  0  0
 11 14  1  0  0  0  0
  9 10  1  0  0  0  0
  9 11  1  0  0  0  0
  9 22  1  0  0  0  0
  7  8  1  0  0  0  0
  7  9  1  0  0  0  0
 26 27  1  0  0  0  0
 26 28  1  0  0  0  0
 26 29  1  0  0  0  0
 24 25  1  0  0  0  0
 24 26  1  0  0  0  0
M  END
$$$$
default_name
  -OEChem-02102213163D

 29 29  0     1  0  0  0  0  0999 V2000
   -2.9561   -3.9186    1.3887 H   0  0  0  0  0  0  0  0  0  0  0  0
   -3.1191   -2.9346    0.9517 C   0  0  0  0  0  0  0  0  0  0  0  0
   -3.7811   -2.3546    1.5917 H   0  0  0  0  0  0  0  0  0  0  0  0
   -3.5591   -3.0406   -0.0383 H   0  0  0  0  0  0  0  0  0  0  0  0
   -1.7921   -2.2226    0.8327 C   0  0  0  0  0  0  0  0  0  0  0  0
   -0.7611   -2.7766    1.1927 O   0  0  0  0  0  0  0  0  0  0  0  0
   -1.8201   -0.9926    0.3247 N   0  0  0  0  0  0  0  0  0  0  0  0
   -2.7141   -0.5816    0.0927 H   0  0  0  0  0  0  0  0  0  0  0  0
   -0.6481   -0.1156    0.2017 C   0  0  1  0  0  0  0  0  0  0  0  0
    0.1042   -0.6345   -0.3958 H   0  0  0  0  0  0  0  0  0  0  0  0
   -1.0420    1.1781   -0.5372 C   0  0  0  0  0  0  0  0  0  0  0  0
   -0.8948    1.0497   -1.6106 H   0  0  0  0  0  0  0  0  0  0  0  0
   -2.0997    1.3890   -0.3739 H   0  0  0  0  0  0  0  0  0  0  0  0
   -0.2204    2.3704   -0.1112 C   0  0  0  0  0  0  0  0  0  0  0  0
    0.5924    3.1422   -0.9425 N   0  0  0  0  0  0  0  0  0  0  0  0
    1.0921    4.1170   -0.1689 C   0  0  0  0  0  0  0  0  0  0  0  0
    1.7749    4.8832   -0.5135 H   0  0  0  0  0  0  0  0  0  0  0  0
    0.6185    4.0110    1.0840 N   0  0  0  0  0  0  0  0  0  0  0  0
    0.8325    4.6390    1.8467 H   0  0  0  0  0  0  0  0  0  0  0  0
   -0.2152    2.9163    1.1391 C   0  0  0  0  0  0  0  0  0  0  0  0
   -0.7800    2.5574    1.9903 H   0  0  0  0  0  0  0  0  0  0  0  0
   -0.0283    0.1609    1.5831 C   0  0  0  0  0  0  0  0  0  0  0  0
    1.1923    0.1056    1.7329 O   0  0  0  0  0  0  0  0  0  0  0  0
   -0.8586    0.4659    2.5853 N   0  0  0  0  0  0  0  0  0  0  0  0
   -1.8521    0.3848    2.4000 H   0  0  0  0  0  0  0  0  0  0  0  0
   -0.4403    0.7694    3.9518 C   0  0  0  0  0  0  0  0  0  0  0  0
    0.5066    1.3154    3.9421 H   0  0  0  0  0  0  0  0  0  0  0  0
   -1.1988    1.3789    4.4452 H   0  0  0  0  0  0  0  0  0  0  0  0
   -0.3053   -0.1600    4.5075 H   0  0  0  0  0  0  0  0  0  0  0  0
  5  6  2  0  0  0  0
  5  7  1  0  0  0  0
  2  3  1  0  0  0  0
  2  4  1  0  0  0  0
  2  5  1  0  0  0  0
  1  2  1  0  0  0  0
 22 23  2  0  0  0  0
 22 24  1  0  0  0  0
 20 21  1  0  0  0  0
 18 19  1  0  0  0  0
 18 20  1  0  0  0  0
 16 17  1  0  0  0  0
 16 18  1  0  0  0  0
 15 16  2  0  0  0  0
 14 15  1  0  0  0  0
 14 20  2  0  0  0  0
 11 12  1  0  0  0  0
 11 13  1  0  0  0  0
 11 14  1  0  0  0  0
  9 10  1  0  0  0  0
  9 11  1  0  0  0  0
  9 22  1  0  0  0  0
  7  8  1  0  0  0  0
  7  9  1  0  0  0  0
 26 27  1  0  0  0  0
 26 28  1  0  0  0  0
 26 29  1  0  0  0  0
 24 25  1  0  0  0  0
 24 26  1  0  0  0  0
M  END
$$$$
default_name
  -OEChem-02102213163D

 29 29  0     1  0  0  0  0  0999 V2000
   -2.9561   -3.9186    1.3887 H   0  0  0  0  0  0  0  0  0  0  0  0
   -3.1191   -2.9346    0.9517 C   0  0  0  0  0  0  0  0  0  0  0  0
   -3.7811   -2.3546    1.5917 H   0  0  0  0  0  0  0  0  0  0  0  0
   -3.5591   -3.0406   -0.0383 H   0  0  0  0  0  0  0  0  0  0  0  0
   -1.7921   -2.2226    0.8327 C   0  0  0  0  0  0  0  0  0  0  0  0
   -0.7611   -2.7766    1.1927 O   0  0  0  0  0  0  0  0  0  0  0  0
   -1.8201   -0.9926    0.3247 N   0  0  0  0  0  0  0  0  0  0  0  0
   -2.7141   -0.5816    0.0927 H   0  0  0  0  0  0  0  0  0  0  0  0
   -0.6481   -0.1156    0.2017 C   0  0  1  0  0  0  0  0  0  0  0  0
    0.1042   -0.6345   -0.3958 H   0  0  0  0  0  0  0  0  0  0  0  0
   -1.0420    1.1781   -0.5372 C   0  0  0  0  0  0  0  0  0  0  0  0
   -0.8948    1.0497   -1.6106 H   0  0  0  0  0  0  0  0  0  0  0  0
   -2.0997    1.3890   -0.3739 H   0  0  0  0  0  0  0  0  0  0  0  0
   -0.2204    2.3704   -0.1112 C   0  0  0  0  0  0  0  0  0  0  0  0
    0.3535    3.3144   -0.9638 N   0  0  0  0  0  0  0  0  0  0  0  0
    0.9465    4.2174   -0.1692 C   0  0  0  0  0  0  0  0  0  0  0  0
    1.4960    5.0797   -0.5253 H   0  0  0  0  0  0  0  0  0  0  0  0
    0.7532    3.9042    1.1230 N   0  0  0  0  0  0  0  0  0  0  0  0
    1.0853    4.4413    1.9124 H   0  0  0  0  0  0  0  0  0  0  0  0
    0.0150    2.7431    1.1799 C   0  0  0  0  0  0  0  0  0  0  0  0
   -0.3368    2.2258    2.0637 H   0  0  0  0  0  0  0  0  0  0  0  0
   -0.0283    0.1609    1.5831 C   0  0  0  0  0  0  0  0  0  0  0  0
    1.1923    0.1056    1.7329 O   0  0  0  0  0  0  0  0  0  0  0  0
   -0.8586    0.4659    2.5853 N   0  0  0  0  0  0  0  0  0  0  0  0
   -1.8521    0.3848    2.4000 H   0  0  0  0  0  0  0  0  0  0  0  0
   -0.4403    0.7694    3.9518 C   0  0  0  0  0  0  0  0  0  0  0  0
    0.5066    1.3154    3.9421 H   0  0  0  0  0  0  0  0  0  0  0  0
   -1.1988    1.3789    4.4452 H   0  0  0  0  0  0  0  0  0  0  0  0
   -0.3053   -0.1600    4.5075 H   0  0  0  0  0  0  0  0  0  0  0  0
  5  6  2  0  0  0  0
  5  7  1  0  0  0  0
  2  3  1  0  0  0  0
  2  4  1  0  0  0  0
  2  5  1  0  0  0  0
  1  2  1  0  0  0  0
 22 23  2  0  0  0  0
 22 24  1  0  0  0  0
 20 21  1  0  0  0  0
 18 19  1  0  0  0  0
 18 20  1  0  0  0  0
 16 17  1  0  0  0  0
 16 18  1  0  0  0  0
 15 16  2  0  0  0  0
 14 15  1  0  0  0  0
 14 20  2  0  0  0  0
 11 12  1  0  0  0  0
 11 13  1  0  0  0  0
 11 14  1  0  0  0  0
  9 10  1  0  0  0  0
  9 11  1  0  0  0  0
  9 22  1  0  0  0  0
  7  8  1  0  0  0  0
  7  9  1  0  0  0  0
 26 27  1  0  0  0  0
 26 28  1  0  0  0  0
 26 29  1  0  0  0  0
 24 25  1  0  0  0  0
 24 26  1  0  0  0  0
M  END
$$$$
default_name
  -OEChem-02102213163D

 29 29  0     1  0  0  0  0  0999 V2000
   -2.9561   -3.9186    1.3887 H   0  0  0  0  0  0  0  0  0  0  0  0
   -3.1191   -2.9346    0.9517 C   0  0  0  0  0  0  0  0  0  0  0  0
   -3.7811   -2.3546    1.5917 H   0  0  0  0  0  0  0  0  0  0  0  0
   -3.5591   -3.0406   -0.0383 H   0  0  0  0  0  0  0  0  0  0  0  0
   -1.7921   -2.2226    0.8327 C   0  0  0  0  0  0  0  0  0  0  0  0
   -0.7611   -2.7766    1.1927 O   0  0  0  0  0  0  0  0  0  0  0  0
   -1.8201   -0.9926    0.3247 N   0  0  0  0  0  0  0  0  0  0  0  0
   -2.7141   -0.5816    0.0927 H   0  0  0  0  0  0  0  0  0  0  0  0
   -0.6481   -0.1156    0.2017 C   0  0  1  0  0  0  0  0  0  0  0  0
    0.1042   -0.6345   -0.3958 H   0  0  0  0  0  0  0  0  0  0  0  0
   -1.0420    1.1781   -0.5372 C   0  0  0  0  0  0  0  0  0  0  0  0
   -0.8948    1.0497   -1.6106 H   0  0  0  0  0  0  0  0  0  0  0  0
   -2.0997    1.3890   -0.3739 H   0  0  0  0  0  0  0  0  0  0  0  0
   -0.2204    2.3704   -0.1112 C   0  0  0  0  0  0  0  0  0  0  0  0
    0.1059    3.4663   -0.9112 N   0  0  0  0  0  0  0  0  0  0  0  0
    0.7985    4.3038   -0.1256 C   0  0  0  0  0  0  0  0  0  0  0  0
    1.2098    5.2507   -0.4520 H   0  0  0  0  0  0  0  0  0  0  0  0
    0.8991    3.8055    1.1181 N   0  0  0  0  0  0  0  0  0  0  0  0
    1.3574    4.2596    1.8963 H   0  0  0  0  0  0  0  0  0  0  0  0
    0.2583    2.5869    1.1478 C   0  0  0  0  0  0  0  0  0  0  0  0
    0.1305    1.9276    1.9972 H   0  0  0  0  0  0  0  0  0  0  0  0
   -0.0283    0.1609    1.5831 C   0  0  0  0  0  0  0  0  0  0  0  0
    1.1923    0.1056    1.7329 O   0  0  0  0  0  0  0  0  0  0  0  0
   -0.8586    0.4659    2.5853 N   0  0  0  0  0  0  0  0  0  0  0  0
   -1.8521    0.3848    2.4000 H   0  0  0  0  0  0  0  0  0  0  0  0
   -0.4403    0.7694    3.9518 C   0  0  0  0  0  0  0  0  0  0  0  0
    0.5066    1.3154    3.9421 H   0  0  0  0  0  0  0  0  0  0  0  0
   -1.1988    1.3789    4.4452 H   0  0  0  0  0  0  0  0  0  0  0  0
   -0.3053   -0.1600    4.5075 H   0  0  0  0  0  0  0  0  0  0  0  0
  5  6  2  0  0  0  0
  5  7  1  0  0  0  0
  2  3  1  0  0  0  0
  2  4  1  0  0  0  0
  2  5  1  0  0  0  0
  1  2  1  0  0  0  0
 22 23  2  0  0  0  0
 22 24  1  0  0  0  0
 20 21  1  0  0  0  0
 18 19  1  0  0  0  0
 18 20  1  0  0  0  0
 16 17  1  0  0  0  0
 16 18  1  0  0  0  0
 15 16  2  0  0  0  0
 14 15  1  0  0  0  0
 14 20  2  0  0  0  0
 11 12  1  0  0  0  0
 11 13  1  0  0  0  0
 11 14  1  0  0  0  0
  9 10  1  0  0  0  0
  9 11  1  0  0  0  0
  9 22  1  0  0  0  0
  7  8  1  0  0  0  0
  7  9  1  0  0  0  0
 26 27  1  0  0  0  0
 26 28  1  0  0  0  0
 26 29  1  0  0  0  0
 24 25  1  0  0  0  0
 24 26  1  0  0  0  0
M  END
$$$$
default_name
  -OEChem-02102213163D

 29 29  0     1  0  0  0  0  0999 V2000
   -2.9561   -3.9186    1.3887 H   0  0  0  0  0  0  0  0  0  0  0  0
   -3.1191   -2.9346    0.9517 C   0  0  0  0  0  0  0  0  0  0  0  0
   -3.7811   -2.3546    1.5917 H   0  0  0  0  0  0  0  0  0  0  0  0
   -3.5591   -3.0406   -0.0383 H   0  0  0  0  0  0  0  0  0  0  0  0
   -1.7921   -2.2226    0.8327 C   0  0  0  0  0  0  0  0  0  0  0  0
   -0.7611   -2.7766    1.1927 O   0  0  0  0  0  0  0  0  0  0  0  0
   -1.8201   -0.9926    0.3247 N   0  0  0  0  0  0  0  0  0  0  0  0
   -2.7141   -0.5816    0.0927 H   0  0  0  0  0  0  0  0  0  0  0  0
   -0.6481   -0.1156    0.2017 C   0  0  1  0  0  0  0  0  0  0  0  0
    0.1042   -0.6345   -0.3958 H   0  0  0  0  0  0  0  0  0  0  0  0
   -1.0420    1.1781   -0.5372 C   0  0  0  0  0  0  0  0  0  0  0  0
   -0.8948    1.0497   -1.6106 H   0  0  0  0  0  0  0  0  0  0  0  0
   -2.0997    1.3890   -0.3739 H   0  0  0  0  0  0  0  0  0  0  0  0
   -0.2204    2.3704   -0.1112 C   0  0  0  0  0  0  0  0  0  0  0  0
   -0.1337    3.5875   -0.7884 N   0  0  0  0  0  0  0  0  0  0  0  0
    0.6581    4.3703   -0.0411 C   0  0  0  0  0  0  0  0  0  0  0  0
    0.9358    5.3846   -0.2986 H   0  0  0  0  0  0  0  0  0  0  0  0
    1.0463    3.7214    1.0696 N   0  0  0  0  0  0  0  0  0  0  0  0
    1.6302    4.1062    1.7995 H   0  0  0  0  0  0  0  0  0  0  0  0
    0.4982    2.4582    1.0451 C   0  0  0  0  0  0  0  0  0  0  0  0
    0.5901    1.6830    1.7954 H   0  0  0  0  0  0  0  0  0  0  0  0
   -0.0283    0.1609    1.5831 C   0  0  0  0  0  0  0  0  0  0  0  0
    1.1923    0.1056    1.7329 O   0  0  0  0  0  0  0  0  0  0  0  0
   -0.8586    0.4659    2.5853 N   0  0  0  0  0  0  0  0  0  0  0  0
   -1.8521    0.3848    2.4000 H   0  0  0  0  0  0  0  0  0  0  0  0
   -0.4403    0.7694    3.9518 C   0  0  0  0  0  0  0  0  0  0  0  0
    0.5066    1.3154    3.9421 H   0  0  0  0  0  0  0  0  0  0  0  0
   -1.1988    1.3789    4.4452 H   0  0  0  0  0  0  0  0  0  0  0  0
   -0.3053   -0.1600    4.5075 H   0  0  0  0  0  0  0  0  0  0  0  0
  5  6  2  0  0  0  0
  5  7  1  0  0  0  0
  2  3  1  0  0  0  0
  2  4  1  0  0  0  0
  2  5  1  0  0  0  0
  1  2  1  0  0  0  0
 22 23  2  0  0  0  0
 22 24  1  0  0  0  0
 20 21  1  0  0  0  0
 18 19  1  0  0  0  0
 18 20  1  0  0  0  0
 16 17  1  0  0  0  0
 16 18  1  0  0  0  0
 15 16  2  0  0  0  0
 14 15  1  0  0  0  0
 14 20  2  0  0  0  0
 11 12  1  0  0  0  0
 11 13  1  0  0  0  0
 11 14  1  0  0  0  0
  9 10  1  0  0  0  0
  9 11  1  0  0  0  0
  9 22  1  0  0  0  0
  7  8  1  0  0  0  0
  7  9  1  0  0  0  0
 26 27  1  0  0  0  0
 26 28  1  0  0  0  0
 26 29  1  0  0  0  0
 24 25  1  0  0  0  0
 24 26  1  0  0  0  0
M  END
$$$$
default_name
  -OEChem-02102213163D

 29 29  0     1  0  0  0  0  0999 V2000
   -2.9561   -3.9186    1.3887 H   0  0  0  0  0  0  0  0  0  0  0  0
   -3.1191   -2.9346    0.9517 C   0  0  0  0  0  0  0  0  0  0  0  0
   -3.7811   -2.3546    1.5917 H   0  0  0  0  0  0  0  0  0  0  0  0
   -3.5591   -3.0406   -0.0383 H   0  0  0  0  0  0  0  0  0  0  0  0
   -1.7921   -2.2226    0.8327 C   0  0  0  0  0  0  0  0  0  0  0  0
   -0.7611   -2.7766    1.1927 O   0  0  0  0  0  0  0  0  0  0  0  0
   -1.8201   -0.9926    0.3247 N   0  0  0  0  0  0  0  0  0  0  0  0
   -2.7141   -0.5816    0.0927 H   0  0  0  0  0  0  0  0  0  0  0  0
   -0.6481   -0.1156    0.2017 C   0  0  1  0  0  0  0  0  0  0  0  0
    0.1042   -0.6345   -0.3958 H   0  0  0  0  0  0  0  0  0  0  0  0
   -1.0420    1.1781   -0.5372 C   0  0  0  0  0  0  0  0  0  0  0  0
   -1.1522    0.9754   -1.6035 H   0  0  0  0  0  0  0  0  0  0  0  0
   -2.0053    1.5344   -0.1696 H   0  0  0  0  0  0  0  0  0  0  0  0
   -0.0130    2.2728   -0.3927 C   0  0  0  0  0  0  0  0  0  0  0  0
   -0.0947    3.5501   -0.9487 N   0  0  0  0  0  0  0  0  0  0  0  0
    0.9989    4.2049   -0.5319 C   0  0  0  0  0  0  0  0  0  0  0  0
    1.2413    5.2254   -0.8003 H   0  0  0  0  0  0  0  0  0  0  0  0
    1.7395    3.4198    0.2684 N   0  0  0  0  0  0  0  0  0  0  0  0
    2.6001    3.6921    0.7233 H   0  0  0  0  0  0  0  0  0  0  0  0
    1.1146    2.1970    0.3716 C   0  0  0  0  0  0  0  0  0  0  0  0
    1.4288    1.3410    0.9555 H   0  0  0  0  0  0  0  0  0  0  0  0
   -0.0283    0.1609    1.5831 C   0  0  0  0  0  0  0  0  0  0  0  0
    1.1923    0.1056    1.7329 O   0  0  0  0  0  0  0  0  0  0  0  0
   -0.8586    0.4659    2.5853 N   0  0  0  0  0  0  0  0  0  0  0  0
   -1.8521    0.3848    2.4000 H   0  0  0  0  0  0  0  0  0  0  0  0
   -0.4403    0.7694    3.9518 C   0  0  0  0  0  0  0  0  0  0  0  0
    0.5066    1.3154    3.9421 H   0  0  0  0  0  0  0  0  0  0  0  0
   -1.1988    1.3789    4.4452 H   0  0  0  0  0  0  0  0  0  0  0  0
   -0.3053   -0.1600    4.5075 H   0  0  0  0  0  0  0  0  0  0  0  0
  5  6  2  0  0  0  0
  5  7  1  0  0  0  0
  2  3  1  0  0  0  0
  2  4  1  0  0  0  0
  2  5  1  0  0  0  0
  1  2  1  0  0  0  0
 22 23  2  0  0  0  0
 22 24  1  0  0  0  0
 20 21  1  0  0  0  0
 18 19  1  0  0  0  0
 18 20  1  0  0  0  0
 16 17  1  0  0  0  0
 16 18  1  0  0  0  0
 15 16  2  0  0  0  0
 14 15  1  0  0  0  0
 14 20  2  0  0  0  0
 11 12  1  0  0  0  0
 11 13  1  0  0  0  0
 11 14  1  0  0  0  0
  9 10  1  0  0  0  0
  9 11  1  0  0  0  0
  9 22  1  0  0  0  0
  7  8  1  0  0  0  0
  7  9  1  0  0  0  0
 26 27  1  0  0  0  0
 26 28  1  0  0  0  0
 26 29  1  0  0  0  0
 24 25  1  0  0  0  0
 24 26  1  0  0  0  0
M  END
$$$$
default_name
  -OEChem-02102213163D

 29 29  0     1  0  0  0  0  0999 V2000
   -2.9561   -3.9186    1.3887 H   0  0  0  0  0  0  0  0  0  0  0  0
   -3.1191   -2.9346    0.9517 C   0  0  0  0  0  0  0  0  0  0  0  0
   -3.7811   -2.3546    1.5917 H   0  0  0  0  0  0  0  0  0  0  0  0
   -3.5591   -3.0406   -0.0383 H   0  0  0  0  0  0  0  0  0  0  0  0
   -1.7921   -2.2226    0.8327 C   0  0  0  0  0  0  0  0  0  0  0  0
   -0.7611   -2.7766    1.1927 O   0  0  0  0  0  0  0  0  0  0  0  0
   -1.8201   -0.9926    0.3247 N   0  0  0  0  0  0  0  0  0  0  0  0
   -2.7141   -0.5816    0.0927 H   0  0  0  0  0  0  0  0  0  0  0  0
   -0.6481   -0.1156    0.2017 C   0  0  1  0  0  0  0  0  0  0  0  0
    0.1042   -0.6345   -0.3958 H   0  0  0  0  0  0  0  0  0  0  0  0
   -1.0420    1.1781   -0.5372 C   0  0  0  0  0  0  0  0  0  0  0  0
   -1.1522    0.9754   -1.6035 H   0  0  0  0  0  0  0  0  0  0  0  0
   -2.0053    1.5344   -0.1696 H   0  0  0  0  0  0  0  0  0  0  0  0
   -0.0130    2.2728   -0.3927 C   0  0  0  0  0  0  0  0  0  0  0  0
   -0.2089    3.6229   -0.6864 N   0  0  0  0  0  0  0  0  0  0  0  0
    0.9387    4.2401   -0.3694 C   0  0  0  0  0  0  0  0  0  0  0  0
    1.1176    5.3009   -0.4912 H   0  0  0  0  0  0  0  0  0  0  0  0
    1.8240    3.3592    0.1262 N   0  0  0  0  0  0  0  0  0  0  0  0
    2.7532    3.5837    0.4548 H   0  0  0  0  0  0  0  0  0  0  0  0
    1.2398    2.1121    0.1231 C   0  0  0  0  0  0  0  0  0  0  0  0
    1.6660    1.1814    0.4759 H   0  0  0  0  0  0  0  0  0  0  0  0
   -0.0283    0.1609    1.5831 C   0  0  0  0  0  0  0  0  0  0  0  0
    1.1923    0.1056    1.7329 O   0  0  0  0  0  0  0  0  0  0  0  0
   -0.8586    0.4659    2.5853 N   0  0  0  0  0  0  0  0  0  0  0  0
   -1.8521    0.3848    2.4000 H   0  0  0  0  0  0  0  0  0  0  0  0
   -0.4403    0.7694    3.9518 C   0  0  0  0  0  0  0  0  0  0  0  0
    0.5066    1.3154    3.9421 H   0  0  0  0  0  0  0  0  0  0  0  0
   -1.1988    1.3789    4.4452 H   0  0  0  0  0  0  0  0  0  0  0  0
   -0.3053   -0.1600    4.5075 H   0  0  0  0  0  0  0  0  0  0  0  0
  5  6  2  0  0  0  0
  5  7  1  0  0  0  0
  2  3  1  0  0  0  0
  2  4  1  0  0  0  0
  2  5  1  0  0  0  0
  1  2  1  0  0  0  0
 22 23  2  0  0  0  0
 22 24  1  0  0  0  0
 20 21  1  0  0  0  0
 18 19  1  0  0  0  0
 18 20  1  0  0  0  0
 16 17  1  0  0  0  0
 16 18  1  0  0  0  0
 15 16  2  0  0  0  0
 14 15  1  0  0  0  0
 14 20  2  0  0  0  0
 11 12  1  0  0  0  0
 11 13  1  0  0  0  0
 11 14  1  0  0  0  0
  9 10  1  0  0  0  0
  9 11  1  0  0  0  0
  9 22  1  0  0  0  0
  7  8  1  0  0  0  0
  7  9  1  0  0  0  0
 26 27  1  0  0  0  0
 26 28  1  0  0  0  0
 26 29  1  0  0  0  0
 24 25  1  0  0  0  0
 24 26  1  0  0  0  0
M  END
$$$$
default_name
  -OEChem-02102213163D

 29 29  0     1  0  0  0  0  0999 V2000
   -2.9561   -3.9186    1.3887 H   0  0  0  0  0  0  0  0  0  0  0  0
   -3.1191   -2.9346    0.9517 C   0  0  0  0  0  0  0  0  0  0  0  0
   -3.7811   -2.3546    1.5917 H   0  0  0  0  0  0  0  0  0  0  0  0
   -3.5591   -3.0406   -0.0383 H   0  0  0  0  0  0  0  0  0  0  0  0
   -1.7921   -2.2226    0.8327 C   0  0  0  0  0  0  0  0  0  0  0  0
   -0.7611   -2.7766    1.1927 O   0  0  0  0  0  0  0  0  0  0  0  0
   -1.8201   -0.9926    0.3247 N   0  0  0  0  0  0  0  0  0  0  0  0
   -2.7141   -0.5816    0.0927 H   0  0  0  0  0  0  0  0  0  0  0  0
   -0.6481   -0.1156    0.2017 C   0  0  1  0  0  0  0  0  0  0  0  0
    0.1042   -0.6345   -0.3958 H   0  0  0  0  0  0  0  0  0  0  0  0
   -1.0420    1.1781   -0.5372 C   0  0  0  0  0  0  0  0  0  0  0  0
   -1.1522    0.9754   -1.6035 H   0  0  0  0  0  0  0  0  0  0  0  0
   -2.0053    1.5344   -0.1696 H   0  0  0  0  0  0  0  0  0  0  0  0
   -0.0130    2.2728   -0.3927 C   0  0  0  0  0  0  0  0  0  0  0  0
   -0.2718    3.6441   -0.3987 N   0  0  0  0  0  0  0  0  0  0  0  0
    0.9102    4.2439   -0.1949 C   0  0  0  0  0  0  0  0  0  0  0  0
    1.0543    5.3162   -0.1561 H   0  0  0  0  0  0  0  0  0  0  0  0
    1.8804    3.3278   -0.0378 N   0  0  0  0  0  0  0  0  0  0  0  0
    2.8533    3.5302    0.1475 H   0  0  0  0  0  0  0  0  0  0  0  0
    1.3162    2.0770   -0.1555 C   0  0  0  0  0  0  0  0  0  0  0  0
    1.8090    1.1177   -0.0600 H   0  0  0  0  0  0  0  0  0  0  0  0
   -0.0283    0.1609    1.5831 C   0  0  0  0  0  0  0  0  0  0  0  0
    1.1923    0.1056    1.7329 O   0  0  0  0  0  0  0  0  0  0  0  0
   -0.8586    0.4659    2.5853 N   0  0  0  0  0  0  0  0  0  0  0  0
   -1.8521    0.3848    2.4000 H   0  0  0  0  0  0  0  0  0  0  0  0
   -0.4403    0.7694    3.9518 C   0  0  0  0  0  0  0  0  0  0  0  0
    0.5066    1.3154    3.9421 H   0  0  0  0  0  0  0  0  0  0  0  0
   -1.1988    1.3789    4.4452 H   0  0  0  0  0  0  0  0  0  0  0  0
   -0.3053   -0.1600    4.5075 H   0  0  0  0  0  0  0  0  0  0  0  0
  5  6  2  0  0  0  0
  5  7  1  0  0  0  0
  2  3  1  0  0  0  0
  2  4  1  0  0  0  0
  2  5  1  0  0  0  0
  1  2  1  0  0  0  0
 22 23  2  0  0  0  0
 22 24  1  0  0  0  0
 20 21  1  0  0  0  0
 18 19  1  0  0  0  0
 18 20  1  0  0  0  0
 16 17  1  0  0  0  0
 16 18  1  0  0  0  0
 15 16  2  0  0  0  0
 14 15  1  0  0  0  0
 14 20  2  0  0  0  0
 11 12  1  0  0  0  0
 11 13  1  0  0  0  0
 11 14  1  0  0  0  0
  9 10  1  0  0  0  0
  9 11  1  0  0  0  0
  9 22  1  0  0  0  0
  7  8  1  0  0  0  0
  7  9  1  0  0  0  0
 26 27  1  0  0  0  0
 26 28  1  0  0  0  0
 26 29  1  0  0  0  0
 24 25  1  0  0  0  0
 24 26  1  0  0  0  0
M  END
$$$$
default_name
  -OEChem-02102213163D

 29 29  0     1  0  0  0  0  0999 V2000
   -2.9561   -3.9186    1.3887 H   0  0  0  0  0  0  0  0  0  0  0  0
   -3.1191   -2.9346    0.9517 C   0  0  0  0  0  0  0  0  0  0  0  0
   -3.7811   -2.3546    1.5917 H   0  0  0  0  0  0  0  0  0  0  0  0
   -3.5591   -3.0406   -0.0383 H   0  0  0  0  0  0  0  0  0  0  0  0
   -1.7921   -2.2226    0.8327 C   0  0  0  0  0  0  0  0  0  0  0  0
   -0.7611   -2.7766    1.1927 O   0  0  0  0  0  0  0  0  0  0  0  0
   -1.8201   -0.9926    0.3247 N   0  0  0  0  0  0  0  0  0  0  0  0
   -2.7141   -0.5816    0.0927 H   0  0  0  0  0  0  0  0  0  0  0  0
   -0.6481   -0.1156    0.2017 C   0  0  1  0  0  0  0  0  0  0  0  0
    0.1042   -0.6345   -0.3958 H   0  0  0  0  0  0  0  0  0  0  0  0
   -1.0420    1.1781   -0.5372 C   0  0  0  0  0  0  0  0  0  0  0  0
   -1.1522    0.9754   -1.6035 H   0  0  0  0  0  0  0  0  0  0  0  0
   -2.0053    1.5344   -0.1696 H   0  0  0  0  0  0  0  0  0  0  0  0
   -0.0130    2.2728   -0.3927 C   0  0  0  0  0  0  0  0  0  0  0  0
   -0.2791    3.6122   -0.1053 N   0  0  0  0  0  0  0  0  0  0  0  0
    0.9153    4.2160   -0.0204 C   0  0  0  0  0  0  0  0  0  0  0  0
    1.0556    5.2703    0.1822 H   0  0  0  0  0  0  0  0  0  0  0  0
    1.9049    3.3278   -0.2124 N   0  0  0  0  0  0  0  0  0  0  0  0
    2.8937    3.5351   -0.1776 H   0  0  0  0  0  0  0  0  0  0  0  0
    1.3385    2.0942   -0.4450 C   0  0  0  0  0  0  0  0  0  0  0  0
    1.8481    1.1543   -0.6157 H   0  0  0  0  0  0  0  0  0  0  0  0
   -0.0283    0.1609    1.5831 C   0  0  0  0  0  0  0  0  0  0  0  0
    1.1923    0.1056    1.7329 O   0  0  0  0  0  0  0  0  0  0  0  0
   -0.8586    0.4659    2.5853 N   0  0  0  0  0  0  0  0  0  0  0  0
   -1.8521    0.3848    2.4000 H   0  0  0  0  0  0  0  0  0  0  0  0
   -0.4403    0.7694    3.9518 C   0  0  0  0  0  0  0  0  0  0  0  0
    0.5066    1.3154    3.9421 H   0  0  0  0  0  0  0  0  0  0  0  0
   -1.1988    1.3789    4.4452 H   0  0  0  0  0  0  0  0  0  0  0  0
   -0.3053   -0.1600    4.5075 H   0  0  0  0  0  0  0  0  0  0  0  0
  5  6  2  0  0  0  0
  5  7  1  0  0  0  0
  2  3  1  0  0  0  0
  2  4  1  0  0  0  0
  2  5  1  0  0  0  0
  1  2  1  0  0  0  0
 22 23  2  0  0  0  0
 22 24  1  0  0  0  0
 20 21  1  0  0  0  0
 18 19  1  0  0  0  0
 18 20  1  0  0  0  0
 16 17  1  0  0  0  0
 16 18  1  0  0  0  0
 15 16  2  0  0  0  0
 14 15  1  0  0  0  0
 14 20  2  0  0  0  0
 11 12  1  0  0  0  0
 11 13  1  0  0  0  0
 11 14  1  0  0  0  0
  9 10  1  0  0  0  0
  9 11  1  0  0  0  0
  9 22  1  0  0  0  0
  7  8  1  0  0  0  0
  7  9  1  0  0  0  0
 26 27  1  0  0  0  0
 26 28  1  0  0  0  0
 26 29  1  0  0  0  0
 24 25  1  0  0  0  0
 24 26  1  0  0  0  0
M  END
$$$$
default_name
  -OEChem-02102213163D

 29 29  0     1  0  0  0  0  0999 V2000
   -2.9561   -3.9186    1.3887 H   0  0  0  0  0  0  0  0  0  0  0  0
   -3.1191   -2.9346    0.9517 C   0  0  0  0  0  0  0  0  0  0  0  0
   -3.7811   -2.3546    1.5917 H   0  0  0  0  0  0  0  0  0  0  0  0
   -3.5591   -3.0406   -0.0383 H   0  0  0  0  0  0  0  0  0  0  0  0
   -1.7921   -2.2226    0.8327 C   0  0  0  0  0  0  0  0  0  0  0  0
   -0.7611   -2.7766    1.1927 O   0  0  0  0  0  0  0  0  0  0  0  0
   -1.8201   -0.9926    0.3247 N   0  0  0  0  0  0  0  0  0  0  0  0
   -2.7141   -0.5816    0.0927 H   0  0  0  0  0  0  0  0  0  0  0  0
   -0.6481   -0.1156    0.2017 C   0  0  1  0  0  0  0  0  0  0  0  0
    0.1042   -0.6345   -0.3958 H   0  0  0  0  0  0  0  0  0  0  0  0
   -1.0420    1.1781   -0.5372 C   0  0  0  0  0  0  0  0  0  0  0  0
   -1.1522    0.9754   -1.6035 H   0  0  0  0  0  0  0  0  0  0  0  0
   -2.0053    1.5344   -0.1696 H   0  0  0  0  0  0  0  0  0  0  0  0
   -0.0130    2.2728   -0.3927 C   0  0  0  0  0  0  0  0  0  0  0  0
   -0.2303    3.5294    0.1739 N   0  0  0  0  0  0  0  0  0  0  0  0
    0.9536    4.1585    0.1424 C   0  0  0  0  0  0  0  0  0  0  0  0
    1.1216    5.1663    0.5006 H   0  0  0  0  0  0  0  0  0  0  0  0
    1.8958    3.3592   -0.3856 N   0  0  0  0  0  0  0  0  0  0  0  0
    2.8715    3.5983   -0.4983 H   0  0  0  0  0  0  0  0  0  0  0  0
    1.3054    2.1625   -0.7259 C   0  0  0  0  0  0  0  0  0  0  0  0
    1.7807    1.2886   -1.1534 H   0  0  0  0  0  0  0  0  0  0  0  0
   -0.0283    0.1609    1.5831 C   0  0  0  0  0  0  0  0  0  0  0  0
    1.1923    0.1056    1.7329 O   0  0  0  0  0  0  0  0  0  0  0  0
   -0.8586    0.4659    2.5853 N   0  0  0  0  0  0  0  0  0  0  0  0
   -1.8521    0.3848    2.4000 H   0  0  0  0  0  0  0  0  0  0  0  0
   -0.4403    0.7694    3.9518 C   0  0  0  0  0  0  0  0  0  0  0  0
    0.5066    1.3154    3.9421 H   0  0  0  0  0  0  0  0  0  0  0  0
   -1.1988    1.3789    4.4452 H   0  0  0  0  0  0  0  0  0  0  0  0
   -0.3053   -0.1600    4.5075 H   0  0  0  0  0  0  0  0  0  0  0  0
  5  6  2  0  0  0  0
  5  7  1  0  0  0  0
  2  3  1  0  0  0  0
  2  4  1  0  0  0  0
  2  5  1  0  0  0  0
  1  2  1  0  0  0  0
 22 23  2  0  0  0  0
 22 24  1  0  0  0  0
 20 21  1  0  0  0  0
 18 19  1  0  0  0  0
 18 20  1  0  0  0  0
 16 17  1  0  0  0  0
 16 18  1  0  0  0  0
 15 16  2  0  0  0  0
 14 15  1  0  0  0  0
 14 20  2  0  0  0  0
 11 12  1  0  0  0  0
 11 13  1  0  0  0  0
 11 14  1  0  0  0  0
  9 10  1  0  0  0  0
  9 11  1  0  0  0  0
  9 22  1  0  0  0  0
  7  8  1  0  0  0  0
  7  9  1  0  0  0  0
 26 27  1  0  0  0  0
 26 28  1  0  0  0  0
 26 29  1  0  0  0  0
 24 25  1  0  0  0  0
 24 26  1  0  0  0  0
M  END
$$$$
default_name
  -OEChem-02102213163D

 29 29  0     1  0  0  0  0  0999 V2000
   -2.9561   -3.9186    1.3887 H   0  0  0  0  0  0  0  0  0  0  0  0
   -3.1191   -2.9346    0.9517 C   0  0  0  0  0  0  0  0  0  0  0  0
   -3.7811   -2.3546    1.5917 H   0  0  0  0  0  0  0  0  0  0  0  0
   -3.5591   -3.0406   -0.0383 H   0  0  0  0  0  0  0  0  0  0  0  0
   -1.7921   -2.2226    0.8327 C   0  0  0  0  0  0  0  0  0  0  0  0
   -0.7611   -2.7766    1.1927 O   0  0  0  0  0  0  0  0  0  0  0  0
   -1.8201   -0.9926    0.3247 N   0  0  0  0  0  0  0  0  0  0  0  0
   -2.7141   -0.5816    0.0927 H   0  0  0  0  0  0  0  0  0  0  0  0
   -0.6481   -0.1156    0.2017 C   0  0  1  0  0  0  0  0  0  0  0  0
    0.1042   -0.6345   -0.3958 H   0  0  0  0  0  0  0  0  0  0  0  0
   -1.0420    1.1781   -0.5372 C   0  0  0  0  0  0  0  0  0  0  0  0
   -1.1522    0.9754   -1.6035 H   0  0  0  0  0  0  0  0  0  0  0  0
   -2.0053    1.5344   -0.1696 H   0  0  0  0  0  0  0  0  0  0  0  0
   -0.0130    2.2728   -0.3927 C   0  0  0  0  0  0  0  0  0  0  0  0
   -0.1287    3.4014    0.4198 N   0  0  0  0  0  0  0  0  0  0  0  0
    1.0227    4.0751    0.2822 C   0  0  0  0  0  0  0  0  0  0  0  0
    1.2476    5.0113    0.7774 H   0  0  0  0  0  0  0  0  0  0  0  0
    1.8538    3.4199   -0.5456 N   0  0  0  0  0  0  0  0  0  0  0  0
    2.7884    3.7154   -0.7928 H   0  0  0  0  0  0  0  0  0  0  0  0
    1.2189    2.2771   -0.9789 C   0  0  0  0  0  0  0  0  0  0  0  0
    1.6113    1.5116   -1.6365 H   0  0  0  0  0  0  0  0  0  0  0  0
   -0.0283    0.1609    1.5831 C   0  0  0  0  0  0  0  0  0  0  0  0
    1.1923    0.1056    1.7329 O   0  0  0  0  0  0  0  0  0  0  0  0
   -0.8586    0.4659    2.5853 N   0  0  0  0  0  0  0  0  0  0  0  0
   -1.8521    0.3848    2.4000 H   0  0  0  0  0  0  0  0  0  0  0  0
   -0.4403    0.7694    3.9518 C   0  0  0  0  0  0  0  0  0  0  0  0
    0.5066    1.3154    3.9421 H   0  0  0  0  0  0  0  0  0  0  0  0
   -1.1988    1.3789    4.4452 H   0  0  0  0  0  0  0  0  0  0  0  0
   -0.3053   -0.1600    4.5075 H   0  0  0  0  0  0  0  0  0  0  0  0
  5  6  2  0  0  0  0
  5  7  1  0  0  0  0
  2  3  1  0  0  0  0
  2  4  1  0  0  0  0
  2  5  1  0  0  0  0
  1  2  1  0  0  0  0
 22 23  2  0  0  0  0
 22 24  1  0  0  0  0
 20 21  1  0  0  0  0
 18 19  1  0  0  0  0
 18 20  1  0  0  0  0
 16 17  1  0  0  0  0
 16 18  1  0  0  0  0
 15 16  2  0  0  0  0
 14 15  1  0  0  0  0
 14 20  2  0  0  0  0
 11 12  1  0  0  0  0
 11 13  1  0  0  0  0
 11 14  1  0  0  0  0
  9 10  1  0  0  0  0
  9 11  1  0  0  0  0
  9 22  1  0  0  0  0
  7  8  1  0  0  0  0
  7  9  1  0  0  0  0
 26 27  1  0  0  0  0
 26 28  1  0  0  0  0
 26 29  1  0  0  0  0
 24 25  1  0  0  0  0
 24 26  1  0  0  0  0
M  END
$$$$
default_name
  -OEChem-02102213163D

 29 29  0     1  0  0  0  0  0999 V2000
   -2.9561   -3.9186    1.3887 H   0  0  0  0  0  0  0  0  0  0  0  0
   -3.1191   -2.9346    0.9517 C   0  0  0  0  0  0  0  0  0  0  0  0
   -3.7811   -2.3546    1.5917 H   0  0  0  0  0  0  0  0  0  0  0  0
   -3.5591   -3.0406   -0.0383 H   0  0  0  0  0  0  0  0  0  0  0  0
   -1.7921   -2.2226    0.8327 C   0  0  0  0  0  0  0  0  0  0  0  0
   -0.7611   -2.7766    1.1927 O   0  0  0  0  0  0  0  0  0  0  0  0
   -1.8201   -0.9926    0.3247 N   0  0  0  0  0  0  0  0  0  0  0  0
   -2.7141   -0.5816    0.0927 H   0  0  0  0  0  0  0  0  0  0  0  0
   -0.6481   -0.1156    0.2017 C   0  0  1  0  0  0  0  0  0  0  0  0
    0.1042   -0.6345   -0.3958 H   0  0  0  0  0  0  0  0  0  0  0  0
   -1.0420    1.1781   -0.5372 C   0  0  0  0  0  0  0  0  0  0  0  0
   -1.1522    0.9754   -1.6035 H   0  0  0  0  0  0  0  0  0  0  0  0
   -2.0053    1.5344   -0.1696 H   0  0  0  0  0  0  0  0  0  0  0  0
   -0.0130    2.2728   -0.3927 C   0  0  0  0  0  0  0  0  0  0  0  0
    0.0188    3.2370    0.6156 N   0  0  0  0  0  0  0  0  0  0  0  0
    1.1177    3.9716    0.3896 C   0  0  0  0  0  0  0  0  0  0  0  0
    1.4251    4.8158    0.9937 H   0  0  0  0  0  0  0  0  0  0  0  0
    1.7816    3.5057   -0.6816 N   0  0  0  0  0  0  0  0  0  0  0  0
    2.6498    3.8783   -1.0409 H   0  0  0  0  0  0  0  0  0  0  0  0
    1.0851    2.4304   -1.1868 C   0  0  0  0  0  0  0  0  0  0  0  0
    1.3515    1.8081   -2.0319 H   0  0  0  0  0  0  0  0  0  0  0  0
   -0.0283    0.1609    1.5831 C   0  0  0  0  0  0  0  0  0  0  0  0
    1.1923    0.1056    1.7329 O   0  0  0  0  0  0  0  0  0  0  0  0
   -0.8586    0.4659    2.5853 N   0  0  0  0  0  0  0  0  0  0  0  0
   -1.8521    0.3848    2.4000 H   0  0  0  0  0  0  0  0  0  0  0  0
   -0.4403    0.7694    3.9518 C   0  0  0  0  0  0  0  0  0  0  0  0
    0.5066    1.3154    3.9421 H   0  0  0  0  0  0  0  0  0  0  0  0
   -1.1988    1.3789    4.4452 H   0  0  0  0  0  0  0  0  0  0  0  0
   -0.3053   -0.1600    4.5075 H   0  0  0  0  0  0  0  0  0  0  0  0
  5  6  2  0  0  0  0
  5  7  1  0  0  0  0
  2  3  1  0  0  0  0
  2  4  1  0  0  0  0
  2  5  1  0  0  0  0
  1  2  1  0  0  0  0
 22 23  2  0  0  0  0
 22 24  1  0  0  0  0
 20 21  1  0  0  0  0
 18 19  1  0  0  0  0
 18 20  1  0  0  0  0
 16 17  1  0  0  0  0
 16 18  1  0  0  0  0
 15 16  2  0  0  0  0
 14 15  1  0  0  0  0
 14 20  2  0  0  0  0
 11 12  1  0  0  0  0
 11 13  1  0  0  0  0
 11 14  1  0  0  0  0
  9 10  1  0  0  0  0
  9 11  1  0  0  0  0
  9 22  1  0  0  0  0
  7  8  1  0  0  0  0
  7  9  1  0  0  0  0
 26 27  1  0  0  0  0
 26 28  1  0  0  0  0
 26 29  1  0  0  0  0
 24 25  1  0  0  0  0
 24 26  1  0  0  0  0
M  END
$$$$
default_name
  -OEChem-02102213163D

 29 29  0     1  0  0  0  0  0999 V2000
   -2.9561   -3.9186    1.3887 H   0  0  0  0  0  0  0  0  0  0  0  0
   -3.1191   -2.9346    0.9517 C   0  0  0  0  0  0  0  0  0  0  0  0
   -3.7811   -2.3546    1.5917 H   0  0  0  0  0  0  0  0  0  0  0  0
   -3.5591   -3.0406   -0.0383 H   0  0  0  0  0  0  0  0  0  0  0  0
   -1.7921   -2.2226    0.8327 C   0  0  0  0  0  0  0  0  0  0  0  0
   -0.7611   -2.7766    1.1927 O   0  0  0  0  0  0  0  0  0  0  0  0
   -1.8201   -0.9926    0.3247 N   0  0  0  0  0  0  0  0  0  0  0  0
   -2.7141   -0.5816    0.0927 H   0  0  0  0  0  0  0  0  0  0  0  0
   -0.6481   -0.1156    0.2017 C   0  0  1  0  0  0  0  0  0  0  0  0
    0.1042   -0.6345   -0.3958 H   0  0  0  0  0  0  0  0  0  0  0  0
   -1.0420    1.1781   -0.5372 C   0  0  0  0  0  0  0  0  0  0  0  0
   -1.1522    0.9754   -1.6035 H   0  0  0  0  0  0  0  0  0  0  0  0
   -2.0053    1.5344   -0.1696 H   0  0  0  0  0  0  0  0  0  0  0  0
   -0.0130    2.2728   -0.3927 C   0  0  0  0  0  0  0  0  0  0  0  0
    0.2021    3.0472    0.7481 N   0  0  0  0  0  0  0  0  0  0  0  0
    1.2322    3.8550    0.4572 C   0  0  0  0  0  0  0  0  0  0  0  0
    1.6421    4.5933    1.1349 H   0  0  0  0  0  0  0  0  0  0  0  0
    1.6842    3.6107   -0.7843 N   0  0  0  0  0  0  0  0  0  0  0  0
    2.4654    4.0761   -1.2259 H   0  0  0  0  0  0  0  0  0  0  0  0
    0.9130    2.6118   -1.3355 C   0  0  0  0  0  0  0  0  0  0  0  0
    1.0190    2.1577   -2.3127 H   0  0  0  0  0  0  0  0  0  0  0  0
   -0.0283    0.1609    1.5831 C   0  0  0  0  0  0  0  0  0  0  0  0
    1.1923    0.1056    1.7329 O   0  0  0  0  0  0  0  0  0  0  0  0
   -0.8586    0.4659    2.5853 N   0  0  0  0  0  0  0  0  0  0  0  0
   -1.8521    0.3848    2.4000 H   0  0  0  0  0  0  0  0  0  0  0  0
   -0.4403    0.7694    3.9518 C   0  0  0  0  0  0  0  0  0  0  0  0
    0.5066    1.3154    3.9421 H   0  0  0  0  0  0  0  0  0  0  0  0
   -1.1988    1.3789    4.4452 H   0  0  0  0  0  0  0  0  0  0  0  0
   -0.3053   -0.1600    4.5075 H   0  0  0  0  0  0  0  0  0  0  0  0
  5  6  2  0  0  0  0
  5  7  1  0  0  0  0
  2  3  1  0  0  0  0
  2  4  1  0  0  0  0
  2  5  1  0  0  0  0
  1  2  1  0  0  0  0
 22 23  2  0  0  0  0
 22 24  1  0  0  0  0
 20 21  1  0  0  0  0
 18 19  1  0  0  0  0
 18 20  1  0  0  0  0
 16 17  1  0  0  0  0
 16 18  1  0  0  0  0
 15 16  2  0  0  0  0
 14 15  1  0  0  0  0
 14 20  2  0  0  0  0
 11 12  1  0  0  0  0
 11 13  1  0  0  0  0
 11 14  1  0  0  0  0
  9 10  1  0  0  0  0
  9 11  1  0  0  0  0
  9 22  1  0  0  0  0
  7  8  1  0  0  0  0
  7  9  1  0  0  0  0
 26 27  1  0  0  0  0
 26 28  1  0  0  0  0
 26 29  1  0  0  0  0
 24 25  1  0  0  0  0
 24 26  1  0  0  0  0
M  END
$$$$
default_name
  -OEChem-02102213163D

 29 29  0     1  0  0  0  0  0999 V2000
   -2.9561   -3.9186    1.3887 H   0  0  0  0  0  0  0  0  0  0  0  0
   -3.1191   -2.9346    0.9517 C   0  0  0  0  0  0  0  0  0  0  0  0
   -3.7811   -2.3546    1.5917 H   0  0  0  0  0  0  0  0  0  0  0  0
   -3.5591   -3.0406   -0.0383 H   0  0  0  0  0  0  0  0  0  0  0  0
   -1.7921   -2.2226    0.8327 C   0  0  0  0  0  0  0  0  0  0  0  0
   -0.7611   -2.7766    1.1927 O   0  0  0  0  0  0  0  0  0  0  0  0
   -1.8201   -0.9926    0.3247 N   0  0  0  0  0  0  0  0  0  0  0  0
   -2.7141   -0.5816    0.0927 H   0  0  0  0  0  0  0  0  0  0  0  0
   -0.6481   -0.1156    0.2017 C   0  0  1  0  0  0  0  0  0  0  0  0
    0.1042   -0.6345   -0.3958 H   0  0  0  0  0  0  0  0  0  0  0  0
   -1.0420    1.1781   -0.5372 C   0  0  0  0  0  0  0  0  0  0  0  0
   -1.1522    0.9754   -1.6035 H   0  0  0  0  0  0  0  0  0  0  0  0
   -2.0053    1.5344   -0.1696 H   0  0  0  0  0  0  0  0  0  0  0  0
   -0.0130    2.2728   -0.3927 C   0  0  0  0  0  0  0  0  0  0  0  0
    0.4087    2.8450    0.8082 N   0  0  0  0  0  0  0  0  0  0  0  0
    1.3584    3.7334    0.4805 C   0  0  0  0  0  0  0  0  0  0  0  0
    1.8837    4.3587    1.1913 H   0  0  0  0  0  0  0  0  0  0  0  0
    1.5683    3.7280   -0.8466 N   0  0  0  0  0  0  0  0  0  0  0  0
    2.2477    4.2952   -1.3350 H   0  0  0  0  0  0  0  0  0  0  0  0
    0.7143    2.8090   -1.4148 C   0  0  0  0  0  0  0  0  0  0  0  0
    0.6364    2.5368   -2.4599 H   0  0  0  0  0  0  0  0  0  0  0  0
   -0.0283    0.1609    1.5831 C   0  0  0  0  0  0  0  0  0  0  0  0
    1.1923    0.1056    1.7329 O   0  0  0  0  0  0  0  0  0  0  0  0
   -0.8586    0.4659    2.5853 N   0  0  0  0  0  0  0  0  0  0  0  0
   -1.8521    0.3848    2.4000 H   0  0  0  0  0  0  0  0  0  0  0  0
   -0.4403    0.7694    3.9518 C   0  0  0  0  0  0  0  0  0  0  0  0
    0.5066    1.3154    3.9421 H   0  0  0  0  0  0  0  0  0  0  0  0
   -1.1988    1.3789    4.4452 H   0  0  0  0  0  0  0  0  0  0  0  0
   -0.3053   -0.1600    4.5075 H   0  0  0  0  0  0  0  0  0  0  0  0
  5  6  2  0  0  0  0
  5  7  1  0  0  0  0
  2  3  1  0  0  0  0
  2  4  1  0  0  0  0
  2  5  1  0  0  0  0
  1  2  1  0  0  0  0
 22 23  2  0  0  0  0
 22 24  1  0  0  0  0
 20 21  1  0  0  0  0
 18 19  1  0  0  0  0
 18 20  1  0  0  0  0
 16 17  1  0  0  0  0
 16 18  1  0  0  0  0
 15 16  2  0  0  0  0
 14 15  1  0  0  0  0
 14 20  2  0  0  0  0
 11 12  1  0  0  0  0
 11 13  1  0  0  0  0
 11 14  1  0  0  0  0
  9 10  1  0  0  0  0
  9 11  1  0  0  0  0
  9 22  1  0  0  0  0
  7  8  1  0  0  0  0
  7  9  1  0  0  0  0
 26 27  1  0  0  0  0
 26 28  1  0  0  0  0
 26 29  1  0  0  0  0
 24 25  1  0  0  0  0
 24 26  1  0  0  0  0
M  END
$$$$
default_name
  -OEChem-02102213163D

 29 29  0     1  0  0  0  0  0999 V2000
   -2.9561   -3.9186    1.3887 H   0  0  0  0  0  0  0  0  0  0  0  0
   -3.1191   -2.9346    0.9517 C   0  0  0  0  0  0  0  0  0  0  0  0
   -3.7811   -2.3546    1.5917 H   0  0  0  0  0  0  0  0  0  0  0  0
   -3.5591   -3.0406   -0.0383 H   0  0  0  0  0  0  0  0  0  0  0  0
   -1.7921   -2.2226    0.8327 C   0  0  0  0  0  0  0  0  0  0  0  0
   -0.7611   -2.7766    1.1927 O   0  0  0  0  0  0  0  0  0  0  0  0
   -1.8201   -0.9926    0.3247 N   0  0  0  0  0  0  0  0  0  0  0  0
   -2.7141   -0.5816    0.0927 H   0  0  0  0  0  0  0  0  0  0  0  0
   -0.6481   -0.1156    0.2017 C   0  0  1  0  0  0  0  0  0  0  0  0
    0.1042   -0.6345   -0.3958 H   0  0  0  0  0  0  0  0  0  0  0  0
   -1.0420    1.1781   -0.5372 C   0  0  0  0  0  0  0  0  0  0  0  0
   -1.1522    0.9754   -1.6035 H   0  0  0  0  0  0  0  0  0  0  0  0
   -2.0053    1.5344   -0.1696 H   0  0  0  0  0  0  0  0  0  0  0  0
   -0.0130    2.2728   -0.3927 C   0  0  0  0  0  0  0  0  0  0  0  0
    0.6246    2.6443    0.7917 N   0  0  0  0  0  0  0  0  0  0  0  0
    1.4876    3.6148    0.4578 C   0  0  0  0  0  0  0  0  0  0  0  0
    2.1334    4.1282    1.1590 H   0  0  0  0  0  0  0  0  0  0  0  0
    1.4417    3.8493   -0.8644 N   0  0  0  0  0  0  0  0  0  0  0  0
    2.0114    4.5207   -1.3609 H   0  0  0  0  0  0  0  0  0  0  0  0
    0.5027    3.0086   -1.4194 C   0  0  0  0  0  0  0  0  0  0  0  0
    0.2298    2.9194   -2.4634 H   0  0  0  0  0  0  0  0  0  0  0  0
   -0.0283    0.1609    1.5831 C   0  0  0  0  0  0  0  0  0  0  0  0
    1.1923    0.1056    1.7329 O   0  0  0  0  0  0  0  0  0  0  0  0
   -0.8586    0.4659    2.5853 N   0  0  0  0  0  0  0  0  0  0  0  0
   -1.8521    0.3848    2.4000 H   0  0  0  0  0  0  0  0  0  0  0  0
   -0.4403    0.7694    3.9518 C   0  0  0  0  0  0  0  0  0  0  0  0
    0.5066    1.3154    3.9421 H   0  0  0  0  0  0  0  0  0  0  0  0
   -1.1988    1.3789    4.4452 H   0  0  0  0  0  0  0  0  0  0  0  0
   -0.3053   -0.1600    4.5075 H   0  0  0  0  0  0  0  0  0  0  0  0
  5  6  2  0  0  0  0
  5  7  1  0  0  0  0
  2  3  1  0  0  0  0
  2  4  1  0  0  0  0
  2  5  1  0  0  0  0
  1  2  1  0  0  0  0
 22 23  2  0  0  0  0
 22 24  1  0  0  0  0
 20 21  1  0  0  0  0
 18 19  1  0  0  0  0
 18 20  1  0  0  0  0
 16 17  1  0  0  0  0
 16 18  1  0  0  0  0
 15 16  2  0  0  0  0
 14 15  1  0  0  0  0
 14 20  2  0  0  0  0
 11 12  1  0  0  0  0
 11 13  1  0  0  0  0
 11 14  1  0  0  0  0
  9 10  1  0  0  0  0
  9 11  1  0  0  0  0
  9 22  1  0  0  0  0
  7  8  1  0  0  0  0
  7  9  1  0  0  0  0
 26 27  1  0  0  0  0
 26 28  1  0  0  0  0
 26 29  1  0  0  0  0
 24 25  1  0  0  0  0
 24 26  1  0  0  0  0
M  END
$$$$
default_name
  -OEChem-02102213163D

 29 29  0     1  0  0  0  0  0999 V2000
   -2.9561   -3.9186    1.3887 H   0  0  0  0  0  0  0  0  0  0  0  0
   -3.1191   -2.9346    0.9517 C   0  0  0  0  0  0  0  0  0  0  0  0
   -3.7811   -2.3546    1.5917 H   0  0  0  0  0  0  0  0  0  0  0  0
   -3.5591   -3.0406   -0.0383 H   0  0  0  0  0  0  0  0  0  0  0  0
   -1.7921   -2.2226    0.8327 C   0  0  0  0  0  0  0  0  0  0  0  0
   -0.7611   -2.7766    1.1927 O   0  0  0  0  0  0  0  0  0  0  0  0
   -1.8201   -0.9926    0.3247 N   0  0  0  0  0  0  0  0  0  0  0  0
   -2.7141   -0.5816    0.0927 H   0  0  0  0  0  0  0  0  0  0  0  0
   -0.6481   -0.1156    0.2017 C   0  0  1  0  0  0  0  0  0  0  0  0
    0.1042   -0.6345   -0.3958 H   0  0  0  0  0  0  0  0  0  0  0  0
   -1.0420    1.1781   -0.5372 C   0  0  0  0  0  0  0  0  0  0  0  0
   -1.1522    0.9754   -1.6035 H   0  0  0  0  0  0  0  0  0  0  0  0
   -2.0053    1.5344   -0.1696 H   0  0  0  0  0  0  0  0  0  0  0  0
   -0.0130    2.2728   -0.3927 C   0  0  0  0  0  0  0  0  0  0  0  0
    0.8350    2.4586    0.6999 N   0  0  0  0  0  0  0  0  0  0  0  0
    1.6112    3.5076    0.3907 C   0  0  0  0  0  0  0  0  0  0  0  0
    2.3743    3.9175    1.0403 H   0  0  0  0  0  0  0  0  0  0  0  0
    1.3131    3.9665   -0.8364 N   0  0  0  0  0  0  0  0  0  0  0  0
    1.7728    4.7372   -1.3017 H   0  0  0  0  0  0  0  0  0  0  0  0
    0.2924    3.1969   -1.3488 C   0  0  0  0  0  0  0  0  0  0  0  0
   -0.1731    3.2796   -2.3228 H   0  0  0  0  0  0  0  0  0  0  0  0
   -0.0283    0.1609    1.5831 C   0  0  0  0  0  0  0  0  0  0  0  0
    1.1923    0.1056    1.7329 O   0  0  0  0  0  0  0  0  0  0  0  0
   -0.8586    0.4659    2.5853 N   0  0  0  0  0  0  0  0  0  0  0  0
   -1.8521    0.3848    2.4000 H   0  0  0  0  0  0  0  0  0  0  0  0
   -0.4403    0.7694    3.9518 C   0  0  0  0  0  0  0  0  0  0  0  0
    0.5066    1.3154    3.9421 H   0  0  0  0  0  0  0  0  0  0  0  0
   -1.1988    1.3789    4.4452 H   0  0  0  0  0  0  0  0  0  0  0  0
   -0.3053   -0.1600    4.5075 H   0  0  0  0  0  0  0  0  0  0  0  0
  5  6  2  0  0  0  0
  5  7  1  0  0  0  0
  2  3  1  0  0  0  0
  2  4  1  0  0  0  0
  2  5  1  0  0  0  0
  1  2  1  0  0  0  0
 22 23  2  0  0  0  0
 22 24  1  0  0  0  0
 20 21  1  0  0  0  0
 18 19  1  0  0  0  0
 18 20  1  0  0  0  0
 16 17  1  0  0  0  0
 16 18  1  0  0  0  0
 15 16  2  0  0  0  0
 14 15  1  0  0  0  0
 14 20  2  0  0  0  0
 11 12  1  0  0  0  0
 11 13  1  0  0  0  0
 11 14  1  0  0  0  0
  9 10  1  0  0  0  0
  9 11  1  0  0  0  0
  9 22  1  0  0  0  0
  7  8  1  0  0  0  0
  7  9  1  0  0  0  0
 26 27  1  0  0  0  0
 26 28  1  0  0  0  0
 26 29  1  0  0  0  0
 24 25  1  0  0  0  0
 24 26  1  0  0  0  0
M  END
$$$$
default_name
  -OEChem-02102213163D

 29 29  0     1  0  0  0  0  0999 V2000
   -2.9561   -3.9186    1.3887 H   0  0  0  0  0  0  0  0  0  0  0  0
   -3.1191   -2.9346    0.9517 C   0  0  0  0  0  0  0  0  0  0  0  0
   -3.7811   -2.3546    1.5917 H   0  0  0  0  0  0  0  0  0  0  0  0
   -3.5591   -3.0406   -0.0383 H   0  0  0  0  0  0  0  0  0  0  0  0
   -1.7921   -2.2226    0.8327 C   0  0  0  0  0  0  0  0  0  0  0  0
   -0.7611   -2.7766    1.1927 O   0  0  0  0  0  0  0  0  0  0  0  0
   -1.8201   -0.9926    0.3247 N   0  0  0  0  0  0  0  0  0  0  0  0
   -2.7141   -0.5816    0.0927 H   0  0  0  0  0  0  0  0  0  0  0  0
   -0.6481   -0.1156    0.2017 C   0  0  1  0  0  0  0  0  0  0  0  0
    0.1042   -0.6345   -0.3958 H   0  0  0  0  0  0  0  0  0  0  0  0
   -1.0420    1.1781   -0.5372 C   0  0  0  0  0  0  0  0  0  0  0  0
   -1.1522    0.9754   -1.6035 H   0  0  0  0  0  0  0  0  0  0  0  0
   -2.0053    1.5344   -0.1696 H   0  0  0  0  0  0  0  0  0  0  0  0
   -0.0130    2.2728   -0.3927 C   0  0  0  0  0  0  0  0  0  0  0  0
    1.0256    2.3007    0.5389 N   0  0  0  0  0  0  0  0  0  0  0  0
    1.7206    3.4188    0.2838 C   0  0  0  0  0  0  0  0  0  0  0  0
    2.5899    3.7408    0.8432 H   0  0  0  0  0  0  0  0  0  0  0  0
    1.1912    4.0716   -0.7645 N   0  0  0  0  0  0  0  0  0  0  0  0
    1.5480    4.9300   -1.1616 H   0  0  0  0  0  0  0  0  0  0  0  0
    0.0979    3.3611   -1.2079 C   0  0  0  0  0  0  0  0  0  0  0  0
   -0.5447    3.5927   -2.0480 H   0  0  0  0  0  0  0  0  0  0  0  0
   -0.0283    0.1609    1.5831 C   0  0  0  0  0  0  0  0  0  0  0  0
    1.1923    0.1056    1.7329 O   0  0  0  0  0  0  0  0  0  0  0  0
   -0.8586    0.4659    2.5853 N   0  0  0  0  0  0  0  0  0  0  0  0
   -1.8521    0.3848    2.4000 H   0  0  0  0  0  0  0  0  0  0  0  0
   -0.4403    0.7694    3.9518 C   0  0  0  0  0  0  0  0  0  0  0  0
    0.5066    1.3154    3.9421 H   0  0  0  0  0  0  0  0  0  0  0  0
   -1.1988    1.3789    4.4452 H   0  0  0  0  0  0  0  0  0  0  0  0
   -0.3053   -0.1600    4.5075 H   0  0  0  0  0  0  0  0  0  0  0  0
  5  6  2  0  0  0  0
  5  7  1  0  0  0  0
  2  3  1  0  0  0  0
  2  4  1  0  0  0  0
  2  5  1  0  0  0  0
  1  2  1  0  0  0  0
 22 23  2  0  0  0  0
 22 24  1  0  0  0  0
 20 21  1  0  0  0  0
 18 19  1  0  0  0  0
 18 20  1  0  0  0  0
 16 17  1  0  0  0  0
 16 18  1  0  0  0  0
 15 16  2  0  0  0  0
 14 15  1  0  0  0  0
 14 20  2  0  0  0  0
 11 12  1  0  0  0  0
 11 13  1  0  0  0  0
 11 14  1  0  0  0  0
  9 10  1  0  0  0  0
  9 11  1  0  0  0  0
  9 22  1  0  0  0  0
  7  8  1  0  0  0  0
  7  9  1  0  0  0  0
 26 27  1  0  0  0  0
 26 28  1  0  0  0  0
 26 29  1  0  0  0  0
 24 25  1  0  0  0  0
 24 26  1  0  0  0  0
M  END
$$$$
default_name
  -OEChem-02102213163D

 29 29  0     1  0  0  0  0  0999 V2000
   -2.9561   -3.9186    1.3887 H   0  0  0  0  0  0  0  0  0  0  0  0
   -3.1191   -2.9346    0.9517 C   0  0  0  0  0  0  0  0  0  0  0  0
   -3.7811   -2.3546    1.5917 H   0  0  0  0  0  0  0  0  0  0  0  0
   -3.5591   -3.0406   -0.0383 H   0  0  0  0  0  0  0  0  0  0  0  0
   -1.7921   -2.2226    0.8327 C   0  0  0  0  0  0  0  0  0  0  0  0
   -0.7611   -2.7766    1.1927 O   0  0  0  0  0  0  0  0  0  0  0  0
   -1.8201   -0.9926    0.3247 N   0  0  0  0  0  0  0  0  0  0  0  0
   -2.7141   -0.5816    0.0927 H   0  0  0  0  0  0  0  0  0  0  0  0
   -0.6481   -0.1156    0.2017 C   0  0  1  0  0  0  0  0  0  0  0  0
    0.1042   -0.6345   -0.3958 H   0  0  0  0  0  0  0  0  0  0  0  0
   -1.0420    1.1781   -0.5372 C   0  0  0  0  0  0  0  0  0  0  0  0
   -1.1522    0.9754   -1.6035 H   0  0  0  0  0  0  0  0  0  0  0  0
   -2.0053    1.5344   -0.1696 H   0  0  0  0  0  0  0  0  0  0  0  0
   -0.0130    2.2728   -0.3927 C   0  0  0  0  0  0  0  0  0  0  0  0
    1.1834    2.1813    0.3198 N   0  0  0  0  0  0  0  0  0  0  0  0
    1.8084    3.3547    0.1443 C   0  0  0  0  0  0  0  0  0  0  0  0
    2.7655    3.6103    0.5812 H   0  0  0  0  0  0  0  0  0  0  0  0
    1.0843    4.1574   -0.6537 N   0  0  0  0  0  0  0  0  0  0  0  0
    1.3524    5.0859   -0.9500 H   0  0  0  0  0  0  0  0  0  0  0  0
   -0.0675    3.4901   -1.0063 C   0  0  0  0  0  0  0  0  0  0  0  0
   -0.8599    3.8374   -1.6574 H   0  0  0  0  0  0  0  0  0  0  0  0
   -0.0283    0.1609    1.5831 C   0  0  0  0  0  0  0  0  0  0  0  0
    1.1923    0.1056    1.7329 O   0  0  0  0  0  0  0  0  0  0  0  0
   -0.8586    0.4659    2.5853 N   0  0  0  0  0  0  0  0  0  0  0  0
   -1.8521    0.3848    2.4000 H   0  0  0  0  0  0  0  0  0  0  0  0
   -0.4403    0.7694    3.9518 C   0  0  0  0  0  0  0  0  0  0  0  0
    0.5066    1.3154    3.9421 H   0  0  0  0  0  0  0  0  0  0  0  0
   -1.1988    1.3789    4.4452 H   0  0  0  0  0  0  0  0  0  0  0  0
   -0.3053   -0.1600    4.5075 H   0  0  0  0  0  0  0  0  0  0  0  0
  5  6  2  0  0  0  0
  5  7  1  0  0  0  0
  2  3  1  0  0  0  0
  2  4  1  0  0  0  0
  2  5  1  0  0  0  0
  1  2  1  0  0  0  0
 22 23  2  0  0  0  0
 22 24  1  0  0  0  0
 20 21  1  0  0  0  0
 18 19  1  0  0  0  0
 18 20  1  0  0  0  0
 16 17  1  0  0  0  0
 16 18  1  0  0  0  0
 15 16  2  0  0  0  0
 14 15  1  0  0  0  0
 14 20  2  0  0  0  0
 11 12  1  0  0  0  0
 11 13  1  0  0  0  0
 11 14  1  0  0  0  0
  9 10  1  0  0  0  0
  9 11  1  0  0  0  0
  9 22  1  0  0  0  0
  7  8  1  0  0  0  0
  7  9  1  0  0  0  0
 26 27  1  0  0  0  0
 26 28  1  0  0  0  0
 26 29  1  0  0  0  0
 24 25  1  0  0  0  0
 24 26  1  0  0  0  0
M  END
$$$$
default_name
  -OEChem-02102213163D

 29 29  0     1  0  0  0  0  0999 V2000
   -2.9561   -3.9186    1.3887 H   0  0  0  0  0  0  0  0  0  0  0  0
   -3.1191   -2.9346    0.9517 C   0  0  0  0  0  0  0  0  0  0  0  0
   -3.7811   -2.3546    1.5917 H   0  0  0  0  0  0  0  0  0  0  0  0
   -3.5591   -3.0406   -0.0383 H   0  0  0  0  0  0  0  0  0  0  0  0
   -1.7921   -2.2226    0.8327 C   0  0  0  0  0  0  0  0  0  0  0  0
   -0.7611   -2.7766    1.1927 O   0  0  0  0  0  0  0  0  0  0  0  0
   -1.8201   -0.9926    0.3247 N   0  0  0  0  0  0  0  0  0  0  0  0
   -2.7141   -0.5816    0.0927 H   0  0  0  0  0  0  0  0  0  0  0  0
   -0.6481   -0.1156    0.2017 C   0  0  1  0  0  0  0  0  0  0  0  0
    0.1042   -0.6345   -0.3958 H   0  0  0  0  0  0  0  0  0  0  0  0
   -1.0420    1.1781   -0.5372 C   0  0  0  0  0  0  0  0  0  0  0  0
   -1.1522    0.9754   -1.6035 H   0  0  0  0  0  0  0  0  0  0  0  0
   -2.0053    1.5344   -0.1696 H   0  0  0  0  0  0  0  0  0  0  0  0
   -0.0130    2.2728   -0.3927 C   0  0  0  0  0  0  0  0  0  0  0  0
    1.2976    2.1085    0.0575 N   0  0  0  0  0  0  0  0  0  0  0  0
    1.8686    3.3196   -0.0182 C   0  0  0  0  0  0  0  0  0  0  0  0
    2.8892    3.5349    0.2721 H   0  0  0  0  0  0  0  0  0  0  0  0
    0.9998    4.2181   -0.5114 N   0  0  0  0  0  0  0  0  0  0  0  0
    1.1994    5.1943   -0.6815 H   0  0  0  0  0  0  0  0  0  0  0  0
   -0.1928    3.5750   -0.7578 C   0  0  0  0  0  0  0  0  0  0  0  0
   -1.0971    3.9970   -1.1778 H   0  0  0  0  0  0  0  0  0  0  0  0
   -0.0283    0.1609    1.5831 C   0  0  0  0  0  0  0  0  0  0  0  0
    1.1923    0.1056    1.7329 O   0  0  0  0  0  0  0  0  0  0  0  0
   -0.8586    0.4659    2.5853 N   0  0  0  0  0  0  0  0  0  0  0  0
   -1.8521    0.3848    2.4000 H   0  0  0  0  0  0  0  0  0  0  0  0
   -0.4403    0.7694    3.9518 C   0  0  0  0  0  0  0  0  0  0  0  0
    0.5066    1.3154    3.9421 H   0  0  0  0  0  0  0  0  0  0  0  0
   -1.1988    1.3789    4.4452 H   0  0  0  0  0  0  0  0  0  0  0  0
   -0.3053   -0.1600    4.5075 H   0  0  0  0  0  0  0  0  0  0  0  0
  5  6  2  0  0  0  0
  5  7  1  0  0  0  0
  2  3  1  0  0  0  0
  2  4  1  0  0  0  0
  2  5  1  0  0  0  0
  1  2  1  0  0  0  0
 22 23  2  0  0  0  0
 22 24  1  0  0  0  0
 20 21  1  0  0  0  0
 18 19  1  0  0  0  0
 18 20  1  0  0  0  0
 16 17  1  0  0  0  0
 16 18  1  0  0  0  0
 15 16  2  0  0  0  0
 14 15  1  0  0  0  0
 14 20  2  0  0  0  0
 11 12  1  0  0  0  0
 11 13  1  0  0  0  0
 11 14  1  0  0  0  0
  9 10  1  0  0  0  0
  9 11  1  0  0  0  0
  9 22  1  0  0  0  0
  7  8  1  0  0  0  0
  7  9  1  0  0  0  0
 26 27  1  0  0  0  0
 26 28  1  0  0  0  0
 26 29  1  0  0  0  0
 24 25  1  0  0  0  0
 24 26  1  0  0  0  0
M  END
$$$$
default_name
  -OEChem-02102213163D

 29 29  0     1  0  0  0  0  0999 V2000
   -2.9561   -3.9186    1.3887 H   0  0  0  0  0  0  0  0  0  0  0  0
   -3.1191   -2.9346    0.9517 C   0  0  0  0  0  0  0  0  0  0  0  0
   -3.7811   -2.3546    1.5917 H   0  0  0  0  0  0  0  0  0  0  0  0
   -3.5591   -3.0406   -0.0383 H   0  0  0  0  0  0  0  0  0  0  0  0
   -1.7921   -2.2226    0.8327 C   0  0  0  0  0  0  0  0  0  0  0  0
   -0.7611   -2.7766    1.1927 O   0  0  0  0  0  0  0  0  0  0  0  0
   -1.8201   -0.9926    0.3247 N   0  0  0  0  0  0  0  0  0  0  0  0
   -2.7141   -0.5816    0.0927 H   0  0  0  0  0  0  0  0  0  0  0  0
   -0.6481   -0.1156    0.2017 C   0  0  1  0  0  0  0  0  0  0  0  0
    0.1042   -0.6345   -0.3958 H   0  0  0  0  0  0  0  0  0  0  0  0
   -1.0420    1.1781   -0.5372 C   0  0  0  0  0  0  0  0  0  0  0  0
   -1.1522    0.9754   -1.6035 H   0  0  0  0  0  0  0  0  0  0  0  0
   -2.0053    1.5344   -0.1696 H   0  0  0  0  0  0  0  0  0  0  0  0
   -0.0130    2.2728   -0.3927 C   0  0  0  0  0  0  0  0  0  0  0  0
    1.3605    2.0874   -0.2302 N   0  0  0  0  0  0  0  0  0  0  0  0
    1.8971    3.3158   -0.1926 C   0  0  0  0  0  0  0  0  0  0  0  0
    2.9526    3.5195   -0.0630 H   0  0  0  0  0  0  0  0  0  0  0  0
    0.9434    4.2495   -0.3474 N   0  0  0  0  0  0  0  0  0  0  0  0
    1.0992    5.2479   -0.3742 H   0  0  0  0  0  0  0  0  0  0  0  0
   -0.2692    3.6100   -0.4793 C   0  0  0  0  0  0  0  0  0  0  0  0
   -1.2401    4.0607   -0.6419 H   0  0  0  0  0  0  0  0  0  0  0  0
   -0.0283    0.1609    1.5831 C   0  0  0  0  0  0  0  0  0  0  0  0
    1.1923    0.1056    1.7329 O   0  0  0  0  0  0  0  0  0  0  0  0
   -0.8586    0.4659    2.5853 N   0  0  0  0  0  0  0  0  0  0  0  0
   -1.8521    0.3848    2.4000 H   0  0  0  0  0  0  0  0  0  0  0  0
   -0.4403    0.7694    3.9518 C   0  0  0  0  0  0  0  0  0  0  0  0
    0.5066    1.3154    3.9421 H   0  0  0  0  0  0  0  0  0  0  0  0
   -1.1988    1.3789    4.4452 H   0  0  0  0  0  0  0  0  0  0  0  0
   -0.3053   -0.1600    4.5075 H   0  0  0  0  0  0  0  0  0  0  0  0
  5  6  2  0  0  0  0
  5  7  1  0  0  0  0
  2  3  1  0  0  0  0
  2  4  1  0  0  0  0
  2  5  1  0  0  0  0
  1  2  1  0  0  0  0
 22 23  2  0  0  0  0
 22 24  1  0  0  0  0
 20 21  1  0  0  0  0
 18 19  1  0  0  0  0
 18 20  1  0  0  0  0
 16 17  1  0  0  0  0
 16 18  1  0  0  0  0
 15 16  2  0  0  0  0
 14 15  1  0  0  0  0
 14 20  2  0  0  0  0
 11 12  1  0  0  0  0
 11 13  1  0  0  0  0
 11 14  1  0  0  0  0
  9 10  1  0  0  0  0
  9 11  1  0  0  0  0
  9 22  1  0  0  0  0
  7  8  1  0  0  0  0
  7  9  1  0  0  0  0
 26 27  1  0  0  0  0
 26 28  1  0  0  0  0
 26 29  1  0  0  0  0
 24 25  1  0  0  0  0
 24 26  1  0  0  0  0
M  END
$$$$
default_name
  -OEChem-02102213163D

 29 29  0     1  0  0  0  0  0999 V2000
   -2.9561   -3.9186    1.3887 H   0  0  0  0  0  0  0  0  0  0  0  0
   -3.1191   -2.9346    0.9517 C   0  0  0  0  0  0  0  0  0  0  0  0
   -3.7811   -2.3546    1.5917 H   0  0  0  0  0  0  0  0  0  0  0  0
   -3.5591   -3.0406   -0.0383 H   0  0  0  0  0  0  0  0  0  0  0  0
   -1.7921   -2.2226    0.8327 C   0  0  0  0  0  0  0  0  0  0  0  0
   -0.7611   -2.7766    1.1927 O   0  0  0  0  0  0  0  0  0  0  0  0
   -1.8201   -0.9926    0.3247 N   0  0  0  0  0  0  0  0  0  0  0  0
   -2.7141   -0.5816    0.0927 H   0  0  0  0  0  0  0  0  0  0  0  0
   -0.6481   -0.1156    0.2017 C   0  0  1  0  0  0  0  0  0  0  0  0
    0.1042   -0.6345   -0.3958 H   0  0  0  0  0  0  0  0  0  0  0  0
   -1.0420    1.1781   -0.5372 C   0  0  0  0  0  0  0  0  0  0  0  0
   -1.1522    0.9754   -1.6035 H   0  0  0  0  0  0  0  0  0  0  0  0
   -2.0053    1.5344   -0.1696 H   0  0  0  0  0  0  0  0  0  0  0  0
   -0.0130    2.2728   -0.3927 C   0  0  0  0  0  0  0  0  0  0  0  0
    1.3678    2.1193   -0.5236 N   0  0  0  0  0  0  0  0  0  0  0  0
    1.8920    3.3436   -0.3672 C   0  0  0  0  0  0  0  0  0  0  0  0
    2.9512    3.5655   -0.4013 H   0  0  0  0  0  0  0  0  0  0  0  0
    0.9189    4.2495   -0.1729 N   0  0  0  0  0  0  0  0  0  0  0  0
    1.0589    5.2429   -0.0491 H   0  0  0  0  0  0  0  0  0  0  0  0
   -0.2915    3.5928   -0.1897 C   0  0  0  0  0  0  0  0  0  0  0  0
   -1.2793    4.0241   -0.0862 H   0  0  0  0  0  0  0  0  0  0  0  0
   -0.0283    0.1609    1.5831 C   0  0  0  0  0  0  0  0  0  0  0  0
    1.1923    0.1056    1.7329 O   0  0  0  0  0  0  0  0  0  0  0  0
   -0.8586    0.4659    2.5853 N   0  0  0  0  0  0  0  0  0  0  0  0
   -1.8521    0.3848    2.4000 H   0  0  0  0  0  0  0  0  0  0  0  0
   -0.4403    0.7694    3.9518 C   0  0  0  0  0  0  0  0  0  0  0  0
    0.5066    1.3154    3.9421 H   0  0  0  0  0  0  0  0  0  0  0  0
   -1.1988    1.3789    4.4452 H   0  0  0  0  0  0  0  0  0  0  0  0
   -0.3053   -0.1600    4.5075 H   0  0  0  0  0  0  0  0  0  0  0  0
  5  6  2  0  0  0  0
  5  7  1  0  0  0  0
  2  3  1  0  0  0  0
  2  4  1  0  0  0  0
  2  5  1  0  0  0  0
  1  2  1  0  0  0  0
 22 23  2  0  0  0  0
 22 24  1  0  0  0  0
 20 21  1  0  0  0  0
 18 19  1  0  0  0  0
 18 20  1  0  0  0  0
 16 17  1  0  0  0  0
 16 18  1  0  0  0  0
 15 16  2  0  0  0  0
 14 15  1  0  0  0  0
 14 20  2  0  0  0  0
 11 12  1  0  0  0  0
 11 13  1  0  0  0  0
 11 14  1  0  0  0  0
  9 10  1  0  0  0  0
  9 11  1  0  0  0  0
  9 22  1  0  0  0  0
  7  8  1  0  0  0  0
  7  9  1  0  0  0  0
 26 27  1  0  0  0  0
 26 28  1  0  0  0  0
 26 29  1  0  0  0  0
 24 25  1  0  0  0  0
 24 26  1  0  0  0  0
M  END
$$$$
default_name
  -OEChem-02102213163D

 29 29  0     1  0  0  0  0  0999 V2000
   -2.9561   -3.9186    1.3887 H   0  0  0  0  0  0  0  0  0  0  0  0
   -3.1191   -2.9346    0.9517 C   0  0  0  0  0  0  0  0  0  0  0  0
   -3.7811   -2.3546    1.5917 H   0  0  0  0  0  0  0  0  0  0  0  0
   -3.5591   -3.0406   -0.0383 H   0  0  0  0  0  0  0  0  0  0  0  0
   -1.7921   -2.2226    0.8327 C   0  0  0  0  0  0  0  0  0  0  0  0
   -0.7611   -2.7766    1.1927 O   0  0  0  0  0  0  0  0  0  0  0  0
   -1.8201   -0.9926    0.3247 N   0  0  0  0  0  0  0  0  0  0  0  0
   -2.7141   -0.5816    0.0927 H   0  0  0  0  0  0  0  0  0  0  0  0
   -0.6481   -0.1156    0.2017 C   0  0  1  0  0  0  0  0  0  0  0  0
    0.1042   -0.6345   -0.3958 H   0  0  0  0  0  0  0  0  0  0  0  0
   -1.0420    1.1781   -0.5372 C   0  0  0  0  0  0  0  0  0  0  0  0
   -1.1522    0.9754   -1.6035 H   0  0  0  0  0  0  0  0  0  0  0  0
   -2.0053    1.5344   -0.1696 H   0  0  0  0  0  0  0  0  0  0  0  0
   -0.0130    2.2728   -0.3927 C   0  0  0  0  0  0  0  0  0  0  0  0
    1.3190    2.2020   -0.8028 N   0  0  0  0  0  0  0  0  0  0  0  0
    1.8536    3.4012   -0.5299 C   0  0  0  0  0  0  0  0  0  0  0  0
    2.8853    3.6695   -0.7197 H   0  0  0  0  0  0  0  0  0  0  0  0
    0.9280    4.2181    0.0003 N   0  0  0  0  0  0  0  0  0  0  0  0
    1.0811    5.1797    0.2716 H   0  0  0  0  0  0  0  0  0  0  0  0
   -0.2584    3.5246    0.0911 C   0  0  0  0  0  0  0  0  0  0  0  0
   -1.2118    3.8898    0.4515 H   0  0  0  0  0  0  0  0  0  0  0  0
   -0.0283    0.1609    1.5831 C   0  0  0  0  0  0  0  0  0  0  0  0
    1.1923    0.1056    1.7329 O   0  0  0  0  0  0  0  0  0  0  0  0
   -0.8586    0.4659    2.5853 N   0  0  0  0  0  0  0  0  0  0  0  0
   -1.8521    0.3848    2.4000 H   0  0  0  0  0  0  0  0  0  0  0  0
   -0.4403    0.7694    3.9518 C   0  0  0  0  0  0  0  0  0  0  0  0
    0.5066    1.3154    3.9421 H   0  0  0  0  0  0  0  0  0  0  0  0
   -1.1988    1.3789    4.4452 H   0  0  0  0  0  0  0  0  0  0  0  0
   -0.3053   -0.1600    4.5075 H   0  0  0  0  0  0  0  0  0  0  0  0
  5  6  2  0  0  0  0
  5  7  1  0  0  0  0
  2  3  1  0  0  0  0
  2  4  1  0  0  0  0
  2  5  1  0  0  0  0
  1  2  1  0  0  0  0
 22 23  2  0  0  0  0
 22 24  1  0  0  0  0
 20 21  1  0  0  0  0
 18 19  1  0  0  0  0
 18 20  1  0  0  0  0
 16 17  1  0  0  0  0
 16 18  1  0  0  0  0
 15 16  2  0  0  0  0
 14 15  1  0  0  0  0
 14 20  2  0  0  0  0
 11 12  1  0  0  0  0
 11 13  1  0  0  0  0
 11 14  1  0  0  0  0
  9 10  1  0  0  0  0
  9 11  1  0  0  0  0
  9 22  1  0  0  0  0
  7  8  1  0  0  0  0
  7  9  1  0  0  0  0
 26 27  1  0  0  0  0
 26 28  1  0  0  0  0
 26 29  1  0  0  0  0
 24 25  1  0  0  0  0
 24 26  1  0  0  0  0
M  END
$$$$
default_name
  -OEChem-02102213163D

 29 29  0     1  0  0  0  0  0999 V2000
   -2.9561   -3.9186    1.3887 H   0  0  0  0  0  0  0  0  0  0  0  0
   -3.1191   -2.9346    0.9517 C   0  0  0  0  0  0  0  0  0  0  0  0
   -3.7811   -2.3546    1.5917 H   0  0  0  0  0  0  0  0  0  0  0  0
   -3.5591   -3.0406   -0.0383 H   0  0  0  0  0  0  0  0  0  0  0  0
   -1.7921   -2.2226    0.8327 C   0  0  0  0  0  0  0  0  0  0  0  0
   -0.7611   -2.7766    1.1927 O   0  0  0  0  0  0  0  0  0  0  0  0
   -1.8201   -0.9926    0.3247 N   0  0  0  0  0  0  0  0  0  0  0  0
   -2.7141   -0.5816    0.0927 H   0  0  0  0  0  0  0  0  0  0  0  0
   -0.6481   -0.1156    0.2017 C   0  0  1  0  0  0  0  0  0  0  0  0
    0.1042   -0.6345   -0.3958 H   0  0  0  0  0  0  0  0  0  0  0  0
   -1.0420    1.1781   -0.5372 C   0  0  0  0  0  0  0  0  0  0  0  0
   -1.1522    0.9754   -1.6035 H   0  0  0  0  0  0  0  0  0  0  0  0
   -2.0053    1.5344   -0.1696 H   0  0  0  0  0  0  0  0  0  0  0  0
   -0.0130    2.2728   -0.3927 C   0  0  0  0  0  0  0  0  0  0  0  0
    1.2174    2.3300   -1.0487 N   0  0  0  0  0  0  0  0  0  0  0  0
    1.7846    3.4846   -0.6697 C   0  0  0  0  0  0  0  0  0  0  0  0
    2.7592    3.8245   -0.9965 H   0  0  0  0  0  0  0  0  0  0  0  0
    0.9700    4.1574    0.1604 N   0  0  0  0  0  0  0  0  0  0  0  0
    1.1642    5.0627    0.5661 H   0  0  0  0  0  0  0  0  0  0  0  0
   -0.1719    3.4099    0.3441 C   0  0  0  0  0  0  0  0  0  0  0  0
   -1.0424    3.6668    0.9346 H   0  0  0  0  0  0  0  0  0  0  0  0
   -0.0283    0.1609    1.5831 C   0  0  0  0  0  0  0  0  0  0  0  0
    1.1923    0.1056    1.7329 O   0  0  0  0  0  0  0  0  0  0  0  0
   -0.8586    0.4659    2.5853 N   0  0  0  0  0  0  0  0  0  0  0  0
   -1.8521    0.3848    2.4000 H   0  0  0  0  0  0  0  0  0  0  0  0
   -0.4403    0.7694    3.9518 C   0  0  0  0  0  0  0  0  0  0  0  0
    0.5066    1.3154    3.9421 H   0  0  0  0  0  0  0  0  0  0  0  0
   -1.1988    1.3789    4.4452 H   0  0  0  0  0  0  0  0  0  0  0  0
   -0.3053   -0.1600    4.5075 H   0  0  0  0  0  0  0  0  0  0  0  0
  5  6  2  0  0  0  0
  5  7  1  0  0  0  0
  2  3  1  0  0  0  0
  2  4  1  0  0  0  0
  2  5  1  0  0  0  0
  1  2  1  0  0  0  0
 22 23  2  0  0  0  0
 22 24  1  0  0  0  0
 20 21  1  0  0  0  0
 18 19  1  0  0  0  0
 18 20  1  0  0  0  0
 16 17  1  0  0  0  0
 16 18  1  0  0  0  0
 15 16  2  0  0  0  0
 14 15  1  0  0  0  0
 14 20  2  0  0  0  0
 11 12  1  0  0  0  0
 11 13  1  0  0  0  0
 11 14  1  0  0  0  0
  9 10  1  0  0  0  0
  9 11  1  0  0  0  0
  9 22  1  0  0  0  0
  7  8  1  0  0  0  0
  7  9  1  0  0  0  0
 26 27  1  0  0  0  0
 26 28  1  0  0  0  0
 26 29  1  0  0  0  0
 24 25  1  0  0  0  0
 24 26  1  0  0  0  0
M  END
$$$$
default_name
  -OEChem-02102213163D

 29 29  0     1  0  0  0  0  0999 V2000
   -2.9561   -3.9186    1.3887 H   0  0  0  0  0  0  0  0  0  0  0  0
   -3.1191   -2.9346    0.9517 C   0  0  0  0  0  0  0  0  0  0  0  0
   -3.7811   -2.3546    1.5917 H   0  0  0  0  0  0  0  0  0  0  0  0
   -3.5591   -3.0406   -0.0383 H   0  0  0  0  0  0  0  0  0  0  0  0
   -1.7921   -2.2226    0.8327 C   0  0  0  0  0  0  0  0  0  0  0  0
   -0.7611   -2.7766    1.1927 O   0  0  0  0  0  0  0  0  0  0  0  0
   -1.8201   -0.9926    0.3247 N   0  0  0  0  0  0  0  0  0  0  0  0
   -2.7141   -0.5816    0.0927 H   0  0  0  0  0  0  0  0  0  0  0  0
   -0.6481   -0.1156    0.2017 C   0  0  1  0  0  0  0  0  0  0  0  0
    0.1042   -0.6345   -0.3958 H   0  0  0  0  0  0  0  0  0  0  0  0
   -1.0420    1.1781   -0.5372 C   0  0  0  0  0  0  0  0  0  0  0  0
   -1.1522    0.9754   -1.6035 H   0  0  0  0  0  0  0  0  0  0  0  0
   -2.0053    1.5344   -0.1696 H   0  0  0  0  0  0  0  0  0  0  0  0
   -0.0130    2.2728   -0.3927 C   0  0  0  0  0  0  0  0  0  0  0  0
    1.0699    2.4945   -1.2445 N   0  0  0  0  0  0  0  0  0  0  0  0
    1.6896    3.5881   -0.7771 C   0  0  0  0  0  0  0  0  0  0  0  0
    2.5817    4.0199   -1.2128 H   0  0  0  0  0  0  0  0  0  0  0  0
    1.0422    4.0716    0.2964 N   0  0  0  0  0  0  0  0  0  0  0  0
    1.3027    4.8997    0.8142 H   0  0  0  0  0  0  0  0  0  0  0  0
   -0.0381    3.2566    0.5521 C   0  0  0  0  0  0  0  0  0  0  0  0
   -0.7826    3.3704    1.3300 H   0  0  0  0  0  0  0  0  0  0  0  0
   -0.0283    0.1609    1.5831 C   0  0  0  0  0  0  0  0  0  0  0  0
    1.1923    0.1056    1.7329 O   0  0  0  0  0  0  0  0  0  0  0  0
   -0.8586    0.4659    2.5853 N   0  0  0  0  0  0  0  0  0  0  0  0
   -1.8521    0.3848    2.4000 H   0  0  0  0  0  0  0  0  0  0  0  0
   -0.4403    0.7694    3.9518 C   0  0  0  0  0  0  0  0  0  0  0  0
    0.5066    1.3154    3.9421 H   0  0  0  0  0  0  0  0  0  0  0  0
   -1.1988    1.3789    4.4452 H   0  0  0  0  0  0  0  0  0  0  0  0
   -0.3053   -0.1600    4.5075 H   0  0  0  0  0  0  0  0  0  0  0  0
  5  6  2  0  0  0  0
  5  7  1  0  0  0  0
  2  3  1  0  0  0  0
  2  4  1  0  0  0  0
  2  5  1  0  0  0  0
  1  2  1  0  0  0  0
 22 23  2  0  0  0  0
 22 24  1  0  0  0  0
 20 21  1  0  0  0  0
 18 19  1  0  0  0  0
 18 20  1  0  0  0  0
 16 17  1  0  0  0  0
 16 18  1  0  0  0  0
 15 16  2  0  0  0  0
 14 15  1  0  0  0  0
 14 20  2  0  0  0  0
 11 12  1  0  0  0  0
 11 13  1  0  0  0  0
 11 14  1  0  0  0  0
  9 10  1  0  0  0  0
  9 11  1  0  0  0  0
  9 22  1  0  0  0  0
  7  8  1  0  0  0  0
  7  9  1  0  0  0  0
 26 27  1  0  0  0  0
 26 28  1  0  0  0  0
 26 29  1  0  0  0  0
 24 25  1  0  0  0  0
 24 26  1  0  0  0  0
M  END
$$$$
default_name
  -OEChem-02102213163D

 29 29  0     1  0  0  0  0  0999 V2000
   -2.9561   -3.9186    1.3887 H   0  0  0  0  0  0  0  0  0  0  0  0
   -3.1191   -2.9346    0.9517 C   0  0  0  0  0  0  0  0  0  0  0  0
   -3.7811   -2.3546    1.5917 H   0  0  0  0  0  0  0  0  0  0  0  0
   -3.5591   -3.0406   -0.0383 H   0  0  0  0  0  0  0  0  0  0  0  0
   -1.7921   -2.2226    0.8327 C   0  0  0  0  0  0  0  0  0  0  0  0
   -0.7611   -2.7766    1.1927 O   0  0  0  0  0  0  0  0  0  0  0  0
   -1.8201   -0.9926    0.3247 N   0  0  0  0  0  0  0  0  0  0  0  0
   -2.7141   -0.5816    0.0927 H   0  0  0  0  0  0  0  0  0  0  0  0
   -0.6481   -0.1156    0.2017 C   0  0  1  0  0  0  0  0  0  0  0  0
    0.1042   -0.6345   -0.3958 H   0  0  0  0  0  0  0  0  0  0  0  0
   -1.0420    1.1781   -0.5372 C   0  0  0  0  0  0  0  0  0  0  0  0
   -1.1522    0.9754   -1.6035 H   0  0  0  0  0  0  0  0  0  0  0  0
   -2.0053    1.5344   -0.1696 H   0  0  0  0  0  0  0  0  0  0  0  0
   -0.0130    2.2728   -0.3927 C   0  0  0  0  0  0  0  0  0  0  0  0
    0.8866    2.6843   -1.3770 N   0  0  0  0  0  0  0  0  0  0  0  0
    1.5751    3.7046   -0.8448 C   0  0  0  0  0  0  0  0  0  0  0  0
    2.3648    4.2425   -1.3540 H   0  0  0  0  0  0  0  0  0  0  0  0
    1.1396    3.9665    0.3990 N   0  0  0  0  0  0  0  0  0  0  0  0
    1.4872    4.7020    0.9992 H   0  0  0  0  0  0  0  0  0  0  0  0
    0.1340    3.0752    0.7008 C   0  0  0  0  0  0  0  0  0  0  0  0
   -0.4501    3.0207    1.6108 H   0  0  0  0  0  0  0  0  0  0  0  0
   -0.0283    0.1609    1.5831 C   0  0  0  0  0  0  0  0  0  0  0  0
    1.1923    0.1056    1.7329 O   0  0  0  0  0  0  0  0  0  0  0  0
   -0.8586    0.4659    2.5853 N   0  0  0  0  0  0  0  0  0  0  0  0
   -1.8521    0.3848    2.4000 H   0  0  0  0  0  0  0  0  0  0  0  0
   -0.4403    0.7694    3.9518 C   0  0  0  0  0  0  0  0  0  0  0  0
    0.5066    1.3154    3.9421 H   0  0  0  0  0  0  0  0  0  0  0  0
   -1.1988    1.3789    4.4452 H   0  0  0  0  0  0  0  0  0  0  0  0
   -0.3053   -0.1600    4.5075 H   0  0  0  0  0  0  0  0  0  0  0  0
  5  6  2  0  0  0  0
  5  7  1  0  0  0  0
  2  3  1  0  0  0  0
  2  4  1  0  0  0  0
  2  5  1  0  0  0  0
  1  2  1  0  0  0  0
 22 23  2  0  0  0  0
 22 24  1  0  0  0  0
 20 21  1  0  0  0  0
 18 19  1  0  0  0  0
 18 20  1  0  0  0  0
 16 17  1  0  0  0  0
 16 18  1  0  0  0  0
 15 16  2  0  0  0  0
 14 15  1  0  0  0  0
 14 20  2  0  0  0  0
 11 12  1  0  0  0  0
 11 13  1  0  0  0  0
 11 14  1  0  0  0  0
  9 10  1  0  0  0  0
  9 11  1  0  0  0  0
  9 22  1  0  0  0  0
  7  8  1  0  0  0  0
  7  9  1  0  0  0  0
 26 27  1  0  0  0  0
 26 28  1  0  0  0  0
 26 29  1  0  0  0  0
 24 25  1  0  0  0  0
 24 26  1  0  0  0  0
M  END
$$$$
default_name
  -OEChem-02102213163D

 29 29  0     1  0  0  0  0  0999 V2000
   -2.9561   -3.9186    1.3887 H   0  0  0  0  0  0  0  0  0  0  0  0
   -3.1191   -2.9346    0.9517 C   0  0  0  0  0  0  0  0  0  0  0  0
   -3.7811   -2.3546    1.5917 H   0  0  0  0  0  0  0  0  0  0  0  0
   -3.5591   -3.0406   -0.0383 H   0  0  0  0  0  0  0  0  0  0  0  0
   -1.7921   -2.2226    0.8327 C   0  0  0  0  0  0  0  0  0  0  0  0
   -0.7611   -2.7766    1.1927 O   0  0  0  0  0  0  0  0  0  0  0  0
   -1.8201   -0.9926    0.3247 N   0  0  0  0  0  0  0  0  0  0  0  0
   -2.7141   -0.5816    0.0927 H   0  0  0  0  0  0  0  0  0  0  0  0
   -0.6481   -0.1156    0.2017 C   0  0  1  0  0  0  0  0  0  0  0  0
    0.1042   -0.6345   -0.3958 H   0  0  0  0  0  0  0  0  0  0  0  0
   -1.0420    1.1781   -0.5372 C   0  0  0  0  0  0  0  0  0  0  0  0
   -1.1522    0.9754   -1.6035 H   0  0  0  0  0  0  0  0  0  0  0  0
   -2.0053    1.5344   -0.1696 H   0  0  0  0  0  0  0  0  0  0  0  0
   -0.0130    2.2728   -0.3927 C   0  0  0  0  0  0  0  0  0  0  0  0
    0.6800    2.8864   -1.4370 N   0  0  0  0  0  0  0  0  0  0  0  0
    1.4489    3.8263   -0.8680 C   0  0  0  0  0  0  0  0  0  0  0  0
    2.1232    4.4770   -1.4104 H   0  0  0  0  0  0  0  0  0  0  0  0
    1.2555    3.8493    0.4614 N   0  0  0  0  0  0  0  0  0  0  0  0
    1.7049    4.4829    1.1083 H   0  0  0  0  0  0  0  0  0  0  0  0
    0.3327    2.8780    0.7801 C   0  0  0  0  0  0  0  0  0  0  0  0
   -0.0675    2.6416    1.7580 H   0  0  0  0  0  0  0  0  0  0  0  0
   -0.0283    0.1609    1.5831 C   0  0  0  0  0  0  0  0  0  0  0  0
    1.1923    0.1056    1.7329 O   0  0  0  0  0  0  0  0  0  0  0  0
   -0.8586    0.4659    2.5853 N   0  0  0  0  0  0  0  0  0  0  0  0
   -1.8521    0.3848    2.4000 H   0  0  0  0  0  0  0  0  0  0  0  0
   -0.4403    0.7694    3.9518 C   0  0  0  0  0  0  0  0  0  0  0  0
    0.5066    1.3154    3.9421 H   0  0  0  0  0  0  0  0  0  0  0  0
   -1.1988    1.3789    4.4452 H   0  0  0  0  0  0  0  0  0  0  0  0
   -0.3053   -0.1600    4.5075 H   0  0  0  0  0  0  0  0  0  0  0  0
  5  6  2  0  0  0  0
  5  7  1  0  0  0  0
  2  3  1  0  0  0  0
  2  4  1  0  0  0  0
  2  5  1  0  0  0  0
  1  2  1  0  0  0  0
 22 23  2  0  0  0  0
 22 24  1  0  0  0  0
 20 21  1  0  0  0  0
 18 19  1  0  0  0  0
 18 20  1  0  0  0  0
 16 17  1  0  0  0  0
 16 18  1  0  0  0  0
 15 16  2  0  0  0  0
 14 15  1  0  0  0  0
 14 20  2  0  0  0  0
 11 12  1  0  0  0  0
 11 13  1  0  0  0  0
 11 14  1  0  0  0  0
  9 10  1  0  0  0  0
  9 11  1  0  0  0  0
  9 22  1  0  0  0  0
  7  8  1  0  0  0  0
  7  9  1  0  0  0  0
 26 27  1  0  0  0  0
 26 28  1  0  0  0  0
 26 29  1  0  0  0  0
 24 25  1  0  0  0  0
 24 26  1  0  0  0  0
M  END
$$$$
default_name
  -OEChem-02102213163D

 29 29  0     1  0  0  0  0  0999 V2000
   -2.9561   -3.9186    1.3887 H   0  0  0  0  0  0  0  0  0  0  0  0
   -3.1191   -2.9346    0.9517 C   0  0  0  0  0  0  0  0  0  0  0  0
   -3.7811   -2.3546    1.5917 H   0  0  0  0  0  0  0  0  0  0  0  0
   -3.5591   -3.0406   -0.0383 H   0  0  0  0  0  0  0  0  0  0  0  0
   -1.7921   -2.2226    0.8327 C   0  0  0  0  0  0  0  0  0  0  0  0
   -0.7611   -2.7766    1.1927 O   0  0  0  0  0  0  0  0  0  0  0  0
   -1.8201   -0.9926    0.3247 N   0  0  0  0  0  0  0  0  0  0  0  0
   -2.7141   -0.5816    0.0927 H   0  0  0  0  0  0  0  0  0  0  0  0
   -0.6481   -0.1156    0.2017 C   0  0  1  0  0  0  0  0  0  0  0  0
    0.1042   -0.6345   -0.3958 H   0  0  0  0  0  0  0  0  0  0  0  0
   -1.0420    1.1781   -0.5372 C   0  0  0  0  0  0  0  0  0  0  0  0
   -1.1522    0.9754   -1.6035 H   0  0  0  0  0  0  0  0  0  0  0  0
   -2.0053    1.5344   -0.1696 H   0  0  0  0  0  0  0  0  0  0  0  0
   -0.0130    2.2728   -0.3927 C   0  0  0  0  0  0  0  0  0  0  0  0
    0.4641    3.0872   -1.4206 N   0  0  0  0  0  0  0  0  0  0  0  0
    1.3196    3.9448   -0.8454 C   0  0  0  0  0  0  0  0  0  0  0  0
    1.8735    4.7075   -1.3781 H   0  0  0  0  0  0  0  0  0  0  0  0
    1.3821    3.7279    0.4792 N   0  0  0  0  0  0  0  0  0  0  0  0
    1.9411    4.2574    1.1342 H   0  0  0  0  0  0  0  0  0  0  0  0
    0.5443    2.6785    0.7846 C   0  0  0  0  0  0  0  0  0  0  0  0
    0.3391    2.2590    1.7615 H   0  0  0  0  0  0  0  0  0  0  0  0
   -0.0283    0.1609    1.5831 C   0  0  0  0  0  0  0  0  0  0  0  0
    1.1923    0.1056    1.7329 O   0  0  0  0  0  0  0  0  0  0  0  0
   -0.8586    0.4659    2.5853 N   0  0  0  0  0  0  0  0  0  0  0  0
   -1.8521    0.3848    2.4000 H   0  0  0  0  0  0  0  0  0  0  0  0
   -0.4403    0.7694    3.9518 C   0  0  0  0  0  0  0  0  0  0  0  0
    0.5066    1.3154    3.9421 H   0  0  0  0  0  0  0  0  0  0  0  0
   -1.1988    1.3789    4.4452 H   0  0  0  0  0  0  0  0  0  0  0  0
   -0.3053   -0.1600    4.5075 H   0  0  0  0  0  0  0  0  0  0  0  0
  5  6  2  0  0  0  0
  5  7  1  0  0  0  0
  2  3  1  0  0  0  0
  2  4  1  0  0  0  0
  2  5  1  0  0  0  0
  1  2  1  0  0  0  0
 22 23  2  0  0  0  0
 22 24  1  0  0  0  0
 20 21  1  0  0  0  0
 18 19  1  0  0  0  0
 18 20  1  0  0  0  0
 16 17  1  0  0  0  0
 16 18  1  0  0  0  0
 15 16  2  0  0  0  0
 14 15  1  0  0  0  0
 14 20  2  0  0  0  0
 11 12  1  0  0  0  0
 11 13  1  0  0  0  0
 11 14  1  0  0  0  0
  9 10  1  0  0  0  0
  9 11  1  0  0  0  0
  9 22  1  0  0  0  0
  7  8  1  0  0  0  0
  7  9  1  0  0  0  0
 26 27  1  0  0  0  0
 26 28  1  0  0  0  0
 26 29  1  0  0  0  0
 24 25  1  0  0  0  0
 24 26  1  0  0  0  0
M  END
$$$$
default_name
  -OEChem-02102213163D

 29 29  0     1  0  0  0  0  0999 V2000
   -2.9561   -3.9186    1.3887 H   0  0  0  0  0  0  0  0  0  0  0  0
   -3.1191   -2.9346    0.9517 C   0  0  0  0  0  0  0  0  0  0  0  0
   -3.7811   -2.3546    1.5917 H   0  0  0  0  0  0  0  0  0  0  0  0
   -3.5591   -3.0406   -0.0383 H   0  0  0  0  0  0  0  0  0  0  0  0
   -1.7921   -2.2226    0.8327 C   0  0  0  0  0  0  0  0  0  0  0  0
   -0.7611   -2.7766    1.1927 O   0  0  0  0  0  0  0  0  0  0  0  0
   -1.8201   -0.9926    0.3247 N   0  0  0  0  0  0  0  0  0  0  0  0
   -2.7141   -0.5816    0.0927 H   0  0  0  0  0  0  0  0  0  0  0  0
   -0.6481   -0.1156    0.2017 C   0  0  1  0  0  0  0  0  0  0  0  0
    0.1042   -0.6345   -0.3958 H   0  0  0  0  0  0  0  0  0  0  0  0
   -1.0420    1.1781   -0.5372 C   0  0  0  0  0  0  0  0  0  0  0  0
   -1.1522    0.9754   -1.6035 H   0  0  0  0  0  0  0  0  0  0  0  0
   -2.0053    1.5344   -0.1696 H   0  0  0  0  0  0  0  0  0  0  0  0
   -0.0130    2.2728   -0.3927 C   0  0  0  0  0  0  0  0  0  0  0  0
    0.2537    3.2728   -1.3288 N   0  0  0  0  0  0  0  0  0  0  0  0
    1.1961    4.0521   -0.7783 C   0  0  0  0  0  0  0  0  0  0  0  0
    1.6326    4.9183   -1.2594 H   0  0  0  0  0  0  0  0  0  0  0  0
    1.5107    3.6107    0.4512 N   0  0  0  0  0  0  0  0  0  0  0  0
    2.1798    4.0409    1.0750 H   0  0  0  0  0  0  0  0  0  0  0  0
    0.7546    2.4902    0.7140 C   0  0  0  0  0  0  0  0  0  0  0  0
    0.7419    1.8988    1.6209 H   0  0  0  0  0  0  0  0  0  0  0  0
   -0.0283    0.1609    1.5831 C   0  0  0  0  0  0  0  0  0  0  0  0
    1.1923    0.1056    1.7329 O   0  0  0  0  0  0  0  0  0  0  0  0
   -0.8586    0.4659    2.5853 N   0  0  0  0  0  0  0  0  0  0  0  0
   -1.8521    0.3848    2.4000 H   0  0  0  0  0  0  0  0  0  0  0  0
   -0.4403    0.7694    3.9518 C   0  0  0  0  0  0  0  0  0  0  0  0
    0.5066    1.3154    3.9421 H   0  0  0  0  0  0  0  0  0  0  0  0
   -1.1988    1.3789    4.4452 H   0  0  0  0  0  0  0  0  0  0  0  0
   -0.3053   -0.1600    4.5075 H   0  0  0  0  0  0  0  0  0  0  0  0
  5  6  2  0  0  0  0
  5  7  1  0  0  0  0
  2  3  1  0  0  0  0
  2  4  1  0  0  0  0
  2  5  1  0  0  0  0
  1  2  1  0  0  0  0
 22 23  2  0  0  0  0
 22 24  1  0  0  0  0
 20 21  1  0  0  0  0
 18 19  1  0  0  0  0
 18 20  1  0  0  0  0
 16 17  1  0  0  0  0
 16 18  1  0  0  0  0
 15 16  2  0  0  0  0
 14 15  1  0  0  0  0
 14 20  2  0  0  0  0
 11 12  1  0  0  0  0
 11 13  1  0  0  0  0
 11 14  1  0  0  0  0
  9 10  1  0  0  0  0
  9 11  1  0  0  0  0
  9 22  1  0  0  0  0
  7  8  1  0  0  0  0
  7  9  1  0  0  0  0
 26 27  1  0  0  0  0
 26 28  1  0  0  0  0
 26 29  1  0  0  0  0
 24 25  1  0  0  0  0
 24 26  1  0  0  0  0
M  END
$$$$
default_name
  -OEChem-02102213163D

 29 29  0     1  0  0  0  0  0999 V2000
   -2.9561   -3.9186    1.3887 H   0  0  0  0  0  0  0  0  0  0  0  0
   -3.1191   -2.9346    0.9517 C   0  0  0  0  0  0  0  0  0  0  0  0
   -3.7811   -2.3546    1.5917 H   0  0  0  0  0  0  0  0  0  0  0  0
   -3.5591   -3.0406   -0.0383 H   0  0  0  0  0  0  0  0  0  0  0  0
   -1.7921   -2.2226    0.8327 C   0  0  0  0  0  0  0  0  0  0  0  0
   -0.7611   -2.7766    1.1927 O   0  0  0  0  0  0  0  0  0  0  0  0
   -1.8201   -0.9926    0.3247 N   0  0  0  0  0  0  0  0  0  0  0  0
   -2.7141   -0.5816    0.0927 H   0  0  0  0  0  0  0  0  0  0  0  0
   -0.6481   -0.1156    0.2017 C   0  0  1  0  0  0  0  0  0  0  0  0
    0.1042   -0.6345   -0.3958 H   0  0  0  0  0  0  0  0  0  0  0  0
   -1.0420    1.1781   -0.5372 C   0  0  0  0  0  0  0  0  0  0  0  0
   -1.1522    0.9754   -1.6035 H   0  0  0  0  0  0  0  0  0  0  0  0
   -2.0053    1.5344   -0.1696 H   0  0  0  0  0  0  0  0  0  0  0  0
   -0.0130    2.2728   -0.3927 C   0  0  0  0  0  0  0  0  0  0  0  0
    0.0631    3.4307   -1.1678 N   0  0  0  0  0  0  0  0  0  0  0  0
    1.0867    4.1408   -0.6714 C   0  0  0  0  0  0  0  0  0  0  0  0
    1.4170    5.0949   -1.0623 H   0  0  0  0  0  0  0  0  0  0  0  0
    1.6326    3.5057    0.3793 N   0  0  0  0  0  0  0  0  0  0  0  0
    2.4046    3.8481    0.9349 H   0  0  0  0  0  0  0  0  0  0  0  0
    0.9491    2.3259    0.5731 C   0  0  0  0  0  0  0  0  0  0  0  0
    1.1136    1.5857    1.3461 H   0  0  0  0  0  0  0  0  0  0  0  0
   -0.0283    0.1609    1.5831 C   0  0  0  0  0  0  0  0  0  0  0  0
    1.1923    0.1056    1.7329 O   0  0  0  0  0  0  0  0  0  0  0  0
   -0.8586    0.4659    2.5853 N   0  0  0  0  0  0  0  0  0  0  0  0
   -1.8521    0.3848    2.4000 H   0  0  0  0  0  0  0  0  0  0  0  0
   -0.4403    0.7694    3.9518 C   0  0  0  0  0  0  0  0  0  0  0  0
    0.5066    1.3154    3.9421 H   0  0  0  0  0  0  0  0  0  0  0  0
   -1.1988    1.3789    4.4452 H   0  0  0  0  0  0  0  0  0  0  0  0
   -0.3053   -0.1600    4.5075 H   0  0  0  0  0  0  0  0  0  0  0  0
  5  6  2  0  0  0  0
  5  7  1  0  0  0  0
  2  3  1  0  0  0  0
  2  4  1  0  0  0  0
  2  5  1  0  0  0  0
  1  2  1  0  0  0  0
 22 23  2  0  0  0  0
 22 24  1  0  0  0  0
 20 21  1  0  0  0  0
 18 19  1  0  0  0  0
 18 20  1  0  0  0  0
 16 17  1  0  0  0  0
 16 18  1  0  0  0  0
 15 16  2  0  0  0  0
 14 15  1  0  0  0  0
 14 20  2  0  0  0  0
 11 12  1  0  0  0  0
 11 13  1  0  0  0  0
 11 14  1  0  0  0  0
  9 10  1  0  0  0  0
  9 11  1  0  0  0  0
  9 22  1  0  0  0  0
  7  8  1  0  0  0  0
  7  9  1  0  0  0  0
 26 27  1  0  0  0  0
 26 28  1  0  0  0  0
 26 29  1  0  0  0  0
 24 25  1  0  0  0  0
 24 26  1  0  0  0  0
M  END
$$$$
