default_name
  -OEChem-02102213163D

 29 29  0     1  0  0  0  0  0999 V2000
   -2.9561   -3.9186    1.3887 H   0  0  0  0  0  0  0  0  0  0  0  0
   -3.1191   -2.9346    0.9517 C   0  0  0  0  0  0  0  0  0  0  0  0
   -3.7811   -2.3546    1.5917 H   0  0  0  0  0  0  0  0  0  0  0  0
   -3.5591   -3.0406   -0.0383 H   0  0  0  0  0  0  0  0  0  0  0  0
   -1.7921   -2.2226    0.8327 C   0  0  0  0  0  0  0  0  0  0  0  0
   -0.7611   -2.7766    1.1927 O   0  0  0  0  0  0  0  0  0  0  0  0
   -1.8201   -0.9926    0.3247 N   0  0  0  0  0  0  0  0  0  0  0  0
   -2.7141   -0.5816    0.0927 H   0  0  0  0  0  0  0  0  0  0  0  0
   -0.6481   -0.1156    0.2017 C   0  0  1  0  0  0  0  0  0  0  0  0
    0.1344   -0.4988    0.8596 H   0  0  0  0  0  0  0  0  0  0  0  0
   -0.1211   -0.1520   -1.2460 C   0  0  0  0  0  0  0  0  0  0  0  0
    0.1706   -1.1703   -1.5072 H   0  0  0  0  0  0  0  0  0  0  0  0
   -0.9117    0.1498   -1.9343 H   0  0  0  0  0  0  0  0  0  0  0  0
    1.0877    0.7279   -1.4525 C   0  0  0  0  0  0  0  0  0  0  0  0
    1.7801    0.8974   -2.6522 N   0  0  0  0  0  0  0  0  0  0  0  0
    2.7447    1.7937   -2.3984 C   0  0  0  0  0  0  0  0  0  0  0  0
    3.4694    2.1365   -3.1262 H   0  0  0  0  0  0  0  0  0  0  0  0
    2.6760    2.2085   -1.1223 N   0  0  0  0  0  0  0  0  0  0  0  0
    3.2818    2.8963   -0.6960 H   0  0  0  0  0  0  0  0  0  0  0  0
    1.6333    1.5496   -0.5099 C   0  0  0  0  0  0  0  0  0  0  0  0
    1.2865    1.6637    0.5094 H   0  0  0  0  0  0  0  0  0  0  0  0
   -0.9851    1.3114    0.6698 C   0  0  0  0  0  0  0  0  0  0  0  0
   -2.0377    1.8431    0.3168 O   0  0  0  0  0  0  0  0  0  0  0  0
   -0.1052    1.9265    1.4663 N   0  0  0  0  0  0  0  0  0  0  0  0
    0.7810    1.4586    1.6201 H   0  0  0  0  0  0  0  0  0  0  0  0
   -0.2724    3.2715    2.0119 C   0  0  0  0  0  0  0  0  0  0  0  0
   -1.3249    3.4549    2.2426 H   0  0  0  0  0  0  0  0  0  0  0  0
    0.3167    3.3776    2.9239 H   0  0  0  0  0  0  0  0  0  0  0  0
    0.0609    4.0073    1.2782 H   0  0  0  0  0  0  0  0  0  0  0  0
  5  6  2  0  0  0  0
  5  7  1  0  0  0  0
  2  3  1  0  0  0  0
  2  4  1  0  0  0  0
  2  5  1  0  0  0  0
  1  2  1  0  0  0  0
 22 23  2  0  0  0  0
 22 24  1  0  0  0  0
 20 21  1  0  0  0  0
 18 19  1  0  0  0  0
 18 20  1  0  0  0  0
 16 17  1  0  0  0  0
 16 18  1  0  0  0  0
 15 16  2  0  0  0  0
 14 15  1  0  0  0  0
 14 20  2  0  0  0  0
 11 12  1  0  0  0  0
 11 13  1  0  0  0  0
 11 14  1  0  0  0  0
  9 10  1  0  0  0  0
  9 11  1  0  0  0  0
  9 22  1  0  0  0  0
  7  8  1  0  0  0  0
  7  9  1  0  0  0  0
 26 27  1  0  0  0  0
 26 28  1  0  0  0  0
 26 29  1  0  0  0  0
 24 25  1  0  0  0  0
 24 26  1  0  0  0  0
M  END
$$$$
default_name
  -OEChem-02102213163D

 29 29  0     1  0  0  0  0  0999 V2000
   -2.9561   -3.9186    1.3887 H   0  0  0  0  0  0  0  0  0  0  0  0
   -3.1191   -2.9346    0.9517 C   0  0  0  0  0  0  0  0  0  0  0  0
   -3.7811   -2.3546    1.5917 H   0  0  0  0  0  0  0  0  0  0  0  0
   -3.5591   -3.0406   -0.0383 H   0  0  0  0  0  0  0  0  0  0  0  0
   -1.7921   -2.2226    0.8327 C   0  0  0  0  0  0  0  0  0  0  0  0
   -0.7611   -2.7766    1.1927 O   0  0  0  0  0  0  0  0  0  0  0  0
   -1.8201   -0.9926    0.3247 N   0  0  0  0  0  0  0  0  0  0  0  0
   -2.7141   -0.5816    0.0927 H   0  0  0  0  0  0  0  0  0  0  0  0
   -0.6481   -0.1156    0.2017 C   0  0  1  0  0  0  0  0  0  0  0  0
    0.1344   -0.4988    0.8596 H   0  0  0  0  0  0  0  0  0  0  0  0
   -0.1211   -0.1520   -1.2460 C   0  0  0  0  0  0  0  0  0  0  0  0
    0.1706   -1.1703   -1.5072 H   0  0  0  0  0  0  0  0  0  0  0  0
   -0.9117    0.1498   -1.9343 H   0  0  0  0  0  0  0  0  0  0  0  0
    1.0877    0.7279   -1.4525 C   0  0  0  0  0  0  0  0  0  0  0  0
    1.6038    1.1320   -2.6845 N   0  0  0  0  0  0  0  0  0  0  0  0
    2.6400    1.9361   -2.4050 C   0  0  0  0  0  0  0  0  0  0  0  0
    3.2663    2.4098   -3.1504 H   0  0  0  0  0  0  0  0  0  0  0  0
    2.7812    2.0748   -1.0760 N   0  0  0  0  0  0  0  0  0  0  0  0
    3.4777    2.6459   -0.6169 H   0  0  0  0  0  0  0  0  0  0  0  0
    1.8075    1.3225   -0.4577 C   0  0  0  0  0  0  0  0  0  0  0  0
    1.6208    1.2268    0.6045 H   0  0  0  0  0  0  0  0  0  0  0  0
   -0.9851    1.3114    0.6698 C   0  0  0  0  0  0  0  0  0  0  0  0
   -2.0377    1.8431    0.3168 O   0  0  0  0  0  0  0  0  0  0  0  0
   -0.1052    1.9265    1.4663 N   0  0  0  0  0  0  0  0  0  0  0  0
    0.7810    1.4586    1.6201 H   0  0  0  0  0  0  0  0  0  0  0  0
   -0.2724    3.2715    2.0119 C   0  0  0  0  0  0  0  0  0  0  0  0
   -1.3249    3.4549    2.2426 H   0  0  0  0  0  0  0  0  0  0  0  0
    0.3167    3.3776    2.9239 H   0  0  0  0  0  0  0  0  0  0  0  0
    0.0609    4.0073    1.2782 H   0  0  0  0  0  0  0  0  0  0  0  0
  5  6  2  0  0  0  0
  5  7  1  0  0  0  0
  2  3  1  0  0  0  0
  2  4  1  0  0  0  0
  2  5  1  0  0  0  0
  1  2  1  0  0  0  0
 22 23  2  0  0  0  0
 22 24  1  0  0  0  0
 20 21  1  0  0  0  0
 18 19  1  0  0  0  0
 18 20  1  0  0  0  0
 16 17  1  0  0  0  0
 16 18  1  0  0  0  0
 15 16  2  0  0  0  0
 14 15  1  0  0  0  0
 14 20  2  0  0  0  0
 11 12  1  0  0  0  0
 11 13  1  0  0  0  0
 11 14  1  0  0  0  0
  9 10  1  0  0  0  0
  9 11  1  0  0  0  0
  9 22  1  0  0  0  0
  7  8  1  0  0  0  0
  7  9  1  0  0  0  0
 26 27  1  0  0  0  0
 26 28  1  0  0  0  0
 26 29  1  0  0  0  0
 24 25  1  0  0  0  0
 24 26  1  0  0  0  0
M  END
$$$$
default_name
  -OEChem-02102213163D

 29 29  0     1  0  0  0  0  0999 V2000
   -2.9561   -3.9186    1.3887 H   0  0  0  0  0  0  0  0  0  0  0  0
   -3.1191   -2.9346    0.9517 C   0  0  0  0  0  0  0  0  0  0  0  0
   -3.7811   -2.3546    1.5917 H   0  0  0  0  0  0  0  0  0  0  0  0
   -3.5591   -3.0406   -0.0383 H   0  0  0  0  0  0  0  0  0  0  0  0
   -1.7921   -2.2226    0.8327 C   0  0  0  0  0  0  0  0  0  0  0  0
   -0.7611   -2.7766    1.1927 O   0  0  0  0  0  0  0  0  0  0  0  0
   -1.8201   -0.9926    0.3247 N   0  0  0  0  0  0  0  0  0  0  0  0
   -2.7141   -0.5816    0.0927 H   0  0  0  0  0  0  0  0  0  0  0  0
   -0.6481   -0.1156    0.2017 C   0  0  1  0  0  0  0  0  0  0  0  0
    0.1344   -0.4988    0.8596 H   0  0  0  0  0  0  0  0  0  0  0  0
   -0.1211   -0.1520   -1.2460 C   0  0  0  0  0  0  0  0  0  0  0  0
    0.1706   -1.1703   -1.5072 H   0  0  0  0  0  0  0  0  0  0  0  0
   -0.9117    0.1498   -1.9343 H   0  0  0  0  0  0  0  0  0  0  0  0
    1.0877    0.7279   -1.4525 C   0  0  0  0  0  0  0  0  0  0  0  0
    1.4370    1.3716   -2.6404 N   0  0  0  0  0  0  0  0  0  0  0  0
    2.5429    2.0786   -2.3660 C   0  0  0  0  0  0  0  0  0  0  0  0
    3.0762    2.6860   -3.0864 H   0  0  0  0  0  0  0  0  0  0  0  0
    2.8851    1.9324   -1.0749 N   0  0  0  0  0  0  0  0  0  0  0  0
    3.6699    2.3806   -0.6221 H   0  0  0  0  0  0  0  0  0  0  0  0
    1.9756    1.0862   -0.4806 C   0  0  0  0  0  0  0  0  0  0  0  0
    1.9426    0.7732    0.5554 H   0  0  0  0  0  0  0  0  0  0  0  0
   -0.9851    1.3114    0.6698 C   0  0  0  0  0  0  0  0  0  0  0  0
   -2.0377    1.8431    0.3168 O   0  0  0  0  0  0  0  0  0  0  0  0
   -0.1052    1.9265    1.4663 N   0  0  0  0  0  0  0  0  0  0  0  0
    0.7810    1.4586    1.6201 H   0  0  0  0  0  0  0  0  0  0  0  0
   -0.2724    3.2715    2.0119 C   0  0  0  0  0  0  0  0  0  0  0  0
   -1.3249    3.4549    2.2426 H   0  0  0  0  0  0  0  0  0  0  0  0
    0.3167    3.3776    2.9239 H   0  0  0  0  0  0  0  0  0  0  0  0
    0.0609    4.0073    1.2782 H   0  0  0  0  0  0  0  0  0  0  0  0
  5  6  2  0  0  0  0
  5  7  1  0  0  0  0
  2  3  1  0  0  0  0
  2  4  1  0  0  0  0
  2  5  1  0  0  0  0
  1  2  1  0  0  0  0
 22 23  2  0  0  0  0
 22 24  1  0  0  0  0
 20 21  1  0  0  0  0
 18 19  1  0  0  0  0
 18 20  1  0  0  0  0
 16 17  1  0  0  0  0
 16 18  1  0  0  0  0
 15 16  2  0  0  0  0
 14 15  1  0  0  0  0
 14 20  2  0  0  0  0
 11 12  1  0  0  0  0
 11 13  1  0  0  0  0
 11 14  1  0  0  0  0
  9 10  1  0  0  0  0
  9 11  1  0  0  0  0
  9 22  1  0  0  0  0
  7  8  1  0  0  0  0
  7  9  1  0  0  0  0
 26 27  1  0  0  0  0
 26 28  1  0  0  0  0
 26 29  1  0  0  0  0
 24 25  1  0  0  0  0
 24 26  1  0  0  0  0
M  END
$$$$
default_name
  -OEChem-02102213163D

 29 29  0     1  0  0  0  0  0999 V2000
   -2.9561   -3.9186    1.3887 H   0  0  0  0  0  0  0  0  0  0  0  0
   -3.1191   -2.9346    0.9517 C   0  0  0  0  0  0  0  0  0  0  0  0
   -3.7811   -2.3546    1.5917 H   0  0  0  0  0  0  0  0  0  0  0  0
   -3.5591   -3.0406   -0.0383 H   0  0  0  0  0  0  0  0  0  0  0  0
   -1.7921   -2.2226    0.8327 C   0  0  0  0  0  0  0  0  0  0  0  0
   -0.7611   -2.7766    1.1927 O   0  0  0  0  0  0  0  0  0  0  0  0
   -1.8201   -0.9926    0.3247 N   0  0  0  0  0  0  0  0  0  0  0  0
   -2.7141   -0.5816    0.0927 H   0  0  0  0  0  0  0  0  0  0  0  0
   -0.6481   -0.1156    0.2017 C   0  0  1  0  0  0  0  0  0  0  0  0
    0.1344   -0.4988    0.8596 H   0  0  0  0  0  0  0  0  0  0  0  0
   -0.1211   -0.1520   -1.2460 C   0  0  0  0  0  0  0  0  0  0  0  0
    0.1706   -1.1703   -1.5072 H   0  0  0  0  0  0  0  0  0  0  0  0
   -0.9117    0.1498   -1.9343 H   0  0  0  0  0  0  0  0  0  0  0  0
    1.0877    0.7279   -1.4525 C   0  0  0  0  0  0  0  0  0  0  0  0
    1.2910    1.5997   -2.5231 N   0  0  0  0  0  0  0  0  0  0  0  0
    2.4600    2.2117   -2.2841 C   0  0  0  0  0  0  0  0  0  0  0  0
    2.9120    2.9463   -2.9387 H   0  0  0  0  0  0  0  0  0  0  0  0
    2.9805    1.7910   -1.1190 N   0  0  0  0  0  0  0  0  0  0  0  0
    3.8453    2.1187   -0.7110 H   0  0  0  0  0  0  0  0  0  0  0  0
    2.1261    0.8567   -0.5771 C   0  0  0  0  0  0  0  0  0  0  0  0
    2.2299    0.3338    0.3653 H   0  0  0  0  0  0  0  0  0  0  0  0
   -0.9851    1.3114    0.6698 C   0  0  0  0  0  0  0  0  0  0  0  0
   -2.0377    1.8431    0.3168 O   0  0  0  0  0  0  0  0  0  0  0  0
   -0.1052    1.9265    1.4663 N   0  0  0  0  0  0  0  0  0  0  0  0
    0.7810    1.4586    1.6201 H   0  0  0  0  0  0  0  0  0  0  0  0
   -0.2724    3.2715    2.0119 C   0  0  0  0  0  0  0  0  0  0  0  0
   -1.3249    3.4549    2.2426 H   0  0  0  0  0  0  0  0  0  0  0  0
    0.3167    3.3776    2.9239 H   0  0  0  0  0  0  0  0  0  0  0  0
    0.0609    4.0073    1.2782 H   0  0  0  0  0  0  0  0  0  0  0  0
  5  6  2  0  0  0  0
  5  7  1  0  0  0  0
  2  3  1  0  0  0  0
  2  4  1  0  0  0  0
  2  5  1  0  0  0  0
  1  2  1  0  0  0  0
 22 23  2  0  0  0  0
 22 24  1  0  0  0  0
 20 21  1  0  0  0  0
 18 19  1  0  0  0  0
 18 20  1  0  0  0  0
 16 17  1  0  0  0  0
 16 18  1  0  0  0  0
 15 16  2  0  0  0  0
 14 15  1  0  0  0  0
 14 20  2  0  0  0  0
 11 12  1  0  0  0  0
 11 13  1  0  0  0  0
 11 14  1  0  0  0  0
  9 10  1  0  0  0  0
  9 11  1  0  0  0  0
  9 22  1  0  0  0  0
  7  8  1  0  0  0  0
  7  9  1  0  0  0  0
 26 27  1  0  0  0  0
 26 28  1  0  0  0  0
 26 29  1  0  0  0  0
 24 25  1  0  0  0  0
 24 26  1  0  0  0  0
M  END
$$$$
default_name
  -OEChem-02102213163D

 29 29  0     1  0  0  0  0  0999 V2000
   -2.9561   -3.9186    1.3887 H   0  0  0  0  0  0  0  0  0  0  0  0
   -3.1191   -2.9346    0.9517 C   0  0  0  0  0  0  0  0  0  0  0  0
   -3.7811   -2.3546    1.5917 H   0  0  0  0  0  0  0  0  0  0  0  0
   -3.5591   -3.0406   -0.0383 H   0  0  0  0  0  0  0  0  0  0  0  0
   -1.7921   -2.2226    0.8327 C   0  0  0  0  0  0  0  0  0  0  0  0
   -0.7611   -2.7766    1.1927 O   0  0  0  0  0  0  0  0  0  0  0  0
   -1.8201   -0.9926    0.3247 N   0  0  0  0  0  0  0  0  0  0  0  0
   -2.7141   -0.5816    0.0927 H   0  0  0  0  0  0  0  0  0  0  0  0
   -0.6481   -0.1156    0.2017 C   0  0  1  0  0  0  0  0  0  0  0  0
    0.1344   -0.4988    0.8596 H   0  0  0  0  0  0  0  0  0  0  0  0
   -0.1211   -0.1520   -1.2460 C   0  0  0  0  0  0  0  0  0  0  0  0
    0.1706   -1.1703   -1.5072 H   0  0  0  0  0  0  0  0  0  0  0  0
   -0.9117    0.1498   -1.9343 H   0  0  0  0  0  0  0  0  0  0  0  0
    1.0877    0.7279   -1.4525 C   0  0  0  0  0  0  0  0  0  0  0  0
    1.1757    1.8010   -2.3403 N   0  0  0  0  0  0  0  0  0  0  0  0
    2.3971    2.3262   -2.1650 C   0  0  0  0  0  0  0  0  0  0  0  0
    2.7849    3.1729   -2.7172 H   0  0  0  0  0  0  0  0  0  0  0  0
    3.0610    1.6601   -1.2054 N   0  0  0  0  0  0  0  0  0  0  0  0
    3.9922    1.8778   -0.8777 H   0  0  0  0  0  0  0  0  0  0  0  0
    2.2489    0.6497   -0.7406 C   0  0  0  0  0  0  0  0  0  0  0  0
    2.4632   -0.0614    0.0473 H   0  0  0  0  0  0  0  0  0  0  0  0
   -0.9851    1.3114    0.6698 C   0  0  0  0  0  0  0  0  0  0  0  0
   -2.0377    1.8431    0.3168 O   0  0  0  0  0  0  0  0  0  0  0  0
   -0.1052    1.9265    1.4663 N   0  0  0  0  0  0  0  0  0  0  0  0
    0.7810    1.4586    1.6201 H   0  0  0  0  0  0  0  0  0  0  0  0
   -0.2724    3.2715    2.0119 C   0  0  0  0  0  0  0  0  0  0  0  0
   -1.3249    3.4549    2.2426 H   0  0  0  0  0  0  0  0  0  0  0  0
    0.3167    3.3776    2.9239 H   0  0  0  0  0  0  0  0  0  0  0  0
    0.0609    4.0073    1.2782 H   0  0  0  0  0  0  0  0  0  0  0  0
  5  6  2  0  0  0  0
  5  7  1  0  0  0  0
  2  3  1  0  0  0  0
  2  4  1  0  0  0  0
  2  5  1  0  0  0  0
  1  2  1  0  0  0  0
 22 23  2  0  0  0  0
 22 24  1  0  0  0  0
 20 21  1  0  0  0  0
 18 19  1  0  0  0  0
 18 20  1  0  0  0  0
 16 17  1  0  0  0  0
 16 18  1  0  0  0  0
 15 16  2  0  0  0  0
 14 15  1  0  0  0  0
 14 20  2  0  0  0  0
 11 12  1  0  0  0  0
 11 13  1  0  0  0  0
 11 14  1  0  0  0  0
  9 10  1  0  0  0  0
  9 11  1  0  0  0  0
  9 22  1  0  0  0  0
  7  8  1  0  0  0  0
  7  9  1  0  0  0  0
 26 27  1  0  0  0  0
 26 28  1  0  0  0  0
 26 29  1  0  0  0  0
 24 25  1  0  0  0  0
 24 26  1  0  0  0  0
M  END
$$$$
default_name
  -OEChem-02102213163D

 29 29  0     1  0  0  0  0  0999 V2000
   -2.9561   -3.9186    1.3887 H   0  0  0  0  0  0  0  0  0  0  0  0
   -3.1191   -2.9346    0.9517 C   0  0  0  0  0  0  0  0  0  0  0  0
   -3.7811   -2.3546    1.5917 H   0  0  0  0  0  0  0  0  0  0  0  0
   -3.5591   -3.0406   -0.0383 H   0  0  0  0  0  0  0  0  0  0  0  0
   -1.7921   -2.2226    0.8327 C   0  0  0  0  0  0  0  0  0  0  0  0
   -0.7611   -2.7766    1.1927 O   0  0  0  0  0  0  0  0  0  0  0  0
   -1.8201   -0.9926    0.3247 N   0  0  0  0  0  0  0  0  0  0  0  0
   -2.7141   -0.5816    0.0927 H   0  0  0  0  0  0  0  0  0  0  0  0
   -0.6481   -0.1156    0.2017 C   0  0  1  0  0  0  0  0  0  0  0  0
    0.1344   -0.4988    0.8596 H   0  0  0  0  0  0  0  0  0  0  0  0
   -0.1211   -0.1520   -1.2460 C   0  0  0  0  0  0  0  0  0  0  0  0
    0.1706   -1.1703   -1.5072 H   0  0  0  0  0  0  0  0  0  0  0  0
   -0.9117    0.1498   -1.9343 H   0  0  0  0  0  0  0  0  0  0  0  0
    1.0877    0.7279   -1.4525 C   0  0  0  0  0  0  0  0  0  0  0  0
    1.0991    1.9616   -2.1048 N   0  0  0  0  0  0  0  0  0  0  0  0
    2.3583    2.4143   -2.0167 C   0  0  0  0  0  0  0  0  0  0  0  0
    2.7035    3.3504   -2.4372 H   0  0  0  0  0  0  0  0  0  0  0  0
    3.1211    1.5487   -1.3281 N   0  0  0  0  0  0  0  0  0  0  0  0
    4.1003    1.6746   -1.1107 H   0  0  0  0  0  0  0  0  0  0  0  0
    2.3354    0.4793   -0.9599 C   0  0  0  0  0  0  0  0  0  0  0  0
    2.6266   -0.3854   -0.3770 H   0  0  0  0  0  0  0  0  0  0  0  0
   -0.9851    1.3114    0.6698 C   0  0  0  0  0  0  0  0  0  0  0  0
   -2.0377    1.8431    0.3168 O   0  0  0  0  0  0  0  0  0  0  0  0
   -0.1052    1.9265    1.4663 N   0  0  0  0  0  0  0  0  0  0  0  0
    0.7810    1.4586    1.6201 H   0  0  0  0  0  0  0  0  0  0  0  0
   -0.2724    3.2715    2.0119 C   0  0  0  0  0  0  0  0  0  0  0  0
   -1.3249    3.4549    2.2426 H   0  0  0  0  0  0  0  0  0  0  0  0
    0.3167    3.3776    2.9239 H   0  0  0  0  0  0  0  0  0  0  0  0
    0.0609    4.0073    1.2782 H   0  0  0  0  0  0  0  0  0  0  0  0
  5  6  2  0  0  0  0
  5  7  1  0  0  0  0
  2  3  1  0  0  0  0
  2  4  1  0  0  0  0
  2  5  1  0  0  0  0
  1  2  1  0  0  0  0
 22 23  2  0  0  0  0
 22 24  1  0  0  0  0
 20 21  1  0  0  0  0
 18 19  1  0  0  0  0
 18 20  1  0  0  0  0
 16 17  1  0  0  0  0
 16 18  1  0  0  0  0
 15 16  2  0  0  0  0
 14 15  1  0  0  0  0
 14 20  2  0  0  0  0
 11 12  1  0  0  0  0
 11 13  1  0  0  0  0
 11 14  1  0  0  0  0
  9 10  1  0  0  0  0
  9 11  1  0  0  0  0
  9 22  1  0  0  0  0
  7  8  1  0  0  0  0
  7  9  1  0  0  0  0
 26 27  1  0  0  0  0
 26 28  1  0  0  0  0
 26 29  1  0  0  0  0
 24 25  1  0  0  0  0
 24 26  1  0  0  0  0
M  END
$$$$
default_name
  -OEChem-02102213163D

 29 29  0     1  0  0  0  0  0999 V2000
   -2.9561   -3.9186    1.3887 H   0  0  0  0  0  0  0  0  0  0  0  0
   -3.1191   -2.9346    0.9517 C   0  0  0  0  0  0  0  0  0  0  0  0
   -3.7811   -2.3546    1.5917 H   0  0  0  0  0  0  0  0  0  0  0  0
   -3.5591   -3.0406   -0.0383 H   0  0  0  0  0  0  0  0  0  0  0  0
   -1.7921   -2.2226    0.8327 C   0  0  0  0  0  0  0  0  0  0  0  0
   -0.7611   -2.7766    1.1927 O   0  0  0  0  0  0  0  0  0  0  0  0
   -1.8201   -0.9926    0.3247 N   0  0  0  0  0  0  0  0  0  0  0  0
   -2.7141   -0.5816    0.0927 H   0  0  0  0  0  0  0  0  0  0  0  0
   -0.6481   -0.1156    0.2017 C   0  0  1  0  0  0  0  0  0  0  0  0
    0.1344   -0.4988    0.8596 H   0  0  0  0  0  0  0  0  0  0  0  0
   -0.1211   -0.1520   -1.2460 C   0  0  0  0  0  0  0  0  0  0  0  0
    0.1706   -1.1703   -1.5072 H   0  0  0  0  0  0  0  0  0  0  0  0
   -0.9117    0.1498   -1.9343 H   0  0  0  0  0  0  0  0  0  0  0  0
    1.0877    0.7279   -1.4525 C   0  0  0  0  0  0  0  0  0  0  0  0
    1.0663    2.0706   -1.8323 N   0  0  0  0  0  0  0  0  0  0  0  0
    2.3463    2.4700   -1.8493 C   0  0  0  0  0  0  0  0  0  0  0  0
    2.6735    3.4666   -2.1176 H   0  0  0  0  0  0  0  0  0  0  0  0
    3.1567    1.4645   -1.4787 N   0  0  0  0  0  0  0  0  0  0  0  0
    4.1624    1.5227   -1.3943 H   0  0  0  0  0  0  0  0  0  0  0  0
    2.3799    0.3571   -1.2202 C   0  0  0  0  0  0  0  0  0  0  0  0
    2.7089   -0.6163   -0.8786 H   0  0  0  0  0  0  0  0  0  0  0  0
   -0.9851    1.3114    0.6698 C   0  0  0  0  0  0  0  0  0  0  0  0
   -2.0377    1.8431    0.3168 O   0  0  0  0  0  0  0  0  0  0  0  0
   -0.1052    1.9265    1.4663 N   0  0  0  0  0  0  0  0  0  0  0  0
    0.7810    1.4586    1.6201 H   0  0  0  0  0  0  0  0  0  0  0  0
   -0.2724    3.2715    2.0119 C   0  0  0  0  0  0  0  0  0  0  0  0
   -1.3249    3.4549    2.2426 H   0  0  0  0  0  0  0  0  0  0  0  0
    0.3167    3.3776    2.9239 H   0  0  0  0  0  0  0  0  0  0  0  0
    0.0609    4.0073    1.2782 H   0  0  0  0  0  0  0  0  0  0  0  0
  5  6  2  0  0  0  0
  5  7  1  0  0  0  0
  2  3  1  0  0  0  0
  2  4  1  0  0  0  0
  2  5  1  0  0  0  0
  1  2  1  0  0  0  0
 22 23  2  0  0  0  0
 22 24  1  0  0  0  0
 20 21  1  0  0  0  0
 18 19  1  0  0  0  0
 18 20  1  0  0  0  0
 16 17  1  0  0  0  0
 16 18  1  0  0  0  0
 15 16  2  0  0  0  0
 14 15  1  0  0  0  0
 14 20  2  0  0  0  0
 11 12  1  0  0  0  0
 11 13  1  0  0  0  0
 11 14  1  0  0  0  0
  9 10  1  0  0  0  0
  9 11  1  0  0  0  0
  9 22  1  0  0  0  0
  7  8  1  0  0  0  0
  7  9  1  0  0  0  0
 26 27  1  0  0  0  0
 26 28  1  0  0  0  0
 26 29  1  0  0  0  0
 24 25  1  0  0  0  0
 24 26  1  0  0  0  0
M  END
$$$$
default_name
  -OEChem-02102213163D

 29 29  0     1  0  0  0  0  0999 V2000
   -2.9561   -3.9186    1.3887 H   0  0  0  0  0  0  0  0  0  0  0  0
   -3.1191   -2.9346    0.9517 C   0  0  0  0  0  0  0  0  0  0  0  0
   -3.7811   -2.3546    1.5917 H   0  0  0  0  0  0  0  0  0  0  0  0
   -3.5591   -3.0406   -0.0383 H   0  0  0  0  0  0  0  0  0  0  0  0
   -1.7921   -2.2226    0.8327 C   0  0  0  0  0  0  0  0  0  0  0  0
   -0.7611   -2.7766    1.1927 O   0  0  0  0  0  0  0  0  0  0  0  0
   -1.8201   -0.9926    0.3247 N   0  0  0  0  0  0  0  0  0  0  0  0
   -2.7141   -0.5816    0.0927 H   0  0  0  0  0  0  0  0  0  0  0  0
   -0.6481   -0.1156    0.2017 C   0  0  1  0  0  0  0  0  0  0  0  0
    0.1344   -0.4988    0.8596 H   0  0  0  0  0  0  0  0  0  0  0  0
   -0.1211   -0.1520   -1.2460 C   0  0  0  0  0  0  0  0  0  0  0  0
    0.1706   -1.1703   -1.5072 H   0  0  0  0  0  0  0  0  0  0  0  0
   -0.9117    0.1498   -1.9343 H   0  0  0  0  0  0  0  0  0  0  0  0
    1.0877    0.7279   -1.4525 C   0  0  0  0  0  0  0  0  0  0  0  0
    1.0796    2.1205   -1.5417 N   0  0  0  0  0  0  0  0  0  0  0  0
    2.3620    2.4896   -1.6742 C   0  0  0  0  0  0  0  0  0  0  0  0
    2.6968    3.5138   -1.7803 H   0  0  0  0  0  0  0  0  0  0  0  0
    3.1654    1.4130   -1.6471 N   0  0  0  0  0  0  0  0  0  0  0  0
    4.1742    1.4326   -1.7090 H   0  0  0  0  0  0  0  0  0  0  0  0
    2.3793    0.2914   -1.5036 C   0  0  0  0  0  0  0  0  0  0  0  0
    2.7046   -0.7382   -1.4235 H   0  0  0  0  0  0  0  0  0  0  0  0
   -0.9851    1.3114    0.6698 C   0  0  0  0  0  0  0  0  0  0  0  0
   -2.0377    1.8431    0.3168 O   0  0  0  0  0  0  0  0  0  0  0  0
   -0.1052    1.9265    1.4663 N   0  0  0  0  0  0  0  0  0  0  0  0
    0.7810    1.4586    1.6201 H   0  0  0  0  0  0  0  0  0  0  0  0
   -0.2724    3.2715    2.0119 C   0  0  0  0  0  0  0  0  0  0  0  0
   -1.3249    3.4549    2.2426 H   0  0  0  0  0  0  0  0  0  0  0  0
    0.3167    3.3776    2.9239 H   0  0  0  0  0  0  0  0  0  0  0  0
    0.0609    4.0073    1.2782 H   0  0  0  0  0  0  0  0  0  0  0  0
  5  6  2  0  0  0  0
  5  7  1  0  0  0  0
  2  3  1  0  0  0  0
  2  4  1  0  0  0  0
  2  5  1  0  0  0  0
  1  2  1  0  0  0  0
 22 23  2  0  0  0  0
 22 24  1  0  0  0  0
 20 21  1  0  0  0  0
 18 19  1  0  0  0  0
 18 20  1  0  0  0  0
 16 17  1  0  0  0  0
 16 18  1  0  0  0  0
 15 16  2  0  0  0  0
 14 15  1  0  0  0  0
 14 20  2  0  0  0  0
 11 12  1  0  0  0  0
 11 13  1  0  0  0  0
 11 14  1  0  0  0  0
  9 10  1  0  0  0  0
  9 11  1  0  0  0  0
  9 22  1  0  0  0  0
  7  8  1  0  0  0  0
  7  9  1  0  0  0  0
 26 27  1  0  0  0  0
 26 28  1  0  0  0  0
 26 29  1  0  0  0  0
 24 25  1  0  0  0  0
 24 26  1  0  0  0  0
M  END
$$$$
default_name
  -OEChem-02102213163D

 29 29  0     1  0  0  0  0  0999 V2000
   -2.9561   -3.9186    1.3887 H   0  0  0  0  0  0  0  0  0  0  0  0
   -3.1191   -2.9346    0.9517 C   0  0  0  0  0  0  0  0  0  0  0  0
   -3.7811   -2.3546    1.5917 H   0  0  0  0  0  0  0  0  0  0  0  0
   -3.5591   -3.0406   -0.0383 H   0  0  0  0  0  0  0  0  0  0  0  0
   -1.7921   -2.2226    0.8327 C   0  0  0  0  0  0  0  0  0  0  0  0
   -0.7611   -2.7766    1.1927 O   0  0  0  0  0  0  0  0  0  0  0  0
   -1.8201   -0.9926    0.3247 N   0  0  0  0  0  0  0  0  0  0  0  0
   -2.7141   -0.5816    0.0927 H   0  0  0  0  0  0  0  0  0  0  0  0
   -0.6481   -0.1156    0.2017 C   0  0  1  0  0  0  0  0  0  0  0  0
    0.1344   -0.4988    0.8596 H   0  0  0  0  0  0  0  0  0  0  0  0
   -0.1211   -0.1520   -1.2460 C   0  0  0  0  0  0  0  0  0  0  0  0
    0.1706   -1.1703   -1.5072 H   0  0  0  0  0  0  0  0  0  0  0  0
   -0.9117    0.1498   -1.9343 H   0  0  0  0  0  0  0  0  0  0  0  0
    1.0877    0.7279   -1.4525 C   0  0  0  0  0  0  0  0  0  0  0  0
    1.1380    2.1081   -1.2525 N   0  0  0  0  0  0  0  0  0  0  0  0
    2.4042    2.4717   -1.5035 C   0  0  0  0  0  0  0  0  0  0  0  0
    2.7719    3.4885   -1.4483 H   0  0  0  0  0  0  0  0  0  0  0  0
    3.1465    1.3979   -1.8217 N   0  0  0  0  0  0  0  0  0  0  0  0
    4.1349    1.4104   -2.0335 H   0  0  0  0  0  0  0  0  0  0  0  0
    2.3336    0.2868   -1.7909 C   0  0  0  0  0  0  0  0  0  0  0  0
    2.6138   -0.7429   -1.9744 H   0  0  0  0  0  0  0  0  0  0  0  0
   -0.9851    1.3114    0.6698 C   0  0  0  0  0  0  0  0  0  0  0  0
   -2.0377    1.8431    0.3168 O   0  0  0  0  0  0  0  0  0  0  0  0
   -0.1052    1.9265    1.4663 N   0  0  0  0  0  0  0  0  0  0  0  0
    0.7810    1.4586    1.6201 H   0  0  0  0  0  0  0  0  0  0  0  0
   -0.2724    3.2715    2.0119 C   0  0  0  0  0  0  0  0  0  0  0  0
   -1.3249    3.4549    2.2426 H   0  0  0  0  0  0  0  0  0  0  0  0
    0.3167    3.3776    2.9239 H   0  0  0  0  0  0  0  0  0  0  0  0
    0.0609    4.0073    1.2782 H   0  0  0  0  0  0  0  0  0  0  0  0
  5  6  2  0  0  0  0
  5  7  1  0  0  0  0
  2  3  1  0  0  0  0
  2  4  1  0  0  0  0
  2  5  1  0  0  0  0
  1  2  1  0  0  0  0
 22 23  2  0  0  0  0
 22 24  1  0  0  0  0
 20 21  1  0  0  0  0
 18 19  1  0  0  0  0
 18 20  1  0  0  0  0
 16 17  1  0  0  0  0
 16 18  1  0  0  0  0
 15 16  2  0  0  0  0
 14 15  1  0  0  0  0
 14 20  2  0  0  0  0
 11 12  1  0  0  0  0
 11 13  1  0  0  0  0
 11 14  1  0  0  0  0
  9 10  1  0  0  0  0
  9 11  1  0  0  0  0
  9 22  1  0  0  0  0
  7  8  1  0  0  0  0
  7  9  1  0  0  0  0
 26 27  1  0  0  0  0
 26 28  1  0  0  0  0
 26 29  1  0  0  0  0
 24 25  1  0  0  0  0
 24 26  1  0  0  0  0
M  END
$$$$
default_name
  -OEChem-02102213163D

 29 29  0     1  0  0  0  0  0999 V2000
   -2.9561   -3.9186    1.3887 H   0  0  0  0  0  0  0  0  0  0  0  0
   -3.1191   -2.9346    0.9517 C   0  0  0  0  0  0  0  0  0  0  0  0
   -3.7811   -2.3546    1.5917 H   0  0  0  0  0  0  0  0  0  0  0  0
   -3.5591   -3.0406   -0.0383 H   0  0  0  0  0  0  0  0  0  0  0  0
   -1.7921   -2.2226    0.8327 C   0  0  0  0  0  0  0  0  0  0  0  0
   -0.7611   -2.7766    1.1927 O   0  0  0  0  0  0  0  0  0  0  0  0
   -1.8201   -0.9926    0.3247 N   0  0  0  0  0  0  0  0  0  0  0  0
   -2.7141   -0.5816    0.0927 H   0  0  0  0  0  0  0  0  0  0  0  0
   -0.6481   -0.1156    0.2017 C   0  0  1  0  0  0  0  0  0  0  0  0
    0.1344   -0.4988    0.8596 H   0  0  0  0  0  0  0  0  0  0  0  0
   -0.1211   -0.1520   -1.2460 C   0  0  0  0  0  0  0  0  0  0  0  0
    0.1706   -1.1703   -1.5072 H   0  0  0  0  0  0  0  0  0  0  0  0
   -0.9117    0.1498   -1.9343 H   0  0  0  0  0  0  0  0  0  0  0  0
    1.0877    0.7279   -1.4525 C   0  0  0  0  0  0  0  0  0  0  0  0
    1.2377    2.0341   -0.9847 N   0  0  0  0  0  0  0  0  0  0  0  0
    2.4701    2.4175   -1.3486 C   0  0  0  0  0  0  0  0  0  0  0  0
    2.8937    3.3927   -1.1441 H   0  0  0  0  0  0  0  0  0  0  0  0
    3.1015    1.4202   -1.9906 N   0  0  0  0  0  0  0  0  0  0  0  0
    4.0472    1.4576   -2.3456 H   0  0  0  0  0  0  0  0  0  0  0  0
    2.2459    0.3434   -2.0625 C   0  0  0  0  0  0  0  0  0  0  0  0
    2.4429   -0.6300   -2.4938 H   0  0  0  0  0  0  0  0  0  0  0  0
   -0.9851    1.3114    0.6698 C   0  0  0  0  0  0  0  0  0  0  0  0
   -2.0377    1.8431    0.3168 O   0  0  0  0  0  0  0  0  0  0  0  0
   -0.1052    1.9265    1.4663 N   0  0  0  0  0  0  0  0  0  0  0  0
    0.7810    1.4586    1.6201 H   0  0  0  0  0  0  0  0  0  0  0  0
   -0.2724    3.2715    2.0119 C   0  0  0  0  0  0  0  0  0  0  0  0
   -1.3249    3.4549    2.2426 H   0  0  0  0  0  0  0  0  0  0  0  0
    0.3167    3.3776    2.9239 H   0  0  0  0  0  0  0  0  0  0  0  0
    0.0609    4.0073    1.2782 H   0  0  0  0  0  0  0  0  0  0  0  0
  5  6  2  0  0  0  0
  5  7  1  0  0  0  0
  2  3  1  0  0  0  0
  2  4  1  0  0  0  0
  2  5  1  0  0  0  0
  1  2  1  0  0  0  0
 22 23  2  0  0  0  0
 22 24  1  0  0  0  0
 20 21  1  0  0  0  0
 18 19  1  0  0  0  0
 18 20  1  0  0  0  0
 16 17  1  0  0  0  0
 16 18  1  0  0  0  0
 15 16  2  0  0  0  0
 14 15  1  0  0  0  0
 14 20  2  0  0  0  0
 11 12  1  0  0  0  0
 11 13  1  0  0  0  0
 11 14  1  0  0  0  0
  9 10  1  0  0  0  0
  9 11  1  0  0  0  0
  9 22  1  0  0  0  0
  7  8  1  0  0  0  0
  7  9  1  0  0  0  0
 26 27  1  0  0  0  0
 26 28  1  0  0  0  0
 26 29  1  0  0  0  0
 24 25  1  0  0  0  0
 24 26  1  0  0  0  0
M  END
$$$$
default_name
  -OEChem-02102213163D

 29 29  0     1  0  0  0  0  0999 V2000
   -2.9561   -3.9186    1.3887 H   0  0  0  0  0  0  0  0  0  0  0  0
   -3.1191   -2.9346    0.9517 C   0  0  0  0  0  0  0  0  0  0  0  0
   -3.7811   -2.3546    1.5917 H   0  0  0  0  0  0  0  0  0  0  0  0
   -3.5591   -3.0406   -0.0383 H   0  0  0  0  0  0  0  0  0  0  0  0
   -1.7921   -2.2226    0.8327 C   0  0  0  0  0  0  0  0  0  0  0  0
   -0.7611   -2.7766    1.1927 O   0  0  0  0  0  0  0  0  0  0  0  0
   -1.8201   -0.9926    0.3247 N   0  0  0  0  0  0  0  0  0  0  0  0
   -2.7141   -0.5816    0.0927 H   0  0  0  0  0  0  0  0  0  0  0  0
   -0.6481   -0.1156    0.2017 C   0  0  1  0  0  0  0  0  0  0  0  0
    0.1344   -0.4988    0.8596 H   0  0  0  0  0  0  0  0  0  0  0  0
   -0.1211   -0.1520   -1.2460 C   0  0  0  0  0  0  0  0  0  0  0  0
    0.1706   -1.1703   -1.5072 H   0  0  0  0  0  0  0  0  0  0  0  0
   -0.9117    0.1498   -1.9343 H   0  0  0  0  0  0  0  0  0  0  0  0
    1.0877    0.7279   -1.4525 C   0  0  0  0  0  0  0  0  0  0  0  0
    1.3717    1.9035   -0.7563 N   0  0  0  0  0  0  0  0  0  0  0  0
    2.5552    2.3307   -1.2202 C   0  0  0  0  0  0  0  0  0  0  0  0
    3.0538    3.2327   -0.8885 H   0  0  0  0  0  0  0  0  0  0  0  0
    3.0332    1.4783   -2.1424 N   0  0  0  0  0  0  0  0  0  0  0  0
    3.9171    1.5710   -2.6241 H   0  0  0  0  0  0  0  0  0  0  0  0
    2.1223    0.4576   -2.2998 C   0  0  0  0  0  0  0  0  0  0  0  0
    2.2034   -0.4072   -2.9463 H   0  0  0  0  0  0  0  0  0  0  0  0
   -0.9851    1.3114    0.6698 C   0  0  0  0  0  0  0  0  0  0  0  0
   -2.0377    1.8431    0.3168 O   0  0  0  0  0  0  0  0  0  0  0  0
   -0.1052    1.9265    1.4663 N   0  0  0  0  0  0  0  0  0  0  0  0
    0.7810    1.4586    1.6201 H   0  0  0  0  0  0  0  0  0  0  0  0
   -0.2724    3.2715    2.0119 C   0  0  0  0  0  0  0  0  0  0  0  0
   -1.3249    3.4549    2.2426 H   0  0  0  0  0  0  0  0  0  0  0  0
    0.3167    3.3776    2.9239 H   0  0  0  0  0  0  0  0  0  0  0  0
    0.0609    4.0073    1.2782 H   0  0  0  0  0  0  0  0  0  0  0  0
  5  6  2  0  0  0  0
  5  7  1  0  0  0  0
  2  3  1  0  0  0  0
  2  4  1  0  0  0  0
  2  5  1  0  0  0  0
  1  2  1  0  0  0  0
 22 23  2  0  0  0  0
 22 24  1  0  0  0  0
 20 21  1  0  0  0  0
 18 19  1  0  0  0  0
 18 20  1  0  0  0  0
 16 17  1  0  0  0  0
 16 18  1  0  0  0  0
 15 16  2  0  0  0  0
 14 15  1  0  0  0  0
 14 20  2  0  0  0  0
 11 12  1  0  0  0  0
 11 13  1  0  0  0  0
 11 14  1  0  0  0  0
  9 10  1  0  0  0  0
  9 11  1  0  0  0  0
  9 22  1  0  0  0  0
  7  8  1  0  0  0  0
  7  9  1  0  0  0  0
 26 27  1  0  0  0  0
 26 28  1  0  0  0  0
 26 29  1  0  0  0  0
 24 25  1  0  0  0  0
 24 26  1  0  0  0  0
M  END
$$$$
default_name
  -OEChem-02102213163D

 29 29  0     1  0  0  0  0  0999 V2000
   -2.9561   -3.9186    1.3887 H   0  0  0  0  0  0  0  0  0  0  0  0
   -3.1191   -2.9346    0.9517 C   0  0  0  0  0  0  0  0  0  0  0  0
   -3.7811   -2.3546    1.5917 H   0  0  0  0  0  0  0  0  0  0  0  0
   -3.5591   -3.0406   -0.0383 H   0  0  0  0  0  0  0  0  0  0  0  0
   -1.7921   -2.2226    0.8327 C   0  0  0  0  0  0  0  0  0  0  0  0
   -0.7611   -2.7766    1.1927 O   0  0  0  0  0  0  0  0  0  0  0  0
   -1.8201   -0.9926    0.3247 N   0  0  0  0  0  0  0  0  0  0  0  0
   -2.7141   -0.5816    0.0927 H   0  0  0  0  0  0  0  0  0  0  0  0
   -0.6481   -0.1156    0.2017 C   0  0  1  0  0  0  0  0  0  0  0  0
    0.1344   -0.4988    0.8596 H   0  0  0  0  0  0  0  0  0  0  0  0
   -0.1211   -0.1520   -1.2460 C   0  0  0  0  0  0  0  0  0  0  0  0
    0.1706   -1.1703   -1.5072 H   0  0  0  0  0  0  0  0  0  0  0  0
   -0.9117    0.1498   -1.9343 H   0  0  0  0  0  0  0  0  0  0  0  0
    1.0877    0.7279   -1.4525 C   0  0  0  0  0  0  0  0  0  0  0  0
    1.5311    1.7253   -0.5830 N   0  0  0  0  0  0  0  0  0  0  0  0
    2.6538    2.2172   -1.1270 C   0  0  0  0  0  0  0  0  0  0  0  0
    3.2413    3.0196   -0.6990 H   0  0  0  0  0  0  0  0  0  0  0  0
    2.9465    1.5684   -2.2666 N   0  0  0  0  0  0  0  0  0  0  0  0
    3.7534    1.7429   -2.8499 H   0  0  0  0  0  0  0  0  0  0  0  0
    1.9711    0.6214   -2.4867 C   0  0  0  0  0  0  0  0  0  0  0  0
    1.9118   -0.0898   -3.3010 H   0  0  0  0  0  0  0  0  0  0  0  0
   -0.9851    1.3114    0.6698 C   0  0  0  0  0  0  0  0  0  0  0  0
   -2.0377    1.8431    0.3168 O   0  0  0  0  0  0  0  0  0  0  0  0
   -0.1052    1.9265    1.4663 N   0  0  0  0  0  0  0  0  0  0  0  0
    0.7810    1.4586    1.6201 H   0  0  0  0  0  0  0  0  0  0  0  0
   -0.2724    3.2715    2.0119 C   0  0  0  0  0  0  0  0  0  0  0  0
   -1.3249    3.4549    2.2426 H   0  0  0  0  0  0  0  0  0  0  0  0
    0.3167    3.3776    2.9239 H   0  0  0  0  0  0  0  0  0  0  0  0
    0.0609    4.0073    1.2782 H   0  0  0  0  0  0  0  0  0  0  0  0
  5  6  2  0  0  0  0
  5  7  1  0  0  0  0
  2  3  1  0  0  0  0
  2  4  1  0  0  0  0
  2  5  1  0  0  0  0
  1  2  1  0  0  0  0
 22 23  2  0  0  0  0
 22 24  1  0  0  0  0
 20 21  1  0  0  0  0
 18 19  1  0  0  0  0
 18 20  1  0  0  0  0
 16 17  1  0  0  0  0
 16 18  1  0  0  0  0
 15 16  2  0  0  0  0
 14 15  1  0  0  0  0
 14 20  2  0  0  0  0
 11 12  1  0  0  0  0
 11 13  1  0  0  0  0
 11 14  1  0  0  0  0
  9 10  1  0  0  0  0
  9 11  1  0  0  0  0
  9 22  1  0  0  0  0
  7  8  1  0  0  0  0
  7  9  1  0  0  0  0
 26 27  1  0  0  0  0
 26 28  1  0  0  0  0
 26 29  1  0  0  0  0
 24 25  1  0  0  0  0
 24 26  1  0  0  0  0
M  END
$$$$
default_name
  -OEChem-02102213163D

 29 29  0     1  0  0  0  0  0999 V2000
   -2.9561   -3.9186    1.3887 H   0  0  0  0  0  0  0  0  0  0  0  0
   -3.1191   -2.9346    0.9517 C   0  0  0  0  0  0  0  0  0  0  0  0
   -3.7811   -2.3546    1.5917 H   0  0  0  0  0  0  0  0  0  0  0  0
   -3.5591   -3.0406   -0.0383 H   0  0  0  0  0  0  0  0  0  0  0  0
   -1.7921   -2.2226    0.8327 C   0  0  0  0  0  0  0  0  0  0  0  0
   -0.7611   -2.7766    1.1927 O   0  0  0  0  0  0  0  0  0  0  0  0
   -1.8201   -0.9926    0.3247 N   0  0  0  0  0  0  0  0  0  0  0  0
   -2.7141   -0.5816    0.0927 H   0  0  0  0  0  0  0  0  0  0  0  0
   -0.6481   -0.1156    0.2017 C   0  0  1  0  0  0  0  0  0  0  0  0
    0.1344   -0.4988    0.8596 H   0  0  0  0  0  0  0  0  0  0  0  0
   -0.1211   -0.1520   -1.2460 C   0  0  0  0  0  0  0  0  0  0  0  0
    0.1706   -1.1703   -1.5072 H   0  0  0  0  0  0  0  0  0  0  0  0
   -0.9117    0.1498   -1.9343 H   0  0  0  0  0  0  0  0  0  0  0  0
    1.0877    0.7279   -1.4525 C   0  0  0  0  0  0  0  0  0  0  0  0
    1.7048    1.5116   -0.4766 N   0  0  0  0  0  0  0  0  0  0  0  0
    2.7590    2.0848   -1.0754 C   0  0  0  0  0  0  0  0  0  0  0  0
    3.4435    2.7678   -0.5883 H   0  0  0  0  0  0  0  0  0  0  0  0
    2.8471    1.6841   -2.3548 N   0  0  0  0  0  0  0  0  0  0  0  0
    3.5673    1.9615   -3.0077 H   0  0  0  0  0  0  0  0  0  0  0  0
    1.8026    0.8238   -2.6105 C   0  0  0  0  0  0  0  0  0  0  0  0
    1.5877    0.3008   -3.5339 H   0  0  0  0  0  0  0  0  0  0  0  0
   -0.9851    1.3114    0.6698 C   0  0  0  0  0  0  0  0  0  0  0  0
   -2.0377    1.8431    0.3168 O   0  0  0  0  0  0  0  0  0  0  0  0
   -0.1052    1.9265    1.4663 N   0  0  0  0  0  0  0  0  0  0  0  0
    0.7810    1.4586    1.6201 H   0  0  0  0  0  0  0  0  0  0  0  0
   -0.2724    3.2715    2.0119 C   0  0  0  0  0  0  0  0  0  0  0  0
   -1.3249    3.4549    2.2426 H   0  0  0  0  0  0  0  0  0  0  0  0
    0.3167    3.3776    2.9239 H   0  0  0  0  0  0  0  0  0  0  0  0
    0.0609    4.0073    1.2782 H   0  0  0  0  0  0  0  0  0  0  0  0
  5  6  2  0  0  0  0
  5  7  1  0  0  0  0
  2  3  1  0  0  0  0
  2  4  1  0  0  0  0
  2  5  1  0  0  0  0
  1  2  1  0  0  0  0
 22 23  2  0  0  0  0
 22 24  1  0  0  0  0
 20 21  1  0  0  0  0
 18 19  1  0  0  0  0
 18 20  1  0  0  0  0
 16 17  1  0  0  0  0
 16 18  1  0  0  0  0
 15 16  2  0  0  0  0
 14 15  1  0  0  0  0
 14 20  2  0  0  0  0
 11 12  1  0  0  0  0
 11 13  1  0  0  0  0
 11 14  1  0  0  0  0
  9 10  1  0  0  0  0
  9 11  1  0  0  0  0
  9 22  1  0  0  0  0
  7  8  1  0  0  0  0
  7  9  1  0  0  0  0
 26 27  1  0  0  0  0
 26 28  1  0  0  0  0
 26 29  1  0  0  0  0
 24 25  1  0  0  0  0
 24 26  1  0  0  0  0
M  END
$$$$
default_name
  -OEChem-02102213163D

 29 29  0     1  0  0  0  0  0999 V2000
   -2.9561   -3.9186    1.3887 H   0  0  0  0  0  0  0  0  0  0  0  0
   -3.1191   -2.9346    0.9517 C   0  0  0  0  0  0  0  0  0  0  0  0
   -3.7811   -2.3546    1.5917 H   0  0  0  0  0  0  0  0  0  0  0  0
   -3.5591   -3.0406   -0.0383 H   0  0  0  0  0  0  0  0  0  0  0  0
   -1.7921   -2.2226    0.8327 C   0  0  0  0  0  0  0  0  0  0  0  0
   -0.7611   -2.7766    1.1927 O   0  0  0  0  0  0  0  0  0  0  0  0
   -1.8201   -0.9926    0.3247 N   0  0  0  0  0  0  0  0  0  0  0  0
   -2.7141   -0.5816    0.0927 H   0  0  0  0  0  0  0  0  0  0  0  0
   -0.6481   -0.1156    0.2017 C   0  0  1  0  0  0  0  0  0  0  0  0
    0.1344   -0.4988    0.8596 H   0  0  0  0  0  0  0  0  0  0  0  0
   -0.1211   -0.1520   -1.2460 C   0  0  0  0  0  0  0  0  0  0  0  0
    0.1706   -1.1703   -1.5072 H   0  0  0  0  0  0  0  0  0  0  0  0
   -0.9117    0.1498   -1.9343 H   0  0  0  0  0  0  0  0  0  0  0  0
    1.0877    0.7279   -1.4525 C   0  0  0  0  0  0  0  0  0  0  0  0
    1.8811    1.2770   -0.4443 N   0  0  0  0  0  0  0  0  0  0  0  0
    2.8637    1.9424   -1.0688 C   0  0  0  0  0  0  0  0  0  0  0  0
    3.6466    2.4944   -0.5642 H   0  0  0  0  0  0  0  0  0  0  0  0
    2.7419    1.8178   -2.4011 N   0  0  0  0  0  0  0  0  0  0  0  0
    3.3715    2.2120   -3.0868 H   0  0  0  0  0  0  0  0  0  0  0  0
    1.6284    1.0508   -2.6627 C   0  0  0  0  0  0  0  0  0  0  0  0
    1.2534    0.7377   -3.6290 H   0  0  0  0  0  0  0  0  0  0  0  0
   -0.9851    1.3114    0.6698 C   0  0  0  0  0  0  0  0  0  0  0  0
   -2.0377    1.8431    0.3168 O   0  0  0  0  0  0  0  0  0  0  0  0
   -0.1052    1.9265    1.4663 N   0  0  0  0  0  0  0  0  0  0  0  0
    0.7810    1.4586    1.6201 H   0  0  0  0  0  0  0  0  0  0  0  0
   -0.2724    3.2715    2.0119 C   0  0  0  0  0  0  0  0  0  0  0  0
   -1.3249    3.4549    2.2426 H   0  0  0  0  0  0  0  0  0  0  0  0
    0.3167    3.3776    2.9239 H   0  0  0  0  0  0  0  0  0  0  0  0
    0.0609    4.0073    1.2782 H   0  0  0  0  0  0  0  0  0  0  0  0
  5  6  2  0  0  0  0
  5  7  1  0  0  0  0
  2  3  1  0  0  0  0
  2  4  1  0  0  0  0
  2  5  1  0  0  0  0
  1  2  1  0  0  0  0
 22 23  2  0  0  0  0
 22 24  1  0  0  0  0
 20 21  1  0  0  0  0
 18 19  1  0  0  0  0
 18 20  1  0  0  0  0
 16 17  1  0  0  0  0
 16 18  1  0  0  0  0
 15 16  2  0  0  0  0
 14 15  1  0  0  0  0
 14 20  2  0  0  0  0
 11 12  1  0  0  0  0
 11 13  1  0  0  0  0
 11 14  1  0  0  0  0
  9 10  1  0  0  0  0
  9 11  1  0  0  0  0
  9 22  1  0  0  0  0
  7  8  1  0  0  0  0
  7  9  1  0  0  0  0
 26 27  1  0  0  0  0
 26 28  1  0  0  0  0
 26 29  1  0  0  0  0
 24 25  1  0  0  0  0
 24 26  1  0  0  0  0
M  END
$$$$
default_name
  -OEChem-02102213163D

 29 29  0     1  0  0  0  0  0999 V2000
   -2.9561   -3.9186    1.3887 H   0  0  0  0  0  0  0  0  0  0  0  0
   -3.1191   -2.9346    0.9517 C   0  0  0  0  0  0  0  0  0  0  0  0
   -3.7811   -2.3546    1.5917 H   0  0  0  0  0  0  0  0  0  0  0  0
   -3.5591   -3.0406   -0.0383 H   0  0  0  0  0  0  0  0  0  0  0  0
   -1.7921   -2.2226    0.8327 C   0  0  0  0  0  0  0  0  0  0  0  0
   -0.7611   -2.7766    1.1927 O   0  0  0  0  0  0  0  0  0  0  0  0
   -1.8201   -0.9926    0.3247 N   0  0  0  0  0  0  0  0  0  0  0  0
   -2.7141   -0.5816    0.0927 H   0  0  0  0  0  0  0  0  0  0  0  0
   -0.6481   -0.1156    0.2017 C   0  0  1  0  0  0  0  0  0  0  0  0
    0.1344   -0.4988    0.8596 H   0  0  0  0  0  0  0  0  0  0  0  0
   -0.1211   -0.1520   -1.2460 C   0  0  0  0  0  0  0  0  0  0  0  0
    0.1706   -1.1703   -1.5072 H   0  0  0  0  0  0  0  0  0  0  0  0
   -0.9117    0.1498   -1.9343 H   0  0  0  0  0  0  0  0  0  0  0  0
    1.0877    0.7279   -1.4525 C   0  0  0  0  0  0  0  0  0  0  0  0
    2.0479    1.0375   -0.4884 N   0  0  0  0  0  0  0  0  0  0  0  0
    2.9608    1.7999   -1.1078 C   0  0  0  0  0  0  0  0  0  0  0  0
    3.8367    2.2182   -0.6282 H   0  0  0  0  0  0  0  0  0  0  0  0
    2.6381    1.9602   -2.4022 N   0  0  0  0  0  0  0  0  0  0  0  0
    3.1793    2.4772   -3.0816 H   0  0  0  0  0  0  0  0  0  0  0  0
    1.4603    1.2872   -2.6398 C   0  0  0  0  0  0  0  0  0  0  0  0
    0.9316    1.1913   -3.5799 H   0  0  0  0  0  0  0  0  0  0  0  0
   -0.9851    1.3114    0.6698 C   0  0  0  0  0  0  0  0  0  0  0  0
   -2.0377    1.8431    0.3168 O   0  0  0  0  0  0  0  0  0  0  0  0
   -0.1052    1.9265    1.4663 N   0  0  0  0  0  0  0  0  0  0  0  0
    0.7810    1.4586    1.6201 H   0  0  0  0  0  0  0  0  0  0  0  0
   -0.2724    3.2715    2.0119 C   0  0  0  0  0  0  0  0  0  0  0  0
   -1.3249    3.4549    2.2426 H   0  0  0  0  0  0  0  0  0  0  0  0
    0.3167    3.3776    2.9239 H   0  0  0  0  0  0  0  0  0  0  0  0
    0.0609    4.0073    1.2782 H   0  0  0  0  0  0  0  0  0  0  0  0
  5  6  2  0  0  0  0
  5  7  1  0  0  0  0
  2  3  1  0  0  0  0
  2  4  1  0  0  0  0
  2  5  1  0  0  0  0
  1  2  1  0  0  0  0
 22 23  2  0  0  0  0
 22 24  1  0  0  0  0
 20 21  1  0  0  0  0
 18 19  1  0  0  0  0
 18 20  1  0  0  0  0
 16 17  1  0  0  0  0
 16 18  1  0  0  0  0
 15 16  2  0  0  0  0
 14 15  1  0  0  0  0
 14 20  2  0  0  0  0
 11 12  1  0  0  0  0
 11 13  1  0  0  0  0
 11 14  1  0  0  0  0
  9 10  1  0  0  0  0
  9 11  1  0  0  0  0
  9 22  1  0  0  0  0
  7  8  1  0  0  0  0
  7  9  1  0  0  0  0
 26 27  1  0  0  0  0
 26 28  1  0  0  0  0
 26 29  1  0  0  0  0
 24 25  1  0  0  0  0
 24 26  1  0  0  0  0
M  END
$$$$
default_name
  -OEChem-02102213163D

 29 29  0     1  0  0  0  0  0999 V2000
   -2.9561   -3.9186    1.3887 H   0  0  0  0  0  0  0  0  0  0  0  0
   -3.1191   -2.9346    0.9517 C   0  0  0  0  0  0  0  0  0  0  0  0
   -3.7811   -2.3546    1.5917 H   0  0  0  0  0  0  0  0  0  0  0  0
   -3.5591   -3.0406   -0.0383 H   0  0  0  0  0  0  0  0  0  0  0  0
   -1.7921   -2.2226    0.8327 C   0  0  0  0  0  0  0  0  0  0  0  0
   -0.7611   -2.7766    1.1927 O   0  0  0  0  0  0  0  0  0  0  0  0
   -1.8201   -0.9926    0.3247 N   0  0  0  0  0  0  0  0  0  0  0  0
   -2.7141   -0.5816    0.0927 H   0  0  0  0  0  0  0  0  0  0  0  0
   -0.6481   -0.1156    0.2017 C   0  0  1  0  0  0  0  0  0  0  0  0
    0.1344   -0.4988    0.8596 H   0  0  0  0  0  0  0  0  0  0  0  0
   -0.1211   -0.1520   -1.2460 C   0  0  0  0  0  0  0  0  0  0  0  0
    0.1706   -1.1703   -1.5072 H   0  0  0  0  0  0  0  0  0  0  0  0
   -0.9117    0.1498   -1.9343 H   0  0  0  0  0  0  0  0  0  0  0  0
    1.0877    0.7279   -1.4525 C   0  0  0  0  0  0  0  0  0  0  0  0
    2.1939    0.8093   -0.6058 N   0  0  0  0  0  0  0  0  0  0  0  0
    3.0437    1.6668   -1.1896 C   0  0  0  0  0  0  0  0  0  0  0  0
    4.0009    1.9580   -0.7759 H   0  0  0  0  0  0  0  0  0  0  0  0
    2.5426    2.1017   -2.3581 N   0  0  0  0  0  0  0  0  0  0  0  0
    3.0038    2.7392   -2.9927 H   0  0  0  0  0  0  0  0  0  0  0  0
    1.3098    1.5167   -2.5433 C   0  0  0  0  0  0  0  0  0  0  0  0
    0.6443    1.6307   -3.3898 H   0  0  0  0  0  0  0  0  0  0  0  0
   -0.9851    1.3114    0.6698 C   0  0  0  0  0  0  0  0  0  0  0  0
   -2.0377    1.8431    0.3168 O   0  0  0  0  0  0  0  0  0  0  0  0
   -0.1052    1.9265    1.4663 N   0  0  0  0  0  0  0  0  0  0  0  0
    0.7810    1.4586    1.6201 H   0  0  0  0  0  0  0  0  0  0  0  0
   -0.2724    3.2715    2.0119 C   0  0  0  0  0  0  0  0  0  0  0  0
   -1.3249    3.4549    2.2426 H   0  0  0  0  0  0  0  0  0  0  0  0
    0.3167    3.3776    2.9239 H   0  0  0  0  0  0  0  0  0  0  0  0
    0.0609    4.0073    1.2782 H   0  0  0  0  0  0  0  0  0  0  0  0
  5  6  2  0  0  0  0
  5  7  1  0  0  0  0
  2  3  1  0  0  0  0
  2  4  1  0  0  0  0
  2  5  1  0  0  0  0
  1  2  1  0  0  0  0
 22 23  2  0  0  0  0
 22 24  1  0  0  0  0
 20 21  1  0  0  0  0
 18 19  1  0  0  0  0
 18 20  1  0  0  0  0
 16 17  1  0  0  0  0
 16 18  1  0  0  0  0
 15 16  2  0  0  0  0
 14 15  1  0  0  0  0
 14 20  2  0  0  0  0
 11 12  1  0  0  0  0
 11 13  1  0  0  0  0
 11 14  1  0  0  0  0
  9 10  1  0  0  0  0
  9 11  1  0  0  0  0
  9 22  1  0  0  0  0
  7  8  1  0  0  0  0
  7  9  1  0  0  0  0
 26 27  1  0  0  0  0
 26 28  1  0  0  0  0
 26 29  1  0  0  0  0
 24 25  1  0  0  0  0
 24 26  1  0  0  0  0
M  END
$$$$
default_name
  -OEChem-02102213163D

 29 29  0     1  0  0  0  0  0999 V2000
   -2.9561   -3.9186    1.3887 H   0  0  0  0  0  0  0  0  0  0  0  0
   -3.1191   -2.9346    0.9517 C   0  0  0  0  0  0  0  0  0  0  0  0
   -3.7811   -2.3546    1.5917 H   0  0  0  0  0  0  0  0  0  0  0  0
   -3.5591   -3.0406   -0.0383 H   0  0  0  0  0  0  0  0  0  0  0  0
   -1.7921   -2.2226    0.8327 C   0  0  0  0  0  0  0  0  0  0  0  0
   -0.7611   -2.7766    1.1927 O   0  0  0  0  0  0  0  0  0  0  0  0
   -1.8201   -0.9926    0.3247 N   0  0  0  0  0  0  0  0  0  0  0  0
   -2.7141   -0.5816    0.0927 H   0  0  0  0  0  0  0  0  0  0  0  0
   -0.6481   -0.1156    0.2017 C   0  0  1  0  0  0  0  0  0  0  0  0
    0.1344   -0.4988    0.8596 H   0  0  0  0  0  0  0  0  0  0  0  0
   -0.1211   -0.1520   -1.2460 C   0  0  0  0  0  0  0  0  0  0  0  0
    0.1706   -1.1703   -1.5072 H   0  0  0  0  0  0  0  0  0  0  0  0
   -0.9117    0.1498   -1.9343 H   0  0  0  0  0  0  0  0  0  0  0  0
    1.0877    0.7279   -1.4525 C   0  0  0  0  0  0  0  0  0  0  0  0
    2.3092    0.6081   -0.7885 N   0  0  0  0  0  0  0  0  0  0  0  0
    3.1066    1.5523   -1.3088 C   0  0  0  0  0  0  0  0  0  0  0  0
    4.1280    1.7314   -0.9973 H   0  0  0  0  0  0  0  0  0  0  0  0
    2.4621    2.2325   -2.2717 N   0  0  0  0  0  0  0  0  0  0  0  0
    2.8570    2.9800   -2.8260 H   0  0  0  0  0  0  0  0  0  0  0  0
    1.1870    1.7237   -2.3798 C   0  0  0  0  0  0  0  0  0  0  0  0
    0.4110    2.0259   -3.0718 H   0  0  0  0  0  0  0  0  0  0  0  0
   -0.9851    1.3114    0.6698 C   0  0  0  0  0  0  0  0  0  0  0  0
   -2.0377    1.8431    0.3168 O   0  0  0  0  0  0  0  0  0  0  0  0
   -0.1052    1.9265    1.4663 N   0  0  0  0  0  0  0  0  0  0  0  0
    0.7810    1.4586    1.6201 H   0  0  0  0  0  0  0  0  0  0  0  0
   -0.2724    3.2715    2.0119 C   0  0  0  0  0  0  0  0  0  0  0  0
   -1.3249    3.4549    2.2426 H   0  0  0  0  0  0  0  0  0  0  0  0
    0.3167    3.3776    2.9239 H   0  0  0  0  0  0  0  0  0  0  0  0
    0.0609    4.0073    1.2782 H   0  0  0  0  0  0  0  0  0  0  0  0
  5  6  2  0  0  0  0
  5  7  1  0  0  0  0
  2  3  1  0  0  0  0
  2  4  1  0  0  0  0
  2  5  1  0  0  0  0
  1  2  1  0  0  0  0
 22 23  2  0  0  0  0
 22 24  1  0  0  0  0
 20 21  1  0  0  0  0
 18 19  1  0  0  0  0
 18 20  1  0  0  0  0
 16 17  1  0  0  0  0
 16 18  1  0  0  0  0
 15 16  2  0  0  0  0
 14 15  1  0  0  0  0
 14 20  2  0  0  0  0
 11 12  1  0  0  0  0
 11 13  1  0  0  0  0
 11 14  1  0  0  0  0
  9 10  1  0  0  0  0
  9 11  1  0  0  0  0
  9 22  1  0  0  0  0
  7  8  1  0  0  0  0
  7  9  1  0  0  0  0
 26 27  1  0  0  0  0
 26 28  1  0  0  0  0
 26 29  1  0  0  0  0
 24 25  1  0  0  0  0
 24 26  1  0  0  0  0
M  END
$$$$
default_name
  -OEChem-02102213163D

 29 29  0     1  0  0  0  0  0999 V2000
   -2.9561   -3.9186    1.3887 H   0  0  0  0  0  0  0  0  0  0  0  0
   -3.1191   -2.9346    0.9517 C   0  0  0  0  0  0  0  0  0  0  0  0
   -3.7811   -2.3546    1.5917 H   0  0  0  0  0  0  0  0  0  0  0  0
   -3.5591   -3.0406   -0.0383 H   0  0  0  0  0  0  0  0  0  0  0  0
   -1.7921   -2.2226    0.8327 C   0  0  0  0  0  0  0  0  0  0  0  0
   -0.7611   -2.7766    1.1927 O   0  0  0  0  0  0  0  0  0  0  0  0
   -1.8201   -0.9926    0.3247 N   0  0  0  0  0  0  0  0  0  0  0  0
   -2.7141   -0.5816    0.0927 H   0  0  0  0  0  0  0  0  0  0  0  0
   -0.6481   -0.1156    0.2017 C   0  0  1  0  0  0  0  0  0  0  0  0
    0.1344   -0.4988    0.8596 H   0  0  0  0  0  0  0  0  0  0  0  0
   -0.1211   -0.1520   -1.2460 C   0  0  0  0  0  0  0  0  0  0  0  0
    0.1706   -1.1703   -1.5072 H   0  0  0  0  0  0  0  0  0  0  0  0
   -0.9117    0.1498   -1.9343 H   0  0  0  0  0  0  0  0  0  0  0  0
    1.0877    0.7279   -1.4525 C   0  0  0  0  0  0  0  0  0  0  0  0
    2.3858    0.4475   -1.0241 N   0  0  0  0  0  0  0  0  0  0  0  0
    3.1454    1.4642   -1.4571 C   0  0  0  0  0  0  0  0  0  0  0  0
    4.2094    1.5539   -1.2774 H   0  0  0  0  0  0  0  0  0  0  0  0
    2.4020    2.3439   -2.1490 N   0  0  0  0  0  0  0  0  0  0  0  0
    2.7488    3.1832   -2.5930 H   0  0  0  0  0  0  0  0  0  0  0  0
    1.1005    1.8941   -2.1605 C   0  0  0  0  0  0  0  0  0  0  0  0
    0.2476    2.3499   -2.6475 H   0  0  0  0  0  0  0  0  0  0  0  0
   -0.9851    1.3114    0.6698 C   0  0  0  0  0  0  0  0  0  0  0  0
   -2.0377    1.8431    0.3168 O   0  0  0  0  0  0  0  0  0  0  0  0
   -0.1052    1.9265    1.4663 N   0  0  0  0  0  0  0  0  0  0  0  0
    0.7810    1.4586    1.6201 H   0  0  0  0  0  0  0  0  0  0  0  0
   -0.2724    3.2715    2.0119 C   0  0  0  0  0  0  0  0  0  0  0  0
   -1.3249    3.4549    2.2426 H   0  0  0  0  0  0  0  0  0  0  0  0
    0.3167    3.3776    2.9239 H   0  0  0  0  0  0  0  0  0  0  0  0
    0.0609    4.0073    1.2782 H   0  0  0  0  0  0  0  0  0  0  0  0
  5  6  2  0  0  0  0
  5  7  1  0  0  0  0
  2  3  1  0  0  0  0
  2  4  1  0  0  0  0
  2  5  1  0  0  0  0
  1  2  1  0  0  0  0
 22 23  2  0  0  0  0
 22 24  1  0  0  0  0
 20 21  1  0  0  0  0
 18 19  1  0  0  0  0
 18 20  1  0  0  0  0
 16 17  1  0  0  0  0
 16 18  1  0  0  0  0
 15 16  2  0  0  0  0
 14 15  1  0  0  0  0
 14 20  2  0  0  0  0
 11 12  1  0  0  0  0
 11 13  1  0  0  0  0
 11 14  1  0  0  0  0
  9 10  1  0  0  0  0
  9 11  1  0  0  0  0
  9 22  1  0  0  0  0
  7  8  1  0  0  0  0
  7  9  1  0  0  0  0
 26 27  1  0  0  0  0
 26 28  1  0  0  0  0
 26 29  1  0  0  0  0
 24 25  1  0  0  0  0
 24 26  1  0  0  0  0
M  END
$$$$
default_name
  -OEChem-02102213163D

 29 29  0     1  0  0  0  0  0999 V2000
   -2.9561   -3.9186    1.3887 H   0  0  0  0  0  0  0  0  0  0  0  0
   -3.1191   -2.9346    0.9517 C   0  0  0  0  0  0  0  0  0  0  0  0
   -3.7811   -2.3546    1.5917 H   0  0  0  0  0  0  0  0  0  0  0  0
   -3.5591   -3.0406   -0.0383 H   0  0  0  0  0  0  0  0  0  0  0  0
   -1.7921   -2.2226    0.8327 C   0  0  0  0  0  0  0  0  0  0  0  0
   -0.7611   -2.7766    1.1927 O   0  0  0  0  0  0  0  0  0  0  0  0
   -1.8201   -0.9926    0.3247 N   0  0  0  0  0  0  0  0  0  0  0  0
   -2.7141   -0.5816    0.0927 H   0  0  0  0  0  0  0  0  0  0  0  0
   -0.6481   -0.1156    0.2017 C   0  0  1  0  0  0  0  0  0  0  0  0
    0.1344   -0.4988    0.8596 H   0  0  0  0  0  0  0  0  0  0  0  0
   -0.1211   -0.1520   -1.2460 C   0  0  0  0  0  0  0  0  0  0  0  0
    0.1706   -1.1703   -1.5072 H   0  0  0  0  0  0  0  0  0  0  0  0
   -0.9117    0.1498   -1.9343 H   0  0  0  0  0  0  0  0  0  0  0  0
    1.0877    0.7279   -1.4525 C   0  0  0  0  0  0  0  0  0  0  0  0
    2.4186    0.3385   -1.2965 N   0  0  0  0  0  0  0  0  0  0  0  0
    3.1574    1.4085   -1.6245 C   0  0  0  0  0  0  0  0  0  0  0  0
    4.2394    1.4376   -1.5969 H   0  0  0  0  0  0  0  0  0  0  0  0
    2.3664    2.4282   -1.9984 N   0  0  0  0  0  0  0  0  0  0  0  0
    2.6868    3.3351   -2.3094 H   0  0  0  0  0  0  0  0  0  0  0  0
    1.0560    2.0163   -1.9002 C   0  0  0  0  0  0  0  0  0  0  0  0
    0.1653    2.5808   -2.1458 H   0  0  0  0  0  0  0  0  0  0  0  0
   -0.9851    1.3114    0.6698 C   0  0  0  0  0  0  0  0  0  0  0  0
   -2.0377    1.8431    0.3168 O   0  0  0  0  0  0  0  0  0  0  0  0
   -0.1052    1.9265    1.4663 N   0  0  0  0  0  0  0  0  0  0  0  0
    0.7810    1.4586    1.6201 H   0  0  0  0  0  0  0  0  0  0  0  0
   -0.2724    3.2715    2.0119 C   0  0  0  0  0  0  0  0  0  0  0  0
   -1.3249    3.4549    2.2426 H   0  0  0  0  0  0  0  0  0  0  0  0
    0.3167    3.3776    2.9239 H   0  0  0  0  0  0  0  0  0  0  0  0
    0.0609    4.0073    1.2782 H   0  0  0  0  0  0  0  0  0  0  0  0
  5  6  2  0  0  0  0
  5  7  1  0  0  0  0
  2  3  1  0  0  0  0
  2  4  1  0  0  0  0
  2  5  1  0  0  0  0
  1  2  1  0  0  0  0
 22 23  2  0  0  0  0
 22 24  1  0  0  0  0
 20 21  1  0  0  0  0
 18 19  1  0  0  0  0
 18 20  1  0  0  0  0
 16 17  1  0  0  0  0
 16 18  1  0  0  0  0
 15 16  2  0  0  0  0
 14 15  1  0  0  0  0
 14 20  2  0  0  0  0
 11 12  1  0  0  0  0
 11 13  1  0  0  0  0
 11 14  1  0  0  0  0
  9 10  1  0  0  0  0
  9 11  1  0  0  0  0
  9 22  1  0  0  0  0
  7  8  1  0  0  0  0
  7  9  1  0  0  0  0
 26 27  1  0  0  0  0
 26 28  1  0  0  0  0
 26 29  1  0  0  0  0
 24 25  1  0  0  0  0
 24 26  1  0  0  0  0
M  END
$$$$
default_name
  -OEChem-02102213163D

 29 29  0     1  0  0  0  0  0999 V2000
   -2.9561   -3.9186    1.3887 H   0  0  0  0  0  0  0  0  0  0  0  0
   -3.1191   -2.9346    0.9517 C   0  0  0  0  0  0  0  0  0  0  0  0
   -3.7811   -2.3546    1.5917 H   0  0  0  0  0  0  0  0  0  0  0  0
   -3.5591   -3.0406   -0.0383 H   0  0  0  0  0  0  0  0  0  0  0  0
   -1.7921   -2.2226    0.8327 C   0  0  0  0  0  0  0  0  0  0  0  0
   -0.7611   -2.7766    1.1927 O   0  0  0  0  0  0  0  0  0  0  0  0
   -1.8201   -0.9926    0.3247 N   0  0  0  0  0  0  0  0  0  0  0  0
   -2.7141   -0.5816    0.0927 H   0  0  0  0  0  0  0  0  0  0  0  0
   -0.6481   -0.1156    0.2017 C   0  0  1  0  0  0  0  0  0  0  0  0
    0.1344   -0.4988    0.8596 H   0  0  0  0  0  0  0  0  0  0  0  0
   -0.1211   -0.1520   -1.2460 C   0  0  0  0  0  0  0  0  0  0  0  0
    0.1706   -1.1703   -1.5072 H   0  0  0  0  0  0  0  0  0  0  0  0
   -0.9117    0.1498   -1.9343 H   0  0  0  0  0  0  0  0  0  0  0  0
    1.0877    0.7279   -1.4525 C   0  0  0  0  0  0  0  0  0  0  0  0
    2.4053    0.2885   -1.5871 N   0  0  0  0  0  0  0  0  0  0  0  0
    3.1418    1.3889   -1.7995 C   0  0  0  0  0  0  0  0  0  0  0  0
    4.2161    1.3905   -1.9342 H   0  0  0  0  0  0  0  0  0  0  0  0
    2.3577    2.4796   -1.8300 N   0  0  0  0  0  0  0  0  0  0  0  0
    2.6750    3.4252   -1.9947 H   0  0  0  0  0  0  0  0  0  0  0  0
    1.0566    2.0819   -1.6168 C   0  0  0  0  0  0  0  0  0  0  0  0
    0.1696    2.7027   -1.6010 H   0  0  0  0  0  0  0  0  0  0  0  0
   -0.9851    1.3114    0.6698 C   0  0  0  0  0  0  0  0  0  0  0  0
   -2.0377    1.8431    0.3168 O   0  0  0  0  0  0  0  0  0  0  0  0
   -0.1052    1.9265    1.4663 N   0  0  0  0  0  0  0  0  0  0  0  0
    0.7810    1.4586    1.6201 H   0  0  0  0  0  0  0  0  0  0  0  0
   -0.2724    3.2715    2.0119 C   0  0  0  0  0  0  0  0  0  0  0  0
   -1.3249    3.4549    2.2426 H   0  0  0  0  0  0  0  0  0  0  0  0
    0.3167    3.3776    2.9239 H   0  0  0  0  0  0  0  0  0  0  0  0
    0.0609    4.0073    1.2782 H   0  0  0  0  0  0  0  0  0  0  0  0
  5  6  2  0  0  0  0
  5  7  1  0  0  0  0
  2  3  1  0  0  0  0
  2  4  1  0  0  0  0
  2  5  1  0  0  0  0
  1  2  1  0  0  0  0
 22 23  2  0  0  0  0
 22 24  1  0  0  0  0
 20 21  1  0  0  0  0
 18 19  1  0  0  0  0
 18 20  1  0  0  0  0
 16 17  1  0  0  0  0
 16 18  1  0  0  0  0
 15 16  2  0  0  0  0
 14 15  1  0  0  0  0
 14 20  2  0  0  0  0
 11 12  1  0  0  0  0
 11 13  1  0  0  0  0
 11 14  1  0  0  0  0
  9 10  1  0  0  0  0
  9 11  1  0  0  0  0
  9 22  1  0  0  0  0
  7  8  1  0  0  0  0
  7  9  1  0  0  0  0
 26 27  1  0  0  0  0
 26 28  1  0  0  0  0
 26 29  1  0  0  0  0
 24 25  1  0  0  0  0
 24 26  1  0  0  0  0
M  END
$$$$
default_name
  -OEChem-02102213163D

 29 29  0     1  0  0  0  0  0999 V2000
   -2.9561   -3.9186    1.3887 H   0  0  0  0  0  0  0  0  0  0  0  0
   -3.1191   -2.9346    0.9517 C   0  0  0  0  0  0  0  0  0  0  0  0
   -3.7811   -2.3546    1.5917 H   0  0  0  0  0  0  0  0  0  0  0  0
   -3.5591   -3.0406   -0.0383 H   0  0  0  0  0  0  0  0  0  0  0  0
   -1.7921   -2.2226    0.8327 C   0  0  0  0  0  0  0  0  0  0  0  0
   -0.7611   -2.7766    1.1927 O   0  0  0  0  0  0  0  0  0  0  0  0
   -1.8201   -0.9926    0.3247 N   0  0  0  0  0  0  0  0  0  0  0  0
   -2.7141   -0.5816    0.0927 H   0  0  0  0  0  0  0  0  0  0  0  0
   -0.6481   -0.1156    0.2017 C   0  0  1  0  0  0  0  0  0  0  0  0
    0.1344   -0.4988    0.8596 H   0  0  0  0  0  0  0  0  0  0  0  0
   -0.1211   -0.1520   -1.2460 C   0  0  0  0  0  0  0  0  0  0  0  0
    0.1706   -1.1703   -1.5072 H   0  0  0  0  0  0  0  0  0  0  0  0
   -0.9117    0.1498   -1.9343 H   0  0  0  0  0  0  0  0  0  0  0  0
    1.0877    0.7279   -1.4525 C   0  0  0  0  0  0  0  0  0  0  0  0
    2.3469    0.3009   -1.8763 N   0  0  0  0  0  0  0  0  0  0  0  0
    3.0995    1.4068   -1.9703 C   0  0  0  0  0  0  0  0  0  0  0  0
    4.1410    1.4157   -2.2663 H   0  0  0  0  0  0  0  0  0  0  0  0
    2.3766    2.4947   -1.6554 N   0  0  0  0  0  0  0  0  0  0  0  0
    2.7142    3.4474   -1.6702 H   0  0  0  0  0  0  0  0  0  0  0  0
    1.1023    2.0866   -1.3295 C   0  0  0  0  0  0  0  0  0  0  0  0
    0.2604    2.7074   -1.0501 H   0  0  0  0  0  0  0  0  0  0  0  0
   -0.9851    1.3114    0.6698 C   0  0  0  0  0  0  0  0  0  0  0  0
   -2.0377    1.8431    0.3168 O   0  0  0  0  0  0  0  0  0  0  0  0
   -0.1052    1.9265    1.4663 N   0  0  0  0  0  0  0  0  0  0  0  0
    0.7810    1.4586    1.6201 H   0  0  0  0  0  0  0  0  0  0  0  0
   -0.2724    3.2715    2.0119 C   0  0  0  0  0  0  0  0  0  0  0  0
   -1.3249    3.4549    2.2426 H   0  0  0  0  0  0  0  0  0  0  0  0
    0.3167    3.3776    2.9239 H   0  0  0  0  0  0  0  0  0  0  0  0
    0.0609    4.0073    1.2782 H   0  0  0  0  0  0  0  0  0  0  0  0
  5  6  2  0  0  0  0
  5  7  1  0  0  0  0
  2  3  1  0  0  0  0
  2  4  1  0  0  0  0
  2  5  1  0  0  0  0
  1  2  1  0  0  0  0
 22 23  2  0  0  0  0
 22 24  1  0  0  0  0
 20 21  1  0  0  0  0
 18 19  1  0  0  0  0
 18 20  1  0  0  0  0
 16 17  1  0  0  0  0
 16 18  1  0  0  0  0
 15 16  2  0  0  0  0
 14 15  1  0  0  0  0
 14 20  2  0  0  0  0
 11 12  1  0  0  0  0
 11 13  1  0  0  0  0
 11 14  1  0  0  0  0
  9 10  1  0  0  0  0
  9 11  1  0  0  0  0
  9 22  1  0  0  0  0
  7  8  1  0  0  0  0
  7  9  1  0  0  0  0
 26 27  1  0  0  0  0
 26 28  1  0  0  0  0
 26 29  1  0  0  0  0
 24 25  1  0  0  0  0
 24 26  1  0  0  0  0
M  END
$$$$
default_name
  -OEChem-02102213163D

 29 29  0     1  0  0  0  0  0999 V2000
   -2.9561   -3.9186    1.3887 H   0  0  0  0  0  0  0  0  0  0  0  0
   -3.1191   -2.9346    0.9517 C   0  0  0  0  0  0  0  0  0  0  0  0
   -3.7811   -2.3546    1.5917 H   0  0  0  0  0  0  0  0  0  0  0  0
   -3.5591   -3.0406   -0.0383 H   0  0  0  0  0  0  0  0  0  0  0  0
   -1.7921   -2.2226    0.8327 C   0  0  0  0  0  0  0  0  0  0  0  0
   -0.7611   -2.7766    1.1927 O   0  0  0  0  0  0  0  0  0  0  0  0
   -1.8201   -0.9926    0.3247 N   0  0  0  0  0  0  0  0  0  0  0  0
   -2.7141   -0.5816    0.0927 H   0  0  0  0  0  0  0  0  0  0  0  0
   -0.6481   -0.1156    0.2017 C   0  0  1  0  0  0  0  0  0  0  0  0
    0.1344   -0.4988    0.8596 H   0  0  0  0  0  0  0  0  0  0  0  0
   -0.1211   -0.1520   -1.2460 C   0  0  0  0  0  0  0  0  0  0  0  0
    0.1706   -1.1703   -1.5072 H   0  0  0  0  0  0  0  0  0  0  0  0
   -0.9117    0.1498   -1.9343 H   0  0  0  0  0  0  0  0  0  0  0  0
    1.0877    0.7279   -1.4525 C   0  0  0  0  0  0  0  0  0  0  0  0
    2.2472    0.3749   -2.1441 N   0  0  0  0  0  0  0  0  0  0  0  0
    3.0336    1.4610   -2.1252 C   0  0  0  0  0  0  0  0  0  0  0  0
    4.0192    1.5115   -2.5705 H   0  0  0  0  0  0  0  0  0  0  0  0
    2.4217    2.4724   -1.4865 N   0  0  0  0  0  0  0  0  0  0  0  0
    2.8019    3.4002   -1.3581 H   0  0  0  0  0  0  0  0  0  0  0  0
    1.1900    2.0299   -1.0580 C   0  0  0  0  0  0  0  0  0  0  0  0
    0.4313    2.5945   -0.5307 H   0  0  0  0  0  0  0  0  0  0  0  0
   -0.9851    1.3114    0.6698 C   0  0  0  0  0  0  0  0  0  0  0  0
   -2.0377    1.8431    0.3168 O   0  0  0  0  0  0  0  0  0  0  0  0
   -0.1052    1.9265    1.4663 N   0  0  0  0  0  0  0  0  0  0  0  0
    0.7810    1.4586    1.6201 H   0  0  0  0  0  0  0  0  0  0  0  0
   -0.2724    3.2715    2.0119 C   0  0  0  0  0  0  0  0  0  0  0  0
   -1.3249    3.4549    2.2426 H   0  0  0  0  0  0  0  0  0  0  0  0
    0.3167    3.3776    2.9239 H   0  0  0  0  0  0  0  0  0  0  0  0
    0.0609    4.0073    1.2782 H   0  0  0  0  0  0  0  0  0  0  0  0
  5  6  2  0  0  0  0
  5  7  1  0  0  0  0
  2  3  1  0  0  0  0
  2  4  1  0  0  0  0
  2  5  1  0  0  0  0
  1  2  1  0  0  0  0
 22 23  2  0  0  0  0
 22 24  1  0  0  0  0
 20 21  1  0  0  0  0
 18 19  1  0  0  0  0
 18 20  1  0  0  0  0
 16 17  1  0  0  0  0
 16 18  1  0  0  0  0
 15 16  2  0  0  0  0
 14 15  1  0  0  0  0
 14 20  2  0  0  0  0
 11 12  1  0  0  0  0
 11 13  1  0  0  0  0
 11 14  1  0  0  0  0
  9 10  1  0  0  0  0
  9 11  1  0  0  0  0
  9 22  1  0  0  0  0
  7  8  1  0  0  0  0
  7  9  1  0  0  0  0
 26 27  1  0  0  0  0
 26 28  1  0  0  0  0
 26 29  1  0  0  0  0
 24 25  1  0  0  0  0
 24 26  1  0  0  0  0
M  END
$$$$
default_name
  -OEChem-02102213163D

 29 29  0     1  0  0  0  0  0999 V2000
   -2.9561   -3.9186    1.3887 H   0  0  0  0  0  0  0  0  0  0  0  0
   -3.1191   -2.9346    0.9517 C   0  0  0  0  0  0  0  0  0  0  0  0
   -3.7811   -2.3546    1.5917 H   0  0  0  0  0  0  0  0  0  0  0  0
   -3.5591   -3.0406   -0.0383 H   0  0  0  0  0  0  0  0  0  0  0  0
   -1.7921   -2.2226    0.8327 C   0  0  0  0  0  0  0  0  0  0  0  0
   -0.7611   -2.7766    1.1927 O   0  0  0  0  0  0  0  0  0  0  0  0
   -1.8201   -0.9926    0.3247 N   0  0  0  0  0  0  0  0  0  0  0  0
   -2.7141   -0.5816    0.0927 H   0  0  0  0  0  0  0  0  0  0  0  0
   -0.6481   -0.1156    0.2017 C   0  0  1  0  0  0  0  0  0  0  0  0
    0.1344   -0.4988    0.8596 H   0  0  0  0  0  0  0  0  0  0  0  0
   -0.1211   -0.1520   -1.2460 C   0  0  0  0  0  0  0  0  0  0  0  0
    0.1706   -1.1703   -1.5072 H   0  0  0  0  0  0  0  0  0  0  0  0
   -0.9117    0.1498   -1.9343 H   0  0  0  0  0  0  0  0  0  0  0  0
    1.0877    0.7279   -1.4525 C   0  0  0  0  0  0  0  0  0  0  0  0
    2.1132    0.5055   -2.3725 N   0  0  0  0  0  0  0  0  0  0  0  0
    2.9485    1.5478   -2.2536 C   0  0  0  0  0  0  0  0  0  0  0  0
    3.8591    1.6715   -2.8261 H   0  0  0  0  0  0  0  0  0  0  0  0
    2.4899    2.4143   -1.3348 N   0  0  0  0  0  0  0  0  0  0  0  0
    2.9321    3.2868   -1.0796 H   0  0  0  0  0  0  0  0  0  0  0  0
    1.3136    1.9158   -0.8206 C   0  0  0  0  0  0  0  0  0  0  0  0
    0.6708    2.3717   -0.0782 H   0  0  0  0  0  0  0  0  0  0  0  0
   -0.9851    1.3114    0.6698 C   0  0  0  0  0  0  0  0  0  0  0  0
   -2.0377    1.8431    0.3168 O   0  0  0  0  0  0  0  0  0  0  0  0
   -0.1052    1.9265    1.4663 N   0  0  0  0  0  0  0  0  0  0  0  0
    0.7810    1.4586    1.6201 H   0  0  0  0  0  0  0  0  0  0  0  0
   -0.2724    3.2715    2.0119 C   0  0  0  0  0  0  0  0  0  0  0  0
   -1.3249    3.4549    2.2426 H   0  0  0  0  0  0  0  0  0  0  0  0
    0.3167    3.3776    2.9239 H   0  0  0  0  0  0  0  0  0  0  0  0
    0.0609    4.0073    1.2782 H   0  0  0  0  0  0  0  0  0  0  0  0
  5  6  2  0  0  0  0
  5  7  1  0  0  0  0
  2  3  1  0  0  0  0
  2  4  1  0  0  0  0
  2  5  1  0  0  0  0
  1  2  1  0  0  0  0
 22 23  2  0  0  0  0
 22 24  1  0  0  0  0
 20 21  1  0  0  0  0
 18 19  1  0  0  0  0
 18 20  1  0  0  0  0
 16 17  1  0  0  0  0
 16 18  1  0  0  0  0
 15 16  2  0  0  0  0
 14 15  1  0  0  0  0
 14 20  2  0  0  0  0
 11 12  1  0  0  0  0
 11 13  1  0  0  0  0
 11 14  1  0  0  0  0
  9 10  1  0  0  0  0
  9 11  1  0  0  0  0
  9 22  1  0  0  0  0
  7  8  1  0  0  0  0
  7  9  1  0  0  0  0
 26 27  1  0  0  0  0
 26 28  1  0  0  0  0
 26 29  1  0  0  0  0
 24 25  1  0  0  0  0
 24 26  1  0  0  0  0
M  END
$$$$
default_name
  -OEChem-02102213163D

 29 29  0     1  0  0  0  0  0999 V2000
   -2.9561   -3.9186    1.3887 H   0  0  0  0  0  0  0  0  0  0  0  0
   -3.1191   -2.9346    0.9517 C   0  0  0  0  0  0  0  0  0  0  0  0
   -3.7811   -2.3546    1.5917 H   0  0  0  0  0  0  0  0  0  0  0  0
   -3.5591   -3.0406   -0.0383 H   0  0  0  0  0  0  0  0  0  0  0  0
   -1.7921   -2.2226    0.8327 C   0  0  0  0  0  0  0  0  0  0  0  0
   -0.7611   -2.7766    1.1927 O   0  0  0  0  0  0  0  0  0  0  0  0
   -1.8201   -0.9926    0.3247 N   0  0  0  0  0  0  0  0  0  0  0  0
   -2.7141   -0.5816    0.0927 H   0  0  0  0  0  0  0  0  0  0  0  0
   -0.6481   -0.1156    0.2017 C   0  0  1  0  0  0  0  0  0  0  0  0
    0.1344   -0.4988    0.8596 H   0  0  0  0  0  0  0  0  0  0  0  0
   -0.1211   -0.1520   -1.2460 C   0  0  0  0  0  0  0  0  0  0  0  0
    0.1706   -1.1703   -1.5072 H   0  0  0  0  0  0  0  0  0  0  0  0
   -0.9117    0.1498   -1.9343 H   0  0  0  0  0  0  0  0  0  0  0  0
    1.0877    0.7279   -1.4525 C   0  0  0  0  0  0  0  0  0  0  0  0
    1.9539    0.6837   -2.5458 N   0  0  0  0  0  0  0  0  0  0  0  0
    2.8499    1.6613   -2.3468 C   0  0  0  0  0  0  0  0  0  0  0  0
    3.6716    1.8846   -3.0156 H   0  0  0  0  0  0  0  0  0  0  0  0
    2.5767    2.3243   -1.2105 N   0  0  0  0  0  0  0  0  0  0  0  0
    3.0957    3.1150   -0.8538 H   0  0  0  0  0  0  0  0  0  0  0  0
    1.4648    1.7519   -0.6337 C   0  0  0  0  0  0  0  0  0  0  0  0
    0.9625    2.0543    0.2766 H   0  0  0  0  0  0  0  0  0  0  0  0
   -0.9851    1.3114    0.6698 C   0  0  0  0  0  0  0  0  0  0  0  0
   -2.0377    1.8431    0.3168 O   0  0  0  0  0  0  0  0  0  0  0  0
   -0.1052    1.9265    1.4663 N   0  0  0  0  0  0  0  0  0  0  0  0
    0.7810    1.4586    1.6201 H   0  0  0  0  0  0  0  0  0  0  0  0
   -0.2724    3.2715    2.0119 C   0  0  0  0  0  0  0  0  0  0  0  0
   -1.3249    3.4549    2.2426 H   0  0  0  0  0  0  0  0  0  0  0  0
    0.3167    3.3776    2.9239 H   0  0  0  0  0  0  0  0  0  0  0  0
    0.0609    4.0073    1.2782 H   0  0  0  0  0  0  0  0  0  0  0  0
  5  6  2  0  0  0  0
  5  7  1  0  0  0  0
  2  3  1  0  0  0  0
  2  4  1  0  0  0  0
  2  5  1  0  0  0  0
  1  2  1  0  0  0  0
 22 23  2  0  0  0  0
 22 24  1  0  0  0  0
 20 21  1  0  0  0  0
 18 19  1  0  0  0  0
 18 20  1  0  0  0  0
 16 17  1  0  0  0  0
 16 18  1  0  0  0  0
 15 16  2  0  0  0  0
 14 15  1  0  0  0  0
 14 20  2  0  0  0  0
 11 12  1  0  0  0  0
 11 13  1  0  0  0  0
 11 14  1  0  0  0  0
  9 10  1  0  0  0  0
  9 11  1  0  0  0  0
  9 22  1  0  0  0  0
  7  8  1  0  0  0  0
  7  9  1  0  0  0  0
 26 27  1  0  0  0  0
 26 28  1  0  0  0  0
 26 29  1  0  0  0  0
 24 25  1  0  0  0  0
 24 26  1  0  0  0  0
M  END
$$$$
default_name
  -OEChem-02102213163D

 29 29  0     1  0  0  0  0  0999 V2000
   -2.9561   -3.9186    1.3887 H   0  0  0  0  0  0  0  0  0  0  0  0
   -3.1191   -2.9346    0.9517 C   0  0  0  0  0  0  0  0  0  0  0  0
   -3.7811   -2.3546    1.5917 H   0  0  0  0  0  0  0  0  0  0  0  0
   -3.5591   -3.0406   -0.0383 H   0  0  0  0  0  0  0  0  0  0  0  0
   -1.7921   -2.2226    0.8327 C   0  0  0  0  0  0  0  0  0  0  0  0
   -0.7611   -2.7766    1.1927 O   0  0  0  0  0  0  0  0  0  0  0  0
   -1.8201   -0.9926    0.3247 N   0  0  0  0  0  0  0  0  0  0  0  0
   -2.7141   -0.5816    0.0927 H   0  0  0  0  0  0  0  0  0  0  0  0
   -0.6481   -0.1156    0.2017 C   0  0  1  0  0  0  0  0  0  0  0  0
    0.1344   -0.4988    0.8596 H   0  0  0  0  0  0  0  0  0  0  0  0
   -0.1211   -0.1520   -1.2460 C   0  0  0  0  0  0  0  0  0  0  0  0
   -0.0811   -1.1836   -1.5985 H   0  0  0  0  0  0  0  0  0  0  0  0
   -0.8029    0.3924   -1.9007 H   0  0  0  0  0  0  0  0  0  0  0  0
    1.2686    0.4219   -1.3790 C   0  0  0  0  0  0  0  0  0  0  0  0
    2.0018    0.5223   -2.5621 N   0  0  0  0  0  0  0  0  0  0  0  0
    3.1507    1.1310   -2.2340 C   0  0  0  0  0  0  0  0  0  0  0  0
    3.9492    1.3496   -2.9318 H   0  0  0  0  0  0  0  0  0  0  0  0
    3.1630    1.4364   -0.9256 N   0  0  0  0  0  0  0  0  0  0  0  0
    3.9104    1.9160   -0.4425 H   0  0  0  0  0  0  0  0  0  0  0  0
    1.9812    1.0000   -0.3694 C   0  0  0  0  0  0  0  0  0  0  0  0
    1.6552    1.1052    0.6577 H   0  0  0  0  0  0  0  0  0  0  0  0
   -0.9851    1.3114    0.6698 C   0  0  0  0  0  0  0  0  0  0  0  0
   -2.0377    1.8431    0.3168 O   0  0  0  0  0  0  0  0  0  0  0  0
   -0.1052    1.9265    1.4663 N   0  0  0  0  0  0  0  0  0  0  0  0
    0.7810    1.4586    1.6201 H   0  0  0  0  0  0  0  0  0  0  0  0
   -0.2724    3.2715    2.0119 C   0  0  0  0  0  0  0  0  0  0  0  0
   -1.3249    3.4549    2.2426 H   0  0  0  0  0  0  0  0  0  0  0  0
    0.3167    3.3776    2.9239 H   0  0  0  0  0  0  0  0  0  0  0  0
    0.0609    4.0073    1.2782 H   0  0  0  0  0  0  0  0  0  0  0  0
  5  6  2  0  0  0  0
  5  7  1  0  0  0  0
  2  3  1  0  0  0  0
  2  4  1  0  0  0  0
  2  5  1  0  0  0  0
  1  2  1  0  0  0  0
 22 23  2  0  0  0  0
 22 24  1  0  0  0  0
 20 21  1  0  0  0  0
 18 19  1  0  0  0  0
 18 20  1  0  0  0  0
 16 17  1  0  0  0  0
 16 18  1  0  0  0  0
 15 16  2  0  0  0  0
 14 15  1  0  0  0  0
 14 20  2  0  0  0  0
 11 12  1  0  0  0  0
 11 13  1  0  0  0  0
 11 14  1  0  0  0  0
  9 10  1  0  0  0  0
  9 11  1  0  0  0  0
  9 22  1  0  0  0  0
  7  8  1  0  0  0  0
  7  9  1  0  0  0  0
 26 27  1  0  0  0  0
 26 28  1  0  0  0  0
 26 29  1  0  0  0  0
 24 25  1  0  0  0  0
 24 26  1  0  0  0  0
M  END
$$$$
default_name
  -OEChem-02102213163D

 29 29  0     1  0  0  0  0  0999 V2000
   -2.9561   -3.9186    1.3887 H   0  0  0  0  0  0  0  0  0  0  0  0
   -3.1191   -2.9346    0.9517 C   0  0  0  0  0  0  0  0  0  0  0  0
   -3.7811   -2.3546    1.5917 H   0  0  0  0  0  0  0  0  0  0  0  0
   -3.5591   -3.0406   -0.0383 H   0  0  0  0  0  0  0  0  0  0  0  0
   -1.7921   -2.2226    0.8327 C   0  0  0  0  0  0  0  0  0  0  0  0
   -0.7611   -2.7766    1.1927 O   0  0  0  0  0  0  0  0  0  0  0  0
   -1.8201   -0.9926    0.3247 N   0  0  0  0  0  0  0  0  0  0  0  0
   -2.7141   -0.5816    0.0927 H   0  0  0  0  0  0  0  0  0  0  0  0
   -0.6481   -0.1156    0.2017 C   0  0  1  0  0  0  0  0  0  0  0  0
    0.1344   -0.4988    0.8596 H   0  0  0  0  0  0  0  0  0  0  0  0
   -0.1211   -0.1520   -1.2460 C   0  0  0  0  0  0  0  0  0  0  0  0
   -0.0811   -1.1836   -1.5985 H   0  0  0  0  0  0  0  0  0  0  0  0
   -0.8029    0.3924   -1.9007 H   0  0  0  0  0  0  0  0  0  0  0  0
    1.2686    0.4219   -1.3790 C   0  0  0  0  0  0  0  0  0  0  0  0
    1.8883    0.7947   -2.5725 N   0  0  0  0  0  0  0  0  0  0  0  0
    3.0838    1.2946   -2.2273 C   0  0  0  0  0  0  0  0  0  0  0  0
    3.8190    1.6652   -2.9304 H   0  0  0  0  0  0  0  0  0  0  0  0
    3.2318    1.2776   -0.8920 N   0  0  0  0  0  0  0  0  0  0  0  0
    4.0381    1.6194   -0.3871 H   0  0  0  0  0  0  0  0  0  0  0  0
    2.0941    0.7337   -0.3386 C   0  0  0  0  0  0  0  0  0  0  0  0
    1.8717    0.5934    0.7118 H   0  0  0  0  0  0  0  0  0  0  0  0
   -0.9851    1.3114    0.6698 C   0  0  0  0  0  0  0  0  0  0  0  0
   -2.0377    1.8431    0.3168 O   0  0  0  0  0  0  0  0  0  0  0  0
   -0.1052    1.9265    1.4663 N   0  0  0  0  0  0  0  0  0  0  0  0
    0.7810    1.4586    1.6201 H   0  0  0  0  0  0  0  0  0  0  0  0
   -0.2724    3.2715    2.0119 C   0  0  0  0  0  0  0  0  0  0  0  0
   -1.3249    3.4549    2.2426 H   0  0  0  0  0  0  0  0  0  0  0  0
    0.3167    3.3776    2.9239 H   0  0  0  0  0  0  0  0  0  0  0  0
    0.0609    4.0073    1.2782 H   0  0  0  0  0  0  0  0  0  0  0  0
  5  6  2  0  0  0  0
  5  7  1  0  0  0  0
  2  3  1  0  0  0  0
  2  4  1  0  0  0  0
  2  5  1  0  0  0  0
  1  2  1  0  0  0  0
 22 23  2  0  0  0  0
 22 24  1  0  0  0  0
 20 21  1  0  0  0  0
 18 19  1  0  0  0  0
 18 20  1  0  0  0  0
 16 17  1  0  0  0  0
 16 18  1  0  0  0  0
 15 16  2  0  0  0  0
 14 15  1  0  0  0  0
 14 20  2  0  0  0  0
 11 12  1  0  0  0  0
 11 13  1  0  0  0  0
 11 14  1  0  0  0  0
  9 10  1  0  0  0  0
  9 11  1  0  0  0  0
  9 22  1  0  0  0  0
  7  8  1  0  0  0  0
  7  9  1  0  0  0  0
 26 27  1  0  0  0  0
 26 28  1  0  0  0  0
 26 29  1  0  0  0  0
 24 25  1  0  0  0  0
 24 26  1  0  0  0  0
M  END
$$$$
default_name
  -OEChem-02102213163D

 29 29  0     1  0  0  0  0  0999 V2000
   -2.9561   -3.9186    1.3887 H   0  0  0  0  0  0  0  0  0  0  0  0
   -3.1191   -2.9346    0.9517 C   0  0  0  0  0  0  0  0  0  0  0  0
   -3.7811   -2.3546    1.5917 H   0  0  0  0  0  0  0  0  0  0  0  0
   -3.5591   -3.0406   -0.0383 H   0  0  0  0  0  0  0  0  0  0  0  0
   -1.7921   -2.2226    0.8327 C   0  0  0  0  0  0  0  0  0  0  0  0
   -0.7611   -2.7766    1.1927 O   0  0  0  0  0  0  0  0  0  0  0  0
   -1.8201   -0.9926    0.3247 N   0  0  0  0  0  0  0  0  0  0  0  0
   -2.7141   -0.5816    0.0927 H   0  0  0  0  0  0  0  0  0  0  0  0
   -0.6481   -0.1156    0.2017 C   0  0  1  0  0  0  0  0  0  0  0  0
    0.1344   -0.4988    0.8596 H   0  0  0  0  0  0  0  0  0  0  0  0
   -0.1211   -0.1520   -1.2460 C   0  0  0  0  0  0  0  0  0  0  0  0
   -0.0811   -1.1836   -1.5985 H   0  0  0  0  0  0  0  0  0  0  0  0
   -0.8029    0.3924   -1.9007 H   0  0  0  0  0  0  0  0  0  0  0  0
    1.2686    0.4219   -1.3790 C   0  0  0  0  0  0  0  0  0  0  0  0
    1.7839    1.0628   -2.5064 N   0  0  0  0  0  0  0  0  0  0  0  0
    3.0236    1.4525   -2.1753 C   0  0  0  0  0  0  0  0  0  0  0  0
    3.7006    1.9726   -2.8411 H   0  0  0  0  0  0  0  0  0  0  0  0
    3.2979    1.1147   -0.9041 N   0  0  0  0  0  0  0  0  0  0  0  0
    4.1602    1.3169   -0.4168 H   0  0  0  0  0  0  0  0  0  0  0  0
    2.2001    0.4665   -0.3833 C   0  0  0  0  0  0  0  0  0  0  0  0
    2.0745    0.0813    0.6208 H   0  0  0  0  0  0  0  0  0  0  0  0
   -0.9851    1.3114    0.6698 C   0  0  0  0  0  0  0  0  0  0  0  0
   -2.0377    1.8431    0.3168 O   0  0  0  0  0  0  0  0  0  0  0  0
   -0.1052    1.9265    1.4663 N   0  0  0  0  0  0  0  0  0  0  0  0
    0.7810    1.4586    1.6201 H   0  0  0  0  0  0  0  0  0  0  0  0
   -0.2724    3.2715    2.0119 C   0  0  0  0  0  0  0  0  0  0  0  0
   -1.3249    3.4549    2.2426 H   0  0  0  0  0  0  0  0  0  0  0  0
    0.3167    3.3776    2.9239 H   0  0  0  0  0  0  0  0  0  0  0  0
    0.0609    4.0073    1.2782 H   0  0  0  0  0  0  0  0  0  0  0  0
  5  6  2  0  0  0  0
  5  7  1  0  0  0  0
  2  3  1  0  0  0  0
  2  4  1  0  0  0  0
  2  5  1  0  0  0  0
  1  2  1  0  0  0  0
 22 23  2  0  0  0  0
 22 24  1  0  0  0  0
 20 21  1  0  0  0  0
 18 19  1  0  0  0  0
 18 20  1  0  0  0  0
 16 17  1  0  0  0  0
 16 18  1  0  0  0  0
 15 16  2  0  0  0  0
 14 15  1  0  0  0  0
 14 20  2  0  0  0  0
 11 12  1  0  0  0  0
 11 13  1  0  0  0  0
 11 14  1  0  0  0  0
  9 10  1  0  0  0  0
  9 11  1  0  0  0  0
  9 22  1  0  0  0  0
  7  8  1  0  0  0  0
  7  9  1  0  0  0  0
 26 27  1  0  0  0  0
 26 28  1  0  0  0  0
 26 29  1  0  0  0  0
 24 25  1  0  0  0  0
 24 26  1  0  0  0  0
M  END
$$$$
default_name
  -OEChem-02102213163D

 29 29  0     1  0  0  0  0  0999 V2000
   -2.9561   -3.9186    1.3887 H   0  0  0  0  0  0  0  0  0  0  0  0
   -3.1191   -2.9346    0.9517 C   0  0  0  0  0  0  0  0  0  0  0  0
   -3.7811   -2.3546    1.5917 H   0  0  0  0  0  0  0  0  0  0  0  0
   -3.5591   -3.0406   -0.0383 H   0  0  0  0  0  0  0  0  0  0  0  0
   -1.7921   -2.2226    0.8327 C   0  0  0  0  0  0  0  0  0  0  0  0
   -0.7611   -2.7766    1.1927 O   0  0  0  0  0  0  0  0  0  0  0  0
   -1.8201   -0.9926    0.3247 N   0  0  0  0  0  0  0  0  0  0  0  0
   -2.7141   -0.5816    0.0927 H   0  0  0  0  0  0  0  0  0  0  0  0
   -0.6481   -0.1156    0.2017 C   0  0  1  0  0  0  0  0  0  0  0  0
    0.1344   -0.4988    0.8596 H   0  0  0  0  0  0  0  0  0  0  0  0
   -0.1211   -0.1520   -1.2460 C   0  0  0  0  0  0  0  0  0  0  0  0
   -0.0811   -1.1836   -1.5985 H   0  0  0  0  0  0  0  0  0  0  0  0
   -0.8029    0.3924   -1.9007 H   0  0  0  0  0  0  0  0  0  0  0  0
    1.2686    0.4219   -1.3790 C   0  0  0  0  0  0  0  0  0  0  0  0
    1.6957    1.3084   -2.3684 N   0  0  0  0  0  0  0  0  0  0  0  0
    2.9741    1.5940   -2.0815 C   0  0  0  0  0  0  0  0  0  0  0  0
    3.6020    2.2510   -2.6700 H   0  0  0  0  0  0  0  0  0  0  0  0
    3.3569    0.9587   -0.9611 N   0  0  0  0  0  0  0  0  0  0  0  0
    4.2683    1.0289   -0.5296 H   0  0  0  0  0  0  0  0  0  0  0  0
    2.2921    0.2166   -0.5006 C   0  0  0  0  0  0  0  0  0  0  0  0
    2.2497   -0.3964    0.3909 H   0  0  0  0  0  0  0  0  0  0  0  0
   -0.9851    1.3114    0.6698 C   0  0  0  0  0  0  0  0  0  0  0  0
   -2.0377    1.8431    0.3168 O   0  0  0  0  0  0  0  0  0  0  0  0
   -0.1052    1.9265    1.4663 N   0  0  0  0  0  0  0  0  0  0  0  0
    0.7810    1.4586    1.6201 H   0  0  0  0  0  0  0  0  0  0  0  0
   -0.2724    3.2715    2.0119 C   0  0  0  0  0  0  0  0  0  0  0  0
   -1.3249    3.4549    2.2426 H   0  0  0  0  0  0  0  0  0  0  0  0
    0.3167    3.3776    2.9239 H   0  0  0  0  0  0  0  0  0  0  0  0
    0.0609    4.0073    1.2782 H   0  0  0  0  0  0  0  0  0  0  0  0
  5  6  2  0  0  0  0
  5  7  1  0  0  0  0
  2  3  1  0  0  0  0
  2  4  1  0  0  0  0
  2  5  1  0  0  0  0
  1  2  1  0  0  0  0
 22 23  2  0  0  0  0
 22 24  1  0  0  0  0
 20 21  1  0  0  0  0
 18 19  1  0  0  0  0
 18 20  1  0  0  0  0
 16 17  1  0  0  0  0
 16 18  1  0  0  0  0
 15 16  2  0  0  0  0
 14 15  1  0  0  0  0
 14 20  2  0  0  0  0
 11 12  1  0  0  0  0
 11 13  1  0  0  0  0
 11 14  1  0  0  0  0
  9 10  1  0  0  0  0
  9 11  1  0  0  0  0
  9 22  1  0  0  0  0
  7  8  1  0  0  0  0
  7  9  1  0  0  0  0
 26 27  1  0  0  0  0
 26 28  1  0  0  0  0
 26 29  1  0  0  0  0
 24 25  1  0  0  0  0
 24 26  1  0  0  0  0
M  END
$$$$
default_name
  -OEChem-02102213163D

 29 29  0     1  0  0  0  0  0999 V2000
   -2.9561   -3.9186    1.3887 H   0  0  0  0  0  0  0  0  0  0  0  0
   -3.1191   -2.9346    0.9517 C   0  0  0  0  0  0  0  0  0  0  0  0
   -3.7811   -2.3546    1.5917 H   0  0  0  0  0  0  0  0  0  0  0  0
   -3.5591   -3.0406   -0.0383 H   0  0  0  0  0  0  0  0  0  0  0  0
   -1.7921   -2.2226    0.8327 C   0  0  0  0  0  0  0  0  0  0  0  0
   -0.7611   -2.7766    1.1927 O   0  0  0  0  0  0  0  0  0  0  0  0
   -1.8201   -0.9926    0.3247 N   0  0  0  0  0  0  0  0  0  0  0  0
   -2.7141   -0.5816    0.0927 H   0  0  0  0  0  0  0  0  0  0  0  0
   -0.6481   -0.1156    0.2017 C   0  0  1  0  0  0  0  0  0  0  0  0
    0.1344   -0.4988    0.8596 H   0  0  0  0  0  0  0  0  0  0  0  0
   -0.1211   -0.1520   -1.2460 C   0  0  0  0  0  0  0  0  0  0  0  0
   -0.0811   -1.1836   -1.5985 H   0  0  0  0  0  0  0  0  0  0  0  0
   -0.8029    0.3924   -1.9007 H   0  0  0  0  0  0  0  0  0  0  0  0
    1.2686    0.4219   -1.3790 C   0  0  0  0  0  0  0  0  0  0  0  0
    1.6296    1.5149   -2.1679 N   0  0  0  0  0  0  0  0  0  0  0  0
    2.9388    1.7095   -1.9523 C   0  0  0  0  0  0  0  0  0  0  0  0
    3.5300    2.4814   -2.4286 H   0  0  0  0  0  0  0  0  0  0  0  0
    3.4047    0.8203   -1.0592 N   0  0  0  0  0  0  0  0  0  0  0  0
    4.3551    0.7752   -0.7178 H   0  0  0  0  0  0  0  0  0  0  0  0
    2.3636    0.0012   -0.6825 C   0  0  0  0  0  0  0  0  0  0  0  0
    2.3854   -0.8070    0.0377 H   0  0  0  0  0  0  0  0  0  0  0  0
   -0.9851    1.3114    0.6698 C   0  0  0  0  0  0  0  0  0  0  0  0
   -2.0377    1.8431    0.3168 O   0  0  0  0  0  0  0  0  0  0  0  0
   -0.1052    1.9265    1.4663 N   0  0  0  0  0  0  0  0  0  0  0  0
    0.7810    1.4586    1.6201 H   0  0  0  0  0  0  0  0  0  0  0  0
   -0.2724    3.2715    2.0119 C   0  0  0  0  0  0  0  0  0  0  0  0
   -1.3249    3.4549    2.2426 H   0  0  0  0  0  0  0  0  0  0  0  0
    0.3167    3.3776    2.9239 H   0  0  0  0  0  0  0  0  0  0  0  0
    0.0609    4.0073    1.2782 H   0  0  0  0  0  0  0  0  0  0  0  0
  5  6  2  0  0  0  0
  5  7  1  0  0  0  0
  2  3  1  0  0  0  0
  2  4  1  0  0  0  0
  2  5  1  0  0  0  0
  1  2  1  0  0  0  0
 22 23  2  0  0  0  0
 22 24  1  0  0  0  0
 20 21  1  0  0  0  0
 18 19  1  0  0  0  0
 18 20  1  0  0  0  0
 16 17  1  0  0  0  0
 16 18  1  0  0  0  0
 15 16  2  0  0  0  0
 14 15  1  0  0  0  0
 14 20  2  0  0  0  0
 11 12  1  0  0  0  0
 11 13  1  0  0  0  0
 11 14  1  0  0  0  0
  9 10  1  0  0  0  0
  9 11  1  0  0  0  0
  9 22  1  0  0  0  0
  7  8  1  0  0  0  0
  7  9  1  0  0  0  0
 26 27  1  0  0  0  0
 26 28  1  0  0  0  0
 26 29  1  0  0  0  0
 24 25  1  0  0  0  0
 24 26  1  0  0  0  0
M  END
$$$$
default_name
  -OEChem-02102213163D

 29 29  0     1  0  0  0  0  0999 V2000
   -2.9561   -3.9186    1.3887 H   0  0  0  0  0  0  0  0  0  0  0  0
   -3.1191   -2.9346    0.9517 C   0  0  0  0  0  0  0  0  0  0  0  0
   -3.7811   -2.3546    1.5917 H   0  0  0  0  0  0  0  0  0  0  0  0
   -3.5591   -3.0406   -0.0383 H   0  0  0  0  0  0  0  0  0  0  0  0
   -1.7921   -2.2226    0.8327 C   0  0  0  0  0  0  0  0  0  0  0  0
   -0.7611   -2.7766    1.1927 O   0  0  0  0  0  0  0  0  0  0  0  0
   -1.8201   -0.9926    0.3247 N   0  0  0  0  0  0  0  0  0  0  0  0
   -2.7141   -0.5816    0.0927 H   0  0  0  0  0  0  0  0  0  0  0  0
   -0.6481   -0.1156    0.2017 C   0  0  1  0  0  0  0  0  0  0  0  0
    0.1344   -0.4988    0.8596 H   0  0  0  0  0  0  0  0  0  0  0  0
   -0.1211   -0.1520   -1.2460 C   0  0  0  0  0  0  0  0  0  0  0  0
   -0.0811   -1.1836   -1.5985 H   0  0  0  0  0  0  0  0  0  0  0  0
   -0.8029    0.3924   -1.9007 H   0  0  0  0  0  0  0  0  0  0  0  0
    1.2686    0.4219   -1.3790 C   0  0  0  0  0  0  0  0  0  0  0  0
    1.5903    1.6680   -1.9185 N   0  0  0  0  0  0  0  0  0  0  0  0
    2.9200    1.7910   -1.7965 C   0  0  0  0  0  0  0  0  0  0  0  0
    3.4894    2.6481   -2.1334 H   0  0  0  0  0  0  0  0  0  0  0  0
    3.4380    0.7088   -1.1916 N   0  0  0  0  0  0  0  0  0  0  0  0
    4.4146    0.5730   -0.9686 H   0  0  0  0  0  0  0  0  0  0  0  0
    2.4099   -0.1653   -0.9166 C   0  0  0  0  0  0  0  0  0  0  0  0
    2.4724   -1.1226   -0.4146 H   0  0  0  0  0  0  0  0  0  0  0  0
   -0.9851    1.3114    0.6698 C   0  0  0  0  0  0  0  0  0  0  0  0
   -2.0377    1.8431    0.3168 O   0  0  0  0  0  0  0  0  0  0  0  0
   -0.1052    1.9265    1.4663 N   0  0  0  0  0  0  0  0  0  0  0  0
    0.7810    1.4586    1.6201 H   0  0  0  0  0  0  0  0  0  0  0  0
   -0.2724    3.2715    2.0119 C   0  0  0  0  0  0  0  0  0  0  0  0
   -1.3249    3.4549    2.2426 H   0  0  0  0  0  0  0  0  0  0  0  0
    0.3167    3.3776    2.9239 H   0  0  0  0  0  0  0  0  0  0  0  0
    0.0609    4.0073    1.2782 H   0  0  0  0  0  0  0  0  0  0  0  0
  5  6  2  0  0  0  0
  5  7  1  0  0  0  0
  2  3  1  0  0  0  0
  2  4  1  0  0  0  0
  2  5  1  0  0  0  0
  1  2  1  0  0  0  0
 22 23  2  0  0  0  0
 22 24  1  0  0  0  0
 20 21  1  0  0  0  0
 18 19  1  0  0  0  0
 18 20  1  0  0  0  0
 16 17  1  0  0  0  0
 16 18  1  0  0  0  0
 15 16  2  0  0  0  0
 14 15  1  0  0  0  0
 14 20  2  0  0  0  0
 11 12  1  0  0  0  0
 11 13  1  0  0  0  0
 11 14  1  0  0  0  0
  9 10  1  0  0  0  0
  9 11  1  0  0  0  0
  9 22  1  0  0  0  0
  7  8  1  0  0  0  0
  7  9  1  0  0  0  0
 26 27  1  0  0  0  0
 26 28  1  0  0  0  0
 26 29  1  0  0  0  0
 24 25  1  0  0  0  0
 24 26  1  0  0  0  0
M  END
$$$$
default_name
  -OEChem-02102213163D

 29 29  0     1  0  0  0  0  0999 V2000
   -2.9561   -3.9186    1.3887 H   0  0  0  0  0  0  0  0  0  0  0  0
   -3.1191   -2.9346    0.9517 C   0  0  0  0  0  0  0  0  0  0  0  0
   -3.7811   -2.3546    1.5917 H   0  0  0  0  0  0  0  0  0  0  0  0
   -3.5591   -3.0406   -0.0383 H   0  0  0  0  0  0  0  0  0  0  0  0
   -1.7921   -2.2226    0.8327 C   0  0  0  0  0  0  0  0  0  0  0  0
   -0.7611   -2.7766    1.1927 O   0  0  0  0  0  0  0  0  0  0  0  0
   -1.8201   -0.9926    0.3247 N   0  0  0  0  0  0  0  0  0  0  0  0
   -2.7141   -0.5816    0.0927 H   0  0  0  0  0  0  0  0  0  0  0  0
   -0.6481   -0.1156    0.2017 C   0  0  1  0  0  0  0  0  0  0  0  0
    0.1344   -0.4988    0.8596 H   0  0  0  0  0  0  0  0  0  0  0  0
   -0.1211   -0.1520   -1.2460 C   0  0  0  0  0  0  0  0  0  0  0  0
   -0.0811   -1.1836   -1.5985 H   0  0  0  0  0  0  0  0  0  0  0  0
   -0.8029    0.3924   -1.9007 H   0  0  0  0  0  0  0  0  0  0  0  0
    1.2686    0.4219   -1.3790 C   0  0  0  0  0  0  0  0  0  0  0  0
    1.5803    1.7573   -1.6373 N   0  0  0  0  0  0  0  0  0  0  0  0
    2.9191    1.8331   -1.6247 C   0  0  0  0  0  0  0  0  0  0  0  0
    3.4831    2.7397   -1.8046 H   0  0  0  0  0  0  0  0  0  0  0  0
    3.4546    0.6320   -1.3493 N   0  0  0  0  0  0  0  0  0  0  0  0
    4.4427    0.4361   -1.2649 H   0  0  0  0  0  0  0  0  0  0  0  0
    2.4278   -0.2713   -1.1870 C   0  0  0  0  0  0  0  0  0  0  0  0
    2.5048   -1.3216   -0.9352 H   0  0  0  0  0  0  0  0  0  0  0  0
   -0.9851    1.3114    0.6698 C   0  0  0  0  0  0  0  0  0  0  0  0
   -2.0377    1.8431    0.3168 O   0  0  0  0  0  0  0  0  0  0  0  0
   -0.1052    1.9265    1.4663 N   0  0  0  0  0  0  0  0  0  0  0  0
    0.7810    1.4586    1.6201 H   0  0  0  0  0  0  0  0  0  0  0  0
   -0.2724    3.2715    2.0119 C   0  0  0  0  0  0  0  0  0  0  0  0
   -1.3249    3.4549    2.2426 H   0  0  0  0  0  0  0  0  0  0  0  0
    0.3167    3.3776    2.9239 H   0  0  0  0  0  0  0  0  0  0  0  0
    0.0609    4.0073    1.2782 H   0  0  0  0  0  0  0  0  0  0  0  0
  5  6  2  0  0  0  0
  5  7  1  0  0  0  0
  2  3  1  0  0  0  0
  2  4  1  0  0  0  0
  2  5  1  0  0  0  0
  1  2  1  0  0  0  0
 22 23  2  0  0  0  0
 22 24  1  0  0  0  0
 20 21  1  0  0  0  0
 18 19  1  0  0  0  0
 18 20  1  0  0  0  0
 16 17  1  0  0  0  0
 16 18  1  0  0  0  0
 15 16  2  0  0  0  0
 14 15  1  0  0  0  0
 14 20  2  0  0  0  0
 11 12  1  0  0  0  0
 11 13  1  0  0  0  0
 11 14  1  0  0  0  0
  9 10  1  0  0  0  0
  9 11  1  0  0  0  0
  9 22  1  0  0  0  0
  7  8  1  0  0  0  0
  7  9  1  0  0  0  0
 26 27  1  0  0  0  0
 26 28  1  0  0  0  0
 26 29  1  0  0  0  0
 24 25  1  0  0  0  0
 24 26  1  0  0  0  0
M  END
$$$$
default_name
  -OEChem-02102213163D

 29 29  0     1  0  0  0  0  0999 V2000
   -2.9561   -3.9186    1.3887 H   0  0  0  0  0  0  0  0  0  0  0  0
   -3.1191   -2.9346    0.9517 C   0  0  0  0  0  0  0  0  0  0  0  0
   -3.7811   -2.3546    1.5917 H   0  0  0  0  0  0  0  0  0  0  0  0
   -3.5591   -3.0406   -0.0383 H   0  0  0  0  0  0  0  0  0  0  0  0
   -1.7921   -2.2226    0.8327 C   0  0  0  0  0  0  0  0  0  0  0  0
   -0.7611   -2.7766    1.1927 O   0  0  0  0  0  0  0  0  0  0  0  0
   -1.8201   -0.9926    0.3247 N   0  0  0  0  0  0  0  0  0  0  0  0
   -2.7141   -0.5816    0.0927 H   0  0  0  0  0  0  0  0  0  0  0  0
   -0.6481   -0.1156    0.2017 C   0  0  1  0  0  0  0  0  0  0  0  0
    0.1344   -0.4988    0.8596 H   0  0  0  0  0  0  0  0  0  0  0  0
   -0.1211   -0.1520   -1.2460 C   0  0  0  0  0  0  0  0  0  0  0  0
   -0.0811   -1.1836   -1.5985 H   0  0  0  0  0  0  0  0  0  0  0  0
   -0.8029    0.3924   -1.9007 H   0  0  0  0  0  0  0  0  0  0  0  0
    1.2686    0.4219   -1.3790 C   0  0  0  0  0  0  0  0  0  0  0  0
    1.6004    1.7769   -1.3434 N   0  0  0  0  0  0  0  0  0  0  0  0
    2.9361    1.8328   -1.4487 C   0  0  0  0  0  0  0  0  0  0  0  0
    3.5114    2.7499   -1.4646 H   0  0  0  0  0  0  0  0  0  0  0  0
    3.4534    0.5950   -1.5217 N   0  0  0  0  0  0  0  0  0  0  0  0
    4.4377    0.3738   -1.5865 H   0  0  0  0  0  0  0  0  0  0  0  0
    2.4161   -0.3097   -1.4751 C   0  0  0  0  0  0  0  0  0  0  0  0
    2.4802   -1.3904   -1.4888 H   0  0  0  0  0  0  0  0  0  0  0  0
   -0.9851    1.3114    0.6698 C   0  0  0  0  0  0  0  0  0  0  0  0
   -2.0377    1.8431    0.3168 O   0  0  0  0  0  0  0  0  0  0  0  0
   -0.1052    1.9265    1.4663 N   0  0  0  0  0  0  0  0  0  0  0  0
    0.7810    1.4586    1.6201 H   0  0  0  0  0  0  0  0  0  0  0  0
   -0.2724    3.2715    2.0119 C   0  0  0  0  0  0  0  0  0  0  0  0
   -1.3249    3.4549    2.2426 H   0  0  0  0  0  0  0  0  0  0  0  0
    0.3167    3.3776    2.9239 H   0  0  0  0  0  0  0  0  0  0  0  0
    0.0609    4.0073    1.2782 H   0  0  0  0  0  0  0  0  0  0  0  0
  5  6  2  0  0  0  0
  5  7  1  0  0  0  0
  2  3  1  0  0  0  0
  2  4  1  0  0  0  0
  2  5  1  0  0  0  0
  1  2  1  0  0  0  0
 22 23  2  0  0  0  0
 22 24  1  0  0  0  0
 20 21  1  0  0  0  0
 18 19  1  0  0  0  0
 18 20  1  0  0  0  0
 16 17  1  0  0  0  0
 16 18  1  0  0  0  0
 15 16  2  0  0  0  0
 14 15  1  0  0  0  0
 14 20  2  0  0  0  0
 11 12  1  0  0  0  0
 11 13  1  0  0  0  0
 11 14  1  0  0  0  0
  9 10  1  0  0  0  0
  9 11  1  0  0  0  0
  9 22  1  0  0  0  0
  7  8  1  0  0  0  0
  7  9  1  0  0  0  0
 26 27  1  0  0  0  0
 26 28  1  0  0  0  0
 26 29  1  0  0  0  0
 24 25  1  0  0  0  0
 24 26  1  0  0  0  0
M  END
$$$$
default_name
  -OEChem-02102213163D

 29 29  0     1  0  0  0  0  0999 V2000
   -2.9561   -3.9186    1.3887 H   0  0  0  0  0  0  0  0  0  0  0  0
   -3.1191   -2.9346    0.9517 C   0  0  0  0  0  0  0  0  0  0  0  0
   -3.7811   -2.3546    1.5917 H   0  0  0  0  0  0  0  0  0  0  0  0
   -3.5591   -3.0406   -0.0383 H   0  0  0  0  0  0  0  0  0  0  0  0
   -1.7921   -2.2226    0.8327 C   0  0  0  0  0  0  0  0  0  0  0  0
   -0.7611   -2.7766    1.1927 O   0  0  0  0  0  0  0  0  0  0  0  0
   -1.8201   -0.9926    0.3247 N   0  0  0  0  0  0  0  0  0  0  0  0
   -2.7141   -0.5816    0.0927 H   0  0  0  0  0  0  0  0  0  0  0  0
   -0.6481   -0.1156    0.2017 C   0  0  1  0  0  0  0  0  0  0  0  0
    0.1344   -0.4988    0.8596 H   0  0  0  0  0  0  0  0  0  0  0  0
   -0.1211   -0.1520   -1.2460 C   0  0  0  0  0  0  0  0  0  0  0  0
   -0.0811   -1.1836   -1.5985 H   0  0  0  0  0  0  0  0  0  0  0  0
   -0.8029    0.3924   -1.9007 H   0  0  0  0  0  0  0  0  0  0  0  0
    1.2686    0.4219   -1.3790 C   0  0  0  0  0  0  0  0  0  0  0  0
    1.6491    1.7252   -1.0569 N   0  0  0  0  0  0  0  0  0  0  0  0
    2.9698    1.7903   -1.2804 C   0  0  0  0  0  0  0  0  0  0  0  0
    3.5724    2.6781   -1.1365 H   0  0  0  0  0  0  0  0  0  0  0  0
    3.4344    0.6003   -1.6968 N   0  0  0  0  0  0  0  0  0  0  0  0
    4.3997    0.3904   -1.9115 H   0  0  0  0  0  0  0  0  0  0  0  0
    2.3755   -0.2778   -1.7614 C   0  0  0  0  0  0  0  0  0  0  0  0
    2.4005   -1.3245   -2.0374 H   0  0  0  0  0  0  0  0  0  0  0  0
   -0.9851    1.3114    0.6698 C   0  0  0  0  0  0  0  0  0  0  0  0
   -2.0377    1.8431    0.3168 O   0  0  0  0  0  0  0  0  0  0  0  0
   -0.1052    1.9265    1.4663 N   0  0  0  0  0  0  0  0  0  0  0  0
    0.7810    1.4586    1.6201 H   0  0  0  0  0  0  0  0  0  0  0  0
   -0.2724    3.2715    2.0119 C   0  0  0  0  0  0  0  0  0  0  0  0
   -1.3249    3.4549    2.2426 H   0  0  0  0  0  0  0  0  0  0  0  0
    0.3167    3.3776    2.9239 H   0  0  0  0  0  0  0  0  0  0  0  0
    0.0609    4.0073    1.2782 H   0  0  0  0  0  0  0  0  0  0  0  0
  5  6  2  0  0  0  0
  5  7  1  0  0  0  0
  2  3  1  0  0  0  0
  2  4  1  0  0  0  0
  2  5  1  0  0  0  0
  1  2  1  0  0  0  0
 22 23  2  0  0  0  0
 22 24  1  0  0  0  0
 20 21  1  0  0  0  0
 18 19  1  0  0  0  0
 18 20  1  0  0  0  0
 16 17  1  0  0  0  0
 16 18  1  0  0  0  0
 15 16  2  0  0  0  0
 14 15  1  0  0  0  0
 14 20  2  0  0  0  0
 11 12  1  0  0  0  0
 11 13  1  0  0  0  0
 11 14  1  0  0  0  0
  9 10  1  0  0  0  0
  9 11  1  0  0  0  0
  9 22  1  0  0  0  0
  7  8  1  0  0  0  0
  7  9  1  0  0  0  0
 26 27  1  0  0  0  0
 26 28  1  0  0  0  0
 26 29  1  0  0  0  0
 24 25  1  0  0  0  0
 24 26  1  0  0  0  0
M  END
$$$$
default_name
  -OEChem-02102213163D

 29 29  0     1  0  0  0  0  0999 V2000
   -2.9561   -3.9186    1.3887 H   0  0  0  0  0  0  0  0  0  0  0  0
   -3.1191   -2.9346    0.9517 C   0  0  0  0  0  0  0  0  0  0  0  0
   -3.7811   -2.3546    1.5917 H   0  0  0  0  0  0  0  0  0  0  0  0
   -3.5591   -3.0406   -0.0383 H   0  0  0  0  0  0  0  0  0  0  0  0
   -1.7921   -2.2226    0.8327 C   0  0  0  0  0  0  0  0  0  0  0  0
   -0.7611   -2.7766    1.1927 O   0  0  0  0  0  0  0  0  0  0  0  0
   -1.8201   -0.9926    0.3247 N   0  0  0  0  0  0  0  0  0  0  0  0
   -2.7141   -0.5816    0.0927 H   0  0  0  0  0  0  0  0  0  0  0  0
   -0.6481   -0.1156    0.2017 C   0  0  1  0  0  0  0  0  0  0  0  0
    0.1344   -0.4988    0.8596 H   0  0  0  0  0  0  0  0  0  0  0  0
   -0.1211   -0.1520   -1.2460 C   0  0  0  0  0  0  0  0  0  0  0  0
   -0.0811   -1.1836   -1.5985 H   0  0  0  0  0  0  0  0  0  0  0  0
   -0.8029    0.3924   -1.9007 H   0  0  0  0  0  0  0  0  0  0  0  0
    1.2686    0.4219   -1.3790 C   0  0  0  0  0  0  0  0  0  0  0  0
    1.7232    1.6060   -0.7971 N   0  0  0  0  0  0  0  0  0  0  0  0
    3.0179    1.7082   -1.1313 C   0  0  0  0  0  0  0  0  0  0  0  0
    3.6621    2.5292   -0.8427 H   0  0  0  0  0  0  0  0  0  0  0  0
    3.3990    0.6476   -1.8629 N   0  0  0  0  0  0  0  0  0  0  0  0
    4.3314    0.4847   -2.2177 H   0  0  0  0  0  0  0  0  0  0  0  0
    2.3089   -0.1779   -2.0264 C   0  0  0  0  0  0  0  0  0  0  0  0
    2.2710   -1.1283   -2.5438 H   0  0  0  0  0  0  0  0  0  0  0  0
   -0.9851    1.3114    0.6698 C   0  0  0  0  0  0  0  0  0  0  0  0
   -2.0377    1.8431    0.3168 O   0  0  0  0  0  0  0  0  0  0  0  0
   -0.1052    1.9265    1.4663 N   0  0  0  0  0  0  0  0  0  0  0  0
    0.7810    1.4586    1.6201 H   0  0  0  0  0  0  0  0  0  0  0  0
   -0.2724    3.2715    2.0119 C   0  0  0  0  0  0  0  0  0  0  0  0
   -1.3249    3.4549    2.2426 H   0  0  0  0  0  0  0  0  0  0  0  0
    0.3167    3.3776    2.9239 H   0  0  0  0  0  0  0  0  0  0  0  0
    0.0609    4.0073    1.2782 H   0  0  0  0  0  0  0  0  0  0  0  0
  5  6  2  0  0  0  0
  5  7  1  0  0  0  0
  2  3  1  0  0  0  0
  2  4  1  0  0  0  0
  2  5  1  0  0  0  0
  1  2  1  0  0  0  0
 22 23  2  0  0  0  0
 22 24  1  0  0  0  0
 20 21  1  0  0  0  0
 18 19  1  0  0  0  0
 18 20  1  0  0  0  0
 16 17  1  0  0  0  0
 16 18  1  0  0  0  0
 15 16  2  0  0  0  0
 14 15  1  0  0  0  0
 14 20  2  0  0  0  0
 11 12  1  0  0  0  0
 11 13  1  0  0  0  0
 11 14  1  0  0  0  0
  9 10  1  0  0  0  0
  9 11  1  0  0  0  0
  9 22  1  0  0  0  0
  7  8  1  0  0  0  0
  7  9  1  0  0  0  0
 26 27  1  0  0  0  0
 26 28  1  0  0  0  0
 26 29  1  0  0  0  0
 24 25  1  0  0  0  0
 24 26  1  0  0  0  0
M  END
$$$$
default_name
  -OEChem-02102213163D

 29 29  0     1  0  0  0  0  0999 V2000
   -2.9561   -3.9186    1.3887 H   0  0  0  0  0  0  0  0  0  0  0  0
   -3.1191   -2.9346    0.9517 C   0  0  0  0  0  0  0  0  0  0  0  0
   -3.7811   -2.3546    1.5917 H   0  0  0  0  0  0  0  0  0  0  0  0
   -3.5591   -3.0406   -0.0383 H   0  0  0  0  0  0  0  0  0  0  0  0
   -1.7921   -2.2226    0.8327 C   0  0  0  0  0  0  0  0  0  0  0  0
   -0.7611   -2.7766    1.1927 O   0  0  0  0  0  0  0  0  0  0  0  0
   -1.8201   -0.9926    0.3247 N   0  0  0  0  0  0  0  0  0  0  0  0
   -2.7141   -0.5816    0.0927 H   0  0  0  0  0  0  0  0  0  0  0  0
   -0.6481   -0.1156    0.2017 C   0  0  1  0  0  0  0  0  0  0  0  0
    0.1344   -0.4988    0.8596 H   0  0  0  0  0  0  0  0  0  0  0  0
   -0.1211   -0.1520   -1.2460 C   0  0  0  0  0  0  0  0  0  0  0  0
   -0.0811   -1.1836   -1.5985 H   0  0  0  0  0  0  0  0  0  0  0  0
   -0.8029    0.3924   -1.9007 H   0  0  0  0  0  0  0  0  0  0  0  0
    1.2686    0.4219   -1.3790 C   0  0  0  0  0  0  0  0  0  0  0  0
    1.8177    1.4272   -0.5820 N   0  0  0  0  0  0  0  0  0  0  0  0
    3.0772    1.5924   -1.0116 C   0  0  0  0  0  0  0  0  0  0  0  0
    3.7741    2.3133   -0.6032 H   0  0  0  0  0  0  0  0  0  0  0  0
    3.3495    0.7337   -2.0085 N   0  0  0  0  0  0  0  0  0  0  0  0
    4.2375    0.6504   -2.4843 H   0  0  0  0  0  0  0  0  0  0  0  0
    2.2208   -0.0167   -2.2520 C   0  0  0  0  0  0  0  0  0  0  0  0
    2.1005   -0.8151   -2.9735 H   0  0  0  0  0  0  0  0  0  0  0  0
   -0.9851    1.3114    0.6698 C   0  0  0  0  0  0  0  0  0  0  0  0
   -2.0377    1.8431    0.3168 O   0  0  0  0  0  0  0  0  0  0  0  0
   -0.1052    1.9265    1.4663 N   0  0  0  0  0  0  0  0  0  0  0  0
    0.7810    1.4586    1.6201 H   0  0  0  0  0  0  0  0  0  0  0  0
   -0.2724    3.2715    2.0119 C   0  0  0  0  0  0  0  0  0  0  0  0
   -1.3249    3.4549    2.2426 H   0  0  0  0  0  0  0  0  0  0  0  0
    0.3167    3.3776    2.9239 H   0  0  0  0  0  0  0  0  0  0  0  0
    0.0609    4.0073    1.2782 H   0  0  0  0  0  0  0  0  0  0  0  0
  5  6  2  0  0  0  0
  5  7  1  0  0  0  0
  2  3  1  0  0  0  0
  2  4  1  0  0  0  0
  2  5  1  0  0  0  0
  1  2  1  0  0  0  0
 22 23  2  0  0  0  0
 22 24  1  0  0  0  0
 20 21  1  0  0  0  0
 18 19  1  0  0  0  0
 18 20  1  0  0  0  0
 16 17  1  0  0  0  0
 16 18  1  0  0  0  0
 15 16  2  0  0  0  0
 14 15  1  0  0  0  0
 14 20  2  0  0  0  0
 11 12  1  0  0  0  0
 11 13  1  0  0  0  0
 11 14  1  0  0  0  0
  9 10  1  0  0  0  0
  9 11  1  0  0  0  0
  9 22  1  0  0  0  0
  7  8  1  0  0  0  0
  7  9  1  0  0  0  0
 26 27  1  0  0  0  0
 26 28  1  0  0  0  0
 26 29  1  0  0  0  0
 24 25  1  0  0  0  0
 24 26  1  0  0  0  0
M  END
$$$$
default_name
  -OEChem-02102213163D

 29 29  0     1  0  0  0  0  0999 V2000
   -2.9561   -3.9186    1.3887 H   0  0  0  0  0  0  0  0  0  0  0  0
   -3.1191   -2.9346    0.9517 C   0  0  0  0  0  0  0  0  0  0  0  0
   -3.7811   -2.3546    1.5917 H   0  0  0  0  0  0  0  0  0  0  0  0
   -3.5591   -3.0406   -0.0383 H   0  0  0  0  0  0  0  0  0  0  0  0
   -1.7921   -2.2226    0.8327 C   0  0  0  0  0  0  0  0  0  0  0  0
   -0.7611   -2.7766    1.1927 O   0  0  0  0  0  0  0  0  0  0  0  0
   -1.8201   -0.9926    0.3247 N   0  0  0  0  0  0  0  0  0  0  0  0
   -2.7141   -0.5816    0.0927 H   0  0  0  0  0  0  0  0  0  0  0  0
   -0.6481   -0.1156    0.2017 C   0  0  1  0  0  0  0  0  0  0  0  0
    0.1344   -0.4988    0.8596 H   0  0  0  0  0  0  0  0  0  0  0  0
   -0.1211   -0.1520   -1.2460 C   0  0  0  0  0  0  0  0  0  0  0  0
   -0.0811   -1.1836   -1.5985 H   0  0  0  0  0  0  0  0  0  0  0  0
   -0.8029    0.3924   -1.9007 H   0  0  0  0  0  0  0  0  0  0  0  0
    1.2686    0.4219   -1.3790 C   0  0  0  0  0  0  0  0  0  0  0  0
    1.9260    1.2011   -0.4261 N   0  0  0  0  0  0  0  0  0  0  0  0
    3.1436    1.4506   -0.9294 C   0  0  0  0  0  0  0  0  0  0  0  0
    3.9010    2.0451   -0.4343 H   0  0  0  0  0  0  0  0  0  0  0  0
    3.2894    0.8527   -2.1238 N   0  0  0  0  0  0  0  0  0  0  0  0
    4.1243    0.8760   -2.6931 H   0  0  0  0  0  0  0  0  0  0  0  0
    2.1171    0.1947   -2.4228 C   0  0  0  0  0  0  0  0  0  0  0  0
    1.9007   -0.4063   -3.2971 H   0  0  0  0  0  0  0  0  0  0  0  0
   -0.9851    1.3114    0.6698 C   0  0  0  0  0  0  0  0  0  0  0  0
   -2.0377    1.8431    0.3168 O   0  0  0  0  0  0  0  0  0  0  0  0
   -0.1052    1.9265    1.4663 N   0  0  0  0  0  0  0  0  0  0  0  0
    0.7810    1.4586    1.6201 H   0  0  0  0  0  0  0  0  0  0  0  0
   -0.2724    3.2715    2.0119 C   0  0  0  0  0  0  0  0  0  0  0  0
   -1.3249    3.4549    2.2426 H   0  0  0  0  0  0  0  0  0  0  0  0
    0.3167    3.3776    2.9239 H   0  0  0  0  0  0  0  0  0  0  0  0
    0.0609    4.0073    1.2782 H   0  0  0  0  0  0  0  0  0  0  0  0
  5  6  2  0  0  0  0
  5  7  1  0  0  0  0
  2  3  1  0  0  0  0
  2  4  1  0  0  0  0
  2  5  1  0  0  0  0
  1  2  1  0  0  0  0
 22 23  2  0  0  0  0
 22 24  1  0  0  0  0
 20 21  1  0  0  0  0
 18 19  1  0  0  0  0
 18 20  1  0  0  0  0
 16 17  1  0  0  0  0
 16 18  1  0  0  0  0
 15 16  2  0  0  0  0
 14 15  1  0  0  0  0
 14 20  2  0  0  0  0
 11 12  1  0  0  0  0
 11 13  1  0  0  0  0
 11 14  1  0  0  0  0
  9 10  1  0  0  0  0
  9 11  1  0  0  0  0
  9 22  1  0  0  0  0
  7  8  1  0  0  0  0
  7  9  1  0  0  0  0
 26 27  1  0  0  0  0
 26 28  1  0  0  0  0
 26 29  1  0  0  0  0
 24 25  1  0  0  0  0
 24 26  1  0  0  0  0
M  END
$$$$
default_name
  -OEChem-02102213163D

 29 29  0     1  0  0  0  0  0999 V2000
   -2.9561   -3.9186    1.3887 H   0  0  0  0  0  0  0  0  0  0  0  0
   -3.1191   -2.9346    0.9517 C   0  0  0  0  0  0  0  0  0  0  0  0
   -3.7811   -2.3546    1.5917 H   0  0  0  0  0  0  0  0  0  0  0  0
   -3.5591   -3.0406   -0.0383 H   0  0  0  0  0  0  0  0  0  0  0  0
   -1.7921   -2.2226    0.8327 C   0  0  0  0  0  0  0  0  0  0  0  0
   -0.7611   -2.7766    1.1927 O   0  0  0  0  0  0  0  0  0  0  0  0
   -1.8201   -0.9926    0.3247 N   0  0  0  0  0  0  0  0  0  0  0  0
   -2.7141   -0.5816    0.0927 H   0  0  0  0  0  0  0  0  0  0  0  0
   -0.6481   -0.1156    0.2017 C   0  0  1  0  0  0  0  0  0  0  0  0
    0.1344   -0.4988    0.8596 H   0  0  0  0  0  0  0  0  0  0  0  0
   -0.1211   -0.1520   -1.2460 C   0  0  0  0  0  0  0  0  0  0  0  0
   -0.0811   -1.1836   -1.5985 H   0  0  0  0  0  0  0  0  0  0  0  0
   -0.8029    0.3924   -1.9007 H   0  0  0  0  0  0  0  0  0  0  0  0
    1.2686    0.4219   -1.3790 C   0  0  0  0  0  0  0  0  0  0  0  0
    2.0407    0.9430   -0.3400 N   0  0  0  0  0  0  0  0  0  0  0  0
    3.2126    1.2926   -0.8903 C   0  0  0  0  0  0  0  0  0  0  0  0
    4.0341    1.7430   -0.3476 H   0  0  0  0  0  0  0  0  0  0  0  0
    3.2226    0.9965   -2.2008 N   0  0  0  0  0  0  0  0  0  0  0  0
    3.9996    1.1463   -2.8298 H   0  0  0  0  0  0  0  0  0  0  0  0
    2.0050    0.4420   -2.5273 C   0  0  0  0  0  0  0  0  0  0  0  0
    1.6853    0.0702   -3.4926 H   0  0  0  0  0  0  0  0  0  0  0  0
   -0.9851    1.3114    0.6698 C   0  0  0  0  0  0  0  0  0  0  0  0
   -2.0377    1.8431    0.3168 O   0  0  0  0  0  0  0  0  0  0  0  0
   -0.1052    1.9265    1.4663 N   0  0  0  0  0  0  0  0  0  0  0  0
    0.7810    1.4586    1.6201 H   0  0  0  0  0  0  0  0  0  0  0  0
   -0.2724    3.2715    2.0119 C   0  0  0  0  0  0  0  0  0  0  0  0
   -1.3249    3.4549    2.2426 H   0  0  0  0  0  0  0  0  0  0  0  0
    0.3167    3.3776    2.9239 H   0  0  0  0  0  0  0  0  0  0  0  0
    0.0609    4.0073    1.2782 H   0  0  0  0  0  0  0  0  0  0  0  0
  5  6  2  0  0  0  0
  5  7  1  0  0  0  0
  2  3  1  0  0  0  0
  2  4  1  0  0  0  0
  2  5  1  0  0  0  0
  1  2  1  0  0  0  0
 22 23  2  0  0  0  0
 22 24  1  0  0  0  0
 20 21  1  0  0  0  0
 18 19  1  0  0  0  0
 18 20  1  0  0  0  0
 16 17  1  0  0  0  0
 16 18  1  0  0  0  0
 15 16  2  0  0  0  0
 14 15  1  0  0  0  0
 14 20  2  0  0  0  0
 11 12  1  0  0  0  0
 11 13  1  0  0  0  0
 11 14  1  0  0  0  0
  9 10  1  0  0  0  0
  9 11  1  0  0  0  0
  9 22  1  0  0  0  0
  7  8  1  0  0  0  0
  7  9  1  0  0  0  0
 26 27  1  0  0  0  0
 26 28  1  0  0  0  0
 26 29  1  0  0  0  0
 24 25  1  0  0  0  0
 24 26  1  0  0  0  0
M  END
$$$$
default_name
  -OEChem-02102213163D

 29 29  0     1  0  0  0  0  0999 V2000
   -2.9561   -3.9186    1.3887 H   0  0  0  0  0  0  0  0  0  0  0  0
   -3.1191   -2.9346    0.9517 C   0  0  0  0  0  0  0  0  0  0  0  0
   -3.7811   -2.3546    1.5917 H   0  0  0  0  0  0  0  0  0  0  0  0
   -3.5591   -3.0406   -0.0383 H   0  0  0  0  0  0  0  0  0  0  0  0
   -1.7921   -2.2226    0.8327 C   0  0  0  0  0  0  0  0  0  0  0  0
   -0.7611   -2.7766    1.1927 O   0  0  0  0  0  0  0  0  0  0  0  0
   -1.8201   -0.9926    0.3247 N   0  0  0  0  0  0  0  0  0  0  0  0
   -2.7141   -0.5816    0.0927 H   0  0  0  0  0  0  0  0  0  0  0  0
   -0.6481   -0.1156    0.2017 C   0  0  1  0  0  0  0  0  0  0  0  0
    0.1344   -0.4988    0.8596 H   0  0  0  0  0  0  0  0  0  0  0  0
   -0.1211   -0.1520   -1.2460 C   0  0  0  0  0  0  0  0  0  0  0  0
   -0.0811   -1.1836   -1.5985 H   0  0  0  0  0  0  0  0  0  0  0  0
   -0.8029    0.3924   -1.9007 H   0  0  0  0  0  0  0  0  0  0  0  0
    1.2686    0.4219   -1.3790 C   0  0  0  0  0  0  0  0  0  0  0  0
    2.1542    0.6707   -0.3297 N   0  0  0  0  0  0  0  0  0  0  0  0
    3.2795    1.1290   -0.8970 C   0  0  0  0  0  0  0  0  0  0  0  0
    4.1643    1.4274   -0.3489 H   0  0  0  0  0  0  0  0  0  0  0  0
    3.1538    1.1552   -2.2345 N   0  0  0  0  0  0  0  0  0  0  0  0
    3.8719    1.4429   -2.8852 H   0  0  0  0  0  0  0  0  0  0  0  0
    1.8921    0.7084   -2.5582 C   0  0  0  0  0  0  0  0  0  0  0  0
    1.4688    0.5820   -3.5467 H   0  0  0  0  0  0  0  0  0  0  0  0
   -0.9851    1.3114    0.6698 C   0  0  0  0  0  0  0  0  0  0  0  0
   -2.0377    1.8431    0.3168 O   0  0  0  0  0  0  0  0  0  0  0  0
   -0.1052    1.9265    1.4663 N   0  0  0  0  0  0  0  0  0  0  0  0
    0.7810    1.4586    1.6201 H   0  0  0  0  0  0  0  0  0  0  0  0
   -0.2724    3.2715    2.0119 C   0  0  0  0  0  0  0  0  0  0  0  0
   -1.3249    3.4549    2.2426 H   0  0  0  0  0  0  0  0  0  0  0  0
    0.3167    3.3776    2.9239 H   0  0  0  0  0  0  0  0  0  0  0  0
    0.0609    4.0073    1.2782 H   0  0  0  0  0  0  0  0  0  0  0  0
  5  6  2  0  0  0  0
  5  7  1  0  0  0  0
  2  3  1  0  0  0  0
  2  4  1  0  0  0  0
  2  5  1  0  0  0  0
  1  2  1  0  0  0  0
 22 23  2  0  0  0  0
 22 24  1  0  0  0  0
 20 21  1  0  0  0  0
 18 19  1  0  0  0  0
 18 20  1  0  0  0  0
 16 17  1  0  0  0  0
 16 18  1  0  0  0  0
 15 16  2  0  0  0  0
 14 15  1  0  0  0  0
 14 20  2  0  0  0  0
 11 12  1  0  0  0  0
 11 13  1  0  0  0  0
 11 14  1  0  0  0  0
  9 10  1  0  0  0  0
  9 11  1  0  0  0  0
  9 22  1  0  0  0  0
  7  8  1  0  0  0  0
  7  9  1  0  0  0  0
 26 27  1  0  0  0  0
 26 28  1  0  0  0  0
 26 29  1  0  0  0  0
 24 25  1  0  0  0  0
 24 26  1  0  0  0  0
M  END
$$$$
default_name
  -OEChem-02102213163D

 29 29  0     1  0  0  0  0  0999 V2000
   -2.9561   -3.9186    1.3887 H   0  0  0  0  0  0  0  0  0  0  0  0
   -3.1191   -2.9346    0.9517 C   0  0  0  0  0  0  0  0  0  0  0  0
   -3.7811   -2.3546    1.5917 H   0  0  0  0  0  0  0  0  0  0  0  0
   -3.5591   -3.0406   -0.0383 H   0  0  0  0  0  0  0  0  0  0  0  0
   -1.7921   -2.2226    0.8327 C   0  0  0  0  0  0  0  0  0  0  0  0
   -0.7611   -2.7766    1.1927 O   0  0  0  0  0  0  0  0  0  0  0  0
   -1.8201   -0.9926    0.3247 N   0  0  0  0  0  0  0  0  0  0  0  0
   -2.7141   -0.5816    0.0927 H   0  0  0  0  0  0  0  0  0  0  0  0
   -0.6481   -0.1156    0.2017 C   0  0  1  0  0  0  0  0  0  0  0  0
    0.1344   -0.4988    0.8596 H   0  0  0  0  0  0  0  0  0  0  0  0
   -0.1211   -0.1520   -1.2460 C   0  0  0  0  0  0  0  0  0  0  0  0
   -0.0811   -1.1836   -1.5985 H   0  0  0  0  0  0  0  0  0  0  0  0
   -0.8029    0.3924   -1.9007 H   0  0  0  0  0  0  0  0  0  0  0  0
    1.2686    0.4219   -1.3790 C   0  0  0  0  0  0  0  0  0  0  0  0
    2.2586    0.4025   -0.3957 N   0  0  0  0  0  0  0  0  0  0  0  0
    3.3397    0.9711   -0.9490 C   0  0  0  0  0  0  0  0  0  0  0  0
    4.2827    1.1199   -0.4382 H   0  0  0  0  0  0  0  0  0  0  0  0
    3.0877    1.3181   -2.2223 N   0  0  0  0  0  0  0  0  0  0  0  0
    3.7498    1.7454   -2.8555 H   0  0  0  0  0  0  0  0  0  0  0  0
    1.7860    0.9756   -2.5134 C   0  0  0  0  0  0  0  0  0  0  0  0
    1.2660    1.0942   -3.4557 H   0  0  0  0  0  0  0  0  0  0  0  0
   -0.9851    1.3114    0.6698 C   0  0  0  0  0  0  0  0  0  0  0  0
   -2.0377    1.8431    0.3168 O   0  0  0  0  0  0  0  0  0  0  0  0
   -0.1052    1.9265    1.4663 N   0  0  0  0  0  0  0  0  0  0  0  0
    0.7810    1.4586    1.6201 H   0  0  0  0  0  0  0  0  0  0  0  0
   -0.2724    3.2715    2.0119 C   0  0  0  0  0  0  0  0  0  0  0  0
   -1.3249    3.4549    2.2426 H   0  0  0  0  0  0  0  0  0  0  0  0
    0.3167    3.3776    2.9239 H   0  0  0  0  0  0  0  0  0  0  0  0
    0.0609    4.0073    1.2782 H   0  0  0  0  0  0  0  0  0  0  0  0
  5  6  2  0  0  0  0
  5  7  1  0  0  0  0
  2  3  1  0  0  0  0
  2  4  1  0  0  0  0
  2  5  1  0  0  0  0
  1  2  1  0  0  0  0
 22 23  2  0  0  0  0
 22 24  1  0  0  0  0
 20 21  1  0  0  0  0
 18 19  1  0  0  0  0
 18 20  1  0  0  0  0
 16 17  1  0  0  0  0
 16 18  1  0  0  0  0
 15 16  2  0  0  0  0
 14 15  1  0  0  0  0
 14 20  2  0  0  0  0
 11 12  1  0  0  0  0
 11 13  1  0  0  0  0
 11 14  1  0  0  0  0
  9 10  1  0  0  0  0
  9 11  1  0  0  0  0
  9 22  1  0  0  0  0
  7  8  1  0  0  0  0
  7  9  1  0  0  0  0
 26 27  1  0  0  0  0
 26 28  1  0  0  0  0
 26 29  1  0  0  0  0
 24 25  1  0  0  0  0
 24 26  1  0  0  0  0
M  END
$$$$
default_name
  -OEChem-02102213163D

 29 29  0     1  0  0  0  0  0999 V2000
   -2.9561   -3.9186    1.3887 H   0  0  0  0  0  0  0  0  0  0  0  0
   -3.1191   -2.9346    0.9517 C   0  0  0  0  0  0  0  0  0  0  0  0
   -3.7811   -2.3546    1.5917 H   0  0  0  0  0  0  0  0  0  0  0  0
   -3.5591   -3.0406   -0.0383 H   0  0  0  0  0  0  0  0  0  0  0  0
   -1.7921   -2.2226    0.8327 C   0  0  0  0  0  0  0  0  0  0  0  0
   -0.7611   -2.7766    1.1927 O   0  0  0  0  0  0  0  0  0  0  0  0
   -1.8201   -0.9926    0.3247 N   0  0  0  0  0  0  0  0  0  0  0  0
   -2.7141   -0.5816    0.0927 H   0  0  0  0  0  0  0  0  0  0  0  0
   -0.6481   -0.1156    0.2017 C   0  0  1  0  0  0  0  0  0  0  0  0
    0.1344   -0.4988    0.8596 H   0  0  0  0  0  0  0  0  0  0  0  0
   -0.1211   -0.1520   -1.2460 C   0  0  0  0  0  0  0  0  0  0  0  0
   -0.0811   -1.1836   -1.5985 H   0  0  0  0  0  0  0  0  0  0  0  0
   -0.8029    0.3924   -1.9007 H   0  0  0  0  0  0  0  0  0  0  0  0
    1.2686    0.4219   -1.3790 C   0  0  0  0  0  0  0  0  0  0  0  0
    2.3468    0.1569   -0.5337 N   0  0  0  0  0  0  0  0  0  0  0  0
    3.3892    0.8296   -1.0428 C   0  0  0  0  0  0  0  0  0  0  0  0
    4.3813    0.8415   -0.6094 H   0  0  0  0  0  0  0  0  0  0  0  0
    3.0288    1.4741   -2.1653 N   0  0  0  0  0  0  0  0  0  0  0  0
    3.6417    2.0334   -2.7427 H   0  0  0  0  0  0  0  0  0  0  0  0
    1.6941    1.2254   -2.3961 C   0  0  0  0  0  0  0  0  0  0  0  0
    1.0907    1.5718   -3.2258 H   0  0  0  0  0  0  0  0  0  0  0  0
   -0.9851    1.3114    0.6698 C   0  0  0  0  0  0  0  0  0  0  0  0
   -2.0377    1.8431    0.3168 O   0  0  0  0  0  0  0  0  0  0  0  0
   -0.1052    1.9265    1.4663 N   0  0  0  0  0  0  0  0  0  0  0  0
    0.7810    1.4586    1.6201 H   0  0  0  0  0  0  0  0  0  0  0  0
   -0.2724    3.2715    2.0119 C   0  0  0  0  0  0  0  0  0  0  0  0
   -1.3249    3.4549    2.2426 H   0  0  0  0  0  0  0  0  0  0  0  0
    0.3167    3.3776    2.9239 H   0  0  0  0  0  0  0  0  0  0  0  0
    0.0609    4.0073    1.2782 H   0  0  0  0  0  0  0  0  0  0  0  0
  5  6  2  0  0  0  0
  5  7  1  0  0  0  0
  2  3  1  0  0  0  0
  2  4  1  0  0  0  0
  2  5  1  0  0  0  0
  1  2  1  0  0  0  0
 22 23  2  0  0  0  0
 22 24  1  0  0  0  0
 20 21  1  0  0  0  0
 18 19  1  0  0  0  0
 18 20  1  0  0  0  0
 16 17  1  0  0  0  0
 16 18  1  0  0  0  0
 15 16  2  0  0  0  0
 14 15  1  0  0  0  0
 14 20  2  0  0  0  0
 11 12  1  0  0  0  0
 11 13  1  0  0  0  0
 11 14  1  0  0  0  0
  9 10  1  0  0  0  0
  9 11  1  0  0  0  0
  9 22  1  0  0  0  0
  7  8  1  0  0  0  0
  7  9  1  0  0  0  0
 26 27  1  0  0  0  0
 26 28  1  0  0  0  0
 26 29  1  0  0  0  0
 24 25  1  0  0  0  0
 24 26  1  0  0  0  0
M  END
$$$$
default_name
  -OEChem-02102213163D

 29 29  0     1  0  0  0  0  0999 V2000
   -2.9561   -3.9186    1.3887 H   0  0  0  0  0  0  0  0  0  0  0  0
   -3.1191   -2.9346    0.9517 C   0  0  0  0  0  0  0  0  0  0  0  0
   -3.7811   -2.3546    1.5917 H   0  0  0  0  0  0  0  0  0  0  0  0
   -3.5591   -3.0406   -0.0383 H   0  0  0  0  0  0  0  0  0  0  0  0
   -1.7921   -2.2226    0.8327 C   0  0  0  0  0  0  0  0  0  0  0  0
   -0.7611   -2.7766    1.1927 O   0  0  0  0  0  0  0  0  0  0  0  0
   -1.8201   -0.9926    0.3247 N   0  0  0  0  0  0  0  0  0  0  0  0
   -2.7141   -0.5816    0.0927 H   0  0  0  0  0  0  0  0  0  0  0  0
   -0.6481   -0.1156    0.2017 C   0  0  1  0  0  0  0  0  0  0  0  0
    0.1344   -0.4988    0.8596 H   0  0  0  0  0  0  0  0  0  0  0  0
   -0.1211   -0.1520   -1.2460 C   0  0  0  0  0  0  0  0  0  0  0  0
   -0.0811   -1.1836   -1.5985 H   0  0  0  0  0  0  0  0  0  0  0  0
   -0.8029    0.3924   -1.9007 H   0  0  0  0  0  0  0  0  0  0  0  0
    1.2686    0.4219   -1.3790 C   0  0  0  0  0  0  0  0  0  0  0  0
    2.4129   -0.0495   -0.7342 N   0  0  0  0  0  0  0  0  0  0  0  0
    3.4245    0.7141   -1.1720 C   0  0  0  0  0  0  0  0  0  0  0  0
    4.4533    0.6111   -0.8508 H   0  0  0  0  0  0  0  0  0  0  0  0
    2.9810    1.6126   -2.0672 N   0  0  0  0  0  0  0  0  0  0  0  0
    3.5549    2.2871   -2.5545 H   0  0  0  0  0  0  0  0  0  0  0  0
    1.6225    1.4409   -2.2142 C   0  0  0  0  0  0  0  0  0  0  0  0
    0.9550    1.9824   -2.8726 H   0  0  0  0  0  0  0  0  0  0  0  0
   -0.9851    1.3114    0.6698 C   0  0  0  0  0  0  0  0  0  0  0  0
   -2.0377    1.8431    0.3168 O   0  0  0  0  0  0  0  0  0  0  0  0
   -0.1052    1.9265    1.4663 N   0  0  0  0  0  0  0  0  0  0  0  0
    0.7810    1.4586    1.6201 H   0  0  0  0  0  0  0  0  0  0  0  0
   -0.2724    3.2715    2.0119 C   0  0  0  0  0  0  0  0  0  0  0  0
   -1.3249    3.4549    2.2426 H   0  0  0  0  0  0  0  0  0  0  0  0
    0.3167    3.3776    2.9239 H   0  0  0  0  0  0  0  0  0  0  0  0
    0.0609    4.0073    1.2782 H   0  0  0  0  0  0  0  0  0  0  0  0
  5  6  2  0  0  0  0
  5  7  1  0  0  0  0
  2  3  1  0  0  0  0
  2  4  1  0  0  0  0
  2  5  1  0  0  0  0
  1  2  1  0  0  0  0
 22 23  2  0  0  0  0
 22 24  1  0  0  0  0
 20 21  1  0  0  0  0
 18 19  1  0  0  0  0
 18 20  1  0  0  0  0
 16 17  1  0  0  0  0
 16 18  1  0  0  0  0
 15 16  2  0  0  0  0
 14 15  1  0  0  0  0
 14 20  2  0  0  0  0
 11 12  1  0  0  0  0
 11 13  1  0  0  0  0
 11 14  1  0  0  0  0
  9 10  1  0  0  0  0
  9 11  1  0  0  0  0
  9 22  1  0  0  0  0
  7  8  1  0  0  0  0
  7  9  1  0  0  0  0
 26 27  1  0  0  0  0
 26 28  1  0  0  0  0
 26 29  1  0  0  0  0
 24 25  1  0  0  0  0
 24 26  1  0  0  0  0
M  END
$$$$
default_name
  -OEChem-02102213163D

 29 29  0     1  0  0  0  0  0999 V2000
   -2.9561   -3.9186    1.3887 H   0  0  0  0  0  0  0  0  0  0  0  0
   -3.1191   -2.9346    0.9517 C   0  0  0  0  0  0  0  0  0  0  0  0
   -3.7811   -2.3546    1.5917 H   0  0  0  0  0  0  0  0  0  0  0  0
   -3.5591   -3.0406   -0.0383 H   0  0  0  0  0  0  0  0  0  0  0  0
   -1.7921   -2.2226    0.8327 C   0  0  0  0  0  0  0  0  0  0  0  0
   -0.7611   -2.7766    1.1927 O   0  0  0  0  0  0  0  0  0  0  0  0
   -1.8201   -0.9926    0.3247 N   0  0  0  0  0  0  0  0  0  0  0  0
   -2.7141   -0.5816    0.0927 H   0  0  0  0  0  0  0  0  0  0  0  0
   -0.6481   -0.1156    0.2017 C   0  0  1  0  0  0  0  0  0  0  0  0
    0.1344   -0.4988    0.8596 H   0  0  0  0  0  0  0  0  0  0  0  0
   -0.1211   -0.1520   -1.2460 C   0  0  0  0  0  0  0  0  0  0  0  0
   -0.0811   -1.1836   -1.5985 H   0  0  0  0  0  0  0  0  0  0  0  0
   -0.8029    0.3924   -1.9007 H   0  0  0  0  0  0  0  0  0  0  0  0
    1.2686    0.4219   -1.3790 C   0  0  0  0  0  0  0  0  0  0  0  0
    2.4522   -0.2026   -0.9836 N   0  0  0  0  0  0  0  0  0  0  0  0
    3.4433    0.6326   -1.3278 C   0  0  0  0  0  0  0  0  0  0  0  0
    4.4939    0.4445   -1.1459 H   0  0  0  0  0  0  0  0  0  0  0  0
    2.9477    1.7240   -1.9348 N   0  0  0  0  0  0  0  0  0  0  0  0
    3.4955    2.4893   -2.3037 H   0  0  0  0  0  0  0  0  0  0  0  0
    1.5762    1.6073   -1.9801 C   0  0  0  0  0  0  0  0  0  0  0  0
    0.8680    2.2980   -2.4203 H   0  0  0  0  0  0  0  0  0  0  0  0
   -0.9851    1.3114    0.6698 C   0  0  0  0  0  0  0  0  0  0  0  0
   -2.0377    1.8431    0.3168 O   0  0  0  0  0  0  0  0  0  0  0  0
   -0.1052    1.9265    1.4663 N   0  0  0  0  0  0  0  0  0  0  0  0
    0.7810    1.4586    1.6201 H   0  0  0  0  0  0  0  0  0  0  0  0
   -0.2724    3.2715    2.0119 C   0  0  0  0  0  0  0  0  0  0  0  0
   -1.3249    3.4549    2.2426 H   0  0  0  0  0  0  0  0  0  0  0  0
    0.3167    3.3776    2.9239 H   0  0  0  0  0  0  0  0  0  0  0  0
    0.0609    4.0073    1.2782 H   0  0  0  0  0  0  0  0  0  0  0  0
  5  6  2  0  0  0  0
  5  7  1  0  0  0  0
  2  3  1  0  0  0  0
  2  4  1  0  0  0  0
  2  5  1  0  0  0  0
  1  2  1  0  0  0  0
 22 23  2  0  0  0  0
 22 24  1  0  0  0  0
 20 21  1  0  0  0  0
 18 19  1  0  0  0  0
 18 20  1  0  0  0  0
 16 17  1  0  0  0  0
 16 18  1  0  0  0  0
 15 16  2  0  0  0  0
 14 15  1  0  0  0  0
 14 20  2  0  0  0  0
 11 12  1  0  0  0  0
 11 13  1  0  0  0  0
 11 14  1  0  0  0  0
  9 10  1  0  0  0  0
  9 11  1  0  0  0  0
  9 22  1  0  0  0  0
  7  8  1  0  0  0  0
  7  9  1  0  0  0  0
 26 27  1  0  0  0  0
 26 28  1  0  0  0  0
 26 29  1  0  0  0  0
 24 25  1  0  0  0  0
 24 26  1  0  0  0  0
M  END
$$$$
default_name
  -OEChem-02102213163D

 29 29  0     1  0  0  0  0  0999 V2000
   -2.9561   -3.9186    1.3887 H   0  0  0  0  0  0  0  0  0  0  0  0
   -3.1191   -2.9346    0.9517 C   0  0  0  0  0  0  0  0  0  0  0  0
   -3.7811   -2.3546    1.5917 H   0  0  0  0  0  0  0  0  0  0  0  0
   -3.5591   -3.0406   -0.0383 H   0  0  0  0  0  0  0  0  0  0  0  0
   -1.7921   -2.2226    0.8327 C   0  0  0  0  0  0  0  0  0  0  0  0
   -0.7611   -2.7766    1.1927 O   0  0  0  0  0  0  0  0  0  0  0  0
   -1.8201   -0.9926    0.3247 N   0  0  0  0  0  0  0  0  0  0  0  0
   -2.7141   -0.5816    0.0927 H   0  0  0  0  0  0  0  0  0  0  0  0
   -0.6481   -0.1156    0.2017 C   0  0  1  0  0  0  0  0  0  0  0  0
    0.1344   -0.4988    0.8596 H   0  0  0  0  0  0  0  0  0  0  0  0
   -0.1211   -0.1520   -1.2460 C   0  0  0  0  0  0  0  0  0  0  0  0
   -0.0811   -1.1836   -1.5985 H   0  0  0  0  0  0  0  0  0  0  0  0
   -0.8029    0.3924   -1.9007 H   0  0  0  0  0  0  0  0  0  0  0  0
    1.2686    0.4219   -1.3790 C   0  0  0  0  0  0  0  0  0  0  0  0
    2.4622   -0.2920   -1.2648 N   0  0  0  0  0  0  0  0  0  0  0  0
    3.4442    0.5905   -1.4995 C   0  0  0  0  0  0  0  0  0  0  0  0
    4.5002    0.3529   -1.4747 H   0  0  0  0  0  0  0  0  0  0  0  0
    2.9310    1.8009   -1.7771 N   0  0  0  0  0  0  0  0  0  0  0  0
    3.4673    2.6262   -2.0074 H   0  0  0  0  0  0  0  0  0  0  0  0
    1.5583    1.7133   -1.7098 C   0  0  0  0  0  0  0  0  0  0  0  0
    0.8357    2.4970   -1.8996 H   0  0  0  0  0  0  0  0  0  0  0  0
   -0.9851    1.3114    0.6698 C   0  0  0  0  0  0  0  0  0  0  0  0
   -2.0377    1.8431    0.3168 O   0  0  0  0  0  0  0  0  0  0  0  0
   -0.1052    1.9265    1.4663 N   0  0  0  0  0  0  0  0  0  0  0  0
    0.7810    1.4586    1.6201 H   0  0  0  0  0  0  0  0  0  0  0  0
   -0.2724    3.2715    2.0119 C   0  0  0  0  0  0  0  0  0  0  0  0
   -1.3249    3.4549    2.2426 H   0  0  0  0  0  0  0  0  0  0  0  0
    0.3167    3.3776    2.9239 H   0  0  0  0  0  0  0  0  0  0  0  0
    0.0609    4.0073    1.2782 H   0  0  0  0  0  0  0  0  0  0  0  0
  5  6  2  0  0  0  0
  5  7  1  0  0  0  0
  2  3  1  0  0  0  0
  2  4  1  0  0  0  0
  2  5  1  0  0  0  0
  1  2  1  0  0  0  0
 22 23  2  0  0  0  0
 22 24  1  0  0  0  0
 20 21  1  0  0  0  0
 18 19  1  0  0  0  0
 18 20  1  0  0  0  0
 16 17  1  0  0  0  0
 16 18  1  0  0  0  0
 15 16  2  0  0  0  0
 14 15  1  0  0  0  0
 14 20  2  0  0  0  0
 11 12  1  0  0  0  0
 11 13  1  0  0  0  0
 11 14  1  0  0  0  0
  9 10  1  0  0  0  0
  9 11  1  0  0  0  0
  9 22  1  0  0  0  0
  7  8  1  0  0  0  0
  7  9  1  0  0  0  0
 26 27  1  0  0  0  0
 26 28  1  0  0  0  0
 26 29  1  0  0  0  0
 24 25  1  0  0  0  0
 24 26  1  0  0  0  0
M  END
$$$$
default_name
  -OEChem-02102213163D

 29 29  0     1  0  0  0  0  0999 V2000
   -2.9561   -3.9186    1.3887 H   0  0  0  0  0  0  0  0  0  0  0  0
   -3.1191   -2.9346    0.9517 C   0  0  0  0  0  0  0  0  0  0  0  0
   -3.7811   -2.3546    1.5917 H   0  0  0  0  0  0  0  0  0  0  0  0
   -3.5591   -3.0406   -0.0383 H   0  0  0  0  0  0  0  0  0  0  0  0
   -1.7921   -2.2226    0.8327 C   0  0  0  0  0  0  0  0  0  0  0  0
   -0.7611   -2.7766    1.1927 O   0  0  0  0  0  0  0  0  0  0  0  0
   -1.8201   -0.9926    0.3247 N   0  0  0  0  0  0  0  0  0  0  0  0
   -2.7141   -0.5816    0.0927 H   0  0  0  0  0  0  0  0  0  0  0  0
   -0.6481   -0.1156    0.2017 C   0  0  1  0  0  0  0  0  0  0  0  0
    0.1344   -0.4988    0.8596 H   0  0  0  0  0  0  0  0  0  0  0  0
   -0.1211   -0.1520   -1.2460 C   0  0  0  0  0  0  0  0  0  0  0  0
   -0.0811   -1.1836   -1.5985 H   0  0  0  0  0  0  0  0  0  0  0  0
   -0.8029    0.3924   -1.9007 H   0  0  0  0  0  0  0  0  0  0  0  0
    1.2686    0.4219   -1.3790 C   0  0  0  0  0  0  0  0  0  0  0  0
    2.4421   -0.3115   -1.5587 N   0  0  0  0  0  0  0  0  0  0  0  0
    3.4272    0.5908   -1.6756 C   0  0  0  0  0  0  0  0  0  0  0  0
    4.4719    0.3426   -1.8148 H   0  0  0  0  0  0  0  0  0  0  0  0
    2.9322    1.8379   -1.6047 N   0  0  0  0  0  0  0  0  0  0  0  0
    3.4724    2.6885   -1.6858 H   0  0  0  0  0  0  0  0  0  0  0  0
    1.5700    1.7517   -1.4216 C   0  0  0  0  0  0  0  0  0  0  0  0
    0.8602    2.5659   -1.3461 H   0  0  0  0  0  0  0  0  0  0  0  0
   -0.9851    1.3114    0.6698 C   0  0  0  0  0  0  0  0  0  0  0  0
   -2.0377    1.8431    0.3168 O   0  0  0  0  0  0  0  0  0  0  0  0
   -0.1052    1.9265    1.4663 N   0  0  0  0  0  0  0  0  0  0  0  0
    0.7810    1.4586    1.6201 H   0  0  0  0  0  0  0  0  0  0  0  0
   -0.2724    3.2715    2.0119 C   0  0  0  0  0  0  0  0  0  0  0  0
   -1.3249    3.4549    2.2426 H   0  0  0  0  0  0  0  0  0  0  0  0
    0.3167    3.3776    2.9239 H   0  0  0  0  0  0  0  0  0  0  0  0
    0.0609    4.0073    1.2782 H   0  0  0  0  0  0  0  0  0  0  0  0
  5  6  2  0  0  0  0
  5  7  1  0  0  0  0
  2  3  1  0  0  0  0
  2  4  1  0  0  0  0
  2  5  1  0  0  0  0
  1  2  1  0  0  0  0
 22 23  2  0  0  0  0
 22 24  1  0  0  0  0
 20 21  1  0  0  0  0
 18 19  1  0  0  0  0
 18 20  1  0  0  0  0
 16 17  1  0  0  0  0
 16 18  1  0  0  0  0
 15 16  2  0  0  0  0
 14 15  1  0  0  0  0
 14 20  2  0  0  0  0
 11 12  1  0  0  0  0
 11 13  1  0  0  0  0
 11 14  1  0  0  0  0
  9 10  1  0  0  0  0
  9 11  1  0  0  0  0
  9 22  1  0  0  0  0
  7  8  1  0  0  0  0
  7  9  1  0  0  0  0
 26 27  1  0  0  0  0
 26 28  1  0  0  0  0
 26 29  1  0  0  0  0
 24 25  1  0  0  0  0
 24 26  1  0  0  0  0
M  END
$$$$
default_name
  -OEChem-02102213163D

 29 29  0     1  0  0  0  0  0999 V2000
   -2.9561   -3.9186    1.3887 H   0  0  0  0  0  0  0  0  0  0  0  0
   -3.1191   -2.9346    0.9517 C   0  0  0  0  0  0  0  0  0  0  0  0
   -3.7811   -2.3546    1.5917 H   0  0  0  0  0  0  0  0  0  0  0  0
   -3.5591   -3.0406   -0.0383 H   0  0  0  0  0  0  0  0  0  0  0  0
   -1.7921   -2.2226    0.8327 C   0  0  0  0  0  0  0  0  0  0  0  0
   -0.7611   -2.7766    1.1927 O   0  0  0  0  0  0  0  0  0  0  0  0
   -1.8201   -0.9926    0.3247 N   0  0  0  0  0  0  0  0  0  0  0  0
   -2.7141   -0.5816    0.0927 H   0  0  0  0  0  0  0  0  0  0  0  0
   -0.6481   -0.1156    0.2017 C   0  0  1  0  0  0  0  0  0  0  0  0
    0.1344   -0.4988    0.8596 H   0  0  0  0  0  0  0  0  0  0  0  0
   -0.1211   -0.1520   -1.2460 C   0  0  0  0  0  0  0  0  0  0  0  0
   -0.0811   -1.1836   -1.5985 H   0  0  0  0  0  0  0  0  0  0  0  0
   -0.8029    0.3924   -1.9007 H   0  0  0  0  0  0  0  0  0  0  0  0
    1.2686    0.4219   -1.3790 C   0  0  0  0  0  0  0  0  0  0  0  0
    2.3934   -0.2599   -1.8453 N   0  0  0  0  0  0  0  0  0  0  0  0
    3.3935    0.6334   -1.8438 C   0  0  0  0  0  0  0  0  0  0  0  0
    4.4108    0.4144   -2.1429 H   0  0  0  0  0  0  0  0  0  0  0  0
    2.9512    1.8326   -1.4296 N   0  0  0  0  0  0  0  0  0  0  0  0
    3.5103    2.6719   -1.3609 H   0  0  0  0  0  0  0  0  0  0  0  0
    1.6106    1.7199   -1.1353 C   0  0  0  0  0  0  0  0  0  0  0  0
    0.9400    2.4999   -0.7975 H   0  0  0  0  0  0  0  0  0  0  0  0
   -0.9851    1.3114    0.6698 C   0  0  0  0  0  0  0  0  0  0  0  0
   -2.0377    1.8431    0.3168 O   0  0  0  0  0  0  0  0  0  0  0  0
   -0.1052    1.9265    1.4663 N   0  0  0  0  0  0  0  0  0  0  0  0
    0.7810    1.4586    1.6201 H   0  0  0  0  0  0  0  0  0  0  0  0
   -0.2724    3.2715    2.0119 C   0  0  0  0  0  0  0  0  0  0  0  0
   -1.3249    3.4549    2.2426 H   0  0  0  0  0  0  0  0  0  0  0  0
    0.3167    3.3776    2.9239 H   0  0  0  0  0  0  0  0  0  0  0  0
    0.0609    4.0073    1.2782 H   0  0  0  0  0  0  0  0  0  0  0  0
  5  6  2  0  0  0  0
  5  7  1  0  0  0  0
  2  3  1  0  0  0  0
  2  4  1  0  0  0  0
  2  5  1  0  0  0  0
  1  2  1  0  0  0  0
 22 23  2  0  0  0  0
 22 24  1  0  0  0  0
 20 21  1  0  0  0  0
 18 19  1  0  0  0  0
 18 20  1  0  0  0  0
 16 17  1  0  0  0  0
 16 18  1  0  0  0  0
 15 16  2  0  0  0  0
 14 15  1  0  0  0  0
 14 20  2  0  0  0  0
 11 12  1  0  0  0  0
 11 13  1  0  0  0  0
 11 14  1  0  0  0  0
  9 10  1  0  0  0  0
  9 11  1  0  0  0  0
  9 22  1  0  0  0  0
  7  8  1  0  0  0  0
  7  9  1  0  0  0  0
 26 27  1  0  0  0  0
 26 28  1  0  0  0  0
 26 29  1  0  0  0  0
 24 25  1  0  0  0  0
 24 26  1  0  0  0  0
M  END
$$$$
default_name
  -OEChem-02102213163D

 29 29  0     1  0  0  0  0  0999 V2000
   -2.9561   -3.9186    1.3887 H   0  0  0  0  0  0  0  0  0  0  0  0
   -3.1191   -2.9346    0.9517 C   0  0  0  0  0  0  0  0  0  0  0  0
   -3.7811   -2.3546    1.5917 H   0  0  0  0  0  0  0  0  0  0  0  0
   -3.5591   -3.0406   -0.0383 H   0  0  0  0  0  0  0  0  0  0  0  0
   -1.7921   -2.2226    0.8327 C   0  0  0  0  0  0  0  0  0  0  0  0
   -0.7611   -2.7766    1.1927 O   0  0  0  0  0  0  0  0  0  0  0  0
   -1.8201   -0.9926    0.3247 N   0  0  0  0  0  0  0  0  0  0  0  0
   -2.7141   -0.5816    0.0927 H   0  0  0  0  0  0  0  0  0  0  0  0
   -0.6481   -0.1156    0.2017 C   0  0  1  0  0  0  0  0  0  0  0  0
    0.1344   -0.4988    0.8596 H   0  0  0  0  0  0  0  0  0  0  0  0
   -0.1211   -0.1520   -1.2460 C   0  0  0  0  0  0  0  0  0  0  0  0
   -0.0811   -1.1836   -1.5985 H   0  0  0  0  0  0  0  0  0  0  0  0
   -0.8029    0.3924   -1.9007 H   0  0  0  0  0  0  0  0  0  0  0  0
    1.2686    0.4219   -1.3790 C   0  0  0  0  0  0  0  0  0  0  0  0
    2.3193   -0.1406   -2.1050 N   0  0  0  0  0  0  0  0  0  0  0  0
    3.3454    0.7154   -1.9929 C   0  0  0  0  0  0  0  0  0  0  0  0
    4.3212    0.5633   -2.4367 H   0  0  0  0  0  0  0  0  0  0  0  0
    2.9866    1.7852   -1.2636 N   0  0  0  0  0  0  0  0  0  0  0  0
    3.5786    2.5776   -1.0546 H   0  0  0  0  0  0  0  0  0  0  0  0
    1.6772    1.6200   -0.8703 C   0  0  0  0  0  0  0  0  0  0  0  0
    1.0695    2.3037   -0.2911 H   0  0  0  0  0  0  0  0  0  0  0  0
   -0.9851    1.3114    0.6698 C   0  0  0  0  0  0  0  0  0  0  0  0
   -2.0377    1.8431    0.3168 O   0  0  0  0  0  0  0  0  0  0  0  0
   -0.1052    1.9265    1.4663 N   0  0  0  0  0  0  0  0  0  0  0  0
    0.7810    1.4586    1.6201 H   0  0  0  0  0  0  0  0  0  0  0  0
   -0.2724    3.2715    2.0119 C   0  0  0  0  0  0  0  0  0  0  0  0
   -1.3249    3.4549    2.2426 H   0  0  0  0  0  0  0  0  0  0  0  0
    0.3167    3.3776    2.9239 H   0  0  0  0  0  0  0  0  0  0  0  0
    0.0609    4.0073    1.2782 H   0  0  0  0  0  0  0  0  0  0  0  0
  5  6  2  0  0  0  0
  5  7  1  0  0  0  0
  2  3  1  0  0  0  0
  2  4  1  0  0  0  0
  2  5  1  0  0  0  0
  1  2  1  0  0  0  0
 22 23  2  0  0  0  0
 22 24  1  0  0  0  0
 20 21  1  0  0  0  0
 18 19  1  0  0  0  0
 18 20  1  0  0  0  0
 16 17  1  0  0  0  0
 16 18  1  0  0  0  0
 15 16  2  0  0  0  0
 14 15  1  0  0  0  0
 14 20  2  0  0  0  0
 11 12  1  0  0  0  0
 11 13  1  0  0  0  0
 11 14  1  0  0  0  0
  9 10  1  0  0  0  0
  9 11  1  0  0  0  0
  9 22  1  0  0  0  0
  7  8  1  0  0  0  0
  7  9  1  0  0  0  0
 26 27  1  0  0  0  0
 26 28  1  0  0  0  0
 26 29  1  0  0  0  0
 24 25  1  0  0  0  0
 24 26  1  0  0  0  0
M  END
$$$$
default_name
  -OEChem-02102213163D

 29 29  0     1  0  0  0  0  0999 V2000
   -2.9561   -3.9186    1.3887 H   0  0  0  0  0  0  0  0  0  0  0  0
   -3.1191   -2.9346    0.9517 C   0  0  0  0  0  0  0  0  0  0  0  0
   -3.7811   -2.3546    1.5917 H   0  0  0  0  0  0  0  0  0  0  0  0
   -3.5591   -3.0406   -0.0383 H   0  0  0  0  0  0  0  0  0  0  0  0
   -1.7921   -2.2226    0.8327 C   0  0  0  0  0  0  0  0  0  0  0  0
   -0.7611   -2.7766    1.1927 O   0  0  0  0  0  0  0  0  0  0  0  0
   -1.8201   -0.9926    0.3247 N   0  0  0  0  0  0  0  0  0  0  0  0
   -2.7141   -0.5816    0.0927 H   0  0  0  0  0  0  0  0  0  0  0  0
   -0.6481   -0.1156    0.2017 C   0  0  1  0  0  0  0  0  0  0  0  0
    0.1344   -0.4988    0.8596 H   0  0  0  0  0  0  0  0  0  0  0  0
   -0.1211   -0.1520   -1.2460 C   0  0  0  0  0  0  0  0  0  0  0  0
   -0.0811   -1.1836   -1.5985 H   0  0  0  0  0  0  0  0  0  0  0  0
   -0.8029    0.3924   -1.9007 H   0  0  0  0  0  0  0  0  0  0  0  0
    1.2686    0.4219   -1.3790 C   0  0  0  0  0  0  0  0  0  0  0  0
    2.2248    0.0381   -2.3201 N   0  0  0  0  0  0  0  0  0  0  0  0
    3.2861    0.8312   -2.1127 C   0  0  0  0  0  0  0  0  0  0  0  0
    4.2091    0.7792   -2.6762 H   0  0  0  0  0  0  0  0  0  0  0  0
    3.0361    1.6992   -1.1179 N   0  0  0  0  0  0  0  0  0  0  0  0
    3.6725    2.4119   -0.7881 H   0  0  0  0  0  0  0  0  0  0  0  0
    1.7654    1.4588   -0.6447 C   0  0  0  0  0  0  0  0  0  0  0  0
    1.2399    1.9905    0.1386 H   0  0  0  0  0  0  0  0  0  0  0  0
   -0.9851    1.3114    0.6698 C   0  0  0  0  0  0  0  0  0  0  0  0
   -2.0377    1.8431    0.3168 O   0  0  0  0  0  0  0  0  0  0  0  0
   -0.1052    1.9265    1.4663 N   0  0  0  0  0  0  0  0  0  0  0  0
    0.7810    1.4586    1.6201 H   0  0  0  0  0  0  0  0  0  0  0  0
   -0.2724    3.2715    2.0119 C   0  0  0  0  0  0  0  0  0  0  0  0
   -1.3249    3.4549    2.2426 H   0  0  0  0  0  0  0  0  0  0  0  0
    0.3167    3.3776    2.9239 H   0  0  0  0  0  0  0  0  0  0  0  0
    0.0609    4.0073    1.2782 H   0  0  0  0  0  0  0  0  0  0  0  0
  5  6  2  0  0  0  0
  5  7  1  0  0  0  0
  2  3  1  0  0  0  0
  2  4  1  0  0  0  0
  2  5  1  0  0  0  0
  1  2  1  0  0  0  0
 22 23  2  0  0  0  0
 22 24  1  0  0  0  0
 20 21  1  0  0  0  0
 18 19  1  0  0  0  0
 18 20  1  0  0  0  0
 16 17  1  0  0  0  0
 16 18  1  0  0  0  0
 15 16  2  0  0  0  0
 14 15  1  0  0  0  0
 14 20  2  0  0  0  0
 11 12  1  0  0  0  0
 11 13  1  0  0  0  0
 11 14  1  0  0  0  0
  9 10  1  0  0  0  0
  9 11  1  0  0  0  0
  9 22  1  0  0  0  0
  7  8  1  0  0  0  0
  7  9  1  0  0  0  0
 26 27  1  0  0  0  0
 26 28  1  0  0  0  0
 26 29  1  0  0  0  0
 24 25  1  0  0  0  0
 24 26  1  0  0  0  0
M  END
$$$$
default_name
  -OEChem-02102213163D

 29 29  0     1  0  0  0  0  0999 V2000
   -2.9561   -3.9186    1.3887 H   0  0  0  0  0  0  0  0  0  0  0  0
   -3.1191   -2.9346    0.9517 C   0  0  0  0  0  0  0  0  0  0  0  0
   -3.7811   -2.3546    1.5917 H   0  0  0  0  0  0  0  0  0  0  0  0
   -3.5591   -3.0406   -0.0383 H   0  0  0  0  0  0  0  0  0  0  0  0
   -1.7921   -2.2226    0.8327 C   0  0  0  0  0  0  0  0  0  0  0  0
   -0.7611   -2.7766    1.1927 O   0  0  0  0  0  0  0  0  0  0  0  0
   -1.8201   -0.9926    0.3247 N   0  0  0  0  0  0  0  0  0  0  0  0
   -2.7141   -0.5816    0.0927 H   0  0  0  0  0  0  0  0  0  0  0  0
   -0.6481   -0.1156    0.2017 C   0  0  1  0  0  0  0  0  0  0  0  0
    0.1344   -0.4988    0.8596 H   0  0  0  0  0  0  0  0  0  0  0  0
   -0.1211   -0.1520   -1.2460 C   0  0  0  0  0  0  0  0  0  0  0  0
   -0.0811   -1.1836   -1.5985 H   0  0  0  0  0  0  0  0  0  0  0  0
   -0.8029    0.3924   -1.9007 H   0  0  0  0  0  0  0  0  0  0  0  0
    1.2686    0.4219   -1.3790 C   0  0  0  0  0  0  0  0  0  0  0  0
    2.1165    0.2643   -2.4760 N   0  0  0  0  0  0  0  0  0  0  0  0
    3.2197    0.9730   -2.1949 C   0  0  0  0  0  0  0  0  0  0  0  0
    4.0822    1.0474   -2.8451 H   0  0  0  0  0  0  0  0  0  0  0  0
    3.0963    1.5802   -1.0027 N   0  0  0  0  0  0  0  0  0  0  0  0
    3.7857    2.1863   -0.5793 H   0  0  0  0  0  0  0  0  0  0  0  0
    1.8690    1.2473   -0.4739 C   0  0  0  0  0  0  0  0  0  0  0  0
    1.4397    1.5818    0.4622 H   0  0  0  0  0  0  0  0  0  0  0  0
   -0.9851    1.3114    0.6698 C   0  0  0  0  0  0  0  0  0  0  0  0
   -2.0377    1.8431    0.3168 O   0  0  0  0  0  0  0  0  0  0  0  0
   -0.1052    1.9265    1.4663 N   0  0  0  0  0  0  0  0  0  0  0  0
    0.7810    1.4586    1.6201 H   0  0  0  0  0  0  0  0  0  0  0  0
   -0.2724    3.2715    2.0119 C   0  0  0  0  0  0  0  0  0  0  0  0
   -1.3249    3.4549    2.2426 H   0  0  0  0  0  0  0  0  0  0  0  0
    0.3167    3.3776    2.9239 H   0  0  0  0  0  0  0  0  0  0  0  0
    0.0609    4.0073    1.2782 H   0  0  0  0  0  0  0  0  0  0  0  0
  5  6  2  0  0  0  0
  5  7  1  0  0  0  0
  2  3  1  0  0  0  0
  2  4  1  0  0  0  0
  2  5  1  0  0  0  0
  1  2  1  0  0  0  0
 22 23  2  0  0  0  0
 22 24  1  0  0  0  0
 20 21  1  0  0  0  0
 18 19  1  0  0  0  0
 18 20  1  0  0  0  0
 16 17  1  0  0  0  0
 16 18  1  0  0  0  0
 15 16  2  0  0  0  0
 14 15  1  0  0  0  0
 14 20  2  0  0  0  0
 11 12  1  0  0  0  0
 11 13  1  0  0  0  0
 11 14  1  0  0  0  0
  9 10  1  0  0  0  0
  9 11  1  0  0  0  0
  9 22  1  0  0  0  0
  7  8  1  0  0  0  0
  7  9  1  0  0  0  0
 26 27  1  0  0  0  0
 26 28  1  0  0  0  0
 26 29  1  0  0  0  0
 24 25  1  0  0  0  0
 24 26  1  0  0  0  0
M  END
$$$$
default_name
  -OEChem-02102213163D

 29 29  0     1  0  0  0  0  0999 V2000
   -2.9561   -3.9186    1.3887 H   0  0  0  0  0  0  0  0  0  0  0  0
   -3.1191   -2.9346    0.9517 C   0  0  0  0  0  0  0  0  0  0  0  0
   -3.7811   -2.3546    1.5917 H   0  0  0  0  0  0  0  0  0  0  0  0
   -3.5591   -3.0406   -0.0383 H   0  0  0  0  0  0  0  0  0  0  0  0
   -1.7921   -2.2226    0.8327 C   0  0  0  0  0  0  0  0  0  0  0  0
   -0.7611   -2.7766    1.1927 O   0  0  0  0  0  0  0  0  0  0  0  0
   -1.8201   -0.9926    0.3247 N   0  0  0  0  0  0  0  0  0  0  0  0
   -2.7141   -0.5816    0.0927 H   0  0  0  0  0  0  0  0  0  0  0  0
   -0.6481   -0.1156    0.2017 C   0  0  1  0  0  0  0  0  0  0  0  0
    0.1344   -0.4988    0.8596 H   0  0  0  0  0  0  0  0  0  0  0  0
   -0.1211   -0.1520   -1.2460 C   0  0  0  0  0  0  0  0  0  0  0  0
   -0.3268   -1.1273   -1.6894 H   0  0  0  0  0  0  0  0  0  0  0  0
   -0.6390    0.5973   -1.8462 H   0  0  0  0  0  0  0  0  0  0  0  0
    1.3684    0.0757   -1.3340 C   0  0  0  0  0  0  0  0  0  0  0  0
    2.1241    0.0981   -2.5069 N   0  0  0  0  0  0  0  0  0  0  0  0
    3.3807    0.3777   -2.1313 C   0  0  0  0  0  0  0  0  0  0  0  0
    4.2201    0.4557   -2.8107 H   0  0  0  0  0  0  0  0  0  0  0  0
    3.4445    0.5548   -0.8009 N   0  0  0  0  0  0  0  0  0  0  0  0
    4.2776    0.7937   -0.2806 H   0  0  0  0  0  0  0  0  0  0  0  0
    2.1827    0.3721   -0.2803 C   0  0  0  0  0  0  0  0  0  0  0  0
    1.8746    0.4630    0.7537 H   0  0  0  0  0  0  0  0  0  0  0  0
   -0.9851    1.3114    0.6698 C   0  0  0  0  0  0  0  0  0  0  0  0
   -2.0377    1.8431    0.3168 O   0  0  0  0  0  0  0  0  0  0  0  0
   -0.1052    1.9265    1.4663 N   0  0  0  0  0  0  0  0  0  0  0  0
    0.7810    1.4586    1.6201 H   0  0  0  0  0  0  0  0  0  0  0  0
   -0.2724    3.2715    2.0119 C   0  0  0  0  0  0  0  0  0  0  0  0
   -1.3249    3.4549    2.2426 H   0  0  0  0  0  0  0  0  0  0  0  0
    0.3167    3.3776    2.9239 H   0  0  0  0  0  0  0  0  0  0  0  0
    0.0609    4.0073    1.2782 H   0  0  0  0  0  0  0  0  0  0  0  0
  5  6  2  0  0  0  0
  5  7  1  0  0  0  0
  2  3  1  0  0  0  0
  2  4  1  0  0  0  0
  2  5  1  0  0  0  0
  1  2  1  0  0  0  0
 22 23  2  0  0  0  0
 22 24  1  0  0  0  0
 20 21  1  0  0  0  0
 18 19  1  0  0  0  0
 18 20  1  0  0  0  0
 16 17  1  0  0  0  0
 16 18  1  0  0  0  0
 15 16  2  0  0  0  0
 14 15  1  0  0  0  0
 14 20  2  0  0  0  0
 11 12  1  0  0  0  0
 11 13  1  0  0  0  0
 11 14  1  0  0  0  0
  9 10  1  0  0  0  0
  9 11  1  0  0  0  0
  9 22  1  0  0  0  0
  7  8  1  0  0  0  0
  7  9  1  0  0  0  0
 26 27  1  0  0  0  0
 26 28  1  0  0  0  0
 26 29  1  0  0  0  0
 24 25  1  0  0  0  0
 24 26  1  0  0  0  0
M  END
$$$$
default_name
  -OEChem-02102213163D

 29 29  0     1  0  0  0  0  0999 V2000
   -2.9561   -3.9186    1.3887 H   0  0  0  0  0  0  0  0  0  0  0  0
   -3.1191   -2.9346    0.9517 C   0  0  0  0  0  0  0  0  0  0  0  0
   -3.7811   -2.3546    1.5917 H   0  0  0  0  0  0  0  0  0  0  0  0
   -3.5591   -3.0406   -0.0383 H   0  0  0  0  0  0  0  0  0  0  0  0
   -1.7921   -2.2226    0.8327 C   0  0  0  0  0  0  0  0  0  0  0  0
   -0.7611   -2.7766    1.1927 O   0  0  0  0  0  0  0  0  0  0  0  0
   -1.8201   -0.9926    0.3247 N   0  0  0  0  0  0  0  0  0  0  0  0
   -2.7141   -0.5816    0.0927 H   0  0  0  0  0  0  0  0  0  0  0  0
   -0.6481   -0.1156    0.2017 C   0  0  1  0  0  0  0  0  0  0  0  0
    0.1344   -0.4988    0.8596 H   0  0  0  0  0  0  0  0  0  0  0  0
   -0.1211   -0.1520   -1.2460 C   0  0  0  0  0  0  0  0  0  0  0  0
   -0.3268   -1.1273   -1.6894 H   0  0  0  0  0  0  0  0  0  0  0  0
   -0.6390    0.5973   -1.8462 H   0  0  0  0  0  0  0  0  0  0  0  0
    1.3684    0.0757   -1.3340 C   0  0  0  0  0  0  0  0  0  0  0  0
    2.0804    0.3897   -2.4924 N   0  0  0  0  0  0  0  0  0  0  0  0
    3.3554    0.5514   -2.1097 C   0  0  0  0  0  0  0  0  0  0  0  0
    4.1705    0.7921   -2.7805 H   0  0  0  0  0  0  0  0  0  0  0  0
    3.4721    0.3818   -0.7820 N   0  0  0  0  0  0  0  0  0  0  0  0
    4.3285    0.4713   -0.2525 H   0  0  0  0  0  0  0  0  0  0  0  0
    2.2270    0.0847   -0.2738 C   0  0  0  0  0  0  0  0  0  0  0  0
    1.9594   -0.0888    0.7609 H   0  0  0  0  0  0  0  0  0  0  0  0
   -0.9851    1.3114    0.6698 C   0  0  0  0  0  0  0  0  0  0  0  0
   -2.0377    1.8431    0.3168 O   0  0  0  0  0  0  0  0  0  0  0  0
   -0.1052    1.9265    1.4663 N   0  0  0  0  0  0  0  0  0  0  0  0
    0.7810    1.4586    1.6201 H   0  0  0  0  0  0  0  0  0  0  0  0
   -0.2724    3.2715    2.0119 C   0  0  0  0  0  0  0  0  0  0  0  0
   -1.3249    3.4549    2.2426 H   0  0  0  0  0  0  0  0  0  0  0  0
    0.3167    3.3776    2.9239 H   0  0  0  0  0  0  0  0  0  0  0  0
    0.0609    4.0073    1.2782 H   0  0  0  0  0  0  0  0  0  0  0  0
  5  6  2  0  0  0  0
  5  7  1  0  0  0  0
  2  3  1  0  0  0  0
  2  4  1  0  0  0  0
  2  5  1  0  0  0  0
  1  2  1  0  0  0  0
 22 23  2  0  0  0  0
 22 24  1  0  0  0  0
 20 21  1  0  0  0  0
 18 19  1  0  0  0  0
 18 20  1  0  0  0  0
 16 17  1  0  0  0  0
 16 18  1  0  0  0  0
 15 16  2  0  0  0  0
 14 15  1  0  0  0  0
 14 20  2  0  0  0  0
 11 12  1  0  0  0  0
 11 13  1  0  0  0  0
 11 14  1  0  0  0  0
  9 10  1  0  0  0  0
  9 11  1  0  0  0  0
  9 22  1  0  0  0  0
  7  8  1  0  0  0  0
  7  9  1  0  0  0  0
 26 27  1  0  0  0  0
 26 28  1  0  0  0  0
 26 29  1  0  0  0  0
 24 25  1  0  0  0  0
 24 26  1  0  0  0  0
M  END
$$$$
default_name
  -OEChem-02102213163D

 29 29  0     1  0  0  0  0  0999 V2000
   -2.9561   -3.9186    1.3887 H   0  0  0  0  0  0  0  0  0  0  0  0
   -3.1191   -2.9346    0.9517 C   0  0  0  0  0  0  0  0  0  0  0  0
   -3.7811   -2.3546    1.5917 H   0  0  0  0  0  0  0  0  0  0  0  0
   -3.5591   -3.0406   -0.0383 H   0  0  0  0  0  0  0  0  0  0  0  0
   -1.7921   -2.2226    0.8327 C   0  0  0  0  0  0  0  0  0  0  0  0
   -0.7611   -2.7766    1.1927 O   0  0  0  0  0  0  0  0  0  0  0  0
   -1.8201   -0.9926    0.3247 N   0  0  0  0  0  0  0  0  0  0  0  0
   -2.7141   -0.5816    0.0927 H   0  0  0  0  0  0  0  0  0  0  0  0
   -0.6481   -0.1156    0.2017 C   0  0  1  0  0  0  0  0  0  0  0  0
    0.1344   -0.4988    0.8596 H   0  0  0  0  0  0  0  0  0  0  0  0
   -0.1211   -0.1520   -1.2460 C   0  0  0  0  0  0  0  0  0  0  0  0
   -0.3268   -1.1273   -1.6894 H   0  0  0  0  0  0  0  0  0  0  0  0
   -0.6390    0.5973   -1.8462 H   0  0  0  0  0  0  0  0  0  0  0  0
    1.3684    0.0757   -1.3340 C   0  0  0  0  0  0  0  0  0  0  0  0
    2.0431    0.6684   -2.4021 N   0  0  0  0  0  0  0  0  0  0  0  0
    3.3345    0.7140   -2.0435 C   0  0  0  0  0  0  0  0  0  0  0  0
    4.1288    1.1100   -2.6636 H   0  0  0  0  0  0  0  0  0  0  0  0
    3.4968    0.2093   -0.8089 N   0  0  0  0  0  0  0  0  0  0  0  0
    4.3740    0.1520   -0.3097 H   0  0  0  0  0  0  0  0  0  0  0  0
    2.2658   -0.1953   -0.3428 C   0  0  0  0  0  0  0  0  0  0  0  0
    2.0332   -0.6249    0.6235 H   0  0  0  0  0  0  0  0  0  0  0  0
   -0.9851    1.3114    0.6698 C   0  0  0  0  0  0  0  0  0  0  0  0
   -2.0377    1.8431    0.3168 O   0  0  0  0  0  0  0  0  0  0  0  0
   -0.1052    1.9265    1.4663 N   0  0  0  0  0  0  0  0  0  0  0  0
    0.7810    1.4586    1.6201 H   0  0  0  0  0  0  0  0  0  0  0  0
   -0.2724    3.2715    2.0119 C   0  0  0  0  0  0  0  0  0  0  0  0
   -1.3249    3.4549    2.2426 H   0  0  0  0  0  0  0  0  0  0  0  0
    0.3167    3.3776    2.9239 H   0  0  0  0  0  0  0  0  0  0  0  0
    0.0609    4.0073    1.2782 H   0  0  0  0  0  0  0  0  0  0  0  0
  5  6  2  0  0  0  0
  5  7  1  0  0  0  0
  2  3  1  0  0  0  0
  2  4  1  0  0  0  0
  2  5  1  0  0  0  0
  1  2  1  0  0  0  0
 22 23  2  0  0  0  0
 22 24  1  0  0  0  0
 20 21  1  0  0  0  0
 18 19  1  0  0  0  0
 18 20  1  0  0  0  0
 16 17  1  0  0  0  0
 16 18  1  0  0  0  0
 15 16  2  0  0  0  0
 14 15  1  0  0  0  0
 14 20  2  0  0  0  0
 11 12  1  0  0  0  0
 11 13  1  0  0  0  0
 11 14  1  0  0  0  0
  9 10  1  0  0  0  0
  9 11  1  0  0  0  0
  9 22  1  0  0  0  0
  7  8  1  0  0  0  0
  7  9  1  0  0  0  0
 26 27  1  0  0  0  0
 26 28  1  0  0  0  0
 26 29  1  0  0  0  0
 24 25  1  0  0  0  0
 24 26  1  0  0  0  0
M  END
$$$$
default_name
  -OEChem-02102213163D

 29 29  0     1  0  0  0  0  0999 V2000
   -2.9561   -3.9186    1.3887 H   0  0  0  0  0  0  0  0  0  0  0  0
   -3.1191   -2.9346    0.9517 C   0  0  0  0  0  0  0  0  0  0  0  0
   -3.7811   -2.3546    1.5917 H   0  0  0  0  0  0  0  0  0  0  0  0
   -3.5591   -3.0406   -0.0383 H   0  0  0  0  0  0  0  0  0  0  0  0
   -1.7921   -2.2226    0.8327 C   0  0  0  0  0  0  0  0  0  0  0  0
   -0.7611   -2.7766    1.1927 O   0  0  0  0  0  0  0  0  0  0  0  0
   -1.8201   -0.9926    0.3247 N   0  0  0  0  0  0  0  0  0  0  0  0
   -2.7141   -0.5816    0.0927 H   0  0  0  0  0  0  0  0  0  0  0  0
   -0.6481   -0.1156    0.2017 C   0  0  1  0  0  0  0  0  0  0  0  0
    0.1344   -0.4988    0.8596 H   0  0  0  0  0  0  0  0  0  0  0  0
   -0.1211   -0.1520   -1.2460 C   0  0  0  0  0  0  0  0  0  0  0  0
   -0.3268   -1.1273   -1.6894 H   0  0  0  0  0  0  0  0  0  0  0  0
   -0.6390    0.5973   -1.8462 H   0  0  0  0  0  0  0  0  0  0  0  0
    1.3684    0.0757   -1.3340 C   0  0  0  0  0  0  0  0  0  0  0  0
    2.0148    0.9150   -2.2423 N   0  0  0  0  0  0  0  0  0  0  0  0
    3.3193    0.8545   -1.9372 C   0  0  0  0  0  0  0  0  0  0  0  0
    4.0979    1.3879   -2.4678 H   0  0  0  0  0  0  0  0  0  0  0  0
    3.5171    0.0493   -0.8799 N   0  0  0  0  0  0  0  0  0  0  0  0
    4.4108   -0.1426   -0.4483 H   0  0  0  0  0  0  0  0  0  0  0  0
    2.2963   -0.4487   -0.4824 C   0  0  0  0  0  0  0  0  0  0  0  0
    2.0911   -1.1088    0.3510 H   0  0  0  0  0  0  0  0  0  0  0  0
   -0.9851    1.3114    0.6698 C   0  0  0  0  0  0  0  0  0  0  0  0
   -2.0377    1.8431    0.3168 O   0  0  0  0  0  0  0  0  0  0  0  0
   -0.1052    1.9265    1.4663 N   0  0  0  0  0  0  0  0  0  0  0  0
    0.7810    1.4586    1.6201 H   0  0  0  0  0  0  0  0  0  0  0  0
   -0.2724    3.2715    2.0119 C   0  0  0  0  0  0  0  0  0  0  0  0
   -1.3249    3.4549    2.2426 H   0  0  0  0  0  0  0  0  0  0  0  0
    0.3167    3.3776    2.9239 H   0  0  0  0  0  0  0  0  0  0  0  0
    0.0609    4.0073    1.2782 H   0  0  0  0  0  0  0  0  0  0  0  0
  5  6  2  0  0  0  0
  5  7  1  0  0  0  0
  2  3  1  0  0  0  0
  2  4  1  0  0  0  0
  2  5  1  0  0  0  0
  1  2  1  0  0  0  0
 22 23  2  0  0  0  0
 22 24  1  0  0  0  0
 20 21  1  0  0  0  0
 18 19  1  0  0  0  0
 18 20  1  0  0  0  0
 16 17  1  0  0  0  0
 16 18  1  0  0  0  0
 15 16  2  0  0  0  0
 14 15  1  0  0  0  0
 14 20  2  0  0  0  0
 11 12  1  0  0  0  0
 11 13  1  0  0  0  0
 11 14  1  0  0  0  0
  9 10  1  0  0  0  0
  9 11  1  0  0  0  0
  9 22  1  0  0  0  0
  7  8  1  0  0  0  0
  7  9  1  0  0  0  0
 26 27  1  0  0  0  0
 26 28  1  0  0  0  0
 26 29  1  0  0  0  0
 24 25  1  0  0  0  0
 24 26  1  0  0  0  0
M  END
$$$$
default_name
  -OEChem-02102213163D

 29 29  0     1  0  0  0  0  0999 V2000
   -2.9561   -3.9186    1.3887 H   0  0  0  0  0  0  0  0  0  0  0  0
   -3.1191   -2.9346    0.9517 C   0  0  0  0  0  0  0  0  0  0  0  0
   -3.7811   -2.3546    1.5917 H   0  0  0  0  0  0  0  0  0  0  0  0
   -3.5591   -3.0406   -0.0383 H   0  0  0  0  0  0  0  0  0  0  0  0
   -1.7921   -2.2226    0.8327 C   0  0  0  0  0  0  0  0  0  0  0  0
   -0.7611   -2.7766    1.1927 O   0  0  0  0  0  0  0  0  0  0  0  0
   -1.8201   -0.9926    0.3247 N   0  0  0  0  0  0  0  0  0  0  0  0
   -2.7141   -0.5816    0.0927 H   0  0  0  0  0  0  0  0  0  0  0  0
   -0.6481   -0.1156    0.2017 C   0  0  1  0  0  0  0  0  0  0  0  0
    0.1344   -0.4988    0.8596 H   0  0  0  0  0  0  0  0  0  0  0  0
   -0.1211   -0.1520   -1.2460 C   0  0  0  0  0  0  0  0  0  0  0  0
   -0.3268   -1.1273   -1.6894 H   0  0  0  0  0  0  0  0  0  0  0  0
   -0.6390    0.5973   -1.8462 H   0  0  0  0  0  0  0  0  0  0  0  0
    1.3684    0.0757   -1.3340 C   0  0  0  0  0  0  0  0  0  0  0  0
    1.9975    1.1129   -2.0239 N   0  0  0  0  0  0  0  0  0  0  0  0
    3.3109    0.9633   -1.7981 C   0  0  0  0  0  0  0  0  0  0  0  0
    4.0798    1.6068   -2.2064 H   0  0  0  0  0  0  0  0  0  0  0  0
    3.5315   -0.0874   -0.9902 N   0  0  0  0  0  0  0  0  0  0  0  0
    4.4365   -0.3923   -0.6588 H   0  0  0  0  0  0  0  0  0  0  0  0
    2.3164   -0.6583   -0.6831 C   0  0  0  0  0  0  0  0  0  0  0  0
    2.1290   -1.5075   -0.0380 H   0  0  0  0  0  0  0  0  0  0  0  0
   -0.9851    1.3114    0.6698 C   0  0  0  0  0  0  0  0  0  0  0  0
   -2.0377    1.8431    0.3168 O   0  0  0  0  0  0  0  0  0  0  0  0
   -0.1052    1.9265    1.4663 N   0  0  0  0  0  0  0  0  0  0  0  0
    0.7810    1.4586    1.6201 H   0  0  0  0  0  0  0  0  0  0  0  0
   -0.2724    3.2715    2.0119 C   0  0  0  0  0  0  0  0  0  0  0  0
   -1.3249    3.4549    2.2426 H   0  0  0  0  0  0  0  0  0  0  0  0
    0.3167    3.3776    2.9239 H   0  0  0  0  0  0  0  0  0  0  0  0
    0.0609    4.0073    1.2782 H   0  0  0  0  0  0  0  0  0  0  0  0
  5  6  2  0  0  0  0
  5  7  1  0  0  0  0
  2  3  1  0  0  0  0
  2  4  1  0  0  0  0
  2  5  1  0  0  0  0
  1  2  1  0  0  0  0
 22 23  2  0  0  0  0
 22 24  1  0  0  0  0
 20 21  1  0  0  0  0
 18 19  1  0  0  0  0
 18 20  1  0  0  0  0
 16 17  1  0  0  0  0
 16 18  1  0  0  0  0
 15 16  2  0  0  0  0
 14 15  1  0  0  0  0
 14 20  2  0  0  0  0
 11 12  1  0  0  0  0
 11 13  1  0  0  0  0
 11 14  1  0  0  0  0
  9 10  1  0  0  0  0
  9 11  1  0  0  0  0
  9 22  1  0  0  0  0
  7  8  1  0  0  0  0
  7  9  1  0  0  0  0
 26 27  1  0  0  0  0
 26 28  1  0  0  0  0
 26 29  1  0  0  0  0
 24 25  1  0  0  0  0
 24 26  1  0  0  0  0
M  END
$$$$
default_name
  -OEChem-02102213163D

 29 29  0     1  0  0  0  0  0999 V2000
   -2.9561   -3.9186    1.3887 H   0  0  0  0  0  0  0  0  0  0  0  0
   -3.1191   -2.9346    0.9517 C   0  0  0  0  0  0  0  0  0  0  0  0
   -3.7811   -2.3546    1.5917 H   0  0  0  0  0  0  0  0  0  0  0  0
   -3.5591   -3.0406   -0.0383 H   0  0  0  0  0  0  0  0  0  0  0  0
   -1.7921   -2.2226    0.8327 C   0  0  0  0  0  0  0  0  0  0  0  0
   -0.7611   -2.7766    1.1927 O   0  0  0  0  0  0  0  0  0  0  0  0
   -1.8201   -0.9926    0.3247 N   0  0  0  0  0  0  0  0  0  0  0  0
   -2.7141   -0.5816    0.0927 H   0  0  0  0  0  0  0  0  0  0  0  0
   -0.6481   -0.1156    0.2017 C   0  0  1  0  0  0  0  0  0  0  0  0
    0.1344   -0.4988    0.8596 H   0  0  0  0  0  0  0  0  0  0  0  0
   -0.1211   -0.1520   -1.2460 C   0  0  0  0  0  0  0  0  0  0  0  0
   -0.3268   -1.1273   -1.6894 H   0  0  0  0  0  0  0  0  0  0  0  0
   -0.6390    0.5973   -1.8462 H   0  0  0  0  0  0  0  0  0  0  0  0
    1.3684    0.0757   -1.3340 C   0  0  0  0  0  0  0  0  0  0  0  0
    1.9923    1.2484   -1.7617 N   0  0  0  0  0  0  0  0  0  0  0  0
    3.3098    1.0329   -1.6355 C   0  0  0  0  0  0  0  0  0  0  0  0
    4.0759    1.7518   -1.8974 H   0  0  0  0  0  0  0  0  0  0  0  0
    3.5390   -0.1916   -1.1322 N   0  0  0  0  0  0  0  0  0  0  0  0
    4.4494   -0.5801   -0.9270 H   0  0  0  0  0  0  0  0  0  0  0  0
    2.3249   -0.8098   -0.9314 C   0  0  0  0  0  0  0  0  0  0  0  0
    2.1445   -1.7938   -0.5171 H   0  0  0  0  0  0  0  0  0  0  0  0
   -0.9851    1.3114    0.6698 C   0  0  0  0  0  0  0  0  0  0  0  0
   -2.0377    1.8431    0.3168 O   0  0  0  0  0  0  0  0  0  0  0  0
   -0.1052    1.9265    1.4663 N   0  0  0  0  0  0  0  0  0  0  0  0
    0.7810    1.4586    1.6201 H   0  0  0  0  0  0  0  0  0  0  0  0
   -0.2724    3.2715    2.0119 C   0  0  0  0  0  0  0  0  0  0  0  0
   -1.3249    3.4549    2.2426 H   0  0  0  0  0  0  0  0  0  0  0  0
    0.3167    3.3776    2.9239 H   0  0  0  0  0  0  0  0  0  0  0  0
    0.0609    4.0073    1.2782 H   0  0  0  0  0  0  0  0  0  0  0  0
  5  6  2  0  0  0  0
  5  7  1  0  0  0  0
  2  3  1  0  0  0  0
  2  4  1  0  0  0  0
  2  5  1  0  0  0  0
  1  2  1  0  0  0  0
 22 23  2  0  0  0  0
 22 24  1  0  0  0  0
 20 21  1  0  0  0  0
 18 19  1  0  0  0  0
 18 20  1  0  0  0  0
 16 17  1  0  0  0  0
 16 18  1  0  0  0  0
 15 16  2  0  0  0  0
 14 15  1  0  0  0  0
 14 20  2  0  0  0  0
 11 12  1  0  0  0  0
 11 13  1  0  0  0  0
 11 14  1  0  0  0  0
  9 10  1  0  0  0  0
  9 11  1  0  0  0  0
  9 22  1  0  0  0  0
  7  8  1  0  0  0  0
  7  9  1  0  0  0  0
 26 27  1  0  0  0  0
 26 28  1  0  0  0  0
 26 29  1  0  0  0  0
 24 25  1  0  0  0  0
 24 26  1  0  0  0  0
M  END
$$$$
default_name
  -OEChem-02102213163D

 29 29  0     1  0  0  0  0  0999 V2000
   -2.9561   -3.9186    1.3887 H   0  0  0  0  0  0  0  0  0  0  0  0
   -3.1191   -2.9346    0.9517 C   0  0  0  0  0  0  0  0  0  0  0  0
   -3.7811   -2.3546    1.5917 H   0  0  0  0  0  0  0  0  0  0  0  0
   -3.5591   -3.0406   -0.0383 H   0  0  0  0  0  0  0  0  0  0  0  0
   -1.7921   -2.2226    0.8327 C   0  0  0  0  0  0  0  0  0  0  0  0
   -0.7611   -2.7766    1.1927 O   0  0  0  0  0  0  0  0  0  0  0  0
   -1.8201   -0.9926    0.3247 N   0  0  0  0  0  0  0  0  0  0  0  0
   -2.7141   -0.5816    0.0927 H   0  0  0  0  0  0  0  0  0  0  0  0
   -0.6481   -0.1156    0.2017 C   0  0  1  0  0  0  0  0  0  0  0  0
    0.1344   -0.4988    0.8596 H   0  0  0  0  0  0  0  0  0  0  0  0
   -0.1211   -0.1520   -1.2460 C   0  0  0  0  0  0  0  0  0  0  0  0
   -0.3268   -1.1273   -1.6894 H   0  0  0  0  0  0  0  0  0  0  0  0
   -0.6390    0.5973   -1.8462 H   0  0  0  0  0  0  0  0  0  0  0  0
    1.3684    0.0757   -1.3340 C   0  0  0  0  0  0  0  0  0  0  0  0
    1.9995    1.3125   -1.4735 N   0  0  0  0  0  0  0  0  0  0  0  0
    3.3162    1.0587   -1.4607 C   0  0  0  0  0  0  0  0  0  0  0  0
    4.0864    1.8129   -1.5617 H   0  0  0  0  0  0  0  0  0  0  0  0
    3.5392   -0.2560   -1.2963 N   0  0  0  0  0  0  0  0  0  0  0  0
    4.4485   -0.6932   -1.2344 H   0  0  0  0  0  0  0  0  0  0  0  0
    2.3212   -0.8928   -1.2102 C   0  0  0  0  0  0  0  0  0  0  0  0
    2.1364   -1.9482   -1.0536 H   0  0  0  0  0  0  0  0  0  0  0  0
   -0.9851    1.3114    0.6698 C   0  0  0  0  0  0  0  0  0  0  0  0
   -2.0377    1.8431    0.3168 O   0  0  0  0  0  0  0  0  0  0  0  0
   -0.1052    1.9265    1.4663 N   0  0  0  0  0  0  0  0  0  0  0  0
    0.7810    1.4586    1.6201 H   0  0  0  0  0  0  0  0  0  0  0  0
   -0.2724    3.2715    2.0119 C   0  0  0  0  0  0  0  0  0  0  0  0
   -1.3249    3.4549    2.2426 H   0  0  0  0  0  0  0  0  0  0  0  0
    0.3167    3.3776    2.9239 H   0  0  0  0  0  0  0  0  0  0  0  0
    0.0609    4.0073    1.2782 H   0  0  0  0  0  0  0  0  0  0  0  0
  5  6  2  0  0  0  0
  5  7  1  0  0  0  0
  2  3  1  0  0  0  0
  2  4  1  0  0  0  0
  2  5  1  0  0  0  0
  1  2  1  0  0  0  0
 22 23  2  0  0  0  0
 22 24  1  0  0  0  0
 20 21  1  0  0  0  0
 18 19  1  0  0  0  0
 18 20  1  0  0  0  0
 16 17  1  0  0  0  0
 16 18  1  0  0  0  0
 15 16  2  0  0  0  0
 14 15  1  0  0  0  0
 14 20  2  0  0  0  0
 11 12  1  0  0  0  0
 11 13  1  0  0  0  0
 11 14  1  0  0  0  0
  9 10  1  0  0  0  0
  9 11  1  0  0  0  0
  9 22  1  0  0  0  0
  7  8  1  0  0  0  0
  7  9  1  0  0  0  0
 26 27  1  0  0  0  0
 26 28  1  0  0  0  0
 26 29  1  0  0  0  0
 24 25  1  0  0  0  0
 24 26  1  0  0  0  0
M  END
$$$$
default_name
  -OEChem-02102213163D

 29 29  0     1  0  0  0  0  0999 V2000
   -2.9561   -3.9186    1.3887 H   0  0  0  0  0  0  0  0  0  0  0  0
   -3.1191   -2.9346    0.9517 C   0  0  0  0  0  0  0  0  0  0  0  0
   -3.7811   -2.3546    1.5917 H   0  0  0  0  0  0  0  0  0  0  0  0
   -3.5591   -3.0406   -0.0383 H   0  0  0  0  0  0  0  0  0  0  0  0
   -1.7921   -2.2226    0.8327 C   0  0  0  0  0  0  0  0  0  0  0  0
   -0.7611   -2.7766    1.1927 O   0  0  0  0  0  0  0  0  0  0  0  0
   -1.8201   -0.9926    0.3247 N   0  0  0  0  0  0  0  0  0  0  0  0
   -2.7141   -0.5816    0.0927 H   0  0  0  0  0  0  0  0  0  0  0  0
   -0.6481   -0.1156    0.2017 C   0  0  1  0  0  0  0  0  0  0  0  0
    0.1344   -0.4988    0.8596 H   0  0  0  0  0  0  0  0  0  0  0  0
   -0.1211   -0.1520   -1.2460 C   0  0  0  0  0  0  0  0  0  0  0  0
   -0.3268   -1.1273   -1.6894 H   0  0  0  0  0  0  0  0  0  0  0  0
   -0.6390    0.5973   -1.8462 H   0  0  0  0  0  0  0  0  0  0  0  0
    1.3684    0.0757   -1.3340 C   0  0  0  0  0  0  0  0  0  0  0  0
    2.0187    1.3007   -1.1792 N   0  0  0  0  0  0  0  0  0  0  0  0
    3.3296    1.0389   -1.2855 C   0  0  0  0  0  0  0  0  0  0  0  0
    4.1106    1.7861   -1.2222 H   0  0  0  0  0  0  0  0  0  0  0  0
    3.5320   -0.2763   -1.4712 N   0  0  0  0  0  0  0  0  0  0  0  0
    4.4340   -0.7239   -1.5603 H   0  0  0  0  0  0  0  0  0  0  0  0
    2.3054   -0.9018   -1.5005 C   0  0  0  0  0  0  0  0  0  0  0  0
    2.1053   -1.9601   -1.6109 H   0  0  0  0  0  0  0  0  0  0  0  0
   -0.9851    1.3114    0.6698 C   0  0  0  0  0  0  0  0  0  0  0  0
   -2.0377    1.8431    0.3168 O   0  0  0  0  0  0  0  0  0  0  0  0
   -0.1052    1.9265    1.4663 N   0  0  0  0  0  0  0  0  0  0  0  0
    0.7810    1.4586    1.6201 H   0  0  0  0  0  0  0  0  0  0  0  0
   -0.2724    3.2715    2.0119 C   0  0  0  0  0  0  0  0  0  0  0  0
   -1.3249    3.4549    2.2426 H   0  0  0  0  0  0  0  0  0  0  0  0
    0.3167    3.3776    2.9239 H   0  0  0  0  0  0  0  0  0  0  0  0
    0.0609    4.0073    1.2782 H   0  0  0  0  0  0  0  0  0  0  0  0
  5  6  2  0  0  0  0
  5  7  1  0  0  0  0
  2  3  1  0  0  0  0
  2  4  1  0  0  0  0
  2  5  1  0  0  0  0
  1  2  1  0  0  0  0
 22 23  2  0  0  0  0
 22 24  1  0  0  0  0
 20 21  1  0  0  0  0
 18 19  1  0  0  0  0
 18 20  1  0  0  0  0
 16 17  1  0  0  0  0
 16 18  1  0  0  0  0
 15 16  2  0  0  0  0
 14 15  1  0  0  0  0
 14 20  2  0  0  0  0
 11 12  1  0  0  0  0
 11 13  1  0  0  0  0
 11 14  1  0  0  0  0
  9 10  1  0  0  0  0
  9 11  1  0  0  0  0
  9 22  1  0  0  0  0
  7  8  1  0  0  0  0
  7  9  1  0  0  0  0
 26 27  1  0  0  0  0
 26 28  1  0  0  0  0
 26 29  1  0  0  0  0
 24 25  1  0  0  0  0
 24 26  1  0  0  0  0
M  END
$$$$
default_name
  -OEChem-02102213163D

 29 29  0     1  0  0  0  0  0999 V2000
   -2.9561   -3.9186    1.3887 H   0  0  0  0  0  0  0  0  0  0  0  0
   -3.1191   -2.9346    0.9517 C   0  0  0  0  0  0  0  0  0  0  0  0
   -3.7811   -2.3546    1.5917 H   0  0  0  0  0  0  0  0  0  0  0  0
   -3.5591   -3.0406   -0.0383 H   0  0  0  0  0  0  0  0  0  0  0  0
   -1.7921   -2.2226    0.8327 C   0  0  0  0  0  0  0  0  0  0  0  0
   -0.7611   -2.7766    1.1927 O   0  0  0  0  0  0  0  0  0  0  0  0
   -1.8201   -0.9926    0.3247 N   0  0  0  0  0  0  0  0  0  0  0  0
   -2.7141   -0.5816    0.0927 H   0  0  0  0  0  0  0  0  0  0  0  0
   -0.6481   -0.1156    0.2017 C   0  0  1  0  0  0  0  0  0  0  0  0
    0.1344   -0.4988    0.8596 H   0  0  0  0  0  0  0  0  0  0  0  0
   -0.1211   -0.1520   -1.2460 C   0  0  0  0  0  0  0  0  0  0  0  0
   -0.3268   -1.1273   -1.6894 H   0  0  0  0  0  0  0  0  0  0  0  0
   -0.6390    0.5973   -1.8462 H   0  0  0  0  0  0  0  0  0  0  0  0
    1.3684    0.0757   -1.3340 C   0  0  0  0  0  0  0  0  0  0  0  0
    2.0485    1.2138   -0.8986 N   0  0  0  0  0  0  0  0  0  0  0  0
    3.3490    0.9748   -1.1219 C   0  0  0  0  0  0  0  0  0  0  0  0
    4.1468    1.6731   -0.9021 H   0  0  0  0  0  0  0  0  0  0  0  0
    3.5178   -0.2512   -1.6451 N   0  0  0  0  0  0  0  0  0  0  0  0
    4.4067   -0.6701   -1.8823 H   0  0  0  0  0  0  0  0  0  0  0  0
    2.2786   -0.8360   -1.7827 C   0  0  0  0  0  0  0  0  0  0  0  0
    2.0533   -1.8289   -2.1511 H   0  0  0  0  0  0  0  0  0  0  0  0
   -0.9851    1.3114    0.6698 C   0  0  0  0  0  0  0  0  0  0  0  0
   -2.0377    1.8431    0.3168 O   0  0  0  0  0  0  0  0  0  0  0  0
   -0.1052    1.9265    1.4663 N   0  0  0  0  0  0  0  0  0  0  0  0
    0.7810    1.4586    1.6201 H   0  0  0  0  0  0  0  0  0  0  0  0
   -0.2724    3.2715    2.0119 C   0  0  0  0  0  0  0  0  0  0  0  0
   -1.3249    3.4549    2.2426 H   0  0  0  0  0  0  0  0  0  0  0  0
    0.3167    3.3776    2.9239 H   0  0  0  0  0  0  0  0  0  0  0  0
    0.0609    4.0073    1.2782 H   0  0  0  0  0  0  0  0  0  0  0  0
  5  6  2  0  0  0  0
  5  7  1  0  0  0  0
  2  3  1  0  0  0  0
  2  4  1  0  0  0  0
  2  5  1  0  0  0  0
  1  2  1  0  0  0  0
 22 23  2  0  0  0  0
 22 24  1  0  0  0  0
 20 21  1  0  0  0  0
 18 19  1  0  0  0  0
 18 20  1  0  0  0  0
 16 17  1  0  0  0  0
 16 18  1  0  0  0  0
 15 16  2  0  0  0  0
 14 15  1  0  0  0  0
 14 20  2  0  0  0  0
 11 12  1  0  0  0  0
 11 13  1  0  0  0  0
 11 14  1  0  0  0  0
  9 10  1  0  0  0  0
  9 11  1  0  0  0  0
  9 22  1  0  0  0  0
  7  8  1  0  0  0  0
  7  9  1  0  0  0  0
 26 27  1  0  0  0  0
 26 28  1  0  0  0  0
 26 29  1  0  0  0  0
 24 25  1  0  0  0  0
 24 26  1  0  0  0  0
M  END
$$$$
default_name
  -OEChem-02102213163D

 29 29  0     1  0  0  0  0  0999 V2000
   -2.9561   -3.9186    1.3887 H   0  0  0  0  0  0  0  0  0  0  0  0
   -3.1191   -2.9346    0.9517 C   0  0  0  0  0  0  0  0  0  0  0  0
   -3.7811   -2.3546    1.5917 H   0  0  0  0  0  0  0  0  0  0  0  0
   -3.5591   -3.0406   -0.0383 H   0  0  0  0  0  0  0  0  0  0  0  0
   -1.7921   -2.2226    0.8327 C   0  0  0  0  0  0  0  0  0  0  0  0
   -0.7611   -2.7766    1.1927 O   0  0  0  0  0  0  0  0  0  0  0  0
   -1.8201   -0.9926    0.3247 N   0  0  0  0  0  0  0  0  0  0  0  0
   -2.7141   -0.5816    0.0927 H   0  0  0  0  0  0  0  0  0  0  0  0
   -0.6481   -0.1156    0.2017 C   0  0  1  0  0  0  0  0  0  0  0  0
    0.1344   -0.4988    0.8596 H   0  0  0  0  0  0  0  0  0  0  0  0
   -0.1211   -0.1520   -1.2460 C   0  0  0  0  0  0  0  0  0  0  0  0
   -0.3268   -1.1273   -1.6894 H   0  0  0  0  0  0  0  0  0  0  0  0
   -0.6390    0.5973   -1.8462 H   0  0  0  0  0  0  0  0  0  0  0  0
    1.3684    0.0757   -1.3340 C   0  0  0  0  0  0  0  0  0  0  0  0
    2.0870    1.0578   -0.6509 N   0  0  0  0  0  0  0  0  0  0  0  0
    3.3733    0.8708   -0.9809 C   0  0  0  0  0  0  0  0  0  0  0  0
    4.1925    1.4817   -0.6232 H   0  0  0  0  0  0  0  0  0  0  0  0
    3.4978   -0.1823   -1.8060 N   0  0  0  0  0  0  0  0  0  0  0  0
    4.3687   -0.5355   -2.1785 H   0  0  0  0  0  0  0  0  0  0  0  0
    2.2428   -0.7000   -2.0374 C   0  0  0  0  0  0  0  0  0  0  0  0
    1.9840   -1.5634   -2.6374 H   0  0  0  0  0  0  0  0  0  0  0  0
   -0.9851    1.3114    0.6698 C   0  0  0  0  0  0  0  0  0  0  0  0
   -2.0377    1.8431    0.3168 O   0  0  0  0  0  0  0  0  0  0  0  0
   -0.1052    1.9265    1.4663 N   0  0  0  0  0  0  0  0  0  0  0  0
    0.7810    1.4586    1.6201 H   0  0  0  0  0  0  0  0  0  0  0  0
   -0.2724    3.2715    2.0119 C   0  0  0  0  0  0  0  0  0  0  0  0
   -1.3249    3.4549    2.2426 H   0  0  0  0  0  0  0  0  0  0  0  0
    0.3167    3.3776    2.9239 H   0  0  0  0  0  0  0  0  0  0  0  0
    0.0609    4.0073    1.2782 H   0  0  0  0  0  0  0  0  0  0  0  0
  5  6  2  0  0  0  0
  5  7  1  0  0  0  0
  2  3  1  0  0  0  0
  2  4  1  0  0  0  0
  2  5  1  0  0  0  0
  1  2  1  0  0  0  0
 22 23  2  0  0  0  0
 22 24  1  0  0  0  0
 20 21  1  0  0  0  0
 18 19  1  0  0  0  0
 18 20  1  0  0  0  0
 16 17  1  0  0  0  0
 16 18  1  0  0  0  0
 15 16  2  0  0  0  0
 14 15  1  0  0  0  0
 14 20  2  0  0  0  0
 11 12  1  0  0  0  0
 11 13  1  0  0  0  0
 11 14  1  0  0  0  0
  9 10  1  0  0  0  0
  9 11  1  0  0  0  0
  9 22  1  0  0  0  0
  7  8  1  0  0  0  0
  7  9  1  0  0  0  0
 26 27  1  0  0  0  0
 26 28  1  0  0  0  0
 26 29  1  0  0  0  0
 24 25  1  0  0  0  0
 24 26  1  0  0  0  0
M  END
$$$$
default_name
  -OEChem-02102213163D

 29 29  0     1  0  0  0  0  0999 V2000
   -2.9561   -3.9186    1.3887 H   0  0  0  0  0  0  0  0  0  0  0  0
   -3.1191   -2.9346    0.9517 C   0  0  0  0  0  0  0  0  0  0  0  0
   -3.7811   -2.3546    1.5917 H   0  0  0  0  0  0  0  0  0  0  0  0
   -3.5591   -3.0406   -0.0383 H   0  0  0  0  0  0  0  0  0  0  0  0
   -1.7921   -2.2226    0.8327 C   0  0  0  0  0  0  0  0  0  0  0  0
   -0.7611   -2.7766    1.1927 O   0  0  0  0  0  0  0  0  0  0  0  0
   -1.8201   -0.9926    0.3247 N   0  0  0  0  0  0  0  0  0  0  0  0
   -2.7141   -0.5816    0.0927 H   0  0  0  0  0  0  0  0  0  0  0  0
   -0.6481   -0.1156    0.2017 C   0  0  1  0  0  0  0  0  0  0  0  0
    0.1344   -0.4988    0.8596 H   0  0  0  0  0  0  0  0  0  0  0  0
   -0.1211   -0.1520   -1.2460 C   0  0  0  0  0  0  0  0  0  0  0  0
   -0.3268   -1.1273   -1.6894 H   0  0  0  0  0  0  0  0  0  0  0  0
   -0.6390    0.5973   -1.8462 H   0  0  0  0  0  0  0  0  0  0  0  0
    1.3684    0.0757   -1.3340 C   0  0  0  0  0  0  0  0  0  0  0  0
    2.1315    0.8432   -0.4531 N   0  0  0  0  0  0  0  0  0  0  0  0
    3.4006    0.7339   -0.8723 C   0  0  0  0  0  0  0  0  0  0  0  0
    4.2447    1.2248   -0.4045 H   0  0  0  0  0  0  0  0  0  0  0  0
    3.4732   -0.0743   -1.9432 N   0  0  0  0  0  0  0  0  0  0  0  0
    4.3223   -0.3292   -2.4288 H   0  0  0  0  0  0  0  0  0  0  0  0
    2.2003   -0.5031   -2.2473 C   0  0  0  0  0  0  0  0  0  0  0  0
    1.9021   -1.1817   -3.0365 H   0  0  0  0  0  0  0  0  0  0  0  0
   -0.9851    1.3114    0.6698 C   0  0  0  0  0  0  0  0  0  0  0  0
   -2.0377    1.8431    0.3168 O   0  0  0  0  0  0  0  0  0  0  0  0
   -0.1052    1.9265    1.4663 N   0  0  0  0  0  0  0  0  0  0  0  0
    0.7810    1.4586    1.6201 H   0  0  0  0  0  0  0  0  0  0  0  0
   -0.2724    3.2715    2.0119 C   0  0  0  0  0  0  0  0  0  0  0  0
   -1.3249    3.4549    2.2426 H   0  0  0  0  0  0  0  0  0  0  0  0
    0.3167    3.3776    2.9239 H   0  0  0  0  0  0  0  0  0  0  0  0
    0.0609    4.0073    1.2782 H   0  0  0  0  0  0  0  0  0  0  0  0
  5  6  2  0  0  0  0
  5  7  1  0  0  0  0
  2  3  1  0  0  0  0
  2  4  1  0  0  0  0
  2  5  1  0  0  0  0
  1  2  1  0  0  0  0
 22 23  2  0  0  0  0
 22 24  1  0  0  0  0
 20 21  1  0  0  0  0
 18 19  1  0  0  0  0
 18 20  1  0  0  0  0
 16 17  1  0  0  0  0
 16 18  1  0  0  0  0
 15 16  2  0  0  0  0
 14 15  1  0  0  0  0
 14 20  2  0  0  0  0
 11 12  1  0  0  0  0
 11 13  1  0  0  0  0
 11 14  1  0  0  0  0
  9 10  1  0  0  0  0
  9 11  1  0  0  0  0
  9 22  1  0  0  0  0
  7  8  1  0  0  0  0
  7  9  1  0  0  0  0
 26 27  1  0  0  0  0
 26 28  1  0  0  0  0
 26 29  1  0  0  0  0
 24 25  1  0  0  0  0
 24 26  1  0  0  0  0
M  END
$$$$
default_name
  -OEChem-02102213163D

 29 29  0     1  0  0  0  0  0999 V2000
   -2.9561   -3.9186    1.3887 H   0  0  0  0  0  0  0  0  0  0  0  0
   -3.1191   -2.9346    0.9517 C   0  0  0  0  0  0  0  0  0  0  0  0
   -3.7811   -2.3546    1.5917 H   0  0  0  0  0  0  0  0  0  0  0  0
   -3.5591   -3.0406   -0.0383 H   0  0  0  0  0  0  0  0  0  0  0  0
   -1.7921   -2.2226    0.8327 C   0  0  0  0  0  0  0  0  0  0  0  0
   -0.7611   -2.7766    1.1927 O   0  0  0  0  0  0  0  0  0  0  0  0
   -1.8201   -0.9926    0.3247 N   0  0  0  0  0  0  0  0  0  0  0  0
   -2.7141   -0.5816    0.0927 H   0  0  0  0  0  0  0  0  0  0  0  0
   -0.6481   -0.1156    0.2017 C   0  0  1  0  0  0  0  0  0  0  0  0
    0.1344   -0.4988    0.8596 H   0  0  0  0  0  0  0  0  0  0  0  0
   -0.1211   -0.1520   -1.2460 C   0  0  0  0  0  0  0  0  0  0  0  0
   -0.3268   -1.1273   -1.6894 H   0  0  0  0  0  0  0  0  0  0  0  0
   -0.6390    0.5973   -1.8462 H   0  0  0  0  0  0  0  0  0  0  0  0
    1.3684    0.0757   -1.3340 C   0  0  0  0  0  0  0  0  0  0  0  0
    2.1790    0.5848   -0.3185 N   0  0  0  0  0  0  0  0  0  0  0  0
    3.4292    0.5736   -0.8034 C   0  0  0  0  0  0  0  0  0  0  0  0
    4.2998    0.9201   -0.2609 H   0  0  0  0  0  0  0  0  0  0  0  0
    3.4457    0.0654   -2.0471 N   0  0  0  0  0  0  0  0  0  0  0  0
    4.2709   -0.0654   -2.6160 H   0  0  0  0  0  0  0  0  0  0  0  0
    2.1540   -0.2586   -2.3980 C   0  0  0  0  0  0  0  0  0  0  0  0
    1.8131   -0.7098   -3.3214 H   0  0  0  0  0  0  0  0  0  0  0  0
   -0.9851    1.3114    0.6698 C   0  0  0  0  0  0  0  0  0  0  0  0
   -2.0377    1.8431    0.3168 O   0  0  0  0  0  0  0  0  0  0  0  0
   -0.1052    1.9265    1.4663 N   0  0  0  0  0  0  0  0  0  0  0  0
    0.7810    1.4586    1.6201 H   0  0  0  0  0  0  0  0  0  0  0  0
   -0.2724    3.2715    2.0119 C   0  0  0  0  0  0  0  0  0  0  0  0
   -1.3249    3.4549    2.2426 H   0  0  0  0  0  0  0  0  0  0  0  0
    0.3167    3.3776    2.9239 H   0  0  0  0  0  0  0  0  0  0  0  0
    0.0609    4.0073    1.2782 H   0  0  0  0  0  0  0  0  0  0  0  0
  5  6  2  0  0  0  0
  5  7  1  0  0  0  0
  2  3  1  0  0  0  0
  2  4  1  0  0  0  0
  2  5  1  0  0  0  0
  1  2  1  0  0  0  0
 22 23  2  0  0  0  0
 22 24  1  0  0  0  0
 20 21  1  0  0  0  0
 18 19  1  0  0  0  0
 18 20  1  0  0  0  0
 16 17  1  0  0  0  0
 16 18  1  0  0  0  0
 15 16  2  0  0  0  0
 14 15  1  0  0  0  0
 14 20  2  0  0  0  0
 11 12  1  0  0  0  0
 11 13  1  0  0  0  0
 11 14  1  0  0  0  0
  9 10  1  0  0  0  0
  9 11  1  0  0  0  0
  9 22  1  0  0  0  0
  7  8  1  0  0  0  0
  7  9  1  0  0  0  0
 26 27  1  0  0  0  0
 26 28  1  0  0  0  0
 26 29  1  0  0  0  0
 24 25  1  0  0  0  0
 24 26  1  0  0  0  0
M  END
$$$$
default_name
  -OEChem-02102213163D

 29 29  0     1  0  0  0  0  0999 V2000
   -2.9561   -3.9186    1.3887 H   0  0  0  0  0  0  0  0  0  0  0  0
   -3.1191   -2.9346    0.9517 C   0  0  0  0  0  0  0  0  0  0  0  0
   -3.7811   -2.3546    1.5917 H   0  0  0  0  0  0  0  0  0  0  0  0
   -3.5591   -3.0406   -0.0383 H   0  0  0  0  0  0  0  0  0  0  0  0
   -1.7921   -2.2226    0.8327 C   0  0  0  0  0  0  0  0  0  0  0  0
   -0.7611   -2.7766    1.1927 O   0  0  0  0  0  0  0  0  0  0  0  0
   -1.8201   -0.9926    0.3247 N   0  0  0  0  0  0  0  0  0  0  0  0
   -2.7141   -0.5816    0.0927 H   0  0  0  0  0  0  0  0  0  0  0  0
   -0.6481   -0.1156    0.2017 C   0  0  1  0  0  0  0  0  0  0  0  0
    0.1344   -0.4988    0.8596 H   0  0  0  0  0  0  0  0  0  0  0  0
   -0.1211   -0.1520   -1.2460 C   0  0  0  0  0  0  0  0  0  0  0  0
   -0.3268   -1.1273   -1.6894 H   0  0  0  0  0  0  0  0  0  0  0  0
   -0.6390    0.5973   -1.8462 H   0  0  0  0  0  0  0  0  0  0  0  0
    1.3684    0.0757   -1.3340 C   0  0  0  0  0  0  0  0  0  0  0  0
    2.2262    0.3000   -0.2563 N   0  0  0  0  0  0  0  0  0  0  0  0
    3.4571    0.4007   -0.7789 C   0  0  0  0  0  0  0  0  0  0  0  0
    4.3540    0.5882   -0.2021 H   0  0  0  0  0  0  0  0  0  0  0  0
    3.4172    0.2273   -2.1107 N   0  0  0  0  0  0  0  0  0  0  0  0
    4.2180    0.2381   -2.7275 H   0  0  0  0  0  0  0  0  0  0  0  0
    2.1071    0.0167   -2.4794 C   0  0  0  0  0  0  0  0  0  0  0  0
    1.7232   -0.1799   -3.4725 H   0  0  0  0  0  0  0  0  0  0  0  0
   -0.9851    1.3114    0.6698 C   0  0  0  0  0  0  0  0  0  0  0  0
   -2.0377    1.8431    0.3168 O   0  0  0  0  0  0  0  0  0  0  0  0
   -0.1052    1.9265    1.4663 N   0  0  0  0  0  0  0  0  0  0  0  0
    0.7810    1.4586    1.6201 H   0  0  0  0  0  0  0  0  0  0  0  0
   -0.2724    3.2715    2.0119 C   0  0  0  0  0  0  0  0  0  0  0  0
   -1.3249    3.4549    2.2426 H   0  0  0  0  0  0  0  0  0  0  0  0
    0.3167    3.3776    2.9239 H   0  0  0  0  0  0  0  0  0  0  0  0
    0.0609    4.0073    1.2782 H   0  0  0  0  0  0  0  0  0  0  0  0
  5  6  2  0  0  0  0
  5  7  1  0  0  0  0
  2  3  1  0  0  0  0
  2  4  1  0  0  0  0
  2  5  1  0  0  0  0
  1  2  1  0  0  0  0
 22 23  2  0  0  0  0
 22 24  1  0  0  0  0
 20 21  1  0  0  0  0
 18 19  1  0  0  0  0
 18 20  1  0  0  0  0
 16 17  1  0  0  0  0
 16 18  1  0  0  0  0
 15 16  2  0  0  0  0
 14 15  1  0  0  0  0
 14 20  2  0  0  0  0
 11 12  1  0  0  0  0
 11 13  1  0  0  0  0
 11 14  1  0  0  0  0
  9 10  1  0  0  0  0
  9 11  1  0  0  0  0
  9 22  1  0  0  0  0
  7  8  1  0  0  0  0
  7  9  1  0  0  0  0
 26 27  1  0  0  0  0
 26 28  1  0  0  0  0
 26 29  1  0  0  0  0
 24 25  1  0  0  0  0
 24 26  1  0  0  0  0
M  END
$$$$
default_name
  -OEChem-02102213163D

 29 29  0     1  0  0  0  0  0999 V2000
   -2.9561   -3.9186    1.3887 H   0  0  0  0  0  0  0  0  0  0  0  0
   -3.1191   -2.9346    0.9517 C   0  0  0  0  0  0  0  0  0  0  0  0
   -3.7811   -2.3546    1.5917 H   0  0  0  0  0  0  0  0  0  0  0  0
   -3.5591   -3.0406   -0.0383 H   0  0  0  0  0  0  0  0  0  0  0  0
   -1.7921   -2.2226    0.8327 C   0  0  0  0  0  0  0  0  0  0  0  0
   -0.7611   -2.7766    1.1927 O   0  0  0  0  0  0  0  0  0  0  0  0
   -1.8201   -0.9926    0.3247 N   0  0  0  0  0  0  0  0  0  0  0  0
   -2.7141   -0.5816    0.0927 H   0  0  0  0  0  0  0  0  0  0  0  0
   -0.6481   -0.1156    0.2017 C   0  0  1  0  0  0  0  0  0  0  0  0
    0.1344   -0.4988    0.8596 H   0  0  0  0  0  0  0  0  0  0  0  0
   -0.1211   -0.1520   -1.2460 C   0  0  0  0  0  0  0  0  0  0  0  0
   -0.3268   -1.1273   -1.6894 H   0  0  0  0  0  0  0  0  0  0  0  0
   -0.6390    0.5973   -1.8462 H   0  0  0  0  0  0  0  0  0  0  0  0
    1.3684    0.0757   -1.3340 C   0  0  0  0  0  0  0  0  0  0  0  0
    2.2699    0.0084   -0.2709 N   0  0  0  0  0  0  0  0  0  0  0  0
    3.4823    0.2270   -0.8005 C   0  0  0  0  0  0  0  0  0  0  0  0
    4.4036    0.2518   -0.2322 H   0  0  0  0  0  0  0  0  0  0  0  0
    3.3896    0.4003   -2.1297 N   0  0  0  0  0  0  0  0  0  0  0  0
    4.1670    0.5605   -2.7556 H   0  0  0  0  0  0  0  0  0  0  0  0
    2.0628    0.3042   -2.4858 C   0  0  0  0  0  0  0  0  0  0  0  0
    1.6384    0.3719   -3.4796 H   0  0  0  0  0  0  0  0  0  0  0  0
   -0.9851    1.3114    0.6698 C   0  0  0  0  0  0  0  0  0  0  0  0
   -2.0377    1.8431    0.3168 O   0  0  0  0  0  0  0  0  0  0  0  0
   -0.1052    1.9265    1.4663 N   0  0  0  0  0  0  0  0  0  0  0  0
    0.7810    1.4586    1.6201 H   0  0  0  0  0  0  0  0  0  0  0  0
   -0.2724    3.2715    2.0119 C   0  0  0  0  0  0  0  0  0  0  0  0
   -1.3249    3.4549    2.2426 H   0  0  0  0  0  0  0  0  0  0  0  0
    0.3167    3.3776    2.9239 H   0  0  0  0  0  0  0  0  0  0  0  0
    0.0609    4.0073    1.2782 H   0  0  0  0  0  0  0  0  0  0  0  0
  5  6  2  0  0  0  0
  5  7  1  0  0  0  0
  2  3  1  0  0  0  0
  2  4  1  0  0  0  0
  2  5  1  0  0  0  0
  1  2  1  0  0  0  0
 22 23  2  0  0  0  0
 22 24  1  0  0  0  0
 20 21  1  0  0  0  0
 18 19  1  0  0  0  0
 18 20  1  0  0  0  0
 16 17  1  0  0  0  0
 16 18  1  0  0  0  0
 15 16  2  0  0  0  0
 14 15  1  0  0  0  0
 14 20  2  0  0  0  0
 11 12  1  0  0  0  0
 11 13  1  0  0  0  0
 11 14  1  0  0  0  0
  9 10  1  0  0  0  0
  9 11  1  0  0  0  0
  9 22  1  0  0  0  0
  7  8  1  0  0  0  0
  7  9  1  0  0  0  0
 26 27  1  0  0  0  0
 26 28  1  0  0  0  0
 26 29  1  0  0  0  0
 24 25  1  0  0  0  0
 24 26  1  0  0  0  0
M  END
$$$$
default_name
  -OEChem-02102213163D

 29 29  0     1  0  0  0  0  0999 V2000
   -2.9561   -3.9186    1.3887 H   0  0  0  0  0  0  0  0  0  0  0  0
   -3.1191   -2.9346    0.9517 C   0  0  0  0  0  0  0  0  0  0  0  0
   -3.7811   -2.3546    1.5917 H   0  0  0  0  0  0  0  0  0  0  0  0
   -3.5591   -3.0406   -0.0383 H   0  0  0  0  0  0  0  0  0  0  0  0
   -1.7921   -2.2226    0.8327 C   0  0  0  0  0  0  0  0  0  0  0  0
   -0.7611   -2.7766    1.1927 O   0  0  0  0  0  0  0  0  0  0  0  0
   -1.8201   -0.9926    0.3247 N   0  0  0  0  0  0  0  0  0  0  0  0
   -2.7141   -0.5816    0.0927 H   0  0  0  0  0  0  0  0  0  0  0  0
   -0.6481   -0.1156    0.2017 C   0  0  1  0  0  0  0  0  0  0  0  0
    0.1344   -0.4988    0.8596 H   0  0  0  0  0  0  0  0  0  0  0  0
   -0.1211   -0.1520   -1.2460 C   0  0  0  0  0  0  0  0  0  0  0  0
   -0.3268   -1.1273   -1.6894 H   0  0  0  0  0  0  0  0  0  0  0  0
   -0.6390    0.5973   -1.8462 H   0  0  0  0  0  0  0  0  0  0  0  0
    1.3684    0.0757   -1.3340 C   0  0  0  0  0  0  0  0  0  0  0  0
    2.3072   -0.2702   -0.3611 N   0  0  0  0  0  0  0  0  0  0  0  0
    3.5033    0.0644   -0.8667 C   0  0  0  0  0  0  0  0  0  0  0  0
    4.4453   -0.0662   -0.3492 H   0  0  0  0  0  0  0  0  0  0  0  0
    3.3649    0.5727   -2.1027 N   0  0  0  0  0  0  0  0  0  0  0  0
    4.1216    0.8799   -2.6984 H   0  0  0  0  0  0  0  0  0  0  0  0
    2.0241    0.5842   -2.4169 C   0  0  0  0  0  0  0  0  0  0  0  0
    1.5646    0.9080   -3.3423 H   0  0  0  0  0  0  0  0  0  0  0  0
   -0.9851    1.3114    0.6698 C   0  0  0  0  0  0  0  0  0  0  0  0
   -2.0377    1.8431    0.3168 O   0  0  0  0  0  0  0  0  0  0  0  0
   -0.1052    1.9265    1.4663 N   0  0  0  0  0  0  0  0  0  0  0  0
    0.7810    1.4586    1.6201 H   0  0  0  0  0  0  0  0  0  0  0  0
   -0.2724    3.2715    2.0119 C   0  0  0  0  0  0  0  0  0  0  0  0
   -1.3249    3.4549    2.2426 H   0  0  0  0  0  0  0  0  0  0  0  0
    0.3167    3.3776    2.9239 H   0  0  0  0  0  0  0  0  0  0  0  0
    0.0609    4.0073    1.2782 H   0  0  0  0  0  0  0  0  0  0  0  0
  5  6  2  0  0  0  0
  5  7  1  0  0  0  0
  2  3  1  0  0  0  0
  2  4  1  0  0  0  0
  2  5  1  0  0  0  0
  1  2  1  0  0  0  0
 22 23  2  0  0  0  0
 22 24  1  0  0  0  0
 20 21  1  0  0  0  0
 18 19  1  0  0  0  0
 18 20  1  0  0  0  0
 16 17  1  0  0  0  0
 16 18  1  0  0  0  0
 15 16  2  0  0  0  0
 14 15  1  0  0  0  0
 14 20  2  0  0  0  0
 11 12  1  0  0  0  0
 11 13  1  0  0  0  0
 11 14  1  0  0  0  0
  9 10  1  0  0  0  0
  9 11  1  0  0  0  0
  9 22  1  0  0  0  0
  7  8  1  0  0  0  0
  7  9  1  0  0  0  0
 26 27  1  0  0  0  0
 26 28  1  0  0  0  0
 26 29  1  0  0  0  0
 24 25  1  0  0  0  0
 24 26  1  0  0  0  0
M  END
$$$$
default_name
  -OEChem-02102213163D

 29 29  0     1  0  0  0  0  0999 V2000
   -2.9561   -3.9186    1.3887 H   0  0  0  0  0  0  0  0  0  0  0  0
   -3.1191   -2.9346    0.9517 C   0  0  0  0  0  0  0  0  0  0  0  0
   -3.7811   -2.3546    1.5917 H   0  0  0  0  0  0  0  0  0  0  0  0
   -3.5591   -3.0406   -0.0383 H   0  0  0  0  0  0  0  0  0  0  0  0
   -1.7921   -2.2226    0.8327 C   0  0  0  0  0  0  0  0  0  0  0  0
   -0.7611   -2.7766    1.1927 O   0  0  0  0  0  0  0  0  0  0  0  0
   -1.8201   -0.9926    0.3247 N   0  0  0  0  0  0  0  0  0  0  0  0
   -2.7141   -0.5816    0.0927 H   0  0  0  0  0  0  0  0  0  0  0  0
   -0.6481   -0.1156    0.2017 C   0  0  1  0  0  0  0  0  0  0  0  0
    0.1344   -0.4988    0.8596 H   0  0  0  0  0  0  0  0  0  0  0  0
   -0.1211   -0.1520   -1.2460 C   0  0  0  0  0  0  0  0  0  0  0  0
   -0.3268   -1.1273   -1.6894 H   0  0  0  0  0  0  0  0  0  0  0  0
   -0.6390    0.5973   -1.8462 H   0  0  0  0  0  0  0  0  0  0  0  0
    1.3684    0.0757   -1.3340 C   0  0  0  0  0  0  0  0  0  0  0  0
    2.3354   -0.5169   -0.5209 N   0  0  0  0  0  0  0  0  0  0  0  0
    3.5185   -0.0761   -0.9730 C   0  0  0  0  0  0  0  0  0  0  0  0
    4.4762   -0.3441   -0.5450 H   0  0  0  0  0  0  0  0  0  0  0  0
    3.3446    0.7327   -2.0317 N   0  0  0  0  0  0  0  0  0  0  0  0
    4.0847    1.1744   -2.5599 H   0  0  0  0  0  0  0  0  0  0  0  0
    1.9936    0.8376   -2.2773 C   0  0  0  0  0  0  0  0  0  0  0  0
    1.5067    1.3919   -3.0698 H   0  0  0  0  0  0  0  0  0  0  0  0
   -0.9851    1.3114    0.6698 C   0  0  0  0  0  0  0  0  0  0  0  0
   -2.0377    1.8431    0.3168 O   0  0  0  0  0  0  0  0  0  0  0  0
   -0.1052    1.9265    1.4663 N   0  0  0  0  0  0  0  0  0  0  0  0
    0.7810    1.4586    1.6201 H   0  0  0  0  0  0  0  0  0  0  0  0
   -0.2724    3.2715    2.0119 C   0  0  0  0  0  0  0  0  0  0  0  0
   -1.3249    3.4549    2.2426 H   0  0  0  0  0  0  0  0  0  0  0  0
    0.3167    3.3776    2.9239 H   0  0  0  0  0  0  0  0  0  0  0  0
    0.0609    4.0073    1.2782 H   0  0  0  0  0  0  0  0  0  0  0  0
  5  6  2  0  0  0  0
  5  7  1  0  0  0  0
  2  3  1  0  0  0  0
  2  4  1  0  0  0  0
  2  5  1  0  0  0  0
  1  2  1  0  0  0  0
 22 23  2  0  0  0  0
 22 24  1  0  0  0  0
 20 21  1  0  0  0  0
 18 19  1  0  0  0  0
 18 20  1  0  0  0  0
 16 17  1  0  0  0  0
 16 18  1  0  0  0  0
 15 16  2  0  0  0  0
 14 15  1  0  0  0  0
 14 20  2  0  0  0  0
 11 12  1  0  0  0  0
 11 13  1  0  0  0  0
 11 14  1  0  0  0  0
  9 10  1  0  0  0  0
  9 11  1  0  0  0  0
  9 22  1  0  0  0  0
  7  8  1  0  0  0  0
  7  9  1  0  0  0  0
 26 27  1  0  0  0  0
 26 28  1  0  0  0  0
 26 29  1  0  0  0  0
 24 25  1  0  0  0  0
 24 26  1  0  0  0  0
M  END
$$$$
default_name
  -OEChem-02102213163D

 29 29  0     1  0  0  0  0  0999 V2000
   -2.9561   -3.9186    1.3887 H   0  0  0  0  0  0  0  0  0  0  0  0
   -3.1191   -2.9346    0.9517 C   0  0  0  0  0  0  0  0  0  0  0  0
   -3.7811   -2.3546    1.5917 H   0  0  0  0  0  0  0  0  0  0  0  0
   -3.5591   -3.0406   -0.0383 H   0  0  0  0  0  0  0  0  0  0  0  0
   -1.7921   -2.2226    0.8327 C   0  0  0  0  0  0  0  0  0  0  0  0
   -0.7611   -2.7766    1.1927 O   0  0  0  0  0  0  0  0  0  0  0  0
   -1.8201   -0.9926    0.3247 N   0  0  0  0  0  0  0  0  0  0  0  0
   -2.7141   -0.5816    0.0927 H   0  0  0  0  0  0  0  0  0  0  0  0
   -0.6481   -0.1156    0.2017 C   0  0  1  0  0  0  0  0  0  0  0  0
    0.1344   -0.4988    0.8596 H   0  0  0  0  0  0  0  0  0  0  0  0
   -0.1211   -0.1520   -1.2460 C   0  0  0  0  0  0  0  0  0  0  0  0
   -0.3268   -1.1273   -1.6894 H   0  0  0  0  0  0  0  0  0  0  0  0
   -0.6390    0.5973   -1.8462 H   0  0  0  0  0  0  0  0  0  0  0  0
    1.3684    0.0757   -1.3340 C   0  0  0  0  0  0  0  0  0  0  0  0
    2.3528   -0.7147   -0.7394 N   0  0  0  0  0  0  0  0  0  0  0  0
    3.5269   -0.1849   -1.1121 C   0  0  0  0  0  0  0  0  0  0  0  0
    4.4943   -0.5630   -0.8064 H   0  0  0  0  0  0  0  0  0  0  0  0
    3.3302    0.8695   -1.9214 N   0  0  0  0  0  0  0  0  0  0  0  0
    4.0590    1.4241   -2.3493 H   0  0  0  0  0  0  0  0  0  0  0  0
    1.9734    1.0472   -2.0765 C   0  0  0  0  0  0  0  0  0  0  0  0
    1.4687    1.7906   -2.6808 H   0  0  0  0  0  0  0  0  0  0  0  0
   -0.9851    1.3114    0.6698 C   0  0  0  0  0  0  0  0  0  0  0  0
   -2.0377    1.8431    0.3168 O   0  0  0  0  0  0  0  0  0  0  0  0
   -0.1052    1.9265    1.4663 N   0  0  0  0  0  0  0  0  0  0  0  0
    0.7810    1.4586    1.6201 H   0  0  0  0  0  0  0  0  0  0  0  0
   -0.2724    3.2715    2.0119 C   0  0  0  0  0  0  0  0  0  0  0  0
   -1.3249    3.4549    2.2426 H   0  0  0  0  0  0  0  0  0  0  0  0
    0.3167    3.3776    2.9239 H   0  0  0  0  0  0  0  0  0  0  0  0
    0.0609    4.0073    1.2782 H   0  0  0  0  0  0  0  0  0  0  0  0
  5  6  2  0  0  0  0
  5  7  1  0  0  0  0
  2  3  1  0  0  0  0
  2  4  1  0  0  0  0
  2  5  1  0  0  0  0
  1  2  1  0  0  0  0
 22 23  2  0  0  0  0
 22 24  1  0  0  0  0
 20 21  1  0  0  0  0
 18 19  1  0  0  0  0
 18 20  1  0  0  0  0
 16 17  1  0  0  0  0
 16 18  1  0  0  0  0
 15 16  2  0  0  0  0
 14 15  1  0  0  0  0
 14 20  2  0  0  0  0
 11 12  1  0  0  0  0
 11 13  1  0  0  0  0
 11 14  1  0  0  0  0
  9 10  1  0  0  0  0
  9 11  1  0  0  0  0
  9 22  1  0  0  0  0
  7  8  1  0  0  0  0
  7  9  1  0  0  0  0
 26 27  1  0  0  0  0
 26 28  1  0  0  0  0
 26 29  1  0  0  0  0
 24 25  1  0  0  0  0
 24 26  1  0  0  0  0
M  END
$$$$
default_name
  -OEChem-02102213163D

 29 29  0     1  0  0  0  0  0999 V2000
   -2.9561   -3.9186    1.3887 H   0  0  0  0  0  0  0  0  0  0  0  0
   -3.1191   -2.9346    0.9517 C   0  0  0  0  0  0  0  0  0  0  0  0
   -3.7811   -2.3546    1.5917 H   0  0  0  0  0  0  0  0  0  0  0  0
   -3.5591   -3.0406   -0.0383 H   0  0  0  0  0  0  0  0  0  0  0  0
   -1.7921   -2.2226    0.8327 C   0  0  0  0  0  0  0  0  0  0  0  0
   -0.7611   -2.7766    1.1927 O   0  0  0  0  0  0  0  0  0  0  0  0
   -1.8201   -0.9926    0.3247 N   0  0  0  0  0  0  0  0  0  0  0  0
   -2.7141   -0.5816    0.0927 H   0  0  0  0  0  0  0  0  0  0  0  0
   -0.6481   -0.1156    0.2017 C   0  0  1  0  0  0  0  0  0  0  0  0
    0.1344   -0.4988    0.8596 H   0  0  0  0  0  0  0  0  0  0  0  0
   -0.1211   -0.1520   -1.2460 C   0  0  0  0  0  0  0  0  0  0  0  0
   -0.3268   -1.1273   -1.6894 H   0  0  0  0  0  0  0  0  0  0  0  0
   -0.6390    0.5973   -1.8462 H   0  0  0  0  0  0  0  0  0  0  0  0
    1.3684    0.0757   -1.3340 C   0  0  0  0  0  0  0  0  0  0  0  0
    2.3580   -0.8503   -1.0016 N   0  0  0  0  0  0  0  0  0  0  0  0
    3.5279   -0.2545   -1.2747 C   0  0  0  0  0  0  0  0  0  0  0  0
    4.4982   -0.7080   -1.1154 H   0  0  0  0  0  0  0  0  0  0  0  0
    3.3227    0.9736   -1.7794 N   0  0  0  0  0  0  0  0  0  0  0  0
    4.0461    1.6119   -2.0812 H   0  0  0  0  0  0  0  0  0  0  0  0
    1.9649    1.1987   -1.8283 C   0  0  0  0  0  0  0  0  0  0  0  0
    1.4533    2.0769   -2.2017 H   0  0  0  0  0  0  0  0  0  0  0  0
   -0.9851    1.3114    0.6698 C   0  0  0  0  0  0  0  0  0  0  0  0
   -2.0377    1.8431    0.3168 O   0  0  0  0  0  0  0  0  0  0  0  0
   -0.1052    1.9265    1.4663 N   0  0  0  0  0  0  0  0  0  0  0  0
    0.7810    1.4586    1.6201 H   0  0  0  0  0  0  0  0  0  0  0  0
   -0.2724    3.2715    2.0119 C   0  0  0  0  0  0  0  0  0  0  0  0
   -1.3249    3.4549    2.2426 H   0  0  0  0  0  0  0  0  0  0  0  0
    0.3167    3.3776    2.9239 H   0  0  0  0  0  0  0  0  0  0  0  0
    0.0609    4.0073    1.2782 H   0  0  0  0  0  0  0  0  0  0  0  0
  5  6  2  0  0  0  0
  5  7  1  0  0  0  0
  2  3  1  0  0  0  0
  2  4  1  0  0  0  0
  2  5  1  0  0  0  0
  1  2  1  0  0  0  0
 22 23  2  0  0  0  0
 22 24  1  0  0  0  0
 20 21  1  0  0  0  0
 18 19  1  0  0  0  0
 18 20  1  0  0  0  0
 16 17  1  0  0  0  0
 16 18  1  0  0  0  0
 15 16  2  0  0  0  0
 14 15  1  0  0  0  0
 14 20  2  0  0  0  0
 11 12  1  0  0  0  0
 11 13  1  0  0  0  0
 11 14  1  0  0  0  0
  9 10  1  0  0  0  0
  9 11  1  0  0  0  0
  9 22  1  0  0  0  0
  7  8  1  0  0  0  0
  7  9  1  0  0  0  0
 26 27  1  0  0  0  0
 26 28  1  0  0  0  0
 26 29  1  0  0  0  0
 24 25  1  0  0  0  0
 24 26  1  0  0  0  0
M  END
$$$$
default_name
  -OEChem-02102213163D

 29 29  0     1  0  0  0  0  0999 V2000
   -2.9561   -3.9186    1.3887 H   0  0  0  0  0  0  0  0  0  0  0  0
   -3.1191   -2.9346    0.9517 C   0  0  0  0  0  0  0  0  0  0  0  0
   -3.7811   -2.3546    1.5917 H   0  0  0  0  0  0  0  0  0  0  0  0
   -3.5591   -3.0406   -0.0383 H   0  0  0  0  0  0  0  0  0  0  0  0
   -1.7921   -2.2226    0.8327 C   0  0  0  0  0  0  0  0  0  0  0  0
   -0.7611   -2.7766    1.1927 O   0  0  0  0  0  0  0  0  0  0  0  0
   -1.8201   -0.9926    0.3247 N   0  0  0  0  0  0  0  0  0  0  0  0
   -2.7141   -0.5816    0.0927 H   0  0  0  0  0  0  0  0  0  0  0  0
   -0.6481   -0.1156    0.2017 C   0  0  1  0  0  0  0  0  0  0  0  0
    0.1344   -0.4988    0.8596 H   0  0  0  0  0  0  0  0  0  0  0  0
   -0.1211   -0.1520   -1.2460 C   0  0  0  0  0  0  0  0  0  0  0  0
   -0.3268   -1.1273   -1.6894 H   0  0  0  0  0  0  0  0  0  0  0  0
   -0.6390    0.5973   -1.8462 H   0  0  0  0  0  0  0  0  0  0  0  0
    1.3684    0.0757   -1.3340 C   0  0  0  0  0  0  0  0  0  0  0  0
    2.3508   -0.9144   -1.2897 N   0  0  0  0  0  0  0  0  0  0  0  0
    3.5216   -0.2803   -1.4495 C   0  0  0  0  0  0  0  0  0  0  0  0
    4.4877   -0.7691   -1.4511 H   0  0  0  0  0  0  0  0  0  0  0  0
    3.3225    1.0381   -1.6154 N   0  0  0  0  0  0  0  0  0  0  0  0
    4.0470    1.7250   -1.7737 H   0  0  0  0  0  0  0  0  0  0  0  0
    1.9687    1.2817   -1.5495 C   0  0  0  0  0  0  0  0  0  0  0  0
    1.4614    2.2313   -1.6652 H   0  0  0  0  0  0  0  0  0  0  0  0
   -0.9851    1.3114    0.6698 C   0  0  0  0  0  0  0  0  0  0  0  0
   -2.0377    1.8431    0.3168 O   0  0  0  0  0  0  0  0  0  0  0  0
   -0.1052    1.9265    1.4663 N   0  0  0  0  0  0  0  0  0  0  0  0
    0.7810    1.4586    1.6201 H   0  0  0  0  0  0  0  0  0  0  0  0
   -0.2724    3.2715    2.0119 C   0  0  0  0  0  0  0  0  0  0  0  0
   -1.3249    3.4549    2.2426 H   0  0  0  0  0  0  0  0  0  0  0  0
    0.3167    3.3776    2.9239 H   0  0  0  0  0  0  0  0  0  0  0  0
    0.0609    4.0073    1.2782 H   0  0  0  0  0  0  0  0  0  0  0  0
  5  6  2  0  0  0  0
  5  7  1  0  0  0  0
  2  3  1  0  0  0  0
  2  4  1  0  0  0  0
  2  5  1  0  0  0  0
  1  2  1  0  0  0  0
 22 23  2  0  0  0  0
 22 24  1  0  0  0  0
 20 21  1  0  0  0  0
 18 19  1  0  0  0  0
 18 20  1  0  0  0  0
 16 17  1  0  0  0  0
 16 18  1  0  0  0  0
 15 16  2  0  0  0  0
 14 15  1  0  0  0  0
 14 20  2  0  0  0  0
 11 12  1  0  0  0  0
 11 13  1  0  0  0  0
 11 14  1  0  0  0  0
  9 10  1  0  0  0  0
  9 11  1  0  0  0  0
  9 22  1  0  0  0  0
  7  8  1  0  0  0  0
  7  9  1  0  0  0  0
 26 27  1  0  0  0  0
 26 28  1  0  0  0  0
 26 29  1  0  0  0  0
 24 25  1  0  0  0  0
 24 26  1  0  0  0  0
M  END
$$$$
default_name
  -OEChem-02102213163D

 29 29  0     1  0  0  0  0  0999 V2000
   -2.9561   -3.9186    1.3887 H   0  0  0  0  0  0  0  0  0  0  0  0
   -3.1191   -2.9346    0.9517 C   0  0  0  0  0  0  0  0  0  0  0  0
   -3.7811   -2.3546    1.5917 H   0  0  0  0  0  0  0  0  0  0  0  0
   -3.5591   -3.0406   -0.0383 H   0  0  0  0  0  0  0  0  0  0  0  0
   -1.7921   -2.2226    0.8327 C   0  0  0  0  0  0  0  0  0  0  0  0
   -0.7611   -2.7766    1.1927 O   0  0  0  0  0  0  0  0  0  0  0  0
   -1.8201   -0.9926    0.3247 N   0  0  0  0  0  0  0  0  0  0  0  0
   -2.7141   -0.5816    0.0927 H   0  0  0  0  0  0  0  0  0  0  0  0
   -0.6481   -0.1156    0.2017 C   0  0  1  0  0  0  0  0  0  0  0  0
    0.1344   -0.4988    0.8596 H   0  0  0  0  0  0  0  0  0  0  0  0
   -0.1211   -0.1520   -1.2460 C   0  0  0  0  0  0  0  0  0  0  0  0
   -0.3268   -1.1273   -1.6894 H   0  0  0  0  0  0  0  0  0  0  0  0
   -0.6390    0.5973   -1.8462 H   0  0  0  0  0  0  0  0  0  0  0  0
    1.3684    0.0757   -1.3340 C   0  0  0  0  0  0  0  0  0  0  0  0
    2.3316   -0.9026   -1.5841 N   0  0  0  0  0  0  0  0  0  0  0  0
    3.5082   -0.2605   -1.6247 C   0  0  0  0  0  0  0  0  0  0  0  0
    4.4635   -0.7423   -1.7906 H   0  0  0  0  0  0  0  0  0  0  0  0
    3.3297    1.0584   -1.4404 N   0  0  0  0  0  0  0  0  0  0  0  0
    4.0616    1.7557   -1.4479 H   0  0  0  0  0  0  0  0  0  0  0  0
    1.9845    1.2907   -1.2591 C   0  0  0  0  0  0  0  0  0  0  0  0
    1.4925    2.2432   -1.1078 H   0  0  0  0  0  0  0  0  0  0  0  0
   -0.9851    1.3114    0.6698 C   0  0  0  0  0  0  0  0  0  0  0  0
   -2.0377    1.8431    0.3168 O   0  0  0  0  0  0  0  0  0  0  0  0
   -0.1052    1.9265    1.4663 N   0  0  0  0  0  0  0  0  0  0  0  0
    0.7810    1.4586    1.6201 H   0  0  0  0  0  0  0  0  0  0  0  0
   -0.2724    3.2715    2.0119 C   0  0  0  0  0  0  0  0  0  0  0  0
   -1.3249    3.4549    2.2426 H   0  0  0  0  0  0  0  0  0  0  0  0
    0.3167    3.3776    2.9239 H   0  0  0  0  0  0  0  0  0  0  0  0
    0.0609    4.0073    1.2782 H   0  0  0  0  0  0  0  0  0  0  0  0
  5  6  2  0  0  0  0
  5  7  1  0  0  0  0
  2  3  1  0  0  0  0
  2  4  1  0  0  0  0
  2  5  1  0  0  0  0
  1  2  1  0  0  0  0
 22 23  2  0  0  0  0
 22 24  1  0  0  0  0
 20 21  1  0  0  0  0
 18 19  1  0  0  0  0
 18 20  1  0  0  0  0
 16 17  1  0  0  0  0
 16 18  1  0  0  0  0
 15 16  2  0  0  0  0
 14 15  1  0  0  0  0
 14 20  2  0  0  0  0
 11 12  1  0  0  0  0
 11 13  1  0  0  0  0
 11 14  1  0  0  0  0
  9 10  1  0  0  0  0
  9 11  1  0  0  0  0
  9 22  1  0  0  0  0
  7  8  1  0  0  0  0
  7  9  1  0  0  0  0
 26 27  1  0  0  0  0
 26 28  1  0  0  0  0
 26 29  1  0  0  0  0
 24 25  1  0  0  0  0
 24 26  1  0  0  0  0
M  END
$$$$
default_name
  -OEChem-02102213163D

 29 29  0     1  0  0  0  0  0999 V2000
   -2.9561   -3.9186    1.3887 H   0  0  0  0  0  0  0  0  0  0  0  0
   -3.1191   -2.9346    0.9517 C   0  0  0  0  0  0  0  0  0  0  0  0
   -3.7811   -2.3546    1.5917 H   0  0  0  0  0  0  0  0  0  0  0  0
   -3.5591   -3.0406   -0.0383 H   0  0  0  0  0  0  0  0  0  0  0  0
   -1.7921   -2.2226    0.8327 C   0  0  0  0  0  0  0  0  0  0  0  0
   -0.7611   -2.7766    1.1927 O   0  0  0  0  0  0  0  0  0  0  0  0
   -1.8201   -0.9926    0.3247 N   0  0  0  0  0  0  0  0  0  0  0  0
   -2.7141   -0.5816    0.0927 H   0  0  0  0  0  0  0  0  0  0  0  0
   -0.6481   -0.1156    0.2017 C   0  0  1  0  0  0  0  0  0  0  0  0
    0.1344   -0.4988    0.8596 H   0  0  0  0  0  0  0  0  0  0  0  0
   -0.1211   -0.1520   -1.2460 C   0  0  0  0  0  0  0  0  0  0  0  0
   -0.3268   -1.1273   -1.6894 H   0  0  0  0  0  0  0  0  0  0  0  0
   -0.6390    0.5973   -1.8462 H   0  0  0  0  0  0  0  0  0  0  0  0
    1.3684    0.0757   -1.3340 C   0  0  0  0  0  0  0  0  0  0  0  0
    2.3017   -0.8157   -1.8647 N   0  0  0  0  0  0  0  0  0  0  0  0
    3.4887   -0.1964   -1.7883 C   0  0  0  0  0  0  0  0  0  0  0  0
    4.4273   -0.6293   -2.1107 H   0  0  0  0  0  0  0  0  0  0  0  0
    3.3439    1.0333   -1.2666 N   0  0  0  0  0  0  0  0  0  0  0  0
    4.0888    1.7019   -1.1259 H   0  0  0  0  0  0  0  0  0  0  0  0
    2.0112    1.2249   -0.9770 C   0  0  0  0  0  0  0  0  0  0  0  0
    1.5444    2.1120   -0.5677 H   0  0  0  0  0  0  0  0  0  0  0  0
   -0.9851    1.3114    0.6698 C   0  0  0  0  0  0  0  0  0  0  0  0
   -2.0377    1.8431    0.3168 O   0  0  0  0  0  0  0  0  0  0  0  0
   -0.1052    1.9265    1.4663 N   0  0  0  0  0  0  0  0  0  0  0  0
    0.7810    1.4586    1.6201 H   0  0  0  0  0  0  0  0  0  0  0  0
   -0.2724    3.2715    2.0119 C   0  0  0  0  0  0  0  0  0  0  0  0
   -1.3249    3.4549    2.2426 H   0  0  0  0  0  0  0  0  0  0  0  0
    0.3167    3.3776    2.9239 H   0  0  0  0  0  0  0  0  0  0  0  0
    0.0609    4.0073    1.2782 H   0  0  0  0  0  0  0  0  0  0  0  0
  5  6  2  0  0  0  0
  5  7  1  0  0  0  0
  2  3  1  0  0  0  0
  2  4  1  0  0  0  0
  2  5  1  0  0  0  0
  1  2  1  0  0  0  0
 22 23  2  0  0  0  0
 22 24  1  0  0  0  0
 20 21  1  0  0  0  0
 18 19  1  0  0  0  0
 18 20  1  0  0  0  0
 16 17  1  0  0  0  0
 16 18  1  0  0  0  0
 15 16  2  0  0  0  0
 14 15  1  0  0  0  0
 14 20  2  0  0  0  0
 11 12  1  0  0  0  0
 11 13  1  0  0  0  0
 11 14  1  0  0  0  0
  9 10  1  0  0  0  0
  9 11  1  0  0  0  0
  9 22  1  0  0  0  0
  7  8  1  0  0  0  0
  7  9  1  0  0  0  0
 26 27  1  0  0  0  0
 26 28  1  0  0  0  0
 26 29  1  0  0  0  0
 24 25  1  0  0  0  0
 24 26  1  0  0  0  0
M  END
$$$$
default_name
  -OEChem-02102213163D

 29 29  0     1  0  0  0  0  0999 V2000
   -2.9561   -3.9186    1.3887 H   0  0  0  0  0  0  0  0  0  0  0  0
   -3.1191   -2.9346    0.9517 C   0  0  0  0  0  0  0  0  0  0  0  0
   -3.7811   -2.3546    1.5917 H   0  0  0  0  0  0  0  0  0  0  0  0
   -3.5591   -3.0406   -0.0383 H   0  0  0  0  0  0  0  0  0  0  0  0
   -1.7921   -2.2226    0.8327 C   0  0  0  0  0  0  0  0  0  0  0  0
   -0.7611   -2.7766    1.1927 O   0  0  0  0  0  0  0  0  0  0  0  0
   -1.8201   -0.9926    0.3247 N   0  0  0  0  0  0  0  0  0  0  0  0
   -2.7141   -0.5816    0.0927 H   0  0  0  0  0  0  0  0  0  0  0  0
   -0.6481   -0.1156    0.2017 C   0  0  1  0  0  0  0  0  0  0  0  0
    0.1344   -0.4988    0.8596 H   0  0  0  0  0  0  0  0  0  0  0  0
   -0.1211   -0.1520   -1.2460 C   0  0  0  0  0  0  0  0  0  0  0  0
   -0.3268   -1.1273   -1.6894 H   0  0  0  0  0  0  0  0  0  0  0  0
   -0.6390    0.5973   -1.8462 H   0  0  0  0  0  0  0  0  0  0  0  0
    1.3684    0.0757   -1.3340 C   0  0  0  0  0  0  0  0  0  0  0  0
    2.2632   -0.6596   -2.1123 N   0  0  0  0  0  0  0  0  0  0  0  0
    3.4645   -0.0924   -1.9293 C   0  0  0  0  0  0  0  0  0  0  0  0
    4.3816   -0.4378   -2.3896 H   0  0  0  0  0  0  0  0  0  0  0  0
    3.3639    0.9644   -1.1056 N   0  0  0  0  0  0  0  0  0  0  0  0
    4.1269    1.5673   -0.8296 H   0  0  0  0  0  0  0  0  0  0  0  0
    2.0470    1.0889   -0.7223 C   0  0  0  0  0  0  0  0  0  0  0  0
    1.6137    1.8465   -0.0814 H   0  0  0  0  0  0  0  0  0  0  0  0
   -0.9851    1.3114    0.6698 C   0  0  0  0  0  0  0  0  0  0  0  0
   -2.0377    1.8431    0.3168 O   0  0  0  0  0  0  0  0  0  0  0  0
   -0.1052    1.9265    1.4663 N   0  0  0  0  0  0  0  0  0  0  0  0
    0.7810    1.4586    1.6201 H   0  0  0  0  0  0  0  0  0  0  0  0
   -0.2724    3.2715    2.0119 C   0  0  0  0  0  0  0  0  0  0  0  0
   -1.3249    3.4549    2.2426 H   0  0  0  0  0  0  0  0  0  0  0  0
    0.3167    3.3776    2.9239 H   0  0  0  0  0  0  0  0  0  0  0  0
    0.0609    4.0073    1.2782 H   0  0  0  0  0  0  0  0  0  0  0  0
  5  6  2  0  0  0  0
  5  7  1  0  0  0  0
  2  3  1  0  0  0  0
  2  4  1  0  0  0  0
  2  5  1  0  0  0  0
  1  2  1  0  0  0  0
 22 23  2  0  0  0  0
 22 24  1  0  0  0  0
 20 21  1  0  0  0  0
 18 19  1  0  0  0  0
 18 20  1  0  0  0  0
 16 17  1  0  0  0  0
 16 18  1  0  0  0  0
 15 16  2  0  0  0  0
 14 15  1  0  0  0  0
 14 20  2  0  0  0  0
 11 12  1  0  0  0  0
 11 13  1  0  0  0  0
 11 14  1  0  0  0  0
  9 10  1  0  0  0  0
  9 11  1  0  0  0  0
  9 22  1  0  0  0  0
  7  8  1  0  0  0  0
  7  9  1  0  0  0  0
 26 27  1  0  0  0  0
 26 28  1  0  0  0  0
 26 29  1  0  0  0  0
 24 25  1  0  0  0  0
 24 26  1  0  0  0  0
M  END
$$$$
default_name
  -OEChem-02102213163D

 29 29  0     1  0  0  0  0  0999 V2000
   -2.9561   -3.9186    1.3887 H   0  0  0  0  0  0  0  0  0  0  0  0
   -3.1191   -2.9346    0.9517 C   0  0  0  0  0  0  0  0  0  0  0  0
   -3.7811   -2.3546    1.5917 H   0  0  0  0  0  0  0  0  0  0  0  0
   -3.5591   -3.0406   -0.0383 H   0  0  0  0  0  0  0  0  0  0  0  0
   -1.7921   -2.2226    0.8327 C   0  0  0  0  0  0  0  0  0  0  0  0
   -0.7611   -2.7766    1.1927 O   0  0  0  0  0  0  0  0  0  0  0  0
   -1.8201   -0.9926    0.3247 N   0  0  0  0  0  0  0  0  0  0  0  0
   -2.7141   -0.5816    0.0927 H   0  0  0  0  0  0  0  0  0  0  0  0
   -0.6481   -0.1156    0.2017 C   0  0  1  0  0  0  0  0  0  0  0  0
    0.1344   -0.4988    0.8596 H   0  0  0  0  0  0  0  0  0  0  0  0
   -0.1211   -0.1520   -1.2460 C   0  0  0  0  0  0  0  0  0  0  0  0
   -0.3268   -1.1273   -1.6894 H   0  0  0  0  0  0  0  0  0  0  0  0
   -0.6390    0.5973   -1.8462 H   0  0  0  0  0  0  0  0  0  0  0  0
    1.3684    0.0757   -1.3340 C   0  0  0  0  0  0  0  0  0  0  0  0
    2.2187   -0.4451   -2.3102 N   0  0  0  0  0  0  0  0  0  0  0  0
    3.4371    0.0445   -2.0379 C   0  0  0  0  0  0  0  0  0  0  0  0
    4.3294   -0.1810   -2.6083 H   0  0  0  0  0  0  0  0  0  0  0  0
    3.3885    0.8564   -0.9685 N   0  0  0  0  0  0  0  0  0  0  0  0
    4.1732    1.3610   -0.5794 H   0  0  0  0  0  0  0  0  0  0  0  0
    2.0895    0.8920   -0.5124 C   0  0  0  0  0  0  0  0  0  0  0  0
    1.6957    1.4648    0.3177 H   0  0  0  0  0  0  0  0  0  0  0  0
   -0.9851    1.3114    0.6698 C   0  0  0  0  0  0  0  0  0  0  0  0
   -2.0377    1.8431    0.3168 O   0  0  0  0  0  0  0  0  0  0  0  0
   -0.1052    1.9265    1.4663 N   0  0  0  0  0  0  0  0  0  0  0  0
    0.7810    1.4586    1.6201 H   0  0  0  0  0  0  0  0  0  0  0  0
   -0.2724    3.2715    2.0119 C   0  0  0  0  0  0  0  0  0  0  0  0
   -1.3249    3.4549    2.2426 H   0  0  0  0  0  0  0  0  0  0  0  0
    0.3167    3.3776    2.9239 H   0  0  0  0  0  0  0  0  0  0  0  0
    0.0609    4.0073    1.2782 H   0  0  0  0  0  0  0  0  0  0  0  0
  5  6  2  0  0  0  0
  5  7  1  0  0  0  0
  2  3  1  0  0  0  0
  2  4  1  0  0  0  0
  2  5  1  0  0  0  0
  1  2  1  0  0  0  0
 22 23  2  0  0  0  0
 22 24  1  0  0  0  0
 20 21  1  0  0  0  0
 18 19  1  0  0  0  0
 18 20  1  0  0  0  0
 16 17  1  0  0  0  0
 16 18  1  0  0  0  0
 15 16  2  0  0  0  0
 14 15  1  0  0  0  0
 14 20  2  0  0  0  0
 11 12  1  0  0  0  0
 11 13  1  0  0  0  0
 11 14  1  0  0  0  0
  9 10  1  0  0  0  0
  9 11  1  0  0  0  0
  9 22  1  0  0  0  0
  7  8  1  0  0  0  0
  7  9  1  0  0  0  0
 26 27  1  0  0  0  0
 26 28  1  0  0  0  0
 26 29  1  0  0  0  0
 24 25  1  0  0  0  0
 24 26  1  0  0  0  0
M  END
$$$$
default_name
  -OEChem-02102213163D

 29 29  0     1  0  0  0  0  0999 V2000
   -2.9561   -3.9186    1.3887 H   0  0  0  0  0  0  0  0  0  0  0  0
   -3.1191   -2.9346    0.9517 C   0  0  0  0  0  0  0  0  0  0  0  0
   -3.7811   -2.3546    1.5917 H   0  0  0  0  0  0  0  0  0  0  0  0
   -3.5591   -3.0406   -0.0383 H   0  0  0  0  0  0  0  0  0  0  0  0
   -1.7921   -2.2226    0.8327 C   0  0  0  0  0  0  0  0  0  0  0  0
   -0.7611   -2.7766    1.1927 O   0  0  0  0  0  0  0  0  0  0  0  0
   -1.8201   -0.9926    0.3247 N   0  0  0  0  0  0  0  0  0  0  0  0
   -2.7141   -0.5816    0.0927 H   0  0  0  0  0  0  0  0  0  0  0  0
   -0.6481   -0.1156    0.2017 C   0  0  1  0  0  0  0  0  0  0  0  0
    0.1344   -0.4988    0.8596 H   0  0  0  0  0  0  0  0  0  0  0  0
   -0.1211   -0.1520   -1.2460 C   0  0  0  0  0  0  0  0  0  0  0  0
   -0.3268   -1.1273   -1.6894 H   0  0  0  0  0  0  0  0  0  0  0  0
   -0.6390    0.5973   -1.8462 H   0  0  0  0  0  0  0  0  0  0  0  0
    1.3684    0.0757   -1.3340 C   0  0  0  0  0  0  0  0  0  0  0  0
    2.1713   -0.1866   -2.4448 N   0  0  0  0  0  0  0  0  0  0  0  0
    3.4086    0.2048   -2.1068 C   0  0  0  0  0  0  0  0  0  0  0  0
    4.2743    0.1238   -2.7519 H   0  0  0  0  0  0  0  0  0  0  0  0
    3.4160    0.7167   -0.8646 N   0  0  0  0  0  0  0  0  0  0  0  0
    4.2246    1.0972   -0.3921 H   0  0  0  0  0  0  0  0  0  0  0  0
    2.1358    0.6475   -0.3617 C   0  0  0  0  0  0  0  0  0  0  0  0
    1.7846    0.9929    0.6026 H   0  0  0  0  0  0  0  0  0  0  0  0
   -0.9851    1.3114    0.6698 C   0  0  0  0  0  0  0  0  0  0  0  0
   -2.0377    1.8431    0.3168 O   0  0  0  0  0  0  0  0  0  0  0  0
   -0.1052    1.9265    1.4663 N   0  0  0  0  0  0  0  0  0  0  0  0
    0.7810    1.4586    1.6201 H   0  0  0  0  0  0  0  0  0  0  0  0
   -0.2724    3.2715    2.0119 C   0  0  0  0  0  0  0  0  0  0  0  0
   -1.3249    3.4549    2.2426 H   0  0  0  0  0  0  0  0  0  0  0  0
    0.3167    3.3776    2.9239 H   0  0  0  0  0  0  0  0  0  0  0  0
    0.0609    4.0073    1.2782 H   0  0  0  0  0  0  0  0  0  0  0  0
  5  6  2  0  0  0  0
  5  7  1  0  0  0  0
  2  3  1  0  0  0  0
  2  4  1  0  0  0  0
  2  5  1  0  0  0  0
  1  2  1  0  0  0  0
 22 23  2  0  0  0  0
 22 24  1  0  0  0  0
 20 21  1  0  0  0  0
 18 19  1  0  0  0  0
 18 20  1  0  0  0  0
 16 17  1  0  0  0  0
 16 18  1  0  0  0  0
 15 16  2  0  0  0  0
 14 15  1  0  0  0  0
 14 20  2  0  0  0  0
 11 12  1  0  0  0  0
 11 13  1  0  0  0  0
 11 14  1  0  0  0  0
  9 10  1  0  0  0  0
  9 11  1  0  0  0  0
  9 22  1  0  0  0  0
  7  8  1  0  0  0  0
  7  9  1  0  0  0  0
 26 27  1  0  0  0  0
 26 28  1  0  0  0  0
 26 29  1  0  0  0  0
 24 25  1  0  0  0  0
 24 26  1  0  0  0  0
M  END
$$$$
default_name
  -OEChem-02102213163D

 29 29  0     1  0  0  0  0  0999 V2000
   -2.9561   -3.9186    1.3887 H   0  0  0  0  0  0  0  0  0  0  0  0
   -3.1191   -2.9346    0.9517 C   0  0  0  0  0  0  0  0  0  0  0  0
   -3.7811   -2.3546    1.5917 H   0  0  0  0  0  0  0  0  0  0  0  0
   -3.5591   -3.0406   -0.0383 H   0  0  0  0  0  0  0  0  0  0  0  0
   -1.7921   -2.2226    0.8327 C   0  0  0  0  0  0  0  0  0  0  0  0
   -0.7611   -2.7766    1.1927 O   0  0  0  0  0  0  0  0  0  0  0  0
   -1.8201   -0.9926    0.3247 N   0  0  0  0  0  0  0  0  0  0  0  0
   -2.7141   -0.5816    0.0927 H   0  0  0  0  0  0  0  0  0  0  0  0
   -0.6481   -0.1156    0.2017 C   0  0  1  0  0  0  0  0  0  0  0  0
    0.1344   -0.4988    0.8596 H   0  0  0  0  0  0  0  0  0  0  0  0
   -0.1211   -0.1520   -1.2460 C   0  0  0  0  0  0  0  0  0  0  0  0
   -0.5499   -1.0051   -1.7737 H   0  0  0  0  0  0  0  0  0  0  0  0
   -0.4312    0.7505   -1.7744 H   0  0  0  0  0  0  0  0  0  0  0  0
    1.3804   -0.2868   -1.3205 C   0  0  0  0  0  0  0  0  0  0  0  0
    2.1388   -0.3462   -2.4904 N   0  0  0  0  0  0  0  0  0  0  0  0
    3.4191   -0.4150   -2.0974 C   0  0  0  0  0  0  0  0  0  0  0  0
    4.2638   -0.4844   -2.7712 H   0  0  0  0  0  0  0  0  0  0  0  0
    3.5013   -0.3762   -0.7569 N   0  0  0  0  0  0  0  0  0  0  0  0
    4.3584   -0.3939   -0.2214 H   0  0  0  0  0  0  0  0  0  0  0  0
    2.2242   -0.2912   -0.2485 C   0  0  0  0  0  0  0  0  0  0  0  0
    1.9298   -0.2192    0.7909 H   0  0  0  0  0  0  0  0  0  0  0  0
   -0.9851    1.3114    0.6698 C   0  0  0  0  0  0  0  0  0  0  0  0
   -2.0377    1.8431    0.3168 O   0  0  0  0  0  0  0  0  0  0  0  0
   -0.1052    1.9265    1.4663 N   0  0  0  0  0  0  0  0  0  0  0  0
    0.7810    1.4586    1.6201 H   0  0  0  0  0  0  0  0  0  0  0  0
   -0.2724    3.2715    2.0119 C   0  0  0  0  0  0  0  0  0  0  0  0
   -1.3249    3.4549    2.2426 H   0  0  0  0  0  0  0  0  0  0  0  0
    0.3167    3.3776    2.9239 H   0  0  0  0  0  0  0  0  0  0  0  0
    0.0609    4.0073    1.2782 H   0  0  0  0  0  0  0  0  0  0  0  0
  5  6  2  0  0  0  0
  5  7  1  0  0  0  0
  2  3  1  0  0  0  0
  2  4  1  0  0  0  0
  2  5  1  0  0  0  0
  1  2  1  0  0  0  0
 22 23  2  0  0  0  0
 22 24  1  0  0  0  0
 20 21  1  0  0  0  0
 18 19  1  0  0  0  0
 18 20  1  0  0  0  0
 16 17  1  0  0  0  0
 16 18  1  0  0  0  0
 15 16  2  0  0  0  0
 14 15  1  0  0  0  0
 14 20  2  0  0  0  0
 11 12  1  0  0  0  0
 11 13  1  0  0  0  0
 11 14  1  0  0  0  0
  9 10  1  0  0  0  0
  9 11  1  0  0  0  0
  9 22  1  0  0  0  0
  7  8  1  0  0  0  0
  7  9  1  0  0  0  0
 26 27  1  0  0  0  0
 26 28  1  0  0  0  0
 26 29  1  0  0  0  0
 24 25  1  0  0  0  0
 24 26  1  0  0  0  0
M  END
$$$$
default_name
  -OEChem-02102213163D

 29 29  0     1  0  0  0  0  0999 V2000
   -2.9561   -3.9186    1.3887 H   0  0  0  0  0  0  0  0  0  0  0  0
   -3.1191   -2.9346    0.9517 C   0  0  0  0  0  0  0  0  0  0  0  0
   -3.7811   -2.3546    1.5917 H   0  0  0  0  0  0  0  0  0  0  0  0
   -3.5591   -3.0406   -0.0383 H   0  0  0  0  0  0  0  0  0  0  0  0
   -1.7921   -2.2226    0.8327 C   0  0  0  0  0  0  0  0  0  0  0  0
   -0.7611   -2.7766    1.1927 O   0  0  0  0  0  0  0  0  0  0  0  0
   -1.8201   -0.9926    0.3247 N   0  0  0  0  0  0  0  0  0  0  0  0
   -2.7141   -0.5816    0.0927 H   0  0  0  0  0  0  0  0  0  0  0  0
   -0.6481   -0.1156    0.2017 C   0  0  1  0  0  0  0  0  0  0  0  0
    0.1344   -0.4988    0.8596 H   0  0  0  0  0  0  0  0  0  0  0  0
   -0.1211   -0.1520   -1.2460 C   0  0  0  0  0  0  0  0  0  0  0  0
   -0.5499   -1.0051   -1.7737 H   0  0  0  0  0  0  0  0  0  0  0  0
   -0.4312    0.7505   -1.7744 H   0  0  0  0  0  0  0  0  0  0  0  0
    1.3804   -0.2868   -1.3205 C   0  0  0  0  0  0  0  0  0  0  0  0
    2.1669   -0.0552   -2.4497 N   0  0  0  0  0  0  0  0  0  0  0  0
    3.4364   -0.2430   -2.0603 C   0  0  0  0  0  0  0  0  0  0  0  0
    4.2968   -0.1500   -2.7109 H   0  0  0  0  0  0  0  0  0  0  0  0
    3.4857   -0.5517   -0.7536 N   0  0  0  0  0  0  0  0  0  0  0  0
    4.3291   -0.7202   -0.2224 H   0  0  0  0  0  0  0  0  0  0  0  0
    2.1973   -0.5802   -0.2680 C   0  0  0  0  0  0  0  0  0  0  0  0
    1.8779   -0.7735    0.7484 H   0  0  0  0  0  0  0  0  0  0  0  0
   -0.9851    1.3114    0.6698 C   0  0  0  0  0  0  0  0  0  0  0  0
   -2.0377    1.8431    0.3168 O   0  0  0  0  0  0  0  0  0  0  0  0
   -0.1052    1.9265    1.4663 N   0  0  0  0  0  0  0  0  0  0  0  0
    0.7810    1.4586    1.6201 H   0  0  0  0  0  0  0  0  0  0  0  0
   -0.2724    3.2715    2.0119 C   0  0  0  0  0  0  0  0  0  0  0  0
   -1.3249    3.4549    2.2426 H   0  0  0  0  0  0  0  0  0  0  0  0
    0.3167    3.3776    2.9239 H   0  0  0  0  0  0  0  0  0  0  0  0
    0.0609    4.0073    1.2782 H   0  0  0  0  0  0  0  0  0  0  0  0
  5  6  2  0  0  0  0
  5  7  1  0  0  0  0
  2  3  1  0  0  0  0
  2  4  1  0  0  0  0
  2  5  1  0  0  0  0
  1  2  1  0  0  0  0
 22 23  2  0  0  0  0
 22 24  1  0  0  0  0
 20 21  1  0  0  0  0
 18 19  1  0  0  0  0
 18 20  1  0  0  0  0
 16 17  1  0  0  0  0
 16 18  1  0  0  0  0
 15 16  2  0  0  0  0
 14 15  1  0  0  0  0
 14 20  2  0  0  0  0
 11 12  1  0  0  0  0
 11 13  1  0  0  0  0
 11 14  1  0  0  0  0
  9 10  1  0  0  0  0
  9 11  1  0  0  0  0
  9 22  1  0  0  0  0
  7  8  1  0  0  0  0
  7  9  1  0  0  0  0
 26 27  1  0  0  0  0
 26 28  1  0  0  0  0
 26 29  1  0  0  0  0
 24 25  1  0  0  0  0
 24 26  1  0  0  0  0
M  END
$$$$
default_name
  -OEChem-02102213163D

 29 29  0     1  0  0  0  0  0999 V2000
   -2.9561   -3.9186    1.3887 H   0  0  0  0  0  0  0  0  0  0  0  0
   -3.1191   -2.9346    0.9517 C   0  0  0  0  0  0  0  0  0  0  0  0
   -3.7811   -2.3546    1.5917 H   0  0  0  0  0  0  0  0  0  0  0  0
   -3.5591   -3.0406   -0.0383 H   0  0  0  0  0  0  0  0  0  0  0  0
   -1.7921   -2.2226    0.8327 C   0  0  0  0  0  0  0  0  0  0  0  0
   -0.7611   -2.7766    1.1927 O   0  0  0  0  0  0  0  0  0  0  0  0
   -1.8201   -0.9926    0.3247 N   0  0  0  0  0  0  0  0  0  0  0  0
   -2.7141   -0.5816    0.0927 H   0  0  0  0  0  0  0  0  0  0  0  0
   -0.6481   -0.1156    0.2017 C   0  0  1  0  0  0  0  0  0  0  0  0
    0.1344   -0.4988    0.8596 H   0  0  0  0  0  0  0  0  0  0  0  0
   -0.1211   -0.1520   -1.2460 C   0  0  0  0  0  0  0  0  0  0  0  0
   -0.5499   -1.0051   -1.7737 H   0  0  0  0  0  0  0  0  0  0  0  0
   -0.4312    0.7505   -1.7744 H   0  0  0  0  0  0  0  0  0  0  0  0
    1.3804   -0.2868   -1.3205 C   0  0  0  0  0  0  0  0  0  0  0  0
    2.1969    0.2151   -2.3347 N   0  0  0  0  0  0  0  0  0  0  0  0
    3.4544   -0.0866   -1.9797 C   0  0  0  0  0  0  0  0  0  0  0  0
    4.3316    0.1570   -2.5658 H   0  0  0  0  0  0  0  0  0  0  0  0
    3.4683   -0.7220   -0.7959 N   0  0  0  0  0  0  0  0  0  0  0  0
    4.2966   -1.0347   -0.3081 H   0  0  0  0  0  0  0  0  0  0  0  0
    2.1680   -0.8541   -0.3618 C   0  0  0  0  0  0  0  0  0  0  0  0
    1.8216   -1.2973    0.5634 H   0  0  0  0  0  0  0  0  0  0  0  0
   -0.9851    1.3114    0.6698 C   0  0  0  0  0  0  0  0  0  0  0  0
   -2.0377    1.8431    0.3168 O   0  0  0  0  0  0  0  0  0  0  0  0
   -0.1052    1.9265    1.4663 N   0  0  0  0  0  0  0  0  0  0  0  0
    0.7810    1.4586    1.6201 H   0  0  0  0  0  0  0  0  0  0  0  0
   -0.2724    3.2715    2.0119 C   0  0  0  0  0  0  0  0  0  0  0  0
   -1.3249    3.4549    2.2426 H   0  0  0  0  0  0  0  0  0  0  0  0
    0.3167    3.3776    2.9239 H   0  0  0  0  0  0  0  0  0  0  0  0
    0.0609    4.0073    1.2782 H   0  0  0  0  0  0  0  0  0  0  0  0
  5  6  2  0  0  0  0
  5  7  1  0  0  0  0
  2  3  1  0  0  0  0
  2  4  1  0  0  0  0
  2  5  1  0  0  0  0
  1  2  1  0  0  0  0
 22 23  2  0  0  0  0
 22 24  1  0  0  0  0
 20 21  1  0  0  0  0
 18 19  1  0  0  0  0
 18 20  1  0  0  0  0
 16 17  1  0  0  0  0
 16 18  1  0  0  0  0
 15 16  2  0  0  0  0
 14 15  1  0  0  0  0
 14 20  2  0  0  0  0
 11 12  1  0  0  0  0
 11 13  1  0  0  0  0
 11 14  1  0  0  0  0
  9 10  1  0  0  0  0
  9 11  1  0  0  0  0
  9 22  1  0  0  0  0
  7  8  1  0  0  0  0
  7  9  1  0  0  0  0
 26 27  1  0  0  0  0
 26 28  1  0  0  0  0
 26 29  1  0  0  0  0
 24 25  1  0  0  0  0
 24 26  1  0  0  0  0
M  END
$$$$
default_name
  -OEChem-02102213163D

 29 29  0     1  0  0  0  0  0999 V2000
   -2.9561   -3.9186    1.3887 H   0  0  0  0  0  0  0  0  0  0  0  0
   -3.1191   -2.9346    0.9517 C   0  0  0  0  0  0  0  0  0  0  0  0
   -3.7811   -2.3546    1.5917 H   0  0  0  0  0  0  0  0  0  0  0  0
   -3.5591   -3.0406   -0.0383 H   0  0  0  0  0  0  0  0  0  0  0  0
   -1.7921   -2.2226    0.8327 C   0  0  0  0  0  0  0  0  0  0  0  0
   -0.7611   -2.7766    1.1927 O   0  0  0  0  0  0  0  0  0  0  0  0
   -1.8201   -0.9926    0.3247 N   0  0  0  0  0  0  0  0  0  0  0  0
   -2.7141   -0.5816    0.0927 H   0  0  0  0  0  0  0  0  0  0  0  0
   -0.6481   -0.1156    0.2017 C   0  0  1  0  0  0  0  0  0  0  0  0
    0.1344   -0.4988    0.8596 H   0  0  0  0  0  0  0  0  0  0  0  0
   -0.1211   -0.1520   -1.2460 C   0  0  0  0  0  0  0  0  0  0  0  0
   -0.5499   -1.0051   -1.7737 H   0  0  0  0  0  0  0  0  0  0  0  0
   -0.4312    0.7505   -1.7744 H   0  0  0  0  0  0  0  0  0  0  0  0
    1.3804   -0.2868   -1.3205 C   0  0  0  0  0  0  0  0  0  0  0  0
    2.2267    0.4462   -2.1534 N   0  0  0  0  0  0  0  0  0  0  0  0
    3.4720    0.0435   -1.8613 C   0  0  0  0  0  0  0  0  0  0  0  0
    4.3657    0.4158   -2.3458 H   0  0  0  0  0  0  0  0  0  0  0  0
    3.4503   -0.8752   -0.8810 N   0  0  0  0  0  0  0  0  0  0  0  0
    4.2631   -1.3160   -0.4726 H   0  0  0  0  0  0  0  0  0  0  0  0
    2.1384   -1.0940   -0.5236 C   0  0  0  0  0  0  0  0  0  0  0  0
    1.7649   -1.7548    0.2485 H   0  0  0  0  0  0  0  0  0  0  0  0
   -0.9851    1.3114    0.6698 C   0  0  0  0  0  0  0  0  0  0  0  0
   -2.0377    1.8431    0.3168 O   0  0  0  0  0  0  0  0  0  0  0  0
   -0.1052    1.9265    1.4663 N   0  0  0  0  0  0  0  0  0  0  0  0
    0.7810    1.4586    1.6201 H   0  0  0  0  0  0  0  0  0  0  0  0
   -0.2724    3.2715    2.0119 C   0  0  0  0  0  0  0  0  0  0  0  0
   -1.3249    3.4549    2.2426 H   0  0  0  0  0  0  0  0  0  0  0  0
    0.3167    3.3776    2.9239 H   0  0  0  0  0  0  0  0  0  0  0  0
    0.0609    4.0073    1.2782 H   0  0  0  0  0  0  0  0  0  0  0  0
  5  6  2  0  0  0  0
  5  7  1  0  0  0  0
  2  3  1  0  0  0  0
  2  4  1  0  0  0  0
  2  5  1  0  0  0  0
  1  2  1  0  0  0  0
 22 23  2  0  0  0  0
 22 24  1  0  0  0  0
 20 21  1  0  0  0  0
 18 19  1  0  0  0  0
 18 20  1  0  0  0  0
 16 17  1  0  0  0  0
 16 18  1  0  0  0  0
 15 16  2  0  0  0  0
 14 15  1  0  0  0  0
 14 20  2  0  0  0  0
 11 12  1  0  0  0  0
 11 13  1  0  0  0  0
 11 14  1  0  0  0  0
  9 10  1  0  0  0  0
  9 11  1  0  0  0  0
  9 22  1  0  0  0  0
  7  8  1  0  0  0  0
  7  9  1  0  0  0  0
 26 27  1  0  0  0  0
 26 28  1  0  0  0  0
 26 29  1  0  0  0  0
 24 25  1  0  0  0  0
 24 26  1  0  0  0  0
M  END
$$$$
default_name
  -OEChem-02102213163D

 29 29  0     1  0  0  0  0  0999 V2000
   -2.9561   -3.9186    1.3887 H   0  0  0  0  0  0  0  0  0  0  0  0
   -3.1191   -2.9346    0.9517 C   0  0  0  0  0  0  0  0  0  0  0  0
   -3.7811   -2.3546    1.5917 H   0  0  0  0  0  0  0  0  0  0  0  0
   -3.5591   -3.0406   -0.0383 H   0  0  0  0  0  0  0  0  0  0  0  0
   -1.7921   -2.2226    0.8327 C   0  0  0  0  0  0  0  0  0  0  0  0
   -0.7611   -2.7766    1.1927 O   0  0  0  0  0  0  0  0  0  0  0  0
   -1.8201   -0.9926    0.3247 N   0  0  0  0  0  0  0  0  0  0  0  0
   -2.7141   -0.5816    0.0927 H   0  0  0  0  0  0  0  0  0  0  0  0
   -0.6481   -0.1156    0.2017 C   0  0  1  0  0  0  0  0  0  0  0  0
    0.1344   -0.4988    0.8596 H   0  0  0  0  0  0  0  0  0  0  0  0
   -0.1211   -0.1520   -1.2460 C   0  0  0  0  0  0  0  0  0  0  0  0
   -0.5499   -1.0051   -1.7737 H   0  0  0  0  0  0  0  0  0  0  0  0
   -0.4312    0.7505   -1.7744 H   0  0  0  0  0  0  0  0  0  0  0  0
    1.3804   -0.2868   -1.3205 C   0  0  0  0  0  0  0  0  0  0  0  0
    2.2542    0.6224   -1.9181 N   0  0  0  0  0  0  0  0  0  0  0  0
    3.4879    0.1384   -1.7129 C   0  0  0  0  0  0  0  0  0  0  0  0
    4.3970    0.6087   -2.0659 H   0  0  0  0  0  0  0  0  0  0  0  0
    3.4329   -1.0012   -1.0031 N   0  0  0  0  0  0  0  0  0  0  0  0
    4.2310   -1.5450   -0.7047 H   0  0  0  0  0  0  0  0  0  0  0  0
    2.1105   -1.2838   -0.7424 C   0  0  0  0  0  0  0  0  0  0  0  0
    1.7115   -2.1150   -0.1748 H   0  0  0  0  0  0  0  0  0  0  0  0
   -0.9851    1.3114    0.6698 C   0  0  0  0  0  0  0  0  0  0  0  0
   -2.0377    1.8431    0.3168 O   0  0  0  0  0  0  0  0  0  0  0  0
   -0.1052    1.9265    1.4663 N   0  0  0  0  0  0  0  0  0  0  0  0
    0.7810    1.4586    1.6201 H   0  0  0  0  0  0  0  0  0  0  0  0
   -0.2724    3.2715    2.0119 C   0  0  0  0  0  0  0  0  0  0  0  0
   -1.3249    3.4549    2.2426 H   0  0  0  0  0  0  0  0  0  0  0  0
    0.3167    3.3776    2.9239 H   0  0  0  0  0  0  0  0  0  0  0  0
    0.0609    4.0073    1.2782 H   0  0  0  0  0  0  0  0  0  0  0  0
  5  6  2  0  0  0  0
  5  7  1  0  0  0  0
  2  3  1  0  0  0  0
  2  4  1  0  0  0  0
  2  5  1  0  0  0  0
  1  2  1  0  0  0  0
 22 23  2  0  0  0  0
 22 24  1  0  0  0  0
 20 21  1  0  0  0  0
 18 19  1  0  0  0  0
 18 20  1  0  0  0  0
 16 17  1  0  0  0  0
 16 18  1  0  0  0  0
 15 16  2  0  0  0  0
 14 15  1  0  0  0  0
 14 20  2  0  0  0  0
 11 12  1  0  0  0  0
 11 13  1  0  0  0  0
 11 14  1  0  0  0  0
  9 10  1  0  0  0  0
  9 11  1  0  0  0  0
  9 22  1  0  0  0  0
  7  8  1  0  0  0  0
  7  9  1  0  0  0  0
 26 27  1  0  0  0  0
 26 28  1  0  0  0  0
 26 29  1  0  0  0  0
 24 25  1  0  0  0  0
 24 26  1  0  0  0  0
M  END
$$$$
default_name
  -OEChem-02102213163D

 29 29  0     1  0  0  0  0  0999 V2000
   -2.9561   -3.9186    1.3887 H   0  0  0  0  0  0  0  0  0  0  0  0
   -3.1191   -2.9346    0.9517 C   0  0  0  0  0  0  0  0  0  0  0  0
   -3.7811   -2.3546    1.5917 H   0  0  0  0  0  0  0  0  0  0  0  0
   -3.5591   -3.0406   -0.0383 H   0  0  0  0  0  0  0  0  0  0  0  0
   -1.7921   -2.2226    0.8327 C   0  0  0  0  0  0  0  0  0  0  0  0
   -0.7611   -2.7766    1.1927 O   0  0  0  0  0  0  0  0  0  0  0  0
   -1.8201   -0.9926    0.3247 N   0  0  0  0  0  0  0  0  0  0  0  0
   -2.7141   -0.5816    0.0927 H   0  0  0  0  0  0  0  0  0  0  0  0
   -0.6481   -0.1156    0.2017 C   0  0  1  0  0  0  0  0  0  0  0  0
    0.1344   -0.4988    0.8596 H   0  0  0  0  0  0  0  0  0  0  0  0
   -0.1211   -0.1520   -1.2460 C   0  0  0  0  0  0  0  0  0  0  0  0
   -0.5499   -1.0051   -1.7737 H   0  0  0  0  0  0  0  0  0  0  0  0
   -0.4312    0.7505   -1.7744 H   0  0  0  0  0  0  0  0  0  0  0  0
    1.3804   -0.2868   -1.3205 C   0  0  0  0  0  0  0  0  0  0  0  0
    2.2776    0.7316   -1.6448 N   0  0  0  0  0  0  0  0  0  0  0  0
    3.5010    0.1917   -1.5448 C   0  0  0  0  0  0  0  0  0  0  0  0
    4.4231    0.7225   -1.7451 H   0  0  0  0  0  0  0  0  0  0  0  0
    3.4173   -1.0911   -1.1539 N   0  0  0  0  0  0  0  0  0  0  0  0
    4.2025   -1.7060   -0.9886 H   0  0  0  0  0  0  0  0  0  0  0  0
    2.0862   -1.4104   -1.0032 C   0  0  0  0  0  0  0  0  0  0  0  0
    1.6652   -2.3533   -0.6776 H   0  0  0  0  0  0  0  0  0  0  0  0
   -0.9851    1.3114    0.6698 C   0  0  0  0  0  0  0  0  0  0  0  0
   -2.0377    1.8431    0.3168 O   0  0  0  0  0  0  0  0  0  0  0  0
   -0.1052    1.9265    1.4663 N   0  0  0  0  0  0  0  0  0  0  0  0
    0.7810    1.4586    1.6201 H   0  0  0  0  0  0  0  0  0  0  0  0
   -0.2724    3.2715    2.0119 C   0  0  0  0  0  0  0  0  0  0  0  0
   -1.3249    3.4549    2.2426 H   0  0  0  0  0  0  0  0  0  0  0  0
    0.3167    3.3776    2.9239 H   0  0  0  0  0  0  0  0  0  0  0  0
    0.0609    4.0073    1.2782 H   0  0  0  0  0  0  0  0  0  0  0  0
  5  6  2  0  0  0  0
  5  7  1  0  0  0  0
  2  3  1  0  0  0  0
  2  4  1  0  0  0  0
  2  5  1  0  0  0  0
  1  2  1  0  0  0  0
 22 23  2  0  0  0  0
 22 24  1  0  0  0  0
 20 21  1  0  0  0  0
 18 19  1  0  0  0  0
 18 20  1  0  0  0  0
 16 17  1  0  0  0  0
 16 18  1  0  0  0  0
 15 16  2  0  0  0  0
 14 15  1  0  0  0  0
 14 20  2  0  0  0  0
 11 12  1  0  0  0  0
 11 13  1  0  0  0  0
 11 14  1  0  0  0  0
  9 10  1  0  0  0  0
  9 11  1  0  0  0  0
  9 22  1  0  0  0  0
  7  8  1  0  0  0  0
  7  9  1  0  0  0  0
 26 27  1  0  0  0  0
 26 28  1  0  0  0  0
 26 29  1  0  0  0  0
 24 25  1  0  0  0  0
 24 26  1  0  0  0  0
M  END
$$$$
default_name
  -OEChem-02102213163D

 29 29  0     1  0  0  0  0  0999 V2000
   -2.9561   -3.9186    1.3887 H   0  0  0  0  0  0  0  0  0  0  0  0
   -3.1191   -2.9346    0.9517 C   0  0  0  0  0  0  0  0  0  0  0  0
   -3.7811   -2.3546    1.5917 H   0  0  0  0  0  0  0  0  0  0  0  0
   -3.5591   -3.0406   -0.0383 H   0  0  0  0  0  0  0  0  0  0  0  0
   -1.7921   -2.2226    0.8327 C   0  0  0  0  0  0  0  0  0  0  0  0
   -0.7611   -2.7766    1.1927 O   0  0  0  0  0  0  0  0  0  0  0  0
   -1.8201   -0.9926    0.3247 N   0  0  0  0  0  0  0  0  0  0  0  0
   -2.7141   -0.5816    0.0927 H   0  0  0  0  0  0  0  0  0  0  0  0
   -0.6481   -0.1156    0.2017 C   0  0  1  0  0  0  0  0  0  0  0  0
    0.1344   -0.4988    0.8596 H   0  0  0  0  0  0  0  0  0  0  0  0
   -0.1211   -0.1520   -1.2460 C   0  0  0  0  0  0  0  0  0  0  0  0
   -0.5499   -1.0051   -1.7737 H   0  0  0  0  0  0  0  0  0  0  0  0
   -0.4312    0.7505   -1.7744 H   0  0  0  0  0  0  0  0  0  0  0  0
    1.3804   -0.2868   -1.3205 C   0  0  0  0  0  0  0  0  0  0  0  0
    2.2952    0.7664   -1.3522 N   0  0  0  0  0  0  0  0  0  0  0  0
    3.5105    0.1997   -1.3684 C   0  0  0  0  0  0  0  0  0  0  0  0
    4.4424    0.7496   -1.4054 H   0  0  0  0  0  0  0  0  0  0  0  0
    3.4046   -1.1390   -1.3230 N   0  0  0  0  0  0  0  0  0  0  0  0
    4.1794   -1.7880   -1.3049 H   0  0  0  0  0  0  0  0  0  0  0  0
    2.0671   -1.4652   -1.2883 C   0  0  0  0  0  0  0  0  0  0  0  0
    1.6290   -2.4534   -1.2257 H   0  0  0  0  0  0  0  0  0  0  0  0
   -0.9851    1.3114    0.6698 C   0  0  0  0  0  0  0  0  0  0  0  0
   -2.0377    1.8431    0.3168 O   0  0  0  0  0  0  0  0  0  0  0  0
   -0.1052    1.9265    1.4663 N   0  0  0  0  0  0  0  0  0  0  0  0
    0.7810    1.4586    1.6201 H   0  0  0  0  0  0  0  0  0  0  0  0
   -0.2724    3.2715    2.0119 C   0  0  0  0  0  0  0  0  0  0  0  0
   -1.3249    3.4549    2.2426 H   0  0  0  0  0  0  0  0  0  0  0  0
    0.3167    3.3776    2.9239 H   0  0  0  0  0  0  0  0  0  0  0  0
    0.0609    4.0073    1.2782 H   0  0  0  0  0  0  0  0  0  0  0  0
  5  6  2  0  0  0  0
  5  7  1  0  0  0  0
  2  3  1  0  0  0  0
  2  4  1  0  0  0  0
  2  5  1  0  0  0  0
  1  2  1  0  0  0  0
 22 23  2  0  0  0  0
 22 24  1  0  0  0  0
 20 21  1  0  0  0  0
 18 19  1  0  0  0  0
 18 20  1  0  0  0  0
 16 17  1  0  0  0  0
 16 18  1  0  0  0  0
 15 16  2  0  0  0  0
 14 15  1  0  0  0  0
 14 20  2  0  0  0  0
 11 12  1  0  0  0  0
 11 13  1  0  0  0  0
 11 14  1  0  0  0  0
  9 10  1  0  0  0  0
  9 11  1  0  0  0  0
  9 22  1  0  0  0  0
  7  8  1  0  0  0  0
  7  9  1  0  0  0  0
 26 27  1  0  0  0  0
 26 28  1  0  0  0  0
 26 29  1  0  0  0  0
 24 25  1  0  0  0  0
 24 26  1  0  0  0  0
M  END
$$$$
default_name
  -OEChem-02102213163D

 29 29  0     1  0  0  0  0  0999 V2000
   -2.9561   -3.9186    1.3887 H   0  0  0  0  0  0  0  0  0  0  0  0
   -3.1191   -2.9346    0.9517 C   0  0  0  0  0  0  0  0  0  0  0  0
   -3.7811   -2.3546    1.5917 H   0  0  0  0  0  0  0  0  0  0  0  0
   -3.5591   -3.0406   -0.0383 H   0  0  0  0  0  0  0  0  0  0  0  0
   -1.7921   -2.2226    0.8327 C   0  0  0  0  0  0  0  0  0  0  0  0
   -0.7611   -2.7766    1.1927 O   0  0  0  0  0  0  0  0  0  0  0  0
   -1.8201   -0.9926    0.3247 N   0  0  0  0  0  0  0  0  0  0  0  0
   -2.7141   -0.5816    0.0927 H   0  0  0  0  0  0  0  0  0  0  0  0
   -0.6481   -0.1156    0.2017 C   0  0  1  0  0  0  0  0  0  0  0  0
    0.1344   -0.4988    0.8596 H   0  0  0  0  0  0  0  0  0  0  0  0
   -0.1211   -0.1520   -1.2460 C   0  0  0  0  0  0  0  0  0  0  0  0
   -0.5499   -1.0051   -1.7737 H   0  0  0  0  0  0  0  0  0  0  0  0
   -0.4312    0.7505   -1.7744 H   0  0  0  0  0  0  0  0  0  0  0  0
    1.3804   -0.2868   -1.3205 C   0  0  0  0  0  0  0  0  0  0  0  0
    2.3059    0.7245   -1.0601 N   0  0  0  0  0  0  0  0  0  0  0  0
    3.5156    0.1619   -1.1957 C   0  0  0  0  0  0  0  0  0  0  0  0
    4.4535    0.6880   -1.0698 H   0  0  0  0  0  0  0  0  0  0  0  0
    3.3957   -1.1415   -1.4991 N   0  0  0  0  0  0  0  0  0  0  0  0
    4.1634   -1.7856   -1.6321 H   0  0  0  0  0  0  0  0  0  0  0  0
    2.0546   -1.4445   -1.5782 C   0  0  0  0  0  0  0  0  0  0  0  0
    1.6054   -2.4085   -1.7817 H   0  0  0  0  0  0  0  0  0  0  0  0
   -0.9851    1.3114    0.6698 C   0  0  0  0  0  0  0  0  0  0  0  0
   -2.0377    1.8431    0.3168 O   0  0  0  0  0  0  0  0  0  0  0  0
   -0.1052    1.9265    1.4663 N   0  0  0  0  0  0  0  0  0  0  0  0
    0.7810    1.4586    1.6201 H   0  0  0  0  0  0  0  0  0  0  0  0
   -0.2724    3.2715    2.0119 C   0  0  0  0  0  0  0  0  0  0  0  0
   -1.3249    3.4549    2.2426 H   0  0  0  0  0  0  0  0  0  0  0  0
    0.3167    3.3776    2.9239 H   0  0  0  0  0  0  0  0  0  0  0  0
    0.0609    4.0073    1.2782 H   0  0  0  0  0  0  0  0  0  0  0  0
  5  6  2  0  0  0  0
  5  7  1  0  0  0  0
  2  3  1  0  0  0  0
  2  4  1  0  0  0  0
  2  5  1  0  0  0  0
  1  2  1  0  0  0  0
 22 23  2  0  0  0  0
 22 24  1  0  0  0  0
 20 21  1  0  0  0  0
 18 19  1  0  0  0  0
 18 20  1  0  0  0  0
 16 17  1  0  0  0  0
 16 18  1  0  0  0  0
 15 16  2  0  0  0  0
 14 15  1  0  0  0  0
 14 20  2  0  0  0  0
 11 12  1  0  0  0  0
 11 13  1  0  0  0  0
 11 14  1  0  0  0  0
  9 10  1  0  0  0  0
  9 11  1  0  0  0  0
  9 22  1  0  0  0  0
  7  8  1  0  0  0  0
  7  9  1  0  0  0  0
 26 27  1  0  0  0  0
 26 28  1  0  0  0  0
 26 29  1  0  0  0  0
 24 25  1  0  0  0  0
 24 26  1  0  0  0  0
M  END
$$$$
default_name
  -OEChem-02102213163D

 29 29  0     1  0  0  0  0  0999 V2000
   -2.9561   -3.9186    1.3887 H   0  0  0  0  0  0  0  0  0  0  0  0
   -3.1191   -2.9346    0.9517 C   0  0  0  0  0  0  0  0  0  0  0  0
   -3.7811   -2.3546    1.5917 H   0  0  0  0  0  0  0  0  0  0  0  0
   -3.5591   -3.0406   -0.0383 H   0  0  0  0  0  0  0  0  0  0  0  0
   -1.7921   -2.2226    0.8327 C   0  0  0  0  0  0  0  0  0  0  0  0
   -0.7611   -2.7766    1.1927 O   0  0  0  0  0  0  0  0  0  0  0  0
   -1.8201   -0.9926    0.3247 N   0  0  0  0  0  0  0  0  0  0  0  0
   -2.7141   -0.5816    0.0927 H   0  0  0  0  0  0  0  0  0  0  0  0
   -0.6481   -0.1156    0.2017 C   0  0  1  0  0  0  0  0  0  0  0  0
    0.1344   -0.4988    0.8596 H   0  0  0  0  0  0  0  0  0  0  0  0
   -0.1211   -0.1520   -1.2460 C   0  0  0  0  0  0  0  0  0  0  0  0
   -0.5499   -1.0051   -1.7737 H   0  0  0  0  0  0  0  0  0  0  0  0
   -0.4312    0.7505   -1.7744 H   0  0  0  0  0  0  0  0  0  0  0  0
    1.3804   -0.2868   -1.3205 C   0  0  0  0  0  0  0  0  0  0  0  0
    2.3090    0.6087   -0.7886 N   0  0  0  0  0  0  0  0  0  0  0  0
    3.5162    0.0809   -1.0386 C   0  0  0  0  0  0  0  0  0  0  0  0
    4.4557    0.5419   -0.7612 H   0  0  0  0  0  0  0  0  0  0  0  0
    3.3911   -1.0986   -1.6699 N   0  0  0  0  0  0  0  0  0  0  0  0
    4.1555   -1.6987   -1.9479 H   0  0  0  0  0  0  0  0  0  0  0  0
    2.0495   -1.3497   -1.8532 C   0  0  0  0  0  0  0  0  0  0  0  0
    1.5961   -2.2216   -2.3077 H   0  0  0  0  0  0  0  0  0  0  0  0
   -0.9851    1.3114    0.6698 C   0  0  0  0  0  0  0  0  0  0  0  0
   -2.0377    1.8431    0.3168 O   0  0  0  0  0  0  0  0  0  0  0  0
   -0.1052    1.9265    1.4663 N   0  0  0  0  0  0  0  0  0  0  0  0
    0.7810    1.4586    1.6201 H   0  0  0  0  0  0  0  0  0  0  0  0
   -0.2724    3.2715    2.0119 C   0  0  0  0  0  0  0  0  0  0  0  0
   -1.3249    3.4549    2.2426 H   0  0  0  0  0  0  0  0  0  0  0  0
    0.3167    3.3776    2.9239 H   0  0  0  0  0  0  0  0  0  0  0  0
    0.0609    4.0073    1.2782 H   0  0  0  0  0  0  0  0  0  0  0  0
  5  6  2  0  0  0  0
  5  7  1  0  0  0  0
  2  3  1  0  0  0  0
  2  4  1  0  0  0  0
  2  5  1  0  0  0  0
  1  2  1  0  0  0  0
 22 23  2  0  0  0  0
 22 24  1  0  0  0  0
 20 21  1  0  0  0  0
 18 19  1  0  0  0  0
 18 20  1  0  0  0  0
 16 17  1  0  0  0  0
 16 18  1  0  0  0  0
 15 16  2  0  0  0  0
 14 15  1  0  0  0  0
 14 20  2  0  0  0  0
 11 12  1  0  0  0  0
 11 13  1  0  0  0  0
 11 14  1  0  0  0  0
  9 10  1  0  0  0  0
  9 11  1  0  0  0  0
  9 22  1  0  0  0  0
  7  8  1  0  0  0  0
  7  9  1  0  0  0  0
 26 27  1  0  0  0  0
 26 28  1  0  0  0  0
 26 29  1  0  0  0  0
 24 25  1  0  0  0  0
 24 26  1  0  0  0  0
M  END
$$$$
default_name
  -OEChem-02102213163D

 29 29  0     1  0  0  0  0  0999 V2000
   -2.9561   -3.9186    1.3887 H   0  0  0  0  0  0  0  0  0  0  0  0
   -3.1191   -2.9346    0.9517 C   0  0  0  0  0  0  0  0  0  0  0  0
   -3.7811   -2.3546    1.5917 H   0  0  0  0  0  0  0  0  0  0  0  0
   -3.5591   -3.0406   -0.0383 H   0  0  0  0  0  0  0  0  0  0  0  0
   -1.7921   -2.2226    0.8327 C   0  0  0  0  0  0  0  0  0  0  0  0
   -0.7611   -2.7766    1.1927 O   0  0  0  0  0  0  0  0  0  0  0  0
   -1.8201   -0.9926    0.3247 N   0  0  0  0  0  0  0  0  0  0  0  0
   -2.7141   -0.5816    0.0927 H   0  0  0  0  0  0  0  0  0  0  0  0
   -0.6481   -0.1156    0.2017 C   0  0  1  0  0  0  0  0  0  0  0  0
    0.1344   -0.4988    0.8596 H   0  0  0  0  0  0  0  0  0  0  0  0
   -0.1211   -0.1520   -1.2460 C   0  0  0  0  0  0  0  0  0  0  0  0
   -0.5499   -1.0051   -1.7737 H   0  0  0  0  0  0  0  0  0  0  0  0
   -0.4312    0.7505   -1.7744 H   0  0  0  0  0  0  0  0  0  0  0  0
    1.3804   -0.2868   -1.3205 C   0  0  0  0  0  0  0  0  0  0  0  0
    2.3042    0.4269   -0.5560 N   0  0  0  0  0  0  0  0  0  0  0  0
    3.5120   -0.0379   -0.9076 C   0  0  0  0  0  0  0  0  0  0  0  0
    4.4488    0.3214   -0.5007 H   0  0  0  0  0  0  0  0  0  0  0  0
    3.3911   -1.0130   -1.8240 N   0  0  0  0  0  0  0  0  0  0  0  0
    4.1563   -1.5334   -2.2307 H   0  0  0  0  0  0  0  0  0  0  0  0
    2.0521   -1.1873   -2.0946 C   0  0  0  0  0  0  0  0  0  0  0  0
    1.6016   -1.9056   -2.7680 H   0  0  0  0  0  0  0  0  0  0  0  0
   -0.9851    1.3114    0.6698 C   0  0  0  0  0  0  0  0  0  0  0  0
   -2.0377    1.8431    0.3168 O   0  0  0  0  0  0  0  0  0  0  0  0
   -0.1052    1.9265    1.4663 N   0  0  0  0  0  0  0  0  0  0  0  0
    0.7810    1.4586    1.6201 H   0  0  0  0  0  0  0  0  0  0  0  0
   -0.2724    3.2715    2.0119 C   0  0  0  0  0  0  0  0  0  0  0  0
   -1.3249    3.4549    2.2426 H   0  0  0  0  0  0  0  0  0  0  0  0
    0.3167    3.3776    2.9239 H   0  0  0  0  0  0  0  0  0  0  0  0
    0.0609    4.0073    1.2782 H   0  0  0  0  0  0  0  0  0  0  0  0
  5  6  2  0  0  0  0
  5  7  1  0  0  0  0
  2  3  1  0  0  0  0
  2  4  1  0  0  0  0
  2  5  1  0  0  0  0
  1  2  1  0  0  0  0
 22 23  2  0  0  0  0
 22 24  1  0  0  0  0
 20 21  1  0  0  0  0
 18 19  1  0  0  0  0
 18 20  1  0  0  0  0
 16 17  1  0  0  0  0
 16 18  1  0  0  0  0
 15 16  2  0  0  0  0
 14 15  1  0  0  0  0
 14 20  2  0  0  0  0
 11 12  1  0  0  0  0
 11 13  1  0  0  0  0
 11 14  1  0  0  0  0
  9 10  1  0  0  0  0
  9 11  1  0  0  0  0
  9 22  1  0  0  0  0
  7  8  1  0  0  0  0
  7  9  1  0  0  0  0
 26 27  1  0  0  0  0
 26 28  1  0  0  0  0
 26 29  1  0  0  0  0
 24 25  1  0  0  0  0
 24 26  1  0  0  0  0
M  END
$$$$
default_name
  -OEChem-02102213163D

 29 29  0     1  0  0  0  0  0999 V2000
   -2.9561   -3.9186    1.3887 H   0  0  0  0  0  0  0  0  0  0  0  0
   -3.1191   -2.9346    0.9517 C   0  0  0  0  0  0  0  0  0  0  0  0
   -3.7811   -2.3546    1.5917 H   0  0  0  0  0  0  0  0  0  0  0  0
   -3.5591   -3.0406   -0.0383 H   0  0  0  0  0  0  0  0  0  0  0  0
   -1.7921   -2.2226    0.8327 C   0  0  0  0  0  0  0  0  0  0  0  0
   -0.7611   -2.7766    1.1927 O   0  0  0  0  0  0  0  0  0  0  0  0
   -1.8201   -0.9926    0.3247 N   0  0  0  0  0  0  0  0  0  0  0  0
   -2.7141   -0.5816    0.0927 H   0  0  0  0  0  0  0  0  0  0  0  0
   -0.6481   -0.1156    0.2017 C   0  0  1  0  0  0  0  0  0  0  0  0
    0.1344   -0.4988    0.8596 H   0  0  0  0  0  0  0  0  0  0  0  0
   -0.1211   -0.1520   -1.2460 C   0  0  0  0  0  0  0  0  0  0  0  0
   -0.5499   -1.0051   -1.7737 H   0  0  0  0  0  0  0  0  0  0  0  0
   -0.4312    0.7505   -1.7744 H   0  0  0  0  0  0  0  0  0  0  0  0
    1.3804   -0.2868   -1.3205 C   0  0  0  0  0  0  0  0  0  0  0  0
    2.2919    0.1914   -0.3783 N   0  0  0  0  0  0  0  0  0  0  0  0
    3.5034   -0.1862   -0.8117 C   0  0  0  0  0  0  0  0  0  0  0  0
    4.4333    0.0414   -0.3061 H   0  0  0  0  0  0  0  0  0  0  0  0
    3.3958   -0.8907   -1.9508 N   0  0  0  0  0  0  0  0  0  0  0  0
    4.1658   -1.3009   -2.4614 H   0  0  0  0  0  0  0  0  0  0  0  0
    2.0623   -0.9683   -2.2858 C   0  0  0  0  0  0  0  0  0  0  0  0
    1.6217   -1.4819   -3.1311 H   0  0  0  0  0  0  0  0  0  0  0  0
   -0.9851    1.3114    0.6698 C   0  0  0  0  0  0  0  0  0  0  0  0
   -2.0377    1.8431    0.3168 O   0  0  0  0  0  0  0  0  0  0  0  0
   -0.1052    1.9265    1.4663 N   0  0  0  0  0  0  0  0  0  0  0  0
    0.7810    1.4586    1.6201 H   0  0  0  0  0  0  0  0  0  0  0  0
   -0.2724    3.2715    2.0119 C   0  0  0  0  0  0  0  0  0  0  0  0
   -1.3249    3.4549    2.2426 H   0  0  0  0  0  0  0  0  0  0  0  0
    0.3167    3.3776    2.9239 H   0  0  0  0  0  0  0  0  0  0  0  0
    0.0609    4.0073    1.2782 H   0  0  0  0  0  0  0  0  0  0  0  0
  5  6  2  0  0  0  0
  5  7  1  0  0  0  0
  2  3  1  0  0  0  0
  2  4  1  0  0  0  0
  2  5  1  0  0  0  0
  1  2  1  0  0  0  0
 22 23  2  0  0  0  0
 22 24  1  0  0  0  0
 20 21  1  0  0  0  0
 18 19  1  0  0  0  0
 18 20  1  0  0  0  0
 16 17  1  0  0  0  0
 16 18  1  0  0  0  0
 15 16  2  0  0  0  0
 14 15  1  0  0  0  0
 14 20  2  0  0  0  0
 11 12  1  0  0  0  0
 11 13  1  0  0  0  0
 11 14  1  0  0  0  0
  9 10  1  0  0  0  0
  9 11  1  0  0  0  0
  9 22  1  0  0  0  0
  7  8  1  0  0  0  0
  7  9  1  0  0  0  0
 26 27  1  0  0  0  0
 26 28  1  0  0  0  0
 26 29  1  0  0  0  0
 24 25  1  0  0  0  0
 24 26  1  0  0  0  0
M  END
$$$$
default_name
  -OEChem-02102213163D

 29 29  0     1  0  0  0  0  0999 V2000
   -2.9561   -3.9186    1.3887 H   0  0  0  0  0  0  0  0  0  0  0  0
   -3.1191   -2.9346    0.9517 C   0  0  0  0  0  0  0  0  0  0  0  0
   -3.7811   -2.3546    1.5917 H   0  0  0  0  0  0  0  0  0  0  0  0
   -3.5591   -3.0406   -0.0383 H   0  0  0  0  0  0  0  0  0  0  0  0
   -1.7921   -2.2226    0.8327 C   0  0  0  0  0  0  0  0  0  0  0  0
   -0.7611   -2.7766    1.1927 O   0  0  0  0  0  0  0  0  0  0  0  0
   -1.8201   -0.9926    0.3247 N   0  0  0  0  0  0  0  0  0  0  0  0
   -2.7141   -0.5816    0.0927 H   0  0  0  0  0  0  0  0  0  0  0  0
   -0.6481   -0.1156    0.2017 C   0  0  1  0  0  0  0  0  0  0  0  0
    0.1344   -0.4988    0.8596 H   0  0  0  0  0  0  0  0  0  0  0  0
   -0.1211   -0.1520   -1.2460 C   0  0  0  0  0  0  0  0  0  0  0  0
   -0.5499   -1.0051   -1.7737 H   0  0  0  0  0  0  0  0  0  0  0  0
   -0.4312    0.7505   -1.7744 H   0  0  0  0  0  0  0  0  0  0  0  0
    1.3804   -0.2868   -1.3205 C   0  0  0  0  0  0  0  0  0  0  0  0
    2.2729   -0.0816   -0.2676 N   0  0  0  0  0  0  0  0  0  0  0  0
    3.4910   -0.3541   -0.7576 C   0  0  0  0  0  0  0  0  0  0  0  0
    4.4103   -0.2790   -0.1905 H   0  0  0  0  0  0  0  0  0  0  0  0
    3.4048   -0.7399   -2.0417 N   0  0  0  0  0  0  0  0  0  0  0  0
    4.1832   -1.0171   -2.6241 H   0  0  0  0  0  0  0  0  0  0  0  0
    2.0793   -0.7077   -2.4139 C   0  0  0  0  0  0  0  0  0  0  0  0
    1.6548   -0.9795   -3.3722 H   0  0  0  0  0  0  0  0  0  0  0  0
   -0.9851    1.3114    0.6698 C   0  0  0  0  0  0  0  0  0  0  0  0
   -2.0377    1.8431    0.3168 O   0  0  0  0  0  0  0  0  0  0  0  0
   -0.1052    1.9265    1.4663 N   0  0  0  0  0  0  0  0  0  0  0  0
    0.7810    1.4586    1.6201 H   0  0  0  0  0  0  0  0  0  0  0  0
   -0.2724    3.2715    2.0119 C   0  0  0  0  0  0  0  0  0  0  0  0
   -1.3249    3.4549    2.2426 H   0  0  0  0  0  0  0  0  0  0  0  0
    0.3167    3.3776    2.9239 H   0  0  0  0  0  0  0  0  0  0  0  0
    0.0609    4.0073    1.2782 H   0  0  0  0  0  0  0  0  0  0  0  0
  5  6  2  0  0  0  0
  5  7  1  0  0  0  0
  2  3  1  0  0  0  0
  2  4  1  0  0  0  0
  2  5  1  0  0  0  0
  1  2  1  0  0  0  0
 22 23  2  0  0  0  0
 22 24  1  0  0  0  0
 20 21  1  0  0  0  0
 18 19  1  0  0  0  0
 18 20  1  0  0  0  0
 16 17  1  0  0  0  0
 16 18  1  0  0  0  0
 15 16  2  0  0  0  0
 14 15  1  0  0  0  0
 14 20  2  0  0  0  0
 11 12  1  0  0  0  0
 11 13  1  0  0  0  0
 11 14  1  0  0  0  0
  9 10  1  0  0  0  0
  9 11  1  0  0  0  0
  9 22  1  0  0  0  0
  7  8  1  0  0  0  0
  7  9  1  0  0  0  0
 26 27  1  0  0  0  0
 26 28  1  0  0  0  0
 26 29  1  0  0  0  0
 24 25  1  0  0  0  0
 24 26  1  0  0  0  0
M  END
$$$$
default_name
  -OEChem-02102213163D

 29 29  0     1  0  0  0  0  0999 V2000
   -2.9561   -3.9186    1.3887 H   0  0  0  0  0  0  0  0  0  0  0  0
   -3.1191   -2.9346    0.9517 C   0  0  0  0  0  0  0  0  0  0  0  0
   -3.7811   -2.3546    1.5917 H   0  0  0  0  0  0  0  0  0  0  0  0
   -3.5591   -3.0406   -0.0383 H   0  0  0  0  0  0  0  0  0  0  0  0
   -1.7921   -2.2226    0.8327 C   0  0  0  0  0  0  0  0  0  0  0  0
   -0.7611   -2.7766    1.1927 O   0  0  0  0  0  0  0  0  0  0  0  0
   -1.8201   -0.9926    0.3247 N   0  0  0  0  0  0  0  0  0  0  0  0
   -2.7141   -0.5816    0.0927 H   0  0  0  0  0  0  0  0  0  0  0  0
   -0.6481   -0.1156    0.2017 C   0  0  1  0  0  0  0  0  0  0  0  0
    0.1344   -0.4988    0.8596 H   0  0  0  0  0  0  0  0  0  0  0  0
   -0.1211   -0.1520   -1.2460 C   0  0  0  0  0  0  0  0  0  0  0  0
   -0.5499   -1.0051   -1.7737 H   0  0  0  0  0  0  0  0  0  0  0  0
   -0.4312    0.7505   -1.7744 H   0  0  0  0  0  0  0  0  0  0  0  0
    1.3804   -0.2868   -1.3205 C   0  0  0  0  0  0  0  0  0  0  0  0
    2.2484   -0.3736   -0.2313 N   0  0  0  0  0  0  0  0  0  0  0  0
    3.4757   -0.5300   -0.7487 C   0  0  0  0  0  0  0  0  0  0  0  0
    4.3813   -0.6179   -0.1619 H   0  0  0  0  0  0  0  0  0  0  0  0
    3.4176   -0.5710   -2.0905 N   0  0  0  0  0  0  0  0  0  0  0  0
    4.2074   -0.7013   -2.7078 H   0  0  0  0  0  0  0  0  0  0  0  0
    2.1021   -0.4231   -2.4702 C   0  0  0  0  0  0  0  0  0  0  0  0
    1.6989   -0.4324   -3.4750 H   0  0  0  0  0  0  0  0  0  0  0  0
   -0.9851    1.3114    0.6698 C   0  0  0  0  0  0  0  0  0  0  0  0
   -2.0377    1.8431    0.3168 O   0  0  0  0  0  0  0  0  0  0  0  0
   -0.1052    1.9265    1.4663 N   0  0  0  0  0  0  0  0  0  0  0  0
    0.7810    1.4586    1.6201 H   0  0  0  0  0  0  0  0  0  0  0  0
   -0.2724    3.2715    2.0119 C   0  0  0  0  0  0  0  0  0  0  0  0
   -1.3249    3.4549    2.2426 H   0  0  0  0  0  0  0  0  0  0  0  0
    0.3167    3.3776    2.9239 H   0  0  0  0  0  0  0  0  0  0  0  0
    0.0609    4.0073    1.2782 H   0  0  0  0  0  0  0  0  0  0  0  0
  5  6  2  0  0  0  0
  5  7  1  0  0  0  0
  2  3  1  0  0  0  0
  2  4  1  0  0  0  0
  2  5  1  0  0  0  0
  1  2  1  0  0  0  0
 22 23  2  0  0  0  0
 22 24  1  0  0  0  0
 20 21  1  0  0  0  0
 18 19  1  0  0  0  0
 18 20  1  0  0  0  0
 16 17  1  0  0  0  0
 16 18  1  0  0  0  0
 15 16  2  0  0  0  0
 14 15  1  0  0  0  0
 14 20  2  0  0  0  0
 11 12  1  0  0  0  0
 11 13  1  0  0  0  0
 11 14  1  0  0  0  0
  9 10  1  0  0  0  0
  9 11  1  0  0  0  0
  9 22  1  0  0  0  0
  7  8  1  0  0  0  0
  7  9  1  0  0  0  0
 26 27  1  0  0  0  0
 26 28  1  0  0  0  0
 26 29  1  0  0  0  0
 24 25  1  0  0  0  0
 24 26  1  0  0  0  0
M  END
$$$$
default_name
  -OEChem-02102213163D

 29 29  0     1  0  0  0  0  0999 V2000
   -2.9561   -3.9186    1.3887 H   0  0  0  0  0  0  0  0  0  0  0  0
   -3.1191   -2.9346    0.9517 C   0  0  0  0  0  0  0  0  0  0  0  0
   -3.7811   -2.3546    1.5917 H   0  0  0  0  0  0  0  0  0  0  0  0
   -3.5591   -3.0406   -0.0383 H   0  0  0  0  0  0  0  0  0  0  0  0
   -1.7921   -2.2226    0.8327 C   0  0  0  0  0  0  0  0  0  0  0  0
   -0.7611   -2.7766    1.1927 O   0  0  0  0  0  0  0  0  0  0  0  0
   -1.8201   -0.9926    0.3247 N   0  0  0  0  0  0  0  0  0  0  0  0
   -2.7141   -0.5816    0.0927 H   0  0  0  0  0  0  0  0  0  0  0  0
   -0.6481   -0.1156    0.2017 C   0  0  1  0  0  0  0  0  0  0  0  0
    0.1344   -0.4988    0.8596 H   0  0  0  0  0  0  0  0  0  0  0  0
   -0.1211   -0.1520   -1.2460 C   0  0  0  0  0  0  0  0  0  0  0  0
   -0.5499   -1.0051   -1.7737 H   0  0  0  0  0  0  0  0  0  0  0  0
   -0.4312    0.7505   -1.7744 H   0  0  0  0  0  0  0  0  0  0  0  0
    1.3804   -0.2868   -1.3205 C   0  0  0  0  0  0  0  0  0  0  0  0
    2.2203   -0.6646   -0.2721 N   0  0  0  0  0  0  0  0  0  0  0  0
    3.4584   -0.7021   -0.7859 C   0  0  0  0  0  0  0  0  0  0  0  0
    4.3482   -0.9523   -0.2221 H   0  0  0  0  0  0  0  0  0  0  0  0
    3.4332   -0.3955   -2.0938 N   0  0  0  0  0  0  0  0  0  0  0  0
    4.2368   -0.3750   -2.7067 H   0  0  0  0  0  0  0  0  0  0  0  0
    2.1290   -0.1341   -2.4507 C   0  0  0  0  0  0  0  0  0  0  0  0
    1.7508    0.1218   -3.4324 H   0  0  0  0  0  0  0  0  0  0  0  0
   -0.9851    1.3114    0.6698 C   0  0  0  0  0  0  0  0  0  0  0  0
   -2.0377    1.8431    0.3168 O   0  0  0  0  0  0  0  0  0  0  0  0
   -0.1052    1.9265    1.4663 N   0  0  0  0  0  0  0  0  0  0  0  0
    0.7810    1.4586    1.6201 H   0  0  0  0  0  0  0  0  0  0  0  0
   -0.2724    3.2715    2.0119 C   0  0  0  0  0  0  0  0  0  0  0  0
   -1.3249    3.4549    2.2426 H   0  0  0  0  0  0  0  0  0  0  0  0
    0.3167    3.3776    2.9239 H   0  0  0  0  0  0  0  0  0  0  0  0
    0.0609    4.0073    1.2782 H   0  0  0  0  0  0  0  0  0  0  0  0
  5  6  2  0  0  0  0
  5  7  1  0  0  0  0
  2  3  1  0  0  0  0
  2  4  1  0  0  0  0
  2  5  1  0  0  0  0
  1  2  1  0  0  0  0
 22 23  2  0  0  0  0
 22 24  1  0  0  0  0
 20 21  1  0  0  0  0
 18 19  1  0  0  0  0
 18 20  1  0  0  0  0
 16 17  1  0  0  0  0
 16 18  1  0  0  0  0
 15 16  2  0  0  0  0
 14 15  1  0  0  0  0
 14 20  2  0  0  0  0
 11 12  1  0  0  0  0
 11 13  1  0  0  0  0
 11 14  1  0  0  0  0
  9 10  1  0  0  0  0
  9 11  1  0  0  0  0
  9 22  1  0  0  0  0
  7  8  1  0  0  0  0
  7  9  1  0  0  0  0
 26 27  1  0  0  0  0
 26 28  1  0  0  0  0
 26 29  1  0  0  0  0
 24 25  1  0  0  0  0
 24 26  1  0  0  0  0
M  END
$$$$
default_name
  -OEChem-02102213163D

 29 29  0     1  0  0  0  0  0999 V2000
   -2.9561   -3.9186    1.3887 H   0  0  0  0  0  0  0  0  0  0  0  0
   -3.1191   -2.9346    0.9517 C   0  0  0  0  0  0  0  0  0  0  0  0
   -3.7811   -2.3546    1.5917 H   0  0  0  0  0  0  0  0  0  0  0  0
   -3.5591   -3.0406   -0.0383 H   0  0  0  0  0  0  0  0  0  0  0  0
   -1.7921   -2.2226    0.8327 C   0  0  0  0  0  0  0  0  0  0  0  0
   -0.7611   -2.7766    1.1927 O   0  0  0  0  0  0  0  0  0  0  0  0
   -1.8201   -0.9926    0.3247 N   0  0  0  0  0  0  0  0  0  0  0  0
   -2.7141   -0.5816    0.0927 H   0  0  0  0  0  0  0  0  0  0  0  0
   -0.6481   -0.1156    0.2017 C   0  0  1  0  0  0  0  0  0  0  0  0
    0.1344   -0.4988    0.8596 H   0  0  0  0  0  0  0  0  0  0  0  0
   -0.1211   -0.1520   -1.2460 C   0  0  0  0  0  0  0  0  0  0  0  0
   -0.5499   -1.0051   -1.7737 H   0  0  0  0  0  0  0  0  0  0  0  0
   -0.4312    0.7505   -1.7744 H   0  0  0  0  0  0  0  0  0  0  0  0
    1.3804   -0.2868   -1.3205 C   0  0  0  0  0  0  0  0  0  0  0  0
    2.1903   -0.9349   -0.3870 N   0  0  0  0  0  0  0  0  0  0  0  0
    3.4403   -0.8585   -0.8664 C   0  0  0  0  0  0  0  0  0  0  0  0
    4.3135   -1.2593   -0.3672 H   0  0  0  0  0  0  0  0  0  0  0  0
    3.4506   -0.2253   -2.0515 N   0  0  0  0  0  0  0  0  0  0  0  0
    4.2693   -0.0605   -2.6210 H   0  0  0  0  0  0  0  0  0  0  0  0
    2.1583    0.1397   -2.3569 C   0  0  0  0  0  0  0  0  0  0  0  0
    1.8070    0.6456   -3.2474 H   0  0  0  0  0  0  0  0  0  0  0  0
   -0.9851    1.3114    0.6698 C   0  0  0  0  0  0  0  0  0  0  0  0
   -2.0377    1.8431    0.3168 O   0  0  0  0  0  0  0  0  0  0  0  0
   -0.1052    1.9265    1.4663 N   0  0  0  0  0  0  0  0  0  0  0  0
    0.7810    1.4586    1.6201 H   0  0  0  0  0  0  0  0  0  0  0  0
   -0.2724    3.2715    2.0119 C   0  0  0  0  0  0  0  0  0  0  0  0
   -1.3249    3.4549    2.2426 H   0  0  0  0  0  0  0  0  0  0  0  0
    0.3167    3.3776    2.9239 H   0  0  0  0  0  0  0  0  0  0  0  0
    0.0609    4.0073    1.2782 H   0  0  0  0  0  0  0  0  0  0  0  0
  5  6  2  0  0  0  0
  5  7  1  0  0  0  0
  2  3  1  0  0  0  0
  2  4  1  0  0  0  0
  2  5  1  0  0  0  0
  1  2  1  0  0  0  0
 22 23  2  0  0  0  0
 22 24  1  0  0  0  0
 20 21  1  0  0  0  0
 18 19  1  0  0  0  0
 18 20  1  0  0  0  0
 16 17  1  0  0  0  0
 16 18  1  0  0  0  0
 15 16  2  0  0  0  0
 14 15  1  0  0  0  0
 14 20  2  0  0  0  0
 11 12  1  0  0  0  0
 11 13  1  0  0  0  0
 11 14  1  0  0  0  0
  9 10  1  0  0  0  0
  9 11  1  0  0  0  0
  9 22  1  0  0  0  0
  7  8  1  0  0  0  0
  7  9  1  0  0  0  0
 26 27  1  0  0  0  0
 26 28  1  0  0  0  0
 26 29  1  0  0  0  0
 24 25  1  0  0  0  0
 24 26  1  0  0  0  0
M  END
$$$$
default_name
  -OEChem-02102213163D

 29 29  0     1  0  0  0  0  0999 V2000
   -2.9561   -3.9186    1.3887 H   0  0  0  0  0  0  0  0  0  0  0  0
   -3.1191   -2.9346    0.9517 C   0  0  0  0  0  0  0  0  0  0  0  0
   -3.7811   -2.3546    1.5917 H   0  0  0  0  0  0  0  0  0  0  0  0
   -3.5591   -3.0406   -0.0383 H   0  0  0  0  0  0  0  0  0  0  0  0
   -1.7921   -2.2226    0.8327 C   0  0  0  0  0  0  0  0  0  0  0  0
   -0.7611   -2.7766    1.1927 O   0  0  0  0  0  0  0  0  0  0  0  0
   -1.8201   -0.9926    0.3247 N   0  0  0  0  0  0  0  0  0  0  0  0
   -2.7141   -0.5816    0.0927 H   0  0  0  0  0  0  0  0  0  0  0  0
   -0.6481   -0.1156    0.2017 C   0  0  1  0  0  0  0  0  0  0  0  0
    0.1344   -0.4988    0.8596 H   0  0  0  0  0  0  0  0  0  0  0  0
   -0.1211   -0.1520   -1.2460 C   0  0  0  0  0  0  0  0  0  0  0  0
   -0.5499   -1.0051   -1.7737 H   0  0  0  0  0  0  0  0  0  0  0  0
   -0.4312    0.7505   -1.7744 H   0  0  0  0  0  0  0  0  0  0  0  0
    1.3804   -0.2868   -1.3205 C   0  0  0  0  0  0  0  0  0  0  0  0
    2.1605   -1.1660   -0.5683 N   0  0  0  0  0  0  0  0  0  0  0  0
    3.4228   -0.9885   -0.9849 C   0  0  0  0  0  0  0  0  0  0  0  0
    4.2793   -1.5181   -0.5872 H   0  0  0  0  0  0  0  0  0  0  0  0
    3.4686   -0.0720   -1.9663 N   0  0  0  0  0  0  0  0  0  0  0  0
    4.3027    0.2208   -2.4565 H   0  0  0  0  0  0  0  0  0  0  0  0
    2.1879    0.3797   -2.1951 C   0  0  0  0  0  0  0  0  0  0  0  0
    1.8638    1.1032   -2.9326 H   0  0  0  0  0  0  0  0  0  0  0  0
   -0.9851    1.3114    0.6698 C   0  0  0  0  0  0  0  0  0  0  0  0
   -2.0377    1.8431    0.3168 O   0  0  0  0  0  0  0  0  0  0  0  0
   -0.1052    1.9265    1.4663 N   0  0  0  0  0  0  0  0  0  0  0  0
    0.7810    1.4586    1.6201 H   0  0  0  0  0  0  0  0  0  0  0  0
   -0.2724    3.2715    2.0119 C   0  0  0  0  0  0  0  0  0  0  0  0
   -1.3249    3.4549    2.2426 H   0  0  0  0  0  0  0  0  0  0  0  0
    0.3167    3.3776    2.9239 H   0  0  0  0  0  0  0  0  0  0  0  0
    0.0609    4.0073    1.2782 H   0  0  0  0  0  0  0  0  0  0  0  0
  5  6  2  0  0  0  0
  5  7  1  0  0  0  0
  2  3  1  0  0  0  0
  2  4  1  0  0  0  0
  2  5  1  0  0  0  0
  1  2  1  0  0  0  0
 22 23  2  0  0  0  0
 22 24  1  0  0  0  0
 20 21  1  0  0  0  0
 18 19  1  0  0  0  0
 18 20  1  0  0  0  0
 16 17  1  0  0  0  0
 16 18  1  0  0  0  0
 15 16  2  0  0  0  0
 14 15  1  0  0  0  0
 14 20  2  0  0  0  0
 11 12  1  0  0  0  0
 11 13  1  0  0  0  0
 11 14  1  0  0  0  0
  9 10  1  0  0  0  0
  9 11  1  0  0  0  0
  9 22  1  0  0  0  0
  7  8  1  0  0  0  0
  7  9  1  0  0  0  0
 26 27  1  0  0  0  0
 26 28  1  0  0  0  0
 26 29  1  0  0  0  0
 24 25  1  0  0  0  0
 24 26  1  0  0  0  0
M  END
$$$$
default_name
  -OEChem-02102213163D

 29 29  0     1  0  0  0  0  0999 V2000
   -2.9561   -3.9186    1.3887 H   0  0  0  0  0  0  0  0  0  0  0  0
   -3.1191   -2.9346    0.9517 C   0  0  0  0  0  0  0  0  0  0  0  0
   -3.7811   -2.3546    1.5917 H   0  0  0  0  0  0  0  0  0  0  0  0
   -3.5591   -3.0406   -0.0383 H   0  0  0  0  0  0  0  0  0  0  0  0
   -1.7921   -2.2226    0.8327 C   0  0  0  0  0  0  0  0  0  0  0  0
   -0.7611   -2.7766    1.1927 O   0  0  0  0  0  0  0  0  0  0  0  0
   -1.8201   -0.9926    0.3247 N   0  0  0  0  0  0  0  0  0  0  0  0
   -2.7141   -0.5816    0.0927 H   0  0  0  0  0  0  0  0  0  0  0  0
   -0.6481   -0.1156    0.2017 C   0  0  1  0  0  0  0  0  0  0  0  0
    0.1344   -0.4988    0.8596 H   0  0  0  0  0  0  0  0  0  0  0  0
   -0.1211   -0.1520   -1.2460 C   0  0  0  0  0  0  0  0  0  0  0  0
   -0.5499   -1.0051   -1.7737 H   0  0  0  0  0  0  0  0  0  0  0  0
   -0.4312    0.7505   -1.7744 H   0  0  0  0  0  0  0  0  0  0  0  0
    1.3804   -0.2868   -1.3205 C   0  0  0  0  0  0  0  0  0  0  0  0
    2.1330   -1.3422   -0.8036 N   0  0  0  0  0  0  0  0  0  0  0  0
    3.4069   -1.0834   -1.1333 C   0  0  0  0  0  0  0  0  0  0  0  0
    4.2481   -1.7110   -0.8672 H   0  0  0  0  0  0  0  0  0  0  0  0
    3.4859    0.0539   -1.8442 N   0  0  0  0  0  0  0  0  0  0  0  0
    4.3348    0.4498   -2.2244 H   0  0  0  0  0  0  0  0  0  0  0  0
    2.2158    0.5694   -1.9763 C   0  0  0  0  0  0  0  0  0  0  0  0
    1.9171    1.4634   -2.5093 H   0  0  0  0  0  0  0  0  0  0  0  0
   -0.9851    1.3114    0.6698 C   0  0  0  0  0  0  0  0  0  0  0  0
   -2.0377    1.8431    0.3168 O   0  0  0  0  0  0  0  0  0  0  0  0
   -0.1052    1.9265    1.4663 N   0  0  0  0  0  0  0  0  0  0  0  0
    0.7810    1.4586    1.6201 H   0  0  0  0  0  0  0  0  0  0  0  0
   -0.2724    3.2715    2.0119 C   0  0  0  0  0  0  0  0  0  0  0  0
   -1.3249    3.4549    2.2426 H   0  0  0  0  0  0  0  0  0  0  0  0
    0.3167    3.3776    2.9239 H   0  0  0  0  0  0  0  0  0  0  0  0
    0.0609    4.0073    1.2782 H   0  0  0  0  0  0  0  0  0  0  0  0
  5  6  2  0  0  0  0
  5  7  1  0  0  0  0
  2  3  1  0  0  0  0
  2  4  1  0  0  0  0
  2  5  1  0  0  0  0
  1  2  1  0  0  0  0
 22 23  2  0  0  0  0
 22 24  1  0  0  0  0
 20 21  1  0  0  0  0
 18 19  1  0  0  0  0
 18 20  1  0  0  0  0
 16 17  1  0  0  0  0
 16 18  1  0  0  0  0
 15 16  2  0  0  0  0
 14 15  1  0  0  0  0
 14 20  2  0  0  0  0
 11 12  1  0  0  0  0
 11 13  1  0  0  0  0
 11 14  1  0  0  0  0
  9 10  1  0  0  0  0
  9 11  1  0  0  0  0
  9 22  1  0  0  0  0
  7  8  1  0  0  0  0
  7  9  1  0  0  0  0
 26 27  1  0  0  0  0
 26 28  1  0  0  0  0
 26 29  1  0  0  0  0
 24 25  1  0  0  0  0
 24 26  1  0  0  0  0
M  END
$$$$
default_name
  -OEChem-02102213163D

 29 29  0     1  0  0  0  0  0999 V2000
   -2.9561   -3.9186    1.3887 H   0  0  0  0  0  0  0  0  0  0  0  0
   -3.1191   -2.9346    0.9517 C   0  0  0  0  0  0  0  0  0  0  0  0
   -3.7811   -2.3546    1.5917 H   0  0  0  0  0  0  0  0  0  0  0  0
   -3.5591   -3.0406   -0.0383 H   0  0  0  0  0  0  0  0  0  0  0  0
   -1.7921   -2.2226    0.8327 C   0  0  0  0  0  0  0  0  0  0  0  0
   -0.7611   -2.7766    1.1927 O   0  0  0  0  0  0  0  0  0  0  0  0
   -1.8201   -0.9926    0.3247 N   0  0  0  0  0  0  0  0  0  0  0  0
   -2.7141   -0.5816    0.0927 H   0  0  0  0  0  0  0  0  0  0  0  0
   -0.6481   -0.1156    0.2017 C   0  0  1  0  0  0  0  0  0  0  0  0
    0.1344   -0.4988    0.8596 H   0  0  0  0  0  0  0  0  0  0  0  0
   -0.1211   -0.1520   -1.2460 C   0  0  0  0  0  0  0  0  0  0  0  0
   -0.5499   -1.0051   -1.7737 H   0  0  0  0  0  0  0  0  0  0  0  0
   -0.4312    0.7505   -1.7744 H   0  0  0  0  0  0  0  0  0  0  0  0
    1.3804   -0.2868   -1.3205 C   0  0  0  0  0  0  0  0  0  0  0  0
    2.1096   -1.4514   -1.0769 N   0  0  0  0  0  0  0  0  0  0  0  0
    3.3937   -1.1367   -1.3014 C   0  0  0  0  0  0  0  0  0  0  0  0
    4.2219   -1.8249   -1.1879 H   0  0  0  0  0  0  0  0  0  0  0  0
    3.5015    0.1439   -1.6935 N   0  0  0  0  0  0  0  0  0  0  0  0
    4.3634    0.6108   -1.9405 H   0  0  0  0  0  0  0  0  0  0  0  0
    2.2401    0.6960   -1.7155 C   0  0  0  0  0  0  0  0  0  0  0  0
    1.9635    1.7016   -2.0065 H   0  0  0  0  0  0  0  0  0  0  0  0
   -0.9851    1.3114    0.6698 C   0  0  0  0  0  0  0  0  0  0  0  0
   -2.0377    1.8431    0.3168 O   0  0  0  0  0  0  0  0  0  0  0  0
   -0.1052    1.9265    1.4663 N   0  0  0  0  0  0  0  0  0  0  0  0
    0.7810    1.4586    1.6201 H   0  0  0  0  0  0  0  0  0  0  0  0
   -0.2724    3.2715    2.0119 C   0  0  0  0  0  0  0  0  0  0  0  0
   -1.3249    3.4549    2.2426 H   0  0  0  0  0  0  0  0  0  0  0  0
    0.3167    3.3776    2.9239 H   0  0  0  0  0  0  0  0  0  0  0  0
    0.0609    4.0073    1.2782 H   0  0  0  0  0  0  0  0  0  0  0  0
  5  6  2  0  0  0  0
  5  7  1  0  0  0  0
  2  3  1  0  0  0  0
  2  4  1  0  0  0  0
  2  5  1  0  0  0  0
  1  2  1  0  0  0  0
 22 23  2  0  0  0  0
 22 24  1  0  0  0  0
 20 21  1  0  0  0  0
 18 19  1  0  0  0  0
 18 20  1  0  0  0  0
 16 17  1  0  0  0  0
 16 18  1  0  0  0  0
 15 16  2  0  0  0  0
 14 15  1  0  0  0  0
 14 20  2  0  0  0  0
 11 12  1  0  0  0  0
 11 13  1  0  0  0  0
 11 14  1  0  0  0  0
  9 10  1  0  0  0  0
  9 11  1  0  0  0  0
  9 22  1  0  0  0  0
  7  8  1  0  0  0  0
  7  9  1  0  0  0  0
 26 27  1  0  0  0  0
 26 28  1  0  0  0  0
 26 29  1  0  0  0  0
 24 25  1  0  0  0  0
 24 26  1  0  0  0  0
M  END
$$$$
default_name
  -OEChem-02102213163D

 29 29  0     1  0  0  0  0  0999 V2000
   -2.9561   -3.9186    1.3887 H   0  0  0  0  0  0  0  0  0  0  0  0
   -3.1191   -2.9346    0.9517 C   0  0  0  0  0  0  0  0  0  0  0  0
   -3.7811   -2.3546    1.5917 H   0  0  0  0  0  0  0  0  0  0  0  0
   -3.5591   -3.0406   -0.0383 H   0  0  0  0  0  0  0  0  0  0  0  0
   -1.7921   -2.2226    0.8327 C   0  0  0  0  0  0  0  0  0  0  0  0
   -0.7611   -2.7766    1.1927 O   0  0  0  0  0  0  0  0  0  0  0  0
   -1.8201   -0.9926    0.3247 N   0  0  0  0  0  0  0  0  0  0  0  0
   -2.7141   -0.5816    0.0927 H   0  0  0  0  0  0  0  0  0  0  0  0
   -0.6481   -0.1156    0.2017 C   0  0  1  0  0  0  0  0  0  0  0  0
    0.1344   -0.4988    0.8596 H   0  0  0  0  0  0  0  0  0  0  0  0
   -0.1211   -0.1520   -1.2460 C   0  0  0  0  0  0  0  0  0  0  0  0
   -0.5499   -1.0051   -1.7737 H   0  0  0  0  0  0  0  0  0  0  0  0
   -0.4312    0.7505   -1.7744 H   0  0  0  0  0  0  0  0  0  0  0  0
    1.3804   -0.2868   -1.3205 C   0  0  0  0  0  0  0  0  0  0  0  0
    2.0920   -1.4862   -1.3696 N   0  0  0  0  0  0  0  0  0  0  0  0
    3.3843   -1.1448   -1.4778 C   0  0  0  0  0  0  0  0  0  0  0  0
    4.2026   -1.8519   -1.5277 H   0  0  0  0  0  0  0  0  0  0  0  0
    3.5142    0.1918   -1.5243 N   0  0  0  0  0  0  0  0  0  0  0  0
    4.3864    0.6928   -1.6242 H   0  0  0  0  0  0  0  0  0  0  0  0
    2.2592    0.7509   -1.4304 C   0  0  0  0  0  0  0  0  0  0  0  0
    1.9997    1.8017   -1.4584 H   0  0  0  0  0  0  0  0  0  0  0  0
   -0.9851    1.3114    0.6698 C   0  0  0  0  0  0  0  0  0  0  0  0
   -2.0377    1.8431    0.3168 O   0  0  0  0  0  0  0  0  0  0  0  0
   -0.1052    1.9265    1.4663 N   0  0  0  0  0  0  0  0  0  0  0  0
    0.7810    1.4586    1.6201 H   0  0  0  0  0  0  0  0  0  0  0  0
   -0.2724    3.2715    2.0119 C   0  0  0  0  0  0  0  0  0  0  0  0
   -1.3249    3.4549    2.2426 H   0  0  0  0  0  0  0  0  0  0  0  0
    0.3167    3.3776    2.9239 H   0  0  0  0  0  0  0  0  0  0  0  0
    0.0609    4.0073    1.2782 H   0  0  0  0  0  0  0  0  0  0  0  0
  5  6  2  0  0  0  0
  5  7  1  0  0  0  0
  2  3  1  0  0  0  0
  2  4  1  0  0  0  0
  2  5  1  0  0  0  0
  1  2  1  0  0  0  0
 22 23  2  0  0  0  0
 22 24  1  0  0  0  0
 20 21  1  0  0  0  0
 18 19  1  0  0  0  0
 18 20  1  0  0  0  0
 16 17  1  0  0  0  0
 16 18  1  0  0  0  0
 15 16  2  0  0  0  0
 14 15  1  0  0  0  0
 14 20  2  0  0  0  0
 11 12  1  0  0  0  0
 11 13  1  0  0  0  0
 11 14  1  0  0  0  0
  9 10  1  0  0  0  0
  9 11  1  0  0  0  0
  9 22  1  0  0  0  0
  7  8  1  0  0  0  0
  7  9  1  0  0  0  0
 26 27  1  0  0  0  0
 26 28  1  0  0  0  0
 26 29  1  0  0  0  0
 24 25  1  0  0  0  0
 24 26  1  0  0  0  0
M  END
$$$$
default_name
  -OEChem-02102213163D

 29 29  0     1  0  0  0  0  0999 V2000
   -2.9561   -3.9186    1.3887 H   0  0  0  0  0  0  0  0  0  0  0  0
   -3.1191   -2.9346    0.9517 C   0  0  0  0  0  0  0  0  0  0  0  0
   -3.7811   -2.3546    1.5917 H   0  0  0  0  0  0  0  0  0  0  0  0
   -3.5591   -3.0406   -0.0383 H   0  0  0  0  0  0  0  0  0  0  0  0
   -1.7921   -2.2226    0.8327 C   0  0  0  0  0  0  0  0  0  0  0  0
   -0.7611   -2.7766    1.1927 O   0  0  0  0  0  0  0  0  0  0  0  0
   -1.8201   -0.9926    0.3247 N   0  0  0  0  0  0  0  0  0  0  0  0
   -2.7141   -0.5816    0.0927 H   0  0  0  0  0  0  0  0  0  0  0  0
   -0.6481   -0.1156    0.2017 C   0  0  1  0  0  0  0  0  0  0  0  0
    0.1344   -0.4988    0.8596 H   0  0  0  0  0  0  0  0  0  0  0  0
   -0.1211   -0.1520   -1.2460 C   0  0  0  0  0  0  0  0  0  0  0  0
   -0.5499   -1.0051   -1.7737 H   0  0  0  0  0  0  0  0  0  0  0  0
   -0.4312    0.7505   -1.7744 H   0  0  0  0  0  0  0  0  0  0  0  0
    1.3804   -0.2868   -1.3205 C   0  0  0  0  0  0  0  0  0  0  0  0
    2.0812   -1.4443   -1.6616 N   0  0  0  0  0  0  0  0  0  0  0  0
    3.3791   -1.1070   -1.6504 C   0  0  0  0  0  0  0  0  0  0  0  0
    4.1915   -1.7903   -1.8633 H   0  0  0  0  0  0  0  0  0  0  0  0
    3.5232    0.1943   -1.3483 N   0  0  0  0  0  0  0  0  0  0  0  0
    4.4025    0.6904   -1.2970 H   0  0  0  0  0  0  0  0  0  0  0  0
    2.2717    0.7302   -1.1405 C   0  0  0  0  0  0  0  0  0  0  0  0
    2.0232    1.7568   -0.9024 H   0  0  0  0  0  0  0  0  0  0  0  0
   -0.9851    1.3114    0.6698 C   0  0  0  0  0  0  0  0  0  0  0  0
   -2.0377    1.8431    0.3168 O   0  0  0  0  0  0  0  0  0  0  0  0
   -0.1052    1.9265    1.4663 N   0  0  0  0  0  0  0  0  0  0  0  0
    0.7810    1.4586    1.6201 H   0  0  0  0  0  0  0  0  0  0  0  0
   -0.2724    3.2715    2.0119 C   0  0  0  0  0  0  0  0  0  0  0  0
   -1.3249    3.4549    2.2426 H   0  0  0  0  0  0  0  0  0  0  0  0
    0.3167    3.3776    2.9239 H   0  0  0  0  0  0  0  0  0  0  0  0
    0.0609    4.0073    1.2782 H   0  0  0  0  0  0  0  0  0  0  0  0
  5  6  2  0  0  0  0
  5  7  1  0  0  0  0
  2  3  1  0  0  0  0
  2  4  1  0  0  0  0
  2  5  1  0  0  0  0
  1  2  1  0  0  0  0
 22 23  2  0  0  0  0
 22 24  1  0  0  0  0
 20 21  1  0  0  0  0
 18 19  1  0  0  0  0
 18 20  1  0  0  0  0
 16 17  1  0  0  0  0
 16 18  1  0  0  0  0
 15 16  2  0  0  0  0
 14 15  1  0  0  0  0
 14 20  2  0  0  0  0
 11 12  1  0  0  0  0
 11 13  1  0  0  0  0
 11 14  1  0  0  0  0
  9 10  1  0  0  0  0
  9 11  1  0  0  0  0
  9 22  1  0  0  0  0
  7  8  1  0  0  0  0
  7  9  1  0  0  0  0
 26 27  1  0  0  0  0
 26 28  1  0  0  0  0
 26 29  1  0  0  0  0
 24 25  1  0  0  0  0
 24 26  1  0  0  0  0
M  END
$$$$
default_name
  -OEChem-02102213163D

 29 29  0     1  0  0  0  0  0999 V2000
   -2.9561   -3.9186    1.3887 H   0  0  0  0  0  0  0  0  0  0  0  0
   -3.1191   -2.9346    0.9517 C   0  0  0  0  0  0  0  0  0  0  0  0
   -3.7811   -2.3546    1.5917 H   0  0  0  0  0  0  0  0  0  0  0  0
   -3.5591   -3.0406   -0.0383 H   0  0  0  0  0  0  0  0  0  0  0  0
   -1.7921   -2.2226    0.8327 C   0  0  0  0  0  0  0  0  0  0  0  0
   -0.7611   -2.7766    1.1927 O   0  0  0  0  0  0  0  0  0  0  0  0
   -1.8201   -0.9926    0.3247 N   0  0  0  0  0  0  0  0  0  0  0  0
   -2.7141   -0.5816    0.0927 H   0  0  0  0  0  0  0  0  0  0  0  0
   -0.6481   -0.1156    0.2017 C   0  0  1  0  0  0  0  0  0  0  0  0
    0.1344   -0.4988    0.8596 H   0  0  0  0  0  0  0  0  0  0  0  0
   -0.1211   -0.1520   -1.2460 C   0  0  0  0  0  0  0  0  0  0  0  0
   -0.5499   -1.0051   -1.7737 H   0  0  0  0  0  0  0  0  0  0  0  0
   -0.4312    0.7505   -1.7744 H   0  0  0  0  0  0  0  0  0  0  0  0
    1.3804   -0.2868   -1.3205 C   0  0  0  0  0  0  0  0  0  0  0  0
    2.0782   -1.3285   -1.9332 N   0  0  0  0  0  0  0  0  0  0  0  0
    3.3786   -1.0259   -1.8076 C   0  0  0  0  0  0  0  0  0  0  0  0
    4.1893   -1.6443   -2.1718 H   0  0  0  0  0  0  0  0  0  0  0  0
    3.5278    0.1513   -1.1774 N   0  0  0  0  0  0  0  0  0  0  0  0
    4.4103    0.6035   -0.9812 H   0  0  0  0  0  0  0  0  0  0  0  0
    2.2768    0.6354   -0.8655 C   0  0  0  0  0  0  0  0  0  0  0  0
    2.0326    1.5700   -0.3763 H   0  0  0  0  0  0  0  0  0  0  0  0
   -0.9851    1.3114    0.6698 C   0  0  0  0  0  0  0  0  0  0  0  0
   -2.0377    1.8431    0.3168 O   0  0  0  0  0  0  0  0  0  0  0  0
   -0.1052    1.9265    1.4663 N   0  0  0  0  0  0  0  0  0  0  0  0
    0.7810    1.4586    1.6201 H   0  0  0  0  0  0  0  0  0  0  0  0
   -0.2724    3.2715    2.0119 C   0  0  0  0  0  0  0  0  0  0  0  0
   -1.3249    3.4549    2.2426 H   0  0  0  0  0  0  0  0  0  0  0  0
    0.3167    3.3776    2.9239 H   0  0  0  0  0  0  0  0  0  0  0  0
    0.0609    4.0073    1.2782 H   0  0  0  0  0  0  0  0  0  0  0  0
  5  6  2  0  0  0  0
  5  7  1  0  0  0  0
  2  3  1  0  0  0  0
  2  4  1  0  0  0  0
  2  5  1  0  0  0  0
  1  2  1  0  0  0  0
 22 23  2  0  0  0  0
 22 24  1  0  0  0  0
 20 21  1  0  0  0  0
 18 19  1  0  0  0  0
 18 20  1  0  0  0  0
 16 17  1  0  0  0  0
 16 18  1  0  0  0  0
 15 16  2  0  0  0  0
 14 15  1  0  0  0  0
 14 20  2  0  0  0  0
 11 12  1  0  0  0  0
 11 13  1  0  0  0  0
 11 14  1  0  0  0  0
  9 10  1  0  0  0  0
  9 11  1  0  0  0  0
  9 22  1  0  0  0  0
  7  8  1  0  0  0  0
  7  9  1  0  0  0  0
 26 27  1  0  0  0  0
 26 28  1  0  0  0  0
 26 29  1  0  0  0  0
 24 25  1  0  0  0  0
 24 26  1  0  0  0  0
M  END
$$$$
default_name
  -OEChem-02102213163D

 29 29  0     1  0  0  0  0  0999 V2000
   -2.9561   -3.9186    1.3887 H   0  0  0  0  0  0  0  0  0  0  0  0
   -3.1191   -2.9346    0.9517 C   0  0  0  0  0  0  0  0  0  0  0  0
   -3.7811   -2.3546    1.5917 H   0  0  0  0  0  0  0  0  0  0  0  0
   -3.5591   -3.0406   -0.0383 H   0  0  0  0  0  0  0  0  0  0  0  0
   -1.7921   -2.2226    0.8327 C   0  0  0  0  0  0  0  0  0  0  0  0
   -0.7611   -2.7766    1.1927 O   0  0  0  0  0  0  0  0  0  0  0  0
   -1.8201   -0.9926    0.3247 N   0  0  0  0  0  0  0  0  0  0  0  0
   -2.7141   -0.5816    0.0927 H   0  0  0  0  0  0  0  0  0  0  0  0
   -0.6481   -0.1156    0.2017 C   0  0  1  0  0  0  0  0  0  0  0  0
    0.1344   -0.4988    0.8596 H   0  0  0  0  0  0  0  0  0  0  0  0
   -0.1211   -0.1520   -1.2460 C   0  0  0  0  0  0  0  0  0  0  0  0
   -0.5499   -1.0051   -1.7737 H   0  0  0  0  0  0  0  0  0  0  0  0
   -0.4312    0.7505   -1.7744 H   0  0  0  0  0  0  0  0  0  0  0  0
    1.3804   -0.2868   -1.3205 C   0  0  0  0  0  0  0  0  0  0  0  0
    2.0830   -1.1467   -2.1657 N   0  0  0  0  0  0  0  0  0  0  0  0
    3.3827   -0.9072   -1.9386 C   0  0  0  0  0  0  0  0  0  0  0  0
    4.1962   -1.4237   -2.4323 H   0  0  0  0  0  0  0  0  0  0  0  0
    3.5278    0.0657   -1.0233 N   0  0  0  0  0  0  0  0  0  0  0  0
    4.4095    0.4382   -0.6984 H   0  0  0  0  0  0  0  0  0  0  0  0
    2.2742    0.4730   -0.6241 C   0  0  0  0  0  0  0  0  0  0  0  0
    2.0270    1.2539    0.0839 H   0  0  0  0  0  0  0  0  0  0  0  0
   -0.9851    1.3114    0.6698 C   0  0  0  0  0  0  0  0  0  0  0  0
   -2.0377    1.8431    0.3168 O   0  0  0  0  0  0  0  0  0  0  0  0
   -0.1052    1.9265    1.4663 N   0  0  0  0  0  0  0  0  0  0  0  0
    0.7810    1.4586    1.6201 H   0  0  0  0  0  0  0  0  0  0  0  0
   -0.2724    3.2715    2.0119 C   0  0  0  0  0  0  0  0  0  0  0  0
   -1.3249    3.4549    2.2426 H   0  0  0  0  0  0  0  0  0  0  0  0
    0.3167    3.3776    2.9239 H   0  0  0  0  0  0  0  0  0  0  0  0
    0.0609    4.0073    1.2782 H   0  0  0  0  0  0  0  0  0  0  0  0
  5  6  2  0  0  0  0
  5  7  1  0  0  0  0
  2  3  1  0  0  0  0
  2  4  1  0  0  0  0
  2  5  1  0  0  0  0
  1  2  1  0  0  0  0
 22 23  2  0  0  0  0
 22 24  1  0  0  0  0
 20 21  1  0  0  0  0
 18 19  1  0  0  0  0
 18 20  1  0  0  0  0
 16 17  1  0  0  0  0
 16 18  1  0  0  0  0
 15 16  2  0  0  0  0
 14 15  1  0  0  0  0
 14 20  2  0  0  0  0
 11 12  1  0  0  0  0
 11 13  1  0  0  0  0
 11 14  1  0  0  0  0
  9 10  1  0  0  0  0
  9 11  1  0  0  0  0
  9 22  1  0  0  0  0
  7  8  1  0  0  0  0
  7  9  1  0  0  0  0
 26 27  1  0  0  0  0
 26 28  1  0  0  0  0
 26 29  1  0  0  0  0
 24 25  1  0  0  0  0
 24 26  1  0  0  0  0
M  END
$$$$
default_name
  -OEChem-02102213163D

 29 29  0     1  0  0  0  0  0999 V2000
   -2.9561   -3.9186    1.3887 H   0  0  0  0  0  0  0  0  0  0  0  0
   -3.1191   -2.9346    0.9517 C   0  0  0  0  0  0  0  0  0  0  0  0
   -3.7811   -2.3546    1.5917 H   0  0  0  0  0  0  0  0  0  0  0  0
   -3.5591   -3.0406   -0.0383 H   0  0  0  0  0  0  0  0  0  0  0  0
   -1.7921   -2.2226    0.8327 C   0  0  0  0  0  0  0  0  0  0  0  0
   -0.7611   -2.7766    1.1927 O   0  0  0  0  0  0  0  0  0  0  0  0
   -1.8201   -0.9926    0.3247 N   0  0  0  0  0  0  0  0  0  0  0  0
   -2.7141   -0.5816    0.0927 H   0  0  0  0  0  0  0  0  0  0  0  0
   -0.6481   -0.1156    0.2017 C   0  0  1  0  0  0  0  0  0  0  0  0
    0.1344   -0.4988    0.8596 H   0  0  0  0  0  0  0  0  0  0  0  0
   -0.1211   -0.1520   -1.2460 C   0  0  0  0  0  0  0  0  0  0  0  0
   -0.5499   -1.0051   -1.7737 H   0  0  0  0  0  0  0  0  0  0  0  0
   -0.4312    0.7505   -1.7744 H   0  0  0  0  0  0  0  0  0  0  0  0
    1.3804   -0.2868   -1.3205 C   0  0  0  0  0  0  0  0  0  0  0  0
    2.0953   -0.9112   -2.3434 N   0  0  0  0  0  0  0  0  0  0  0  0
    3.3913   -0.7588   -2.0344 C   0  0  0  0  0  0  0  0  0  0  0  0
    4.2117   -1.1437   -2.6270 H   0  0  0  0  0  0  0  0  0  0  0  0
    3.5231   -0.0566   -0.8965 N   0  0  0  0  0  0  0  0  0  0  0  0
    4.4001    0.2057   -0.4677 H   0  0  0  0  0  0  0  0  0  0  0  0
    2.2640    0.2540   -0.4329 C   0  0  0  0  0  0  0  0  0  0  0  0
    2.0070    0.8303    0.4470 H   0  0  0  0  0  0  0  0  0  0  0  0
   -0.9851    1.3114    0.6698 C   0  0  0  0  0  0  0  0  0  0  0  0
   -2.0377    1.8431    0.3168 O   0  0  0  0  0  0  0  0  0  0  0  0
   -0.1052    1.9265    1.4663 N   0  0  0  0  0  0  0  0  0  0  0  0
    0.7810    1.4586    1.6201 H   0  0  0  0  0  0  0  0  0  0  0  0
   -0.2724    3.2715    2.0119 C   0  0  0  0  0  0  0  0  0  0  0  0
   -1.3249    3.4549    2.2426 H   0  0  0  0  0  0  0  0  0  0  0  0
    0.3167    3.3776    2.9239 H   0  0  0  0  0  0  0  0  0  0  0  0
    0.0609    4.0073    1.2782 H   0  0  0  0  0  0  0  0  0  0  0  0
  5  6  2  0  0  0  0
  5  7  1  0  0  0  0
  2  3  1  0  0  0  0
  2  4  1  0  0  0  0
  2  5  1  0  0  0  0
  1  2  1  0  0  0  0
 22 23  2  0  0  0  0
 22 24  1  0  0  0  0
 20 21  1  0  0  0  0
 18 19  1  0  0  0  0
 18 20  1  0  0  0  0
 16 17  1  0  0  0  0
 16 18  1  0  0  0  0
 15 16  2  0  0  0  0
 14 15  1  0  0  0  0
 14 20  2  0  0  0  0
 11 12  1  0  0  0  0
 11 13  1  0  0  0  0
 11 14  1  0  0  0  0
  9 10  1  0  0  0  0
  9 11  1  0  0  0  0
  9 22  1  0  0  0  0
  7  8  1  0  0  0  0
  7  9  1  0  0  0  0
 26 27  1  0  0  0  0
 26 28  1  0  0  0  0
 26 29  1  0  0  0  0
 24 25  1  0  0  0  0
 24 26  1  0  0  0  0
M  END
$$$$
default_name
  -OEChem-02102213163D

 29 29  0     1  0  0  0  0  0999 V2000
   -2.9561   -3.9186    1.3887 H   0  0  0  0  0  0  0  0  0  0  0  0
   -3.1191   -2.9346    0.9517 C   0  0  0  0  0  0  0  0  0  0  0  0
   -3.7811   -2.3546    1.5917 H   0  0  0  0  0  0  0  0  0  0  0  0
   -3.5591   -3.0406   -0.0383 H   0  0  0  0  0  0  0  0  0  0  0  0
   -1.7921   -2.2226    0.8327 C   0  0  0  0  0  0  0  0  0  0  0  0
   -0.7611   -2.7766    1.1927 O   0  0  0  0  0  0  0  0  0  0  0  0
   -1.8201   -0.9926    0.3247 N   0  0  0  0  0  0  0  0  0  0  0  0
   -2.7141   -0.5816    0.0927 H   0  0  0  0  0  0  0  0  0  0  0  0
   -0.6481   -0.1156    0.2017 C   0  0  1  0  0  0  0  0  0  0  0  0
    0.1344   -0.4988    0.8596 H   0  0  0  0  0  0  0  0  0  0  0  0
   -0.1211   -0.1520   -1.2460 C   0  0  0  0  0  0  0  0  0  0  0  0
   -0.5499   -1.0051   -1.7737 H   0  0  0  0  0  0  0  0  0  0  0  0
   -0.4312    0.7505   -1.7744 H   0  0  0  0  0  0  0  0  0  0  0  0
    1.3804   -0.2868   -1.3205 C   0  0  0  0  0  0  0  0  0  0  0  0
    2.1143   -0.6382   -2.4542 N   0  0  0  0  0  0  0  0  0  0  0  0
    3.4037   -0.5910   -2.0886 C   0  0  0  0  0  0  0  0  0  0  0  0
    4.2347   -0.8233   -2.7425 H   0  0  0  0  0  0  0  0  0  0  0  0
    3.5140   -0.2073   -0.8057 N   0  0  0  0  0  0  0  0  0  0  0  0
    4.3827   -0.0781   -0.3050 H   0  0  0  0  0  0  0  0  0  0  0  0
    2.2470   -0.0067   -0.3048 C   0  0  0  0  0  0  0  0  0  0  0  0
    1.9738    0.3278    0.6881 H   0  0  0  0  0  0  0  0  0  0  0  0
   -0.9851    1.3114    0.6698 C   0  0  0  0  0  0  0  0  0  0  0  0
   -2.0377    1.8431    0.3168 O   0  0  0  0  0  0  0  0  0  0  0  0
   -0.1052    1.9265    1.4663 N   0  0  0  0  0  0  0  0  0  0  0  0
    0.7810    1.4586    1.6201 H   0  0  0  0  0  0  0  0  0  0  0  0
   -0.2724    3.2715    2.0119 C   0  0  0  0  0  0  0  0  0  0  0  0
   -1.3249    3.4549    2.2426 H   0  0  0  0  0  0  0  0  0  0  0  0
    0.3167    3.3776    2.9239 H   0  0  0  0  0  0  0  0  0  0  0  0
    0.0609    4.0073    1.2782 H   0  0  0  0  0  0  0  0  0  0  0  0
  5  6  2  0  0  0  0
  5  7  1  0  0  0  0
  2  3  1  0  0  0  0
  2  4  1  0  0  0  0
  2  5  1  0  0  0  0
  1  2  1  0  0  0  0
 22 23  2  0  0  0  0
 22 24  1  0  0  0  0
 20 21  1  0  0  0  0
 18 19  1  0  0  0  0
 18 20  1  0  0  0  0
 16 17  1  0  0  0  0
 16 18  1  0  0  0  0
 15 16  2  0  0  0  0
 14 15  1  0  0  0  0
 14 20  2  0  0  0  0
 11 12  1  0  0  0  0
 11 13  1  0  0  0  0
 11 14  1  0  0  0  0
  9 10  1  0  0  0  0
  9 11  1  0  0  0  0
  9 22  1  0  0  0  0
  7  8  1  0  0  0  0
  7  9  1  0  0  0  0
 26 27  1  0  0  0  0
 26 28  1  0  0  0  0
 26 29  1  0  0  0  0
 24 25  1  0  0  0  0
 24 26  1  0  0  0  0
M  END
$$$$
default_name
  -OEChem-02102213163D

 29 29  0     1  0  0  0  0  0999 V2000
   -2.9561   -3.9186    1.3887 H   0  0  0  0  0  0  0  0  0  0  0  0
   -3.1191   -2.9346    0.9517 C   0  0  0  0  0  0  0  0  0  0  0  0
   -3.7811   -2.3546    1.5917 H   0  0  0  0  0  0  0  0  0  0  0  0
   -3.5591   -3.0406   -0.0383 H   0  0  0  0  0  0  0  0  0  0  0  0
   -1.7921   -2.2226    0.8327 C   0  0  0  0  0  0  0  0  0  0  0  0
   -0.7611   -2.7766    1.1927 O   0  0  0  0  0  0  0  0  0  0  0  0
   -1.8201   -0.9926    0.3247 N   0  0  0  0  0  0  0  0  0  0  0  0
   -2.7141   -0.5816    0.0927 H   0  0  0  0  0  0  0  0  0  0  0  0
   -0.6481   -0.1156    0.2017 C   0  0  1  0  0  0  0  0  0  0  0  0
    0.1344   -0.4988    0.8596 H   0  0  0  0  0  0  0  0  0  0  0  0
   -0.1211   -0.1520   -1.2460 C   0  0  0  0  0  0  0  0  0  0  0  0
   -0.7352   -0.8254   -1.8457 H   0  0  0  0  0  0  0  0  0  0  0  0
   -0.1937    0.8417   -1.6902 H   0  0  0  0  0  0  0  0  0  0  0  0
    1.3037   -0.6412   -1.3395 C   0  0  0  0  0  0  0  0  0  0  0  0
    2.0448   -0.7805   -2.5137 N   0  0  0  0  0  0  0  0  0  0  0  0
    3.2632   -1.1930   -2.1346 C   0  0  0  0  0  0  0  0  0  0  0  0
    4.0771   -1.4065   -2.8160 H   0  0  0  0  0  0  0  0  0  0  0  0
    3.3295   -1.2932   -0.7964 N   0  0  0  0  0  0  0  0  0  0  0  0
    4.1474   -1.5659   -0.2687 H   0  0  0  0  0  0  0  0  0  0  0  0
    2.1028   -0.9449   -0.2763 C   0  0  0  0  0  0  0  0  0  0  0  0
    1.8170   -0.8949    0.7669 H   0  0  0  0  0  0  0  0  0  0  0  0
   -0.9851    1.3114    0.6698 C   0  0  0  0  0  0  0  0  0  0  0  0
   -2.0377    1.8431    0.3168 O   0  0  0  0  0  0  0  0  0  0  0  0
   -0.1052    1.9265    1.4663 N   0  0  0  0  0  0  0  0  0  0  0  0
    0.7810    1.4586    1.6201 H   0  0  0  0  0  0  0  0  0  0  0  0
   -0.2724    3.2715    2.0119 C   0  0  0  0  0  0  0  0  0  0  0  0
   -1.3249    3.4549    2.2426 H   0  0  0  0  0  0  0  0  0  0  0  0
    0.3167    3.3776    2.9239 H   0  0  0  0  0  0  0  0  0  0  0  0
    0.0609    4.0073    1.2782 H   0  0  0  0  0  0  0  0  0  0  0  0
  5  6  2  0  0  0  0
  5  7  1  0  0  0  0
  2  3  1  0  0  0  0
  2  4  1  0  0  0  0
  2  5  1  0  0  0  0
  1  2  1  0  0  0  0
 22 23  2  0  0  0  0
 22 24  1  0  0  0  0
 20 21  1  0  0  0  0
 18 19  1  0  0  0  0
 18 20  1  0  0  0  0
 16 17  1  0  0  0  0
 16 18  1  0  0  0  0
 15 16  2  0  0  0  0
 14 15  1  0  0  0  0
 14 20  2  0  0  0  0
 11 12  1  0  0  0  0
 11 13  1  0  0  0  0
 11 14  1  0  0  0  0
  9 10  1  0  0  0  0
  9 11  1  0  0  0  0
  9 22  1  0  0  0  0
  7  8  1  0  0  0  0
  7  9  1  0  0  0  0
 26 27  1  0  0  0  0
 26 28  1  0  0  0  0
 26 29  1  0  0  0  0
 24 25  1  0  0  0  0
 24 26  1  0  0  0  0
M  END
$$$$
default_name
  -OEChem-02102213163D

 29 29  0     1  0  0  0  0  0999 V2000
   -2.9561   -3.9186    1.3887 H   0  0  0  0  0  0  0  0  0  0  0  0
   -3.1191   -2.9346    0.9517 C   0  0  0  0  0  0  0  0  0  0  0  0
   -3.7811   -2.3546    1.5917 H   0  0  0  0  0  0  0  0  0  0  0  0
   -3.5591   -3.0406   -0.0383 H   0  0  0  0  0  0  0  0  0  0  0  0
   -1.7921   -2.2226    0.8327 C   0  0  0  0  0  0  0  0  0  0  0  0
   -0.7611   -2.7766    1.1927 O   0  0  0  0  0  0  0  0  0  0  0  0
   -1.8201   -0.9926    0.3247 N   0  0  0  0  0  0  0  0  0  0  0  0
   -2.7141   -0.5816    0.0927 H   0  0  0  0  0  0  0  0  0  0  0  0
   -0.6481   -0.1156    0.2017 C   0  0  1  0  0  0  0  0  0  0  0  0
    0.1344   -0.4988    0.8596 H   0  0  0  0  0  0  0  0  0  0  0  0
   -0.1211   -0.1520   -1.2460 C   0  0  0  0  0  0  0  0  0  0  0  0
   -0.7352   -0.8254   -1.8457 H   0  0  0  0  0  0  0  0  0  0  0  0
   -0.1937    0.8417   -1.6902 H   0  0  0  0  0  0  0  0  0  0  0  0
    1.3037   -0.6412   -1.3395 C   0  0  0  0  0  0  0  0  0  0  0  0
    2.1421   -0.5098   -2.4473 N   0  0  0  0  0  0  0  0  0  0  0  0
    3.3211   -1.0344   -2.0824 C   0  0  0  0  0  0  0  0  0  0  0  0
    4.1893   -1.0969   -2.7262 H   0  0  0  0  0  0  0  0  0  0  0  0
    3.2717   -1.4593   -0.8087 N   0  0  0  0  0  0  0  0  0  0  0  0
    4.0397   -1.8739   -0.2987 H   0  0  0  0  0  0  0  0  0  0  0  0
    2.0068   -1.2158   -0.3213 C   0  0  0  0  0  0  0  0  0  0  0  0
    1.6328   -1.4139    0.6752 H   0  0  0  0  0  0  0  0  0  0  0  0
   -0.9851    1.3114    0.6698 C   0  0  0  0  0  0  0  0  0  0  0  0
   -2.0377    1.8431    0.3168 O   0  0  0  0  0  0  0  0  0  0  0  0
   -0.1052    1.9265    1.4663 N   0  0  0  0  0  0  0  0  0  0  0  0
    0.7810    1.4586    1.6201 H   0  0  0  0  0  0  0  0  0  0  0  0
   -0.2724    3.2715    2.0119 C   0  0  0  0  0  0  0  0  0  0  0  0
   -1.3249    3.4549    2.2426 H   0  0  0  0  0  0  0  0  0  0  0  0
    0.3167    3.3776    2.9239 H   0  0  0  0  0  0  0  0  0  0  0  0
    0.0609    4.0073    1.2782 H   0  0  0  0  0  0  0  0  0  0  0  0
  5  6  2  0  0  0  0
  5  7  1  0  0  0  0
  2  3  1  0  0  0  0
  2  4  1  0  0  0  0
  2  5  1  0  0  0  0
  1  2  1  0  0  0  0
 22 23  2  0  0  0  0
 22 24  1  0  0  0  0
 20 21  1  0  0  0  0
 18 19  1  0  0  0  0
 18 20  1  0  0  0  0
 16 17  1  0  0  0  0
 16 18  1  0  0  0  0
 15 16  2  0  0  0  0
 14 15  1  0  0  0  0
 14 20  2  0  0  0  0
 11 12  1  0  0  0  0
 11 13  1  0  0  0  0
 11 14  1  0  0  0  0
  9 10  1  0  0  0  0
  9 11  1  0  0  0  0
  9 22  1  0  0  0  0
  7  8  1  0  0  0  0
  7  9  1  0  0  0  0
 26 27  1  0  0  0  0
 26 28  1  0  0  0  0
 26 29  1  0  0  0  0
 24 25  1  0  0  0  0
 24 26  1  0  0  0  0
M  END
$$$$
default_name
  -OEChem-02102213163D

 29 29  0     1  0  0  0  0  0999 V2000
   -2.9561   -3.9186    1.3887 H   0  0  0  0  0  0  0  0  0  0  0  0
   -3.1191   -2.9346    0.9517 C   0  0  0  0  0  0  0  0  0  0  0  0
   -3.7811   -2.3546    1.5917 H   0  0  0  0  0  0  0  0  0  0  0  0
   -3.5591   -3.0406   -0.0383 H   0  0  0  0  0  0  0  0  0  0  0  0
   -1.7921   -2.2226    0.8327 C   0  0  0  0  0  0  0  0  0  0  0  0
   -0.7611   -2.7766    1.1927 O   0  0  0  0  0  0  0  0  0  0  0  0
   -1.8201   -0.9926    0.3247 N   0  0  0  0  0  0  0  0  0  0  0  0
   -2.7141   -0.5816    0.0927 H   0  0  0  0  0  0  0  0  0  0  0  0
   -0.6481   -0.1156    0.2017 C   0  0  1  0  0  0  0  0  0  0  0  0
    0.1344   -0.4988    0.8596 H   0  0  0  0  0  0  0  0  0  0  0  0
   -0.1211   -0.1520   -1.2460 C   0  0  0  0  0  0  0  0  0  0  0  0
   -0.7352   -0.8254   -1.8457 H   0  0  0  0  0  0  0  0  0  0  0  0
   -0.1937    0.8417   -1.6902 H   0  0  0  0  0  0  0  0  0  0  0  0
    1.3037   -0.6412   -1.3395 C   0  0  0  0  0  0  0  0  0  0  0  0
    2.2349   -0.2661   -2.3088 N   0  0  0  0  0  0  0  0  0  0  0  0
    3.3752   -0.8948   -1.9883 C   0  0  0  0  0  0  0  0  0  0  0  0
    4.2951   -0.8215   -2.5545 H   0  0  0  0  0  0  0  0  0  0  0  0
    3.2142   -1.6157   -0.8660 N   0  0  0  0  0  0  0  0  0  0  0  0
    3.9333   -2.1622   -0.4120 H   0  0  0  0  0  0  0  0  0  0  0  0
    1.9135   -1.4650   -0.4391 C   0  0  0  0  0  0  0  0  0  0  0  0
    1.4542   -1.8899    0.4445 H   0  0  0  0  0  0  0  0  0  0  0  0
   -0.9851    1.3114    0.6698 C   0  0  0  0  0  0  0  0  0  0  0  0
   -2.0377    1.8431    0.3168 O   0  0  0  0  0  0  0  0  0  0  0  0
   -0.1052    1.9265    1.4663 N   0  0  0  0  0  0  0  0  0  0  0  0
    0.7810    1.4586    1.6201 H   0  0  0  0  0  0  0  0  0  0  0  0
   -0.2724    3.2715    2.0119 C   0  0  0  0  0  0  0  0  0  0  0  0
   -1.3249    3.4549    2.2426 H   0  0  0  0  0  0  0  0  0  0  0  0
    0.3167    3.3776    2.9239 H   0  0  0  0  0  0  0  0  0  0  0  0
    0.0609    4.0073    1.2782 H   0  0  0  0  0  0  0  0  0  0  0  0
  5  6  2  0  0  0  0
  5  7  1  0  0  0  0
  2  3  1  0  0  0  0
  2  4  1  0  0  0  0
  2  5  1  0  0  0  0
  1  2  1  0  0  0  0
 22 23  2  0  0  0  0
 22 24  1  0  0  0  0
 20 21  1  0  0  0  0
 18 19  1  0  0  0  0
 18 20  1  0  0  0  0
 16 17  1  0  0  0  0
 16 18  1  0  0  0  0
 15 16  2  0  0  0  0
 14 15  1  0  0  0  0
 14 20  2  0  0  0  0
 11 12  1  0  0  0  0
 11 13  1  0  0  0  0
 11 14  1  0  0  0  0
  9 10  1  0  0  0  0
  9 11  1  0  0  0  0
  9 22  1  0  0  0  0
  7  8  1  0  0  0  0
  7  9  1  0  0  0  0
 26 27  1  0  0  0  0
 26 28  1  0  0  0  0
 26 29  1  0  0  0  0
 24 25  1  0  0  0  0
 24 26  1  0  0  0  0
M  END
$$$$
default_name
  -OEChem-02102213163D

 29 29  0     1  0  0  0  0  0999 V2000
   -2.9561   -3.9186    1.3887 H   0  0  0  0  0  0  0  0  0  0  0  0
   -3.1191   -2.9346    0.9517 C   0  0  0  0  0  0  0  0  0  0  0  0
   -3.7811   -2.3546    1.5917 H   0  0  0  0  0  0  0  0  0  0  0  0
   -3.5591   -3.0406   -0.0383 H   0  0  0  0  0  0  0  0  0  0  0  0
   -1.7921   -2.2226    0.8327 C   0  0  0  0  0  0  0  0  0  0  0  0
   -0.7611   -2.7766    1.1927 O   0  0  0  0  0  0  0  0  0  0  0  0
   -1.8201   -0.9926    0.3247 N   0  0  0  0  0  0  0  0  0  0  0  0
   -2.7141   -0.5816    0.0927 H   0  0  0  0  0  0  0  0  0  0  0  0
   -0.6481   -0.1156    0.2017 C   0  0  1  0  0  0  0  0  0  0  0  0
    0.1344   -0.4988    0.8596 H   0  0  0  0  0  0  0  0  0  0  0  0
   -0.1211   -0.1520   -1.2460 C   0  0  0  0  0  0  0  0  0  0  0  0
   -0.7352   -0.8254   -1.8457 H   0  0  0  0  0  0  0  0  0  0  0  0
   -0.1937    0.8417   -1.6902 H   0  0  0  0  0  0  0  0  0  0  0  0
    1.3037   -0.6412   -1.3395 C   0  0  0  0  0  0  0  0  0  0  0  0
    2.3168   -0.0660   -2.1077 N   0  0  0  0  0  0  0  0  0  0  0  0
    3.4218   -0.7838   -1.8587 C   0  0  0  0  0  0  0  0  0  0  0  0
    4.3874   -0.5991   -2.3124 H   0  0  0  0  0  0  0  0  0  0  0  0
    3.1609   -1.7519   -0.9643 N   0  0  0  0  0  0  0  0  0  0  0  0
    3.8353   -2.4114   -0.6008 H   0  0  0  0  0  0  0  0  0  0  0  0
    1.8293   -1.6753   -0.6215 C   0  0  0  0  0  0  0  0  0  0  0  0
    1.2934   -2.2905    0.0903 H   0  0  0  0  0  0  0  0  0  0  0  0
   -0.9851    1.3114    0.6698 C   0  0  0  0  0  0  0  0  0  0  0  0
   -2.0377    1.8431    0.3168 O   0  0  0  0  0  0  0  0  0  0  0  0
   -0.1052    1.9265    1.4663 N   0  0  0  0  0  0  0  0  0  0  0  0
    0.7810    1.4586    1.6201 H   0  0  0  0  0  0  0  0  0  0  0  0
   -0.2724    3.2715    2.0119 C   0  0  0  0  0  0  0  0  0  0  0  0
   -1.3249    3.4549    2.2426 H   0  0  0  0  0  0  0  0  0  0  0  0
    0.3167    3.3776    2.9239 H   0  0  0  0  0  0  0  0  0  0  0  0
    0.0609    4.0073    1.2782 H   0  0  0  0  0  0  0  0  0  0  0  0
  5  6  2  0  0  0  0
  5  7  1  0  0  0  0
  2  3  1  0  0  0  0
  2  4  1  0  0  0  0
  2  5  1  0  0  0  0
  1  2  1  0  0  0  0
 22 23  2  0  0  0  0
 22 24  1  0  0  0  0
 20 21  1  0  0  0  0
 18 19  1  0  0  0  0
 18 20  1  0  0  0  0
 16 17  1  0  0  0  0
 16 18  1  0  0  0  0
 15 16  2  0  0  0  0
 14 15  1  0  0  0  0
 14 20  2  0  0  0  0
 11 12  1  0  0  0  0
 11 13  1  0  0  0  0
 11 14  1  0  0  0  0
  9 10  1  0  0  0  0
  9 11  1  0  0  0  0
  9 22  1  0  0  0  0
  7  8  1  0  0  0  0
  7  9  1  0  0  0  0
 26 27  1  0  0  0  0
 26 28  1  0  0  0  0
 26 29  1  0  0  0  0
 24 25  1  0  0  0  0
 24 26  1  0  0  0  0
M  END
$$$$
default_name
  -OEChem-02102213163D

 29 29  0     1  0  0  0  0  0999 V2000
   -2.9561   -3.9186    1.3887 H   0  0  0  0  0  0  0  0  0  0  0  0
   -3.1191   -2.9346    0.9517 C   0  0  0  0  0  0  0  0  0  0  0  0
   -3.7811   -2.3546    1.5917 H   0  0  0  0  0  0  0  0  0  0  0  0
   -3.5591   -3.0406   -0.0383 H   0  0  0  0  0  0  0  0  0  0  0  0
   -1.7921   -2.2226    0.8327 C   0  0  0  0  0  0  0  0  0  0  0  0
   -0.7611   -2.7766    1.1927 O   0  0  0  0  0  0  0  0  0  0  0  0
   -1.8201   -0.9926    0.3247 N   0  0  0  0  0  0  0  0  0  0  0  0
   -2.7141   -0.5816    0.0927 H   0  0  0  0  0  0  0  0  0  0  0  0
   -0.6481   -0.1156    0.2017 C   0  0  1  0  0  0  0  0  0  0  0  0
    0.1344   -0.4988    0.8596 H   0  0  0  0  0  0  0  0  0  0  0  0
   -0.1211   -0.1520   -1.2460 C   0  0  0  0  0  0  0  0  0  0  0  0
   -0.7352   -0.8254   -1.8457 H   0  0  0  0  0  0  0  0  0  0  0  0
   -0.1937    0.8417   -1.6902 H   0  0  0  0  0  0  0  0  0  0  0  0
    1.3037   -0.6412   -1.3395 C   0  0  0  0  0  0  0  0  0  0  0  0
    2.3822    0.0768   -1.8578 N   0  0  0  0  0  0  0  0  0  0  0  0
    3.4577   -0.7090   -1.7026 C   0  0  0  0  0  0  0  0  0  0  0  0
    4.4597   -0.4450   -2.0166 H   0  0  0  0  0  0  0  0  0  0  0  0
    3.1156   -1.8586   -1.0971 N   0  0  0  0  0  0  0  0  0  0  0  0
    3.7525   -2.6044   -0.8523 H   0  0  0  0  0  0  0  0  0  0  0  0
    1.7599   -1.8326   -0.8562 C   0  0  0  0  0  0  0  0  0  0  0  0
    1.1614   -2.5883   -0.3632 H   0  0  0  0  0  0  0  0  0  0  0  0
   -0.9851    1.3114    0.6698 C   0  0  0  0  0  0  0  0  0  0  0  0
   -2.0377    1.8431    0.3168 O   0  0  0  0  0  0  0  0  0  0  0  0
   -0.1052    1.9265    1.4663 N   0  0  0  0  0  0  0  0  0  0  0  0
    0.7810    1.4586    1.6201 H   0  0  0  0  0  0  0  0  0  0  0  0
   -0.2724    3.2715    2.0119 C   0  0  0  0  0  0  0  0  0  0  0  0
   -1.3249    3.4549    2.2426 H   0  0  0  0  0  0  0  0  0  0  0  0
    0.3167    3.3776    2.9239 H   0  0  0  0  0  0  0  0  0  0  0  0
    0.0609    4.0073    1.2782 H   0  0  0  0  0  0  0  0  0  0  0  0
  5  6  2  0  0  0  0
  5  7  1  0  0  0  0
  2  3  1  0  0  0  0
  2  4  1  0  0  0  0
  2  5  1  0  0  0  0
  1  2  1  0  0  0  0
 22 23  2  0  0  0  0
 22 24  1  0  0  0  0
 20 21  1  0  0  0  0
 18 19  1  0  0  0  0
 18 20  1  0  0  0  0
 16 17  1  0  0  0  0
 16 18  1  0  0  0  0
 15 16  2  0  0  0  0
 14 15  1  0  0  0  0
 14 20  2  0  0  0  0
 11 12  1  0  0  0  0
 11 13  1  0  0  0  0
 11 14  1  0  0  0  0
  9 10  1  0  0  0  0
  9 11  1  0  0  0  0
  9 22  1  0  0  0  0
  7  8  1  0  0  0  0
  7  9  1  0  0  0  0
 26 27  1  0  0  0  0
 26 28  1  0  0  0  0
 26 29  1  0  0  0  0
 24 25  1  0  0  0  0
 24 26  1  0  0  0  0
M  END
$$$$
default_name
  -OEChem-02102213163D

 29 29  0     1  0  0  0  0  0999 V2000
   -2.9561   -3.9186    1.3887 H   0  0  0  0  0  0  0  0  0  0  0  0
   -3.1191   -2.9346    0.9517 C   0  0  0  0  0  0  0  0  0  0  0  0
   -3.7811   -2.3546    1.5917 H   0  0  0  0  0  0  0  0  0  0  0  0
   -3.5591   -3.0406   -0.0383 H   0  0  0  0  0  0  0  0  0  0  0  0
   -1.7921   -2.2226    0.8327 C   0  0  0  0  0  0  0  0  0  0  0  0
   -0.7611   -2.7766    1.1927 O   0  0  0  0  0  0  0  0  0  0  0  0
   -1.8201   -0.9926    0.3247 N   0  0  0  0  0  0  0  0  0  0  0  0
   -2.7141   -0.5816    0.0927 H   0  0  0  0  0  0  0  0  0  0  0  0
   -0.6481   -0.1156    0.2017 C   0  0  1  0  0  0  0  0  0  0  0  0
    0.1344   -0.4988    0.8596 H   0  0  0  0  0  0  0  0  0  0  0  0
   -0.1211   -0.1520   -1.2460 C   0  0  0  0  0  0  0  0  0  0  0  0
   -0.7352   -0.8254   -1.8457 H   0  0  0  0  0  0  0  0  0  0  0  0
   -0.1937    0.8417   -1.6902 H   0  0  0  0  0  0  0  0  0  0  0  0
    1.3037   -0.6412   -1.3395 C   0  0  0  0  0  0  0  0  0  0  0  0
    2.4268    0.1527   -1.5759 N   0  0  0  0  0  0  0  0  0  0  0  0
    3.4806   -0.6755   -1.5305 C   0  0  0  0  0  0  0  0  0  0  0  0
    4.5073   -0.3695   -1.6870 H   0  0  0  0  0  0  0  0  0  0  0  0
    3.0812   -1.9285   -1.2552 N   0  0  0  0  0  0  0  0  0  0  0  0
    3.6906   -2.7281   -1.1493 H   0  0  0  0  0  0  0  0  0  0  0  0
    1.7100   -1.9261   -1.1272 C   0  0  0  0  0  0  0  0  0  0  0  0
    1.0671   -2.7630   -0.8850 H   0  0  0  0  0  0  0  0  0  0  0  0
   -0.9851    1.3114    0.6698 C   0  0  0  0  0  0  0  0  0  0  0  0
   -2.0377    1.8431    0.3168 O   0  0  0  0  0  0  0  0  0  0  0  0
   -0.1052    1.9265    1.4663 N   0  0  0  0  0  0  0  0  0  0  0  0
    0.7810    1.4586    1.6201 H   0  0  0  0  0  0  0  0  0  0  0  0
   -0.2724    3.2715    2.0119 C   0  0  0  0  0  0  0  0  0  0  0  0
   -1.3249    3.4549    2.2426 H   0  0  0  0  0  0  0  0  0  0  0  0
    0.3167    3.3776    2.9239 H   0  0  0  0  0  0  0  0  0  0  0  0
    0.0609    4.0073    1.2782 H   0  0  0  0  0  0  0  0  0  0  0  0
  5  6  2  0  0  0  0
  5  7  1  0  0  0  0
  2  3  1  0  0  0  0
  2  4  1  0  0  0  0
  2  5  1  0  0  0  0
  1  2  1  0  0  0  0
 22 23  2  0  0  0  0
 22 24  1  0  0  0  0
 20 21  1  0  0  0  0
 18 19  1  0  0  0  0
 18 20  1  0  0  0  0
 16 17  1  0  0  0  0
 16 18  1  0  0  0  0
 15 16  2  0  0  0  0
 14 15  1  0  0  0  0
 14 20  2  0  0  0  0
 11 12  1  0  0  0  0
 11 13  1  0  0  0  0
 11 14  1  0  0  0  0
  9 10  1  0  0  0  0
  9 11  1  0  0  0  0
  9 22  1  0  0  0  0
  7  8  1  0  0  0  0
  7  9  1  0  0  0  0
 26 27  1  0  0  0  0
 26 28  1  0  0  0  0
 26 29  1  0  0  0  0
 24 25  1  0  0  0  0
 24 26  1  0  0  0  0
M  END
$$$$
default_name
  -OEChem-02102213163D

 29 29  0     1  0  0  0  0  0999 V2000
   -2.9561   -3.9186    1.3887 H   0  0  0  0  0  0  0  0  0  0  0  0
   -3.1191   -2.9346    0.9517 C   0  0  0  0  0  0  0  0  0  0  0  0
   -3.7811   -2.3546    1.5917 H   0  0  0  0  0  0  0  0  0  0  0  0
   -3.5591   -3.0406   -0.0383 H   0  0  0  0  0  0  0  0  0  0  0  0
   -1.7921   -2.2226    0.8327 C   0  0  0  0  0  0  0  0  0  0  0  0
   -0.7611   -2.7766    1.1927 O   0  0  0  0  0  0  0  0  0  0  0  0
   -1.8201   -0.9926    0.3247 N   0  0  0  0  0  0  0  0  0  0  0  0
   -2.7141   -0.5816    0.0927 H   0  0  0  0  0  0  0  0  0  0  0  0
   -0.6481   -0.1156    0.2017 C   0  0  1  0  0  0  0  0  0  0  0  0
    0.1344   -0.4988    0.8596 H   0  0  0  0  0  0  0  0  0  0  0  0
   -0.1211   -0.1520   -1.2460 C   0  0  0  0  0  0  0  0  0  0  0  0
   -0.7352   -0.8254   -1.8457 H   0  0  0  0  0  0  0  0  0  0  0  0
   -0.1937    0.8417   -1.6902 H   0  0  0  0  0  0  0  0  0  0  0  0
    1.3037   -0.6412   -1.3395 C   0  0  0  0  0  0  0  0  0  0  0  0
    2.4474    0.1563   -1.2814 N   0  0  0  0  0  0  0  0  0  0  0  0
    3.4887   -0.6855   -1.3541 C   0  0  0  0  0  0  0  0  0  0  0  0
    4.5268   -0.3779   -1.3463 H   0  0  0  0  0  0  0  0  0  0  0  0
    3.0602   -1.9568   -1.4279 N   0  0  0  0  0  0  0  0  0  0  0  0
    3.6537   -2.7739   -1.4715 H   0  0  0  0  0  0  0  0  0  0  0  0
    1.6831   -1.9494   -1.4159 C   0  0  0  0  0  0  0  0  0  0  0  0
    1.0171   -2.8028   -1.4397 H   0  0  0  0  0  0  0  0  0  0  0  0
   -0.9851    1.3114    0.6698 C   0  0  0  0  0  0  0  0  0  0  0  0
   -2.0377    1.8431    0.3168 O   0  0  0  0  0  0  0  0  0  0  0  0
   -0.1052    1.9265    1.4663 N   0  0  0  0  0  0  0  0  0  0  0  0
    0.7810    1.4586    1.6201 H   0  0  0  0  0  0  0  0  0  0  0  0
   -0.2724    3.2715    2.0119 C   0  0  0  0  0  0  0  0  0  0  0  0
   -1.3249    3.4549    2.2426 H   0  0  0  0  0  0  0  0  0  0  0  0
    0.3167    3.3776    2.9239 H   0  0  0  0  0  0  0  0  0  0  0  0
    0.0609    4.0073    1.2782 H   0  0  0  0  0  0  0  0  0  0  0  0
  5  6  2  0  0  0  0
  5  7  1  0  0  0  0
  2  3  1  0  0  0  0
  2  4  1  0  0  0  0
  2  5  1  0  0  0  0
  1  2  1  0  0  0  0
 22 23  2  0  0  0  0
 22 24  1  0  0  0  0
 20 21  1  0  0  0  0
 18 19  1  0  0  0  0
 18 20  1  0  0  0  0
 16 17  1  0  0  0  0
 16 18  1  0  0  0  0
 15 16  2  0  0  0  0
 14 15  1  0  0  0  0
 14 20  2  0  0  0  0
 11 12  1  0  0  0  0
 11 13  1  0  0  0  0
 11 14  1  0  0  0  0
  9 10  1  0  0  0  0
  9 11  1  0  0  0  0
  9 22  1  0  0  0  0
  7  8  1  0  0  0  0
  7  9  1  0  0  0  0
 26 27  1  0  0  0  0
 26 28  1  0  0  0  0
 26 29  1  0  0  0  0
 24 25  1  0  0  0  0
 24 26  1  0  0  0  0
M  END
$$$$
default_name
  -OEChem-02102213163D

 29 29  0     1  0  0  0  0  0999 V2000
   -2.9561   -3.9186    1.3887 H   0  0  0  0  0  0  0  0  0  0  0  0
   -3.1191   -2.9346    0.9517 C   0  0  0  0  0  0  0  0  0  0  0  0
   -3.7811   -2.3546    1.5917 H   0  0  0  0  0  0  0  0  0  0  0  0
   -3.5591   -3.0406   -0.0383 H   0  0  0  0  0  0  0  0  0  0  0  0
   -1.7921   -2.2226    0.8327 C   0  0  0  0  0  0  0  0  0  0  0  0
   -0.7611   -2.7766    1.1927 O   0  0  0  0  0  0  0  0  0  0  0  0
   -1.8201   -0.9926    0.3247 N   0  0  0  0  0  0  0  0  0  0  0  0
   -2.7141   -0.5816    0.0927 H   0  0  0  0  0  0  0  0  0  0  0  0
   -0.6481   -0.1156    0.2017 C   0  0  1  0  0  0  0  0  0  0  0  0
    0.1344   -0.4988    0.8596 H   0  0  0  0  0  0  0  0  0  0  0  0
   -0.1211   -0.1520   -1.2460 C   0  0  0  0  0  0  0  0  0  0  0  0
   -0.7352   -0.8254   -1.8457 H   0  0  0  0  0  0  0  0  0  0  0  0
   -0.1937    0.8417   -1.6902 H   0  0  0  0  0  0  0  0  0  0  0  0
    1.3037   -0.6412   -1.3395 C   0  0  0  0  0  0  0  0  0  0  0  0
    2.4426    0.0876   -0.9943 N   0  0  0  0  0  0  0  0  0  0  0  0
    3.4816   -0.7384   -1.1855 C   0  0  0  0  0  0  0  0  0  0  0  0
    4.5169   -0.4696   -1.0176 H   0  0  0  0  0  0  0  0  0  0  0  0
    3.0539   -1.9416   -1.6034 N   0  0  0  0  0  0  0  0  0  0  0  0
    3.6443   -2.7389   -1.7971 H   0  0  0  0  0  0  0  0  0  0  0  0
    1.6809   -1.9009   -1.7028 C   0  0  0  0  0  0  0  0  0  0  0  0
    1.0146   -2.7048   -1.9893 H   0  0  0  0  0  0  0  0  0  0  0  0
   -0.9851    1.3114    0.6698 C   0  0  0  0  0  0  0  0  0  0  0  0
   -2.0377    1.8431    0.3168 O   0  0  0  0  0  0  0  0  0  0  0  0
   -0.1052    1.9265    1.4663 N   0  0  0  0  0  0  0  0  0  0  0  0
    0.7810    1.4586    1.6201 H   0  0  0  0  0  0  0  0  0  0  0  0
   -0.2724    3.2715    2.0119 C   0  0  0  0  0  0  0  0  0  0  0  0
   -1.3249    3.4549    2.2426 H   0  0  0  0  0  0  0  0  0  0  0  0
    0.3167    3.3776    2.9239 H   0  0  0  0  0  0  0  0  0  0  0  0
    0.0609    4.0073    1.2782 H   0  0  0  0  0  0  0  0  0  0  0  0
  5  6  2  0  0  0  0
  5  7  1  0  0  0  0
  2  3  1  0  0  0  0
  2  4  1  0  0  0  0
  2  5  1  0  0  0  0
  1  2  1  0  0  0  0
 22 23  2  0  0  0  0
 22 24  1  0  0  0  0
 20 21  1  0  0  0  0
 18 19  1  0  0  0  0
 18 20  1  0  0  0  0
 16 17  1  0  0  0  0
 16 18  1  0  0  0  0
 15 16  2  0  0  0  0
 14 15  1  0  0  0  0
 14 20  2  0  0  0  0
 11 12  1  0  0  0  0
 11 13  1  0  0  0  0
 11 14  1  0  0  0  0
  9 10  1  0  0  0  0
  9 11  1  0  0  0  0
  9 22  1  0  0  0  0
  7  8  1  0  0  0  0
  7  9  1  0  0  0  0
 26 27  1  0  0  0  0
 26 28  1  0  0  0  0
 26 29  1  0  0  0  0
 24 25  1  0  0  0  0
 24 26  1  0  0  0  0
M  END
$$$$
default_name
  -OEChem-02102213163D

 29 29  0     1  0  0  0  0  0999 V2000
   -2.9561   -3.9186    1.3887 H   0  0  0  0  0  0  0  0  0  0  0  0
   -3.1191   -2.9346    0.9517 C   0  0  0  0  0  0  0  0  0  0  0  0
   -3.7811   -2.3546    1.5917 H   0  0  0  0  0  0  0  0  0  0  0  0
   -3.5591   -3.0406   -0.0383 H   0  0  0  0  0  0  0  0  0  0  0  0
   -1.7921   -2.2226    0.8327 C   0  0  0  0  0  0  0  0  0  0  0  0
   -0.7611   -2.7766    1.1927 O   0  0  0  0  0  0  0  0  0  0  0  0
   -1.8201   -0.9926    0.3247 N   0  0  0  0  0  0  0  0  0  0  0  0
   -2.7141   -0.5816    0.0927 H   0  0  0  0  0  0  0  0  0  0  0  0
   -0.6481   -0.1156    0.2017 C   0  0  1  0  0  0  0  0  0  0  0  0
    0.1344   -0.4988    0.8596 H   0  0  0  0  0  0  0  0  0  0  0  0
   -0.1211   -0.1520   -1.2460 C   0  0  0  0  0  0  0  0  0  0  0  0
   -0.7352   -0.8254   -1.8457 H   0  0  0  0  0  0  0  0  0  0  0  0
   -0.1937    0.8417   -1.6902 H   0  0  0  0  0  0  0  0  0  0  0  0
    1.3037   -0.6412   -1.3395 C   0  0  0  0  0  0  0  0  0  0  0  0
    2.4128   -0.0489   -0.7342 N   0  0  0  0  0  0  0  0  0  0  0  0
    3.4597   -0.8306   -1.0362 C   0  0  0  0  0  0  0  0  0  0  0  0
    4.4783   -0.6383   -0.7234 H   0  0  0  0  0  0  0  0  0  0  0  0
    3.0627   -1.8840   -1.7697 N   0  0  0  0  0  0  0  0  0  0  0  0
    3.6632   -2.6254   -2.1039 H   0  0  0  0  0  0  0  0  0  0  0  0
    1.7036   -1.7840   -1.9682 C   0  0  0  0  0  0  0  0  0  0  0  0
    1.0599   -2.4759   -2.4966 H   0  0  0  0  0  0  0  0  0  0  0  0
   -0.9851    1.3114    0.6698 C   0  0  0  0  0  0  0  0  0  0  0  0
   -2.0377    1.8431    0.3168 O   0  0  0  0  0  0  0  0  0  0  0  0
   -0.1052    1.9265    1.4663 N   0  0  0  0  0  0  0  0  0  0  0  0
    0.7810    1.4586    1.6201 H   0  0  0  0  0  0  0  0  0  0  0  0
   -0.2724    3.2715    2.0119 C   0  0  0  0  0  0  0  0  0  0  0  0
   -1.3249    3.4549    2.2426 H   0  0  0  0  0  0  0  0  0  0  0  0
    0.3167    3.3776    2.9239 H   0  0  0  0  0  0  0  0  0  0  0  0
    0.0609    4.0073    1.2782 H   0  0  0  0  0  0  0  0  0  0  0  0
  5  6  2  0  0  0  0
  5  7  1  0  0  0  0
  2  3  1  0  0  0  0
  2  4  1  0  0  0  0
  2  5  1  0  0  0  0
  1  2  1  0  0  0  0
 22 23  2  0  0  0  0
 22 24  1  0  0  0  0
 20 21  1  0  0  0  0
 18 19  1  0  0  0  0
 18 20  1  0  0  0  0
 16 17  1  0  0  0  0
 16 18  1  0  0  0  0
 15 16  2  0  0  0  0
 14 15  1  0  0  0  0
 14 20  2  0  0  0  0
 11 12  1  0  0  0  0
 11 13  1  0  0  0  0
 11 14  1  0  0  0  0
  9 10  1  0  0  0  0
  9 11  1  0  0  0  0
  9 22  1  0  0  0  0
  7  8  1  0  0  0  0
  7  9  1  0  0  0  0
 26 27  1  0  0  0  0
 26 28  1  0  0  0  0
 26 29  1  0  0  0  0
 24 25  1  0  0  0  0
 24 26  1  0  0  0  0
M  END
$$$$
default_name
  -OEChem-02102213163D

 29 29  0     1  0  0  0  0  0999 V2000
   -2.9561   -3.9186    1.3887 H   0  0  0  0  0  0  0  0  0  0  0  0
   -3.1191   -2.9346    0.9517 C   0  0  0  0  0  0  0  0  0  0  0  0
   -3.7811   -2.3546    1.5917 H   0  0  0  0  0  0  0  0  0  0  0  0
   -3.5591   -3.0406   -0.0383 H   0  0  0  0  0  0  0  0  0  0  0  0
   -1.7921   -2.2226    0.8327 C   0  0  0  0  0  0  0  0  0  0  0  0
   -0.7611   -2.7766    1.1927 O   0  0  0  0  0  0  0  0  0  0  0  0
   -1.8201   -0.9926    0.3247 N   0  0  0  0  0  0  0  0  0  0  0  0
   -2.7141   -0.5816    0.0927 H   0  0  0  0  0  0  0  0  0  0  0  0
   -0.6481   -0.1156    0.2017 C   0  0  1  0  0  0  0  0  0  0  0  0
    0.1344   -0.4988    0.8596 H   0  0  0  0  0  0  0  0  0  0  0  0
   -0.1211   -0.1520   -1.2460 C   0  0  0  0  0  0  0  0  0  0  0  0
   -0.7352   -0.8254   -1.8457 H   0  0  0  0  0  0  0  0  0  0  0  0
   -0.1937    0.8417   -1.6902 H   0  0  0  0  0  0  0  0  0  0  0  0
    1.3037   -0.6412   -1.3395 C   0  0  0  0  0  0  0  0  0  0  0  0
    2.3601   -0.2437   -0.5188 N   0  0  0  0  0  0  0  0  0  0  0  0
    3.4246   -0.9558   -0.9163 C   0  0  0  0  0  0  0  0  0  0  0  0
    4.4136   -0.8725   -0.4836 H   0  0  0  0  0  0  0  0  0  0  0  0
    3.0862   -1.7878   -1.9156 N   0  0  0  0  0  0  0  0  0  0  0  0
    3.7089   -2.4411   -2.3708 H   0  0  0  0  0  0  0  0  0  0  0  0
    1.7497   -1.6065   -2.1941 C   0  0  0  0  0  0  0  0  0  0  0  0
    1.1499   -2.1316   -2.9268 H   0  0  0  0  0  0  0  0  0  0  0  0
   -0.9851    1.3114    0.6698 C   0  0  0  0  0  0  0  0  0  0  0  0
   -2.0377    1.8431    0.3168 O   0  0  0  0  0  0  0  0  0  0  0  0
   -0.1052    1.9265    1.4663 N   0  0  0  0  0  0  0  0  0  0  0  0
    0.7810    1.4586    1.6201 H   0  0  0  0  0  0  0  0  0  0  0  0
   -0.2724    3.2715    2.0119 C   0  0  0  0  0  0  0  0  0  0  0  0
   -1.3249    3.4549    2.2426 H   0  0  0  0  0  0  0  0  0  0  0  0
    0.3167    3.3776    2.9239 H   0  0  0  0  0  0  0  0  0  0  0  0
    0.0609    4.0073    1.2782 H   0  0  0  0  0  0  0  0  0  0  0  0
  5  6  2  0  0  0  0
  5  7  1  0  0  0  0
  2  3  1  0  0  0  0
  2  4  1  0  0  0  0
  2  5  1  0  0  0  0
  1  2  1  0  0  0  0
 22 23  2  0  0  0  0
 22 24  1  0  0  0  0
 20 21  1  0  0  0  0
 18 19  1  0  0  0  0
 18 20  1  0  0  0  0
 16 17  1  0  0  0  0
 16 18  1  0  0  0  0
 15 16  2  0  0  0  0
 14 15  1  0  0  0  0
 14 20  2  0  0  0  0
 11 12  1  0  0  0  0
 11 13  1  0  0  0  0
 11 14  1  0  0  0  0
  9 10  1  0  0  0  0
  9 11  1  0  0  0  0
  9 22  1  0  0  0  0
  7  8  1  0  0  0  0
  7  9  1  0  0  0  0
 26 27  1  0  0  0  0
 26 28  1  0  0  0  0
 26 29  1  0  0  0  0
 24 25  1  0  0  0  0
 24 26  1  0  0  0  0
M  END
$$$$
default_name
  -OEChem-02102213163D

 29 29  0     1  0  0  0  0  0999 V2000
   -2.9561   -3.9186    1.3887 H   0  0  0  0  0  0  0  0  0  0  0  0
   -3.1191   -2.9346    0.9517 C   0  0  0  0  0  0  0  0  0  0  0  0
   -3.7811   -2.3546    1.5917 H   0  0  0  0  0  0  0  0  0  0  0  0
   -3.5591   -3.0406   -0.0383 H   0  0  0  0  0  0  0  0  0  0  0  0
   -1.7921   -2.2226    0.8327 C   0  0  0  0  0  0  0  0  0  0  0  0
   -0.7611   -2.7766    1.1927 O   0  0  0  0  0  0  0  0  0  0  0  0
   -1.8201   -0.9926    0.3247 N   0  0  0  0  0  0  0  0  0  0  0  0
   -2.7141   -0.5816    0.0927 H   0  0  0  0  0  0  0  0  0  0  0  0
   -0.6481   -0.1156    0.2017 C   0  0  1  0  0  0  0  0  0  0  0  0
    0.1344   -0.4988    0.8596 H   0  0  0  0  0  0  0  0  0  0  0  0
   -0.1211   -0.1520   -1.2460 C   0  0  0  0  0  0  0  0  0  0  0  0
   -0.7352   -0.8254   -1.8457 H   0  0  0  0  0  0  0  0  0  0  0  0
   -0.1937    0.8417   -1.6902 H   0  0  0  0  0  0  0  0  0  0  0  0
    1.3037   -0.6412   -1.3395 C   0  0  0  0  0  0  0  0  0  0  0  0
    2.2879   -0.4838   -0.3628 N   0  0  0  0  0  0  0  0  0  0  0  0
    3.3786   -1.1054   -0.8341 C   0  0  0  0  0  0  0  0  0  0  0  0
    4.3272   -1.1563   -0.3146 H   0  0  0  0  0  0  0  0  0  0  0  0
    3.1226   -1.6597   -2.0310 N   0  0  0  0  0  0  0  0  0  0  0  0
    3.7785   -2.1986   -2.5798 H   0  0  0  0  0  0  0  0  0  0  0  0
    1.8160   -1.3807   -2.3651 C   0  0  0  0  0  0  0  0  0  0  0  0
    1.2784   -1.6954   -3.2507 H   0  0  0  0  0  0  0  0  0  0  0  0
   -0.9851    1.3114    0.6698 C   0  0  0  0  0  0  0  0  0  0  0  0
   -2.0377    1.8431    0.3168 O   0  0  0  0  0  0  0  0  0  0  0  0
   -0.1052    1.9265    1.4663 N   0  0  0  0  0  0  0  0  0  0  0  0
    0.7810    1.4586    1.6201 H   0  0  0  0  0  0  0  0  0  0  0  0
   -0.2724    3.2715    2.0119 C   0  0  0  0  0  0  0  0  0  0  0  0
   -1.3249    3.4549    2.2426 H   0  0  0  0  0  0  0  0  0  0  0  0
    0.3167    3.3776    2.9239 H   0  0  0  0  0  0  0  0  0  0  0  0
    0.0609    4.0073    1.2782 H   0  0  0  0  0  0  0  0  0  0  0  0
  5  6  2  0  0  0  0
  5  7  1  0  0  0  0
  2  3  1  0  0  0  0
  2  4  1  0  0  0  0
  2  5  1  0  0  0  0
  1  2  1  0  0  0  0
 22 23  2  0  0  0  0
 22 24  1  0  0  0  0
 20 21  1  0  0  0  0
 18 19  1  0  0  0  0
 18 20  1  0  0  0  0
 16 17  1  0  0  0  0
 16 18  1  0  0  0  0
 15 16  2  0  0  0  0
 14 15  1  0  0  0  0
 14 20  2  0  0  0  0
 11 12  1  0  0  0  0
 11 13  1  0  0  0  0
 11 14  1  0  0  0  0
  9 10  1  0  0  0  0
  9 11  1  0  0  0  0
  9 22  1  0  0  0  0
  7  8  1  0  0  0  0
  7  9  1  0  0  0  0
 26 27  1  0  0  0  0
 26 28  1  0  0  0  0
 26 29  1  0  0  0  0
 24 25  1  0  0  0  0
 24 26  1  0  0  0  0
M  END
$$$$
default_name
  -OEChem-02102213163D

 29 29  0     1  0  0  0  0  0999 V2000
   -2.9561   -3.9186    1.3887 H   0  0  0  0  0  0  0  0  0  0  0  0
   -3.1191   -2.9346    0.9517 C   0  0  0  0  0  0  0  0  0  0  0  0
   -3.7811   -2.3546    1.5917 H   0  0  0  0  0  0  0  0  0  0  0  0
   -3.5591   -3.0406   -0.0383 H   0  0  0  0  0  0  0  0  0  0  0  0
   -1.7921   -2.2226    0.8327 C   0  0  0  0  0  0  0  0  0  0  0  0
   -0.7611   -2.7766    1.1927 O   0  0  0  0  0  0  0  0  0  0  0  0
   -1.8201   -0.9926    0.3247 N   0  0  0  0  0  0  0  0  0  0  0  0
   -2.7141   -0.5816    0.0927 H   0  0  0  0  0  0  0  0  0  0  0  0
   -0.6481   -0.1156    0.2017 C   0  0  1  0  0  0  0  0  0  0  0  0
    0.1344   -0.4988    0.8596 H   0  0  0  0  0  0  0  0  0  0  0  0
   -0.1211   -0.1520   -1.2460 C   0  0  0  0  0  0  0  0  0  0  0  0
   -0.7352   -0.8254   -1.8457 H   0  0  0  0  0  0  0  0  0  0  0  0
   -0.1937    0.8417   -1.6902 H   0  0  0  0  0  0  0  0  0  0  0  0
    1.3037   -0.6412   -1.3395 C   0  0  0  0  0  0  0  0  0  0  0  0
    2.2012   -0.7526   -0.2768 N   0  0  0  0  0  0  0  0  0  0  0  0
    3.3249   -1.2693   -0.7950 C   0  0  0  0  0  0  0  0  0  0  0  0
    4.2251   -1.4703   -0.2280 H   0  0  0  0  0  0  0  0  0  0  0  0
    3.1695   -1.5083   -2.1081 N   0  0  0  0  0  0  0  0  0  0  0  0
    3.8671   -1.9144   -2.7166 H   0  0  0  0  0  0  0  0  0  0  0  0
    1.8981   -1.1218   -2.4695 C   0  0  0  0  0  0  0  0  0  0  0  0
    1.4367   -1.1969   -3.4462 H   0  0  0  0  0  0  0  0  0  0  0  0
   -0.9851    1.3114    0.6698 C   0  0  0  0  0  0  0  0  0  0  0  0
   -2.0377    1.8431    0.3168 O   0  0  0  0  0  0  0  0  0  0  0  0
   -0.1052    1.9265    1.4663 N   0  0  0  0  0  0  0  0  0  0  0  0
    0.7810    1.4586    1.6201 H   0  0  0  0  0  0  0  0  0  0  0  0
   -0.2724    3.2715    2.0119 C   0  0  0  0  0  0  0  0  0  0  0  0
   -1.3249    3.4549    2.2426 H   0  0  0  0  0  0  0  0  0  0  0  0
    0.3167    3.3776    2.9239 H   0  0  0  0  0  0  0  0  0  0  0  0
    0.0609    4.0073    1.2782 H   0  0  0  0  0  0  0  0  0  0  0  0
  5  6  2  0  0  0  0
  5  7  1  0  0  0  0
  2  3  1  0  0  0  0
  2  4  1  0  0  0  0
  2  5  1  0  0  0  0
  1  2  1  0  0  0  0
 22 23  2  0  0  0  0
 22 24  1  0  0  0  0
 20 21  1  0  0  0  0
 18 19  1  0  0  0  0
 18 20  1  0  0  0  0
 16 17  1  0  0  0  0
 16 18  1  0  0  0  0
 15 16  2  0  0  0  0
 14 15  1  0  0  0  0
 14 20  2  0  0  0  0
 11 12  1  0  0  0  0
 11 13  1  0  0  0  0
 11 14  1  0  0  0  0
  9 10  1  0  0  0  0
  9 11  1  0  0  0  0
  9 22  1  0  0  0  0
  7  8  1  0  0  0  0
  7  9  1  0  0  0  0
 26 27  1  0  0  0  0
 26 28  1  0  0  0  0
 26 29  1  0  0  0  0
 24 25  1  0  0  0  0
 24 26  1  0  0  0  0
M  END
$$$$
default_name
  -OEChem-02102213163D

 29 29  0     1  0  0  0  0  0999 V2000
   -2.9561   -3.9186    1.3887 H   0  0  0  0  0  0  0  0  0  0  0  0
   -3.1191   -2.9346    0.9517 C   0  0  0  0  0  0  0  0  0  0  0  0
   -3.7811   -2.3546    1.5917 H   0  0  0  0  0  0  0  0  0  0  0  0
   -3.5591   -3.0406   -0.0383 H   0  0  0  0  0  0  0  0  0  0  0  0
   -1.7921   -2.2226    0.8327 C   0  0  0  0  0  0  0  0  0  0  0  0
   -0.7611   -2.7766    1.1927 O   0  0  0  0  0  0  0  0  0  0  0  0
   -1.8201   -0.9926    0.3247 N   0  0  0  0  0  0  0  0  0  0  0  0
   -2.7141   -0.5816    0.0927 H   0  0  0  0  0  0  0  0  0  0  0  0
   -0.6481   -0.1156    0.2017 C   0  0  1  0  0  0  0  0  0  0  0  0
    0.1344   -0.4988    0.8596 H   0  0  0  0  0  0  0  0  0  0  0  0
   -0.1211   -0.1520   -1.2460 C   0  0  0  0  0  0  0  0  0  0  0  0
   -0.7352   -0.8254   -1.8457 H   0  0  0  0  0  0  0  0  0  0  0  0
   -0.1937    0.8417   -1.6902 H   0  0  0  0  0  0  0  0  0  0  0  0
    1.3037   -0.6412   -1.3395 C   0  0  0  0  0  0  0  0  0  0  0  0
    2.1060   -1.0318   -0.2666 N   0  0  0  0  0  0  0  0  0  0  0  0
    3.2671   -1.4363   -0.8019 C   0  0  0  0  0  0  0  0  0  0  0  0
    4.1141   -1.7931   -0.2296 H   0  0  0  0  0  0  0  0  0  0  0  0
    3.2237   -1.3440   -2.1416 N   0  0  0  0  0  0  0  0  0  0  0  0
    3.9687   -1.6079   -2.7719 H   0  0  0  0  0  0  0  0  0  0  0  0
    1.9902   -0.8476   -2.5002 C   0  0  0  0  0  0  0  0  0  0  0  0
    1.6140   -0.6703   -3.4999 H   0  0  0  0  0  0  0  0  0  0  0  0
   -0.9851    1.3114    0.6698 C   0  0  0  0  0  0  0  0  0  0  0  0
   -2.0377    1.8431    0.3168 O   0  0  0  0  0  0  0  0  0  0  0  0
   -0.1052    1.9265    1.4663 N   0  0  0  0  0  0  0  0  0  0  0  0
    0.7810    1.4586    1.6201 H   0  0  0  0  0  0  0  0  0  0  0  0
   -0.2724    3.2715    2.0119 C   0  0  0  0  0  0  0  0  0  0  0  0
   -1.3249    3.4549    2.2426 H   0  0  0  0  0  0  0  0  0  0  0  0
    0.3167    3.3776    2.9239 H   0  0  0  0  0  0  0  0  0  0  0  0
    0.0609    4.0073    1.2782 H   0  0  0  0  0  0  0  0  0  0  0  0
  5  6  2  0  0  0  0
  5  7  1  0  0  0  0
  2  3  1  0  0  0  0
  2  4  1  0  0  0  0
  2  5  1  0  0  0  0
  1  2  1  0  0  0  0
 22 23  2  0  0  0  0
 22 24  1  0  0  0  0
 20 21  1  0  0  0  0
 18 19  1  0  0  0  0
 18 20  1  0  0  0  0
 16 17  1  0  0  0  0
 16 18  1  0  0  0  0
 15 16  2  0  0  0  0
 14 15  1  0  0  0  0
 14 20  2  0  0  0  0
 11 12  1  0  0  0  0
 11 13  1  0  0  0  0
 11 14  1  0  0  0  0
  9 10  1  0  0  0  0
  9 11  1  0  0  0  0
  9 22  1  0  0  0  0
  7  8  1  0  0  0  0
  7  9  1  0  0  0  0
 26 27  1  0  0  0  0
 26 28  1  0  0  0  0
 26 29  1  0  0  0  0
 24 25  1  0  0  0  0
 24 26  1  0  0  0  0
M  END
$$$$
default_name
  -OEChem-02102213163D

 29 29  0     1  0  0  0  0  0999 V2000
   -2.9561   -3.9186    1.3887 H   0  0  0  0  0  0  0  0  0  0  0  0
   -3.1191   -2.9346    0.9517 C   0  0  0  0  0  0  0  0  0  0  0  0
   -3.7811   -2.3546    1.5917 H   0  0  0  0  0  0  0  0  0  0  0  0
   -3.5591   -3.0406   -0.0383 H   0  0  0  0  0  0  0  0  0  0  0  0
   -1.7921   -2.2226    0.8327 C   0  0  0  0  0  0  0  0  0  0  0  0
   -0.7611   -2.7766    1.1927 O   0  0  0  0  0  0  0  0  0  0  0  0
   -1.8201   -0.9926    0.3247 N   0  0  0  0  0  0  0  0  0  0  0  0
   -2.7141   -0.5816    0.0927 H   0  0  0  0  0  0  0  0  0  0  0  0
   -0.6481   -0.1156    0.2017 C   0  0  1  0  0  0  0  0  0  0  0  0
    0.1344   -0.4988    0.8596 H   0  0  0  0  0  0  0  0  0  0  0  0
   -0.1211   -0.1520   -1.2460 C   0  0  0  0  0  0  0  0  0  0  0  0
   -0.7352   -0.8254   -1.8457 H   0  0  0  0  0  0  0  0  0  0  0  0
   -0.1937    0.8417   -1.6902 H   0  0  0  0  0  0  0  0  0  0  0  0
    1.3037   -0.6412   -1.3395 C   0  0  0  0  0  0  0  0  0  0  0  0
    2.0087   -1.3025   -0.3330 N   0  0  0  0  0  0  0  0  0  0  0  0
    3.2092   -1.5950   -0.8541 C   0  0  0  0  0  0  0  0  0  0  0  0
    4.0019   -2.1028   -0.3193 H   0  0  0  0  0  0  0  0  0  0  0  0
    3.2816   -1.1779   -2.1293 N   0  0  0  0  0  0  0  0  0  0  0  0
    4.0764   -1.3000   -2.7419 H   0  0  0  0  0  0  0  0  0  0  0  0
    2.0862   -0.5767   -2.4552 C   0  0  0  0  0  0  0  0  0  0  0  0
    1.7983   -0.1512   -3.4083 H   0  0  0  0  0  0  0  0  0  0  0  0
   -0.9851    1.3114    0.6698 C   0  0  0  0  0  0  0  0  0  0  0  0
   -2.0377    1.8431    0.3168 O   0  0  0  0  0  0  0  0  0  0  0  0
   -0.1052    1.9265    1.4663 N   0  0  0  0  0  0  0  0  0  0  0  0
    0.7810    1.4586    1.6201 H   0  0  0  0  0  0  0  0  0  0  0  0
   -0.2724    3.2715    2.0119 C   0  0  0  0  0  0  0  0  0  0  0  0
   -1.3249    3.4549    2.2426 H   0  0  0  0  0  0  0  0  0  0  0  0
    0.3167    3.3776    2.9239 H   0  0  0  0  0  0  0  0  0  0  0  0
    0.0609    4.0073    1.2782 H   0  0  0  0  0  0  0  0  0  0  0  0
  5  6  2  0  0  0  0
  5  7  1  0  0  0  0
  2  3  1  0  0  0  0
  2  4  1  0  0  0  0
  2  5  1  0  0  0  0
  1  2  1  0  0  0  0
 22 23  2  0  0  0  0
 22 24  1  0  0  0  0
 20 21  1  0  0  0  0
 18 19  1  0  0  0  0
 18 20  1  0  0  0  0
 16 17  1  0  0  0  0
 16 18  1  0  0  0  0
 15 16  2  0  0  0  0
 14 15  1  0  0  0  0
 14 20  2  0  0  0  0
 11 12  1  0  0  0  0
 11 13  1  0  0  0  0
 11 14  1  0  0  0  0
  9 10  1  0  0  0  0
  9 11  1  0  0  0  0
  9 22  1  0  0  0  0
  7  8  1  0  0  0  0
  7  9  1  0  0  0  0
 26 27  1  0  0  0  0
 26 28  1  0  0  0  0
 26 29  1  0  0  0  0
 24 25  1  0  0  0  0
 24 26  1  0  0  0  0
M  END
$$$$
default_name
  -OEChem-02102213163D

 29 29  0     1  0  0  0  0  0999 V2000
   -2.9561   -3.9186    1.3887 H   0  0  0  0  0  0  0  0  0  0  0  0
   -3.1191   -2.9346    0.9517 C   0  0  0  0  0  0  0  0  0  0  0  0
   -3.7811   -2.3546    1.5917 H   0  0  0  0  0  0  0  0  0  0  0  0
   -3.5591   -3.0406   -0.0383 H   0  0  0  0  0  0  0  0  0  0  0  0
   -1.7921   -2.2226    0.8327 C   0  0  0  0  0  0  0  0  0  0  0  0
   -0.7611   -2.7766    1.1927 O   0  0  0  0  0  0  0  0  0  0  0  0
   -1.8201   -0.9926    0.3247 N   0  0  0  0  0  0  0  0  0  0  0  0
   -2.7141   -0.5816    0.0927 H   0  0  0  0  0  0  0  0  0  0  0  0
   -0.6481   -0.1156    0.2017 C   0  0  1  0  0  0  0  0  0  0  0  0
    0.1344   -0.4988    0.8596 H   0  0  0  0  0  0  0  0  0  0  0  0
   -0.1211   -0.1520   -1.2460 C   0  0  0  0  0  0  0  0  0  0  0  0
   -0.7352   -0.8254   -1.8457 H   0  0  0  0  0  0  0  0  0  0  0  0
   -0.1937    0.8417   -1.6902 H   0  0  0  0  0  0  0  0  0  0  0  0
    1.3037   -0.6412   -1.3395 C   0  0  0  0  0  0  0  0  0  0  0  0
    1.9159   -1.5462   -0.4715 N   0  0  0  0  0  0  0  0  0  0  0  0
    3.1551   -1.7346   -0.9482 C   0  0  0  0  0  0  0  0  0  0  0  0
    3.8961   -2.3782   -0.4911 H   0  0  0  0  0  0  0  0  0  0  0  0
    3.3390   -1.0215   -2.0721 N   0  0  0  0  0  0  0  0  0  0  0  0
    4.1828   -1.0116   -2.6286 H   0  0  0  0  0  0  0  0  0  0  0  0
    2.1795   -0.3275   -2.3374 C   0  0  0  0  0  0  0  0  0  0  0  0
    1.9768    0.3248   -3.1775 H   0  0  0  0  0  0  0  0  0  0  0  0
   -0.9851    1.3114    0.6698 C   0  0  0  0  0  0  0  0  0  0  0  0
   -2.0377    1.8431    0.3168 O   0  0  0  0  0  0  0  0  0  0  0  0
   -0.1052    1.9265    1.4663 N   0  0  0  0  0  0  0  0  0  0  0  0
    0.7810    1.4586    1.6201 H   0  0  0  0  0  0  0  0  0  0  0  0
   -0.2724    3.2715    2.0119 C   0  0  0  0  0  0  0  0  0  0  0  0
   -1.3249    3.4549    2.2426 H   0  0  0  0  0  0  0  0  0  0  0  0
    0.3167    3.3776    2.9239 H   0  0  0  0  0  0  0  0  0  0  0  0
    0.0609    4.0073    1.2782 H   0  0  0  0  0  0  0  0  0  0  0  0
  5  6  2  0  0  0  0
  5  7  1  0  0  0  0
  2  3  1  0  0  0  0
  2  4  1  0  0  0  0
  2  5  1  0  0  0  0
  1  2  1  0  0  0  0
 22 23  2  0  0  0  0
 22 24  1  0  0  0  0
 20 21  1  0  0  0  0
 18 19  1  0  0  0  0
 18 20  1  0  0  0  0
 16 17  1  0  0  0  0
 16 18  1  0  0  0  0
 15 16  2  0  0  0  0
 14 15  1  0  0  0  0
 14 20  2  0  0  0  0
 11 12  1  0  0  0  0
 11 13  1  0  0  0  0
 11 14  1  0  0  0  0
  9 10  1  0  0  0  0
  9 11  1  0  0  0  0
  9 22  1  0  0  0  0
  7  8  1  0  0  0  0
  7  9  1  0  0  0  0
 26 27  1  0  0  0  0
 26 28  1  0  0  0  0
 26 29  1  0  0  0  0
 24 25  1  0  0  0  0
 24 26  1  0  0  0  0
M  END
$$$$
default_name
  -OEChem-02102213163D

 29 29  0     1  0  0  0  0  0999 V2000
   -2.9561   -3.9186    1.3887 H   0  0  0  0  0  0  0  0  0  0  0  0
   -3.1191   -2.9346    0.9517 C   0  0  0  0  0  0  0  0  0  0  0  0
   -3.7811   -2.3546    1.5917 H   0  0  0  0  0  0  0  0  0  0  0  0
   -3.5591   -3.0406   -0.0383 H   0  0  0  0  0  0  0  0  0  0  0  0
   -1.7921   -2.2226    0.8327 C   0  0  0  0  0  0  0  0  0  0  0  0
   -0.7611   -2.7766    1.1927 O   0  0  0  0  0  0  0  0  0  0  0  0
   -1.8201   -0.9926    0.3247 N   0  0  0  0  0  0  0  0  0  0  0  0
   -2.7141   -0.5816    0.0927 H   0  0  0  0  0  0  0  0  0  0  0  0
   -0.6481   -0.1156    0.2017 C   0  0  1  0  0  0  0  0  0  0  0  0
    0.1344   -0.4988    0.8596 H   0  0  0  0  0  0  0  0  0  0  0  0
   -0.1211   -0.1520   -1.2460 C   0  0  0  0  0  0  0  0  0  0  0  0
   -0.7352   -0.8254   -1.8457 H   0  0  0  0  0  0  0  0  0  0  0  0
   -0.1937    0.8417   -1.6902 H   0  0  0  0  0  0  0  0  0  0  0  0
    1.3037   -0.6412   -1.3395 C   0  0  0  0  0  0  0  0  0  0  0  0
    1.8340   -1.7463   -0.6726 N   0  0  0  0  0  0  0  0  0  0  0  0
    3.1085   -1.8456   -1.0778 C   0  0  0  0  0  0  0  0  0  0  0  0
    3.8039   -2.6005   -0.7331 H   0  0  0  0  0  0  0  0  0  0  0  0
    3.3923   -0.8853   -1.9737 N   0  0  0  0  0  0  0  0  0  0  0  0
    4.2808   -0.7624   -2.4398 H   0  0  0  0  0  0  0  0  0  0  0  0
    2.2637   -0.1171   -2.1550 C   0  0  0  0  0  0  0  0  0  0  0  0
    2.1376    0.7253   -2.8234 H   0  0  0  0  0  0  0  0  0  0  0  0
   -0.9851    1.3114    0.6698 C   0  0  0  0  0  0  0  0  0  0  0  0
   -2.0377    1.8431    0.3168 O   0  0  0  0  0  0  0  0  0  0  0  0
   -0.1052    1.9265    1.4663 N   0  0  0  0  0  0  0  0  0  0  0  0
    0.7810    1.4586    1.6201 H   0  0  0  0  0  0  0  0  0  0  0  0
   -0.2724    3.2715    2.0119 C   0  0  0  0  0  0  0  0  0  0  0  0
   -1.3249    3.4549    2.2426 H   0  0  0  0  0  0  0  0  0  0  0  0
    0.3167    3.3776    2.9239 H   0  0  0  0  0  0  0  0  0  0  0  0
    0.0609    4.0073    1.2782 H   0  0  0  0  0  0  0  0  0  0  0  0
  5  6  2  0  0  0  0
  5  7  1  0  0  0  0
  2  3  1  0  0  0  0
  2  4  1  0  0  0  0
  2  5  1  0  0  0  0
  1  2  1  0  0  0  0
 22 23  2  0  0  0  0
 22 24  1  0  0  0  0
 20 21  1  0  0  0  0
 18 19  1  0  0  0  0
 18 20  1  0  0  0  0
 16 17  1  0  0  0  0
 16 18  1  0  0  0  0
 15 16  2  0  0  0  0
 14 15  1  0  0  0  0
 14 20  2  0  0  0  0
 11 12  1  0  0  0  0
 11 13  1  0  0  0  0
 11 14  1  0  0  0  0
  9 10  1  0  0  0  0
  9 11  1  0  0  0  0
  9 22  1  0  0  0  0
  7  8  1  0  0  0  0
  7  9  1  0  0  0  0
 26 27  1  0  0  0  0
 26 28  1  0  0  0  0
 26 29  1  0  0  0  0
 24 25  1  0  0  0  0
 24 26  1  0  0  0  0
M  END
$$$$
default_name
  -OEChem-02102213163D

 29 29  0     1  0  0  0  0  0999 V2000
   -2.9561   -3.9186    1.3887 H   0  0  0  0  0  0  0  0  0  0  0  0
   -3.1191   -2.9346    0.9517 C   0  0  0  0  0  0  0  0  0  0  0  0
   -3.7811   -2.3546    1.5917 H   0  0  0  0  0  0  0  0  0  0  0  0
   -3.5591   -3.0406   -0.0383 H   0  0  0  0  0  0  0  0  0  0  0  0
   -1.7921   -2.2226    0.8327 C   0  0  0  0  0  0  0  0  0  0  0  0
   -0.7611   -2.7766    1.1927 O   0  0  0  0  0  0  0  0  0  0  0  0
   -1.8201   -0.9926    0.3247 N   0  0  0  0  0  0  0  0  0  0  0  0
   -2.7141   -0.5816    0.0927 H   0  0  0  0  0  0  0  0  0  0  0  0
   -0.6481   -0.1156    0.2017 C   0  0  1  0  0  0  0  0  0  0  0  0
    0.1344   -0.4988    0.8596 H   0  0  0  0  0  0  0  0  0  0  0  0
   -0.1211   -0.1520   -1.2460 C   0  0  0  0  0  0  0  0  0  0  0  0
   -0.7352   -0.8254   -1.8457 H   0  0  0  0  0  0  0  0  0  0  0  0
   -0.1937    0.8417   -1.6902 H   0  0  0  0  0  0  0  0  0  0  0  0
    1.3037   -0.6412   -1.3395 C   0  0  0  0  0  0  0  0  0  0  0  0
    1.7686   -1.8891   -0.9225 N   0  0  0  0  0  0  0  0  0  0  0  0
    3.0726   -1.9204   -1.2339 C   0  0  0  0  0  0  0  0  0  0  0  0
    3.7315   -2.7547   -1.0290 H   0  0  0  0  0  0  0  0  0  0  0  0
    3.4376   -0.7786   -1.8409 N   0  0  0  0  0  0  0  0  0  0  0  0
    4.3636   -0.5694   -2.1884 H   0  0  0  0  0  0  0  0  0  0  0  0
    2.3331    0.0402   -1.9203 C   0  0  0  0  0  0  0  0  0  0  0  0
    2.2696    1.0231   -2.3699 H   0  0  0  0  0  0  0  0  0  0  0  0
   -0.9851    1.3114    0.6698 C   0  0  0  0  0  0  0  0  0  0  0  0
   -2.0377    1.8431    0.3168 O   0  0  0  0  0  0  0  0  0  0  0  0
   -0.1052    1.9265    1.4663 N   0  0  0  0  0  0  0  0  0  0  0  0
    0.7810    1.4586    1.6201 H   0  0  0  0  0  0  0  0  0  0  0  0
   -0.2724    3.2715    2.0119 C   0  0  0  0  0  0  0  0  0  0  0  0
   -1.3249    3.4549    2.2426 H   0  0  0  0  0  0  0  0  0  0  0  0
    0.3167    3.3776    2.9239 H   0  0  0  0  0  0  0  0  0  0  0  0
    0.0609    4.0073    1.2782 H   0  0  0  0  0  0  0  0  0  0  0  0
  5  6  2  0  0  0  0
  5  7  1  0  0  0  0
  2  3  1  0  0  0  0
  2  4  1  0  0  0  0
  2  5  1  0  0  0  0
  1  2  1  0  0  0  0
 22 23  2  0  0  0  0
 22 24  1  0  0  0  0
 20 21  1  0  0  0  0
 18 19  1  0  0  0  0
 18 20  1  0  0  0  0
 16 17  1  0  0  0  0
 16 18  1  0  0  0  0
 15 16  2  0  0  0  0
 14 15  1  0  0  0  0
 14 20  2  0  0  0  0
 11 12  1  0  0  0  0
 11 13  1  0  0  0  0
 11 14  1  0  0  0  0
  9 10  1  0  0  0  0
  9 11  1  0  0  0  0
  9 22  1  0  0  0  0
  7  8  1  0  0  0  0
  7  9  1  0  0  0  0
 26 27  1  0  0  0  0
 26 28  1  0  0  0  0
 26 29  1  0  0  0  0
 24 25  1  0  0  0  0
 24 26  1  0  0  0  0
M  END
$$$$
default_name
  -OEChem-02102213163D

 29 29  0     1  0  0  0  0  0999 V2000
   -2.9561   -3.9186    1.3887 H   0  0  0  0  0  0  0  0  0  0  0  0
   -3.1191   -2.9346    0.9517 C   0  0  0  0  0  0  0  0  0  0  0  0
   -3.7811   -2.3546    1.5917 H   0  0  0  0  0  0  0  0  0  0  0  0
   -3.5591   -3.0406   -0.0383 H   0  0  0  0  0  0  0  0  0  0  0  0
   -1.7921   -2.2226    0.8327 C   0  0  0  0  0  0  0  0  0  0  0  0
   -0.7611   -2.7766    1.1927 O   0  0  0  0  0  0  0  0  0  0  0  0
   -1.8201   -0.9926    0.3247 N   0  0  0  0  0  0  0  0  0  0  0  0
   -2.7141   -0.5816    0.0927 H   0  0  0  0  0  0  0  0  0  0  0  0
   -0.6481   -0.1156    0.2017 C   0  0  1  0  0  0  0  0  0  0  0  0
    0.1344   -0.4988    0.8596 H   0  0  0  0  0  0  0  0  0  0  0  0
   -0.1211   -0.1520   -1.2460 C   0  0  0  0  0  0  0  0  0  0  0  0
   -0.7352   -0.8254   -1.8457 H   0  0  0  0  0  0  0  0  0  0  0  0
   -0.1937    0.8417   -1.6902 H   0  0  0  0  0  0  0  0  0  0  0  0
    1.3037   -0.6412   -1.3395 C   0  0  0  0  0  0  0  0  0  0  0  0
    1.7240   -1.9650   -1.2044 N   0  0  0  0  0  0  0  0  0  0  0  0
    3.0498   -1.9539   -1.4061 C   0  0  0  0  0  0  0  0  0  0  0  0
    3.6840   -2.8301   -1.3585 H   0  0  0  0  0  0  0  0  0  0  0  0
    3.4720   -0.7087   -1.6828 N   0  0  0  0  0  0  0  0  0  0  0  0
    4.4255   -0.4458   -1.8914 H   0  0  0  0  0  0  0  0  0  0  0  0
    2.3830    0.1336   -1.6493 C   0  0  0  0  0  0  0  0  0  0  0  0
    2.3639    1.1978   -1.8481 H   0  0  0  0  0  0  0  0  0  0  0  0
   -0.9851    1.3114    0.6698 C   0  0  0  0  0  0  0  0  0  0  0  0
   -2.0377    1.8431    0.3168 O   0  0  0  0  0  0  0  0  0  0  0  0
   -0.1052    1.9265    1.4663 N   0  0  0  0  0  0  0  0  0  0  0  0
    0.7810    1.4586    1.6201 H   0  0  0  0  0  0  0  0  0  0  0  0
   -0.2724    3.2715    2.0119 C   0  0  0  0  0  0  0  0  0  0  0  0
   -1.3249    3.4549    2.2426 H   0  0  0  0  0  0  0  0  0  0  0  0
    0.3167    3.3776    2.9239 H   0  0  0  0  0  0  0  0  0  0  0  0
    0.0609    4.0073    1.2782 H   0  0  0  0  0  0  0  0  0  0  0  0
  5  6  2  0  0  0  0
  5  7  1  0  0  0  0
  2  3  1  0  0  0  0
  2  4  1  0  0  0  0
  2  5  1  0  0  0  0
  1  2  1  0  0  0  0
 22 23  2  0  0  0  0
 22 24  1  0  0  0  0
 20 21  1  0  0  0  0
 18 19  1  0  0  0  0
 18 20  1  0  0  0  0
 16 17  1  0  0  0  0
 16 18  1  0  0  0  0
 15 16  2  0  0  0  0
 14 15  1  0  0  0  0
 14 20  2  0  0  0  0
 11 12  1  0  0  0  0
 11 13  1  0  0  0  0
 11 14  1  0  0  0  0
  9 10  1  0  0  0  0
  9 11  1  0  0  0  0
  9 22  1  0  0  0  0
  7  8  1  0  0  0  0
  7  9  1  0  0  0  0
 26 27  1  0  0  0  0
 26 28  1  0  0  0  0
 26 29  1  0  0  0  0
 24 25  1  0  0  0  0
 24 26  1  0  0  0  0
M  END
$$$$
default_name
  -OEChem-02102213163D

 29 29  0     1  0  0  0  0  0999 V2000
   -2.9561   -3.9186    1.3887 H   0  0  0  0  0  0  0  0  0  0  0  0
   -3.1191   -2.9346    0.9517 C   0  0  0  0  0  0  0  0  0  0  0  0
   -3.7811   -2.3546    1.5917 H   0  0  0  0  0  0  0  0  0  0  0  0
   -3.5591   -3.0406   -0.0383 H   0  0  0  0  0  0  0  0  0  0  0  0
   -1.7921   -2.2226    0.8327 C   0  0  0  0  0  0  0  0  0  0  0  0
   -0.7611   -2.7766    1.1927 O   0  0  0  0  0  0  0  0  0  0  0  0
   -1.8201   -0.9926    0.3247 N   0  0  0  0  0  0  0  0  0  0  0  0
   -2.7141   -0.5816    0.0927 H   0  0  0  0  0  0  0  0  0  0  0  0
   -0.6481   -0.1156    0.2017 C   0  0  1  0  0  0  0  0  0  0  0  0
    0.1344   -0.4988    0.8596 H   0  0  0  0  0  0  0  0  0  0  0  0
   -0.1211   -0.1520   -1.2460 C   0  0  0  0  0  0  0  0  0  0  0  0
   -0.7352   -0.8254   -1.8457 H   0  0  0  0  0  0  0  0  0  0  0  0
   -0.1937    0.8417   -1.6902 H   0  0  0  0  0  0  0  0  0  0  0  0
    1.3037   -0.6412   -1.3395 C   0  0  0  0  0  0  0  0  0  0  0  0
    1.7035   -1.9686   -1.4989 N   0  0  0  0  0  0  0  0  0  0  0  0
    3.0416   -1.9438   -1.5824 C   0  0  0  0  0  0  0  0  0  0  0  0
    3.6645   -2.8217   -1.6992 H   0  0  0  0  0  0  0  0  0  0  0  0
    3.4930   -0.6804   -1.5101 N   0  0  0  0  0  0  0  0  0  0  0  0
    4.4624   -0.3999   -1.5691 H   0  0  0  0  0  0  0  0  0  0  0  0
    2.4100    0.1569   -1.3606 C   0  0  0  0  0  0  0  0  0  0  0  0
    2.4140    1.2376   -1.2934 H   0  0  0  0  0  0  0  0  0  0  0  0
   -0.9851    1.3114    0.6698 C   0  0  0  0  0  0  0  0  0  0  0  0
   -2.0377    1.8431    0.3168 O   0  0  0  0  0  0  0  0  0  0  0  0
   -0.1052    1.9265    1.4663 N   0  0  0  0  0  0  0  0  0  0  0  0
    0.7810    1.4586    1.6201 H   0  0  0  0  0  0  0  0  0  0  0  0
   -0.2724    3.2715    2.0119 C   0  0  0  0  0  0  0  0  0  0  0  0
   -1.3249    3.4549    2.2426 H   0  0  0  0  0  0  0  0  0  0  0  0
    0.3167    3.3776    2.9239 H   0  0  0  0  0  0  0  0  0  0  0  0
    0.0609    4.0073    1.2782 H   0  0  0  0  0  0  0  0  0  0  0  0
  5  6  2  0  0  0  0
  5  7  1  0  0  0  0
  2  3  1  0  0  0  0
  2  4  1  0  0  0  0
  2  5  1  0  0  0  0
  1  2  1  0  0  0  0
 22 23  2  0  0  0  0
 22 24  1  0  0  0  0
 20 21  1  0  0  0  0
 18 19  1  0  0  0  0
 18 20  1  0  0  0  0
 16 17  1  0  0  0  0
 16 18  1  0  0  0  0
 15 16  2  0  0  0  0
 14 15  1  0  0  0  0
 14 20  2  0  0  0  0
 11 12  1  0  0  0  0
 11 13  1  0  0  0  0
 11 14  1  0  0  0  0
  9 10  1  0  0  0  0
  9 11  1  0  0  0  0
  9 22  1  0  0  0  0
  7  8  1  0  0  0  0
  7  9  1  0  0  0  0
 26 27  1  0  0  0  0
 26 28  1  0  0  0  0
 26 29  1  0  0  0  0
 24 25  1  0  0  0  0
 24 26  1  0  0  0  0
M  END
$$$$
default_name
  -OEChem-02102213163D

 29 29  0     1  0  0  0  0  0999 V2000
   -2.9561   -3.9186    1.3887 H   0  0  0  0  0  0  0  0  0  0  0  0
   -3.1191   -2.9346    0.9517 C   0  0  0  0  0  0  0  0  0  0  0  0
   -3.7811   -2.3546    1.5917 H   0  0  0  0  0  0  0  0  0  0  0  0
   -3.5591   -3.0406   -0.0383 H   0  0  0  0  0  0  0  0  0  0  0  0
   -1.7921   -2.2226    0.8327 C   0  0  0  0  0  0  0  0  0  0  0  0
   -0.7611   -2.7766    1.1927 O   0  0  0  0  0  0  0  0  0  0  0  0
   -1.8201   -0.9926    0.3247 N   0  0  0  0  0  0  0  0  0  0  0  0
   -2.7141   -0.5816    0.0927 H   0  0  0  0  0  0  0  0  0  0  0  0
   -0.6481   -0.1156    0.2017 C   0  0  1  0  0  0  0  0  0  0  0  0
    0.1344   -0.4988    0.8596 H   0  0  0  0  0  0  0  0  0  0  0  0
   -0.1211   -0.1520   -1.2460 C   0  0  0  0  0  0  0  0  0  0  0  0
   -0.7352   -0.8254   -1.8457 H   0  0  0  0  0  0  0  0  0  0  0  0
   -0.1937    0.8417   -1.6902 H   0  0  0  0  0  0  0  0  0  0  0  0
    1.3037   -0.6412   -1.3395 C   0  0  0  0  0  0  0  0  0  0  0  0
    1.7082   -1.8999   -1.7860 N   0  0  0  0  0  0  0  0  0  0  0  0
    3.0487   -1.8909   -1.7510 C   0  0  0  0  0  0  0  0  0  0  0  0
    3.6744   -2.7301   -2.0279 H   0  0  0  0  0  0  0  0  0  0  0  0
    3.4994   -0.6956   -1.3346 N   0  0  0  0  0  0  0  0  0  0  0  0
    4.4718   -0.4349   -1.2435 H   0  0  0  0  0  0  0  0  0  0  0  0
    2.4121    0.1085   -1.0737 C   0  0  0  0  0  0  0  0  0  0  0  0
    2.4164    1.1397   -0.7437 H   0  0  0  0  0  0  0  0  0  0  0  0
   -0.9851    1.3114    0.6698 C   0  0  0  0  0  0  0  0  0  0  0  0
   -2.0377    1.8431    0.3168 O   0  0  0  0  0  0  0  0  0  0  0  0
   -0.1052    1.9265    1.4663 N   0  0  0  0  0  0  0  0  0  0  0  0
    0.7810    1.4586    1.6201 H   0  0  0  0  0  0  0  0  0  0  0  0
   -0.2724    3.2715    2.0119 C   0  0  0  0  0  0  0  0  0  0  0  0
   -1.3249    3.4549    2.2426 H   0  0  0  0  0  0  0  0  0  0  0  0
    0.3167    3.3776    2.9239 H   0  0  0  0  0  0  0  0  0  0  0  0
    0.0609    4.0073    1.2782 H   0  0  0  0  0  0  0  0  0  0  0  0
  5  6  2  0  0  0  0
  5  7  1  0  0  0  0
  2  3  1  0  0  0  0
  2  4  1  0  0  0  0
  2  5  1  0  0  0  0
  1  2  1  0  0  0  0
 22 23  2  0  0  0  0
 22 24  1  0  0  0  0
 20 21  1  0  0  0  0
 18 19  1  0  0  0  0
 18 20  1  0  0  0  0
 16 17  1  0  0  0  0
 16 18  1  0  0  0  0
 15 16  2  0  0  0  0
 14 15  1  0  0  0  0
 14 20  2  0  0  0  0
 11 12  1  0  0  0  0
 11 13  1  0  0  0  0
 11 14  1  0  0  0  0
  9 10  1  0  0  0  0
  9 11  1  0  0  0  0
  9 22  1  0  0  0  0
  7  8  1  0  0  0  0
  7  9  1  0  0  0  0
 26 27  1  0  0  0  0
 26 28  1  0  0  0  0
 26 29  1  0  0  0  0
 24 25  1  0  0  0  0
 24 26  1  0  0  0  0
M  END
$$$$
default_name
  -OEChem-02102213163D

 29 29  0     1  0  0  0  0  0999 V2000
   -2.9561   -3.9186    1.3887 H   0  0  0  0  0  0  0  0  0  0  0  0
   -3.1191   -2.9346    0.9517 C   0  0  0  0  0  0  0  0  0  0  0  0
   -3.7811   -2.3546    1.5917 H   0  0  0  0  0  0  0  0  0  0  0  0
   -3.5591   -3.0406   -0.0383 H   0  0  0  0  0  0  0  0  0  0  0  0
   -1.7921   -2.2226    0.8327 C   0  0  0  0  0  0  0  0  0  0  0  0
   -0.7611   -2.7766    1.1927 O   0  0  0  0  0  0  0  0  0  0  0  0
   -1.8201   -0.9926    0.3247 N   0  0  0  0  0  0  0  0  0  0  0  0
   -2.7141   -0.5816    0.0927 H   0  0  0  0  0  0  0  0  0  0  0  0
   -0.6481   -0.1156    0.2017 C   0  0  1  0  0  0  0  0  0  0  0  0
    0.1344   -0.4988    0.8596 H   0  0  0  0  0  0  0  0  0  0  0  0
   -0.1211   -0.1520   -1.2460 C   0  0  0  0  0  0  0  0  0  0  0  0
   -0.7352   -0.8254   -1.8457 H   0  0  0  0  0  0  0  0  0  0  0  0
   -0.1937    0.8417   -1.6902 H   0  0  0  0  0  0  0  0  0  0  0  0
    1.3037   -0.6412   -1.3395 C   0  0  0  0  0  0  0  0  0  0  0  0
    1.7380   -1.7635   -2.0461 N   0  0  0  0  0  0  0  0  0  0  0  0
    3.0706   -1.7987   -1.9003 C   0  0  0  0  0  0  0  0  0  0  0  0
    3.7130   -2.5614   -2.3222 H   0  0  0  0  0  0  0  0  0  0  0  0
    3.4905   -0.7532   -1.1683 N   0  0  0  0  0  0  0  0  0  0  0  0
    4.4529   -0.5484   -0.9368 H   0  0  0  0  0  0  0  0  0  0  0  0
    2.3894   -0.0085   -0.8083 C   0  0  0  0  0  0  0  0  0  0  0  0
    2.3711    0.9108   -0.2365 H   0  0  0  0  0  0  0  0  0  0  0  0
   -0.9851    1.3114    0.6698 C   0  0  0  0  0  0  0  0  0  0  0  0
   -2.0377    1.8431    0.3168 O   0  0  0  0  0  0  0  0  0  0  0  0
   -0.1052    1.9265    1.4663 N   0  0  0  0  0  0  0  0  0  0  0  0
    0.7810    1.4586    1.6201 H   0  0  0  0  0  0  0  0  0  0  0  0
   -0.2724    3.2715    2.0119 C   0  0  0  0  0  0  0  0  0  0  0  0
   -1.3249    3.4549    2.2426 H   0  0  0  0  0  0  0  0  0  0  0  0
    0.3167    3.3776    2.9239 H   0  0  0  0  0  0  0  0  0  0  0  0
    0.0609    4.0073    1.2782 H   0  0  0  0  0  0  0  0  0  0  0  0
  5  6  2  0  0  0  0
  5  7  1  0  0  0  0
  2  3  1  0  0  0  0
  2  4  1  0  0  0  0
  2  5  1  0  0  0  0
  1  2  1  0  0  0  0
 22 23  2  0  0  0  0
 22 24  1  0  0  0  0
 20 21  1  0  0  0  0
 18 19  1  0  0  0  0
 18 20  1  0  0  0  0
 16 17  1  0  0  0  0
 16 18  1  0  0  0  0
 15 16  2  0  0  0  0
 14 15  1  0  0  0  0
 14 20  2  0  0  0  0
 11 12  1  0  0  0  0
 11 13  1  0  0  0  0
 11 14  1  0  0  0  0
  9 10  1  0  0  0  0
  9 11  1  0  0  0  0
  9 22  1  0  0  0  0
  7  8  1  0  0  0  0
  7  9  1  0  0  0  0
 26 27  1  0  0  0  0
 26 28  1  0  0  0  0
 26 29  1  0  0  0  0
 24 25  1  0  0  0  0
 24 26  1  0  0  0  0
M  END
$$$$
default_name
  -OEChem-02102213163D

 29 29  0     1  0  0  0  0  0999 V2000
   -2.9561   -3.9186    1.3887 H   0  0  0  0  0  0  0  0  0  0  0  0
   -3.1191   -2.9346    0.9517 C   0  0  0  0  0  0  0  0  0  0  0  0
   -3.7811   -2.3546    1.5917 H   0  0  0  0  0  0  0  0  0  0  0  0
   -3.5591   -3.0406   -0.0383 H   0  0  0  0  0  0  0  0  0  0  0  0
   -1.7921   -2.2226    0.8327 C   0  0  0  0  0  0  0  0  0  0  0  0
   -0.7611   -2.7766    1.1927 O   0  0  0  0  0  0  0  0  0  0  0  0
   -1.8201   -0.9926    0.3247 N   0  0  0  0  0  0  0  0  0  0  0  0
   -2.7141   -0.5816    0.0927 H   0  0  0  0  0  0  0  0  0  0  0  0
   -0.6481   -0.1156    0.2017 C   0  0  1  0  0  0  0  0  0  0  0  0
    0.1344   -0.4988    0.8596 H   0  0  0  0  0  0  0  0  0  0  0  0
   -0.1211   -0.1520   -1.2460 C   0  0  0  0  0  0  0  0  0  0  0  0
   -0.7352   -0.8254   -1.8457 H   0  0  0  0  0  0  0  0  0  0  0  0
   -0.1937    0.8417   -1.6902 H   0  0  0  0  0  0  0  0  0  0  0  0
    1.3037   -0.6412   -1.3395 C   0  0  0  0  0  0  0  0  0  0  0  0
    1.7908   -1.5686   -2.2615 N   0  0  0  0  0  0  0  0  0  0  0  0
    3.1057   -1.6736   -2.0202 C   0  0  0  0  0  0  0  0  0  0  0  0
    3.7777   -2.3272   -2.5620 H   0  0  0  0  0  0  0  0  0  0  0  0
    3.4670   -0.8494   -1.0225 N   0  0  0  0  0  0  0  0  0  0  0  0
    4.4072   -0.7327   -0.6698 H   0  0  0  0  0  0  0  0  0  0  0  0
    2.3433   -0.1859   -0.5824 C   0  0  0  0  0  0  0  0  0  0  0  0
    2.2811    0.5665    0.1937 H   0  0  0  0  0  0  0  0  0  0  0  0
   -0.9851    1.3114    0.6698 C   0  0  0  0  0  0  0  0  0  0  0  0
   -2.0377    1.8431    0.3168 O   0  0  0  0  0  0  0  0  0  0  0  0
   -0.1052    1.9265    1.4663 N   0  0  0  0  0  0  0  0  0  0  0  0
    0.7810    1.4586    1.6201 H   0  0  0  0  0  0  0  0  0  0  0  0
   -0.2724    3.2715    2.0119 C   0  0  0  0  0  0  0  0  0  0  0  0
   -1.3249    3.4549    2.2426 H   0  0  0  0  0  0  0  0  0  0  0  0
    0.3167    3.3776    2.9239 H   0  0  0  0  0  0  0  0  0  0  0  0
    0.0609    4.0073    1.2782 H   0  0  0  0  0  0  0  0  0  0  0  0
  5  6  2  0  0  0  0
  5  7  1  0  0  0  0
  2  3  1  0  0  0  0
  2  4  1  0  0  0  0
  2  5  1  0  0  0  0
  1  2  1  0  0  0  0
 22 23  2  0  0  0  0
 22 24  1  0  0  0  0
 20 21  1  0  0  0  0
 18 19  1  0  0  0  0
 18 20  1  0  0  0  0
 16 17  1  0  0  0  0
 16 18  1  0  0  0  0
 15 16  2  0  0  0  0
 14 15  1  0  0  0  0
 14 20  2  0  0  0  0
 11 12  1  0  0  0  0
 11 13  1  0  0  0  0
 11 14  1  0  0  0  0
  9 10  1  0  0  0  0
  9 11  1  0  0  0  0
  9 22  1  0  0  0  0
  7  8  1  0  0  0  0
  7  9  1  0  0  0  0
 26 27  1  0  0  0  0
 26 28  1  0  0  0  0
 26 29  1  0  0  0  0
 24 25  1  0  0  0  0
 24 26  1  0  0  0  0
M  END
$$$$
default_name
  -OEChem-02102213163D

 29 29  0     1  0  0  0  0  0999 V2000
   -2.9561   -3.9186    1.3887 H   0  0  0  0  0  0  0  0  0  0  0  0
   -3.1191   -2.9346    0.9517 C   0  0  0  0  0  0  0  0  0  0  0  0
   -3.7811   -2.3546    1.5917 H   0  0  0  0  0  0  0  0  0  0  0  0
   -3.5591   -3.0406   -0.0383 H   0  0  0  0  0  0  0  0  0  0  0  0
   -1.7921   -2.2226    0.8327 C   0  0  0  0  0  0  0  0  0  0  0  0
   -0.7611   -2.7766    1.1927 O   0  0  0  0  0  0  0  0  0  0  0  0
   -1.8201   -0.9926    0.3247 N   0  0  0  0  0  0  0  0  0  0  0  0
   -2.7141   -0.5816    0.0927 H   0  0  0  0  0  0  0  0  0  0  0  0
   -0.6481   -0.1156    0.2017 C   0  0  1  0  0  0  0  0  0  0  0  0
    0.1344   -0.4988    0.8596 H   0  0  0  0  0  0  0  0  0  0  0  0
   -0.1211   -0.1520   -1.2460 C   0  0  0  0  0  0  0  0  0  0  0  0
   -0.7352   -0.8254   -1.8457 H   0  0  0  0  0  0  0  0  0  0  0  0
   -0.1937    0.8417   -1.6902 H   0  0  0  0  0  0  0  0  0  0  0  0
    1.3037   -0.6412   -1.3395 C   0  0  0  0  0  0  0  0  0  0  0  0
    1.8629   -1.3286   -2.4175 N   0  0  0  0  0  0  0  0  0  0  0  0
    3.1517   -1.5239   -2.1024 C   0  0  0  0  0  0  0  0  0  0  0  0
    3.8640   -2.0434   -2.7309 H   0  0  0  0  0  0  0  0  0  0  0  0
    3.4306   -0.9775   -0.9071 N   0  0  0  0  0  0  0  0  0  0  0  0
    4.3376   -0.9752   -0.4608 H   0  0  0  0  0  0  0  0  0  0  0  0
    2.2770   -0.4118   -0.4114 C   0  0  0  0  0  0  0  0  0  0  0  0
    2.1526    0.1302    0.5176 H   0  0  0  0  0  0  0  0  0  0  0  0
   -0.9851    1.3114    0.6698 C   0  0  0  0  0  0  0  0  0  0  0  0
   -2.0377    1.8431    0.3168 O   0  0  0  0  0  0  0  0  0  0  0  0
   -0.1052    1.9265    1.4663 N   0  0  0  0  0  0  0  0  0  0  0  0
    0.7810    1.4586    1.6201 H   0  0  0  0  0  0  0  0  0  0  0  0
   -0.2724    3.2715    2.0119 C   0  0  0  0  0  0  0  0  0  0  0  0
   -1.3249    3.4549    2.2426 H   0  0  0  0  0  0  0  0  0  0  0  0
    0.3167    3.3776    2.9239 H   0  0  0  0  0  0  0  0  0  0  0  0
    0.0609    4.0073    1.2782 H   0  0  0  0  0  0  0  0  0  0  0  0
  5  6  2  0  0  0  0
  5  7  1  0  0  0  0
  2  3  1  0  0  0  0
  2  4  1  0  0  0  0
  2  5  1  0  0  0  0
  1  2  1  0  0  0  0
 22 23  2  0  0  0  0
 22 24  1  0  0  0  0
 20 21  1  0  0  0  0
 18 19  1  0  0  0  0
 18 20  1  0  0  0  0
 16 17  1  0  0  0  0
 16 18  1  0  0  0  0
 15 16  2  0  0  0  0
 14 15  1  0  0  0  0
 14 20  2  0  0  0  0
 11 12  1  0  0  0  0
 11 13  1  0  0  0  0
 11 14  1  0  0  0  0
  9 10  1  0  0  0  0
  9 11  1  0  0  0  0
  9 22  1  0  0  0  0
  7  8  1  0  0  0  0
  7  9  1  0  0  0  0
 26 27  1  0  0  0  0
 26 28  1  0  0  0  0
 26 29  1  0  0  0  0
 24 25  1  0  0  0  0
 24 26  1  0  0  0  0
M  END
$$$$
default_name
  -OEChem-02102213163D

 29 29  0     1  0  0  0  0  0999 V2000
   -2.9561   -3.9186    1.3887 H   0  0  0  0  0  0  0  0  0  0  0  0
   -3.1191   -2.9346    0.9517 C   0  0  0  0  0  0  0  0  0  0  0  0
   -3.7811   -2.3546    1.5917 H   0  0  0  0  0  0  0  0  0  0  0  0
   -3.5591   -3.0406   -0.0383 H   0  0  0  0  0  0  0  0  0  0  0  0
   -1.7921   -2.2226    0.8327 C   0  0  0  0  0  0  0  0  0  0  0  0
   -0.7611   -2.7766    1.1927 O   0  0  0  0  0  0  0  0  0  0  0  0
   -1.8201   -0.9926    0.3247 N   0  0  0  0  0  0  0  0  0  0  0  0
   -2.7141   -0.5816    0.0927 H   0  0  0  0  0  0  0  0  0  0  0  0
   -0.6481   -0.1156    0.2017 C   0  0  1  0  0  0  0  0  0  0  0  0
    0.1344   -0.4988    0.8596 H   0  0  0  0  0  0  0  0  0  0  0  0
   -0.1211   -0.1520   -1.2460 C   0  0  0  0  0  0  0  0  0  0  0  0
   -0.7352   -0.8254   -1.8457 H   0  0  0  0  0  0  0  0  0  0  0  0
   -0.1937    0.8417   -1.6902 H   0  0  0  0  0  0  0  0  0  0  0  0
    1.3037   -0.6412   -1.3395 C   0  0  0  0  0  0  0  0  0  0  0  0
    1.9496   -1.0597   -2.5035 N   0  0  0  0  0  0  0  0  0  0  0  0
    3.2054   -1.3600   -2.1415 C   0  0  0  0  0  0  0  0  0  0  0  0
    3.9661   -1.7294   -2.8176 H   0  0  0  0  0  0  0  0  0  0  0  0
    3.3837   -1.1289   -0.8300 N   0  0  0  0  0  0  0  0  0  0  0  0
    4.2490   -1.2594   -0.3240 H   0  0  0  0  0  0  0  0  0  0  0  0
    2.1950   -0.6706   -0.3070 C   0  0  0  0  0  0  0  0  0  0  0  0
    1.9943   -0.3682    0.7131 H   0  0  0  0  0  0  0  0  0  0  0  0
   -0.9851    1.3114    0.6698 C   0  0  0  0  0  0  0  0  0  0  0  0
   -2.0377    1.8431    0.3168 O   0  0  0  0  0  0  0  0  0  0  0  0
   -0.1052    1.9265    1.4663 N   0  0  0  0  0  0  0  0  0  0  0  0
    0.7810    1.4586    1.6201 H   0  0  0  0  0  0  0  0  0  0  0  0
   -0.2724    3.2715    2.0119 C   0  0  0  0  0  0  0  0  0  0  0  0
   -1.3249    3.4549    2.2426 H   0  0  0  0  0  0  0  0  0  0  0  0
    0.3167    3.3776    2.9239 H   0  0  0  0  0  0  0  0  0  0  0  0
    0.0609    4.0073    1.2782 H   0  0  0  0  0  0  0  0  0  0  0  0
  5  6  2  0  0  0  0
  5  7  1  0  0  0  0
  2  3  1  0  0  0  0
  2  4  1  0  0  0  0
  2  5  1  0  0  0  0
  1  2  1  0  0  0  0
 22 23  2  0  0  0  0
 22 24  1  0  0  0  0
 20 21  1  0  0  0  0
 18 19  1  0  0  0  0
 18 20  1  0  0  0  0
 16 17  1  0  0  0  0
 16 18  1  0  0  0  0
 15 16  2  0  0  0  0
 14 15  1  0  0  0  0
 14 20  2  0  0  0  0
 11 12  1  0  0  0  0
 11 13  1  0  0  0  0
 11 14  1  0  0  0  0
  9 10  1  0  0  0  0
  9 11  1  0  0  0  0
  9 22  1  0  0  0  0
  7  8  1  0  0  0  0
  7  9  1  0  0  0  0
 26 27  1  0  0  0  0
 26 28  1  0  0  0  0
 26 29  1  0  0  0  0
 24 25  1  0  0  0  0
 24 26  1  0  0  0  0
M  END
$$$$
default_name
  -OEChem-02102213163D

 29 29  0     1  0  0  0  0  0999 V2000
   -2.9561   -3.9186    1.3887 H   0  0  0  0  0  0  0  0  0  0  0  0
   -3.1191   -2.9346    0.9517 C   0  0  0  0  0  0  0  0  0  0  0  0
   -3.7811   -2.3546    1.5917 H   0  0  0  0  0  0  0  0  0  0  0  0
   -3.5591   -3.0406   -0.0383 H   0  0  0  0  0  0  0  0  0  0  0  0
   -1.7921   -2.2226    0.8327 C   0  0  0  0  0  0  0  0  0  0  0  0
   -0.7611   -2.7766    1.1927 O   0  0  0  0  0  0  0  0  0  0  0  0
   -1.8201   -0.9926    0.3247 N   0  0  0  0  0  0  0  0  0  0  0  0
   -2.7141   -0.5816    0.0927 H   0  0  0  0  0  0  0  0  0  0  0  0
   -0.6481   -0.1156    0.2017 C   0  0  1  0  0  0  0  0  0  0  0  0
    0.1344   -0.4988    0.8596 H   0  0  0  0  0  0  0  0  0  0  0  0
   -0.1211   -0.1520   -1.2460 C   0  0  0  0  0  0  0  0  0  0  0  0
   -0.8700   -0.6003   -1.9004 H   0  0  0  0  0  0  0  0  0  0  0  0
    0.0574    0.8645   -1.5994 H   0  0  0  0  0  0  0  0  0  0  0  0
    1.1436   -0.9631   -1.3897 C   0  0  0  0  0  0  0  0  0  0  0  0
    1.8486   -1.1750   -2.5752 N   0  0  0  0  0  0  0  0  0  0  0  0
    2.9237   -1.9034   -2.2404 C   0  0  0  0  0  0  0  0  0  0  0  0
    3.6729   -2.2479   -2.9420 H   0  0  0  0  0  0  0  0  0  0  0  0
    2.9408   -2.1337   -0.9168 N   0  0  0  0  0  0  0  0  0  0  0  0
    3.6589   -2.6425   -0.4195 H   0  0  0  0  0  0  0  0  0  0  0  0
    1.8268   -1.5443   -0.3617 C   0  0  0  0  0  0  0  0  0  0  0  0
    1.5439   -1.5180    0.6831 H   0  0  0  0  0  0  0  0  0  0  0  0
   -0.9851    1.3114    0.6698 C   0  0  0  0  0  0  0  0  0  0  0  0
   -2.0377    1.8431    0.3168 O   0  0  0  0  0  0  0  0  0  0  0  0
   -0.1052    1.9265    1.4663 N   0  0  0  0  0  0  0  0  0  0  0  0
    0.7810    1.4586    1.6201 H   0  0  0  0  0  0  0  0  0  0  0  0
   -0.2724    3.2715    2.0119 C   0  0  0  0  0  0  0  0  0  0  0  0
   -1.3249    3.4549    2.2426 H   0  0  0  0  0  0  0  0  0  0  0  0
    0.3167    3.3776    2.9239 H   0  0  0  0  0  0  0  0  0  0  0  0
    0.0609    4.0073    1.2782 H   0  0  0  0  0  0  0  0  0  0  0  0
  5  6  2  0  0  0  0
  5  7  1  0  0  0  0
  2  3  1  0  0  0  0
  2  4  1  0  0  0  0
  2  5  1  0  0  0  0
  1  2  1  0  0  0  0
 22 23  2  0  0  0  0
 22 24  1  0  0  0  0
 20 21  1  0  0  0  0
 18 19  1  0  0  0  0
 18 20  1  0  0  0  0
 16 17  1  0  0  0  0
 16 18  1  0  0  0  0
 15 16  2  0  0  0  0
 14 15  1  0  0  0  0
 14 20  2  0  0  0  0
 11 12  1  0  0  0  0
 11 13  1  0  0  0  0
 11 14  1  0  0  0  0
  9 10  1  0  0  0  0
  9 11  1  0  0  0  0
  9 22  1  0  0  0  0
  7  8  1  0  0  0  0
  7  9  1  0  0  0  0
 26 27  1  0  0  0  0
 26 28  1  0  0  0  0
 26 29  1  0  0  0  0
 24 25  1  0  0  0  0
 24 26  1  0  0  0  0
M  END
$$$$
default_name
  -OEChem-02102213163D

 29 29  0     1  0  0  0  0  0999 V2000
   -2.9561   -3.9186    1.3887 H   0  0  0  0  0  0  0  0  0  0  0  0
   -3.1191   -2.9346    0.9517 C   0  0  0  0  0  0  0  0  0  0  0  0
   -3.7811   -2.3546    1.5917 H   0  0  0  0  0  0  0  0  0  0  0  0
   -3.5591   -3.0406   -0.0383 H   0  0  0  0  0  0  0  0  0  0  0  0
   -1.7921   -2.2226    0.8327 C   0  0  0  0  0  0  0  0  0  0  0  0
   -0.7611   -2.7766    1.1927 O   0  0  0  0  0  0  0  0  0  0  0  0
   -1.8201   -0.9926    0.3247 N   0  0  0  0  0  0  0  0  0  0  0  0
   -2.7141   -0.5816    0.0927 H   0  0  0  0  0  0  0  0  0  0  0  0
   -0.6481   -0.1156    0.2017 C   0  0  1  0  0  0  0  0  0  0  0  0
    0.1344   -0.4988    0.8596 H   0  0  0  0  0  0  0  0  0  0  0  0
   -0.1211   -0.1520   -1.2460 C   0  0  0  0  0  0  0  0  0  0  0  0
   -0.8700   -0.6003   -1.9004 H   0  0  0  0  0  0  0  0  0  0  0  0
    0.0574    0.8645   -1.5994 H   0  0  0  0  0  0  0  0  0  0  0  0
    1.1436   -0.9631   -1.3897 C   0  0  0  0  0  0  0  0  0  0  0  0
    2.0076   -0.9430   -2.4853 N   0  0  0  0  0  0  0  0  0  0  0  0
    3.0175   -1.7688   -2.1745 C   0  0  0  0  0  0  0  0  0  0  0  0
    3.8554   -1.9840   -2.8255 H   0  0  0  0  0  0  0  0  0  0  0  0
    2.8446   -2.2790   -0.9436 N   0  0  0  0  0  0  0  0  0  0  0  0
    3.4802   -2.9111   -0.4764 H   0  0  0  0  0  0  0  0  0  0  0  0
    1.6687   -1.7787   -0.4303 C   0  0  0  0  0  0  0  0  0  0  0  0
    1.2407   -1.9665    0.5464 H   0  0  0  0  0  0  0  0  0  0  0  0
   -0.9851    1.3114    0.6698 C   0  0  0  0  0  0  0  0  0  0  0  0
   -2.0377    1.8431    0.3168 O   0  0  0  0  0  0  0  0  0  0  0  0
   -0.1052    1.9265    1.4663 N   0  0  0  0  0  0  0  0  0  0  0  0
    0.7810    1.4586    1.6201 H   0  0  0  0  0  0  0  0  0  0  0  0
   -0.2724    3.2715    2.0119 C   0  0  0  0  0  0  0  0  0  0  0  0
   -1.3249    3.4549    2.2426 H   0  0  0  0  0  0  0  0  0  0  0  0
    0.3167    3.3776    2.9239 H   0  0  0  0  0  0  0  0  0  0  0  0
    0.0609    4.0073    1.2782 H   0  0  0  0  0  0  0  0  0  0  0  0
  5  6  2  0  0  0  0
  5  7  1  0  0  0  0
  2  3  1  0  0  0  0
  2  4  1  0  0  0  0
  2  5  1  0  0  0  0
  1  2  1  0  0  0  0
 22 23  2  0  0  0  0
 22 24  1  0  0  0  0
 20 21  1  0  0  0  0
 18 19  1  0  0  0  0
 18 20  1  0  0  0  0
 16 17  1  0  0  0  0
 16 18  1  0  0  0  0
 15 16  2  0  0  0  0
 14 15  1  0  0  0  0
 14 20  2  0  0  0  0
 11 12  1  0  0  0  0
 11 13  1  0  0  0  0
 11 14  1  0  0  0  0
  9 10  1  0  0  0  0
  9 11  1  0  0  0  0
  9 22  1  0  0  0  0
  7  8  1  0  0  0  0
  7  9  1  0  0  0  0
 26 27  1  0  0  0  0
 26 28  1  0  0  0  0
 26 29  1  0  0  0  0
 24 25  1  0  0  0  0
 24 26  1  0  0  0  0
M  END
$$$$
default_name
  -OEChem-02102213163D

 29 29  0     1  0  0  0  0  0999 V2000
   -2.9561   -3.9186    1.3887 H   0  0  0  0  0  0  0  0  0  0  0  0
   -3.1191   -2.9346    0.9517 C   0  0  0  0  0  0  0  0  0  0  0  0
   -3.7811   -2.3546    1.5917 H   0  0  0  0  0  0  0  0  0  0  0  0
   -3.5591   -3.0406   -0.0383 H   0  0  0  0  0  0  0  0  0  0  0  0
   -1.7921   -2.2226    0.8327 C   0  0  0  0  0  0  0  0  0  0  0  0
   -0.7611   -2.7766    1.1927 O   0  0  0  0  0  0  0  0  0  0  0  0
   -1.8201   -0.9926    0.3247 N   0  0  0  0  0  0  0  0  0  0  0  0
   -2.7141   -0.5816    0.0927 H   0  0  0  0  0  0  0  0  0  0  0  0
   -0.6481   -0.1156    0.2017 C   0  0  1  0  0  0  0  0  0  0  0  0
    0.1344   -0.4988    0.8596 H   0  0  0  0  0  0  0  0  0  0  0  0
   -0.1211   -0.1520   -1.2460 C   0  0  0  0  0  0  0  0  0  0  0  0
   -0.8700   -0.6003   -1.9004 H   0  0  0  0  0  0  0  0  0  0  0  0
    0.0574    0.8645   -1.5994 H   0  0  0  0  0  0  0  0  0  0  0  0
    1.1436   -0.9631   -1.3897 C   0  0  0  0  0  0  0  0  0  0  0  0
    2.1544   -0.7424   -2.3261 N   0  0  0  0  0  0  0  0  0  0  0  0
    3.1023   -1.6553   -2.0685 C   0  0  0  0  0  0  0  0  0  0  0  0
    4.0220   -1.7588   -2.6304 H   0  0  0  0  0  0  0  0  0  0  0  0
    2.7518   -2.4111   -1.0143 N   0  0  0  0  0  0  0  0  0  0  0  0
    3.3088   -3.1538   -0.6144 H   0  0  0  0  0  0  0  0  0  0  0  0
    1.5197   -1.9863   -0.5694 C   0  0  0  0  0  0  0  0  0  0  0  0
    0.9559   -2.3625    0.2749 H   0  0  0  0  0  0  0  0  0  0  0  0
   -0.9851    1.3114    0.6698 C   0  0  0  0  0  0  0  0  0  0  0  0
   -2.0377    1.8431    0.3168 O   0  0  0  0  0  0  0  0  0  0  0  0
   -0.1052    1.9265    1.4663 N   0  0  0  0  0  0  0  0  0  0  0  0
    0.7810    1.4586    1.6201 H   0  0  0  0  0  0  0  0  0  0  0  0
   -0.2724    3.2715    2.0119 C   0  0  0  0  0  0  0  0  0  0  0  0
   -1.3249    3.4549    2.2426 H   0  0  0  0  0  0  0  0  0  0  0  0
    0.3167    3.3776    2.9239 H   0  0  0  0  0  0  0  0  0  0  0  0
    0.0609    4.0073    1.2782 H   0  0  0  0  0  0  0  0  0  0  0  0
  5  6  2  0  0  0  0
  5  7  1  0  0  0  0
  2  3  1  0  0  0  0
  2  4  1  0  0  0  0
  2  5  1  0  0  0  0
  1  2  1  0  0  0  0
 22 23  2  0  0  0  0
 22 24  1  0  0  0  0
 20 21  1  0  0  0  0
 18 19  1  0  0  0  0
 18 20  1  0  0  0  0
 16 17  1  0  0  0  0
 16 18  1  0  0  0  0
 15 16  2  0  0  0  0
 14 15  1  0  0  0  0
 14 20  2  0  0  0  0
 11 12  1  0  0  0  0
 11 13  1  0  0  0  0
 11 14  1  0  0  0  0
  9 10  1  0  0  0  0
  9 11  1  0  0  0  0
  9 22  1  0  0  0  0
  7  8  1  0  0  0  0
  7  9  1  0  0  0  0
 26 27  1  0  0  0  0
 26 28  1  0  0  0  0
 26 29  1  0  0  0  0
 24 25  1  0  0  0  0
 24 26  1  0  0  0  0
M  END
$$$$
default_name
  -OEChem-02102213163D

 29 29  0     1  0  0  0  0  0999 V2000
   -2.9561   -3.9186    1.3887 H   0  0  0  0  0  0  0  0  0  0  0  0
   -3.1191   -2.9346    0.9517 C   0  0  0  0  0  0  0  0  0  0  0  0
   -3.7811   -2.3546    1.5917 H   0  0  0  0  0  0  0  0  0  0  0  0
   -3.5591   -3.0406   -0.0383 H   0  0  0  0  0  0  0  0  0  0  0  0
   -1.7921   -2.2226    0.8327 C   0  0  0  0  0  0  0  0  0  0  0  0
   -0.7611   -2.7766    1.1927 O   0  0  0  0  0  0  0  0  0  0  0  0
   -1.8201   -0.9926    0.3247 N   0  0  0  0  0  0  0  0  0  0  0  0
   -2.7141   -0.5816    0.0927 H   0  0  0  0  0  0  0  0  0  0  0  0
   -0.6481   -0.1156    0.2017 C   0  0  1  0  0  0  0  0  0  0  0  0
    0.1344   -0.4988    0.8596 H   0  0  0  0  0  0  0  0  0  0  0  0
   -0.1211   -0.1520   -1.2460 C   0  0  0  0  0  0  0  0  0  0  0  0
   -0.8700   -0.6003   -1.9004 H   0  0  0  0  0  0  0  0  0  0  0  0
    0.0574    0.8645   -1.5994 H   0  0  0  0  0  0  0  0  0  0  0  0
    1.1436   -0.9631   -1.3897 C   0  0  0  0  0  0  0  0  0  0  0  0
    2.2790   -0.5867   -2.1084 N   0  0  0  0  0  0  0  0  0  0  0  0
    3.1722   -1.5709   -1.9298 C   0  0  0  0  0  0  0  0  0  0  0  0
    4.1613   -1.5877   -2.3699 H   0  0  0  0  0  0  0  0  0  0  0  0
    2.6688   -2.5210   -1.1242 N   0  0  0  0  0  0  0  0  0  0  0  0
    3.1565   -3.3541   -0.8242 H   0  0  0  0  0  0  0  0  0  0  0  0
    1.3900   -2.1530   -0.7695 C   0  0  0  0  0  0  0  0  0  0  0  0
    0.7087   -2.6792   -0.1128 H   0  0  0  0  0  0  0  0  0  0  0  0
   -0.9851    1.3114    0.6698 C   0  0  0  0  0  0  0  0  0  0  0  0
   -2.0377    1.8431    0.3168 O   0  0  0  0  0  0  0  0  0  0  0  0
   -0.1052    1.9265    1.4663 N   0  0  0  0  0  0  0  0  0  0  0  0
    0.7810    1.4586    1.6201 H   0  0  0  0  0  0  0  0  0  0  0  0
   -0.2724    3.2715    2.0119 C   0  0  0  0  0  0  0  0  0  0  0  0
   -1.3249    3.4549    2.2426 H   0  0  0  0  0  0  0  0  0  0  0  0
    0.3167    3.3776    2.9239 H   0  0  0  0  0  0  0  0  0  0  0  0
    0.0609    4.0073    1.2782 H   0  0  0  0  0  0  0  0  0  0  0  0
  5  6  2  0  0  0  0
  5  7  1  0  0  0  0
  2  3  1  0  0  0  0
  2  4  1  0  0  0  0
  2  5  1  0  0  0  0
  1  2  1  0  0  0  0
 22 23  2  0  0  0  0
 22 24  1  0  0  0  0
 20 21  1  0  0  0  0
 18 19  1  0  0  0  0
 18 20  1  0  0  0  0
 16 17  1  0  0  0  0
 16 18  1  0  0  0  0
 15 16  2  0  0  0  0
 14 15  1  0  0  0  0
 14 20  2  0  0  0  0
 11 12  1  0  0  0  0
 11 13  1  0  0  0  0
 11 14  1  0  0  0  0
  9 10  1  0  0  0  0
  9 11  1  0  0  0  0
  9 22  1  0  0  0  0
  7  8  1  0  0  0  0
  7  9  1  0  0  0  0
 26 27  1  0  0  0  0
 26 28  1  0  0  0  0
 26 29  1  0  0  0  0
 24 25  1  0  0  0  0
 24 26  1  0  0  0  0
M  END
$$$$
default_name
  -OEChem-02102213163D

 29 29  0     1  0  0  0  0  0999 V2000
   -2.9561   -3.9186    1.3887 H   0  0  0  0  0  0  0  0  0  0  0  0
   -3.1191   -2.9346    0.9517 C   0  0  0  0  0  0  0  0  0  0  0  0
   -3.7811   -2.3546    1.5917 H   0  0  0  0  0  0  0  0  0  0  0  0
   -3.5591   -3.0406   -0.0383 H   0  0  0  0  0  0  0  0  0  0  0  0
   -1.7921   -2.2226    0.8327 C   0  0  0  0  0  0  0  0  0  0  0  0
   -0.7611   -2.7766    1.1927 O   0  0  0  0  0  0  0  0  0  0  0  0
   -1.8201   -0.9926    0.3247 N   0  0  0  0  0  0  0  0  0  0  0  0
   -2.7141   -0.5816    0.0927 H   0  0  0  0  0  0  0  0  0  0  0  0
   -0.6481   -0.1156    0.2017 C   0  0  1  0  0  0  0  0  0  0  0  0
    0.1344   -0.4988    0.8596 H   0  0  0  0  0  0  0  0  0  0  0  0
   -0.1211   -0.1520   -1.2460 C   0  0  0  0  0  0  0  0  0  0  0  0
   -0.8700   -0.6003   -1.9004 H   0  0  0  0  0  0  0  0  0  0  0  0
    0.0574    0.8645   -1.5994 H   0  0  0  0  0  0  0  0  0  0  0  0
    1.1436   -0.9631   -1.3897 C   0  0  0  0  0  0  0  0  0  0  0  0
    2.3729   -0.4866   -1.8470 N   0  0  0  0  0  0  0  0  0  0  0  0
    3.2226   -1.5211   -1.7678 C   0  0  0  0  0  0  0  0  0  0  0  0
    4.2639   -1.4824   -2.0618 H   0  0  0  0  0  0  0  0  0  0  0  0
    2.6012   -2.6014   -1.2657 N   0  0  0  0  0  0  0  0  0  0  0  0
    3.0337   -3.4983   -1.0915 H   0  0  0  0  0  0  0  0  0  0  0  0
    1.2885   -2.2675   -1.0169 C   0  0  0  0  0  0  0  0  0  0  0  0
    0.5160   -2.8949   -0.5904 H   0  0  0  0  0  0  0  0  0  0  0  0
   -0.9851    1.3114    0.6698 C   0  0  0  0  0  0  0  0  0  0  0  0
   -2.0377    1.8431    0.3168 O   0  0  0  0  0  0  0  0  0  0  0  0
   -0.1052    1.9265    1.4663 N   0  0  0  0  0  0  0  0  0  0  0  0
    0.7810    1.4586    1.6201 H   0  0  0  0  0  0  0  0  0  0  0  0
   -0.2724    3.2715    2.0119 C   0  0  0  0  0  0  0  0  0  0  0  0
   -1.3249    3.4549    2.2426 H   0  0  0  0  0  0  0  0  0  0  0  0
    0.3167    3.3776    2.9239 H   0  0  0  0  0  0  0  0  0  0  0  0
    0.0609    4.0073    1.2782 H   0  0  0  0  0  0  0  0  0  0  0  0
  5  6  2  0  0  0  0
  5  7  1  0  0  0  0
  2  3  1  0  0  0  0
  2  4  1  0  0  0  0
  2  5  1  0  0  0  0
  1  2  1  0  0  0  0
 22 23  2  0  0  0  0
 22 24  1  0  0  0  0
 20 21  1  0  0  0  0
 18 19  1  0  0  0  0
 18 20  1  0  0  0  0
 16 17  1  0  0  0  0
 16 18  1  0  0  0  0
 15 16  2  0  0  0  0
 14 15  1  0  0  0  0
 14 20  2  0  0  0  0
 11 12  1  0  0  0  0
 11 13  1  0  0  0  0
 11 14  1  0  0  0  0
  9 10  1  0  0  0  0
  9 11  1  0  0  0  0
  9 22  1  0  0  0  0
  7  8  1  0  0  0  0
  7  9  1  0  0  0  0
 26 27  1  0  0  0  0
 26 28  1  0  0  0  0
 26 29  1  0  0  0  0
 24 25  1  0  0  0  0
 24 26  1  0  0  0  0
M  END
$$$$
default_name
  -OEChem-02102213163D

 29 29  0     1  0  0  0  0  0999 V2000
   -2.9561   -3.9186    1.3887 H   0  0  0  0  0  0  0  0  0  0  0  0
   -3.1191   -2.9346    0.9517 C   0  0  0  0  0  0  0  0  0  0  0  0
   -3.7811   -2.3546    1.5917 H   0  0  0  0  0  0  0  0  0  0  0  0
   -3.5591   -3.0406   -0.0383 H   0  0  0  0  0  0  0  0  0  0  0  0
   -1.7921   -2.2226    0.8327 C   0  0  0  0  0  0  0  0  0  0  0  0
   -0.7611   -2.7766    1.1927 O   0  0  0  0  0  0  0  0  0  0  0  0
   -1.8201   -0.9926    0.3247 N   0  0  0  0  0  0  0  0  0  0  0  0
   -2.7141   -0.5816    0.0927 H   0  0  0  0  0  0  0  0  0  0  0  0
   -0.6481   -0.1156    0.2017 C   0  0  1  0  0  0  0  0  0  0  0  0
    0.1344   -0.4988    0.8596 H   0  0  0  0  0  0  0  0  0  0  0  0
   -0.1211   -0.1520   -1.2460 C   0  0  0  0  0  0  0  0  0  0  0  0
   -0.8700   -0.6003   -1.9004 H   0  0  0  0  0  0  0  0  0  0  0  0
    0.0574    0.8645   -1.5994 H   0  0  0  0  0  0  0  0  0  0  0  0
    1.1436   -0.9631   -1.3897 C   0  0  0  0  0  0  0  0  0  0  0  0
    2.4297   -0.4489   -1.5597 N   0  0  0  0  0  0  0  0  0  0  0  0
    3.2499   -1.5093   -1.5935 C   0  0  0  0  0  0  0  0  0  0  0  0
    4.3227   -1.4500   -1.7271 H   0  0  0  0  0  0  0  0  0  0  0  0
    2.5536   -2.6467   -1.4293 N   0  0  0  0  0  0  0  0  0  0  0  0
    2.9486   -3.5766   -1.3981 H   0  0  0  0  0  0  0  0  0  0  0  0
    1.2220   -2.3218   -1.2949 C   0  0  0  0  0  0  0  0  0  0  0  0
    0.3911   -2.9950   -1.1253 H   0  0  0  0  0  0  0  0  0  0  0  0
   -0.9851    1.3114    0.6698 C   0  0  0  0  0  0  0  0  0  0  0  0
   -2.0377    1.8431    0.3168 O   0  0  0  0  0  0  0  0  0  0  0  0
   -0.1052    1.9265    1.4663 N   0  0  0  0  0  0  0  0  0  0  0  0
    0.7810    1.4586    1.6201 H   0  0  0  0  0  0  0  0  0  0  0  0
   -0.2724    3.2715    2.0119 C   0  0  0  0  0  0  0  0  0  0  0  0
   -1.3249    3.4549    2.2426 H   0  0  0  0  0  0  0  0  0  0  0  0
    0.3167    3.3776    2.9239 H   0  0  0  0  0  0  0  0  0  0  0  0
    0.0609    4.0073    1.2782 H   0  0  0  0  0  0  0  0  0  0  0  0
  5  6  2  0  0  0  0
  5  7  1  0  0  0  0
  2  3  1  0  0  0  0
  2  4  1  0  0  0  0
  2  5  1  0  0  0  0
  1  2  1  0  0  0  0
 22 23  2  0  0  0  0
 22 24  1  0  0  0  0
 20 21  1  0  0  0  0
 18 19  1  0  0  0  0
 18 20  1  0  0  0  0
 16 17  1  0  0  0  0
 16 18  1  0  0  0  0
 15 16  2  0  0  0  0
 14 15  1  0  0  0  0
 14 20  2  0  0  0  0
 11 12  1  0  0  0  0
 11 13  1  0  0  0  0
 11 14  1  0  0  0  0
  9 10  1  0  0  0  0
  9 11  1  0  0  0  0
  9 22  1  0  0  0  0
  7  8  1  0  0  0  0
  7  9  1  0  0  0  0
 26 27  1  0  0  0  0
 26 28  1  0  0  0  0
 26 29  1  0  0  0  0
 24 25  1  0  0  0  0
 24 26  1  0  0  0  0
M  END
$$$$
default_name
  -OEChem-02102213163D

 29 29  0     1  0  0  0  0  0999 V2000
   -2.9561   -3.9186    1.3887 H   0  0  0  0  0  0  0  0  0  0  0  0
   -3.1191   -2.9346    0.9517 C   0  0  0  0  0  0  0  0  0  0  0  0
   -3.7811   -2.3546    1.5917 H   0  0  0  0  0  0  0  0  0  0  0  0
   -3.5591   -3.0406   -0.0383 H   0  0  0  0  0  0  0  0  0  0  0  0
   -1.7921   -2.2226    0.8327 C   0  0  0  0  0  0  0  0  0  0  0  0
   -0.7611   -2.7766    1.1927 O   0  0  0  0  0  0  0  0  0  0  0  0
   -1.8201   -0.9926    0.3247 N   0  0  0  0  0  0  0  0  0  0  0  0
   -2.7141   -0.5816    0.0927 H   0  0  0  0  0  0  0  0  0  0  0  0
   -0.6481   -0.1156    0.2017 C   0  0  1  0  0  0  0  0  0  0  0  0
    0.1344   -0.4988    0.8596 H   0  0  0  0  0  0  0  0  0  0  0  0
   -0.1211   -0.1520   -1.2460 C   0  0  0  0  0  0  0  0  0  0  0  0
   -0.8700   -0.6003   -1.9004 H   0  0  0  0  0  0  0  0  0  0  0  0
    0.0574    0.8645   -1.5994 H   0  0  0  0  0  0  0  0  0  0  0  0
    1.1436   -0.9631   -1.3897 C   0  0  0  0  0  0  0  0  0  0  0  0
    2.4456   -0.4762   -1.2662 N   0  0  0  0  0  0  0  0  0  0  0  0
    3.2523   -1.5365   -1.4188 C   0  0  0  0  0  0  0  0  0  0  0  0
    4.3337   -1.4928   -1.3886 H   0  0  0  0  0  0  0  0  0  0  0  0
    2.5292   -2.6537   -1.6037 N   0  0  0  0  0  0  0  0  0  0  0  0
    2.9072   -3.5837   -1.7230 H   0  0  0  0  0  0  0  0  0  0  0  0
    1.1952   -2.3124   -1.5845 C   0  0  0  0  0  0  0  0  0  0  0  0
    0.3423   -2.9725   -1.6810 H   0  0  0  0  0  0  0  0  0  0  0  0
   -0.9851    1.3114    0.6698 C   0  0  0  0  0  0  0  0  0  0  0  0
   -2.0377    1.8431    0.3168 O   0  0  0  0  0  0  0  0  0  0  0  0
   -0.1052    1.9265    1.4663 N   0  0  0  0  0  0  0  0  0  0  0  0
    0.7810    1.4586    1.6201 H   0  0  0  0  0  0  0  0  0  0  0  0
   -0.2724    3.2715    2.0119 C   0  0  0  0  0  0  0  0  0  0  0  0
   -1.3249    3.4549    2.2426 H   0  0  0  0  0  0  0  0  0  0  0  0
    0.3167    3.3776    2.9239 H   0  0  0  0  0  0  0  0  0  0  0  0
    0.0609    4.0073    1.2782 H   0  0  0  0  0  0  0  0  0  0  0  0
  5  6  2  0  0  0  0
  5  7  1  0  0  0  0
  2  3  1  0  0  0  0
  2  4  1  0  0  0  0
  2  5  1  0  0  0  0
  1  2  1  0  0  0  0
 22 23  2  0  0  0  0
 22 24  1  0  0  0  0
 20 21  1  0  0  0  0
 18 19  1  0  0  0  0
 18 20  1  0  0  0  0
 16 17  1  0  0  0  0
 16 18  1  0  0  0  0
 15 16  2  0  0  0  0
 14 15  1  0  0  0  0
 14 20  2  0  0  0  0
 11 12  1  0  0  0  0
 11 13  1  0  0  0  0
 11 14  1  0  0  0  0
  9 10  1  0  0  0  0
  9 11  1  0  0  0  0
  9 22  1  0  0  0  0
  7  8  1  0  0  0  0
  7  9  1  0  0  0  0
 26 27  1  0  0  0  0
 26 28  1  0  0  0  0
 26 29  1  0  0  0  0
 24 25  1  0  0  0  0
 24 26  1  0  0  0  0
M  END
$$$$
default_name
  -OEChem-02102213163D

 29 29  0     1  0  0  0  0  0999 V2000
   -2.9561   -3.9186    1.3887 H   0  0  0  0  0  0  0  0  0  0  0  0
   -3.1191   -2.9346    0.9517 C   0  0  0  0  0  0  0  0  0  0  0  0
   -3.7811   -2.3546    1.5917 H   0  0  0  0  0  0  0  0  0  0  0  0
   -3.5591   -3.0406   -0.0383 H   0  0  0  0  0  0  0  0  0  0  0  0
   -1.7921   -2.2226    0.8327 C   0  0  0  0  0  0  0  0  0  0  0  0
   -0.7611   -2.7766    1.1927 O   0  0  0  0  0  0  0  0  0  0  0  0
   -1.8201   -0.9926    0.3247 N   0  0  0  0  0  0  0  0  0  0  0  0
   -2.7141   -0.5816    0.0927 H   0  0  0  0  0  0  0  0  0  0  0  0
   -0.6481   -0.1156    0.2017 C   0  0  1  0  0  0  0  0  0  0  0  0
    0.1344   -0.4988    0.8596 H   0  0  0  0  0  0  0  0  0  0  0  0
   -0.1211   -0.1520   -1.2460 C   0  0  0  0  0  0  0  0  0  0  0  0
   -0.8700   -0.6003   -1.9004 H   0  0  0  0  0  0  0  0  0  0  0  0
    0.0574    0.8645   -1.5994 H   0  0  0  0  0  0  0  0  0  0  0  0
    1.1436   -0.9631   -1.3897 C   0  0  0  0  0  0  0  0  0  0  0  0
    2.4194   -0.5667   -0.9864 N   0  0  0  0  0  0  0  0  0  0  0  0
    3.2297   -1.6007   -1.2555 C   0  0  0  0  0  0  0  0  0  0  0  0
    4.2963   -1.6077   -1.0694 H   0  0  0  0  0  0  0  0  0  0  0  0
    2.5298   -2.6221   -1.7771 N   0  0  0  0  0  0  0  0  0  0  0  0
    2.9122   -3.5190   -2.0441 H   0  0  0  0  0  0  0  0  0  0  0  0
    1.2097   -2.2399   -1.8658 C   0  0  0  0  0  0  0  0  0  0  0  0
    0.3731   -2.8291   -2.2198 H   0  0  0  0  0  0  0  0  0  0  0  0
   -0.9851    1.3114    0.6698 C   0  0  0  0  0  0  0  0  0  0  0  0
   -2.0377    1.8431    0.3168 O   0  0  0  0  0  0  0  0  0  0  0  0
   -0.1052    1.9265    1.4663 N   0  0  0  0  0  0  0  0  0  0  0  0
    0.7810    1.4586    1.6201 H   0  0  0  0  0  0  0  0  0  0  0  0
   -0.2724    3.2715    2.0119 C   0  0  0  0  0  0  0  0  0  0  0  0
   -1.3249    3.4549    2.2426 H   0  0  0  0  0  0  0  0  0  0  0  0
    0.3167    3.3776    2.9239 H   0  0  0  0  0  0  0  0  0  0  0  0
    0.0609    4.0073    1.2782 H   0  0  0  0  0  0  0  0  0  0  0  0
  5  6  2  0  0  0  0
  5  7  1  0  0  0  0
  2  3  1  0  0  0  0
  2  4  1  0  0  0  0
  2  5  1  0  0  0  0
  1  2  1  0  0  0  0
 22 23  2  0  0  0  0
 22 24  1  0  0  0  0
 20 21  1  0  0  0  0
 18 19  1  0  0  0  0
 18 20  1  0  0  0  0
 16 17  1  0  0  0  0
 16 18  1  0  0  0  0
 15 16  2  0  0  0  0
 14 15  1  0  0  0  0
 14 20  2  0  0  0  0
 11 12  1  0  0  0  0
 11 13  1  0  0  0  0
 11 14  1  0  0  0  0
  9 10  1  0  0  0  0
  9 11  1  0  0  0  0
  9 22  1  0  0  0  0
  7  8  1  0  0  0  0
  7  9  1  0  0  0  0
 26 27  1  0  0  0  0
 26 28  1  0  0  0  0
 26 29  1  0  0  0  0
 24 25  1  0  0  0  0
 24 26  1  0  0  0  0
M  END
$$$$
default_name
  -OEChem-02102213163D

 29 29  0     1  0  0  0  0  0999 V2000
   -2.9561   -3.9186    1.3887 H   0  0  0  0  0  0  0  0  0  0  0  0
   -3.1191   -2.9346    0.9517 C   0  0  0  0  0  0  0  0  0  0  0  0
   -3.7811   -2.3546    1.5917 H   0  0  0  0  0  0  0  0  0  0  0  0
   -3.5591   -3.0406   -0.0383 H   0  0  0  0  0  0  0  0  0  0  0  0
   -1.7921   -2.2226    0.8327 C   0  0  0  0  0  0  0  0  0  0  0  0
   -0.7611   -2.7766    1.1927 O   0  0  0  0  0  0  0  0  0  0  0  0
   -1.8201   -0.9926    0.3247 N   0  0  0  0  0  0  0  0  0  0  0  0
   -2.7141   -0.5816    0.0927 H   0  0  0  0  0  0  0  0  0  0  0  0
   -0.6481   -0.1156    0.2017 C   0  0  1  0  0  0  0  0  0  0  0  0
    0.1344   -0.4988    0.8596 H   0  0  0  0  0  0  0  0  0  0  0  0
   -0.1211   -0.1520   -1.2460 C   0  0  0  0  0  0  0  0  0  0  0  0
   -0.8700   -0.6003   -1.9004 H   0  0  0  0  0  0  0  0  0  0  0  0
    0.0574    0.8645   -1.5994 H   0  0  0  0  0  0  0  0  0  0  0  0
    1.1436   -0.9631   -1.3897 C   0  0  0  0  0  0  0  0  0  0  0  0
    2.3529   -0.7141   -0.7393 N   0  0  0  0  0  0  0  0  0  0  0  0
    3.1836   -1.6975   -1.1150 C   0  0  0  0  0  0  0  0  0  0  0  0
    4.2129   -1.7871   -0.7911 H   0  0  0  0  0  0  0  0  0  0  0  0
    2.5552   -2.5540   -1.9377 N   0  0  0  0  0  0  0  0  0  0  0  0
    2.9632   -3.3870   -2.3395 H   0  0  0  0  0  0  0  0  0  0  0  0
    1.2647   -2.1092   -2.1199 C   0  0  0  0  0  0  0  0  0  0  0  0
    0.4813   -2.5745   -2.7047 H   0  0  0  0  0  0  0  0  0  0  0  0
   -0.9851    1.3114    0.6698 C   0  0  0  0  0  0  0  0  0  0  0  0
   -2.0377    1.8431    0.3168 O   0  0  0  0  0  0  0  0  0  0  0  0
   -0.1052    1.9265    1.4663 N   0  0  0  0  0  0  0  0  0  0  0  0
    0.7810    1.4586    1.6201 H   0  0  0  0  0  0  0  0  0  0  0  0
   -0.2724    3.2715    2.0119 C   0  0  0  0  0  0  0  0  0  0  0  0
   -1.3249    3.4549    2.2426 H   0  0  0  0  0  0  0  0  0  0  0  0
    0.3167    3.3776    2.9239 H   0  0  0  0  0  0  0  0  0  0  0  0
    0.0609    4.0073    1.2782 H   0  0  0  0  0  0  0  0  0  0  0  0
  5  6  2  0  0  0  0
  5  7  1  0  0  0  0
  2  3  1  0  0  0  0
  2  4  1  0  0  0  0
  2  5  1  0  0  0  0
  1  2  1  0  0  0  0
 22 23  2  0  0  0  0
 22 24  1  0  0  0  0
 20 21  1  0  0  0  0
 18 19  1  0  0  0  0
 18 20  1  0  0  0  0
 16 17  1  0  0  0  0
 16 18  1  0  0  0  0
 15 16  2  0  0  0  0
 14 15  1  0  0  0  0
 14 20  2  0  0  0  0
 11 12  1  0  0  0  0
 11 13  1  0  0  0  0
 11 14  1  0  0  0  0
  9 10  1  0  0  0  0
  9 11  1  0  0  0  0
  9 22  1  0  0  0  0
  7  8  1  0  0  0  0
  7  9  1  0  0  0  0
 26 27  1  0  0  0  0
 26 28  1  0  0  0  0
 26 29  1  0  0  0  0
 24 25  1  0  0  0  0
 24 26  1  0  0  0  0
M  END
$$$$
default_name
  -OEChem-02102213163D

 29 29  0     1  0  0  0  0  0999 V2000
   -2.9561   -3.9186    1.3887 H   0  0  0  0  0  0  0  0  0  0  0  0
   -3.1191   -2.9346    0.9517 C   0  0  0  0  0  0  0  0  0  0  0  0
   -3.7811   -2.3546    1.5917 H   0  0  0  0  0  0  0  0  0  0  0  0
   -3.5591   -3.0406   -0.0383 H   0  0  0  0  0  0  0  0  0  0  0  0
   -1.7921   -2.2226    0.8327 C   0  0  0  0  0  0  0  0  0  0  0  0
   -0.7611   -2.7766    1.1927 O   0  0  0  0  0  0  0  0  0  0  0  0
   -1.8201   -0.9926    0.3247 N   0  0  0  0  0  0  0  0  0  0  0  0
   -2.7141   -0.5816    0.0927 H   0  0  0  0  0  0  0  0  0  0  0  0
   -0.6481   -0.1156    0.2017 C   0  0  1  0  0  0  0  0  0  0  0  0
    0.1344   -0.4988    0.8596 H   0  0  0  0  0  0  0  0  0  0  0  0
   -0.1211   -0.1520   -1.2460 C   0  0  0  0  0  0  0  0  0  0  0  0
   -0.8700   -0.6003   -1.9004 H   0  0  0  0  0  0  0  0  0  0  0  0
    0.0574    0.8645   -1.5994 H   0  0  0  0  0  0  0  0  0  0  0  0
    1.1436   -0.9631   -1.3897 C   0  0  0  0  0  0  0  0  0  0  0  0
    2.2507   -0.9084   -0.5419 N   0  0  0  0  0  0  0  0  0  0  0  0
    3.1171   -1.8204   -1.0066 C   0  0  0  0  0  0  0  0  0  0  0  0
    4.0891   -2.0186   -0.5729 H   0  0  0  0  0  0  0  0  0  0  0  0
    2.6038   -2.4540   -2.0744 N   0  0  0  0  0  0  0  0  0  0  0  0
    3.0569   -3.1967   -2.5892 H   0  0  0  0  0  0  0  0  0  0  0  0
    1.3563   -1.9292   -2.3292 C   0  0  0  0  0  0  0  0  0  0  0  0
    0.6595   -2.2261   -3.1029 H   0  0  0  0  0  0  0  0  0  0  0  0
   -0.9851    1.3114    0.6698 C   0  0  0  0  0  0  0  0  0  0  0  0
   -2.0377    1.8431    0.3168 O   0  0  0  0  0  0  0  0  0  0  0  0
   -0.1052    1.9265    1.4663 N   0  0  0  0  0  0  0  0  0  0  0  0
    0.7810    1.4586    1.6201 H   0  0  0  0  0  0  0  0  0  0  0  0
   -0.2724    3.2715    2.0119 C   0  0  0  0  0  0  0  0  0  0  0  0
   -1.3249    3.4549    2.2426 H   0  0  0  0  0  0  0  0  0  0  0  0
    0.3167    3.3776    2.9239 H   0  0  0  0  0  0  0  0  0  0  0  0
    0.0609    4.0073    1.2782 H   0  0  0  0  0  0  0  0  0  0  0  0
  5  6  2  0  0  0  0
  5  7  1  0  0  0  0
  2  3  1  0  0  0  0
  2  4  1  0  0  0  0
  2  5  1  0  0  0  0
  1  2  1  0  0  0  0
 22 23  2  0  0  0  0
 22 24  1  0  0  0  0
 20 21  1  0  0  0  0
 18 19  1  0  0  0  0
 18 20  1  0  0  0  0
 16 17  1  0  0  0  0
 16 18  1  0  0  0  0
 15 16  2  0  0  0  0
 14 15  1  0  0  0  0
 14 20  2  0  0  0  0
 11 12  1  0  0  0  0
 11 13  1  0  0  0  0
 11 14  1  0  0  0  0
  9 10  1  0  0  0  0
  9 11  1  0  0  0  0
  9 22  1  0  0  0  0
  7  8  1  0  0  0  0
  7  9  1  0  0  0  0
 26 27  1  0  0  0  0
 26 28  1  0  0  0  0
 26 29  1  0  0  0  0
 24 25  1  0  0  0  0
 24 26  1  0  0  0  0
M  END
$$$$
default_name
  -OEChem-02102213163D

 29 29  0     1  0  0  0  0  0999 V2000
   -2.9561   -3.9186    1.3887 H   0  0  0  0  0  0  0  0  0  0  0  0
   -3.1191   -2.9346    0.9517 C   0  0  0  0  0  0  0  0  0  0  0  0
   -3.7811   -2.3546    1.5917 H   0  0  0  0  0  0  0  0  0  0  0  0
   -3.5591   -3.0406   -0.0383 H   0  0  0  0  0  0  0  0  0  0  0  0
   -1.7921   -2.2226    0.8327 C   0  0  0  0  0  0  0  0  0  0  0  0
   -0.7611   -2.7766    1.1927 O   0  0  0  0  0  0  0  0  0  0  0  0
   -1.8201   -0.9926    0.3247 N   0  0  0  0  0  0  0  0  0  0  0  0
   -2.7141   -0.5816    0.0927 H   0  0  0  0  0  0  0  0  0  0  0  0
   -0.6481   -0.1156    0.2017 C   0  0  1  0  0  0  0  0  0  0  0  0
    0.1344   -0.4988    0.8596 H   0  0  0  0  0  0  0  0  0  0  0  0
   -0.1211   -0.1520   -1.2460 C   0  0  0  0  0  0  0  0  0  0  0  0
   -0.8700   -0.6003   -1.9004 H   0  0  0  0  0  0  0  0  0  0  0  0
    0.0574    0.8645   -1.5994 H   0  0  0  0  0  0  0  0  0  0  0  0
    1.1436   -0.9631   -1.3897 C   0  0  0  0  0  0  0  0  0  0  0  0
    2.1198   -1.1363   -0.4076 N   0  0  0  0  0  0  0  0  0  0  0  0
    3.0348   -1.9610   -0.9378 C   0  0  0  0  0  0  0  0  0  0  0  0
    3.9336   -2.2866   -0.4295 H   0  0  0  0  0  0  0  0  0  0  0  0
    2.6722   -2.3290   -2.1781 N   0  0  0  0  0  0  0  0  0  0  0  0
    3.1868   -2.9610   -2.7761 H   0  0  0  0  0  0  0  0  0  0  0  0
    1.4784   -1.7121   -2.4797 C   0  0  0  0  0  0  0  0  0  0  0  0
    0.8956   -1.8075   -3.3872 H   0  0  0  0  0  0  0  0  0  0  0  0
   -0.9851    1.3114    0.6698 C   0  0  0  0  0  0  0  0  0  0  0  0
   -2.0377    1.8431    0.3168 O   0  0  0  0  0  0  0  0  0  0  0  0
   -0.1052    1.9265    1.4663 N   0  0  0  0  0  0  0  0  0  0  0  0
    0.7810    1.4586    1.6201 H   0  0  0  0  0  0  0  0  0  0  0  0
   -0.2724    3.2715    2.0119 C   0  0  0  0  0  0  0  0  0  0  0  0
   -1.3249    3.4549    2.2426 H   0  0  0  0  0  0  0  0  0  0  0  0
    0.3167    3.3776    2.9239 H   0  0  0  0  0  0  0  0  0  0  0  0
    0.0609    4.0073    1.2782 H   0  0  0  0  0  0  0  0  0  0  0  0
  5  6  2  0  0  0  0
  5  7  1  0  0  0  0
  2  3  1  0  0  0  0
  2  4  1  0  0  0  0
  2  5  1  0  0  0  0
  1  2  1  0  0  0  0
 22 23  2  0  0  0  0
 22 24  1  0  0  0  0
 20 21  1  0  0  0  0
 18 19  1  0  0  0  0
 18 20  1  0  0  0  0
 16 17  1  0  0  0  0
 16 18  1  0  0  0  0
 15 16  2  0  0  0  0
 14 15  1  0  0  0  0
 14 20  2  0  0  0  0
 11 12  1  0  0  0  0
 11 13  1  0  0  0  0
 11 14  1  0  0  0  0
  9 10  1  0  0  0  0
  9 11  1  0  0  0  0
  9 22  1  0  0  0  0
  7  8  1  0  0  0  0
  7  9  1  0  0  0  0
 26 27  1  0  0  0  0
 26 28  1  0  0  0  0
 26 29  1  0  0  0  0
 24 25  1  0  0  0  0
 24 26  1  0  0  0  0
M  END
$$$$
default_name
  -OEChem-02102213163D

 29 29  0     1  0  0  0  0  0999 V2000
   -2.9561   -3.9186    1.3887 H   0  0  0  0  0  0  0  0  0  0  0  0
   -3.1191   -2.9346    0.9517 C   0  0  0  0  0  0  0  0  0  0  0  0
   -3.7811   -2.3546    1.5917 H   0  0  0  0  0  0  0  0  0  0  0  0
   -3.5591   -3.0406   -0.0383 H   0  0  0  0  0  0  0  0  0  0  0  0
   -1.7921   -2.2226    0.8327 C   0  0  0  0  0  0  0  0  0  0  0  0
   -0.7611   -2.7766    1.1927 O   0  0  0  0  0  0  0  0  0  0  0  0
   -1.8201   -0.9926    0.3247 N   0  0  0  0  0  0  0  0  0  0  0  0
   -2.7141   -0.5816    0.0927 H   0  0  0  0  0  0  0  0  0  0  0  0
   -0.6481   -0.1156    0.2017 C   0  0  1  0  0  0  0  0  0  0  0  0
    0.1344   -0.4988    0.8596 H   0  0  0  0  0  0  0  0  0  0  0  0
   -0.1211   -0.1520   -1.2460 C   0  0  0  0  0  0  0  0  0  0  0  0
   -0.8700   -0.6003   -1.9004 H   0  0  0  0  0  0  0  0  0  0  0  0
    0.0574    0.8645   -1.5994 H   0  0  0  0  0  0  0  0  0  0  0  0
    1.1436   -0.9631   -1.3897 C   0  0  0  0  0  0  0  0  0  0  0  0
    1.9690   -1.3824   -0.3455 N   0  0  0  0  0  0  0  0  0  0  0  0
    2.9422   -2.1096   -0.9133 C   0  0  0  0  0  0  0  0  0  0  0  0
    3.7568   -2.5726   -0.3708 H   0  0  0  0  0  0  0  0  0  0  0  0
    2.7558   -2.1874   -2.2416 N   0  0  0  0  0  0  0  0  0  0  0  0
    3.3441   -2.6961   -2.8874 H   0  0  0  0  0  0  0  0  0  0  0  0
    1.6227   -1.4729   -2.5610 C   0  0  0  0  0  0  0  0  0  0  0  0
    1.1736   -1.3475   -3.5382 H   0  0  0  0  0  0  0  0  0  0  0  0
   -0.9851    1.3114    0.6698 C   0  0  0  0  0  0  0  0  0  0  0  0
   -2.0377    1.8431    0.3168 O   0  0  0  0  0  0  0  0  0  0  0  0
   -0.1052    1.9265    1.4663 N   0  0  0  0  0  0  0  0  0  0  0  0
    0.7810    1.4586    1.6201 H   0  0  0  0  0  0  0  0  0  0  0  0
   -0.2724    3.2715    2.0119 C   0  0  0  0  0  0  0  0  0  0  0  0
   -1.3249    3.4549    2.2426 H   0  0  0  0  0  0  0  0  0  0  0  0
    0.3167    3.3776    2.9239 H   0  0  0  0  0  0  0  0  0  0  0  0
    0.0609    4.0073    1.2782 H   0  0  0  0  0  0  0  0  0  0  0  0
  5  6  2  0  0  0  0
  5  7  1  0  0  0  0
  2  3  1  0  0  0  0
  2  4  1  0  0  0  0
  2  5  1  0  0  0  0
  1  2  1  0  0  0  0
 22 23  2  0  0  0  0
 22 24  1  0  0  0  0
 20 21  1  0  0  0  0
 18 19  1  0  0  0  0
 18 20  1  0  0  0  0
 16 17  1  0  0  0  0
 16 18  1  0  0  0  0
 15 16  2  0  0  0  0
 14 15  1  0  0  0  0
 14 20  2  0  0  0  0
 11 12  1  0  0  0  0
 11 13  1  0  0  0  0
 11 14  1  0  0  0  0
  9 10  1  0  0  0  0
  9 11  1  0  0  0  0
  9 22  1  0  0  0  0
  7  8  1  0  0  0  0
  7  9  1  0  0  0  0
 26 27  1  0  0  0  0
 26 28  1  0  0  0  0
 26 29  1  0  0  0  0
 24 25  1  0  0  0  0
 24 26  1  0  0  0  0
M  END
$$$$
default_name
  -OEChem-02102213163D

 29 29  0     1  0  0  0  0  0999 V2000
   -2.9561   -3.9186    1.3887 H   0  0  0  0  0  0  0  0  0  0  0  0
   -3.1191   -2.9346    0.9517 C   0  0  0  0  0  0  0  0  0  0  0  0
   -3.7811   -2.3546    1.5917 H   0  0  0  0  0  0  0  0  0  0  0  0
   -3.5591   -3.0406   -0.0383 H   0  0  0  0  0  0  0  0  0  0  0  0
   -1.7921   -2.2226    0.8327 C   0  0  0  0  0  0  0  0  0  0  0  0
   -0.7611   -2.7766    1.1927 O   0  0  0  0  0  0  0  0  0  0  0  0
   -1.8201   -0.9926    0.3247 N   0  0  0  0  0  0  0  0  0  0  0  0
   -2.7141   -0.5816    0.0927 H   0  0  0  0  0  0  0  0  0  0  0  0
   -0.6481   -0.1156    0.2017 C   0  0  1  0  0  0  0  0  0  0  0  0
    0.1344   -0.4988    0.8596 H   0  0  0  0  0  0  0  0  0  0  0  0
   -0.1211   -0.1520   -1.2460 C   0  0  0  0  0  0  0  0  0  0  0  0
   -0.8700   -0.6003   -1.9004 H   0  0  0  0  0  0  0  0  0  0  0  0
    0.0574    0.8645   -1.5994 H   0  0  0  0  0  0  0  0  0  0  0  0
    1.1436   -0.9631   -1.3897 C   0  0  0  0  0  0  0  0  0  0  0  0
    1.8086   -1.6299   -0.3599 N   0  0  0  0  0  0  0  0  0  0  0  0
    2.8457   -2.2563   -0.9347 C   0  0  0  0  0  0  0  0  0  0  0  0
    3.5708   -2.8573   -0.4007 H   0  0  0  0  0  0  0  0  0  0  0  0
    2.8489   -2.0389   -2.2606 N   0  0  0  0  0  0  0  0  0  0  0  0
    3.5181   -2.4199   -2.9156 H   0  0  0  0  0  0  0  0  0  0  0  0
    1.7792   -1.2277   -2.5675 C   0  0  0  0  0  0  0  0  0  0  0  0
    1.4744   -0.8771   -3.5456 H   0  0  0  0  0  0  0  0  0  0  0  0
   -0.9851    1.3114    0.6698 C   0  0  0  0  0  0  0  0  0  0  0  0
   -2.0377    1.8431    0.3168 O   0  0  0  0  0  0  0  0  0  0  0  0
   -0.1052    1.9265    1.4663 N   0  0  0  0  0  0  0  0  0  0  0  0
    0.7810    1.4586    1.6201 H   0  0  0  0  0  0  0  0  0  0  0  0
   -0.2724    3.2715    2.0119 C   0  0  0  0  0  0  0  0  0  0  0  0
   -1.3249    3.4549    2.2426 H   0  0  0  0  0  0  0  0  0  0  0  0
    0.3167    3.3776    2.9239 H   0  0  0  0  0  0  0  0  0  0  0  0
    0.0609    4.0073    1.2782 H   0  0  0  0  0  0  0  0  0  0  0  0
  5  6  2  0  0  0  0
  5  7  1  0  0  0  0
  2  3  1  0  0  0  0
  2  4  1  0  0  0  0
  2  5  1  0  0  0  0
  1  2  1  0  0  0  0
 22 23  2  0  0  0  0
 22 24  1  0  0  0  0
 20 21  1  0  0  0  0
 18 19  1  0  0  0  0
 18 20  1  0  0  0  0
 16 17  1  0  0  0  0
 16 18  1  0  0  0  0
 15 16  2  0  0  0  0
 14 15  1  0  0  0  0
 14 20  2  0  0  0  0
 11 12  1  0  0  0  0
 11 13  1  0  0  0  0
 11 14  1  0  0  0  0
  9 10  1  0  0  0  0
  9 11  1  0  0  0  0
  9 22  1  0  0  0  0
  7  8  1  0  0  0  0
  7  9  1  0  0  0  0
 26 27  1  0  0  0  0
 26 28  1  0  0  0  0
 26 29  1  0  0  0  0
 24 25  1  0  0  0  0
 24 26  1  0  0  0  0
M  END
$$$$
default_name
  -OEChem-02102213163D

 29 29  0     1  0  0  0  0  0999 V2000
   -2.9561   -3.9186    1.3887 H   0  0  0  0  0  0  0  0  0  0  0  0
   -3.1191   -2.9346    0.9517 C   0  0  0  0  0  0  0  0  0  0  0  0
   -3.7811   -2.3546    1.5917 H   0  0  0  0  0  0  0  0  0  0  0  0
   -3.5591   -3.0406   -0.0383 H   0  0  0  0  0  0  0  0  0  0  0  0
   -1.7921   -2.2226    0.8327 C   0  0  0  0  0  0  0  0  0  0  0  0
   -0.7611   -2.7766    1.1927 O   0  0  0  0  0  0  0  0  0  0  0  0
   -1.8201   -0.9926    0.3247 N   0  0  0  0  0  0  0  0  0  0  0  0
   -2.7141   -0.5816    0.0927 H   0  0  0  0  0  0  0  0  0  0  0  0
   -0.6481   -0.1156    0.2017 C   0  0  1  0  0  0  0  0  0  0  0  0
    0.1344   -0.4988    0.8596 H   0  0  0  0  0  0  0  0  0  0  0  0
   -0.1211   -0.1520   -1.2460 C   0  0  0  0  0  0  0  0  0  0  0  0
   -0.8700   -0.6003   -1.9004 H   0  0  0  0  0  0  0  0  0  0  0  0
    0.0574    0.8645   -1.5994 H   0  0  0  0  0  0  0  0  0  0  0  0
    1.1436   -0.9631   -1.3897 C   0  0  0  0  0  0  0  0  0  0  0  0
    1.6496   -1.8619   -0.4497 N   0  0  0  0  0  0  0  0  0  0  0  0
    2.7519   -2.3909   -1.0007 C   0  0  0  0  0  0  0  0  0  0  0  0
    3.3883   -3.1212   -0.5171 H   0  0  0  0  0  0  0  0  0  0  0  0
    2.9451   -1.8937   -2.2339 N   0  0  0  0  0  0  0  0  0  0  0  0
    3.6968   -2.1513   -2.8587 H   0  0  0  0  0  0  0  0  0  0  0  0
    1.9373   -0.9934   -2.4989 C   0  0  0  0  0  0  0  0  0  0  0  0
    1.7776   -0.4287   -3.4089 H   0  0  0  0  0  0  0  0  0  0  0  0
   -0.9851    1.3114    0.6698 C   0  0  0  0  0  0  0  0  0  0  0  0
   -2.0377    1.8431    0.3168 O   0  0  0  0  0  0  0  0  0  0  0  0
   -0.1052    1.9265    1.4663 N   0  0  0  0  0  0  0  0  0  0  0  0
    0.7810    1.4586    1.6201 H   0  0  0  0  0  0  0  0  0  0  0  0
   -0.2724    3.2715    2.0119 C   0  0  0  0  0  0  0  0  0  0  0  0
   -1.3249    3.4549    2.2426 H   0  0  0  0  0  0  0  0  0  0  0  0
    0.3167    3.3776    2.9239 H   0  0  0  0  0  0  0  0  0  0  0  0
    0.0609    4.0073    1.2782 H   0  0  0  0  0  0  0  0  0  0  0  0
  5  6  2  0  0  0  0
  5  7  1  0  0  0  0
  2  3  1  0  0  0  0
  2  4  1  0  0  0  0
  2  5  1  0  0  0  0
  1  2  1  0  0  0  0
 22 23  2  0  0  0  0
 22 24  1  0  0  0  0
 20 21  1  0  0  0  0
 18 19  1  0  0  0  0
 18 20  1  0  0  0  0
 16 17  1  0  0  0  0
 16 18  1  0  0  0  0
 15 16  2  0  0  0  0
 14 15  1  0  0  0  0
 14 20  2  0  0  0  0
 11 12  1  0  0  0  0
 11 13  1  0  0  0  0
 11 14  1  0  0  0  0
  9 10  1  0  0  0  0
  9 11  1  0  0  0  0
  9 22  1  0  0  0  0
  7  8  1  0  0  0  0
  7  9  1  0  0  0  0
 26 27  1  0  0  0  0
 26 28  1  0  0  0  0
 26 29  1  0  0  0  0
 24 25  1  0  0  0  0
 24 26  1  0  0  0  0
M  END
$$$$
default_name
  -OEChem-02102213163D

 29 29  0     1  0  0  0  0  0999 V2000
   -2.9561   -3.9186    1.3887 H   0  0  0  0  0  0  0  0  0  0  0  0
   -3.1191   -2.9346    0.9517 C   0  0  0  0  0  0  0  0  0  0  0  0
   -3.7811   -2.3546    1.5917 H   0  0  0  0  0  0  0  0  0  0  0  0
   -3.5591   -3.0406   -0.0383 H   0  0  0  0  0  0  0  0  0  0  0  0
   -1.7921   -2.2226    0.8327 C   0  0  0  0  0  0  0  0  0  0  0  0
   -0.7611   -2.7766    1.1927 O   0  0  0  0  0  0  0  0  0  0  0  0
   -1.8201   -0.9926    0.3247 N   0  0  0  0  0  0  0  0  0  0  0  0
   -2.7141   -0.5816    0.0927 H   0  0  0  0  0  0  0  0  0  0  0  0
   -0.6481   -0.1156    0.2017 C   0  0  1  0  0  0  0  0  0  0  0  0
    0.1344   -0.4988    0.8596 H   0  0  0  0  0  0  0  0  0  0  0  0
   -0.1211   -0.1520   -1.2460 C   0  0  0  0  0  0  0  0  0  0  0  0
   -0.8700   -0.6003   -1.9004 H   0  0  0  0  0  0  0  0  0  0  0  0
    0.0574    0.8645   -1.5994 H   0  0  0  0  0  0  0  0  0  0  0  0
    1.1436   -0.9631   -1.3897 C   0  0  0  0  0  0  0  0  0  0  0  0
    1.5028   -2.0626   -0.6089 N   0  0  0  0  0  0  0  0  0  0  0  0
    2.6671   -2.5043   -1.1066 C   0  0  0  0  0  0  0  0  0  0  0  0
    3.2217   -3.3464   -0.7123 H   0  0  0  0  0  0  0  0  0  0  0  0
    3.0378   -1.7616   -2.1631 N   0  0  0  0  0  0  0  0  0  0  0  0
    3.8682   -1.9086   -2.7206 H   0  0  0  0  0  0  0  0  0  0  0  0
    2.0862   -0.7857   -2.3599 C   0  0  0  0  0  0  0  0  0  0  0  0
    2.0624   -0.0326   -3.1374 H   0  0  0  0  0  0  0  0  0  0  0  0
   -0.9851    1.3114    0.6698 C   0  0  0  0  0  0  0  0  0  0  0  0
   -2.0377    1.8431    0.3168 O   0  0  0  0  0  0  0  0  0  0  0  0
   -0.1052    1.9265    1.4663 N   0  0  0  0  0  0  0  0  0  0  0  0
    0.7810    1.4586    1.6201 H   0  0  0  0  0  0  0  0  0  0  0  0
   -0.2724    3.2715    2.0119 C   0  0  0  0  0  0  0  0  0  0  0  0
   -1.3249    3.4549    2.2426 H   0  0  0  0  0  0  0  0  0  0  0  0
    0.3167    3.3776    2.9239 H   0  0  0  0  0  0  0  0  0  0  0  0
    0.0609    4.0073    1.2782 H   0  0  0  0  0  0  0  0  0  0  0  0
  5  6  2  0  0  0  0
  5  7  1  0  0  0  0
  2  3  1  0  0  0  0
  2  4  1  0  0  0  0
  2  5  1  0  0  0  0
  1  2  1  0  0  0  0
 22 23  2  0  0  0  0
 22 24  1  0  0  0  0
 20 21  1  0  0  0  0
 18 19  1  0  0  0  0
 18 20  1  0  0  0  0
 16 17  1  0  0  0  0
 16 18  1  0  0  0  0
 15 16  2  0  0  0  0
 14 15  1  0  0  0  0
 14 20  2  0  0  0  0
 11 12  1  0  0  0  0
 11 13  1  0  0  0  0
 11 14  1  0  0  0  0
  9 10  1  0  0  0  0
  9 11  1  0  0  0  0
  9 22  1  0  0  0  0
  7  8  1  0  0  0  0
  7  9  1  0  0  0  0
 26 27  1  0  0  0  0
 26 28  1  0  0  0  0
 26 29  1  0  0  0  0
 24 25  1  0  0  0  0
 24 26  1  0  0  0  0
M  END
$$$$
default_name
  -OEChem-02102213163D

 29 29  0     1  0  0  0  0  0999 V2000
   -2.9561   -3.9186    1.3887 H   0  0  0  0  0  0  0  0  0  0  0  0
   -3.1191   -2.9346    0.9517 C   0  0  0  0  0  0  0  0  0  0  0  0
   -3.7811   -2.3546    1.5917 H   0  0  0  0  0  0  0  0  0  0  0  0
   -3.5591   -3.0406   -0.0383 H   0  0  0  0  0  0  0  0  0  0  0  0
   -1.7921   -2.2226    0.8327 C   0  0  0  0  0  0  0  0  0  0  0  0
   -0.7611   -2.7766    1.1927 O   0  0  0  0  0  0  0  0  0  0  0  0
   -1.8201   -0.9926    0.3247 N   0  0  0  0  0  0  0  0  0  0  0  0
   -2.7141   -0.5816    0.0927 H   0  0  0  0  0  0  0  0  0  0  0  0
   -0.6481   -0.1156    0.2017 C   0  0  1  0  0  0  0  0  0  0  0  0
    0.1344   -0.4988    0.8596 H   0  0  0  0  0  0  0  0  0  0  0  0
   -0.1211   -0.1520   -1.2460 C   0  0  0  0  0  0  0  0  0  0  0  0
   -0.8700   -0.6003   -1.9004 H   0  0  0  0  0  0  0  0  0  0  0  0
    0.0574    0.8645   -1.5994 H   0  0  0  0  0  0  0  0  0  0  0  0
    1.1436   -0.9631   -1.3897 C   0  0  0  0  0  0  0  0  0  0  0  0
    1.3782   -2.2182   -0.8267 N   0  0  0  0  0  0  0  0  0  0  0  0
    2.5972   -2.5888   -1.2453 C   0  0  0  0  0  0  0  0  0  0  0  0
    3.0824   -3.5175   -0.9728 H   0  0  0  0  0  0  0  0  0  0  0  0
    3.1209   -1.6516   -2.0532 N   0  0  0  0  0  0  0  0  0  0  0  0
    4.0205   -1.7083   -2.5108 H   0  0  0  0  0  0  0  0  0  0  0  0
    2.2159   -0.6190   -2.1598 C   0  0  0  0  0  0  0  0  0  0  0  0
    2.3096    0.2841   -2.7497 H   0  0  0  0  0  0  0  0  0  0  0  0
   -0.9851    1.3114    0.6698 C   0  0  0  0  0  0  0  0  0  0  0  0
   -2.0377    1.8431    0.3168 O   0  0  0  0  0  0  0  0  0  0  0  0
   -0.1052    1.9265    1.4663 N   0  0  0  0  0  0  0  0  0  0  0  0
    0.7810    1.4586    1.6201 H   0  0  0  0  0  0  0  0  0  0  0  0
   -0.2724    3.2715    2.0119 C   0  0  0  0  0  0  0  0  0  0  0  0
   -1.3249    3.4549    2.2426 H   0  0  0  0  0  0  0  0  0  0  0  0
    0.3167    3.3776    2.9239 H   0  0  0  0  0  0  0  0  0  0  0  0
    0.0609    4.0073    1.2782 H   0  0  0  0  0  0  0  0  0  0  0  0
  5  6  2  0  0  0  0
  5  7  1  0  0  0  0
  2  3  1  0  0  0  0
  2  4  1  0  0  0  0
  2  5  1  0  0  0  0
  1  2  1  0  0  0  0
 22 23  2  0  0  0  0
 22 24  1  0  0  0  0
 20 21  1  0  0  0  0
 18 19  1  0  0  0  0
 18 20  1  0  0  0  0
 16 17  1  0  0  0  0
 16 18  1  0  0  0  0
 15 16  2  0  0  0  0
 14 15  1  0  0  0  0
 14 20  2  0  0  0  0
 11 12  1  0  0  0  0
 11 13  1  0  0  0  0
 11 14  1  0  0  0  0
  9 10  1  0  0  0  0
  9 11  1  0  0  0  0
  9 22  1  0  0  0  0
  7  8  1  0  0  0  0
  7  9  1  0  0  0  0
 26 27  1  0  0  0  0
 26 28  1  0  0  0  0
 26 29  1  0  0  0  0
 24 25  1  0  0  0  0
 24 26  1  0  0  0  0
M  END
$$$$
default_name
  -OEChem-02102213163D

 29 29  0     1  0  0  0  0  0999 V2000
   -2.9561   -3.9186    1.3887 H   0  0  0  0  0  0  0  0  0  0  0  0
   -3.1191   -2.9346    0.9517 C   0  0  0  0  0  0  0  0  0  0  0  0
   -3.7811   -2.3546    1.5917 H   0  0  0  0  0  0  0  0  0  0  0  0
   -3.5591   -3.0406   -0.0383 H   0  0  0  0  0  0  0  0  0  0  0  0
   -1.7921   -2.2226    0.8327 C   0  0  0  0  0  0  0  0  0  0  0  0
   -0.7611   -2.7766    1.1927 O   0  0  0  0  0  0  0  0  0  0  0  0
   -1.8201   -0.9926    0.3247 N   0  0  0  0  0  0  0  0  0  0  0  0
   -2.7141   -0.5816    0.0927 H   0  0  0  0  0  0  0  0  0  0  0  0
   -0.6481   -0.1156    0.2017 C   0  0  1  0  0  0  0  0  0  0  0  0
    0.1344   -0.4988    0.8596 H   0  0  0  0  0  0  0  0  0  0  0  0
   -0.1211   -0.1520   -1.2460 C   0  0  0  0  0  0  0  0  0  0  0  0
   -0.8700   -0.6003   -1.9004 H   0  0  0  0  0  0  0  0  0  0  0  0
    0.0574    0.8645   -1.5994 H   0  0  0  0  0  0  0  0  0  0  0  0
    1.1436   -0.9631   -1.3897 C   0  0  0  0  0  0  0  0  0  0  0  0
    1.2843   -2.3183   -1.0881 N   0  0  0  0  0  0  0  0  0  0  0  0
    2.5468   -2.6386   -1.4073 C   0  0  0  0  0  0  0  0  0  0  0  0
    2.9798   -3.6228   -1.2809 H   0  0  0  0  0  0  0  0  0  0  0  0
    3.1885   -1.5713   -1.9117 N   0  0  0  0  0  0  0  0  0  0  0  0
    4.1433   -1.5641   -2.2435 H   0  0  0  0  0  0  0  0  0  0  0  0
    2.3174   -0.5046   -1.9123 C   0  0  0  0  0  0  0  0  0  0  0  0
    2.5023    0.4998   -2.2721 H   0  0  0  0  0  0  0  0  0  0  0  0
   -0.9851    1.3114    0.6698 C   0  0  0  0  0  0  0  0  0  0  0  0
   -2.0377    1.8431    0.3168 O   0  0  0  0  0  0  0  0  0  0  0  0
   -0.1052    1.9265    1.4663 N   0  0  0  0  0  0  0  0  0  0  0  0
    0.7810    1.4586    1.6201 H   0  0  0  0  0  0  0  0  0  0  0  0
   -0.2724    3.2715    2.0119 C   0  0  0  0  0  0  0  0  0  0  0  0
   -1.3249    3.4549    2.2426 H   0  0  0  0  0  0  0  0  0  0  0  0
    0.3167    3.3776    2.9239 H   0  0  0  0  0  0  0  0  0  0  0  0
    0.0609    4.0073    1.2782 H   0  0  0  0  0  0  0  0  0  0  0  0
  5  6  2  0  0  0  0
  5  7  1  0  0  0  0
  2  3  1  0  0  0  0
  2  4  1  0  0  0  0
  2  5  1  0  0  0  0
  1  2  1  0  0  0  0
 22 23  2  0  0  0  0
 22 24  1  0  0  0  0
 20 21  1  0  0  0  0
 18 19  1  0  0  0  0
 18 20  1  0  0  0  0
 16 17  1  0  0  0  0
 16 18  1  0  0  0  0
 15 16  2  0  0  0  0
 14 15  1  0  0  0  0
 14 20  2  0  0  0  0
 11 12  1  0  0  0  0
 11 13  1  0  0  0  0
 11 14  1  0  0  0  0
  9 10  1  0  0  0  0
  9 11  1  0  0  0  0
  9 22  1  0  0  0  0
  7  8  1  0  0  0  0
  7  9  1  0  0  0  0
 26 27  1  0  0  0  0
 26 28  1  0  0  0  0
 26 29  1  0  0  0  0
 24 25  1  0  0  0  0
 24 26  1  0  0  0  0
M  END
$$$$
default_name
  -OEChem-02102213163D

 29 29  0     1  0  0  0  0  0999 V2000
   -2.9561   -3.9186    1.3887 H   0  0  0  0  0  0  0  0  0  0  0  0
   -3.1191   -2.9346    0.9517 C   0  0  0  0  0  0  0  0  0  0  0  0
   -3.7811   -2.3546    1.5917 H   0  0  0  0  0  0  0  0  0  0  0  0
   -3.5591   -3.0406   -0.0383 H   0  0  0  0  0  0  0  0  0  0  0  0
   -1.7921   -2.2226    0.8327 C   0  0  0  0  0  0  0  0  0  0  0  0
   -0.7611   -2.7766    1.1927 O   0  0  0  0  0  0  0  0  0  0  0  0
   -1.8201   -0.9926    0.3247 N   0  0  0  0  0  0  0  0  0  0  0  0
   -2.7141   -0.5816    0.0927 H   0  0  0  0  0  0  0  0  0  0  0  0
   -0.6481   -0.1156    0.2017 C   0  0  1  0  0  0  0  0  0  0  0  0
    0.1344   -0.4988    0.8596 H   0  0  0  0  0  0  0  0  0  0  0  0
   -0.1211   -0.1520   -1.2460 C   0  0  0  0  0  0  0  0  0  0  0  0
   -0.8700   -0.6003   -1.9004 H   0  0  0  0  0  0  0  0  0  0  0  0
    0.0574    0.8645   -1.5994 H   0  0  0  0  0  0  0  0  0  0  0  0
    1.1436   -0.9631   -1.3897 C   0  0  0  0  0  0  0  0  0  0  0  0
    1.2275   -2.3560   -1.3753 N   0  0  0  0  0  0  0  0  0  0  0  0
    2.5195   -2.6503   -1.5816 C   0  0  0  0  0  0  0  0  0  0  0  0
    2.9210   -3.6552   -1.6156 H   0  0  0  0  0  0  0  0  0  0  0  0
    3.2361   -1.5260   -1.7481 N   0  0  0  0  0  0  0  0  0  0  0  0
    4.2284   -1.4858   -1.9370 H   0  0  0  0  0  0  0  0  0  0  0  0
    2.3839   -0.4502   -1.6343 C   0  0  0  0  0  0  0  0  0  0  0  0
    2.6272    0.5998   -1.7372 H   0  0  0  0  0  0  0  0  0  0  0  0
   -0.9851    1.3114    0.6698 C   0  0  0  0  0  0  0  0  0  0  0  0
   -2.0377    1.8431    0.3168 O   0  0  0  0  0  0  0  0  0  0  0  0
   -0.1052    1.9265    1.4663 N   0  0  0  0  0  0  0  0  0  0  0  0
    0.7810    1.4586    1.6201 H   0  0  0  0  0  0  0  0  0  0  0  0
   -0.2724    3.2715    2.0119 C   0  0  0  0  0  0  0  0  0  0  0  0
   -1.3249    3.4549    2.2426 H   0  0  0  0  0  0  0  0  0  0  0  0
    0.3167    3.3776    2.9239 H   0  0  0  0  0  0  0  0  0  0  0  0
    0.0609    4.0073    1.2782 H   0  0  0  0  0  0  0  0  0  0  0  0
  5  6  2  0  0  0  0
  5  7  1  0  0  0  0
  2  3  1  0  0  0  0
  2  4  1  0  0  0  0
  2  5  1  0  0  0  0
  1  2  1  0  0  0  0
 22 23  2  0  0  0  0
 22 24  1  0  0  0  0
 20 21  1  0  0  0  0
 18 19  1  0  0  0  0
 18 20  1  0  0  0  0
 16 17  1  0  0  0  0
 16 18  1  0  0  0  0
 15 16  2  0  0  0  0
 14 15  1  0  0  0  0
 14 20  2  0  0  0  0
 11 12  1  0  0  0  0
 11 13  1  0  0  0  0
 11 14  1  0  0  0  0
  9 10  1  0  0  0  0
  9 11  1  0  0  0  0
  9 22  1  0  0  0  0
  7  8  1  0  0  0  0
  7  9  1  0  0  0  0
 26 27  1  0  0  0  0
 26 28  1  0  0  0  0
 26 29  1  0  0  0  0
 24 25  1  0  0  0  0
 24 26  1  0  0  0  0
M  END
$$$$
default_name
  -OEChem-02102213163D

 29 29  0     1  0  0  0  0  0999 V2000
   -2.9561   -3.9186    1.3887 H   0  0  0  0  0  0  0  0  0  0  0  0
   -3.1191   -2.9346    0.9517 C   0  0  0  0  0  0  0  0  0  0  0  0
   -3.7811   -2.3546    1.5917 H   0  0  0  0  0  0  0  0  0  0  0  0
   -3.5591   -3.0406   -0.0383 H   0  0  0  0  0  0  0  0  0  0  0  0
   -1.7921   -2.2226    0.8327 C   0  0  0  0  0  0  0  0  0  0  0  0
   -0.7611   -2.7766    1.1927 O   0  0  0  0  0  0  0  0  0  0  0  0
   -1.8201   -0.9926    0.3247 N   0  0  0  0  0  0  0  0  0  0  0  0
   -2.7141   -0.5816    0.0927 H   0  0  0  0  0  0  0  0  0  0  0  0
   -0.6481   -0.1156    0.2017 C   0  0  1  0  0  0  0  0  0  0  0  0
    0.1344   -0.4988    0.8596 H   0  0  0  0  0  0  0  0  0  0  0  0
   -0.1211   -0.1520   -1.2460 C   0  0  0  0  0  0  0  0  0  0  0  0
   -0.8700   -0.6003   -1.9004 H   0  0  0  0  0  0  0  0  0  0  0  0
    0.0574    0.8645   -1.5994 H   0  0  0  0  0  0  0  0  0  0  0  0
    1.1436   -0.9631   -1.3897 C   0  0  0  0  0  0  0  0  0  0  0  0
    1.2117   -2.3287   -1.6689 N   0  0  0  0  0  0  0  0  0  0  0  0
    2.5170   -2.6231   -1.7564 C   0  0  0  0  0  0  0  0  0  0  0  0
    2.9099   -3.6125   -1.9541 H   0  0  0  0  0  0  0  0  0  0  0  0
    3.2605   -1.5189   -1.5737 N   0  0  0  0  0  0  0  0  0  0  0  0
    4.2698   -1.4788   -1.6121 H   0  0  0  0  0  0  0  0  0  0  0  0
    2.4108   -0.4596   -1.3448 C   0  0  0  0  0  0  0  0  0  0  0  0
    2.6760    0.5774   -1.1814 H   0  0  0  0  0  0  0  0  0  0  0  0
   -0.9851    1.3114    0.6698 C   0  0  0  0  0  0  0  0  0  0  0  0
   -2.0377    1.8431    0.3168 O   0  0  0  0  0  0  0  0  0  0  0  0
   -0.1052    1.9265    1.4663 N   0  0  0  0  0  0  0  0  0  0  0  0
    0.7810    1.4586    1.6201 H   0  0  0  0  0  0  0  0  0  0  0  0
   -0.2724    3.2715    2.0119 C   0  0  0  0  0  0  0  0  0  0  0  0
   -1.3249    3.4549    2.2426 H   0  0  0  0  0  0  0  0  0  0  0  0
    0.3167    3.3776    2.9239 H   0  0  0  0  0  0  0  0  0  0  0  0
    0.0609    4.0073    1.2782 H   0  0  0  0  0  0  0  0  0  0  0  0
  5  6  2  0  0  0  0
  5  7  1  0  0  0  0
  2  3  1  0  0  0  0
  2  4  1  0  0  0  0
  2  5  1  0  0  0  0
  1  2  1  0  0  0  0
 22 23  2  0  0  0  0
 22 24  1  0  0  0  0
 20 21  1  0  0  0  0
 18 19  1  0  0  0  0
 18 20  1  0  0  0  0
 16 17  1  0  0  0  0
 16 18  1  0  0  0  0
 15 16  2  0  0  0  0
 14 15  1  0  0  0  0
 14 20  2  0  0  0  0
 11 12  1  0  0  0  0
 11 13  1  0  0  0  0
 11 14  1  0  0  0  0
  9 10  1  0  0  0  0
  9 11  1  0  0  0  0
  9 22  1  0  0  0  0
  7  8  1  0  0  0  0
  7  9  1  0  0  0  0
 26 27  1  0  0  0  0
 26 28  1  0  0  0  0
 26 29  1  0  0  0  0
 24 25  1  0  0  0  0
 24 26  1  0  0  0  0
M  END
$$$$
default_name
  -OEChem-02102213163D

 29 29  0     1  0  0  0  0  0999 V2000
   -2.9561   -3.9186    1.3887 H   0  0  0  0  0  0  0  0  0  0  0  0
   -3.1191   -2.9346    0.9517 C   0  0  0  0  0  0  0  0  0  0  0  0
   -3.7811   -2.3546    1.5917 H   0  0  0  0  0  0  0  0  0  0  0  0
   -3.5591   -3.0406   -0.0383 H   0  0  0  0  0  0  0  0  0  0  0  0
   -1.7921   -2.2226    0.8327 C   0  0  0  0  0  0  0  0  0  0  0  0
   -0.7611   -2.7766    1.1927 O   0  0  0  0  0  0  0  0  0  0  0  0
   -1.8201   -0.9926    0.3247 N   0  0  0  0  0  0  0  0  0  0  0  0
   -2.7141   -0.5816    0.0927 H   0  0  0  0  0  0  0  0  0  0  0  0
   -0.6481   -0.1156    0.2017 C   0  0  1  0  0  0  0  0  0  0  0  0
    0.1344   -0.4988    0.8596 H   0  0  0  0  0  0  0  0  0  0  0  0
   -0.1211   -0.1520   -1.2460 C   0  0  0  0  0  0  0  0  0  0  0  0
   -0.8700   -0.6003   -1.9004 H   0  0  0  0  0  0  0  0  0  0  0  0
    0.0574    0.8645   -1.5994 H   0  0  0  0  0  0  0  0  0  0  0  0
    1.1436   -0.9631   -1.3897 C   0  0  0  0  0  0  0  0  0  0  0  0
    1.2379   -2.2383   -1.9487 N   0  0  0  0  0  0  0  0  0  0  0  0
    2.5396   -2.5589   -1.9196 C   0  0  0  0  0  0  0  0  0  0  0  0
    2.9474   -3.4975   -2.2733 H   0  0  0  0  0  0  0  0  0  0  0  0
    3.2599   -1.5505   -1.4003 N   0  0  0  0  0  0  0  0  0  0  0  0
    4.2648   -1.5435   -1.2910 H   0  0  0  0  0  0  0  0  0  0  0  0
    2.3962   -0.5321   -1.0634 C   0  0  0  0  0  0  0  0  0  0  0  0
    2.6452    0.4340   -0.6427 H   0  0  0  0  0  0  0  0  0  0  0  0
   -0.9851    1.3114    0.6698 C   0  0  0  0  0  0  0  0  0  0  0  0
   -2.0377    1.8431    0.3168 O   0  0  0  0  0  0  0  0  0  0  0  0
   -0.1052    1.9265    1.4663 N   0  0  0  0  0  0  0  0  0  0  0  0
    0.7810    1.4586    1.6201 H   0  0  0  0  0  0  0  0  0  0  0  0
   -0.2724    3.2715    2.0119 C   0  0  0  0  0  0  0  0  0  0  0  0
   -1.3249    3.4549    2.2426 H   0  0  0  0  0  0  0  0  0  0  0  0
    0.3167    3.3776    2.9239 H   0  0  0  0  0  0  0  0  0  0  0  0
    0.0609    4.0073    1.2782 H   0  0  0  0  0  0  0  0  0  0  0  0
  5  6  2  0  0  0  0
  5  7  1  0  0  0  0
  2  3  1  0  0  0  0
  2  4  1  0  0  0  0
  2  5  1  0  0  0  0
  1  2  1  0  0  0  0
 22 23  2  0  0  0  0
 22 24  1  0  0  0  0
 20 21  1  0  0  0  0
 18 19  1  0  0  0  0
 18 20  1  0  0  0  0
 16 17  1  0  0  0  0
 16 18  1  0  0  0  0
 15 16  2  0  0  0  0
 14 15  1  0  0  0  0
 14 20  2  0  0  0  0
 11 12  1  0  0  0  0
 11 13  1  0  0  0  0
 11 14  1  0  0  0  0
  9 10  1  0  0  0  0
  9 11  1  0  0  0  0
  9 22  1  0  0  0  0
  7  8  1  0  0  0  0
  7  9  1  0  0  0  0
 26 27  1  0  0  0  0
 26 28  1  0  0  0  0
 26 29  1  0  0  0  0
 24 25  1  0  0  0  0
 24 26  1  0  0  0  0
M  END
$$$$
default_name
  -OEChem-02102213163D

 29 29  0     1  0  0  0  0  0999 V2000
   -2.9561   -3.9186    1.3887 H   0  0  0  0  0  0  0  0  0  0  0  0
   -3.1191   -2.9346    0.9517 C   0  0  0  0  0  0  0  0  0  0  0  0
   -3.7811   -2.3546    1.5917 H   0  0  0  0  0  0  0  0  0  0  0  0
   -3.5591   -3.0406   -0.0383 H   0  0  0  0  0  0  0  0  0  0  0  0
   -1.7921   -2.2226    0.8327 C   0  0  0  0  0  0  0  0  0  0  0  0
   -0.7611   -2.7766    1.1927 O   0  0  0  0  0  0  0  0  0  0  0  0
   -1.8201   -0.9926    0.3247 N   0  0  0  0  0  0  0  0  0  0  0  0
   -2.7141   -0.5816    0.0927 H   0  0  0  0  0  0  0  0  0  0  0  0
   -0.6481   -0.1156    0.2017 C   0  0  1  0  0  0  0  0  0  0  0  0
    0.1344   -0.4988    0.8596 H   0  0  0  0  0  0  0  0  0  0  0  0
   -0.1211   -0.1520   -1.2460 C   0  0  0  0  0  0  0  0  0  0  0  0
   -0.8700   -0.6003   -1.9004 H   0  0  0  0  0  0  0  0  0  0  0  0
    0.0574    0.8645   -1.5994 H   0  0  0  0  0  0  0  0  0  0  0  0
    1.1436   -0.9631   -1.3897 C   0  0  0  0  0  0  0  0  0  0  0  0
    1.3043   -2.0909   -2.1957 N   0  0  0  0  0  0  0  0  0  0  0  0
    2.5858   -2.4621   -2.0602 C   0  0  0  0  0  0  0  0  0  0  0  0
    3.0308   -3.3181   -2.5515 H   0  0  0  0  0  0  0  0  0  0  0  0
    3.2345   -1.6186   -1.2398 N   0  0  0  0  0  0  0  0  0  0  0  0
    4.2137   -1.6754   -0.9955 H   0  0  0  0  0  0  0  0  0  0  0  0
    2.3413   -0.6629   -0.8094 C   0  0  0  0  0  0  0  0  0  0  0  0
    2.5370    0.1794   -0.1577 H   0  0  0  0  0  0  0  0  0  0  0  0
   -0.9851    1.3114    0.6698 C   0  0  0  0  0  0  0  0  0  0  0  0
   -2.0377    1.8431    0.3168 O   0  0  0  0  0  0  0  0  0  0  0  0
   -0.1052    1.9265    1.4663 N   0  0  0  0  0  0  0  0  0  0  0  0
    0.7810    1.4586    1.6201 H   0  0  0  0  0  0  0  0  0  0  0  0
   -0.2724    3.2715    2.0119 C   0  0  0  0  0  0  0  0  0  0  0  0
   -1.3249    3.4549    2.2426 H   0  0  0  0  0  0  0  0  0  0  0  0
    0.3167    3.3776    2.9239 H   0  0  0  0  0  0  0  0  0  0  0  0
    0.0609    4.0073    1.2782 H   0  0  0  0  0  0  0  0  0  0  0  0
  5  6  2  0  0  0  0
  5  7  1  0  0  0  0
  2  3  1  0  0  0  0
  2  4  1  0  0  0  0
  2  5  1  0  0  0  0
  1  2  1  0  0  0  0
 22 23  2  0  0  0  0
 22 24  1  0  0  0  0
 20 21  1  0  0  0  0
 18 19  1  0  0  0  0
 18 20  1  0  0  0  0
 16 17  1  0  0  0  0
 16 18  1  0  0  0  0
 15 16  2  0  0  0  0
 14 15  1  0  0  0  0
 14 20  2  0  0  0  0
 11 12  1  0  0  0  0
 11 13  1  0  0  0  0
 11 14  1  0  0  0  0
  9 10  1  0  0  0  0
  9 11  1  0  0  0  0
  9 22  1  0  0  0  0
  7  8  1  0  0  0  0
  7  9  1  0  0  0  0
 26 27  1  0  0  0  0
 26 28  1  0  0  0  0
 26 29  1  0  0  0  0
 24 25  1  0  0  0  0
 24 26  1  0  0  0  0
M  END
$$$$
default_name
  -OEChem-02102213163D

 29 29  0     1  0  0  0  0  0999 V2000
   -2.9561   -3.9186    1.3887 H   0  0  0  0  0  0  0  0  0  0  0  0
   -3.1191   -2.9346    0.9517 C   0  0  0  0  0  0  0  0  0  0  0  0
   -3.7811   -2.3546    1.5917 H   0  0  0  0  0  0  0  0  0  0  0  0
   -3.5591   -3.0406   -0.0383 H   0  0  0  0  0  0  0  0  0  0  0  0
   -1.7921   -2.2226    0.8327 C   0  0  0  0  0  0  0  0  0  0  0  0
   -0.7611   -2.7766    1.1927 O   0  0  0  0  0  0  0  0  0  0  0  0
   -1.8201   -0.9926    0.3247 N   0  0  0  0  0  0  0  0  0  0  0  0
   -2.7141   -0.5816    0.0927 H   0  0  0  0  0  0  0  0  0  0  0  0
   -0.6481   -0.1156    0.2017 C   0  0  1  0  0  0  0  0  0  0  0  0
    0.1344   -0.4988    0.8596 H   0  0  0  0  0  0  0  0  0  0  0  0
   -0.1211   -0.1520   -1.2460 C   0  0  0  0  0  0  0  0  0  0  0  0
   -0.8700   -0.6003   -1.9004 H   0  0  0  0  0  0  0  0  0  0  0  0
    0.0574    0.8645   -1.5994 H   0  0  0  0  0  0  0  0  0  0  0  0
    1.1436   -0.9631   -1.3897 C   0  0  0  0  0  0  0  0  0  0  0  0
    1.4065   -1.8966   -2.3931 N   0  0  0  0  0  0  0  0  0  0  0  0
    2.6523   -2.3392   -2.1685 C   0  0  0  0  0  0  0  0  0  0  0  0
    3.1545   -3.0866   -2.7697 H   0  0  0  0  0  0  0  0  0  0  0  0
    3.1859   -1.7186   -1.1030 N   0  0  0  0  0  0  0  0  0  0  0  0
    4.1201   -1.8658   -0.7459 H   0  0  0  0  0  0  0  0  0  0  0  0
    2.2496   -0.8429   -0.6000 C   0  0  0  0  0  0  0  0  0  0  0  0
    2.3588   -0.1691    0.2405 H   0  0  0  0  0  0  0  0  0  0  0  0
   -0.9851    1.3114    0.6698 C   0  0  0  0  0  0  0  0  0  0  0  0
   -2.0377    1.8431    0.3168 O   0  0  0  0  0  0  0  0  0  0  0  0
   -0.1052    1.9265    1.4663 N   0  0  0  0  0  0  0  0  0  0  0  0
    0.7810    1.4586    1.6201 H   0  0  0  0  0  0  0  0  0  0  0  0
   -0.2724    3.2715    2.0119 C   0  0  0  0  0  0  0  0  0  0  0  0
   -1.3249    3.4549    2.2426 H   0  0  0  0  0  0  0  0  0  0  0  0
    0.3167    3.3776    2.9239 H   0  0  0  0  0  0  0  0  0  0  0  0
    0.0609    4.0073    1.2782 H   0  0  0  0  0  0  0  0  0  0  0  0
  5  6  2  0  0  0  0
  5  7  1  0  0  0  0
  2  3  1  0  0  0  0
  2  4  1  0  0  0  0
  2  5  1  0  0  0  0
  1  2  1  0  0  0  0
 22 23  2  0  0  0  0
 22 24  1  0  0  0  0
 20 21  1  0  0  0  0
 18 19  1  0  0  0  0
 18 20  1  0  0  0  0
 16 17  1  0  0  0  0
 16 18  1  0  0  0  0
 15 16  2  0  0  0  0
 14 15  1  0  0  0  0
 14 20  2  0  0  0  0
 11 12  1  0  0  0  0
 11 13  1  0  0  0  0
 11 14  1  0  0  0  0
  9 10  1  0  0  0  0
  9 11  1  0  0  0  0
  9 22  1  0  0  0  0
  7  8  1  0  0  0  0
  7  9  1  0  0  0  0
 26 27  1  0  0  0  0
 26 28  1  0  0  0  0
 26 29  1  0  0  0  0
 24 25  1  0  0  0  0
 24 26  1  0  0  0  0
M  END
$$$$
default_name
  -OEChem-02102213163D

 29 29  0     1  0  0  0  0  0999 V2000
   -2.9561   -3.9186    1.3887 H   0  0  0  0  0  0  0  0  0  0  0  0
   -3.1191   -2.9346    0.9517 C   0  0  0  0  0  0  0  0  0  0  0  0
   -3.7811   -2.3546    1.5917 H   0  0  0  0  0  0  0  0  0  0  0  0
   -3.5591   -3.0406   -0.0383 H   0  0  0  0  0  0  0  0  0  0  0  0
   -1.7921   -2.2226    0.8327 C   0  0  0  0  0  0  0  0  0  0  0  0
   -0.7611   -2.7766    1.1927 O   0  0  0  0  0  0  0  0  0  0  0  0
   -1.8201   -0.9926    0.3247 N   0  0  0  0  0  0  0  0  0  0  0  0
   -2.7141   -0.5816    0.0927 H   0  0  0  0  0  0  0  0  0  0  0  0
   -0.6481   -0.1156    0.2017 C   0  0  1  0  0  0  0  0  0  0  0  0
    0.1344   -0.4988    0.8596 H   0  0  0  0  0  0  0  0  0  0  0  0
   -0.1211   -0.1520   -1.2460 C   0  0  0  0  0  0  0  0  0  0  0  0
   -0.8700   -0.6003   -1.9004 H   0  0  0  0  0  0  0  0  0  0  0  0
    0.0574    0.8645   -1.5994 H   0  0  0  0  0  0  0  0  0  0  0  0
    1.1436   -0.9631   -1.3897 C   0  0  0  0  0  0  0  0  0  0  0  0
    1.5375   -1.6686   -2.5275 N   0  0  0  0  0  0  0  0  0  0  0  0
    2.7346   -2.1987   -2.2373 C   0  0  0  0  0  0  0  0  0  0  0  0
    3.3101   -2.8187   -2.9131 H   0  0  0  0  0  0  0  0  0  0  0  0
    3.1175   -1.8437   -0.9993 N   0  0  0  0  0  0  0  0  0  0  0  0
    3.9902   -2.1014   -0.5590 H   0  0  0  0  0  0  0  0  0  0  0  0
    2.1275   -1.0599   -0.4496 C   0  0  0  0  0  0  0  0  0  0  0  0
    2.1227   -0.5876    0.5247 H   0  0  0  0  0  0  0  0  0  0  0  0
   -0.9851    1.3114    0.6698 C   0  0  0  0  0  0  0  0  0  0  0  0
   -2.0377    1.8431    0.3168 O   0  0  0  0  0  0  0  0  0  0  0  0
   -0.1052    1.9265    1.4663 N   0  0  0  0  0  0  0  0  0  0  0  0
    0.7810    1.4586    1.6201 H   0  0  0  0  0  0  0  0  0  0  0  0
   -0.2724    3.2715    2.0119 C   0  0  0  0  0  0  0  0  0  0  0  0
   -1.3249    3.4549    2.2426 H   0  0  0  0  0  0  0  0  0  0  0  0
    0.3167    3.3776    2.9239 H   0  0  0  0  0  0  0  0  0  0  0  0
    0.0609    4.0073    1.2782 H   0  0  0  0  0  0  0  0  0  0  0  0
  5  6  2  0  0  0  0
  5  7  1  0  0  0  0
  2  3  1  0  0  0  0
  2  4  1  0  0  0  0
  2  5  1  0  0  0  0
  1  2  1  0  0  0  0
 22 23  2  0  0  0  0
 22 24  1  0  0  0  0
 20 21  1  0  0  0  0
 18 19  1  0  0  0  0
 18 20  1  0  0  0  0
 16 17  1  0  0  0  0
 16 18  1  0  0  0  0
 15 16  2  0  0  0  0
 14 15  1  0  0  0  0
 14 20  2  0  0  0  0
 11 12  1  0  0  0  0
 11 13  1  0  0  0  0
 11 14  1  0  0  0  0
  9 10  1  0  0  0  0
  9 11  1  0  0  0  0
  9 22  1  0  0  0  0
  7  8  1  0  0  0  0
  7  9  1  0  0  0  0
 26 27  1  0  0  0  0
 26 28  1  0  0  0  0
 26 29  1  0  0  0  0
 24 25  1  0  0  0  0
 24 26  1  0  0  0  0
M  END
$$$$
default_name
  -OEChem-02102213163D

 29 29  0     1  0  0  0  0  0999 V2000
   -2.9561   -3.9186    1.3887 H   0  0  0  0  0  0  0  0  0  0  0  0
   -3.1191   -2.9346    0.9517 C   0  0  0  0  0  0  0  0  0  0  0  0
   -3.7811   -2.3546    1.5917 H   0  0  0  0  0  0  0  0  0  0  0  0
   -3.5591   -3.0406   -0.0383 H   0  0  0  0  0  0  0  0  0  0  0  0
   -1.7921   -2.2226    0.8327 C   0  0  0  0  0  0  0  0  0  0  0  0
   -0.7611   -2.7766    1.1927 O   0  0  0  0  0  0  0  0  0  0  0  0
   -1.8201   -0.9926    0.3247 N   0  0  0  0  0  0  0  0  0  0  0  0
   -2.7141   -0.5816    0.0927 H   0  0  0  0  0  0  0  0  0  0  0  0
   -0.6481   -0.1156    0.2017 C   0  0  1  0  0  0  0  0  0  0  0  0
    0.1344   -0.4988    0.8596 H   0  0  0  0  0  0  0  0  0  0  0  0
   -0.1211   -0.1520   -1.2460 C   0  0  0  0  0  0  0  0  0  0  0  0
   -0.8700   -0.6003   -1.9004 H   0  0  0  0  0  0  0  0  0  0  0  0
    0.0574    0.8645   -1.5994 H   0  0  0  0  0  0  0  0  0  0  0  0
    1.1436   -0.9631   -1.3897 C   0  0  0  0  0  0  0  0  0  0  0  0
    1.6883   -1.4225   -2.5896 N   0  0  0  0  0  0  0  0  0  0  0  0
    2.8272   -2.0500   -2.2618 C   0  0  0  0  0  0  0  0  0  0  0  0
    3.4869   -2.5326   -2.9719 H   0  0  0  0  0  0  0  0  0  0  0  0
    3.0339   -1.9852   -0.9358 N   0  0  0  0  0  0  0  0  0  0  0  0
    3.8329   -2.3664   -0.4477 H   0  0  0  0  0  0  0  0  0  0  0  0
    1.9833   -1.2991   -0.3683 C   0  0  0  0  0  0  0  0  0  0  0  0
    1.8447   -1.0477    0.6757 H   0  0  0  0  0  0  0  0  0  0  0  0
   -0.9851    1.3114    0.6698 C   0  0  0  0  0  0  0  0  0  0  0  0
   -2.0377    1.8431    0.3168 O   0  0  0  0  0  0  0  0  0  0  0  0
   -0.1052    1.9265    1.4663 N   0  0  0  0  0  0  0  0  0  0  0  0
    0.7810    1.4586    1.6201 H   0  0  0  0  0  0  0  0  0  0  0  0
   -0.2724    3.2715    2.0119 C   0  0  0  0  0  0  0  0  0  0  0  0
   -1.3249    3.4549    2.2426 H   0  0  0  0  0  0  0  0  0  0  0  0
    0.3167    3.3776    2.9239 H   0  0  0  0  0  0  0  0  0  0  0  0
    0.0609    4.0073    1.2782 H   0  0  0  0  0  0  0  0  0  0  0  0
  5  6  2  0  0  0  0
  5  7  1  0  0  0  0
  2  3  1  0  0  0  0
  2  4  1  0  0  0  0
  2  5  1  0  0  0  0
  1  2  1  0  0  0  0
 22 23  2  0  0  0  0
 22 24  1  0  0  0  0
 20 21  1  0  0  0  0
 18 19  1  0  0  0  0
 18 20  1  0  0  0  0
 16 17  1  0  0  0  0
 16 18  1  0  0  0  0
 15 16  2  0  0  0  0
 14 15  1  0  0  0  0
 14 20  2  0  0  0  0
 11 12  1  0  0  0  0
 11 13  1  0  0  0  0
 11 14  1  0  0  0  0
  9 10  1  0  0  0  0
  9 11  1  0  0  0  0
  9 22  1  0  0  0  0
  7  8  1  0  0  0  0
  7  9  1  0  0  0  0
 26 27  1  0  0  0  0
 26 28  1  0  0  0  0
 26 29  1  0  0  0  0
 24 25  1  0  0  0  0
 24 26  1  0  0  0  0
M  END
$$$$
default_name
  -OEChem-02102213163D

 29 29  0     1  0  0  0  0  0999 V2000
   -2.9561   -3.9186    1.3887 H   0  0  0  0  0  0  0  0  0  0  0  0
   -3.1191   -2.9346    0.9517 C   0  0  0  0  0  0  0  0  0  0  0  0
   -3.7811   -2.3546    1.5917 H   0  0  0  0  0  0  0  0  0  0  0  0
   -3.5591   -3.0406   -0.0383 H   0  0  0  0  0  0  0  0  0  0  0  0
   -1.7921   -2.2226    0.8327 C   0  0  0  0  0  0  0  0  0  0  0  0
   -0.7611   -2.7766    1.1927 O   0  0  0  0  0  0  0  0  0  0  0  0
   -1.8201   -0.9926    0.3247 N   0  0  0  0  0  0  0  0  0  0  0  0
   -2.7141   -0.5816    0.0927 H   0  0  0  0  0  0  0  0  0  0  0  0
   -0.6481   -0.1156    0.2017 C   0  0  1  0  0  0  0  0  0  0  0  0
    0.1344   -0.4988    0.8596 H   0  0  0  0  0  0  0  0  0  0  0  0
   -0.1211   -0.1520   -1.2460 C   0  0  0  0  0  0  0  0  0  0  0  0
   -0.9452   -0.3453   -1.9342 H   0  0  0  0  0  0  0  0  0  0  0  0
    0.3049    0.8175   -1.5081 H   0  0  0  0  0  0  0  0  0  0  0  0
    0.9110   -1.2307   -1.4677 C   0  0  0  0  0  0  0  0  0  0  0  0
    1.5636   -1.5030   -2.6707 N   0  0  0  0  0  0  0  0  0  0  0  0
    2.4237   -2.4976   -2.4075 C   0  0  0  0  0  0  0  0  0  0  0  0
    3.0786   -2.9512   -3.1407 H   0  0  0  0  0  0  0  0  0  0  0  0
    2.3618   -2.8404   -1.1098 N   0  0  0  0  0  0  0  0  0  0  0  0
    2.9262   -3.5503   -0.6635 H   0  0  0  0  0  0  0  0  0  0  0  0
    1.4150   -2.0486   -0.4990 C   0  0  0  0  0  0  0  0  0  0  0  0
    1.1292   -2.0460    0.5454 H   0  0  0  0  0  0  0  0  0  0  0  0
   -0.9851    1.3114    0.6698 C   0  0  0  0  0  0  0  0  0  0  0  0
   -2.0377    1.8431    0.3168 O   0  0  0  0  0  0  0  0  0  0  0  0
   -0.1052    1.9265    1.4663 N   0  0  0  0  0  0  0  0  0  0  0  0
    0.7810    1.4586    1.6201 H   0  0  0  0  0  0  0  0  0  0  0  0
   -0.2724    3.2715    2.0119 C   0  0  0  0  0  0  0  0  0  0  0  0
   -1.3249    3.4549    2.2426 H   0  0  0  0  0  0  0  0  0  0  0  0
    0.3167    3.3776    2.9239 H   0  0  0  0  0  0  0  0  0  0  0  0
    0.0609    4.0073    1.2782 H   0  0  0  0  0  0  0  0  0  0  0  0
  5  6  2  0  0  0  0
  5  7  1  0  0  0  0
  2  3  1  0  0  0  0
  2  4  1  0  0  0  0
  2  5  1  0  0  0  0
  1  2  1  0  0  0  0
 22 23  2  0  0  0  0
 22 24  1  0  0  0  0
 20 21  1  0  0  0  0
 18 19  1  0  0  0  0
 18 20  1  0  0  0  0
 16 17  1  0  0  0  0
 16 18  1  0  0  0  0
 15 16  2  0  0  0  0
 14 15  1  0  0  0  0
 14 20  2  0  0  0  0
 11 12  1  0  0  0  0
 11 13  1  0  0  0  0
 11 14  1  0  0  0  0
  9 10  1  0  0  0  0
  9 11  1  0  0  0  0
  9 22  1  0  0  0  0
  7  8  1  0  0  0  0
  7  9  1  0  0  0  0
 26 27  1  0  0  0  0
 26 28  1  0  0  0  0
 26 29  1  0  0  0  0
 24 25  1  0  0  0  0
 24 26  1  0  0  0  0
M  END
$$$$
default_name
  -OEChem-02102213163D

 29 29  0     1  0  0  0  0  0999 V2000
   -2.9561   -3.9186    1.3887 H   0  0  0  0  0  0  0  0  0  0  0  0
   -3.1191   -2.9346    0.9517 C   0  0  0  0  0  0  0  0  0  0  0  0
   -3.7811   -2.3546    1.5917 H   0  0  0  0  0  0  0  0  0  0  0  0
   -3.5591   -3.0406   -0.0383 H   0  0  0  0  0  0  0  0  0  0  0  0
   -1.7921   -2.2226    0.8327 C   0  0  0  0  0  0  0  0  0  0  0  0
   -0.7611   -2.7766    1.1927 O   0  0  0  0  0  0  0  0  0  0  0  0
   -1.8201   -0.9926    0.3247 N   0  0  0  0  0  0  0  0  0  0  0  0
   -2.7141   -0.5816    0.0927 H   0  0  0  0  0  0  0  0  0  0  0  0
   -0.6481   -0.1156    0.2017 C   0  0  1  0  0  0  0  0  0  0  0  0
    0.1344   -0.4988    0.8596 H   0  0  0  0  0  0  0  0  0  0  0  0
   -0.1211   -0.1520   -1.2460 C   0  0  0  0  0  0  0  0  0  0  0  0
   -0.9452   -0.3453   -1.9342 H   0  0  0  0  0  0  0  0  0  0  0  0
    0.3049    0.8175   -1.5081 H   0  0  0  0  0  0  0  0  0  0  0  0
    0.9110   -1.2307   -1.4677 C   0  0  0  0  0  0  0  0  0  0  0  0
    1.7726   -1.3255   -2.5613 N   0  0  0  0  0  0  0  0  0  0  0  0
    2.5462   -2.3962   -2.3303 C   0  0  0  0  0  0  0  0  0  0  0  0
    3.3178   -2.7509   -3.0020 H   0  0  0  0  0  0  0  0  0  0  0  0
    2.2337   -2.9549   -1.1490 N   0  0  0  0  0  0  0  0  0  0  0  0
    2.6886   -3.7613   -0.7432 H   0  0  0  0  0  0  0  0  0  0  0  0
    1.2058   -2.2305   -0.5875 C   0  0  0  0  0  0  0  0  0  0  0  0
    0.7285   -2.3935    0.3706 H   0  0  0  0  0  0  0  0  0  0  0  0
   -0.9851    1.3114    0.6698 C   0  0  0  0  0  0  0  0  0  0  0  0
   -2.0377    1.8431    0.3168 O   0  0  0  0  0  0  0  0  0  0  0  0
   -0.1052    1.9265    1.4663 N   0  0  0  0  0  0  0  0  0  0  0  0
    0.7810    1.4586    1.6201 H   0  0  0  0  0  0  0  0  0  0  0  0
   -0.2724    3.2715    2.0119 C   0  0  0  0  0  0  0  0  0  0  0  0
   -1.3249    3.4549    2.2426 H   0  0  0  0  0  0  0  0  0  0  0  0
    0.3167    3.3776    2.9239 H   0  0  0  0  0  0  0  0  0  0  0  0
    0.0609    4.0073    1.2782 H   0  0  0  0  0  0  0  0  0  0  0  0
  5  6  2  0  0  0  0
  5  7  1  0  0  0  0
  2  3  1  0  0  0  0
  2  4  1  0  0  0  0
  2  5  1  0  0  0  0
  1  2  1  0  0  0  0
 22 23  2  0  0  0  0
 22 24  1  0  0  0  0
 20 21  1  0  0  0  0
 18 19  1  0  0  0  0
 18 20  1  0  0  0  0
 16 17  1  0  0  0  0
 16 18  1  0  0  0  0
 15 16  2  0  0  0  0
 14 15  1  0  0  0  0
 14 20  2  0  0  0  0
 11 12  1  0  0  0  0
 11 13  1  0  0  0  0
 11 14  1  0  0  0  0
  9 10  1  0  0  0  0
  9 11  1  0  0  0  0
  9 22  1  0  0  0  0
  7  8  1  0  0  0  0
  7  9  1  0  0  0  0
 26 27  1  0  0  0  0
 26 28  1  0  0  0  0
 26 29  1  0  0  0  0
 24 25  1  0  0  0  0
 24 26  1  0  0  0  0
M  END
$$$$
default_name
  -OEChem-02102213163D

 29 29  0     1  0  0  0  0  0999 V2000
   -2.9561   -3.9186    1.3887 H   0  0  0  0  0  0  0  0  0  0  0  0
   -3.1191   -2.9346    0.9517 C   0  0  0  0  0  0  0  0  0  0  0  0
   -3.7811   -2.3546    1.5917 H   0  0  0  0  0  0  0  0  0  0  0  0
   -3.5591   -3.0406   -0.0383 H   0  0  0  0  0  0  0  0  0  0  0  0
   -1.7921   -2.2226    0.8327 C   0  0  0  0  0  0  0  0  0  0  0  0
   -0.7611   -2.7766    1.1927 O   0  0  0  0  0  0  0  0  0  0  0  0
   -1.8201   -0.9926    0.3247 N   0  0  0  0  0  0  0  0  0  0  0  0
   -2.7141   -0.5816    0.0927 H   0  0  0  0  0  0  0  0  0  0  0  0
   -0.6481   -0.1156    0.2017 C   0  0  1  0  0  0  0  0  0  0  0  0
    0.1344   -0.4988    0.8596 H   0  0  0  0  0  0  0  0  0  0  0  0
   -0.1211   -0.1520   -1.2460 C   0  0  0  0  0  0  0  0  0  0  0  0
   -0.9452   -0.3453   -1.9342 H   0  0  0  0  0  0  0  0  0  0  0  0
    0.3049    0.8175   -1.5081 H   0  0  0  0  0  0  0  0  0  0  0  0
    0.9110   -1.2307   -1.4677 C   0  0  0  0  0  0  0  0  0  0  0  0
    1.9610   -1.1813   -2.3855 N   0  0  0  0  0  0  0  0  0  0  0  0
    2.6542   -2.3166   -2.2150 C   0  0  0  0  0  0  0  0  0  0  0  0
    3.5307   -2.5911   -2.7883 H   0  0  0  0  0  0  0  0  0  0  0  0
    2.1128   -3.0538   -1.2308 N   0  0  0  0  0  0  0  0  0  0  0  0
    2.4658   -3.9419   -0.9016 H   0  0  0  0  0  0  0  0  0  0  0  0
    1.0133   -2.3826   -0.7438 C   0  0  0  0  0  0  0  0  0  0  0  0
    0.3606   -2.6829    0.0663 H   0  0  0  0  0  0  0  0  0  0  0  0
   -0.9851    1.3114    0.6698 C   0  0  0  0  0  0  0  0  0  0  0  0
   -2.0377    1.8431    0.3168 O   0  0  0  0  0  0  0  0  0  0  0  0
   -0.1052    1.9265    1.4663 N   0  0  0  0  0  0  0  0  0  0  0  0
    0.7810    1.4586    1.6201 H   0  0  0  0  0  0  0  0  0  0  0  0
   -0.2724    3.2715    2.0119 C   0  0  0  0  0  0  0  0  0  0  0  0
   -1.3249    3.4549    2.2426 H   0  0  0  0  0  0  0  0  0  0  0  0
    0.3167    3.3776    2.9239 H   0  0  0  0  0  0  0  0  0  0  0  0
    0.0609    4.0073    1.2782 H   0  0  0  0  0  0  0  0  0  0  0  0
  5  6  2  0  0  0  0
  5  7  1  0  0  0  0
  2  3  1  0  0  0  0
  2  4  1  0  0  0  0
  2  5  1  0  0  0  0
  1  2  1  0  0  0  0
 22 23  2  0  0  0  0
 22 24  1  0  0  0  0
 20 21  1  0  0  0  0
 18 19  1  0  0  0  0
 18 20  1  0  0  0  0
 16 17  1  0  0  0  0
 16 18  1  0  0  0  0
 15 16  2  0  0  0  0
 14 15  1  0  0  0  0
 14 20  2  0  0  0  0
 11 12  1  0  0  0  0
 11 13  1  0  0  0  0
 11 14  1  0  0  0  0
  9 10  1  0  0  0  0
  9 11  1  0  0  0  0
  9 22  1  0  0  0  0
  7  8  1  0  0  0  0
  7  9  1  0  0  0  0
 26 27  1  0  0  0  0
 26 28  1  0  0  0  0
 26 29  1  0  0  0  0
 24 25  1  0  0  0  0
 24 26  1  0  0  0  0
M  END
$$$$
default_name
  -OEChem-02102213163D

 29 29  0     1  0  0  0  0  0999 V2000
   -2.9561   -3.9186    1.3887 H   0  0  0  0  0  0  0  0  0  0  0  0
   -3.1191   -2.9346    0.9517 C   0  0  0  0  0  0  0  0  0  0  0  0
   -3.7811   -2.3546    1.5917 H   0  0  0  0  0  0  0  0  0  0  0  0
   -3.5591   -3.0406   -0.0383 H   0  0  0  0  0  0  0  0  0  0  0  0
   -1.7921   -2.2226    0.8327 C   0  0  0  0  0  0  0  0  0  0  0  0
   -0.7611   -2.7766    1.1927 O   0  0  0  0  0  0  0  0  0  0  0  0
   -1.8201   -0.9926    0.3247 N   0  0  0  0  0  0  0  0  0  0  0  0
   -2.7141   -0.5816    0.0927 H   0  0  0  0  0  0  0  0  0  0  0  0
   -0.6481   -0.1156    0.2017 C   0  0  1  0  0  0  0  0  0  0  0  0
    0.1344   -0.4988    0.8596 H   0  0  0  0  0  0  0  0  0  0  0  0
   -0.1211   -0.1520   -1.2460 C   0  0  0  0  0  0  0  0  0  0  0  0
   -0.9452   -0.3453   -1.9342 H   0  0  0  0  0  0  0  0  0  0  0  0
    0.3049    0.8175   -1.5081 H   0  0  0  0  0  0  0  0  0  0  0  0
    0.9110   -1.2307   -1.4677 C   0  0  0  0  0  0  0  0  0  0  0  0
    2.1159   -1.0804   -2.1554 N   0  0  0  0  0  0  0  0  0  0  0  0
    2.7402   -2.2642   -2.0697 C   0  0  0  0  0  0  0  0  0  0  0  0
    3.7029   -2.4826   -2.5143 H   0  0  0  0  0  0  0  0  0  0  0  0
    2.0074   -3.1301   -1.3497 N   0  0  0  0  0  0  0  0  0  0  0  0
    2.2730   -4.0799   -1.1277 H   0  0  0  0  0  0  0  0  0  0  0  0
    0.8505   -2.4945   -0.9573 C   0  0  0  0  0  0  0  0  0  0  0  0
    0.0506   -2.8946   -0.3470 H   0  0  0  0  0  0  0  0  0  0  0  0
   -0.9851    1.3114    0.6698 C   0  0  0  0  0  0  0  0  0  0  0  0
   -2.0377    1.8431    0.3168 O   0  0  0  0  0  0  0  0  0  0  0  0
   -0.1052    1.9265    1.4663 N   0  0  0  0  0  0  0  0  0  0  0  0
    0.7810    1.4586    1.6201 H   0  0  0  0  0  0  0  0  0  0  0  0
   -0.2724    3.2715    2.0119 C   0  0  0  0  0  0  0  0  0  0  0  0
   -1.3249    3.4549    2.2426 H   0  0  0  0  0  0  0  0  0  0  0  0
    0.3167    3.3776    2.9239 H   0  0  0  0  0  0  0  0  0  0  0  0
    0.0609    4.0073    1.2782 H   0  0  0  0  0  0  0  0  0  0  0  0
  5  6  2  0  0  0  0
  5  7  1  0  0  0  0
  2  3  1  0  0  0  0
  2  4  1  0  0  0  0
  2  5  1  0  0  0  0
  1  2  1  0  0  0  0
 22 23  2  0  0  0  0
 22 24  1  0  0  0  0
 20 21  1  0  0  0  0
 18 19  1  0  0  0  0
 18 20  1  0  0  0  0
 16 17  1  0  0  0  0
 16 18  1  0  0  0  0
 15 16  2  0  0  0  0
 14 15  1  0  0  0  0
 14 20  2  0  0  0  0
 11 12  1  0  0  0  0
 11 13  1  0  0  0  0
 11 14  1  0  0  0  0
  9 10  1  0  0  0  0
  9 11  1  0  0  0  0
  9 22  1  0  0  0  0
  7  8  1  0  0  0  0
  7  9  1  0  0  0  0
 26 27  1  0  0  0  0
 26 28  1  0  0  0  0
 26 29  1  0  0  0  0
 24 25  1  0  0  0  0
 24 26  1  0  0  0  0
M  END
$$$$
default_name
  -OEChem-02102213163D

 29 29  0     1  0  0  0  0  0999 V2000
   -2.9561   -3.9186    1.3887 H   0  0  0  0  0  0  0  0  0  0  0  0
   -3.1191   -2.9346    0.9517 C   0  0  0  0  0  0  0  0  0  0  0  0
   -3.7811   -2.3546    1.5917 H   0  0  0  0  0  0  0  0  0  0  0  0
   -3.5591   -3.0406   -0.0383 H   0  0  0  0  0  0  0  0  0  0  0  0
   -1.7921   -2.2226    0.8327 C   0  0  0  0  0  0  0  0  0  0  0  0
   -0.7611   -2.7766    1.1927 O   0  0  0  0  0  0  0  0  0  0  0  0
   -1.8201   -0.9926    0.3247 N   0  0  0  0  0  0  0  0  0  0  0  0
   -2.7141   -0.5816    0.0927 H   0  0  0  0  0  0  0  0  0  0  0  0
   -0.6481   -0.1156    0.2017 C   0  0  1  0  0  0  0  0  0  0  0  0
    0.1344   -0.4988    0.8596 H   0  0  0  0  0  0  0  0  0  0  0  0
   -0.1211   -0.1520   -1.2460 C   0  0  0  0  0  0  0  0  0  0  0  0
   -0.9452   -0.3453   -1.9342 H   0  0  0  0  0  0  0  0  0  0  0  0
    0.3049    0.8175   -1.5081 H   0  0  0  0  0  0  0  0  0  0  0  0
    0.9110   -1.2307   -1.4677 C   0  0  0  0  0  0  0  0  0  0  0  0
    2.2268   -1.0295   -1.8865 N   0  0  0  0  0  0  0  0  0  0  0  0
    2.7984   -2.2425   -1.9041 C   0  0  0  0  0  0  0  0  0  0  0  0
    3.8227   -2.4328   -2.1985 H   0  0  0  0  0  0  0  0  0  0  0  0
    1.9247   -3.1789   -1.4975 N   0  0  0  0  0  0  0  0  0  0  0  0
    2.1234   -4.1658   -1.4062 H   0  0  0  0  0  0  0  0  0  0  0  0
    0.7284   -2.5586   -1.2135 C   0  0  0  0  0  0  0  0  0  0  0  0
   -0.1805   -3.0141   -0.8410 H   0  0  0  0  0  0  0  0  0  0  0  0
   -0.9851    1.3114    0.6698 C   0  0  0  0  0  0  0  0  0  0  0  0
   -2.0377    1.8431    0.3168 O   0  0  0  0  0  0  0  0  0  0  0  0
   -0.1052    1.9265    1.4663 N   0  0  0  0  0  0  0  0  0  0  0  0
    0.7810    1.4586    1.6201 H   0  0  0  0  0  0  0  0  0  0  0  0
   -0.2724    3.2715    2.0119 C   0  0  0  0  0  0  0  0  0  0  0  0
   -1.3249    3.4549    2.2426 H   0  0  0  0  0  0  0  0  0  0  0  0
    0.3167    3.3776    2.9239 H   0  0  0  0  0  0  0  0  0  0  0  0
    0.0609    4.0073    1.2782 H   0  0  0  0  0  0  0  0  0  0  0  0
  5  6  2  0  0  0  0
  5  7  1  0  0  0  0
  2  3  1  0  0  0  0
  2  4  1  0  0  0  0
  2  5  1  0  0  0  0
  1  2  1  0  0  0  0
 22 23  2  0  0  0  0
 22 24  1  0  0  0  0
 20 21  1  0  0  0  0
 18 19  1  0  0  0  0
 18 20  1  0  0  0  0
 16 17  1  0  0  0  0
 16 18  1  0  0  0  0
 15 16  2  0  0  0  0
 14 15  1  0  0  0  0
 14 20  2  0  0  0  0
 11 12  1  0  0  0  0
 11 13  1  0  0  0  0
 11 14  1  0  0  0  0
  9 10  1  0  0  0  0
  9 11  1  0  0  0  0
  9 22  1  0  0  0  0
  7  8  1  0  0  0  0
  7  9  1  0  0  0  0
 26 27  1  0  0  0  0
 26 28  1  0  0  0  0
 26 29  1  0  0  0  0
 24 25  1  0  0  0  0
 24 26  1  0  0  0  0
M  END
$$$$
default_name
  -OEChem-02102213163D

 29 29  0     1  0  0  0  0  0999 V2000
   -2.9561   -3.9186    1.3887 H   0  0  0  0  0  0  0  0  0  0  0  0
   -3.1191   -2.9346    0.9517 C   0  0  0  0  0  0  0  0  0  0  0  0
   -3.7811   -2.3546    1.5917 H   0  0  0  0  0  0  0  0  0  0  0  0
   -3.5591   -3.0406   -0.0383 H   0  0  0  0  0  0  0  0  0  0  0  0
   -1.7921   -2.2226    0.8327 C   0  0  0  0  0  0  0  0  0  0  0  0
   -0.7611   -2.7766    1.1927 O   0  0  0  0  0  0  0  0  0  0  0  0
   -1.8201   -0.9926    0.3247 N   0  0  0  0  0  0  0  0  0  0  0  0
   -2.7141   -0.5816    0.0927 H   0  0  0  0  0  0  0  0  0  0  0  0
   -0.6481   -0.1156    0.2017 C   0  0  1  0  0  0  0  0  0  0  0  0
    0.1344   -0.4988    0.8596 H   0  0  0  0  0  0  0  0  0  0  0  0
   -0.1211   -0.1520   -1.2460 C   0  0  0  0  0  0  0  0  0  0  0  0
   -0.9452   -0.3453   -1.9342 H   0  0  0  0  0  0  0  0  0  0  0  0
    0.3049    0.8175   -1.5081 H   0  0  0  0  0  0  0  0  0  0  0  0
    0.9110   -1.2307   -1.4677 C   0  0  0  0  0  0  0  0  0  0  0  0
    2.2862   -1.0322   -1.5973 N   0  0  0  0  0  0  0  0  0  0  0  0
    2.8247   -2.2532   -1.7296 C   0  0  0  0  0  0  0  0  0  0  0  0
    3.8819   -2.4452   -1.8625 H   0  0  0  0  0  0  0  0  0  0  0  0
    1.8704   -3.1967   -1.6642 N   0  0  0  0  0  0  0  0  0  0  0  0
    2.0271   -4.1938   -1.7180 H   0  0  0  0  0  0  0  0  0  0  0  0
    0.6555   -2.5706   -1.4949 C   0  0  0  0  0  0  0  0  0  0  0  0
   -0.3168   -3.0334   -1.3821 H   0  0  0  0  0  0  0  0  0  0  0  0
   -0.9851    1.3114    0.6698 C   0  0  0  0  0  0  0  0  0  0  0  0
   -2.0377    1.8431    0.3168 O   0  0  0  0  0  0  0  0  0  0  0  0
   -0.1052    1.9265    1.4663 N   0  0  0  0  0  0  0  0  0  0  0  0
    0.7810    1.4586    1.6201 H   0  0  0  0  0  0  0  0  0  0  0  0
   -0.2724    3.2715    2.0119 C   0  0  0  0  0  0  0  0  0  0  0  0
   -1.3249    3.4549    2.2426 H   0  0  0  0  0  0  0  0  0  0  0  0
    0.3167    3.3776    2.9239 H   0  0  0  0  0  0  0  0  0  0  0  0
    0.0609    4.0073    1.2782 H   0  0  0  0  0  0  0  0  0  0  0  0
  5  6  2  0  0  0  0
  5  7  1  0  0  0  0
  2  3  1  0  0  0  0
  2  4  1  0  0  0  0
  2  5  1  0  0  0  0
  1  2  1  0  0  0  0
 22 23  2  0  0  0  0
 22 24  1  0  0  0  0
 20 21  1  0  0  0  0
 18 19  1  0  0  0  0
 18 20  1  0  0  0  0
 16 17  1  0  0  0  0
 16 18  1  0  0  0  0
 15 16  2  0  0  0  0
 14 15  1  0  0  0  0
 14 20  2  0  0  0  0
 11 12  1  0  0  0  0
 11 13  1  0  0  0  0
 11 14  1  0  0  0  0
  9 10  1  0  0  0  0
  9 11  1  0  0  0  0
  9 22  1  0  0  0  0
  7  8  1  0  0  0  0
  7  9  1  0  0  0  0
 26 27  1  0  0  0  0
 26 28  1  0  0  0  0
 26 29  1  0  0  0  0
 24 25  1  0  0  0  0
 24 26  1  0  0  0  0
M  END
$$$$
default_name
  -OEChem-02102213163D

 29 29  0     1  0  0  0  0  0999 V2000
   -2.9561   -3.9186    1.3887 H   0  0  0  0  0  0  0  0  0  0  0  0
   -3.1191   -2.9346    0.9517 C   0  0  0  0  0  0  0  0  0  0  0  0
   -3.7811   -2.3546    1.5917 H   0  0  0  0  0  0  0  0  0  0  0  0
   -3.5591   -3.0406   -0.0383 H   0  0  0  0  0  0  0  0  0  0  0  0
   -1.7921   -2.2226    0.8327 C   0  0  0  0  0  0  0  0  0  0  0  0
   -0.7611   -2.7766    1.1927 O   0  0  0  0  0  0  0  0  0  0  0  0
   -1.8201   -0.9926    0.3247 N   0  0  0  0  0  0  0  0  0  0  0  0
   -2.7141   -0.5816    0.0927 H   0  0  0  0  0  0  0  0  0  0  0  0
   -0.6481   -0.1156    0.2017 C   0  0  1  0  0  0  0  0  0  0  0  0
    0.1344   -0.4988    0.8596 H   0  0  0  0  0  0  0  0  0  0  0  0
   -0.1211   -0.1520   -1.2460 C   0  0  0  0  0  0  0  0  0  0  0  0
   -0.9452   -0.3453   -1.9342 H   0  0  0  0  0  0  0  0  0  0  0  0
    0.3049    0.8175   -1.5081 H   0  0  0  0  0  0  0  0  0  0  0  0
    0.9110   -1.2307   -1.4677 C   0  0  0  0  0  0  0  0  0  0  0  0
    2.2899   -1.0882   -1.3075 N   0  0  0  0  0  0  0  0  0  0  0  0
    2.8175   -2.2953   -1.5580 C   0  0  0  0  0  0  0  0  0  0  0  0
    3.8765   -2.5189   -1.5293 H   0  0  0  0  0  0  0  0  0  0  0  0
    1.8480   -3.1822   -1.8384 N   0  0  0  0  0  0  0  0  0  0  0  0
    1.9908   -4.1620   -2.0421 H   0  0  0  0  0  0  0  0  0  0  0  0
    0.6366   -2.5295   -1.7823 C   0  0  0  0  0  0  0  0  0  0  0  0
   -0.3492   -2.9511   -1.9333 H   0  0  0  0  0  0  0  0  0  0  0  0
   -0.9851    1.3114    0.6698 C   0  0  0  0  0  0  0  0  0  0  0  0
   -2.0377    1.8431    0.3168 O   0  0  0  0  0  0  0  0  0  0  0  0
   -0.1052    1.9265    1.4663 N   0  0  0  0  0  0  0  0  0  0  0  0
    0.7810    1.4586    1.6201 H   0  0  0  0  0  0  0  0  0  0  0  0
   -0.2724    3.2715    2.0119 C   0  0  0  0  0  0  0  0  0  0  0  0
   -1.3249    3.4549    2.2426 H   0  0  0  0  0  0  0  0  0  0  0  0
    0.3167    3.3776    2.9239 H   0  0  0  0  0  0  0  0  0  0  0  0
    0.0609    4.0073    1.2782 H   0  0  0  0  0  0  0  0  0  0  0  0
  5  6  2  0  0  0  0
  5  7  1  0  0  0  0
  2  3  1  0  0  0  0
  2  4  1  0  0  0  0
  2  5  1  0  0  0  0
  1  2  1  0  0  0  0
 22 23  2  0  0  0  0
 22 24  1  0  0  0  0
 20 21  1  0  0  0  0
 18 19  1  0  0  0  0
 18 20  1  0  0  0  0
 16 17  1  0  0  0  0
 16 18  1  0  0  0  0
 15 16  2  0  0  0  0
 14 15  1  0  0  0  0
 14 20  2  0  0  0  0
 11 12  1  0  0  0  0
 11 13  1  0  0  0  0
 11 14  1  0  0  0  0
  9 10  1  0  0  0  0
  9 11  1  0  0  0  0
  9 22  1  0  0  0  0
  7  8  1  0  0  0  0
  7  9  1  0  0  0  0
 26 27  1  0  0  0  0
 26 28  1  0  0  0  0
 26 29  1  0  0  0  0
 24 25  1  0  0  0  0
 24 26  1  0  0  0  0
M  END
$$$$
default_name
  -OEChem-02102213163D

 29 29  0     1  0  0  0  0  0999 V2000
   -2.9561   -3.9186    1.3887 H   0  0  0  0  0  0  0  0  0  0  0  0
   -3.1191   -2.9346    0.9517 C   0  0  0  0  0  0  0  0  0  0  0  0
   -3.7811   -2.3546    1.5917 H   0  0  0  0  0  0  0  0  0  0  0  0
   -3.5591   -3.0406   -0.0383 H   0  0  0  0  0  0  0  0  0  0  0  0
   -1.7921   -2.2226    0.8327 C   0  0  0  0  0  0  0  0  0  0  0  0
   -0.7611   -2.7766    1.1927 O   0  0  0  0  0  0  0  0  0  0  0  0
   -1.8201   -0.9926    0.3247 N   0  0  0  0  0  0  0  0  0  0  0  0
   -2.7141   -0.5816    0.0927 H   0  0  0  0  0  0  0  0  0  0  0  0
   -0.6481   -0.1156    0.2017 C   0  0  1  0  0  0  0  0  0  0  0  0
    0.1344   -0.4988    0.8596 H   0  0  0  0  0  0  0  0  0  0  0  0
   -0.1211   -0.1520   -1.2460 C   0  0  0  0  0  0  0  0  0  0  0  0
   -0.9452   -0.3453   -1.9342 H   0  0  0  0  0  0  0  0  0  0  0  0
    0.3049    0.8175   -1.5081 H   0  0  0  0  0  0  0  0  0  0  0  0
    0.9110   -1.2307   -1.4677 C   0  0  0  0  0  0  0  0  0  0  0  0
    2.2378   -1.1937   -1.0367 N   0  0  0  0  0  0  0  0  0  0  0  0
    2.7772   -2.3661   -1.4010 C   0  0  0  0  0  0  0  0  0  0  0  0
    3.8068   -2.6489   -1.2214 H   0  0  0  0  0  0  0  0  0  0  0  0
    1.8592   -3.1366   -2.0083 N   0  0  0  0  0  0  0  0  0  0  0  0
    2.0168   -4.0726   -2.3561 H   0  0  0  0  0  0  0  0  0  0  0  0
    0.6732   -2.4383   -2.0562 C   0  0  0  0  0  0  0  0  0  0  0  0
   -0.2753   -2.7728   -2.4572 H   0  0  0  0  0  0  0  0  0  0  0  0
   -0.9851    1.3114    0.6698 C   0  0  0  0  0  0  0  0  0  0  0  0
   -2.0377    1.8431    0.3168 O   0  0  0  0  0  0  0  0  0  0  0  0
   -0.1052    1.9265    1.4663 N   0  0  0  0  0  0  0  0  0  0  0  0
    0.7810    1.4586    1.6201 H   0  0  0  0  0  0  0  0  0  0  0  0
   -0.2724    3.2715    2.0119 C   0  0  0  0  0  0  0  0  0  0  0  0
   -1.3249    3.4549    2.2426 H   0  0  0  0  0  0  0  0  0  0  0  0
    0.3167    3.3776    2.9239 H   0  0  0  0  0  0  0  0  0  0  0  0
    0.0609    4.0073    1.2782 H   0  0  0  0  0  0  0  0  0  0  0  0
  5  6  2  0  0  0  0
  5  7  1  0  0  0  0
  2  3  1  0  0  0  0
  2  4  1  0  0  0  0
  2  5  1  0  0  0  0
  1  2  1  0  0  0  0
 22 23  2  0  0  0  0
 22 24  1  0  0  0  0
 20 21  1  0  0  0  0
 18 19  1  0  0  0  0
 18 20  1  0  0  0  0
 16 17  1  0  0  0  0
 16 18  1  0  0  0  0
 15 16  2  0  0  0  0
 14 15  1  0  0  0  0
 14 20  2  0  0  0  0
 11 12  1  0  0  0  0
 11 13  1  0  0  0  0
 11 14  1  0  0  0  0
  9 10  1  0  0  0  0
  9 11  1  0  0  0  0
  9 22  1  0  0  0  0
  7  8  1  0  0  0  0
  7  9  1  0  0  0  0
 26 27  1  0  0  0  0
 26 28  1  0  0  0  0
 26 29  1  0  0  0  0
 24 25  1  0  0  0  0
 24 26  1  0  0  0  0
M  END
$$$$
default_name
  -OEChem-02102213163D

 29 29  0     1  0  0  0  0  0999 V2000
   -2.9561   -3.9186    1.3887 H   0  0  0  0  0  0  0  0  0  0  0  0
   -3.1191   -2.9346    0.9517 C   0  0  0  0  0  0  0  0  0  0  0  0
   -3.7811   -2.3546    1.5917 H   0  0  0  0  0  0  0  0  0  0  0  0
   -3.5591   -3.0406   -0.0383 H   0  0  0  0  0  0  0  0  0  0  0  0
   -1.7921   -2.2226    0.8327 C   0  0  0  0  0  0  0  0  0  0  0  0
   -0.7611   -2.7766    1.1927 O   0  0  0  0  0  0  0  0  0  0  0  0
   -1.8201   -0.9926    0.3247 N   0  0  0  0  0  0  0  0  0  0  0  0
   -2.7141   -0.5816    0.0927 H   0  0  0  0  0  0  0  0  0  0  0  0
   -0.6481   -0.1156    0.2017 C   0  0  1  0  0  0  0  0  0  0  0  0
    0.1344   -0.4988    0.8596 H   0  0  0  0  0  0  0  0  0  0  0  0
   -0.1211   -0.1520   -1.2460 C   0  0  0  0  0  0  0  0  0  0  0  0
   -0.9452   -0.3453   -1.9342 H   0  0  0  0  0  0  0  0  0  0  0  0
    0.3049    0.8175   -1.5081 H   0  0  0  0  0  0  0  0  0  0  0  0
    0.9110   -1.2307   -1.4677 C   0  0  0  0  0  0  0  0  0  0  0  0
    2.1333   -1.3416   -0.8035 N   0  0  0  0  0  0  0  0  0  0  0  0
    2.7066   -2.4608   -1.2694 C   0  0  0  0  0  0  0  0  0  0  0  0
    3.6776   -2.8263   -0.9599 H   0  0  0  0  0  0  0  0  0  0  0  0
    1.9031   -3.0630   -2.1623 N   0  0  0  0  0  0  0  0  0  0  0  0
    2.1034   -3.9316   -2.6389 H   0  0  0  0  0  0  0  0  0  0  0  0
    0.7626   -2.3031   -2.2978 C   0  0  0  0  0  0  0  0  0  0  0  0
   -0.1003   -2.5106   -2.9181 H   0  0  0  0  0  0  0  0  0  0  0  0
   -0.9851    1.3114    0.6698 C   0  0  0  0  0  0  0  0  0  0  0  0
   -2.0377    1.8431    0.3168 O   0  0  0  0  0  0  0  0  0  0  0  0
   -0.1052    1.9265    1.4663 N   0  0  0  0  0  0  0  0  0  0  0  0
    0.7810    1.4586    1.6201 H   0  0  0  0  0  0  0  0  0  0  0  0
   -0.2724    3.2715    2.0119 C   0  0  0  0  0  0  0  0  0  0  0  0
   -1.3249    3.4549    2.2426 H   0  0  0  0  0  0  0  0  0  0  0  0
    0.3167    3.3776    2.9239 H   0  0  0  0  0  0  0  0  0  0  0  0
    0.0609    4.0073    1.2782 H   0  0  0  0  0  0  0  0  0  0  0  0
  5  6  2  0  0  0  0
  5  7  1  0  0  0  0
  2  3  1  0  0  0  0
  2  4  1  0  0  0  0
  2  5  1  0  0  0  0
  1  2  1  0  0  0  0
 22 23  2  0  0  0  0
 22 24  1  0  0  0  0
 20 21  1  0  0  0  0
 18 19  1  0  0  0  0
 18 20  1  0  0  0  0
 16 17  1  0  0  0  0
 16 18  1  0  0  0  0
 15 16  2  0  0  0  0
 14 15  1  0  0  0  0
 14 20  2  0  0  0  0
 11 12  1  0  0  0  0
 11 13  1  0  0  0  0
 11 14  1  0  0  0  0
  9 10  1  0  0  0  0
  9 11  1  0  0  0  0
  9 22  1  0  0  0  0
  7  8  1  0  0  0  0
  7  9  1  0  0  0  0
 26 27  1  0  0  0  0
 26 28  1  0  0  0  0
 26 29  1  0  0  0  0
 24 25  1  0  0  0  0
 24 26  1  0  0  0  0
M  END
$$$$
default_name
  -OEChem-02102213163D

 29 29  0     1  0  0  0  0  0999 V2000
   -2.9561   -3.9186    1.3887 H   0  0  0  0  0  0  0  0  0  0  0  0
   -3.1191   -2.9346    0.9517 C   0  0  0  0  0  0  0  0  0  0  0  0
   -3.7811   -2.3546    1.5917 H   0  0  0  0  0  0  0  0  0  0  0  0
   -3.5591   -3.0406   -0.0383 H   0  0  0  0  0  0  0  0  0  0  0  0
   -1.7921   -2.2226    0.8327 C   0  0  0  0  0  0  0  0  0  0  0  0
   -0.7611   -2.7766    1.1927 O   0  0  0  0  0  0  0  0  0  0  0  0
   -1.8201   -0.9926    0.3247 N   0  0  0  0  0  0  0  0  0  0  0  0
   -2.7141   -0.5816    0.0927 H   0  0  0  0  0  0  0  0  0  0  0  0
   -0.6481   -0.1156    0.2017 C   0  0  1  0  0  0  0  0  0  0  0  0
    0.1344   -0.4988    0.8596 H   0  0  0  0  0  0  0  0  0  0  0  0
   -0.1211   -0.1520   -1.2460 C   0  0  0  0  0  0  0  0  0  0  0  0
   -0.9452   -0.3453   -1.9342 H   0  0  0  0  0  0  0  0  0  0  0  0
    0.3049    0.8175   -1.5081 H   0  0  0  0  0  0  0  0  0  0  0  0
    0.9110   -1.2307   -1.4677 C   0  0  0  0  0  0  0  0  0  0  0  0
    1.9836   -1.5217   -0.6238 N   0  0  0  0  0  0  0  0  0  0  0  0
    2.6104   -2.5728   -1.1721 C   0  0  0  0  0  0  0  0  0  0  0  0
    3.4976   -3.0390   -0.7626 H   0  0  0  0  0  0  0  0  0  0  0  0
    1.9769   -2.9662   -2.2898 N   0  0  0  0  0  0  0  0  0  0  0  0
    2.2448   -3.7487   -2.8710 H   0  0  0  0  0  0  0  0  0  0  0  0
    0.8988   -2.1332   -2.4907 C   0  0  0  0  0  0  0  0  0  0  0  0
    0.1640   -2.1825   -3.2844 H   0  0  0  0  0  0  0  0  0  0  0  0
   -0.9851    1.3114    0.6698 C   0  0  0  0  0  0  0  0  0  0  0  0
   -2.0377    1.8431    0.3168 O   0  0  0  0  0  0  0  0  0  0  0  0
   -0.1052    1.9265    1.4663 N   0  0  0  0  0  0  0  0  0  0  0  0
    0.7810    1.4586    1.6201 H   0  0  0  0  0  0  0  0  0  0  0  0
   -0.2724    3.2715    2.0119 C   0  0  0  0  0  0  0  0  0  0  0  0
   -1.3249    3.4549    2.2426 H   0  0  0  0  0  0  0  0  0  0  0  0
    0.3167    3.3776    2.9239 H   0  0  0  0  0  0  0  0  0  0  0  0
    0.0609    4.0073    1.2782 H   0  0  0  0  0  0  0  0  0  0  0  0
  5  6  2  0  0  0  0
  5  7  1  0  0  0  0
  2  3  1  0  0  0  0
  2  4  1  0  0  0  0
  2  5  1  0  0  0  0
  1  2  1  0  0  0  0
 22 23  2  0  0  0  0
 22 24  1  0  0  0  0
 20 21  1  0  0  0  0
 18 19  1  0  0  0  0
 18 20  1  0  0  0  0
 16 17  1  0  0  0  0
 16 18  1  0  0  0  0
 15 16  2  0  0  0  0
 14 15  1  0  0  0  0
 14 20  2  0  0  0  0
 11 12  1  0  0  0  0
 11 13  1  0  0  0  0
 11 14  1  0  0  0  0
  9 10  1  0  0  0  0
  9 11  1  0  0  0  0
  9 22  1  0  0  0  0
  7  8  1  0  0  0  0
  7  9  1  0  0  0  0
 26 27  1  0  0  0  0
 26 28  1  0  0  0  0
 26 29  1  0  0  0  0
 24 25  1  0  0  0  0
 24 26  1  0  0  0  0
M  END
$$$$
default_name
  -OEChem-02102213163D

 29 29  0     1  0  0  0  0  0999 V2000
   -2.9561   -3.9186    1.3887 H   0  0  0  0  0  0  0  0  0  0  0  0
   -3.1191   -2.9346    0.9517 C   0  0  0  0  0  0  0  0  0  0  0  0
   -3.7811   -2.3546    1.5917 H   0  0  0  0  0  0  0  0  0  0  0  0
   -3.5591   -3.0406   -0.0383 H   0  0  0  0  0  0  0  0  0  0  0  0
   -1.7921   -2.2226    0.8327 C   0  0  0  0  0  0  0  0  0  0  0  0
   -0.7611   -2.7766    1.1927 O   0  0  0  0  0  0  0  0  0  0  0  0
   -1.8201   -0.9926    0.3247 N   0  0  0  0  0  0  0  0  0  0  0  0
   -2.7141   -0.5816    0.0927 H   0  0  0  0  0  0  0  0  0  0  0  0
   -0.6481   -0.1156    0.2017 C   0  0  1  0  0  0  0  0  0  0  0  0
    0.1344   -0.4988    0.8596 H   0  0  0  0  0  0  0  0  0  0  0  0
   -0.1211   -0.1520   -1.2460 C   0  0  0  0  0  0  0  0  0  0  0  0
   -0.9452   -0.3453   -1.9342 H   0  0  0  0  0  0  0  0  0  0  0  0
    0.3049    0.8175   -1.5081 H   0  0  0  0  0  0  0  0  0  0  0  0
    0.9110   -1.2307   -1.4677 C   0  0  0  0  0  0  0  0  0  0  0  0
    1.7990   -1.7218   -0.5097 N   0  0  0  0  0  0  0  0  0  0  0  0
    2.4952   -2.6946   -1.1158 C   0  0  0  0  0  0  0  0  0  0  0  0
    3.2793   -3.2725   -0.6430 H   0  0  0  0  0  0  0  0  0  0  0  0
    2.0754   -2.8530   -2.3823 N   0  0  0  0  0  0  0  0  0  0  0  0
    2.4312   -3.5363   -3.0367 H   0  0  0  0  0  0  0  0  0  0  0  0
    1.0725   -1.9401   -2.6218 C   0  0  0  0  0  0  0  0  0  0  0  0
    0.4995   -1.8107   -3.5313 H   0  0  0  0  0  0  0  0  0  0  0  0
   -0.9851    1.3114    0.6698 C   0  0  0  0  0  0  0  0  0  0  0  0
   -2.0377    1.8431    0.3168 O   0  0  0  0  0  0  0  0  0  0  0  0
   -0.1052    1.9265    1.4663 N   0  0  0  0  0  0  0  0  0  0  0  0
    0.7810    1.4586    1.6201 H   0  0  0  0  0  0  0  0  0  0  0  0
   -0.2724    3.2715    2.0119 C   0  0  0  0  0  0  0  0  0  0  0  0
   -1.3249    3.4549    2.2426 H   0  0  0  0  0  0  0  0  0  0  0  0
    0.3167    3.3776    2.9239 H   0  0  0  0  0  0  0  0  0  0  0  0
    0.0609    4.0073    1.2782 H   0  0  0  0  0  0  0  0  0  0  0  0
  5  6  2  0  0  0  0
  5  7  1  0  0  0  0
  2  3  1  0  0  0  0
  2  4  1  0  0  0  0
  2  5  1  0  0  0  0
  1  2  1  0  0  0  0
 22 23  2  0  0  0  0
 22 24  1  0  0  0  0
 20 21  1  0  0  0  0
 18 19  1  0  0  0  0
 18 20  1  0  0  0  0
 16 17  1  0  0  0  0
 16 18  1  0  0  0  0
 15 16  2  0  0  0  0
 14 15  1  0  0  0  0
 14 20  2  0  0  0  0
 11 12  1  0  0  0  0
 11 13  1  0  0  0  0
 11 14  1  0  0  0  0
  9 10  1  0  0  0  0
  9 11  1  0  0  0  0
  9 22  1  0  0  0  0
  7  8  1  0  0  0  0
  7  9  1  0  0  0  0
 26 27  1  0  0  0  0
 26 28  1  0  0  0  0
 26 29  1  0  0  0  0
 24 25  1  0  0  0  0
 24 26  1  0  0  0  0
M  END
$$$$
default_name
  -OEChem-02102213163D

 29 29  0     1  0  0  0  0  0999 V2000
   -2.9561   -3.9186    1.3887 H   0  0  0  0  0  0  0  0  0  0  0  0
   -3.1191   -2.9346    0.9517 C   0  0  0  0  0  0  0  0  0  0  0  0
   -3.7811   -2.3546    1.5917 H   0  0  0  0  0  0  0  0  0  0  0  0
   -3.5591   -3.0406   -0.0383 H   0  0  0  0  0  0  0  0  0  0  0  0
   -1.7921   -2.2226    0.8327 C   0  0  0  0  0  0  0  0  0  0  0  0
   -0.7611   -2.7766    1.1927 O   0  0  0  0  0  0  0  0  0  0  0  0
   -1.8201   -0.9926    0.3247 N   0  0  0  0  0  0  0  0  0  0  0  0
   -2.7141   -0.5816    0.0927 H   0  0  0  0  0  0  0  0  0  0  0  0
   -0.6481   -0.1156    0.2017 C   0  0  1  0  0  0  0  0  0  0  0  0
    0.1344   -0.4988    0.8596 H   0  0  0  0  0  0  0  0  0  0  0  0
   -0.1211   -0.1520   -1.2460 C   0  0  0  0  0  0  0  0  0  0  0  0
   -0.9452   -0.3453   -1.9342 H   0  0  0  0  0  0  0  0  0  0  0  0
    0.3049    0.8175   -1.5081 H   0  0  0  0  0  0  0  0  0  0  0  0
    0.9110   -1.2307   -1.4677 C   0  0  0  0  0  0  0  0  0  0  0  0
    1.5919   -1.9283   -0.4691 N   0  0  0  0  0  0  0  0  0  0  0  0
    2.3689   -2.8178   -1.1042 C   0  0  0  0  0  0  0  0  0  0  0  0
    3.0373   -3.5109   -0.6092 H   0  0  0  0  0  0  0  0  0  0  0  0
    2.1919   -2.7310   -2.4333 N   0  0  0  0  0  0  0  0  0  0  0  0
    2.6500   -3.3089   -3.1247 H   0  0  0  0  0  0  0  0  0  0  0  0
    1.2718   -1.7370   -2.6821 C   0  0  0  0  0  0  0  0  0  0  0  0
    0.8834   -1.4207   -3.6420 H   0  0  0  0  0  0  0  0  0  0  0  0
   -0.9851    1.3114    0.6698 C   0  0  0  0  0  0  0  0  0  0  0  0
   -2.0377    1.8431    0.3168 O   0  0  0  0  0  0  0  0  0  0  0  0
   -0.1052    1.9265    1.4663 N   0  0  0  0  0  0  0  0  0  0  0  0
    0.7810    1.4586    1.6201 H   0  0  0  0  0  0  0  0  0  0  0  0
   -0.2724    3.2715    2.0119 C   0  0  0  0  0  0  0  0  0  0  0  0
   -1.3249    3.4549    2.2426 H   0  0  0  0  0  0  0  0  0  0  0  0
    0.3167    3.3776    2.9239 H   0  0  0  0  0  0  0  0  0  0  0  0
    0.0609    4.0073    1.2782 H   0  0  0  0  0  0  0  0  0  0  0  0
  5  6  2  0  0  0  0
  5  7  1  0  0  0  0
  2  3  1  0  0  0  0
  2  4  1  0  0  0  0
  2  5  1  0  0  0  0
  1  2  1  0  0  0  0
 22 23  2  0  0  0  0
 22 24  1  0  0  0  0
 20 21  1  0  0  0  0
 18 19  1  0  0  0  0
 18 20  1  0  0  0  0
 16 17  1  0  0  0  0
 16 18  1  0  0  0  0
 15 16  2  0  0  0  0
 14 15  1  0  0  0  0
 14 20  2  0  0  0  0
 11 12  1  0  0  0  0
 11 13  1  0  0  0  0
 11 14  1  0  0  0  0
  9 10  1  0  0  0  0
  9 11  1  0  0  0  0
  9 22  1  0  0  0  0
  7  8  1  0  0  0  0
  7  9  1  0  0  0  0
 26 27  1  0  0  0  0
 26 28  1  0  0  0  0
 26 29  1  0  0  0  0
 24 25  1  0  0  0  0
 24 26  1  0  0  0  0
M  END
$$$$
default_name
  -OEChem-02102213163D

 29 29  0     1  0  0  0  0  0999 V2000
   -2.9561   -3.9186    1.3887 H   0  0  0  0  0  0  0  0  0  0  0  0
   -3.1191   -2.9346    0.9517 C   0  0  0  0  0  0  0  0  0  0  0  0
   -3.7811   -2.3546    1.5917 H   0  0  0  0  0  0  0  0  0  0  0  0
   -3.5591   -3.0406   -0.0383 H   0  0  0  0  0  0  0  0  0  0  0  0
   -1.7921   -2.2226    0.8327 C   0  0  0  0  0  0  0  0  0  0  0  0
   -0.7611   -2.7766    1.1927 O   0  0  0  0  0  0  0  0  0  0  0  0
   -1.8201   -0.9926    0.3247 N   0  0  0  0  0  0  0  0  0  0  0  0
   -2.7141   -0.5816    0.0927 H   0  0  0  0  0  0  0  0  0  0  0  0
   -0.6481   -0.1156    0.2017 C   0  0  1  0  0  0  0  0  0  0  0  0
    0.1344   -0.4988    0.8596 H   0  0  0  0  0  0  0  0  0  0  0  0
   -0.1211   -0.1520   -1.2460 C   0  0  0  0  0  0  0  0  0  0  0  0
   -0.9452   -0.3453   -1.9342 H   0  0  0  0  0  0  0  0  0  0  0  0
    0.3049    0.8175   -1.5081 H   0  0  0  0  0  0  0  0  0  0  0  0
    0.9110   -1.2307   -1.4677 C   0  0  0  0  0  0  0  0  0  0  0  0
    1.3765   -2.1271   -0.5047 N   0  0  0  0  0  0  0  0  0  0  0  0
    2.2401   -2.9341   -1.1382 C   0  0  0  0  0  0  0  0  0  0  0  0
    2.7883   -3.7380   -0.6634 H   0  0  0  0  0  0  0  0  0  0  0  0
    2.3185   -2.6086   -2.4394 N   0  0  0  0  0  0  0  0  0  0  0  0
    2.8863   -3.0820   -3.1289 H   0  0  0  0  0  0  0  0  0  0  0  0
    1.4833   -1.5377   -2.6675 C   0  0  0  0  0  0  0  0  0  0  0  0
    1.2895   -1.0390   -3.6088 H   0  0  0  0  0  0  0  0  0  0  0  0
   -0.9851    1.3114    0.6698 C   0  0  0  0  0  0  0  0  0  0  0  0
   -2.0377    1.8431    0.3168 O   0  0  0  0  0  0  0  0  0  0  0  0
   -0.1052    1.9265    1.4663 N   0  0  0  0  0  0  0  0  0  0  0  0
    0.7810    1.4586    1.6201 H   0  0  0  0  0  0  0  0  0  0  0  0
   -0.2724    3.2715    2.0119 C   0  0  0  0  0  0  0  0  0  0  0  0
   -1.3249    3.4549    2.2426 H   0  0  0  0  0  0  0  0  0  0  0  0
    0.3167    3.3776    2.9239 H   0  0  0  0  0  0  0  0  0  0  0  0
    0.0609    4.0073    1.2782 H   0  0  0  0  0  0  0  0  0  0  0  0
  5  6  2  0  0  0  0
  5  7  1  0  0  0  0
  2  3  1  0  0  0  0
  2  4  1  0  0  0  0
  2  5  1  0  0  0  0
  1  2  1  0  0  0  0
 22 23  2  0  0  0  0
 22 24  1  0  0  0  0
 20 21  1  0  0  0  0
 18 19  1  0  0  0  0
 18 20  1  0  0  0  0
 16 17  1  0  0  0  0
 16 18  1  0  0  0  0
 15 16  2  0  0  0  0
 14 15  1  0  0  0  0
 14 20  2  0  0  0  0
 11 12  1  0  0  0  0
 11 13  1  0  0  0  0
 11 14  1  0  0  0  0
  9 10  1  0  0  0  0
  9 11  1  0  0  0  0
  9 22  1  0  0  0  0
  7  8  1  0  0  0  0
  7  9  1  0  0  0  0
 26 27  1  0  0  0  0
 26 28  1  0  0  0  0
 26 29  1  0  0  0  0
 24 25  1  0  0  0  0
 24 26  1  0  0  0  0
M  END
$$$$
default_name
  -OEChem-02102213163D

 29 29  0     1  0  0  0  0  0999 V2000
   -2.9561   -3.9186    1.3887 H   0  0  0  0  0  0  0  0  0  0  0  0
   -3.1191   -2.9346    0.9517 C   0  0  0  0  0  0  0  0  0  0  0  0
   -3.7811   -2.3546    1.5917 H   0  0  0  0  0  0  0  0  0  0  0  0
   -3.5591   -3.0406   -0.0383 H   0  0  0  0  0  0  0  0  0  0  0  0
   -1.7921   -2.2226    0.8327 C   0  0  0  0  0  0  0  0  0  0  0  0
   -0.7611   -2.7766    1.1927 O   0  0  0  0  0  0  0  0  0  0  0  0
   -1.8201   -0.9926    0.3247 N   0  0  0  0  0  0  0  0  0  0  0  0
   -2.7141   -0.5816    0.0927 H   0  0  0  0  0  0  0  0  0  0  0  0
   -0.6481   -0.1156    0.2017 C   0  0  1  0  0  0  0  0  0  0  0  0
    0.1344   -0.4988    0.8596 H   0  0  0  0  0  0  0  0  0  0  0  0
   -0.1211   -0.1520   -1.2460 C   0  0  0  0  0  0  0  0  0  0  0  0
   -0.9452   -0.3453   -1.9342 H   0  0  0  0  0  0  0  0  0  0  0  0
    0.3049    0.8175   -1.5081 H   0  0  0  0  0  0  0  0  0  0  0  0
    0.9110   -1.2307   -1.4677 C   0  0  0  0  0  0  0  0  0  0  0  0
    1.1675   -2.3045   -0.6141 N   0  0  0  0  0  0  0  0  0  0  0  0
    2.1175   -3.0355   -1.2154 C   0  0  0  0  0  0  0  0  0  0  0  0
    2.5492   -3.9383   -0.8021 H   0  0  0  0  0  0  0  0  0  0  0  0
    2.4467   -2.4940   -2.4002 N   0  0  0  0  0  0  0  0  0  0  0  0
    3.1239   -2.8710   -3.0492 H   0  0  0  0  0  0  0  0  0  0  0  0
    1.6924   -1.3558   -2.5790 C   0  0  0  0  0  0  0  0  0  0  0  0
    1.6901   -0.6916   -3.4341 H   0  0  0  0  0  0  0  0  0  0  0  0
   -0.9851    1.3114    0.6698 C   0  0  0  0  0  0  0  0  0  0  0  0
   -2.0377    1.8431    0.3168 O   0  0  0  0  0  0  0  0  0  0  0  0
   -0.1052    1.9265    1.4663 N   0  0  0  0  0  0  0  0  0  0  0  0
    0.7810    1.4586    1.6201 H   0  0  0  0  0  0  0  0  0  0  0  0
   -0.2724    3.2715    2.0119 C   0  0  0  0  0  0  0  0  0  0  0  0
   -1.3249    3.4549    2.2426 H   0  0  0  0  0  0  0  0  0  0  0  0
    0.3167    3.3776    2.9239 H   0  0  0  0  0  0  0  0  0  0  0  0
    0.0609    4.0073    1.2782 H   0  0  0  0  0  0  0  0  0  0  0  0
  5  6  2  0  0  0  0
  5  7  1  0  0  0  0
  2  3  1  0  0  0  0
  2  4  1  0  0  0  0
  2  5  1  0  0  0  0
  1  2  1  0  0  0  0
 22 23  2  0  0  0  0
 22 24  1  0  0  0  0
 20 21  1  0  0  0  0
 18 19  1  0  0  0  0
 18 20  1  0  0  0  0
 16 17  1  0  0  0  0
 16 18  1  0  0  0  0
 15 16  2  0  0  0  0
 14 15  1  0  0  0  0
 14 20  2  0  0  0  0
 11 12  1  0  0  0  0
 11 13  1  0  0  0  0
 11 14  1  0  0  0  0
  9 10  1  0  0  0  0
  9 11  1  0  0  0  0
  9 22  1  0  0  0  0
  7  8  1  0  0  0  0
  7  9  1  0  0  0  0
 26 27  1  0  0  0  0
 26 28  1  0  0  0  0
 26 29  1  0  0  0  0
 24 25  1  0  0  0  0
 24 26  1  0  0  0  0
M  END
$$$$
default_name
  -OEChem-02102213163D

 29 29  0     1  0  0  0  0  0999 V2000
   -2.9561   -3.9186    1.3887 H   0  0  0  0  0  0  0  0  0  0  0  0
   -3.1191   -2.9346    0.9517 C   0  0  0  0  0  0  0  0  0  0  0  0
   -3.7811   -2.3546    1.5917 H   0  0  0  0  0  0  0  0  0  0  0  0
   -3.5591   -3.0406   -0.0383 H   0  0  0  0  0  0  0  0  0  0  0  0
   -1.7921   -2.2226    0.8327 C   0  0  0  0  0  0  0  0  0  0  0  0
   -0.7611   -2.7766    1.1927 O   0  0  0  0  0  0  0  0  0  0  0  0
   -1.8201   -0.9926    0.3247 N   0  0  0  0  0  0  0  0  0  0  0  0
   -2.7141   -0.5816    0.0927 H   0  0  0  0  0  0  0  0  0  0  0  0
   -0.6481   -0.1156    0.2017 C   0  0  1  0  0  0  0  0  0  0  0  0
    0.1344   -0.4988    0.8596 H   0  0  0  0  0  0  0  0  0  0  0  0
   -0.1211   -0.1520   -1.2460 C   0  0  0  0  0  0  0  0  0  0  0  0
   -0.9452   -0.3453   -1.9342 H   0  0  0  0  0  0  0  0  0  0  0  0
    0.3049    0.8175   -1.5081 H   0  0  0  0  0  0  0  0  0  0  0  0
    0.9110   -1.2307   -1.4677 C   0  0  0  0  0  0  0  0  0  0  0  0
    0.9791   -2.4487   -0.7899 N   0  0  0  0  0  0  0  0  0  0  0  0
    2.0095   -3.1151   -1.3306 C   0  0  0  0  0  0  0  0  0  0  0  0
    2.3362   -4.0981   -1.0158 H   0  0  0  0  0  0  0  0  0  0  0  0
    2.5675   -2.3952   -2.3184 N   0  0  0  0  0  0  0  0  0  0  0  0
    3.3467   -2.6904   -2.8909 H   0  0  0  0  0  0  0  0  0  0  0  0
    1.8849   -1.2037   -2.4227 C   0  0  0  0  0  0  0  0  0  0  0  0
    2.0580   -0.4022   -3.1297 H   0  0  0  0  0  0  0  0  0  0  0  0
   -0.9851    1.3114    0.6698 C   0  0  0  0  0  0  0  0  0  0  0  0
   -2.0377    1.8431    0.3168 O   0  0  0  0  0  0  0  0  0  0  0  0
   -0.1052    1.9265    1.4663 N   0  0  0  0  0  0  0  0  0  0  0  0
    0.7810    1.4586    1.6201 H   0  0  0  0  0  0  0  0  0  0  0  0
   -0.2724    3.2715    2.0119 C   0  0  0  0  0  0  0  0  0  0  0  0
   -1.3249    3.4549    2.2426 H   0  0  0  0  0  0  0  0  0  0  0  0
    0.3167    3.3776    2.9239 H   0  0  0  0  0  0  0  0  0  0  0  0
    0.0609    4.0073    1.2782 H   0  0  0  0  0  0  0  0  0  0  0  0
  5  6  2  0  0  0  0
  5  7  1  0  0  0  0
  2  3  1  0  0  0  0
  2  4  1  0  0  0  0
  2  5  1  0  0  0  0
  1  2  1  0  0  0  0
 22 23  2  0  0  0  0
 22 24  1  0  0  0  0
 20 21  1  0  0  0  0
 18 19  1  0  0  0  0
 18 20  1  0  0  0  0
 16 17  1  0  0  0  0
 16 18  1  0  0  0  0
 15 16  2  0  0  0  0
 14 15  1  0  0  0  0
 14 20  2  0  0  0  0
 11 12  1  0  0  0  0
 11 13  1  0  0  0  0
 11 14  1  0  0  0  0
  9 10  1  0  0  0  0
  9 11  1  0  0  0  0
  9 22  1  0  0  0  0
  7  8  1  0  0  0  0
  7  9  1  0  0  0  0
 26 27  1  0  0  0  0
 26 28  1  0  0  0  0
 26 29  1  0  0  0  0
 24 25  1  0  0  0  0
 24 26  1  0  0  0  0
M  END
$$$$
default_name
  -OEChem-02102213163D

 29 29  0     1  0  0  0  0  0999 V2000
   -2.9561   -3.9186    1.3887 H   0  0  0  0  0  0  0  0  0  0  0  0
   -3.1191   -2.9346    0.9517 C   0  0  0  0  0  0  0  0  0  0  0  0
   -3.7811   -2.3546    1.5917 H   0  0  0  0  0  0  0  0  0  0  0  0
   -3.5591   -3.0406   -0.0383 H   0  0  0  0  0  0  0  0  0  0  0  0
   -1.7921   -2.2226    0.8327 C   0  0  0  0  0  0  0  0  0  0  0  0
   -0.7611   -2.7766    1.1927 O   0  0  0  0  0  0  0  0  0  0  0  0
   -1.8201   -0.9926    0.3247 N   0  0  0  0  0  0  0  0  0  0  0  0
   -2.7141   -0.5816    0.0927 H   0  0  0  0  0  0  0  0  0  0  0  0
   -0.6481   -0.1156    0.2017 C   0  0  1  0  0  0  0  0  0  0  0  0
    0.1344   -0.4988    0.8596 H   0  0  0  0  0  0  0  0  0  0  0  0
   -0.1211   -0.1520   -1.2460 C   0  0  0  0  0  0  0  0  0  0  0  0
   -0.9452   -0.3453   -1.9342 H   0  0  0  0  0  0  0  0  0  0  0  0
    0.3049    0.8175   -1.5081 H   0  0  0  0  0  0  0  0  0  0  0  0
    0.9110   -1.2307   -1.4677 C   0  0  0  0  0  0  0  0  0  0  0  0
    0.8241   -2.5496   -1.0201 N   0  0  0  0  0  0  0  0  0  0  0  0
    1.9236   -3.1675   -1.4760 C   0  0  0  0  0  0  0  0  0  0  0  0
    2.1640   -4.2066   -1.2898 H   0  0  0  0  0  0  0  0  0  0  0  0
    2.6729   -2.3188   -2.1996 N   0  0  0  0  0  0  0  0  0  0  0  0
    3.5394   -2.5524   -2.6647 H   0  0  0  0  0  0  0  0  0  0  0  0
    2.0477   -1.0918   -2.2091 C   0  0  0  0  0  0  0  0  0  0  0  0
    2.3680   -0.1905   -2.7165 H   0  0  0  0  0  0  0  0  0  0  0  0
   -0.9851    1.3114    0.6698 C   0  0  0  0  0  0  0  0  0  0  0  0
   -2.0377    1.8431    0.3168 O   0  0  0  0  0  0  0  0  0  0  0  0
   -0.1052    1.9265    1.4663 N   0  0  0  0  0  0  0  0  0  0  0  0
    0.7810    1.4586    1.6201 H   0  0  0  0  0  0  0  0  0  0  0  0
   -0.2724    3.2715    2.0119 C   0  0  0  0  0  0  0  0  0  0  0  0
   -1.3249    3.4549    2.2426 H   0  0  0  0  0  0  0  0  0  0  0  0
    0.3167    3.3776    2.9239 H   0  0  0  0  0  0  0  0  0  0  0  0
    0.0609    4.0073    1.2782 H   0  0  0  0  0  0  0  0  0  0  0  0
  5  6  2  0  0  0  0
  5  7  1  0  0  0  0
  2  3  1  0  0  0  0
  2  4  1  0  0  0  0
  2  5  1  0  0  0  0
  1  2  1  0  0  0  0
 22 23  2  0  0  0  0
 22 24  1  0  0  0  0
 20 21  1  0  0  0  0
 18 19  1  0  0  0  0
 18 20  1  0  0  0  0
 16 17  1  0  0  0  0
 16 18  1  0  0  0  0
 15 16  2  0  0  0  0
 14 15  1  0  0  0  0
 14 20  2  0  0  0  0
 11 12  1  0  0  0  0
 11 13  1  0  0  0  0
 11 14  1  0  0  0  0
  9 10  1  0  0  0  0
  9 11  1  0  0  0  0
  9 22  1  0  0  0  0
  7  8  1  0  0  0  0
  7  9  1  0  0  0  0
 26 27  1  0  0  0  0
 26 28  1  0  0  0  0
 26 29  1  0  0  0  0
 24 25  1  0  0  0  0
 24 26  1  0  0  0  0
M  END
$$$$
default_name
  -OEChem-02102213163D

 29 29  0     1  0  0  0  0  0999 V2000
   -2.9561   -3.9186    1.3887 H   0  0  0  0  0  0  0  0  0  0  0  0
   -3.1191   -2.9346    0.9517 C   0  0  0  0  0  0  0  0  0  0  0  0
   -3.7811   -2.3546    1.5917 H   0  0  0  0  0  0  0  0  0  0  0  0
   -3.5591   -3.0406   -0.0383 H   0  0  0  0  0  0  0  0  0  0  0  0
   -1.7921   -2.2226    0.8327 C   0  0  0  0  0  0  0  0  0  0  0  0
   -0.7611   -2.7766    1.1927 O   0  0  0  0  0  0  0  0  0  0  0  0
   -1.8201   -0.9926    0.3247 N   0  0  0  0  0  0  0  0  0  0  0  0
   -2.7141   -0.5816    0.0927 H   0  0  0  0  0  0  0  0  0  0  0  0
   -0.6481   -0.1156    0.2017 C   0  0  1  0  0  0  0  0  0  0  0  0
    0.1344   -0.4988    0.8596 H   0  0  0  0  0  0  0  0  0  0  0  0
   -0.1211   -0.1520   -1.2460 C   0  0  0  0  0  0  0  0  0  0  0  0
   -0.9452   -0.3453   -1.9342 H   0  0  0  0  0  0  0  0  0  0  0  0
    0.3049    0.8175   -1.5081 H   0  0  0  0  0  0  0  0  0  0  0  0
    0.9110   -1.2307   -1.4677 C   0  0  0  0  0  0  0  0  0  0  0  0
    0.7132   -2.6005   -1.2889 N   0  0  0  0  0  0  0  0  0  0  0  0
    1.8654   -3.1891   -1.6416 C   0  0  0  0  0  0  0  0  0  0  0  0
    2.0442   -4.2563   -1.6056 H   0  0  0  0  0  0  0  0  0  0  0  0
    2.7556   -2.2701   -2.0517 N   0  0  0  0  0  0  0  0  0  0  0  0
    3.6891   -2.4665   -2.3863 H   0  0  0  0  0  0  0  0  0  0  0  0
    2.1698   -1.0277   -1.9529 C   0  0  0  0  0  0  0  0  0  0  0  0
    2.5991   -0.0709   -2.2225 H   0  0  0  0  0  0  0  0  0  0  0  0
   -0.9851    1.3114    0.6698 C   0  0  0  0  0  0  0  0  0  0  0  0
   -2.0377    1.8431    0.3168 O   0  0  0  0  0  0  0  0  0  0  0  0
   -0.1052    1.9265    1.4663 N   0  0  0  0  0  0  0  0  0  0  0  0
    0.7810    1.4586    1.6201 H   0  0  0  0  0  0  0  0  0  0  0  0
   -0.2724    3.2715    2.0119 C   0  0  0  0  0  0  0  0  0  0  0  0
   -1.3249    3.4549    2.2426 H   0  0  0  0  0  0  0  0  0  0  0  0
    0.3167    3.3776    2.9239 H   0  0  0  0  0  0  0  0  0  0  0  0
    0.0609    4.0073    1.2782 H   0  0  0  0  0  0  0  0  0  0  0  0
  5  6  2  0  0  0  0
  5  7  1  0  0  0  0
  2  3  1  0  0  0  0
  2  4  1  0  0  0  0
  2  5  1  0  0  0  0
  1  2  1  0  0  0  0
 22 23  2  0  0  0  0
 22 24  1  0  0  0  0
 20 21  1  0  0  0  0
 18 19  1  0  0  0  0
 18 20  1  0  0  0  0
 16 17  1  0  0  0  0
 16 18  1  0  0  0  0
 15 16  2  0  0  0  0
 14 15  1  0  0  0  0
 14 20  2  0  0  0  0
 11 12  1  0  0  0  0
 11 13  1  0  0  0  0
 11 14  1  0  0  0  0
  9 10  1  0  0  0  0
  9 11  1  0  0  0  0
  9 22  1  0  0  0  0
  7  8  1  0  0  0  0
  7  9  1  0  0  0  0
 26 27  1  0  0  0  0
 26 28  1  0  0  0  0
 26 29  1  0  0  0  0
 24 25  1  0  0  0  0
 24 26  1  0  0  0  0
M  END
$$$$
default_name
  -OEChem-02102213163D

 29 29  0     1  0  0  0  0  0999 V2000
   -2.9561   -3.9186    1.3887 H   0  0  0  0  0  0  0  0  0  0  0  0
   -3.1191   -2.9346    0.9517 C   0  0  0  0  0  0  0  0  0  0  0  0
   -3.7811   -2.3546    1.5917 H   0  0  0  0  0  0  0  0  0  0  0  0
   -3.5591   -3.0406   -0.0383 H   0  0  0  0  0  0  0  0  0  0  0  0
   -1.7921   -2.2226    0.8327 C   0  0  0  0  0  0  0  0  0  0  0  0
   -0.7611   -2.7766    1.1927 O   0  0  0  0  0  0  0  0  0  0  0  0
   -1.8201   -0.9926    0.3247 N   0  0  0  0  0  0  0  0  0  0  0  0
   -2.7141   -0.5816    0.0927 H   0  0  0  0  0  0  0  0  0  0  0  0
   -0.6481   -0.1156    0.2017 C   0  0  1  0  0  0  0  0  0  0  0  0
    0.1344   -0.4988    0.8596 H   0  0  0  0  0  0  0  0  0  0  0  0
   -0.1211   -0.1520   -1.2460 C   0  0  0  0  0  0  0  0  0  0  0  0
   -0.9452   -0.3453   -1.9342 H   0  0  0  0  0  0  0  0  0  0  0  0
    0.3049    0.8175   -1.5081 H   0  0  0  0  0  0  0  0  0  0  0  0
    0.9110   -1.2307   -1.4677 C   0  0  0  0  0  0  0  0  0  0  0  0
    0.6539   -2.5979   -1.5781 N   0  0  0  0  0  0  0  0  0  0  0  0
    1.8390   -3.1785   -1.8161 C   0  0  0  0  0  0  0  0  0  0  0  0
    1.9850   -4.2439   -1.9415 H   0  0  0  0  0  0  0  0  0  0  0  0
    2.8100   -2.2523   -1.8850 N   0  0  0  0  0  0  0  0  0  0  0  0
    3.7853   -2.4385   -2.0744 H   0  0  0  0  0  0  0  0  0  0  0  0
    2.2427   -1.0157   -1.6715 C   0  0  0  0  0  0  0  0  0  0  0  0
    2.7355   -0.0516   -1.6814 H   0  0  0  0  0  0  0  0  0  0  0  0
   -0.9851    1.3114    0.6698 C   0  0  0  0  0  0  0  0  0  0  0  0
   -2.0377    1.8431    0.3168 O   0  0  0  0  0  0  0  0  0  0  0  0
   -0.1052    1.9265    1.4663 N   0  0  0  0  0  0  0  0  0  0  0  0
    0.7810    1.4586    1.6201 H   0  0  0  0  0  0  0  0  0  0  0  0
   -0.2724    3.2715    2.0119 C   0  0  0  0  0  0  0  0  0  0  0  0
   -1.3249    3.4549    2.2426 H   0  0  0  0  0  0  0  0  0  0  0  0
    0.3167    3.3776    2.9239 H   0  0  0  0  0  0  0  0  0  0  0  0
    0.0609    4.0073    1.2782 H   0  0  0  0  0  0  0  0  0  0  0  0
  5  6  2  0  0  0  0
  5  7  1  0  0  0  0
  2  3  1  0  0  0  0
  2  4  1  0  0  0  0
  2  5  1  0  0  0  0
  1  2  1  0  0  0  0
 22 23  2  0  0  0  0
 22 24  1  0  0  0  0
 20 21  1  0  0  0  0
 18 19  1  0  0  0  0
 18 20  1  0  0  0  0
 16 17  1  0  0  0  0
 16 18  1  0  0  0  0
 15 16  2  0  0  0  0
 14 15  1  0  0  0  0
 14 20  2  0  0  0  0
 11 12  1  0  0  0  0
 11 13  1  0  0  0  0
 11 14  1  0  0  0  0
  9 10  1  0  0  0  0
  9 11  1  0  0  0  0
  9 22  1  0  0  0  0
  7  8  1  0  0  0  0
  7  9  1  0  0  0  0
 26 27  1  0  0  0  0
 26 28  1  0  0  0  0
 26 29  1  0  0  0  0
 24 25  1  0  0  0  0
 24 26  1  0  0  0  0
M  END
$$$$
default_name
  -OEChem-02102213163D

 29 29  0     1  0  0  0  0  0999 V2000
   -2.9561   -3.9186    1.3887 H   0  0  0  0  0  0  0  0  0  0  0  0
   -3.1191   -2.9346    0.9517 C   0  0  0  0  0  0  0  0  0  0  0  0
   -3.7811   -2.3546    1.5917 H   0  0  0  0  0  0  0  0  0  0  0  0
   -3.5591   -3.0406   -0.0383 H   0  0  0  0  0  0  0  0  0  0  0  0
   -1.7921   -2.2226    0.8327 C   0  0  0  0  0  0  0  0  0  0  0  0
   -0.7611   -2.7766    1.1927 O   0  0  0  0  0  0  0  0  0  0  0  0
   -1.8201   -0.9926    0.3247 N   0  0  0  0  0  0  0  0  0  0  0  0
   -2.7141   -0.5816    0.0927 H   0  0  0  0  0  0  0  0  0  0  0  0
   -0.6481   -0.1156    0.2017 C   0  0  1  0  0  0  0  0  0  0  0  0
    0.1344   -0.4988    0.8596 H   0  0  0  0  0  0  0  0  0  0  0  0
   -0.1211   -0.1520   -1.2460 C   0  0  0  0  0  0  0  0  0  0  0  0
   -0.9452   -0.3453   -1.9342 H   0  0  0  0  0  0  0  0  0  0  0  0
    0.3049    0.8175   -1.5081 H   0  0  0  0  0  0  0  0  0  0  0  0
    0.9110   -1.2307   -1.4677 C   0  0  0  0  0  0  0  0  0  0  0  0
    0.6501   -2.5419   -1.8680 N   0  0  0  0  0  0  0  0  0  0  0  0
    1.8462   -3.1363   -1.9877 C   0  0  0  0  0  0  0  0  0  0  0  0
    1.9904   -4.1703   -2.2748 H   0  0  0  0  0  0  0  0  0  0  0  0
    2.8323   -2.2667   -1.7108 N   0  0  0  0  0  0  0  0  0  0  0  0
    3.8217   -2.4703   -1.7503 H   0  0  0  0  0  0  0  0  0  0  0  0
    2.2616   -1.0567   -1.3841 C   0  0  0  0  0  0  0  0  0  0  0  0
    2.7678   -0.1340   -1.1301 H   0  0  0  0  0  0  0  0  0  0  0  0
   -0.9851    1.3114    0.6698 C   0  0  0  0  0  0  0  0  0  0  0  0
   -2.0377    1.8431    0.3168 O   0  0  0  0  0  0  0  0  0  0  0  0
   -0.1052    1.9265    1.4663 N   0  0  0  0  0  0  0  0  0  0  0  0
    0.7810    1.4586    1.6201 H   0  0  0  0  0  0  0  0  0  0  0  0
   -0.2724    3.2715    2.0119 C   0  0  0  0  0  0  0  0  0  0  0  0
   -1.3249    3.4549    2.2426 H   0  0  0  0  0  0  0  0  0  0  0  0
    0.3167    3.3776    2.9239 H   0  0  0  0  0  0  0  0  0  0  0  0
    0.0609    4.0073    1.2782 H   0  0  0  0  0  0  0  0  0  0  0  0
  5  6  2  0  0  0  0
  5  7  1  0  0  0  0
  2  3  1  0  0  0  0
  2  4  1  0  0  0  0
  2  5  1  0  0  0  0
  1  2  1  0  0  0  0
 22 23  2  0  0  0  0
 22 24  1  0  0  0  0
 20 21  1  0  0  0  0
 18 19  1  0  0  0  0
 18 20  1  0  0  0  0
 16 17  1  0  0  0  0
 16 18  1  0  0  0  0
 15 16  2  0  0  0  0
 14 15  1  0  0  0  0
 14 20  2  0  0  0  0
 11 12  1  0  0  0  0
 11 13  1  0  0  0  0
 11 14  1  0  0  0  0
  9 10  1  0  0  0  0
  9 11  1  0  0  0  0
  9 22  1  0  0  0  0
  7  8  1  0  0  0  0
  7  9  1  0  0  0  0
 26 27  1  0  0  0  0
 26 28  1  0  0  0  0
 26 29  1  0  0  0  0
 24 25  1  0  0  0  0
 24 26  1  0  0  0  0
M  END
$$$$
default_name
  -OEChem-02102213163D

 29 29  0     1  0  0  0  0  0999 V2000
   -2.9561   -3.9186    1.3887 H   0  0  0  0  0  0  0  0  0  0  0  0
   -3.1191   -2.9346    0.9517 C   0  0  0  0  0  0  0  0  0  0  0  0
   -3.7811   -2.3546    1.5917 H   0  0  0  0  0  0  0  0  0  0  0  0
   -3.5591   -3.0406   -0.0383 H   0  0  0  0  0  0  0  0  0  0  0  0
   -1.7921   -2.2226    0.8327 C   0  0  0  0  0  0  0  0  0  0  0  0
   -0.7611   -2.7766    1.1927 O   0  0  0  0  0  0  0  0  0  0  0  0
   -1.8201   -0.9926    0.3247 N   0  0  0  0  0  0  0  0  0  0  0  0
   -2.7141   -0.5816    0.0927 H   0  0  0  0  0  0  0  0  0  0  0  0
   -0.6481   -0.1156    0.2017 C   0  0  1  0  0  0  0  0  0  0  0  0
    0.1344   -0.4988    0.8596 H   0  0  0  0  0  0  0  0  0  0  0  0
   -0.1211   -0.1520   -1.2460 C   0  0  0  0  0  0  0  0  0  0  0  0
   -0.9452   -0.3453   -1.9342 H   0  0  0  0  0  0  0  0  0  0  0  0
    0.3049    0.8175   -1.5081 H   0  0  0  0  0  0  0  0  0  0  0  0
    0.9110   -1.2307   -1.4677 C   0  0  0  0  0  0  0  0  0  0  0  0
    0.7023   -2.4363   -2.1387 N   0  0  0  0  0  0  0  0  0  0  0  0
    1.8865   -3.0655   -2.1446 C   0  0  0  0  0  0  0  0  0  0  0  0
    2.0601   -4.0403   -2.5827 H   0  0  0  0  0  0  0  0  0  0  0  0
    2.8212   -2.3123   -1.5409 N   0  0  0  0  0  0  0  0  0  0  0  0
    3.7957   -2.5597   -1.4363 H   0  0  0  0  0  0  0  0  0  0  0  0
    2.2250   -1.1480   -1.1103 C   0  0  0  0  0  0  0  0  0  0  0  0
    2.6940   -0.3123   -0.6062 H   0  0  0  0  0  0  0  0  0  0  0  0
   -0.9851    1.3114    0.6698 C   0  0  0  0  0  0  0  0  0  0  0  0
   -2.0377    1.8431    0.3168 O   0  0  0  0  0  0  0  0  0  0  0  0
   -0.1052    1.9265    1.4663 N   0  0  0  0  0  0  0  0  0  0  0  0
    0.7810    1.4586    1.6201 H   0  0  0  0  0  0  0  0  0  0  0  0
   -0.2724    3.2715    2.0119 C   0  0  0  0  0  0  0  0  0  0  0  0
   -1.3249    3.4549    2.2426 H   0  0  0  0  0  0  0  0  0  0  0  0
    0.3167    3.3776    2.9239 H   0  0  0  0  0  0  0  0  0  0  0  0
    0.0609    4.0073    1.2782 H   0  0  0  0  0  0  0  0  0  0  0  0
  5  6  2  0  0  0  0
  5  7  1  0  0  0  0
  2  3  1  0  0  0  0
  2  4  1  0  0  0  0
  2  5  1  0  0  0  0
  1  2  1  0  0  0  0
 22 23  2  0  0  0  0
 22 24  1  0  0  0  0
 20 21  1  0  0  0  0
 18 19  1  0  0  0  0
 18 20  1  0  0  0  0
 16 17  1  0  0  0  0
 16 18  1  0  0  0  0
 15 16  2  0  0  0  0
 14 15  1  0  0  0  0
 14 20  2  0  0  0  0
 11 12  1  0  0  0  0
 11 13  1  0  0  0  0
 11 14  1  0  0  0  0
  9 10  1  0  0  0  0
  9 11  1  0  0  0  0
  9 22  1  0  0  0  0
  7  8  1  0  0  0  0
  7  9  1  0  0  0  0
 26 27  1  0  0  0  0
 26 28  1  0  0  0  0
 26 29  1  0  0  0  0
 24 25  1  0  0  0  0
 24 26  1  0  0  0  0
M  END
$$$$
default_name
  -OEChem-02102213163D

 29 29  0     1  0  0  0  0  0999 V2000
   -2.9561   -3.9186    1.3887 H   0  0  0  0  0  0  0  0  0  0  0  0
   -3.1191   -2.9346    0.9517 C   0  0  0  0  0  0  0  0  0  0  0  0
   -3.7811   -2.3546    1.5917 H   0  0  0  0  0  0  0  0  0  0  0  0
   -3.5591   -3.0406   -0.0383 H   0  0  0  0  0  0  0  0  0  0  0  0
   -1.7921   -2.2226    0.8327 C   0  0  0  0  0  0  0  0  0  0  0  0
   -0.7611   -2.7766    1.1927 O   0  0  0  0  0  0  0  0  0  0  0  0
   -1.8201   -0.9926    0.3247 N   0  0  0  0  0  0  0  0  0  0  0  0
   -2.7141   -0.5816    0.0927 H   0  0  0  0  0  0  0  0  0  0  0  0
   -0.6481   -0.1156    0.2017 C   0  0  1  0  0  0  0  0  0  0  0  0
    0.1344   -0.4988    0.8596 H   0  0  0  0  0  0  0  0  0  0  0  0
   -0.1211   -0.1520   -1.2460 C   0  0  0  0  0  0  0  0  0  0  0  0
   -0.9452   -0.3453   -1.9342 H   0  0  0  0  0  0  0  0  0  0  0  0
    0.3049    0.8175   -1.5081 H   0  0  0  0  0  0  0  0  0  0  0  0
    0.9110   -1.2307   -1.4677 C   0  0  0  0  0  0  0  0  0  0  0  0
    0.8068   -2.2885   -2.3719 N   0  0  0  0  0  0  0  0  0  0  0  0
    1.9572   -2.9709   -2.2762 C   0  0  0  0  0  0  0  0  0  0  0  0
    2.1893   -3.8629   -2.8442 H   0  0  0  0  0  0  0  0  0  0  0  0
    2.7772   -2.3860   -1.3870 N   0  0  0  0  0  0  0  0  0  0  0  0
    3.7091   -2.7007   -1.1535 H   0  0  0  0  0  0  0  0  0  0  0  0
    2.1356   -1.2831   -0.8687 C   0  0  0  0  0  0  0  0  0  0  0  0
    2.5189   -0.5744   -0.1454 H   0  0  0  0  0  0  0  0  0  0  0  0
   -0.9851    1.3114    0.6698 C   0  0  0  0  0  0  0  0  0  0  0  0
   -2.0377    1.8431    0.3168 O   0  0  0  0  0  0  0  0  0  0  0  0
   -0.1052    1.9265    1.4663 N   0  0  0  0  0  0  0  0  0  0  0  0
    0.7810    1.4586    1.6201 H   0  0  0  0  0  0  0  0  0  0  0  0
   -0.2724    3.2715    2.0119 C   0  0  0  0  0  0  0  0  0  0  0  0
   -1.3249    3.4549    2.2426 H   0  0  0  0  0  0  0  0  0  0  0  0
    0.3167    3.3776    2.9239 H   0  0  0  0  0  0  0  0  0  0  0  0
    0.0609    4.0073    1.2782 H   0  0  0  0  0  0  0  0  0  0  0  0
  5  6  2  0  0  0  0
  5  7  1  0  0  0  0
  2  3  1  0  0  0  0
  2  4  1  0  0  0  0
  2  5  1  0  0  0  0
  1  2  1  0  0  0  0
 22 23  2  0  0  0  0
 22 24  1  0  0  0  0
 20 21  1  0  0  0  0
 18 19  1  0  0  0  0
 18 20  1  0  0  0  0
 16 17  1  0  0  0  0
 16 18  1  0  0  0  0
 15 16  2  0  0  0  0
 14 15  1  0  0  0  0
 14 20  2  0  0  0  0
 11 12  1  0  0  0  0
 11 13  1  0  0  0  0
 11 14  1  0  0  0  0
  9 10  1  0  0  0  0
  9 11  1  0  0  0  0
  9 22  1  0  0  0  0
  7  8  1  0  0  0  0
  7  9  1  0  0  0  0
 26 27  1  0  0  0  0
 26 28  1  0  0  0  0
 26 29  1  0  0  0  0
 24 25  1  0  0  0  0
 24 26  1  0  0  0  0
M  END
$$$$
default_name
  -OEChem-02102213163D

 29 29  0     1  0  0  0  0  0999 V2000
   -2.9561   -3.9186    1.3887 H   0  0  0  0  0  0  0  0  0  0  0  0
   -3.1191   -2.9346    0.9517 C   0  0  0  0  0  0  0  0  0  0  0  0
   -3.7811   -2.3546    1.5917 H   0  0  0  0  0  0  0  0  0  0  0  0
   -3.5591   -3.0406   -0.0383 H   0  0  0  0  0  0  0  0  0  0  0  0
   -1.7921   -2.2226    0.8327 C   0  0  0  0  0  0  0  0  0  0  0  0
   -0.7611   -2.7766    1.1927 O   0  0  0  0  0  0  0  0  0  0  0  0
   -1.8201   -0.9926    0.3247 N   0  0  0  0  0  0  0  0  0  0  0  0
   -2.7141   -0.5816    0.0927 H   0  0  0  0  0  0  0  0  0  0  0  0
   -0.6481   -0.1156    0.2017 C   0  0  1  0  0  0  0  0  0  0  0  0
    0.1344   -0.4988    0.8596 H   0  0  0  0  0  0  0  0  0  0  0  0
   -0.1211   -0.1520   -1.2460 C   0  0  0  0  0  0  0  0  0  0  0  0
   -0.9452   -0.3453   -1.9342 H   0  0  0  0  0  0  0  0  0  0  0  0
    0.3049    0.8175   -1.5081 H   0  0  0  0  0  0  0  0  0  0  0  0
    0.9110   -1.2307   -1.4677 C   0  0  0  0  0  0  0  0  0  0  0  0
    0.9564   -2.1083   -2.5517 N   0  0  0  0  0  0  0  0  0  0  0  0
    2.0534   -2.8588   -2.3735 C   0  0  0  0  0  0  0  0  0  0  0  0
    2.3693   -3.6502   -3.0415 H   0  0  0  0  0  0  0  0  0  0  0  0
    2.7035   -2.4828   -1.2594 N   0  0  0  0  0  0  0  0  0  0  0  0
    3.5677   -2.8836   -0.9214 H   0  0  0  0  0  0  0  0  0  0  0  0
    1.9995   -1.4531   -0.6758 C   0  0  0  0  0  0  0  0  0  0  0  0
    2.2547   -0.9026    0.2210 H   0  0  0  0  0  0  0  0  0  0  0  0
   -0.9851    1.3114    0.6698 C   0  0  0  0  0  0  0  0  0  0  0  0
   -2.0377    1.8431    0.3168 O   0  0  0  0  0  0  0  0  0  0  0  0
   -0.1052    1.9265    1.4663 N   0  0  0  0  0  0  0  0  0  0  0  0
    0.7810    1.4586    1.6201 H   0  0  0  0  0  0  0  0  0  0  0  0
   -0.2724    3.2715    2.0119 C   0  0  0  0  0  0  0  0  0  0  0  0
   -1.3249    3.4549    2.2426 H   0  0  0  0  0  0  0  0  0  0  0  0
    0.3167    3.3776    2.9239 H   0  0  0  0  0  0  0  0  0  0  0  0
    0.0609    4.0073    1.2782 H   0  0  0  0  0  0  0  0  0  0  0  0
  5  6  2  0  0  0  0
  5  7  1  0  0  0  0
  2  3  1  0  0  0  0
  2  4  1  0  0  0  0
  2  5  1  0  0  0  0
  1  2  1  0  0  0  0
 22 23  2  0  0  0  0
 22 24  1  0  0  0  0
 20 21  1  0  0  0  0
 18 19  1  0  0  0  0
 18 20  1  0  0  0  0
 16 17  1  0  0  0  0
 16 18  1  0  0  0  0
 15 16  2  0  0  0  0
 14 15  1  0  0  0  0
 14 20  2  0  0  0  0
 11 12  1  0  0  0  0
 11 13  1  0  0  0  0
 11 14  1  0  0  0  0
  9 10  1  0  0  0  0
  9 11  1  0  0  0  0
  9 22  1  0  0  0  0
  7  8  1  0  0  0  0
  7  9  1  0  0  0  0
 26 27  1  0  0  0  0
 26 28  1  0  0  0  0
 26 29  1  0  0  0  0
 24 25  1  0  0  0  0
 24 26  1  0  0  0  0
M  END
$$$$
default_name
  -OEChem-02102213163D

 29 29  0     1  0  0  0  0  0999 V2000
   -2.9561   -3.9186    1.3887 H   0  0  0  0  0  0  0  0  0  0  0  0
   -3.1191   -2.9346    0.9517 C   0  0  0  0  0  0  0  0  0  0  0  0
   -3.7811   -2.3546    1.5917 H   0  0  0  0  0  0  0  0  0  0  0  0
   -3.5591   -3.0406   -0.0383 H   0  0  0  0  0  0  0  0  0  0  0  0
   -1.7921   -2.2226    0.8327 C   0  0  0  0  0  0  0  0  0  0  0  0
   -0.7611   -2.7766    1.1927 O   0  0  0  0  0  0  0  0  0  0  0  0
   -1.8201   -0.9926    0.3247 N   0  0  0  0  0  0  0  0  0  0  0  0
   -2.7141   -0.5816    0.0927 H   0  0  0  0  0  0  0  0  0  0  0  0
   -0.6481   -0.1156    0.2017 C   0  0  1  0  0  0  0  0  0  0  0  0
    0.1344   -0.4988    0.8596 H   0  0  0  0  0  0  0  0  0  0  0  0
   -0.1211   -0.1520   -1.2460 C   0  0  0  0  0  0  0  0  0  0  0  0
   -0.9452   -0.3453   -1.9342 H   0  0  0  0  0  0  0  0  0  0  0  0
    0.3049    0.8175   -1.5081 H   0  0  0  0  0  0  0  0  0  0  0  0
    0.9110   -1.2307   -1.4677 C   0  0  0  0  0  0  0  0  0  0  0  0
    1.1411   -1.9082   -2.6658 N   0  0  0  0  0  0  0  0  0  0  0  0
    2.1685   -2.7371   -2.4299 C   0  0  0  0  0  0  0  0  0  0  0  0
    2.5876   -3.4167   -3.1611 H   0  0  0  0  0  0  0  0  0  0  0  0
    2.6050   -2.5960   -1.1670 N   0  0  0  0  0  0  0  0  0  0  0  0
    3.3813   -3.0960   -0.7557 H   0  0  0  0  0  0  0  0  0  0  0  0
    1.8258   -1.6462   -0.5447 C   0  0  0  0  0  0  0  0  0  0  0  0
    1.9192   -1.2743    0.4679 H   0  0  0  0  0  0  0  0  0  0  0  0
   -0.9851    1.3114    0.6698 C   0  0  0  0  0  0  0  0  0  0  0  0
   -2.0377    1.8431    0.3168 O   0  0  0  0  0  0  0  0  0  0  0  0
   -0.1052    1.9265    1.4663 N   0  0  0  0  0  0  0  0  0  0  0  0
    0.7810    1.4586    1.6201 H   0  0  0  0  0  0  0  0  0  0  0  0
   -0.2724    3.2715    2.0119 C   0  0  0  0  0  0  0  0  0  0  0  0
   -1.3249    3.4549    2.2426 H   0  0  0  0  0  0  0  0  0  0  0  0
    0.3167    3.3776    2.9239 H   0  0  0  0  0  0  0  0  0  0  0  0
    0.0609    4.0073    1.2782 H   0  0  0  0  0  0  0  0  0  0  0  0
  5  6  2  0  0  0  0
  5  7  1  0  0  0  0
  2  3  1  0  0  0  0
  2  4  1  0  0  0  0
  2  5  1  0  0  0  0
  1  2  1  0  0  0  0
 22 23  2  0  0  0  0
 22 24  1  0  0  0  0
 20 21  1  0  0  0  0
 18 19  1  0  0  0  0
 18 20  1  0  0  0  0
 16 17  1  0  0  0  0
 16 18  1  0  0  0  0
 15 16  2  0  0  0  0
 14 15  1  0  0  0  0
 14 20  2  0  0  0  0
 11 12  1  0  0  0  0
 11 13  1  0  0  0  0
 11 14  1  0  0  0  0
  9 10  1  0  0  0  0
  9 11  1  0  0  0  0
  9 22  1  0  0  0  0
  7  8  1  0  0  0  0
  7  9  1  0  0  0  0
 26 27  1  0  0  0  0
 26 28  1  0  0  0  0
 26 29  1  0  0  0  0
 24 25  1  0  0  0  0
 24 26  1  0  0  0  0
M  END
$$$$
default_name
  -OEChem-02102213163D

 29 29  0     1  0  0  0  0  0999 V2000
   -2.9561   -3.9186    1.3887 H   0  0  0  0  0  0  0  0  0  0  0  0
   -3.1191   -2.9346    0.9517 C   0  0  0  0  0  0  0  0  0  0  0  0
   -3.7811   -2.3546    1.5917 H   0  0  0  0  0  0  0  0  0  0  0  0
   -3.5591   -3.0406   -0.0383 H   0  0  0  0  0  0  0  0  0  0  0  0
   -1.7921   -2.2226    0.8327 C   0  0  0  0  0  0  0  0  0  0  0  0
   -0.7611   -2.7766    1.1927 O   0  0  0  0  0  0  0  0  0  0  0  0
   -1.8201   -0.9926    0.3247 N   0  0  0  0  0  0  0  0  0  0  0  0
   -2.7141   -0.5816    0.0927 H   0  0  0  0  0  0  0  0  0  0  0  0
   -0.6481   -0.1156    0.2017 C   0  0  1  0  0  0  0  0  0  0  0  0
    0.1344   -0.4988    0.8596 H   0  0  0  0  0  0  0  0  0  0  0  0
   -0.1211   -0.1520   -1.2460 C   0  0  0  0  0  0  0  0  0  0  0  0
   -0.9452   -0.3453   -1.9342 H   0  0  0  0  0  0  0  0  0  0  0  0
    0.3049    0.8175   -1.5081 H   0  0  0  0  0  0  0  0  0  0  0  0
    0.9110   -1.2307   -1.4677 C   0  0  0  0  0  0  0  0  0  0  0  0
    1.3482   -1.7017   -2.7064 N   0  0  0  0  0  0  0  0  0  0  0  0
    2.2948   -2.6138   -2.4415 C   0  0  0  0  0  0  0  0  0  0  0  0
    2.8296   -3.1783   -3.1949 H   0  0  0  0  0  0  0  0  0  0  0  0
    2.4884   -2.7180   -1.1160 N   0  0  0  0  0  0  0  0  0  0  0  0
    3.1625   -3.3234   -0.6677 H   0  0  0  0  0  0  0  0  0  0  0  0
    1.6264   -1.8493   -0.4844 C   0  0  0  0  0  0  0  0  0  0  0  0
    1.5353   -1.6643    0.5785 H   0  0  0  0  0  0  0  0  0  0  0  0
   -0.9851    1.3114    0.6698 C   0  0  0  0  0  0  0  0  0  0  0  0
   -2.0377    1.8431    0.3168 O   0  0  0  0  0  0  0  0  0  0  0  0
   -0.1052    1.9265    1.4663 N   0  0  0  0  0  0  0  0  0  0  0  0
    0.7810    1.4586    1.6201 H   0  0  0  0  0  0  0  0  0  0  0  0
   -0.2724    3.2715    2.0119 C   0  0  0  0  0  0  0  0  0  0  0  0
   -1.3249    3.4549    2.2426 H   0  0  0  0  0  0  0  0  0  0  0  0
    0.3167    3.3776    2.9239 H   0  0  0  0  0  0  0  0  0  0  0  0
    0.0609    4.0073    1.2782 H   0  0  0  0  0  0  0  0  0  0  0  0
  5  6  2  0  0  0  0
  5  7  1  0  0  0  0
  2  3  1  0  0  0  0
  2  4  1  0  0  0  0
  2  5  1  0  0  0  0
  1  2  1  0  0  0  0
 22 23  2  0  0  0  0
 22 24  1  0  0  0  0
 20 21  1  0  0  0  0
 18 19  1  0  0  0  0
 18 20  1  0  0  0  0
 16 17  1  0  0  0  0
 16 18  1  0  0  0  0
 15 16  2  0  0  0  0
 14 15  1  0  0  0  0
 14 20  2  0  0  0  0
 11 12  1  0  0  0  0
 11 13  1  0  0  0  0
 11 14  1  0  0  0  0
  9 10  1  0  0  0  0
  9 11  1  0  0  0  0
  9 22  1  0  0  0  0
  7  8  1  0  0  0  0
  7  9  1  0  0  0  0
 26 27  1  0  0  0  0
 26 28  1  0  0  0  0
 26 29  1  0  0  0  0
 24 25  1  0  0  0  0
 24 26  1  0  0  0  0
M  END
$$$$
default_name
  -OEChem-02102213163D

 29 29  0     1  0  0  0  0  0999 V2000
   -2.9561   -3.9186    1.3887 H   0  0  0  0  0  0  0  0  0  0  0  0
   -3.1191   -2.9346    0.9517 C   0  0  0  0  0  0  0  0  0  0  0  0
   -3.7811   -2.3546    1.5917 H   0  0  0  0  0  0  0  0  0  0  0  0
   -3.5591   -3.0406   -0.0383 H   0  0  0  0  0  0  0  0  0  0  0  0
   -1.7921   -2.2226    0.8327 C   0  0  0  0  0  0  0  0  0  0  0  0
   -0.7611   -2.7766    1.1927 O   0  0  0  0  0  0  0  0  0  0  0  0
   -1.8201   -0.9926    0.3247 N   0  0  0  0  0  0  0  0  0  0  0  0
   -2.7141   -0.5816    0.0927 H   0  0  0  0  0  0  0  0  0  0  0  0
   -0.6481   -0.1156    0.2017 C   0  0  1  0  0  0  0  0  0  0  0  0
    0.1344   -0.4988    0.8596 H   0  0  0  0  0  0  0  0  0  0  0  0
   -0.1211   -0.1520   -1.2460 C   0  0  0  0  0  0  0  0  0  0  0  0
   -0.9556   -0.0777   -1.9447 H   0  0  0  0  0  0  0  0  0  0  0  0
    0.5320    0.7038   -1.4226 H   0  0  0  0  0  0  0  0  0  0  0  0
    0.6217   -1.4257   -1.5681 C   0  0  0  0  0  0  0  0  0  0  0  0
    1.2091   -1.7420   -2.7938 N   0  0  0  0  0  0  0  0  0  0  0  0
    1.7973   -2.9352   -2.6246 C   0  0  0  0  0  0  0  0  0  0  0  0
    2.3348   -3.4684   -3.3985 H   0  0  0  0  0  0  0  0  0  0  0  0
    1.6318   -3.3652   -1.3624 N   0  0  0  0  0  0  0  0  0  0  0  0
    1.9993   -4.2275   -0.9839 H   0  0  0  0  0  0  0  0  0  0  0  0
    0.8954   -2.4235   -0.6787 C   0  0  0  0  0  0  0  0  0  0  0  0
    0.6010   -2.4431    0.3631 H   0  0  0  0  0  0  0  0  0  0  0  0
   -0.9851    1.3114    0.6698 C   0  0  0  0  0  0  0  0  0  0  0  0
   -2.0377    1.8431    0.3168 O   0  0  0  0  0  0  0  0  0  0  0  0
   -0.1052    1.9265    1.4663 N   0  0  0  0  0  0  0  0  0  0  0  0
    0.7810    1.4586    1.6201 H   0  0  0  0  0  0  0  0  0  0  0  0
   -0.2724    3.2715    2.0119 C   0  0  0  0  0  0  0  0  0  0  0  0
   -1.3249    3.4549    2.2426 H   0  0  0  0  0  0  0  0  0  0  0  0
    0.3167    3.3776    2.9239 H   0  0  0  0  0  0  0  0  0  0  0  0
    0.0609    4.0073    1.2782 H   0  0  0  0  0  0  0  0  0  0  0  0
  5  6  2  0  0  0  0
  5  7  1  0  0  0  0
  2  3  1  0  0  0  0
  2  4  1  0  0  0  0
  2  5  1  0  0  0  0
  1  2  1  0  0  0  0
 22 23  2  0  0  0  0
 22 24  1  0  0  0  0
 20 21  1  0  0  0  0
 18 19  1  0  0  0  0
 18 20  1  0  0  0  0
 16 17  1  0  0  0  0
 16 18  1  0  0  0  0
 15 16  2  0  0  0  0
 14 15  1  0  0  0  0
 14 20  2  0  0  0  0
 11 12  1  0  0  0  0
 11 13  1  0  0  0  0
 11 14  1  0  0  0  0
  9 10  1  0  0  0  0
  9 11  1  0  0  0  0
  9 22  1  0  0  0  0
  7  8  1  0  0  0  0
  7  9  1  0  0  0  0
 26 27  1  0  0  0  0
 26 28  1  0  0  0  0
 26 29  1  0  0  0  0
 24 25  1  0  0  0  0
 24 26  1  0  0  0  0
M  END
$$$$
default_name
  -OEChem-02102213163D

 29 29  0     1  0  0  0  0  0999 V2000
   -2.9561   -3.9186    1.3887 H   0  0  0  0  0  0  0  0  0  0  0  0
   -3.1191   -2.9346    0.9517 C   0  0  0  0  0  0  0  0  0  0  0  0
   -3.7811   -2.3546    1.5917 H   0  0  0  0  0  0  0  0  0  0  0  0
   -3.5591   -3.0406   -0.0383 H   0  0  0  0  0  0  0  0  0  0  0  0
   -1.7921   -2.2226    0.8327 C   0  0  0  0  0  0  0  0  0  0  0  0
   -0.7611   -2.7766    1.1927 O   0  0  0  0  0  0  0  0  0  0  0  0
   -1.8201   -0.9926    0.3247 N   0  0  0  0  0  0  0  0  0  0  0  0
   -2.7141   -0.5816    0.0927 H   0  0  0  0  0  0  0  0  0  0  0  0
   -0.6481   -0.1156    0.2017 C   0  0  1  0  0  0  0  0  0  0  0  0
    0.1344   -0.4988    0.8596 H   0  0  0  0  0  0  0  0  0  0  0  0
   -0.1211   -0.1520   -1.2460 C   0  0  0  0  0  0  0  0  0  0  0  0
   -0.9556   -0.0777   -1.9447 H   0  0  0  0  0  0  0  0  0  0  0  0
    0.5320    0.7038   -1.4226 H   0  0  0  0  0  0  0  0  0  0  0  0
    0.6217   -1.4257   -1.5681 C   0  0  0  0  0  0  0  0  0  0  0  0
    1.4530   -1.6310   -2.6700 N   0  0  0  0  0  0  0  0  0  0  0  0
    1.9394   -2.8738   -2.5392 C   0  0  0  0  0  0  0  0  0  0  0  0
    2.6131   -3.3453   -3.2436 H   0  0  0  0  0  0  0  0  0  0  0  0
    1.4804   -3.4412   -1.4110 N   0  0  0  0  0  0  0  0  0  0  0  0
    1.7189   -4.3664   -1.0811 H   0  0  0  0  0  0  0  0  0  0  0  0
    0.6499   -2.5405   -0.7821 C   0  0  0  0  0  0  0  0  0  0  0  0
    0.1310   -2.6658    0.1600 H   0  0  0  0  0  0  0  0  0  0  0  0
   -0.9851    1.3114    0.6698 C   0  0  0  0  0  0  0  0  0  0  0  0
   -2.0377    1.8431    0.3168 O   0  0  0  0  0  0  0  0  0  0  0  0
   -0.1052    1.9265    1.4663 N   0  0  0  0  0  0  0  0  0  0  0  0
    0.7810    1.4586    1.6201 H   0  0  0  0  0  0  0  0  0  0  0  0
   -0.2724    3.2715    2.0119 C   0  0  0  0  0  0  0  0  0  0  0  0
   -1.3249    3.4549    2.2426 H   0  0  0  0  0  0  0  0  0  0  0  0
    0.3167    3.3776    2.9239 H   0  0  0  0  0  0  0  0  0  0  0  0
    0.0609    4.0073    1.2782 H   0  0  0  0  0  0  0  0  0  0  0  0
  5  6  2  0  0  0  0
  5  7  1  0  0  0  0
  2  3  1  0  0  0  0
  2  4  1  0  0  0  0
  2  5  1  0  0  0  0
  1  2  1  0  0  0  0
 22 23  2  0  0  0  0
 22 24  1  0  0  0  0
 20 21  1  0  0  0  0
 18 19  1  0  0  0  0
 18 20  1  0  0  0  0
 16 17  1  0  0  0  0
 16 18  1  0  0  0  0
 15 16  2  0  0  0  0
 14 15  1  0  0  0  0
 14 20  2  0  0  0  0
 11 12  1  0  0  0  0
 11 13  1  0  0  0  0
 11 14  1  0  0  0  0
  9 10  1  0  0  0  0
  9 11  1  0  0  0  0
  9 22  1  0  0  0  0
  7  8  1  0  0  0  0
  7  9  1  0  0  0  0
 26 27  1  0  0  0  0
 26 28  1  0  0  0  0
 26 29  1  0  0  0  0
 24 25  1  0  0  0  0
 24 26  1  0  0  0  0
M  END
$$$$
default_name
  -OEChem-02102213163D

 29 29  0     1  0  0  0  0  0999 V2000
   -2.9561   -3.9186    1.3887 H   0  0  0  0  0  0  0  0  0  0  0  0
   -3.1191   -2.9346    0.9517 C   0  0  0  0  0  0  0  0  0  0  0  0
   -3.7811   -2.3546    1.5917 H   0  0  0  0  0  0  0  0  0  0  0  0
   -3.5591   -3.0406   -0.0383 H   0  0  0  0  0  0  0  0  0  0  0  0
   -1.7921   -2.2226    0.8327 C   0  0  0  0  0  0  0  0  0  0  0  0
   -0.7611   -2.7766    1.1927 O   0  0  0  0  0  0  0  0  0  0  0  0
   -1.8201   -0.9926    0.3247 N   0  0  0  0  0  0  0  0  0  0  0  0
   -2.7141   -0.5816    0.0927 H   0  0  0  0  0  0  0  0  0  0  0  0
   -0.6481   -0.1156    0.2017 C   0  0  1  0  0  0  0  0  0  0  0  0
    0.1344   -0.4988    0.8596 H   0  0  0  0  0  0  0  0  0  0  0  0
   -0.1211   -0.1520   -1.2460 C   0  0  0  0  0  0  0  0  0  0  0  0
   -0.9556   -0.0777   -1.9447 H   0  0  0  0  0  0  0  0  0  0  0  0
    0.5320    0.7038   -1.4226 H   0  0  0  0  0  0  0  0  0  0  0  0
    0.6217   -1.4257   -1.5681 C   0  0  0  0  0  0  0  0  0  0  0  0
    1.6678   -1.5531   -2.4829 N   0  0  0  0  0  0  0  0  0  0  0  0
    2.0615   -2.8333   -2.4178 C   0  0  0  0  0  0  0  0  0  0  0  0
    2.8548   -3.2615   -3.0176 H   0  0  0  0  0  0  0  0  0  0  0  0
    1.3406   -3.5000   -1.5007 N   0  0  0  0  0  0  0  0  0  0  0  0
    1.4617   -4.4728   -1.2538 H   0  0  0  0  0  0  0  0  0  0  0  0
    0.4289   -2.6268   -0.9504 C   0  0  0  0  0  0  0  0  0  0  0  0
   -0.2909   -2.8291   -0.1673 H   0  0  0  0  0  0  0  0  0  0  0  0
   -0.9851    1.3114    0.6698 C   0  0  0  0  0  0  0  0  0  0  0  0
   -2.0377    1.8431    0.3168 O   0  0  0  0  0  0  0  0  0  0  0  0
   -0.1052    1.9265    1.4663 N   0  0  0  0  0  0  0  0  0  0  0  0
    0.7810    1.4586    1.6201 H   0  0  0  0  0  0  0  0  0  0  0  0
   -0.2724    3.2715    2.0119 C   0  0  0  0  0  0  0  0  0  0  0  0
   -1.3249    3.4549    2.2426 H   0  0  0  0  0  0  0  0  0  0  0  0
    0.3167    3.3776    2.9239 H   0  0  0  0  0  0  0  0  0  0  0  0
    0.0609    4.0073    1.2782 H   0  0  0  0  0  0  0  0  0  0  0  0
  5  6  2  0  0  0  0
  5  7  1  0  0  0  0
  2  3  1  0  0  0  0
  2  4  1  0  0  0  0
  2  5  1  0  0  0  0
  1  2  1  0  0  0  0
 22 23  2  0  0  0  0
 22 24  1  0  0  0  0
 20 21  1  0  0  0  0
 18 19  1  0  0  0  0
 18 20  1  0  0  0  0
 16 17  1  0  0  0  0
 16 18  1  0  0  0  0
 15 16  2  0  0  0  0
 14 15  1  0  0  0  0
 14 20  2  0  0  0  0
 11 12  1  0  0  0  0
 11 13  1  0  0  0  0
 11 14  1  0  0  0  0
  9 10  1  0  0  0  0
  9 11  1  0  0  0  0
  9 22  1  0  0  0  0
  7  8  1  0  0  0  0
  7  9  1  0  0  0  0
 26 27  1  0  0  0  0
 26 28  1  0  0  0  0
 26 29  1  0  0  0  0
 24 25  1  0  0  0  0
 24 26  1  0  0  0  0
M  END
$$$$
default_name
  -OEChem-02102213163D

 29 29  0     1  0  0  0  0  0999 V2000
   -2.9561   -3.9186    1.3887 H   0  0  0  0  0  0  0  0  0  0  0  0
   -3.1191   -2.9346    0.9517 C   0  0  0  0  0  0  0  0  0  0  0  0
   -3.7811   -2.3546    1.5917 H   0  0  0  0  0  0  0  0  0  0  0  0
   -3.5591   -3.0406   -0.0383 H   0  0  0  0  0  0  0  0  0  0  0  0
   -1.7921   -2.2226    0.8327 C   0  0  0  0  0  0  0  0  0  0  0  0
   -0.7611   -2.7766    1.1927 O   0  0  0  0  0  0  0  0  0  0  0  0
   -1.8201   -0.9926    0.3247 N   0  0  0  0  0  0  0  0  0  0  0  0
   -2.7141   -0.5816    0.0927 H   0  0  0  0  0  0  0  0  0  0  0  0
   -0.6481   -0.1156    0.2017 C   0  0  1  0  0  0  0  0  0  0  0  0
    0.1344   -0.4988    0.8596 H   0  0  0  0  0  0  0  0  0  0  0  0
   -0.1211   -0.1520   -1.2460 C   0  0  0  0  0  0  0  0  0  0  0  0
   -0.9556   -0.0777   -1.9447 H   0  0  0  0  0  0  0  0  0  0  0  0
    0.5320    0.7038   -1.4226 H   0  0  0  0  0  0  0  0  0  0  0  0
    0.6217   -1.4257   -1.5681 C   0  0  0  0  0  0  0  0  0  0  0  0
    1.8386   -1.5135   -2.2454 N   0  0  0  0  0  0  0  0  0  0  0  0
    2.1552   -2.8164   -2.2688 C   0  0  0  0  0  0  0  0  0  0  0  0
    3.0435   -3.2227   -2.7358 H   0  0  0  0  0  0  0  0  0  0  0  0
    1.2219   -3.5377   -1.6254 N   0  0  0  0  0  0  0  0  0  0  0  0
    1.2451   -4.5393   -1.4904 H   0  0  0  0  0  0  0  0  0  0  0  0
    0.2474   -2.6765   -1.1723 C   0  0  0  0  0  0  0  0  0  0  0  0
   -0.6360   -2.9219   -0.5963 H   0  0  0  0  0  0  0  0  0  0  0  0
   -0.9851    1.3114    0.6698 C   0  0  0  0  0  0  0  0  0  0  0  0
   -2.0377    1.8431    0.3168 O   0  0  0  0  0  0  0  0  0  0  0  0
   -0.1052    1.9265    1.4663 N   0  0  0  0  0  0  0  0  0  0  0  0
    0.7810    1.4586    1.6201 H   0  0  0  0  0  0  0  0  0  0  0  0
   -0.2724    3.2715    2.0119 C   0  0  0  0  0  0  0  0  0  0  0  0
   -1.3249    3.4549    2.2426 H   0  0  0  0  0  0  0  0  0  0  0  0
    0.3167    3.3776    2.9239 H   0  0  0  0  0  0  0  0  0  0  0  0
    0.0609    4.0073    1.2782 H   0  0  0  0  0  0  0  0  0  0  0  0
  5  6  2  0  0  0  0
  5  7  1  0  0  0  0
  2  3  1  0  0  0  0
  2  4  1  0  0  0  0
  2  5  1  0  0  0  0
  1  2  1  0  0  0  0
 22 23  2  0  0  0  0
 22 24  1  0  0  0  0
 20 21  1  0  0  0  0
 18 19  1  0  0  0  0
 18 20  1  0  0  0  0
 16 17  1  0  0  0  0
 16 18  1  0  0  0  0
 15 16  2  0  0  0  0
 14 15  1  0  0  0  0
 14 20  2  0  0  0  0
 11 12  1  0  0  0  0
 11 13  1  0  0  0  0
 11 14  1  0  0  0  0
  9 10  1  0  0  0  0
  9 11  1  0  0  0  0
  9 22  1  0  0  0  0
  7  8  1  0  0  0  0
  7  9  1  0  0  0  0
 26 27  1  0  0  0  0
 26 28  1  0  0  0  0
 26 29  1  0  0  0  0
 24 25  1  0  0  0  0
 24 26  1  0  0  0  0
M  END
$$$$
default_name
  -OEChem-02102213163D

 29 29  0     1  0  0  0  0  0999 V2000
   -2.9561   -3.9186    1.3887 H   0  0  0  0  0  0  0  0  0  0  0  0
   -3.1191   -2.9346    0.9517 C   0  0  0  0  0  0  0  0  0  0  0  0
   -3.7811   -2.3546    1.5917 H   0  0  0  0  0  0  0  0  0  0  0  0
   -3.5591   -3.0406   -0.0383 H   0  0  0  0  0  0  0  0  0  0  0  0
   -1.7921   -2.2226    0.8327 C   0  0  0  0  0  0  0  0  0  0  0  0
   -0.7611   -2.7766    1.1927 O   0  0  0  0  0  0  0  0  0  0  0  0
   -1.8201   -0.9926    0.3247 N   0  0  0  0  0  0  0  0  0  0  0  0
   -2.7141   -0.5816    0.0927 H   0  0  0  0  0  0  0  0  0  0  0  0
   -0.6481   -0.1156    0.2017 C   0  0  1  0  0  0  0  0  0  0  0  0
    0.1344   -0.4988    0.8596 H   0  0  0  0  0  0  0  0  0  0  0  0
   -0.1211   -0.1520   -1.2460 C   0  0  0  0  0  0  0  0  0  0  0  0
   -0.9556   -0.0777   -1.9447 H   0  0  0  0  0  0  0  0  0  0  0  0
    0.5320    0.7038   -1.4226 H   0  0  0  0  0  0  0  0  0  0  0  0
    0.6217   -1.4257   -1.5681 C   0  0  0  0  0  0  0  0  0  0  0  0
    1.9540   -1.5149   -1.9737 N   0  0  0  0  0  0  0  0  0  0  0  0
    2.2140   -2.8242   -2.1022 C   0  0  0  0  0  0  0  0  0  0  0  0
    3.1664   -3.2315   -2.4174 H   0  0  0  0  0  0  0  0  0  0  0  0
    1.1324   -3.5517   -1.7766 N   0  0  0  0  0  0  0  0  0  0  0  0
    1.0838   -4.5614   -1.7747 H   0  0  0  0  0  0  0  0  0  0  0  0
    0.1178   -2.6863   -1.4326 C   0  0  0  0  0  0  0  0  0  0  0  0
   -0.8807   -2.9378   -1.0978 H   0  0  0  0  0  0  0  0  0  0  0  0
   -0.9851    1.3114    0.6698 C   0  0  0  0  0  0  0  0  0  0  0  0
   -2.0377    1.8431    0.3168 O   0  0  0  0  0  0  0  0  0  0  0  0
   -0.1052    1.9265    1.4663 N   0  0  0  0  0  0  0  0  0  0  0  0
    0.7810    1.4586    1.6201 H   0  0  0  0  0  0  0  0  0  0  0  0
   -0.2724    3.2715    2.0119 C   0  0  0  0  0  0  0  0  0  0  0  0
   -1.3249    3.4549    2.2426 H   0  0  0  0  0  0  0  0  0  0  0  0
    0.3167    3.3776    2.9239 H   0  0  0  0  0  0  0  0  0  0  0  0
    0.0609    4.0073    1.2782 H   0  0  0  0  0  0  0  0  0  0  0  0
  5  6  2  0  0  0  0
  5  7  1  0  0  0  0
  2  3  1  0  0  0  0
  2  4  1  0  0  0  0
  2  5  1  0  0  0  0
  1  2  1  0  0  0  0
 22 23  2  0  0  0  0
 22 24  1  0  0  0  0
 20 21  1  0  0  0  0
 18 19  1  0  0  0  0
 18 20  1  0  0  0  0
 16 17  1  0  0  0  0
 16 18  1  0  0  0  0
 15 16  2  0  0  0  0
 14 15  1  0  0  0  0
 14 20  2  0  0  0  0
 11 12  1  0  0  0  0
 11 13  1  0  0  0  0
 11 14  1  0  0  0  0
  9 10  1  0  0  0  0
  9 11  1  0  0  0  0
  9 22  1  0  0  0  0
  7  8  1  0  0  0  0
  7  9  1  0  0  0  0
 26 27  1  0  0  0  0
 26 28  1  0  0  0  0
 26 29  1  0  0  0  0
 24 25  1  0  0  0  0
 24 26  1  0  0  0  0
M  END
$$$$
default_name
  -OEChem-02102213163D

 29 29  0     1  0  0  0  0  0999 V2000
   -2.9561   -3.9186    1.3887 H   0  0  0  0  0  0  0  0  0  0  0  0
   -3.1191   -2.9346    0.9517 C   0  0  0  0  0  0  0  0  0  0  0  0
   -3.7811   -2.3546    1.5917 H   0  0  0  0  0  0  0  0  0  0  0  0
   -3.5591   -3.0406   -0.0383 H   0  0  0  0  0  0  0  0  0  0  0  0
   -1.7921   -2.2226    0.8327 C   0  0  0  0  0  0  0  0  0  0  0  0
   -0.7611   -2.7766    1.1927 O   0  0  0  0  0  0  0  0  0  0  0  0
   -1.8201   -0.9926    0.3247 N   0  0  0  0  0  0  0  0  0  0  0  0
   -2.7141   -0.5816    0.0927 H   0  0  0  0  0  0  0  0  0  0  0  0
   -0.6481   -0.1156    0.2017 C   0  0  1  0  0  0  0  0  0  0  0  0
    0.1344   -0.4988    0.8596 H   0  0  0  0  0  0  0  0  0  0  0  0
   -0.1211   -0.1520   -1.2460 C   0  0  0  0  0  0  0  0  0  0  0  0
   -0.9556   -0.0777   -1.9447 H   0  0  0  0  0  0  0  0  0  0  0  0
    0.5320    0.7038   -1.4226 H   0  0  0  0  0  0  0  0  0  0  0  0
    0.6217   -1.4257   -1.5681 C   0  0  0  0  0  0  0  0  0  0  0  0
    2.0060   -1.5573   -1.6862 N   0  0  0  0  0  0  0  0  0  0  0  0
    2.2341   -2.8562   -1.9295 C   0  0  0  0  0  0  0  0  0  0  0  0
    3.2151   -3.2874   -2.0842 H   0  0  0  0  0  0  0  0  0  0  0  0
    1.0781   -3.5410   -1.9440 N   0  0  0  0  0  0  0  0  0  0  0  0
    0.9890   -4.5377   -2.0874 H   0  0  0  0  0  0  0  0  0  0  0  0
    0.0490   -2.6554   -1.7136 C   0  0  0  0  0  0  0  0  0  0  0  0
   -1.0084   -2.8757   -1.6378 H   0  0  0  0  0  0  0  0  0  0  0  0
   -0.9851    1.3114    0.6698 C   0  0  0  0  0  0  0  0  0  0  0  0
   -2.0377    1.8431    0.3168 O   0  0  0  0  0  0  0  0  0  0  0  0
   -0.1052    1.9265    1.4663 N   0  0  0  0  0  0  0  0  0  0  0  0
    0.7810    1.4586    1.6201 H   0  0  0  0  0  0  0  0  0  0  0  0
   -0.2724    3.2715    2.0119 C   0  0  0  0  0  0  0  0  0  0  0  0
   -1.3249    3.4549    2.2426 H   0  0  0  0  0  0  0  0  0  0  0  0
    0.3167    3.3776    2.9239 H   0  0  0  0  0  0  0  0  0  0  0  0
    0.0609    4.0073    1.2782 H   0  0  0  0  0  0  0  0  0  0  0  0
  5  6  2  0  0  0  0
  5  7  1  0  0  0  0
  2  3  1  0  0  0  0
  2  4  1  0  0  0  0
  2  5  1  0  0  0  0
  1  2  1  0  0  0  0
 22 23  2  0  0  0  0
 22 24  1  0  0  0  0
 20 21  1  0  0  0  0
 18 19  1  0  0  0  0
 18 20  1  0  0  0  0
 16 17  1  0  0  0  0
 16 18  1  0  0  0  0
 15 16  2  0  0  0  0
 14 15  1  0  0  0  0
 14 20  2  0  0  0  0
 11 12  1  0  0  0  0
 11 13  1  0  0  0  0
 11 14  1  0  0  0  0
  9 10  1  0  0  0  0
  9 11  1  0  0  0  0
  9 22  1  0  0  0  0
  7  8  1  0  0  0  0
  7  9  1  0  0  0  0
 26 27  1  0  0  0  0
 26 28  1  0  0  0  0
 26 29  1  0  0  0  0
 24 25  1  0  0  0  0
 24 26  1  0  0  0  0
M  END
$$$$
default_name
  -OEChem-02102213163D

 29 29  0     1  0  0  0  0  0999 V2000
   -2.9561   -3.9186    1.3887 H   0  0  0  0  0  0  0  0  0  0  0  0
   -3.1191   -2.9346    0.9517 C   0  0  0  0  0  0  0  0  0  0  0  0
   -3.7811   -2.3546    1.5917 H   0  0  0  0  0  0  0  0  0  0  0  0
   -3.5591   -3.0406   -0.0383 H   0  0  0  0  0  0  0  0  0  0  0  0
   -1.7921   -2.2226    0.8327 C   0  0  0  0  0  0  0  0  0  0  0  0
   -0.7611   -2.7766    1.1927 O   0  0  0  0  0  0  0  0  0  0  0  0
   -1.8201   -0.9926    0.3247 N   0  0  0  0  0  0  0  0  0  0  0  0
   -2.7141   -0.5816    0.0927 H   0  0  0  0  0  0  0  0  0  0  0  0
   -0.6481   -0.1156    0.2017 C   0  0  1  0  0  0  0  0  0  0  0  0
    0.1344   -0.4988    0.8596 H   0  0  0  0  0  0  0  0  0  0  0  0
   -0.1211   -0.1520   -1.2460 C   0  0  0  0  0  0  0  0  0  0  0  0
   -0.9556   -0.0777   -1.9447 H   0  0  0  0  0  0  0  0  0  0  0  0
    0.5320    0.7038   -1.4226 H   0  0  0  0  0  0  0  0  0  0  0  0
    0.6217   -1.4257   -1.5681 C   0  0  0  0  0  0  0  0  0  0  0  0
    1.9911   -1.6378   -1.4025 N   0  0  0  0  0  0  0  0  0  0  0  0
    2.2139   -2.9102   -1.7623 C   0  0  0  0  0  0  0  0  0  0  0  0
    3.1862   -3.3865   -1.7588 H   0  0  0  0  0  0  0  0  0  0  0  0
    1.0629   -3.5063   -2.1161 N   0  0  0  0  0  0  0  0  0  0  0  0
    0.9669   -4.4697   -2.4071 H   0  0  0  0  0  0  0  0  0  0  0  0
    0.0456   -2.5859   -1.9961 C   0  0  0  0  0  0  0  0  0  0  0  0
   -1.0104   -2.7399   -2.1794 H   0  0  0  0  0  0  0  0  0  0  0  0
   -0.9851    1.3114    0.6698 C   0  0  0  0  0  0  0  0  0  0  0  0
   -2.0377    1.8431    0.3168 O   0  0  0  0  0  0  0  0  0  0  0  0
   -0.1052    1.9265    1.4663 N   0  0  0  0  0  0  0  0  0  0  0  0
    0.7810    1.4586    1.6201 H   0  0  0  0  0  0  0  0  0  0  0  0
   -0.2724    3.2715    2.0119 C   0  0  0  0  0  0  0  0  0  0  0  0
   -1.3249    3.4549    2.2426 H   0  0  0  0  0  0  0  0  0  0  0  0
    0.3167    3.3776    2.9239 H   0  0  0  0  0  0  0  0  0  0  0  0
    0.0609    4.0073    1.2782 H   0  0  0  0  0  0  0  0  0  0  0  0
  5  6  2  0  0  0  0
  5  7  1  0  0  0  0
  2  3  1  0  0  0  0
  2  4  1  0  0  0  0
  2  5  1  0  0  0  0
  1  2  1  0  0  0  0
 22 23  2  0  0  0  0
 22 24  1  0  0  0  0
 20 21  1  0  0  0  0
 18 19  1  0  0  0  0
 18 20  1  0  0  0  0
 16 17  1  0  0  0  0
 16 18  1  0  0  0  0
 15 16  2  0  0  0  0
 14 15  1  0  0  0  0
 14 20  2  0  0  0  0
 11 12  1  0  0  0  0
 11 13  1  0  0  0  0
 11 14  1  0  0  0  0
  9 10  1  0  0  0  0
  9 11  1  0  0  0  0
  9 22  1  0  0  0  0
  7  8  1  0  0  0  0
  7  9  1  0  0  0  0
 26 27  1  0  0  0  0
 26 28  1  0  0  0  0
 26 29  1  0  0  0  0
 24 25  1  0  0  0  0
 24 26  1  0  0  0  0
M  END
$$$$
default_name
  -OEChem-02102213163D

 29 29  0     1  0  0  0  0  0999 V2000
   -2.9561   -3.9186    1.3887 H   0  0  0  0  0  0  0  0  0  0  0  0
   -3.1191   -2.9346    0.9517 C   0  0  0  0  0  0  0  0  0  0  0  0
   -3.7811   -2.3546    1.5917 H   0  0  0  0  0  0  0  0  0  0  0  0
   -3.5591   -3.0406   -0.0383 H   0  0  0  0  0  0  0  0  0  0  0  0
   -1.7921   -2.2226    0.8327 C   0  0  0  0  0  0  0  0  0  0  0  0
   -0.7611   -2.7766    1.1927 O   0  0  0  0  0  0  0  0  0  0  0  0
   -1.8201   -0.9926    0.3247 N   0  0  0  0  0  0  0  0  0  0  0  0
   -2.7141   -0.5816    0.0927 H   0  0  0  0  0  0  0  0  0  0  0  0
   -0.6481   -0.1156    0.2017 C   0  0  1  0  0  0  0  0  0  0  0  0
    0.1344   -0.4988    0.8596 H   0  0  0  0  0  0  0  0  0  0  0  0
   -0.1211   -0.1520   -1.2460 C   0  0  0  0  0  0  0  0  0  0  0  0
   -0.9556   -0.0777   -1.9447 H   0  0  0  0  0  0  0  0  0  0  0  0
    0.5320    0.7038   -1.4226 H   0  0  0  0  0  0  0  0  0  0  0  0
    0.6217   -1.4257   -1.5681 C   0  0  0  0  0  0  0  0  0  0  0  0
    1.9102   -1.7508   -1.1420 N   0  0  0  0  0  0  0  0  0  0  0  0
    2.1549   -2.9826   -1.6121 C   0  0  0  0  0  0  0  0  0  0  0  0
    3.0818   -3.5221   -1.4634 H   0  0  0  0  0  0  0  0  0  0  0  0
    1.0877   -3.4501   -2.2813 N   0  0  0  0  0  0  0  0  0  0  0  0
    1.0192   -4.3620   -2.7121 H   0  0  0  0  0  0  0  0  0  0  0  0
    0.1078   -2.4827   -2.2609 C   0  0  0  0  0  0  0  0  0  0  0  0
   -0.8865   -2.5397   -2.6856 H   0  0  0  0  0  0  0  0  0  0  0  0
   -0.9851    1.3114    0.6698 C   0  0  0  0  0  0  0  0  0  0  0  0
   -2.0377    1.8431    0.3168 O   0  0  0  0  0  0  0  0  0  0  0  0
   -0.1052    1.9265    1.4663 N   0  0  0  0  0  0  0  0  0  0  0  0
    0.7810    1.4586    1.6201 H   0  0  0  0  0  0  0  0  0  0  0  0
   -0.2724    3.2715    2.0119 C   0  0  0  0  0  0  0  0  0  0  0  0
   -1.3249    3.4549    2.2426 H   0  0  0  0  0  0  0  0  0  0  0  0
    0.3167    3.3776    2.9239 H   0  0  0  0  0  0  0  0  0  0  0  0
    0.0609    4.0073    1.2782 H   0  0  0  0  0  0  0  0  0  0  0  0
  5  6  2  0  0  0  0
  5  7  1  0  0  0  0
  2  3  1  0  0  0  0
  2  4  1  0  0  0  0
  2  5  1  0  0  0  0
  1  2  1  0  0  0  0
 22 23  2  0  0  0  0
 22 24  1  0  0  0  0
 20 21  1  0  0  0  0
 18 19  1  0  0  0  0
 18 20  1  0  0  0  0
 16 17  1  0  0  0  0
 16 18  1  0  0  0  0
 15 16  2  0  0  0  0
 14 15  1  0  0  0  0
 14 20  2  0  0  0  0
 11 12  1  0  0  0  0
 11 13  1  0  0  0  0
 11 14  1  0  0  0  0
  9 10  1  0  0  0  0
  9 11  1  0  0  0  0
  9 22  1  0  0  0  0
  7  8  1  0  0  0  0
  7  9  1  0  0  0  0
 26 27  1  0  0  0  0
 26 28  1  0  0  0  0
 26 29  1  0  0  0  0
 24 25  1  0  0  0  0
 24 26  1  0  0  0  0
M  END
$$$$
default_name
  -OEChem-02102213163D

 29 29  0     1  0  0  0  0  0999 V2000
   -2.9561   -3.9186    1.3887 H   0  0  0  0  0  0  0  0  0  0  0  0
   -3.1191   -2.9346    0.9517 C   0  0  0  0  0  0  0  0  0  0  0  0
   -3.7811   -2.3546    1.5917 H   0  0  0  0  0  0  0  0  0  0  0  0
   -3.5591   -3.0406   -0.0383 H   0  0  0  0  0  0  0  0  0  0  0  0
   -1.7921   -2.2226    0.8327 C   0  0  0  0  0  0  0  0  0  0  0  0
   -0.7611   -2.7766    1.1927 O   0  0  0  0  0  0  0  0  0  0  0  0
   -1.8201   -0.9926    0.3247 N   0  0  0  0  0  0  0  0  0  0  0  0
   -2.7141   -0.5816    0.0927 H   0  0  0  0  0  0  0  0  0  0  0  0
   -0.6481   -0.1156    0.2017 C   0  0  1  0  0  0  0  0  0  0  0  0
    0.1344   -0.4988    0.8596 H   0  0  0  0  0  0  0  0  0  0  0  0
   -0.1211   -0.1520   -1.2460 C   0  0  0  0  0  0  0  0  0  0  0  0
   -0.9556   -0.0777   -1.9447 H   0  0  0  0  0  0  0  0  0  0  0  0
    0.5320    0.7038   -1.4226 H   0  0  0  0  0  0  0  0  0  0  0  0
    0.6217   -1.4257   -1.5681 C   0  0  0  0  0  0  0  0  0  0  0  0
    1.7690   -1.8886   -0.9224 N   0  0  0  0  0  0  0  0  0  0  0  0
    2.0612   -3.0684   -1.4891 C   0  0  0  0  0  0  0  0  0  0  0  0
    2.9089   -3.6849   -1.2182 H   0  0  0  0  0  0  0  0  0  0  0  0
    1.1509   -3.3761   -2.4283 N   0  0  0  0  0  0  0  0  0  0  0  0
    1.1423   -4.2221   -2.9815 H   0  0  0  0  0  0  0  0  0  0  0  0
    0.2315   -2.3527   -2.4899 C   0  0  0  0  0  0  0  0  0  0  0  0
   -0.6452   -2.2886   -3.1221 H   0  0  0  0  0  0  0  0  0  0  0  0
   -0.9851    1.3114    0.6698 C   0  0  0  0  0  0  0  0  0  0  0  0
   -2.0377    1.8431    0.3168 O   0  0  0  0  0  0  0  0  0  0  0  0
   -0.1052    1.9265    1.4663 N   0  0  0  0  0  0  0  0  0  0  0  0
    0.7810    1.4586    1.6201 H   0  0  0  0  0  0  0  0  0  0  0  0
   -0.2724    3.2715    2.0119 C   0  0  0  0  0  0  0  0  0  0  0  0
   -1.3249    3.4549    2.2426 H   0  0  0  0  0  0  0  0  0  0  0  0
    0.3167    3.3776    2.9239 H   0  0  0  0  0  0  0  0  0  0  0  0
    0.0609    4.0073    1.2782 H   0  0  0  0  0  0  0  0  0  0  0  0
  5  6  2  0  0  0  0
  5  7  1  0  0  0  0
  2  3  1  0  0  0  0
  2  4  1  0  0  0  0
  2  5  1  0  0  0  0
  1  2  1  0  0  0  0
 22 23  2  0  0  0  0
 22 24  1  0  0  0  0
 20 21  1  0  0  0  0
 18 19  1  0  0  0  0
 18 20  1  0  0  0  0
 16 17  1  0  0  0  0
 16 18  1  0  0  0  0
 15 16  2  0  0  0  0
 14 15  1  0  0  0  0
 14 20  2  0  0  0  0
 11 12  1  0  0  0  0
 11 13  1  0  0  0  0
 11 14  1  0  0  0  0
  9 10  1  0  0  0  0
  9 11  1  0  0  0  0
  9 22  1  0  0  0  0
  7  8  1  0  0  0  0
  7  9  1  0  0  0  0
 26 27  1  0  0  0  0
 26 28  1  0  0  0  0
 26 29  1  0  0  0  0
 24 25  1  0  0  0  0
 24 26  1  0  0  0  0
M  END
$$$$
default_name
  -OEChem-02102213163D

 29 29  0     1  0  0  0  0  0999 V2000
   -2.9561   -3.9186    1.3887 H   0  0  0  0  0  0  0  0  0  0  0  0
   -3.1191   -2.9346    0.9517 C   0  0  0  0  0  0  0  0  0  0  0  0
   -3.7811   -2.3546    1.5917 H   0  0  0  0  0  0  0  0  0  0  0  0
   -3.5591   -3.0406   -0.0383 H   0  0  0  0  0  0  0  0  0  0  0  0
   -1.7921   -2.2226    0.8327 C   0  0  0  0  0  0  0  0  0  0  0  0
   -0.7611   -2.7766    1.1927 O   0  0  0  0  0  0  0  0  0  0  0  0
   -1.8201   -0.9926    0.3247 N   0  0  0  0  0  0  0  0  0  0  0  0
   -2.7141   -0.5816    0.0927 H   0  0  0  0  0  0  0  0  0  0  0  0
   -0.6481   -0.1156    0.2017 C   0  0  1  0  0  0  0  0  0  0  0  0
    0.1344   -0.4988    0.8596 H   0  0  0  0  0  0  0  0  0  0  0  0
   -0.1211   -0.1520   -1.2460 C   0  0  0  0  0  0  0  0  0  0  0  0
   -0.9556   -0.0777   -1.9447 H   0  0  0  0  0  0  0  0  0  0  0  0
    0.5320    0.7038   -1.4226 H   0  0  0  0  0  0  0  0  0  0  0  0
    0.6217   -1.4257   -1.5681 C   0  0  0  0  0  0  0  0  0  0  0  0
    1.5770   -2.0420   -0.7587 N   0  0  0  0  0  0  0  0  0  0  0  0
    1.9390   -3.1617   -1.4018 C   0  0  0  0  0  0  0  0  0  0  0  0
    2.6794   -3.8639   -1.0398 H   0  0  0  0  0  0  0  0  0  0  0  0
    1.2481   -3.2894   -2.5470 N   0  0  0  0  0  0  0  0  0  0  0  0
    1.3278   -4.0595   -3.1971 H   0  0  0  0  0  0  0  0  0  0  0  0
    0.4081   -2.2047   -2.6675 C   0  0  0  0  0  0  0  0  0  0  0  0
   -0.3030   -2.0038   -3.4589 H   0  0  0  0  0  0  0  0  0  0  0  0
   -0.9851    1.3114    0.6698 C   0  0  0  0  0  0  0  0  0  0  0  0
   -2.0377    1.8431    0.3168 O   0  0  0  0  0  0  0  0  0  0  0  0
   -0.1052    1.9265    1.4663 N   0  0  0  0  0  0  0  0  0  0  0  0
    0.7810    1.4586    1.6201 H   0  0  0  0  0  0  0  0  0  0  0  0
   -0.2724    3.2715    2.0119 C   0  0  0  0  0  0  0  0  0  0  0  0
   -1.3249    3.4549    2.2426 H   0  0  0  0  0  0  0  0  0  0  0  0
    0.3167    3.3776    2.9239 H   0  0  0  0  0  0  0  0  0  0  0  0
    0.0609    4.0073    1.2782 H   0  0  0  0  0  0  0  0  0  0  0  0
  5  6  2  0  0  0  0
  5  7  1  0  0  0  0
  2  3  1  0  0  0  0
  2  4  1  0  0  0  0
  2  5  1  0  0  0  0
  1  2  1  0  0  0  0
 22 23  2  0  0  0  0
 22 24  1  0  0  0  0
 20 21  1  0  0  0  0
 18 19  1  0  0  0  0
 18 20  1  0  0  0  0
 16 17  1  0  0  0  0
 16 18  1  0  0  0  0
 15 16  2  0  0  0  0
 14 15  1  0  0  0  0
 14 20  2  0  0  0  0
 11 12  1  0  0  0  0
 11 13  1  0  0  0  0
 11 14  1  0  0  0  0
  9 10  1  0  0  0  0
  9 11  1  0  0  0  0
  9 22  1  0  0  0  0
  7  8  1  0  0  0  0
  7  9  1  0  0  0  0
 26 27  1  0  0  0  0
 26 28  1  0  0  0  0
 26 29  1  0  0  0  0
 24 25  1  0  0  0  0
 24 26  1  0  0  0  0
M  END
$$$$
default_name
  -OEChem-02102213163D

 29 29  0     1  0  0  0  0  0999 V2000
   -2.9561   -3.9186    1.3887 H   0  0  0  0  0  0  0  0  0  0  0  0
   -3.1191   -2.9346    0.9517 C   0  0  0  0  0  0  0  0  0  0  0  0
   -3.7811   -2.3546    1.5917 H   0  0  0  0  0  0  0  0  0  0  0  0
   -3.5591   -3.0406   -0.0383 H   0  0  0  0  0  0  0  0  0  0  0  0
   -1.7921   -2.2226    0.8327 C   0  0  0  0  0  0  0  0  0  0  0  0
   -0.7611   -2.7766    1.1927 O   0  0  0  0  0  0  0  0  0  0  0  0
   -1.8201   -0.9926    0.3247 N   0  0  0  0  0  0  0  0  0  0  0  0
   -2.7141   -0.5816    0.0927 H   0  0  0  0  0  0  0  0  0  0  0  0
   -0.6481   -0.1156    0.2017 C   0  0  1  0  0  0  0  0  0  0  0  0
    0.1344   -0.4988    0.8596 H   0  0  0  0  0  0  0  0  0  0  0  0
   -0.1211   -0.1520   -1.2460 C   0  0  0  0  0  0  0  0  0  0  0  0
   -0.9556   -0.0777   -1.9447 H   0  0  0  0  0  0  0  0  0  0  0  0
    0.5320    0.7038   -1.4226 H   0  0  0  0  0  0  0  0  0  0  0  0
    0.6217   -1.4257   -1.5681 C   0  0  0  0  0  0  0  0  0  0  0  0
    1.3474   -2.2004   -0.6621 N   0  0  0  0  0  0  0  0  0  0  0  0
    1.7968   -3.2562   -1.3560 C   0  0  0  0  0  0  0  0  0  0  0  0
    2.4088   -4.0468   -0.9404 H   0  0  0  0  0  0  0  0  0  0  0  0
    1.3727   -3.1959   -2.6295 N   0  0  0  0  0  0  0  0  0  0  0  0
    1.5630   -3.8851   -3.3440 H   0  0  0  0  0  0  0  0  0  0  0  0
    0.6257   -2.0490   -2.7817 C   0  0  0  0  0  0  0  0  0  0  0  0
    0.1170   -1.7047   -3.6733 H   0  0  0  0  0  0  0  0  0  0  0  0
   -0.9851    1.3114    0.6698 C   0  0  0  0  0  0  0  0  0  0  0  0
   -2.0377    1.8431    0.3168 O   0  0  0  0  0  0  0  0  0  0  0  0
   -0.1052    1.9265    1.4663 N   0  0  0  0  0  0  0  0  0  0  0  0
    0.7810    1.4586    1.6201 H   0  0  0  0  0  0  0  0  0  0  0  0
   -0.2724    3.2715    2.0119 C   0  0  0  0  0  0  0  0  0  0  0  0
   -1.3249    3.4549    2.2426 H   0  0  0  0  0  0  0  0  0  0  0  0
    0.3167    3.3776    2.9239 H   0  0  0  0  0  0  0  0  0  0  0  0
    0.0609    4.0073    1.2782 H   0  0  0  0  0  0  0  0  0  0  0  0
  5  6  2  0  0  0  0
  5  7  1  0  0  0  0
  2  3  1  0  0  0  0
  2  4  1  0  0  0  0
  2  5  1  0  0  0  0
  1  2  1  0  0  0  0
 22 23  2  0  0  0  0
 22 24  1  0  0  0  0
 20 21  1  0  0  0  0
 18 19  1  0  0  0  0
 18 20  1  0  0  0  0
 16 17  1  0  0  0  0
 16 18  1  0  0  0  0
 15 16  2  0  0  0  0
 14 15  1  0  0  0  0
 14 20  2  0  0  0  0
 11 12  1  0  0  0  0
 11 13  1  0  0  0  0
 11 14  1  0  0  0  0
  9 10  1  0  0  0  0
  9 11  1  0  0  0  0
  9 22  1  0  0  0  0
  7  8  1  0  0  0  0
  7  9  1  0  0  0  0
 26 27  1  0  0  0  0
 26 28  1  0  0  0  0
 26 29  1  0  0  0  0
 24 25  1  0  0  0  0
 24 26  1  0  0  0  0
M  END
$$$$
default_name
  -OEChem-02102213163D

 29 29  0     1  0  0  0  0  0999 V2000
   -2.9561   -3.9186    1.3887 H   0  0  0  0  0  0  0  0  0  0  0  0
   -3.1191   -2.9346    0.9517 C   0  0  0  0  0  0  0  0  0  0  0  0
   -3.7811   -2.3546    1.5917 H   0  0  0  0  0  0  0  0  0  0  0  0
   -3.5591   -3.0406   -0.0383 H   0  0  0  0  0  0  0  0  0  0  0  0
   -1.7921   -2.2226    0.8327 C   0  0  0  0  0  0  0  0  0  0  0  0
   -0.7611   -2.7766    1.1927 O   0  0  0  0  0  0  0  0  0  0  0  0
   -1.8201   -0.9926    0.3247 N   0  0  0  0  0  0  0  0  0  0  0  0
   -2.7141   -0.5816    0.0927 H   0  0  0  0  0  0  0  0  0  0  0  0
   -0.6481   -0.1156    0.2017 C   0  0  1  0  0  0  0  0  0  0  0  0
    0.1344   -0.4988    0.8596 H   0  0  0  0  0  0  0  0  0  0  0  0
   -0.1211   -0.1520   -1.2460 C   0  0  0  0  0  0  0  0  0  0  0  0
   -0.9556   -0.0777   -1.9447 H   0  0  0  0  0  0  0  0  0  0  0  0
    0.5320    0.7038   -1.4226 H   0  0  0  0  0  0  0  0  0  0  0  0
    0.6217   -1.4257   -1.5681 C   0  0  0  0  0  0  0  0  0  0  0  0
    1.0957   -2.3530   -0.6391 N   0  0  0  0  0  0  0  0  0  0  0  0
    1.6441   -3.3455   -1.3548 C   0  0  0  0  0  0  0  0  0  0  0  0
    2.1157   -4.2212   -0.9269 H   0  0  0  0  0  0  0  0  0  0  0  0
    1.5162   -3.1020   -2.6699 N   0  0  0  0  0  0  0  0  0  0  0  0
    1.8320   -3.7110   -3.4124 H   0  0  0  0  0  0  0  0  0  0  0  0
    0.8695   -1.8960   -2.8245 C   0  0  0  0  0  0  0  0  0  0  0  0
    0.5859   -1.4117   -3.7505 H   0  0  0  0  0  0  0  0  0  0  0  0
   -0.9851    1.3114    0.6698 C   0  0  0  0  0  0  0  0  0  0  0  0
   -2.0377    1.8431    0.3168 O   0  0  0  0  0  0  0  0  0  0  0  0
   -0.1052    1.9265    1.4663 N   0  0  0  0  0  0  0  0  0  0  0  0
    0.7810    1.4586    1.6201 H   0  0  0  0  0  0  0  0  0  0  0  0
   -0.2724    3.2715    2.0119 C   0  0  0  0  0  0  0  0  0  0  0  0
   -1.3249    3.4549    2.2426 H   0  0  0  0  0  0  0  0  0  0  0  0
    0.3167    3.3776    2.9239 H   0  0  0  0  0  0  0  0  0  0  0  0
    0.0609    4.0073    1.2782 H   0  0  0  0  0  0  0  0  0  0  0  0
  5  6  2  0  0  0  0
  5  7  1  0  0  0  0
  2  3  1  0  0  0  0
  2  4  1  0  0  0  0
  2  5  1  0  0  0  0
  1  2  1  0  0  0  0
 22 23  2  0  0  0  0
 22 24  1  0  0  0  0
 20 21  1  0  0  0  0
 18 19  1  0  0  0  0
 18 20  1  0  0  0  0
 16 17  1  0  0  0  0
 16 18  1  0  0  0  0
 15 16  2  0  0  0  0
 14 15  1  0  0  0  0
 14 20  2  0  0  0  0
 11 12  1  0  0  0  0
 11 13  1  0  0  0  0
 11 14  1  0  0  0  0
  9 10  1  0  0  0  0
  9 11  1  0  0  0  0
  9 22  1  0  0  0  0
  7  8  1  0  0  0  0
  7  9  1  0  0  0  0
 26 27  1  0  0  0  0
 26 28  1  0  0  0  0
 26 29  1  0  0  0  0
 24 25  1  0  0  0  0
 24 26  1  0  0  0  0
M  END
$$$$
default_name
  -OEChem-02102213163D

 29 29  0     1  0  0  0  0  0999 V2000
   -2.9561   -3.9186    1.3887 H   0  0  0  0  0  0  0  0  0  0  0  0
   -3.1191   -2.9346    0.9517 C   0  0  0  0  0  0  0  0  0  0  0  0
   -3.7811   -2.3546    1.5917 H   0  0  0  0  0  0  0  0  0  0  0  0
   -3.5591   -3.0406   -0.0383 H   0  0  0  0  0  0  0  0  0  0  0  0
   -1.7921   -2.2226    0.8327 C   0  0  0  0  0  0  0  0  0  0  0  0
   -0.7611   -2.7766    1.1927 O   0  0  0  0  0  0  0  0  0  0  0  0
   -1.8201   -0.9926    0.3247 N   0  0  0  0  0  0  0  0  0  0  0  0
   -2.7141   -0.5816    0.0927 H   0  0  0  0  0  0  0  0  0  0  0  0
   -0.6481   -0.1156    0.2017 C   0  0  1  0  0  0  0  0  0  0  0  0
    0.1344   -0.4988    0.8596 H   0  0  0  0  0  0  0  0  0  0  0  0
   -0.1211   -0.1520   -1.2460 C   0  0  0  0  0  0  0  0  0  0  0  0
   -0.9556   -0.0777   -1.9447 H   0  0  0  0  0  0  0  0  0  0  0  0
    0.5320    0.7038   -1.4226 H   0  0  0  0  0  0  0  0  0  0  0  0
    0.6217   -1.4257   -1.5681 C   0  0  0  0  0  0  0  0  0  0  0  0
    0.8391   -2.4894   -0.6912 N   0  0  0  0  0  0  0  0  0  0  0  0
    1.4915   -3.4235   -1.3984 C   0  0  0  0  0  0  0  0  0  0  0  0
    1.8199   -4.3752   -1.0000 H   0  0  0  0  0  0  0  0  0  0  0  0
    1.6689   -3.0140   -2.6657 N   0  0  0  0  0  0  0  0  0  0  0  0
    2.1163   -3.5489   -3.3975 H   0  0  0  0  0  0  0  0  0  0  0  0
    1.1227   -1.7562   -2.7932 C   0  0  0  0  0  0  0  0  0  0  0  0
    1.0719   -1.1448   -3.6854 H   0  0  0  0  0  0  0  0  0  0  0  0
   -0.9851    1.3114    0.6698 C   0  0  0  0  0  0  0  0  0  0  0  0
   -2.0377    1.8431    0.3168 O   0  0  0  0  0  0  0  0  0  0  0  0
   -0.1052    1.9265    1.4663 N   0  0  0  0  0  0  0  0  0  0  0  0
    0.7810    1.4586    1.6201 H   0  0  0  0  0  0  0  0  0  0  0  0
   -0.2724    3.2715    2.0119 C   0  0  0  0  0  0  0  0  0  0  0  0
   -1.3249    3.4549    2.2426 H   0  0  0  0  0  0  0  0  0  0  0  0
    0.3167    3.3776    2.9239 H   0  0  0  0  0  0  0  0  0  0  0  0
    0.0609    4.0073    1.2782 H   0  0  0  0  0  0  0  0  0  0  0  0
  5  6  2  0  0  0  0
  5  7  1  0  0  0  0
  2  3  1  0  0  0  0
  2  4  1  0  0  0  0
  2  5  1  0  0  0  0
  1  2  1  0  0  0  0
 22 23  2  0  0  0  0
 22 24  1  0  0  0  0
 20 21  1  0  0  0  0
 18 19  1  0  0  0  0
 18 20  1  0  0  0  0
 16 17  1  0  0  0  0
 16 18  1  0  0  0  0
 15 16  2  0  0  0  0
 14 15  1  0  0  0  0
 14 20  2  0  0  0  0
 11 12  1  0  0  0  0
 11 13  1  0  0  0  0
 11 14  1  0  0  0  0
  9 10  1  0  0  0  0
  9 11  1  0  0  0  0
  9 22  1  0  0  0  0
  7  8  1  0  0  0  0
  7  9  1  0  0  0  0
 26 27  1  0  0  0  0
 26 28  1  0  0  0  0
 26 29  1  0  0  0  0
 24 25  1  0  0  0  0
 24 26  1  0  0  0  0
M  END
$$$$
default_name
  -OEChem-02102213163D

 29 29  0     1  0  0  0  0  0999 V2000
   -2.9561   -3.9186    1.3887 H   0  0  0  0  0  0  0  0  0  0  0  0
   -3.1191   -2.9346    0.9517 C   0  0  0  0  0  0  0  0  0  0  0  0
   -3.7811   -2.3546    1.5917 H   0  0  0  0  0  0  0  0  0  0  0  0
   -3.5591   -3.0406   -0.0383 H   0  0  0  0  0  0  0  0  0  0  0  0
   -1.7921   -2.2226    0.8327 C   0  0  0  0  0  0  0  0  0  0  0  0
   -0.7611   -2.7766    1.1927 O   0  0  0  0  0  0  0  0  0  0  0  0
   -1.8201   -0.9926    0.3247 N   0  0  0  0  0  0  0  0  0  0  0  0
   -2.7141   -0.5816    0.0927 H   0  0  0  0  0  0  0  0  0  0  0  0
   -0.6481   -0.1156    0.2017 C   0  0  1  0  0  0  0  0  0  0  0  0
    0.1344   -0.4988    0.8596 H   0  0  0  0  0  0  0  0  0  0  0  0
   -0.1211   -0.1520   -1.2460 C   0  0  0  0  0  0  0  0  0  0  0  0
   -0.9556   -0.0777   -1.9447 H   0  0  0  0  0  0  0  0  0  0  0  0
    0.5320    0.7038   -1.4226 H   0  0  0  0  0  0  0  0  0  0  0  0
    0.6217   -1.4257   -1.5681 C   0  0  0  0  0  0  0  0  0  0  0  0
    0.5952   -2.6003   -0.8151 N   0  0  0  0  0  0  0  0  0  0  0  0
    1.3493   -3.4848   -1.4838 C   0  0  0  0  0  0  0  0  0  0  0  0
    1.5417   -4.4983   -1.1548 H   0  0  0  0  0  0  0  0  0  0  0  0
    1.8203   -2.9380   -2.6171 N   0  0  0  0  0  0  0  0  0  0  0  0
    2.3966   -3.4100   -3.3004 H   0  0  0  0  0  0  0  0  0  0  0  0
    1.3682   -1.6392   -2.6899 C   0  0  0  0  0  0  0  0  0  0  0  0
    1.5419   -0.9220   -3.4823 H   0  0  0  0  0  0  0  0  0  0  0  0
   -0.9851    1.3114    0.6698 C   0  0  0  0  0  0  0  0  0  0  0  0
   -2.0377    1.8431    0.3168 O   0  0  0  0  0  0  0  0  0  0  0  0
   -0.1052    1.9265    1.4663 N   0  0  0  0  0  0  0  0  0  0  0  0
    0.7810    1.4586    1.6201 H   0  0  0  0  0  0  0  0  0  0  0  0
   -0.2724    3.2715    2.0119 C   0  0  0  0  0  0  0  0  0  0  0  0
   -1.3249    3.4549    2.2426 H   0  0  0  0  0  0  0  0  0  0  0  0
    0.3167    3.3776    2.9239 H   0  0  0  0  0  0  0  0  0  0  0  0
    0.0609    4.0073    1.2782 H   0  0  0  0  0  0  0  0  0  0  0  0
  5  6  2  0  0  0  0
  5  7  1  0  0  0  0
  2  3  1  0  0  0  0
  2  4  1  0  0  0  0
  2  5  1  0  0  0  0
  1  2  1  0  0  0  0
 22 23  2  0  0  0  0
 22 24  1  0  0  0  0
 20 21  1  0  0  0  0
 18 19  1  0  0  0  0
 18 20  1  0  0  0  0
 16 17  1  0  0  0  0
 16 18  1  0  0  0  0
 15 16  2  0  0  0  0
 14 15  1  0  0  0  0
 14 20  2  0  0  0  0
 11 12  1  0  0  0  0
 11 13  1  0  0  0  0
 11 14  1  0  0  0  0
  9 10  1  0  0  0  0
  9 11  1  0  0  0  0
  9 22  1  0  0  0  0
  7  8  1  0  0  0  0
  7  9  1  0  0  0  0
 26 27  1  0  0  0  0
 26 28  1  0  0  0  0
 26 29  1  0  0  0  0
 24 25  1  0  0  0  0
 24 26  1  0  0  0  0
M  END
$$$$
default_name
  -OEChem-02102213163D

 29 29  0     1  0  0  0  0  0999 V2000
   -2.9561   -3.9186    1.3887 H   0  0  0  0  0  0  0  0  0  0  0  0
   -3.1191   -2.9346    0.9517 C   0  0  0  0  0  0  0  0  0  0  0  0
   -3.7811   -2.3546    1.5917 H   0  0  0  0  0  0  0  0  0  0  0  0
   -3.5591   -3.0406   -0.0383 H   0  0  0  0  0  0  0  0  0  0  0  0
   -1.7921   -2.2226    0.8327 C   0  0  0  0  0  0  0  0  0  0  0  0
   -0.7611   -2.7766    1.1927 O   0  0  0  0  0  0  0  0  0  0  0  0
   -1.8201   -0.9926    0.3247 N   0  0  0  0  0  0  0  0  0  0  0  0
   -2.7141   -0.5816    0.0927 H   0  0  0  0  0  0  0  0  0  0  0  0
   -0.6481   -0.1156    0.2017 C   0  0  1  0  0  0  0  0  0  0  0  0
    0.1344   -0.4988    0.8596 H   0  0  0  0  0  0  0  0  0  0  0  0
   -0.1211   -0.1520   -1.2460 C   0  0  0  0  0  0  0  0  0  0  0  0
   -0.9556   -0.0777   -1.9447 H   0  0  0  0  0  0  0  0  0  0  0  0
    0.5320    0.7038   -1.4226 H   0  0  0  0  0  0  0  0  0  0  0  0
    0.6217   -1.4257   -1.5681 C   0  0  0  0  0  0  0  0  0  0  0  0
    0.3804   -2.6783   -1.0021 N   0  0  0  0  0  0  0  0  0  0  0  0
    1.2273   -3.5253   -1.6051 C   0  0  0  0  0  0  0  0  0  0  0  0
    1.3000   -4.5821   -1.3809 H   0  0  0  0  0  0  0  0  0  0  0  0
    1.9601   -2.8791   -2.5274 N   0  0  0  0  0  0  0  0  0  0  0  0
    2.6539   -3.3037   -3.1277 H   0  0  0  0  0  0  0  0  0  0  0  0
    1.5892   -1.5529   -2.5215 C   0  0  0  0  0  0  0  0  0  0  0  0
    1.9638   -0.7587   -3.1551 H   0  0  0  0  0  0  0  0  0  0  0  0
   -0.9851    1.3114    0.6698 C   0  0  0  0  0  0  0  0  0  0  0  0
   -2.0377    1.8431    0.3168 O   0  0  0  0  0  0  0  0  0  0  0  0
   -0.1052    1.9265    1.4663 N   0  0  0  0  0  0  0  0  0  0  0  0
    0.7810    1.4586    1.6201 H   0  0  0  0  0  0  0  0  0  0  0  0
   -0.2724    3.2715    2.0119 C   0  0  0  0  0  0  0  0  0  0  0  0
   -1.3249    3.4549    2.2426 H   0  0  0  0  0  0  0  0  0  0  0  0
    0.3167    3.3776    2.9239 H   0  0  0  0  0  0  0  0  0  0  0  0
    0.0609    4.0073    1.2782 H   0  0  0  0  0  0  0  0  0  0  0  0
  5  6  2  0  0  0  0
  5  7  1  0  0  0  0
  2  3  1  0  0  0  0
  2  4  1  0  0  0  0
  2  5  1  0  0  0  0
  1  2  1  0  0  0  0
 22 23  2  0  0  0  0
 22 24  1  0  0  0  0
 20 21  1  0  0  0  0
 18 19  1  0  0  0  0
 18 20  1  0  0  0  0
 16 17  1  0  0  0  0
 16 18  1  0  0  0  0
 15 16  2  0  0  0  0
 14 15  1  0  0  0  0
 14 20  2  0  0  0  0
 11 12  1  0  0  0  0
 11 13  1  0  0  0  0
 11 14  1  0  0  0  0
  9 10  1  0  0  0  0
  9 11  1  0  0  0  0
  9 22  1  0  0  0  0
  7  8  1  0  0  0  0
  7  9  1  0  0  0  0
 26 27  1  0  0  0  0
 26 28  1  0  0  0  0
 26 29  1  0  0  0  0
 24 25  1  0  0  0  0
 24 26  1  0  0  0  0
M  END
$$$$
default_name
  -OEChem-02102213163D

 29 29  0     1  0  0  0  0  0999 V2000
   -2.9561   -3.9186    1.3887 H   0  0  0  0  0  0  0  0  0  0  0  0
   -3.1191   -2.9346    0.9517 C   0  0  0  0  0  0  0  0  0  0  0  0
   -3.7811   -2.3546    1.5917 H   0  0  0  0  0  0  0  0  0  0  0  0
   -3.5591   -3.0406   -0.0383 H   0  0  0  0  0  0  0  0  0  0  0  0
   -1.7921   -2.2226    0.8327 C   0  0  0  0  0  0  0  0  0  0  0  0
   -0.7611   -2.7766    1.1927 O   0  0  0  0  0  0  0  0  0  0  0  0
   -1.8201   -0.9926    0.3247 N   0  0  0  0  0  0  0  0  0  0  0  0
   -2.7141   -0.5816    0.0927 H   0  0  0  0  0  0  0  0  0  0  0  0
   -0.6481   -0.1156    0.2017 C   0  0  1  0  0  0  0  0  0  0  0  0
    0.1344   -0.4988    0.8596 H   0  0  0  0  0  0  0  0  0  0  0  0
   -0.1211   -0.1520   -1.2460 C   0  0  0  0  0  0  0  0  0  0  0  0
   -0.9556   -0.0777   -1.9447 H   0  0  0  0  0  0  0  0  0  0  0  0
    0.5320    0.7038   -1.4226 H   0  0  0  0  0  0  0  0  0  0  0  0
    0.6217   -1.4257   -1.5681 C   0  0  0  0  0  0  0  0  0  0  0  0
    0.2096   -2.7179   -1.2396 N   0  0  0  0  0  0  0  0  0  0  0  0
    1.1336   -3.5423   -1.7542 C   0  0  0  0  0  0  0  0  0  0  0  0
    1.1112   -4.6209   -1.6627 H   0  0  0  0  0  0  0  0  0  0  0  0
    2.0788   -2.8414   -2.4027 N   0  0  0  0  0  0  0  0  0  0  0  0
    2.8705   -3.2372   -2.8911 H   0  0  0  0  0  0  0  0  0  0  0  0
    1.7707   -1.5032   -2.2996 C   0  0  0  0  0  0  0  0  0  0  0  0
    2.3089   -0.6660   -2.7261 H   0  0  0  0  0  0  0  0  0  0  0  0
   -0.9851    1.3114    0.6698 C   0  0  0  0  0  0  0  0  0  0  0  0
   -2.0377    1.8431    0.3168 O   0  0  0  0  0  0  0  0  0  0  0  0
   -0.1052    1.9265    1.4663 N   0  0  0  0  0  0  0  0  0  0  0  0
    0.7810    1.4586    1.6201 H   0  0  0  0  0  0  0  0  0  0  0  0
   -0.2724    3.2715    2.0119 C   0  0  0  0  0  0  0  0  0  0  0  0
   -1.3249    3.4549    2.2426 H   0  0  0  0  0  0  0  0  0  0  0  0
    0.3167    3.3776    2.9239 H   0  0  0  0  0  0  0  0  0  0  0  0
    0.0609    4.0073    1.2782 H   0  0  0  0  0  0  0  0  0  0  0  0
  5  6  2  0  0  0  0
  5  7  1  0  0  0  0
  2  3  1  0  0  0  0
  2  4  1  0  0  0  0
  2  5  1  0  0  0  0
  1  2  1  0  0  0  0
 22 23  2  0  0  0  0
 22 24  1  0  0  0  0
 20 21  1  0  0  0  0
 18 19  1  0  0  0  0
 18 20  1  0  0  0  0
 16 17  1  0  0  0  0
 16 18  1  0  0  0  0
 15 16  2  0  0  0  0
 14 15  1  0  0  0  0
 14 20  2  0  0  0  0
 11 12  1  0  0  0  0
 11 13  1  0  0  0  0
 11 14  1  0  0  0  0
  9 10  1  0  0  0  0
  9 11  1  0  0  0  0
  9 22  1  0  0  0  0
  7  8  1  0  0  0  0
  7  9  1  0  0  0  0
 26 27  1  0  0  0  0
 26 28  1  0  0  0  0
 26 29  1  0  0  0  0
 24 25  1  0  0  0  0
 24 26  1  0  0  0  0
M  END
$$$$
default_name
  -OEChem-02102213163D

 29 29  0     1  0  0  0  0  0999 V2000
   -2.9561   -3.9186    1.3887 H   0  0  0  0  0  0  0  0  0  0  0  0
   -3.1191   -2.9346    0.9517 C   0  0  0  0  0  0  0  0  0  0  0  0
   -3.7811   -2.3546    1.5917 H   0  0  0  0  0  0  0  0  0  0  0  0
   -3.5591   -3.0406   -0.0383 H   0  0  0  0  0  0  0  0  0  0  0  0
   -1.7921   -2.2226    0.8327 C   0  0  0  0  0  0  0  0  0  0  0  0
   -0.7611   -2.7766    1.1927 O   0  0  0  0  0  0  0  0  0  0  0  0
   -1.8201   -0.9926    0.3247 N   0  0  0  0  0  0  0  0  0  0  0  0
   -2.7141   -0.5816    0.0927 H   0  0  0  0  0  0  0  0  0  0  0  0
   -0.6481   -0.1156    0.2017 C   0  0  1  0  0  0  0  0  0  0  0  0
    0.1344   -0.4988    0.8596 H   0  0  0  0  0  0  0  0  0  0  0  0
   -0.1211   -0.1520   -1.2460 C   0  0  0  0  0  0  0  0  0  0  0  0
   -0.9556   -0.0777   -1.9447 H   0  0  0  0  0  0  0  0  0  0  0  0
    0.5320    0.7038   -1.4226 H   0  0  0  0  0  0  0  0  0  0  0  0
    0.6217   -1.4257   -1.5681 C   0  0  0  0  0  0  0  0  0  0  0  0
    0.0942   -2.7164   -1.5114 N   0  0  0  0  0  0  0  0  0  0  0  0
    1.0748   -3.5345   -1.9207 C   0  0  0  0  0  0  0  0  0  0  0  0
    0.9884   -4.6121   -1.9810 H   0  0  0  0  0  0  0  0  0  0  0  0
    2.1684   -2.8274   -2.2515 N   0  0  0  0  0  0  0  0  0  0  0  0
    3.0318   -3.2150   -2.6068 H   0  0  0  0  0  0  0  0  0  0  0  0
    1.9002   -1.4934   -2.0393 C   0  0  0  0  0  0  0  0  0  0  0  0
    2.5536   -0.6501   -2.2245 H   0  0  0  0  0  0  0  0  0  0  0  0
   -0.9851    1.3114    0.6698 C   0  0  0  0  0  0  0  0  0  0  0  0
   -2.0377    1.8431    0.3168 O   0  0  0  0  0  0  0  0  0  0  0  0
   -0.1052    1.9265    1.4663 N   0  0  0  0  0  0  0  0  0  0  0  0
    0.7810    1.4586    1.6201 H   0  0  0  0  0  0  0  0  0  0  0  0
   -0.2724    3.2715    2.0119 C   0  0  0  0  0  0  0  0  0  0  0  0
   -1.3249    3.4549    2.2426 H   0  0  0  0  0  0  0  0  0  0  0  0
    0.3167    3.3776    2.9239 H   0  0  0  0  0  0  0  0  0  0  0  0
    0.0609    4.0073    1.2782 H   0  0  0  0  0  0  0  0  0  0  0  0
  5  6  2  0  0  0  0
  5  7  1  0  0  0  0
  2  3  1  0  0  0  0
  2  4  1  0  0  0  0
  2  5  1  0  0  0  0
  1  2  1  0  0  0  0
 22 23  2  0  0  0  0
 22 24  1  0  0  0  0
 20 21  1  0  0  0  0
 18 19  1  0  0  0  0
 18 20  1  0  0  0  0
 16 17  1  0  0  0  0
 16 18  1  0  0  0  0
 15 16  2  0  0  0  0
 14 15  1  0  0  0  0
 14 20  2  0  0  0  0
 11 12  1  0  0  0  0
 11 13  1  0  0  0  0
 11 14  1  0  0  0  0
  9 10  1  0  0  0  0
  9 11  1  0  0  0  0
  9 22  1  0  0  0  0
  7  8  1  0  0  0  0
  7  9  1  0  0  0  0
 26 27  1  0  0  0  0
 26 28  1  0  0  0  0
 26 29  1  0  0  0  0
 24 25  1  0  0  0  0
 24 26  1  0  0  0  0
M  END
$$$$
default_name
  -OEChem-02102213163D

 29 29  0     1  0  0  0  0  0999 V2000
   -2.9561   -3.9186    1.3887 H   0  0  0  0  0  0  0  0  0  0  0  0
   -3.1191   -2.9346    0.9517 C   0  0  0  0  0  0  0  0  0  0  0  0
   -3.7811   -2.3546    1.5917 H   0  0  0  0  0  0  0  0  0  0  0  0
   -3.5591   -3.0406   -0.0383 H   0  0  0  0  0  0  0  0  0  0  0  0
   -1.7921   -2.2226    0.8327 C   0  0  0  0  0  0  0  0  0  0  0  0
   -0.7611   -2.7766    1.1927 O   0  0  0  0  0  0  0  0  0  0  0  0
   -1.8201   -0.9926    0.3247 N   0  0  0  0  0  0  0  0  0  0  0  0
   -2.7141   -0.5816    0.0927 H   0  0  0  0  0  0  0  0  0  0  0  0
   -0.6481   -0.1156    0.2017 C   0  0  1  0  0  0  0  0  0  0  0  0
    0.1344   -0.4988    0.8596 H   0  0  0  0  0  0  0  0  0  0  0  0
   -0.1211   -0.1520   -1.2460 C   0  0  0  0  0  0  0  0  0  0  0  0
   -0.9556   -0.0777   -1.9447 H   0  0  0  0  0  0  0  0  0  0  0  0
    0.5320    0.7038   -1.4226 H   0  0  0  0  0  0  0  0  0  0  0  0
    0.6217   -1.4257   -1.5681 C   0  0  0  0  0  0  0  0  0  0  0  0
    0.0422   -2.6740   -1.7989 N   0  0  0  0  0  0  0  0  0  0  0  0
    1.0547   -3.5025   -2.0935 C   0  0  0  0  0  0  0  0  0  0  0  0
    0.9397   -4.5562   -2.3143 H   0  0  0  0  0  0  0  0  0  0  0  0
    2.2226   -2.8381   -2.0842 N   0  0  0  0  0  0  0  0  0  0  0  0
    3.1266   -3.2388   -2.2941 H   0  0  0  0  0  0  0  0  0  0  0  0
    1.9691   -1.5243   -1.7584 C   0  0  0  0  0  0  0  0  0  0  0  0
    2.6813   -0.7121   -1.6845 H   0  0  0  0  0  0  0  0  0  0  0  0
   -0.9851    1.3114    0.6698 C   0  0  0  0  0  0  0  0  0  0  0  0
   -2.0377    1.8431    0.3168 O   0  0  0  0  0  0  0  0  0  0  0  0
   -0.1052    1.9265    1.4663 N   0  0  0  0  0  0  0  0  0  0  0  0
    0.7810    1.4586    1.6201 H   0  0  0  0  0  0  0  0  0  0  0  0
   -0.2724    3.2715    2.0119 C   0  0  0  0  0  0  0  0  0  0  0  0
   -1.3249    3.4549    2.2426 H   0  0  0  0  0  0  0  0  0  0  0  0
    0.3167    3.3776    2.9239 H   0  0  0  0  0  0  0  0  0  0  0  0
    0.0609    4.0073    1.2782 H   0  0  0  0  0  0  0  0  0  0  0  0
  5  6  2  0  0  0  0
  5  7  1  0  0  0  0
  2  3  1  0  0  0  0
  2  4  1  0  0  0  0
  2  5  1  0  0  0  0
  1  2  1  0  0  0  0
 22 23  2  0  0  0  0
 22 24  1  0  0  0  0
 20 21  1  0  0  0  0
 18 19  1  0  0  0  0
 18 20  1  0  0  0  0
 16 17  1  0  0  0  0
 16 18  1  0  0  0  0
 15 16  2  0  0  0  0
 14 15  1  0  0  0  0
 14 20  2  0  0  0  0
 11 12  1  0  0  0  0
 11 13  1  0  0  0  0
 11 14  1  0  0  0  0
  9 10  1  0  0  0  0
  9 11  1  0  0  0  0
  9 22  1  0  0  0  0
  7  8  1  0  0  0  0
  7  9  1  0  0  0  0
 26 27  1  0  0  0  0
 26 28  1  0  0  0  0
 26 29  1  0  0  0  0
 24 25  1  0  0  0  0
 24 26  1  0  0  0  0
M  END
$$$$
default_name
  -OEChem-02102213163D

 29 29  0     1  0  0  0  0  0999 V2000
   -2.9561   -3.9186    1.3887 H   0  0  0  0  0  0  0  0  0  0  0  0
   -3.1191   -2.9346    0.9517 C   0  0  0  0  0  0  0  0  0  0  0  0
   -3.7811   -2.3546    1.5917 H   0  0  0  0  0  0  0  0  0  0  0  0
   -3.5591   -3.0406   -0.0383 H   0  0  0  0  0  0  0  0  0  0  0  0
   -1.7921   -2.2226    0.8327 C   0  0  0  0  0  0  0  0  0  0  0  0
   -0.7611   -2.7766    1.1927 O   0  0  0  0  0  0  0  0  0  0  0  0
   -1.8201   -0.9926    0.3247 N   0  0  0  0  0  0  0  0  0  0  0  0
   -2.7141   -0.5816    0.0927 H   0  0  0  0  0  0  0  0  0  0  0  0
   -0.6481   -0.1156    0.2017 C   0  0  1  0  0  0  0  0  0  0  0  0
    0.1344   -0.4988    0.8596 H   0  0  0  0  0  0  0  0  0  0  0  0
   -0.1211   -0.1520   -1.2460 C   0  0  0  0  0  0  0  0  0  0  0  0
   -0.9556   -0.0777   -1.9447 H   0  0  0  0  0  0  0  0  0  0  0  0
    0.5320    0.7038   -1.4226 H   0  0  0  0  0  0  0  0  0  0  0  0
    0.6217   -1.4257   -1.5681 C   0  0  0  0  0  0  0  0  0  0  0  0
    0.0571   -2.5936   -2.0826 N   0  0  0  0  0  0  0  0  0  0  0  0
    1.0749   -3.4484   -2.2607 C   0  0  0  0  0  0  0  0  0  0  0  0
    0.9685   -4.4571   -2.6397 H   0  0  0  0  0  0  0  0  0  0  0  0
    2.2378   -2.8728   -1.9120 N   0  0  0  0  0  0  0  0  0  0  0  0
    3.1487   -3.3068   -1.9744 H   0  0  0  0  0  0  0  0  0  0  0  0
    1.9725   -1.5938   -1.4759 C   0  0  0  0  0  0  0  0  0  0  0  0
    2.6833   -0.8479   -1.1429 H   0  0  0  0  0  0  0  0  0  0  0  0
   -0.9851    1.3114    0.6698 C   0  0  0  0  0  0  0  0  0  0  0  0
   -2.0377    1.8431    0.3168 O   0  0  0  0  0  0  0  0  0  0  0  0
   -0.1052    1.9265    1.4663 N   0  0  0  0  0  0  0  0  0  0  0  0
    0.7810    1.4586    1.6201 H   0  0  0  0  0  0  0  0  0  0  0  0
   -0.2724    3.2715    2.0119 C   0  0  0  0  0  0  0  0  0  0  0  0
   -1.3249    3.4549    2.2426 H   0  0  0  0  0  0  0  0  0  0  0  0
    0.3167    3.3776    2.9239 H   0  0  0  0  0  0  0  0  0  0  0  0
    0.0609    4.0073    1.2782 H   0  0  0  0  0  0  0  0  0  0  0  0
  5  6  2  0  0  0  0
  5  7  1  0  0  0  0
  2  3  1  0  0  0  0
  2  4  1  0  0  0  0
  2  5  1  0  0  0  0
  1  2  1  0  0  0  0
 22 23  2  0  0  0  0
 22 24  1  0  0  0  0
 20 21  1  0  0  0  0
 18 19  1  0  0  0  0
 18 20  1  0  0  0  0
 16 17  1  0  0  0  0
 16 18  1  0  0  0  0
 15 16  2  0  0  0  0
 14 15  1  0  0  0  0
 14 20  2  0  0  0  0
 11 12  1  0  0  0  0
 11 13  1  0  0  0  0
 11 14  1  0  0  0  0
  9 10  1  0  0  0  0
  9 11  1  0  0  0  0
  9 22  1  0  0  0  0
  7  8  1  0  0  0  0
  7  9  1  0  0  0  0
 26 27  1  0  0  0  0
 26 28  1  0  0  0  0
 26 29  1  0  0  0  0
 24 25  1  0  0  0  0
 24 26  1  0  0  0  0
M  END
$$$$
default_name
  -OEChem-02102213163D

 29 29  0     1  0  0  0  0  0999 V2000
   -2.9561   -3.9186    1.3887 H   0  0  0  0  0  0  0  0  0  0  0  0
   -3.1191   -2.9346    0.9517 C   0  0  0  0  0  0  0  0  0  0  0  0
   -3.7811   -2.3546    1.5917 H   0  0  0  0  0  0  0  0  0  0  0  0
   -3.5591   -3.0406   -0.0383 H   0  0  0  0  0  0  0  0  0  0  0  0
   -1.7921   -2.2226    0.8327 C   0  0  0  0  0  0  0  0  0  0  0  0
   -0.7611   -2.7766    1.1927 O   0  0  0  0  0  0  0  0  0  0  0  0
   -1.8201   -0.9926    0.3247 N   0  0  0  0  0  0  0  0  0  0  0  0
   -2.7141   -0.5816    0.0927 H   0  0  0  0  0  0  0  0  0  0  0  0
   -0.6481   -0.1156    0.2017 C   0  0  1  0  0  0  0  0  0  0  0  0
    0.1344   -0.4988    0.8596 H   0  0  0  0  0  0  0  0  0  0  0  0
   -0.1211   -0.1520   -1.2460 C   0  0  0  0  0  0  0  0  0  0  0  0
   -0.9556   -0.0777   -1.9447 H   0  0  0  0  0  0  0  0  0  0  0  0
    0.5320    0.7038   -1.4226 H   0  0  0  0  0  0  0  0  0  0  0  0
    0.6217   -1.4257   -1.5681 C   0  0  0  0  0  0  0  0  0  0  0  0
    0.1380   -2.4806   -2.3431 N   0  0  0  0  0  0  0  0  0  0  0  0
    1.1339   -3.3761   -2.4108 C   0  0  0  0  0  0  0  0  0  0  0  0
    1.0730   -4.3215   -2.9350 H   0  0  0  0  0  0  0  0  0  0  0  0
    2.2130   -2.9290   -1.7468 N   0  0  0  0  0  0  0  0  0  0  0  0
    3.0963   -3.4144   -1.6694 H   0  0  0  0  0  0  0  0  0  0  0  0
    1.9102   -1.6970   -1.2111 C   0  0  0  0  0  0  0  0  0  0  0  0
    2.5594   -1.0482   -0.6367 H   0  0  0  0  0  0  0  0  0  0  0  0
   -0.9851    1.3114    0.6698 C   0  0  0  0  0  0  0  0  0  0  0  0
   -2.0377    1.8431    0.3168 O   0  0  0  0  0  0  0  0  0  0  0  0
   -0.1052    1.9265    1.4663 N   0  0  0  0  0  0  0  0  0  0  0  0
    0.7810    1.4586    1.6201 H   0  0  0  0  0  0  0  0  0  0  0  0
   -0.2724    3.2715    2.0119 C   0  0  0  0  0  0  0  0  0  0  0  0
   -1.3249    3.4549    2.2426 H   0  0  0  0  0  0  0  0  0  0  0  0
    0.3167    3.3776    2.9239 H   0  0  0  0  0  0  0  0  0  0  0  0
    0.0609    4.0073    1.2782 H   0  0  0  0  0  0  0  0  0  0  0  0
  5  6  2  0  0  0  0
  5  7  1  0  0  0  0
  2  3  1  0  0  0  0
  2  4  1  0  0  0  0
  2  5  1  0  0  0  0
  1  2  1  0  0  0  0
 22 23  2  0  0  0  0
 22 24  1  0  0  0  0
 20 21  1  0  0  0  0
 18 19  1  0  0  0  0
 18 20  1  0  0  0  0
 16 17  1  0  0  0  0
 16 18  1  0  0  0  0
 15 16  2  0  0  0  0
 14 15  1  0  0  0  0
 14 20  2  0  0  0  0
 11 12  1  0  0  0  0
 11 13  1  0  0  0  0
 11 14  1  0  0  0  0
  9 10  1  0  0  0  0
  9 11  1  0  0  0  0
  9 22  1  0  0  0  0
  7  8  1  0  0  0  0
  7  9  1  0  0  0  0
 26 27  1  0  0  0  0
 26 28  1  0  0  0  0
 26 29  1  0  0  0  0
 24 25  1  0  0  0  0
 24 26  1  0  0  0  0
M  END
$$$$
default_name
  -OEChem-02102213163D

 29 29  0     1  0  0  0  0  0999 V2000
   -2.9561   -3.9186    1.3887 H   0  0  0  0  0  0  0  0  0  0  0  0
   -3.1191   -2.9346    0.9517 C   0  0  0  0  0  0  0  0  0  0  0  0
   -3.7811   -2.3546    1.5917 H   0  0  0  0  0  0  0  0  0  0  0  0
   -3.5591   -3.0406   -0.0383 H   0  0  0  0  0  0  0  0  0  0  0  0
   -1.7921   -2.2226    0.8327 C   0  0  0  0  0  0  0  0  0  0  0  0
   -0.7611   -2.7766    1.1927 O   0  0  0  0  0  0  0  0  0  0  0  0
   -1.8201   -0.9926    0.3247 N   0  0  0  0  0  0  0  0  0  0  0  0
   -2.7141   -0.5816    0.0927 H   0  0  0  0  0  0  0  0  0  0  0  0
   -0.6481   -0.1156    0.2017 C   0  0  1  0  0  0  0  0  0  0  0  0
    0.1344   -0.4988    0.8596 H   0  0  0  0  0  0  0  0  0  0  0  0
   -0.1211   -0.1520   -1.2460 C   0  0  0  0  0  0  0  0  0  0  0  0
   -0.9556   -0.0777   -1.9447 H   0  0  0  0  0  0  0  0  0  0  0  0
    0.5320    0.7038   -1.4226 H   0  0  0  0  0  0  0  0  0  0  0  0
    0.6217   -1.4257   -1.5681 C   0  0  0  0  0  0  0  0  0  0  0  0
    0.2792   -2.3427   -2.5626 N   0  0  0  0  0  0  0  0  0  0  0  0
    1.2276   -3.2903   -2.5338 C   0  0  0  0  0  0  0  0  0  0  0  0
    1.2458   -4.1587   -3.1803 H   0  0  0  0  0  0  0  0  0  0  0  0
    2.1498   -3.0030   -1.5999 N   0  0  0  0  0  0  0  0  0  0  0  0
    2.9733   -3.5543   -1.4000 H   0  0  0  0  0  0  0  0  0  0  0  0
    1.7866   -1.8270   -0.9821 C   0  0  0  0  0  0  0  0  0  0  0  0
    2.3181   -1.2992   -0.2003 H   0  0  0  0  0  0  0  0  0  0  0  0
   -0.9851    1.3114    0.6698 C   0  0  0  0  0  0  0  0  0  0  0  0
   -2.0377    1.8431    0.3168 O   0  0  0  0  0  0  0  0  0  0  0  0
   -0.1052    1.9265    1.4663 N   0  0  0  0  0  0  0  0  0  0  0  0
    0.7810    1.4586    1.6201 H   0  0  0  0  0  0  0  0  0  0  0  0
   -0.2724    3.2715    2.0119 C   0  0  0  0  0  0  0  0  0  0  0  0
   -1.3249    3.4549    2.2426 H   0  0  0  0  0  0  0  0  0  0  0  0
    0.3167    3.3776    2.9239 H   0  0  0  0  0  0  0  0  0  0  0  0
    0.0609    4.0073    1.2782 H   0  0  0  0  0  0  0  0  0  0  0  0
  5  6  2  0  0  0  0
  5  7  1  0  0  0  0
  2  3  1  0  0  0  0
  2  4  1  0  0  0  0
  2  5  1  0  0  0  0
  1  2  1  0  0  0  0
 22 23  2  0  0  0  0
 22 24  1  0  0  0  0
 20 21  1  0  0  0  0
 18 19  1  0  0  0  0
 18 20  1  0  0  0  0
 16 17  1  0  0  0  0
 16 18  1  0  0  0  0
 15 16  2  0  0  0  0
 14 15  1  0  0  0  0
 14 20  2  0  0  0  0
 11 12  1  0  0  0  0
 11 13  1  0  0  0  0
 11 14  1  0  0  0  0
  9 10  1  0  0  0  0
  9 11  1  0  0  0  0
  9 22  1  0  0  0  0
  7  8  1  0  0  0  0
  7  9  1  0  0  0  0
 26 27  1  0  0  0  0
 26 28  1  0  0  0  0
 26 29  1  0  0  0  0
 24 25  1  0  0  0  0
 24 26  1  0  0  0  0
M  END
$$$$
default_name
  -OEChem-02102213163D

 29 29  0     1  0  0  0  0  0999 V2000
   -2.9561   -3.9186    1.3887 H   0  0  0  0  0  0  0  0  0  0  0  0
   -3.1191   -2.9346    0.9517 C   0  0  0  0  0  0  0  0  0  0  0  0
   -3.7811   -2.3546    1.5917 H   0  0  0  0  0  0  0  0  0  0  0  0
   -3.5591   -3.0406   -0.0383 H   0  0  0  0  0  0  0  0  0  0  0  0
   -1.7921   -2.2226    0.8327 C   0  0  0  0  0  0  0  0  0  0  0  0
   -0.7611   -2.7766    1.1927 O   0  0  0  0  0  0  0  0  0  0  0  0
   -1.8201   -0.9926    0.3247 N   0  0  0  0  0  0  0  0  0  0  0  0
   -2.7141   -0.5816    0.0927 H   0  0  0  0  0  0  0  0  0  0  0  0
   -0.6481   -0.1156    0.2017 C   0  0  1  0  0  0  0  0  0  0  0  0
    0.1344   -0.4988    0.8596 H   0  0  0  0  0  0  0  0  0  0  0  0
   -0.1211   -0.1520   -1.2460 C   0  0  0  0  0  0  0  0  0  0  0  0
   -0.9556   -0.0777   -1.9447 H   0  0  0  0  0  0  0  0  0  0  0  0
    0.5320    0.7038   -1.4226 H   0  0  0  0  0  0  0  0  0  0  0  0
    0.6217   -1.4257   -1.5681 C   0  0  0  0  0  0  0  0  0  0  0  0
    0.4712   -2.1894   -2.7263 N   0  0  0  0  0  0  0  0  0  0  0  0
    1.3498   -3.1970   -2.6212 C   0  0  0  0  0  0  0  0  0  0  0  0
    1.4754   -3.9797   -3.3586 H   0  0  0  0  0  0  0  0  0  0  0  0
    2.0527   -3.0897   -1.4811 N   0  0  0  0  0  0  0  0  0  0  0  0
    2.7878   -3.7170   -1.1844 H   0  0  0  0  0  0  0  0  0  0  0  0
    1.6099   -1.9750   -0.8045 C   0  0  0  0  0  0  0  0  0  0  0  0
    1.9759   -1.5840    0.1366 H   0  0  0  0  0  0  0  0  0  0  0  0
   -0.9851    1.3114    0.6698 C   0  0  0  0  0  0  0  0  0  0  0  0
   -2.0377    1.8431    0.3168 O   0  0  0  0  0  0  0  0  0  0  0  0
   -0.1052    1.9265    1.4663 N   0  0  0  0  0  0  0  0  0  0  0  0
    0.7810    1.4586    1.6201 H   0  0  0  0  0  0  0  0  0  0  0  0
   -0.2724    3.2715    2.0119 C   0  0  0  0  0  0  0  0  0  0  0  0
   -1.3249    3.4549    2.2426 H   0  0  0  0  0  0  0  0  0  0  0  0
    0.3167    3.3776    2.9239 H   0  0  0  0  0  0  0  0  0  0  0  0
    0.0609    4.0073    1.2782 H   0  0  0  0  0  0  0  0  0  0  0  0
  5  6  2  0  0  0  0
  5  7  1  0  0  0  0
  2  3  1  0  0  0  0
  2  4  1  0  0  0  0
  2  5  1  0  0  0  0
  1  2  1  0  0  0  0
 22 23  2  0  0  0  0
 22 24  1  0  0  0  0
 20 21  1  0  0  0  0
 18 19  1  0  0  0  0
 18 20  1  0  0  0  0
 16 17  1  0  0  0  0
 16 18  1  0  0  0  0
 15 16  2  0  0  0  0
 14 15  1  0  0  0  0
 14 20  2  0  0  0  0
 11 12  1  0  0  0  0
 11 13  1  0  0  0  0
 11 14  1  0  0  0  0
  9 10  1  0  0  0  0
  9 11  1  0  0  0  0
  9 22  1  0  0  0  0
  7  8  1  0  0  0  0
  7  9  1  0  0  0  0
 26 27  1  0  0  0  0
 26 28  1  0  0  0  0
 26 29  1  0  0  0  0
 24 25  1  0  0  0  0
 24 26  1  0  0  0  0
M  END
$$$$
default_name
  -OEChem-02102213163D

 29 29  0     1  0  0  0  0  0999 V2000
   -2.9561   -3.9186    1.3887 H   0  0  0  0  0  0  0  0  0  0  0  0
   -3.1191   -2.9346    0.9517 C   0  0  0  0  0  0  0  0  0  0  0  0
   -3.7811   -2.3546    1.5917 H   0  0  0  0  0  0  0  0  0  0  0  0
   -3.5591   -3.0406   -0.0383 H   0  0  0  0  0  0  0  0  0  0  0  0
   -1.7921   -2.2226    0.8327 C   0  0  0  0  0  0  0  0  0  0  0  0
   -0.7611   -2.7766    1.1927 O   0  0  0  0  0  0  0  0  0  0  0  0
   -1.8201   -0.9926    0.3247 N   0  0  0  0  0  0  0  0  0  0  0  0
   -2.7141   -0.5816    0.0927 H   0  0  0  0  0  0  0  0  0  0  0  0
   -0.6481   -0.1156    0.2017 C   0  0  1  0  0  0  0  0  0  0  0  0
    0.1344   -0.4988    0.8596 H   0  0  0  0  0  0  0  0  0  0  0  0
   -0.1211   -0.1520   -1.2460 C   0  0  0  0  0  0  0  0  0  0  0  0
   -0.9556   -0.0777   -1.9447 H   0  0  0  0  0  0  0  0  0  0  0  0
    0.5320    0.7038   -1.4226 H   0  0  0  0  0  0  0  0  0  0  0  0
    0.6217   -1.4257   -1.5681 C   0  0  0  0  0  0  0  0  0  0  0  0
    0.7008   -2.0310   -2.8230 N   0  0  0  0  0  0  0  0  0  0  0  0
    1.4920   -3.1024   -2.6670 C   0  0  0  0  0  0  0  0  0  0  0  0
    1.7459   -3.7968   -3.4580 H   0  0  0  0  0  0  0  0  0  0  0  0
    1.9280   -3.1832   -1.3987 N   0  0  0  0  0  0  0  0  0  0  0  0
    2.5526   -3.8913   -1.0374 H   0  0  0  0  0  0  0  0  0  0  0  0
    1.3923   -2.1307   -0.6903 C   0  0  0  0  0  0  0  0  0  0  0  0
    1.5560   -1.8831    0.3510 H   0  0  0  0  0  0  0  0  0  0  0  0
   -0.9851    1.3114    0.6698 C   0  0  0  0  0  0  0  0  0  0  0  0
   -2.0377    1.8431    0.3168 O   0  0  0  0  0  0  0  0  0  0  0  0
   -0.1052    1.9265    1.4663 N   0  0  0  0  0  0  0  0  0  0  0  0
    0.7810    1.4586    1.6201 H   0  0  0  0  0  0  0  0  0  0  0  0
   -0.2724    3.2715    2.0119 C   0  0  0  0  0  0  0  0  0  0  0  0
   -1.3249    3.4549    2.2426 H   0  0  0  0  0  0  0  0  0  0  0  0
    0.3167    3.3776    2.9239 H   0  0  0  0  0  0  0  0  0  0  0  0
    0.0609    4.0073    1.2782 H   0  0  0  0  0  0  0  0  0  0  0  0
  5  6  2  0  0  0  0
  5  7  1  0  0  0  0
  2  3  1  0  0  0  0
  2  4  1  0  0  0  0
  2  5  1  0  0  0  0
  1  2  1  0  0  0  0
 22 23  2  0  0  0  0
 22 24  1  0  0  0  0
 20 21  1  0  0  0  0
 18 19  1  0  0  0  0
 18 20  1  0  0  0  0
 16 17  1  0  0  0  0
 16 18  1  0  0  0  0
 15 16  2  0  0  0  0
 14 15  1  0  0  0  0
 14 20  2  0  0  0  0
 11 12  1  0  0  0  0
 11 13  1  0  0  0  0
 11 14  1  0  0  0  0
  9 10  1  0  0  0  0
  9 11  1  0  0  0  0
  9 22  1  0  0  0  0
  7  8  1  0  0  0  0
  7  9  1  0  0  0  0
 26 27  1  0  0  0  0
 26 28  1  0  0  0  0
 26 29  1  0  0  0  0
 24 25  1  0  0  0  0
 24 26  1  0  0  0  0
M  END
$$$$
default_name
  -OEChem-02102213163D

 29 29  0     1  0  0  0  0  0999 V2000
   -2.9561   -3.9186    1.3887 H   0  0  0  0  0  0  0  0  0  0  0  0
   -3.1191   -2.9346    0.9517 C   0  0  0  0  0  0  0  0  0  0  0  0
   -3.7811   -2.3546    1.5917 H   0  0  0  0  0  0  0  0  0  0  0  0
   -3.5591   -3.0406   -0.0383 H   0  0  0  0  0  0  0  0  0  0  0  0
   -1.7921   -2.2226    0.8327 C   0  0  0  0  0  0  0  0  0  0  0  0
   -0.7611   -2.7766    1.1927 O   0  0  0  0  0  0  0  0  0  0  0  0
   -1.8201   -0.9926    0.3247 N   0  0  0  0  0  0  0  0  0  0  0  0
   -2.7141   -0.5816    0.0927 H   0  0  0  0  0  0  0  0  0  0  0  0
   -0.6481   -0.1156    0.2017 C   0  0  1  0  0  0  0  0  0  0  0  0
    0.1344   -0.4988    0.8596 H   0  0  0  0  0  0  0  0  0  0  0  0
   -0.1211   -0.1520   -1.2460 C   0  0  0  0  0  0  0  0  0  0  0  0
   -0.9556   -0.0777   -1.9447 H   0  0  0  0  0  0  0  0  0  0  0  0
    0.5320    0.7038   -1.4226 H   0  0  0  0  0  0  0  0  0  0  0  0
    0.6217   -1.4257   -1.5681 C   0  0  0  0  0  0  0  0  0  0  0  0
    0.9525   -1.8784   -2.8460 N   0  0  0  0  0  0  0  0  0  0  0  0
    1.6446   -3.0131   -2.6682 C   0  0  0  0  0  0  0  0  0  0  0  0
    2.0391   -3.6224   -3.4716 H   0  0  0  0  0  0  0  0  0  0  0  0
    1.7845   -3.2772   -1.3582 N   0  0  0  0  0  0  0  0  0  0  0  0
    2.2836   -4.0654   -0.9691 H   0  0  0  0  0  0  0  0  0  0  0  0
    1.1486   -2.2837   -0.6474 C   0  0  0  0  0  0  0  0  0  0  0  0
    1.0870   -2.1761    0.4282 H   0  0  0  0  0  0  0  0  0  0  0  0
   -0.9851    1.3114    0.6698 C   0  0  0  0  0  0  0  0  0  0  0  0
   -2.0377    1.8431    0.3168 O   0  0  0  0  0  0  0  0  0  0  0  0
   -0.1052    1.9265    1.4663 N   0  0  0  0  0  0  0  0  0  0  0  0
    0.7810    1.4586    1.6201 H   0  0  0  0  0  0  0  0  0  0  0  0
   -0.2724    3.2715    2.0119 C   0  0  0  0  0  0  0  0  0  0  0  0
   -1.3249    3.4549    2.2426 H   0  0  0  0  0  0  0  0  0  0  0  0
    0.3167    3.3776    2.9239 H   0  0  0  0  0  0  0  0  0  0  0  0
    0.0609    4.0073    1.2782 H   0  0  0  0  0  0  0  0  0  0  0  0
  5  6  2  0  0  0  0
  5  7  1  0  0  0  0
  2  3  1  0  0  0  0
  2  4  1  0  0  0  0
  2  5  1  0  0  0  0
  1  2  1  0  0  0  0
 22 23  2  0  0  0  0
 22 24  1  0  0  0  0
 20 21  1  0  0  0  0
 18 19  1  0  0  0  0
 18 20  1  0  0  0  0
 16 17  1  0  0  0  0
 16 18  1  0  0  0  0
 15 16  2  0  0  0  0
 14 15  1  0  0  0  0
 14 20  2  0  0  0  0
 11 12  1  0  0  0  0
 11 13  1  0  0  0  0
 11 14  1  0  0  0  0
  9 10  1  0  0  0  0
  9 11  1  0  0  0  0
  9 22  1  0  0  0  0
  7  8  1  0  0  0  0
  7  9  1  0  0  0  0
 26 27  1  0  0  0  0
 26 28  1  0  0  0  0
 26 29  1  0  0  0  0
 24 25  1  0  0  0  0
 24 26  1  0  0  0  0
M  END
$$$$
default_name
  -OEChem-02102213163D

 29 29  0     1  0  0  0  0  0999 V2000
   -2.9561   -3.9186    1.3887 H   0  0  0  0  0  0  0  0  0  0  0  0
   -3.1191   -2.9346    0.9517 C   0  0  0  0  0  0  0  0  0  0  0  0
   -3.7811   -2.3546    1.5917 H   0  0  0  0  0  0  0  0  0  0  0  0
   -3.5591   -3.0406   -0.0383 H   0  0  0  0  0  0  0  0  0  0  0  0
   -1.7921   -2.2226    0.8327 C   0  0  0  0  0  0  0  0  0  0  0  0
   -0.7611   -2.7766    1.1927 O   0  0  0  0  0  0  0  0  0  0  0  0
   -1.8201   -0.9926    0.3247 N   0  0  0  0  0  0  0  0  0  0  0  0
   -2.7141   -0.5816    0.0927 H   0  0  0  0  0  0  0  0  0  0  0  0
   -0.6481   -0.1156    0.2017 C   0  0  1  0  0  0  0  0  0  0  0  0
    0.1344   -0.4988    0.8596 H   0  0  0  0  0  0  0  0  0  0  0  0
   -0.1211   -0.1520   -1.2460 C   0  0  0  0  0  0  0  0  0  0  0  0
   -0.9006    0.1842   -1.9313 H   0  0  0  0  0  0  0  0  0  0  0  0
    0.7232    0.5312   -1.3486 H   0  0  0  0  0  0  0  0  0  0  0  0
    0.2955   -1.5349   -1.6841 C   0  0  0  0  0  0  0  0  0  0  0  0
    0.8093   -1.8758   -2.9360 N   0  0  0  0  0  0  0  0  0  0  0  0
    1.0871   -3.1863   -2.8768 C   0  0  0  0  0  0  0  0  0  0  0  0
    1.4922   -3.7644   -3.6978 H   0  0  0  0  0  0  0  0  0  0  0  0
    0.8007   -3.6722   -1.6573 N   0  0  0  0  0  0  0  0  0  0  0  0
    0.9412   -4.6278   -1.3591 H   0  0  0  0  0  0  0  0  0  0  0  0
    0.3035   -2.6433   -0.8887 C   0  0  0  0  0  0  0  0  0  0  0  0
   -0.0046   -2.6820    0.1486 H   0  0  0  0  0  0  0  0  0  0  0  0
   -0.9851    1.3114    0.6698 C   0  0  0  0  0  0  0  0  0  0  0  0
   -2.0377    1.8431    0.3168 O   0  0  0  0  0  0  0  0  0  0  0  0
   -0.1052    1.9265    1.4663 N   0  0  0  0  0  0  0  0  0  0  0  0
    0.7810    1.4586    1.6201 H   0  0  0  0  0  0  0  0  0  0  0  0
   -0.2724    3.2715    2.0119 C   0  0  0  0  0  0  0  0  0  0  0  0
   -1.3249    3.4549    2.2426 H   0  0  0  0  0  0  0  0  0  0  0  0
    0.3167    3.3776    2.9239 H   0  0  0  0  0  0  0  0  0  0  0  0
    0.0609    4.0073    1.2782 H   0  0  0  0  0  0  0  0  0  0  0  0
  5  6  2  0  0  0  0
  5  7  1  0  0  0  0
  2  3  1  0  0  0  0
  2  4  1  0  0  0  0
  2  5  1  0  0  0  0
  1  2  1  0  0  0  0
 22 23  2  0  0  0  0
 22 24  1  0  0  0  0
 20 21  1  0  0  0  0
 18 19  1  0  0  0  0
 18 20  1  0  0  0  0
 16 17  1  0  0  0  0
 16 18  1  0  0  0  0
 15 16  2  0  0  0  0
 14 15  1  0  0  0  0
 14 20  2  0  0  0  0
 11 12  1  0  0  0  0
 11 13  1  0  0  0  0
 11 14  1  0  0  0  0
  9 10  1  0  0  0  0
  9 11  1  0  0  0  0
  9 22  1  0  0  0  0
  7  8  1  0  0  0  0
  7  9  1  0  0  0  0
 26 27  1  0  0  0  0
 26 28  1  0  0  0  0
 26 29  1  0  0  0  0
 24 25  1  0  0  0  0
 24 26  1  0  0  0  0
M  END
$$$$
default_name
  -OEChem-02102213163D

 29 29  0     1  0  0  0  0  0999 V2000
   -2.9561   -3.9186    1.3887 H   0  0  0  0  0  0  0  0  0  0  0  0
   -3.1191   -2.9346    0.9517 C   0  0  0  0  0  0  0  0  0  0  0  0
   -3.7811   -2.3546    1.5917 H   0  0  0  0  0  0  0  0  0  0  0  0
   -3.5591   -3.0406   -0.0383 H   0  0  0  0  0  0  0  0  0  0  0  0
   -1.7921   -2.2226    0.8327 C   0  0  0  0  0  0  0  0  0  0  0  0
   -0.7611   -2.7766    1.1927 O   0  0  0  0  0  0  0  0  0  0  0  0
   -1.8201   -0.9926    0.3247 N   0  0  0  0  0  0  0  0  0  0  0  0
   -2.7141   -0.5816    0.0927 H   0  0  0  0  0  0  0  0  0  0  0  0
   -0.6481   -0.1156    0.2017 C   0  0  1  0  0  0  0  0  0  0  0  0
    0.1344   -0.4988    0.8596 H   0  0  0  0  0  0  0  0  0  0  0  0
   -0.1211   -0.1520   -1.2460 C   0  0  0  0  0  0  0  0  0  0  0  0
   -0.9006    0.1842   -1.9313 H   0  0  0  0  0  0  0  0  0  0  0  0
    0.7232    0.5312   -1.3486 H   0  0  0  0  0  0  0  0  0  0  0  0
    0.2955   -1.5349   -1.6841 C   0  0  0  0  0  0  0  0  0  0  0  0
    1.0708   -1.8388   -2.8039 N   0  0  0  0  0  0  0  0  0  0  0  0
    1.2385   -3.1692   -2.7870 C   0  0  0  0  0  0  0  0  0  0  0  0
    1.7893   -3.7268   -3.5339 H   0  0  0  0  0  0  0  0  0  0  0  0
    0.6362   -3.7045   -1.7117 N   0  0  0  0  0  0  0  0  0  0  0  0
    0.6372   -4.6852   -1.4669 H   0  0  0  0  0  0  0  0  0  0  0  0
    0.0387   -2.6875   -1.0009 C   0  0  0  0  0  0  0  0  0  0  0  0
   -0.5111   -2.7649   -0.0713 H   0  0  0  0  0  0  0  0  0  0  0  0
   -0.9851    1.3114    0.6698 C   0  0  0  0  0  0  0  0  0  0  0  0
   -2.0377    1.8431    0.3168 O   0  0  0  0  0  0  0  0  0  0  0  0
   -0.1052    1.9265    1.4663 N   0  0  0  0  0  0  0  0  0  0  0  0
    0.7810    1.4586    1.6201 H   0  0  0  0  0  0  0  0  0  0  0  0
   -0.2724    3.2715    2.0119 C   0  0  0  0  0  0  0  0  0  0  0  0
   -1.3249    3.4549    2.2426 H   0  0  0  0  0  0  0  0  0  0  0  0
    0.3167    3.3776    2.9239 H   0  0  0  0  0  0  0  0  0  0  0  0
    0.0609    4.0073    1.2782 H   0  0  0  0  0  0  0  0  0  0  0  0
  5  6  2  0  0  0  0
  5  7  1  0  0  0  0
  2  3  1  0  0  0  0
  2  4  1  0  0  0  0
  2  5  1  0  0  0  0
  1  2  1  0  0  0  0
 22 23  2  0  0  0  0
 22 24  1  0  0  0  0
 20 21  1  0  0  0  0
 18 19  1  0  0  0  0
 18 20  1  0  0  0  0
 16 17  1  0  0  0  0
 16 18  1  0  0  0  0
 15 16  2  0  0  0  0
 14 15  1  0  0  0  0
 14 20  2  0  0  0  0
 11 12  1  0  0  0  0
 11 13  1  0  0  0  0
 11 14  1  0  0  0  0
  9 10  1  0  0  0  0
  9 11  1  0  0  0  0
  9 22  1  0  0  0  0
  7  8  1  0  0  0  0
  7  9  1  0  0  0  0
 26 27  1  0  0  0  0
 26 28  1  0  0  0  0
 26 29  1  0  0  0  0
 24 25  1  0  0  0  0
 24 26  1  0  0  0  0
M  END
$$$$
default_name
  -OEChem-02102213163D

 29 29  0     1  0  0  0  0  0999 V2000
   -2.9561   -3.9186    1.3887 H   0  0  0  0  0  0  0  0  0  0  0  0
   -3.1191   -2.9346    0.9517 C   0  0  0  0  0  0  0  0  0  0  0  0
   -3.7811   -2.3546    1.5917 H   0  0  0  0  0  0  0  0  0  0  0  0
   -3.5591   -3.0406   -0.0383 H   0  0  0  0  0  0  0  0  0  0  0  0
   -1.7921   -2.2226    0.8327 C   0  0  0  0  0  0  0  0  0  0  0  0
   -0.7611   -2.7766    1.1927 O   0  0  0  0  0  0  0  0  0  0  0  0
   -1.8201   -0.9926    0.3247 N   0  0  0  0  0  0  0  0  0  0  0  0
   -2.7141   -0.5816    0.0927 H   0  0  0  0  0  0  0  0  0  0  0  0
   -0.6481   -0.1156    0.2017 C   0  0  1  0  0  0  0  0  0  0  0  0
    0.1344   -0.4988    0.8596 H   0  0  0  0  0  0  0  0  0  0  0  0
   -0.1211   -0.1520   -1.2460 C   0  0  0  0  0  0  0  0  0  0  0  0
   -0.9006    0.1842   -1.9313 H   0  0  0  0  0  0  0  0  0  0  0  0
    0.7232    0.5312   -1.3486 H   0  0  0  0  0  0  0  0  0  0  0  0
    0.2955   -1.5349   -1.6841 C   0  0  0  0  0  0  0  0  0  0  0  0
    1.2948   -1.8322   -2.6117 N   0  0  0  0  0  0  0  0  0  0  0  0
    1.3647   -3.1704   -2.6631 C   0  0  0  0  0  0  0  0  0  0  0  0
    2.0403   -3.7245   -3.3025 H   0  0  0  0  0  0  0  0  0  0  0  0
    0.4879   -3.7194   -1.8057 N   0  0  0  0  0  0  0  0  0  0  0  0
    0.3648   -4.7102   -1.6472 H   0  0  0  0  0  0  0  0  0  0  0  0
   -0.1938   -2.7023   -1.1752 C   0  0  0  0  0  0  0  0  0  0  0  0
   -0.9543   -2.7913   -0.4097 H   0  0  0  0  0  0  0  0  0  0  0  0
   -0.9851    1.3114    0.6698 C   0  0  0  0  0  0  0  0  0  0  0  0
   -2.0377    1.8431    0.3168 O   0  0  0  0  0  0  0  0  0  0  0  0
   -0.1052    1.9265    1.4663 N   0  0  0  0  0  0  0  0  0  0  0  0
    0.7810    1.4586    1.6201 H   0  0  0  0  0  0  0  0  0  0  0  0
   -0.2724    3.2715    2.0119 C   0  0  0  0  0  0  0  0  0  0  0  0
   -1.3249    3.4549    2.2426 H   0  0  0  0  0  0  0  0  0  0  0  0
    0.3167    3.3776    2.9239 H   0  0  0  0  0  0  0  0  0  0  0  0
    0.0609    4.0073    1.2782 H   0  0  0  0  0  0  0  0  0  0  0  0
  5  6  2  0  0  0  0
  5  7  1  0  0  0  0
  2  3  1  0  0  0  0
  2  4  1  0  0  0  0
  2  5  1  0  0  0  0
  1  2  1  0  0  0  0
 22 23  2  0  0  0  0
 22 24  1  0  0  0  0
 20 21  1  0  0  0  0
 18 19  1  0  0  0  0
 18 20  1  0  0  0  0
 16 17  1  0  0  0  0
 16 18  1  0  0  0  0
 15 16  2  0  0  0  0
 14 15  1  0  0  0  0
 14 20  2  0  0  0  0
 11 12  1  0  0  0  0
 11 13  1  0  0  0  0
 11 14  1  0  0  0  0
  9 10  1  0  0  0  0
  9 11  1  0  0  0  0
  9 22  1  0  0  0  0
  7  8  1  0  0  0  0
  7  9  1  0  0  0  0
 26 27  1  0  0  0  0
 26 28  1  0  0  0  0
 26 29  1  0  0  0  0
 24 25  1  0  0  0  0
 24 26  1  0  0  0  0
M  END
$$$$
default_name
  -OEChem-02102213163D

 29 29  0     1  0  0  0  0  0999 V2000
   -2.9561   -3.9186    1.3887 H   0  0  0  0  0  0  0  0  0  0  0  0
   -3.1191   -2.9346    0.9517 C   0  0  0  0  0  0  0  0  0  0  0  0
   -3.7811   -2.3546    1.5917 H   0  0  0  0  0  0  0  0  0  0  0  0
   -3.5591   -3.0406   -0.0383 H   0  0  0  0  0  0  0  0  0  0  0  0
   -1.7921   -2.2226    0.8327 C   0  0  0  0  0  0  0  0  0  0  0  0
   -0.7611   -2.7766    1.1927 O   0  0  0  0  0  0  0  0  0  0  0  0
   -1.8201   -0.9926    0.3247 N   0  0  0  0  0  0  0  0  0  0  0  0
   -2.7141   -0.5816    0.0927 H   0  0  0  0  0  0  0  0  0  0  0  0
   -0.6481   -0.1156    0.2017 C   0  0  1  0  0  0  0  0  0  0  0  0
    0.1344   -0.4988    0.8596 H   0  0  0  0  0  0  0  0  0  0  0  0
   -0.1211   -0.1520   -1.2460 C   0  0  0  0  0  0  0  0  0  0  0  0
   -0.9006    0.1842   -1.9313 H   0  0  0  0  0  0  0  0  0  0  0  0
    0.7232    0.5312   -1.3486 H   0  0  0  0  0  0  0  0  0  0  0  0
    0.2955   -1.5349   -1.6841 C   0  0  0  0  0  0  0  0  0  0  0  0
    1.4661   -1.8564   -2.3725 N   0  0  0  0  0  0  0  0  0  0  0  0
    1.4571   -3.1900   -2.5136 C   0  0  0  0  0  0  0  0  0  0  0  0
    2.2279   -3.7577   -3.0193 H   0  0  0  0  0  0  0  0  0  0  0  0
    0.3657   -3.7160   -1.9327 N   0  0  0  0  0  0  0  0  0  0  0  0
    0.1426   -4.7009   -1.8877 H   0  0  0  0  0  0  0  0  0  0  0  0
   -0.3781   -2.6867   -1.3998 C   0  0  0  0  0  0  0  0  0  0  0  0
   -1.3042   -2.7592   -0.8437 H   0  0  0  0  0  0  0  0  0  0  0  0
   -0.9851    1.3114    0.6698 C   0  0  0  0  0  0  0  0  0  0  0  0
   -2.0377    1.8431    0.3168 O   0  0  0  0  0  0  0  0  0  0  0  0
   -0.1052    1.9265    1.4663 N   0  0  0  0  0  0  0  0  0  0  0  0
    0.7810    1.4586    1.6201 H   0  0  0  0  0  0  0  0  0  0  0  0
   -0.2724    3.2715    2.0119 C   0  0  0  0  0  0  0  0  0  0  0  0
   -1.3249    3.4549    2.2426 H   0  0  0  0  0  0  0  0  0  0  0  0
    0.3167    3.3776    2.9239 H   0  0  0  0  0  0  0  0  0  0  0  0
    0.0609    4.0073    1.2782 H   0  0  0  0  0  0  0  0  0  0  0  0
  5  6  2  0  0  0  0
  5  7  1  0  0  0  0
  2  3  1  0  0  0  0
  2  4  1  0  0  0  0
  2  5  1  0  0  0  0
  1  2  1  0  0  0  0
 22 23  2  0  0  0  0
 22 24  1  0  0  0  0
 20 21  1  0  0  0  0
 18 19  1  0  0  0  0
 18 20  1  0  0  0  0
 16 17  1  0  0  0  0
 16 18  1  0  0  0  0
 15 16  2  0  0  0  0
 14 15  1  0  0  0  0
 14 20  2  0  0  0  0
 11 12  1  0  0  0  0
 11 13  1  0  0  0  0
 11 14  1  0  0  0  0
  9 10  1  0  0  0  0
  9 11  1  0  0  0  0
  9 22  1  0  0  0  0
  7  8  1  0  0  0  0
  7  9  1  0  0  0  0
 26 27  1  0  0  0  0
 26 28  1  0  0  0  0
 26 29  1  0  0  0  0
 24 25  1  0  0  0  0
 24 26  1  0  0  0  0
M  END
$$$$
default_name
  -OEChem-02102213163D

 29 29  0     1  0  0  0  0  0999 V2000
   -2.9561   -3.9186    1.3887 H   0  0  0  0  0  0  0  0  0  0  0  0
   -3.1191   -2.9346    0.9517 C   0  0  0  0  0  0  0  0  0  0  0  0
   -3.7811   -2.3546    1.5917 H   0  0  0  0  0  0  0  0  0  0  0  0
   -3.5591   -3.0406   -0.0383 H   0  0  0  0  0  0  0  0  0  0  0  0
   -1.7921   -2.2226    0.8327 C   0  0  0  0  0  0  0  0  0  0  0  0
   -0.7611   -2.7766    1.1927 O   0  0  0  0  0  0  0  0  0  0  0  0
   -1.8201   -0.9926    0.3247 N   0  0  0  0  0  0  0  0  0  0  0  0
   -2.7141   -0.5816    0.0927 H   0  0  0  0  0  0  0  0  0  0  0  0
   -0.6481   -0.1156    0.2017 C   0  0  1  0  0  0  0  0  0  0  0  0
    0.1344   -0.4988    0.8596 H   0  0  0  0  0  0  0  0  0  0  0  0
   -0.1211   -0.1520   -1.2460 C   0  0  0  0  0  0  0  0  0  0  0  0
   -0.9006    0.1842   -1.9313 H   0  0  0  0  0  0  0  0  0  0  0  0
    0.7232    0.5312   -1.3486 H   0  0  0  0  0  0  0  0  0  0  0  0
    0.2955   -1.5349   -1.6841 C   0  0  0  0  0  0  0  0  0  0  0  0
    1.5730   -1.9097   -2.1025 N   0  0  0  0  0  0  0  0  0  0  0  0
    1.5094   -3.2264   -2.3487 C   0  0  0  0  0  0  0  0  0  0  0  0
    2.3396   -3.8241   -2.7036 H   0  0  0  0  0  0  0  0  0  0  0  0
    0.2780   -3.6945   -2.0841 N   0  0  0  0  0  0  0  0  0  0  0  0
   -0.0143   -4.6581   -2.1721 H   0  0  0  0  0  0  0  0  0  0  0  0
   -0.5017   -2.6418   -1.6593 C   0  0  0  0  0  0  0  0  0  0  0  0
   -1.5369   -2.6710   -1.3435 H   0  0  0  0  0  0  0  0  0  0  0  0
   -0.9851    1.3114    0.6698 C   0  0  0  0  0  0  0  0  0  0  0  0
   -2.0377    1.8431    0.3168 O   0  0  0  0  0  0  0  0  0  0  0  0
   -0.1052    1.9265    1.4663 N   0  0  0  0  0  0  0  0  0  0  0  0
    0.7810    1.4586    1.6201 H   0  0  0  0  0  0  0  0  0  0  0  0
   -0.2724    3.2715    2.0119 C   0  0  0  0  0  0  0  0  0  0  0  0
   -1.3249    3.4549    2.2426 H   0  0  0  0  0  0  0  0  0  0  0  0
    0.3167    3.3776    2.9239 H   0  0  0  0  0  0  0  0  0  0  0  0
    0.0609    4.0073    1.2782 H   0  0  0  0  0  0  0  0  0  0  0  0
  5  6  2  0  0  0  0
  5  7  1  0  0  0  0
  2  3  1  0  0  0  0
  2  4  1  0  0  0  0
  2  5  1  0  0  0  0
  1  2  1  0  0  0  0
 22 23  2  0  0  0  0
 22 24  1  0  0  0  0
 20 21  1  0  0  0  0
 18 19  1  0  0  0  0
 18 20  1  0  0  0  0
 16 17  1  0  0  0  0
 16 18  1  0  0  0  0
 15 16  2  0  0  0  0
 14 15  1  0  0  0  0
 14 20  2  0  0  0  0
 11 12  1  0  0  0  0
 11 13  1  0  0  0  0
 11 14  1  0  0  0  0
  9 10  1  0  0  0  0
  9 11  1  0  0  0  0
  9 22  1  0  0  0  0
  7  8  1  0  0  0  0
  7  9  1  0  0  0  0
 26 27  1  0  0  0  0
 26 28  1  0  0  0  0
 26 29  1  0  0  0  0
 24 25  1  0  0  0  0
 24 26  1  0  0  0  0
M  END
$$$$
default_name
  -OEChem-02102213163D

 29 29  0     1  0  0  0  0  0999 V2000
   -2.9561   -3.9186    1.3887 H   0  0  0  0  0  0  0  0  0  0  0  0
   -3.1191   -2.9346    0.9517 C   0  0  0  0  0  0  0  0  0  0  0  0
   -3.7811   -2.3546    1.5917 H   0  0  0  0  0  0  0  0  0  0  0  0
   -3.5591   -3.0406   -0.0383 H   0  0  0  0  0  0  0  0  0  0  0  0
   -1.7921   -2.2226    0.8327 C   0  0  0  0  0  0  0  0  0  0  0  0
   -0.7611   -2.7766    1.1927 O   0  0  0  0  0  0  0  0  0  0  0  0
   -1.8201   -0.9926    0.3247 N   0  0  0  0  0  0  0  0  0  0  0  0
   -2.7141   -0.5816    0.0927 H   0  0  0  0  0  0  0  0  0  0  0  0
   -0.6481   -0.1156    0.2017 C   0  0  1  0  0  0  0  0  0  0  0  0
    0.1344   -0.4988    0.8596 H   0  0  0  0  0  0  0  0  0  0  0  0
   -0.1211   -0.1520   -1.2460 C   0  0  0  0  0  0  0  0  0  0  0  0
   -0.9006    0.1842   -1.9313 H   0  0  0  0  0  0  0  0  0  0  0  0
    0.7232    0.5312   -1.3486 H   0  0  0  0  0  0  0  0  0  0  0  0
    0.2955   -1.5349   -1.6841 C   0  0  0  0  0  0  0  0  0  0  0  0
    1.6082   -1.9886   -1.8202 N   0  0  0  0  0  0  0  0  0  0  0  0
    1.5181   -3.2774   -2.1795 C   0  0  0  0  0  0  0  0  0  0  0  0
    2.3675   -3.9191   -2.3769 H   0  0  0  0  0  0  0  0  0  0  0  0
    0.2309   -3.6562   -2.2495 N   0  0  0  0  0  0  0  0  0  0  0  0
   -0.0952   -4.5847   -2.4809 H   0  0  0  0  0  0  0  0  0  0  0  0
   -0.5561   -2.5705   -1.9361 C   0  0  0  0  0  0  0  0  0  0  0  0
   -1.6365   -2.5326   -1.8751 H   0  0  0  0  0  0  0  0  0  0  0  0
   -0.9851    1.3114    0.6698 C   0  0  0  0  0  0  0  0  0  0  0  0
   -2.0377    1.8431    0.3168 O   0  0  0  0  0  0  0  0  0  0  0  0
   -0.1052    1.9265    1.4663 N   0  0  0  0  0  0  0  0  0  0  0  0
    0.7810    1.4586    1.6201 H   0  0  0  0  0  0  0  0  0  0  0  0
   -0.2724    3.2715    2.0119 C   0  0  0  0  0  0  0  0  0  0  0  0
   -1.3249    3.4549    2.2426 H   0  0  0  0  0  0  0  0  0  0  0  0
    0.3167    3.3776    2.9239 H   0  0  0  0  0  0  0  0  0  0  0  0
    0.0609    4.0073    1.2782 H   0  0  0  0  0  0  0  0  0  0  0  0
  5  6  2  0  0  0  0
  5  7  1  0  0  0  0
  2  3  1  0  0  0  0
  2  4  1  0  0  0  0
  2  5  1  0  0  0  0
  1  2  1  0  0  0  0
 22 23  2  0  0  0  0
 22 24  1  0  0  0  0
 20 21  1  0  0  0  0
 18 19  1  0  0  0  0
 18 20  1  0  0  0  0
 16 17  1  0  0  0  0
 16 18  1  0  0  0  0
 15 16  2  0  0  0  0
 14 15  1  0  0  0  0
 14 20  2  0  0  0  0
 11 12  1  0  0  0  0
 11 13  1  0  0  0  0
 11 14  1  0  0  0  0
  9 10  1  0  0  0  0
  9 11  1  0  0  0  0
  9 22  1  0  0  0  0
  7  8  1  0  0  0  0
  7  9  1  0  0  0  0
 26 27  1  0  0  0  0
 26 28  1  0  0  0  0
 26 29  1  0  0  0  0
 24 25  1  0  0  0  0
 24 26  1  0  0  0  0
M  END
$$$$
default_name
  -OEChem-02102213163D

 29 29  0     1  0  0  0  0  0999 V2000
   -2.9561   -3.9186    1.3887 H   0  0  0  0  0  0  0  0  0  0  0  0
   -3.1191   -2.9346    0.9517 C   0  0  0  0  0  0  0  0  0  0  0  0
   -3.7811   -2.3546    1.5917 H   0  0  0  0  0  0  0  0  0  0  0  0
   -3.5591   -3.0406   -0.0383 H   0  0  0  0  0  0  0  0  0  0  0  0
   -1.7921   -2.2226    0.8327 C   0  0  0  0  0  0  0  0  0  0  0  0
   -0.7611   -2.7766    1.1927 O   0  0  0  0  0  0  0  0  0  0  0  0
   -1.8201   -0.9926    0.3247 N   0  0  0  0  0  0  0  0  0  0  0  0
   -2.7141   -0.5816    0.0927 H   0  0  0  0  0  0  0  0  0  0  0  0
   -0.6481   -0.1156    0.2017 C   0  0  1  0  0  0  0  0  0  0  0  0
    0.1344   -0.4988    0.8596 H   0  0  0  0  0  0  0  0  0  0  0  0
   -0.1211   -0.1520   -1.2460 C   0  0  0  0  0  0  0  0  0  0  0  0
   -0.9006    0.1842   -1.9313 H   0  0  0  0  0  0  0  0  0  0  0  0
    0.7232    0.5312   -1.3486 H   0  0  0  0  0  0  0  0  0  0  0  0
    0.2955   -1.5349   -1.6841 C   0  0  0  0  0  0  0  0  0  0  0  0
    1.5693   -2.0875   -1.5447 N   0  0  0  0  0  0  0  0  0  0  0  0
    1.4826   -3.3393   -2.0178 C   0  0  0  0  0  0  0  0  0  0  0  0
    2.3099   -4.0364   -2.0615 H   0  0  0  0  0  0  0  0  0  0  0  0
    0.2275   -3.6039   -2.4178 N   0  0  0  0  0  0  0  0  0  0  0  0
   -0.0946   -4.4856   -2.7932 H   0  0  0  0  0  0  0  0  0  0  0  0
   -0.5378   -2.4778   -2.2112 C   0  0  0  0  0  0  0  0  0  0  0  0
   -1.5962   -2.3534   -2.4024 H   0  0  0  0  0  0  0  0  0  0  0  0
   -0.9851    1.3114    0.6698 C   0  0  0  0  0  0  0  0  0  0  0  0
   -2.0377    1.8431    0.3168 O   0  0  0  0  0  0  0  0  0  0  0  0
   -0.1052    1.9265    1.4663 N   0  0  0  0  0  0  0  0  0  0  0  0
    0.7810    1.4586    1.6201 H   0  0  0  0  0  0  0  0  0  0  0  0
   -0.2724    3.2715    2.0119 C   0  0  0  0  0  0  0  0  0  0  0  0
   -1.3249    3.4549    2.2426 H   0  0  0  0  0  0  0  0  0  0  0  0
    0.3167    3.3776    2.9239 H   0  0  0  0  0  0  0  0  0  0  0  0
    0.0609    4.0073    1.2782 H   0  0  0  0  0  0  0  0  0  0  0  0
  5  6  2  0  0  0  0
  5  7  1  0  0  0  0
  2  3  1  0  0  0  0
  2  4  1  0  0  0  0
  2  5  1  0  0  0  0
  1  2  1  0  0  0  0
 22 23  2  0  0  0  0
 22 24  1  0  0  0  0
 20 21  1  0  0  0  0
 18 19  1  0  0  0  0
 18 20  1  0  0  0  0
 16 17  1  0  0  0  0
 16 18  1  0  0  0  0
 15 16  2  0  0  0  0
 14 15  1  0  0  0  0
 14 20  2  0  0  0  0
 11 12  1  0  0  0  0
 11 13  1  0  0  0  0
 11 14  1  0  0  0  0
  9 10  1  0  0  0  0
  9 11  1  0  0  0  0
  9 22  1  0  0  0  0
  7  8  1  0  0  0  0
  7  9  1  0  0  0  0
 26 27  1  0  0  0  0
 26 28  1  0  0  0  0
 26 29  1  0  0  0  0
 24 25  1  0  0  0  0
 24 26  1  0  0  0  0
M  END
$$$$
default_name
  -OEChem-02102213163D

 29 29  0     1  0  0  0  0  0999 V2000
   -2.9561   -3.9186    1.3887 H   0  0  0  0  0  0  0  0  0  0  0  0
   -3.1191   -2.9346    0.9517 C   0  0  0  0  0  0  0  0  0  0  0  0
   -3.7811   -2.3546    1.5917 H   0  0  0  0  0  0  0  0  0  0  0  0
   -3.5591   -3.0406   -0.0383 H   0  0  0  0  0  0  0  0  0  0  0  0
   -1.7921   -2.2226    0.8327 C   0  0  0  0  0  0  0  0  0  0  0  0
   -0.7611   -2.7766    1.1927 O   0  0  0  0  0  0  0  0  0  0  0  0
   -1.8201   -0.9926    0.3247 N   0  0  0  0  0  0  0  0  0  0  0  0
   -2.7141   -0.5816    0.0927 H   0  0  0  0  0  0  0  0  0  0  0  0
   -0.6481   -0.1156    0.2017 C   0  0  1  0  0  0  0  0  0  0  0  0
    0.1344   -0.4988    0.8596 H   0  0  0  0  0  0  0  0  0  0  0  0
   -0.1211   -0.1520   -1.2460 C   0  0  0  0  0  0  0  0  0  0  0  0
   -0.9006    0.1842   -1.9313 H   0  0  0  0  0  0  0  0  0  0  0  0
    0.7232    0.5312   -1.3486 H   0  0  0  0  0  0  0  0  0  0  0  0
    0.2955   -1.5349   -1.6841 C   0  0  0  0  0  0  0  0  0  0  0  0
    1.4591   -2.1999   -1.2950 N   0  0  0  0  0  0  0  0  0  0  0  0
    1.4052   -3.4081   -1.8744 C   0  0  0  0  0  0  0  0  0  0  0  0
    2.1707   -4.1679   -1.7789 H   0  0  0  0  0  0  0  0  0  0  0  0
    0.2680   -3.5412   -2.5774 N   0  0  0  0  0  0  0  0  0  0  0  0
   -0.0125   -4.3676   -3.0876 H   0  0  0  0  0  0  0  0  0  0  0  0
   -0.4478   -2.3700   -2.4660 C   0  0  0  0  0  0  0  0  0  0  0  0
   -1.4188   -2.1457   -2.8893 H   0  0  0  0  0  0  0  0  0  0  0  0
   -0.9851    1.3114    0.6698 C   0  0  0  0  0  0  0  0  0  0  0  0
   -2.0377    1.8431    0.3168 O   0  0  0  0  0  0  0  0  0  0  0  0
   -0.1052    1.9265    1.4663 N   0  0  0  0  0  0  0  0  0  0  0  0
    0.7810    1.4586    1.6201 H   0  0  0  0  0  0  0  0  0  0  0  0
   -0.2724    3.2715    2.0119 C   0  0  0  0  0  0  0  0  0  0  0  0
   -1.3249    3.4549    2.2426 H   0  0  0  0  0  0  0  0  0  0  0  0
    0.3167    3.3776    2.9239 H   0  0  0  0  0  0  0  0  0  0  0  0
    0.0609    4.0073    1.2782 H   0  0  0  0  0  0  0  0  0  0  0  0
  5  6  2  0  0  0  0
  5  7  1  0  0  0  0
  2  3  1  0  0  0  0
  2  4  1  0  0  0  0
  2  5  1  0  0  0  0
  1  2  1  0  0  0  0
 22 23  2  0  0  0  0
 22 24  1  0  0  0  0
 20 21  1  0  0  0  0
 18 19  1  0  0  0  0
 18 20  1  0  0  0  0
 16 17  1  0  0  0  0
 16 18  1  0  0  0  0
 15 16  2  0  0  0  0
 14 15  1  0  0  0  0
 14 20  2  0  0  0  0
 11 12  1  0  0  0  0
 11 13  1  0  0  0  0
 11 14  1  0  0  0  0
  9 10  1  0  0  0  0
  9 11  1  0  0  0  0
  9 22  1  0  0  0  0
  7  8  1  0  0  0  0
  7  9  1  0  0  0  0
 26 27  1  0  0  0  0
 26 28  1  0  0  0  0
 26 29  1  0  0  0  0
 24 25  1  0  0  0  0
 24 26  1  0  0  0  0
M  END
$$$$
default_name
  -OEChem-02102213163D

 29 29  0     1  0  0  0  0  0999 V2000
   -2.9561   -3.9186    1.3887 H   0  0  0  0  0  0  0  0  0  0  0  0
   -3.1191   -2.9346    0.9517 C   0  0  0  0  0  0  0  0  0  0  0  0
   -3.7811   -2.3546    1.5917 H   0  0  0  0  0  0  0  0  0  0  0  0
   -3.5591   -3.0406   -0.0383 H   0  0  0  0  0  0  0  0  0  0  0  0
   -1.7921   -2.2226    0.8327 C   0  0  0  0  0  0  0  0  0  0  0  0
   -0.7611   -2.7766    1.1927 O   0  0  0  0  0  0  0  0  0  0  0  0
   -1.8201   -0.9926    0.3247 N   0  0  0  0  0  0  0  0  0  0  0  0
   -2.7141   -0.5816    0.0927 H   0  0  0  0  0  0  0  0  0  0  0  0
   -0.6481   -0.1156    0.2017 C   0  0  1  0  0  0  0  0  0  0  0  0
    0.1344   -0.4988    0.8596 H   0  0  0  0  0  0  0  0  0  0  0  0
   -0.1211   -0.1520   -1.2460 C   0  0  0  0  0  0  0  0  0  0  0  0
   -0.9006    0.1842   -1.9313 H   0  0  0  0  0  0  0  0  0  0  0  0
    0.7232    0.5312   -1.3486 H   0  0  0  0  0  0  0  0  0  0  0  0
    0.2955   -1.5349   -1.6841 C   0  0  0  0  0  0  0  0  0  0  0  0
    1.2849   -2.3180   -1.0879 N   0  0  0  0  0  0  0  0  0  0  0  0
    1.2914   -3.4789   -1.7591 C   0  0  0  0  0  0  0  0  0  0  0  0
    1.9593   -4.3046   -1.5483 H   0  0  0  0  0  0  0  0  0  0  0  0
    0.3498   -3.4722   -2.7175 N   0  0  0  0  0  0  0  0  0  0  0  0
    0.1454   -4.2387   -3.3440 H   0  0  0  0  0  0  0  0  0  0  0  0
   -0.2924   -2.2544   -2.6831 C   0  0  0  0  0  0  0  0  0  0  0  0
   -1.1164   -1.9236   -3.3027 H   0  0  0  0  0  0  0  0  0  0  0  0
   -0.9851    1.3114    0.6698 C   0  0  0  0  0  0  0  0  0  0  0  0
   -2.0377    1.8431    0.3168 O   0  0  0  0  0  0  0  0  0  0  0  0
   -0.1052    1.9265    1.4663 N   0  0  0  0  0  0  0  0  0  0  0  0
    0.7810    1.4586    1.6201 H   0  0  0  0  0  0  0  0  0  0  0  0
   -0.2724    3.2715    2.0119 C   0  0  0  0  0  0  0  0  0  0  0  0
   -1.3249    3.4549    2.2426 H   0  0  0  0  0  0  0  0  0  0  0  0
    0.3167    3.3776    2.9239 H   0  0  0  0  0  0  0  0  0  0  0  0
    0.0609    4.0073    1.2782 H   0  0  0  0  0  0  0  0  0  0  0  0
  5  6  2  0  0  0  0
  5  7  1  0  0  0  0
  2  3  1  0  0  0  0
  2  4  1  0  0  0  0
  2  5  1  0  0  0  0
  1  2  1  0  0  0  0
 22 23  2  0  0  0  0
 22 24  1  0  0  0  0
 20 21  1  0  0  0  0
 18 19  1  0  0  0  0
 18 20  1  0  0  0  0
 16 17  1  0  0  0  0
 16 18  1  0  0  0  0
 15 16  2  0  0  0  0
 14 15  1  0  0  0  0
 14 20  2  0  0  0  0
 11 12  1  0  0  0  0
 11 13  1  0  0  0  0
 11 14  1  0  0  0  0
  9 10  1  0  0  0  0
  9 11  1  0  0  0  0
  9 22  1  0  0  0  0
  7  8  1  0  0  0  0
  7  9  1  0  0  0  0
 26 27  1  0  0  0  0
 26 28  1  0  0  0  0
 26 29  1  0  0  0  0
 24 25  1  0  0  0  0
 24 26  1  0  0  0  0
M  END
$$$$
default_name
  -OEChem-02102213163D

 29 29  0     1  0  0  0  0  0999 V2000
   -2.9561   -3.9186    1.3887 H   0  0  0  0  0  0  0  0  0  0  0  0
   -3.1191   -2.9346    0.9517 C   0  0  0  0  0  0  0  0  0  0  0  0
   -3.7811   -2.3546    1.5917 H   0  0  0  0  0  0  0  0  0  0  0  0
   -3.5591   -3.0406   -0.0383 H   0  0  0  0  0  0  0  0  0  0  0  0
   -1.7921   -2.2226    0.8327 C   0  0  0  0  0  0  0  0  0  0  0  0
   -0.7611   -2.7766    1.1927 O   0  0  0  0  0  0  0  0  0  0  0  0
   -1.8201   -0.9926    0.3247 N   0  0  0  0  0  0  0  0  0  0  0  0
   -2.7141   -0.5816    0.0927 H   0  0  0  0  0  0  0  0  0  0  0  0
   -0.6481   -0.1156    0.2017 C   0  0  1  0  0  0  0  0  0  0  0  0
    0.1344   -0.4988    0.8596 H   0  0  0  0  0  0  0  0  0  0  0  0
   -0.1211   -0.1520   -1.2460 C   0  0  0  0  0  0  0  0  0  0  0  0
   -0.9006    0.1842   -1.9313 H   0  0  0  0  0  0  0  0  0  0  0  0
    0.7232    0.5312   -1.3486 H   0  0  0  0  0  0  0  0  0  0  0  0
    0.2955   -1.5349   -1.6841 C   0  0  0  0  0  0  0  0  0  0  0  0
    1.0586   -2.4337   -0.9376 N   0  0  0  0  0  0  0  0  0  0  0  0
    1.1487   -3.5470   -1.6798 C   0  0  0  0  0  0  0  0  0  0  0  0
    1.6901   -4.4372   -1.3856 H   0  0  0  0  0  0  0  0  0  0  0  0
    0.4671   -3.4016   -2.8285 N   0  0  0  0  0  0  0  0  0  0  0  0
    0.3685   -4.1078   -3.5451 H   0  0  0  0  0  0  0  0  0  0  0  0
   -0.0821   -2.1389   -2.8476 C   0  0  0  0  0  0  0  0  0  0  0  0
   -0.7095   -1.7023   -3.6145 H   0  0  0  0  0  0  0  0  0  0  0  0
   -0.9851    1.3114    0.6698 C   0  0  0  0  0  0  0  0  0  0  0  0
   -2.0377    1.8431    0.3168 O   0  0  0  0  0  0  0  0  0  0  0  0
   -0.1052    1.9265    1.4663 N   0  0  0  0  0  0  0  0  0  0  0  0
    0.7810    1.4586    1.6201 H   0  0  0  0  0  0  0  0  0  0  0  0
   -0.2724    3.2715    2.0119 C   0  0  0  0  0  0  0  0  0  0  0  0
   -1.3249    3.4549    2.2426 H   0  0  0  0  0  0  0  0  0  0  0  0
    0.3167    3.3776    2.9239 H   0  0  0  0  0  0  0  0  0  0  0  0
    0.0609    4.0073    1.2782 H   0  0  0  0  0  0  0  0  0  0  0  0
  5  6  2  0  0  0  0
  5  7  1  0  0  0  0
  2  3  1  0  0  0  0
  2  4  1  0  0  0  0
  2  5  1  0  0  0  0
  1  2  1  0  0  0  0
 22 23  2  0  0  0  0
 22 24  1  0  0  0  0
 20 21  1  0  0  0  0
 18 19  1  0  0  0  0
 18 20  1  0  0  0  0
 16 17  1  0  0  0  0
 16 18  1  0  0  0  0
 15 16  2  0  0  0  0
 14 15  1  0  0  0  0
 14 20  2  0  0  0  0
 11 12  1  0  0  0  0
 11 13  1  0  0  0  0
 11 14  1  0  0  0  0
  9 10  1  0  0  0  0
  9 11  1  0  0  0  0
  9 22  1  0  0  0  0
  7  8  1  0  0  0  0
  7  9  1  0  0  0  0
 26 27  1  0  0  0  0
 26 28  1  0  0  0  0
 26 29  1  0  0  0  0
 24 25  1  0  0  0  0
 24 26  1  0  0  0  0
M  END
$$$$
default_name
  -OEChem-02102213163D

 29 29  0     1  0  0  0  0  0999 V2000
   -2.9561   -3.9186    1.3887 H   0  0  0  0  0  0  0  0  0  0  0  0
   -3.1191   -2.9346    0.9517 C   0  0  0  0  0  0  0  0  0  0  0  0
   -3.7811   -2.3546    1.5917 H   0  0  0  0  0  0  0  0  0  0  0  0
   -3.5591   -3.0406   -0.0383 H   0  0  0  0  0  0  0  0  0  0  0  0
   -1.7921   -2.2226    0.8327 C   0  0  0  0  0  0  0  0  0  0  0  0
   -0.7611   -2.7766    1.1927 O   0  0  0  0  0  0  0  0  0  0  0  0
   -1.8201   -0.9926    0.3247 N   0  0  0  0  0  0  0  0  0  0  0  0
   -2.7141   -0.5816    0.0927 H   0  0  0  0  0  0  0  0  0  0  0  0
   -0.6481   -0.1156    0.2017 C   0  0  1  0  0  0  0  0  0  0  0  0
    0.1344   -0.4988    0.8596 H   0  0  0  0  0  0  0  0  0  0  0  0
   -0.1211   -0.1520   -1.2460 C   0  0  0  0  0  0  0  0  0  0  0  0
   -0.9006    0.1842   -1.9313 H   0  0  0  0  0  0  0  0  0  0  0  0
    0.7232    0.5312   -1.3486 H   0  0  0  0  0  0  0  0  0  0  0  0
    0.2955   -1.5349   -1.6841 C   0  0  0  0  0  0  0  0  0  0  0  0
    0.7958   -2.5393   -0.8544 N   0  0  0  0  0  0  0  0  0  0  0  0
    0.9870   -3.6077   -1.6419 C   0  0  0  0  0  0  0  0  0  0  0  0
    1.3816   -4.5568   -1.3016 H   0  0  0  0  0  0  0  0  0  0  0  0
    0.6121   -3.3344   -2.9029 N   0  0  0  0  0  0  0  0  0  0  0  0
    0.6415   -3.9838   -3.6770 H   0  0  0  0  0  0  0  0  0  0  0  0
    0.1688   -2.0314   -2.9485 C   0  0  0  0  0  0  0  0  0  0  0  0
   -0.2259   -1.4968   -3.8033 H   0  0  0  0  0  0  0  0  0  0  0  0
   -0.9851    1.3114    0.6698 C   0  0  0  0  0  0  0  0  0  0  0  0
   -2.0377    1.8431    0.3168 O   0  0  0  0  0  0  0  0  0  0  0  0
   -0.1052    1.9265    1.4663 N   0  0  0  0  0  0  0  0  0  0  0  0
    0.7810    1.4586    1.6201 H   0  0  0  0  0  0  0  0  0  0  0  0
   -0.2724    3.2715    2.0119 C   0  0  0  0  0  0  0  0  0  0  0  0
   -1.3249    3.4549    2.2426 H   0  0  0  0  0  0  0  0  0  0  0  0
    0.3167    3.3776    2.9239 H   0  0  0  0  0  0  0  0  0  0  0  0
    0.0609    4.0073    1.2782 H   0  0  0  0  0  0  0  0  0  0  0  0
  5  6  2  0  0  0  0
  5  7  1  0  0  0  0
  2  3  1  0  0  0  0
  2  4  1  0  0  0  0
  2  5  1  0  0  0  0
  1  2  1  0  0  0  0
 22 23  2  0  0  0  0
 22 24  1  0  0  0  0
 20 21  1  0  0  0  0
 18 19  1  0  0  0  0
 18 20  1  0  0  0  0
 16 17  1  0  0  0  0
 16 18  1  0  0  0  0
 15 16  2  0  0  0  0
 14 15  1  0  0  0  0
 14 20  2  0  0  0  0
 11 12  1  0  0  0  0
 11 13  1  0  0  0  0
 11 14  1  0  0  0  0
  9 10  1  0  0  0  0
  9 11  1  0  0  0  0
  9 22  1  0  0  0  0
  7  8  1  0  0  0  0
  7  9  1  0  0  0  0
 26 27  1  0  0  0  0
 26 28  1  0  0  0  0
 26 29  1  0  0  0  0
 24 25  1  0  0  0  0
 24 26  1  0  0  0  0
M  END
$$$$
default_name
  -OEChem-02102213163D

 29 29  0     1  0  0  0  0  0999 V2000
   -2.9561   -3.9186    1.3887 H   0  0  0  0  0  0  0  0  0  0  0  0
   -3.1191   -2.9346    0.9517 C   0  0  0  0  0  0  0  0  0  0  0  0
   -3.7811   -2.3546    1.5917 H   0  0  0  0  0  0  0  0  0  0  0  0
   -3.5591   -3.0406   -0.0383 H   0  0  0  0  0  0  0  0  0  0  0  0
   -1.7921   -2.2226    0.8327 C   0  0  0  0  0  0  0  0  0  0  0  0
   -0.7611   -2.7766    1.1927 O   0  0  0  0  0  0  0  0  0  0  0  0
   -1.8201   -0.9926    0.3247 N   0  0  0  0  0  0  0  0  0  0  0  0
   -2.7141   -0.5816    0.0927 H   0  0  0  0  0  0  0  0  0  0  0  0
   -0.6481   -0.1156    0.2017 C   0  0  1  0  0  0  0  0  0  0  0  0
    0.1344   -0.4988    0.8596 H   0  0  0  0  0  0  0  0  0  0  0  0
   -0.1211   -0.1520   -1.2460 C   0  0  0  0  0  0  0  0  0  0  0  0
   -0.9006    0.1842   -1.9313 H   0  0  0  0  0  0  0  0  0  0  0  0
    0.7232    0.5312   -1.3486 H   0  0  0  0  0  0  0  0  0  0  0  0
    0.2955   -1.5349   -1.6841 C   0  0  0  0  0  0  0  0  0  0  0  0
    0.5142   -2.6274   -0.8439 N   0  0  0  0  0  0  0  0  0  0  0  0
    0.8173   -3.6569   -1.6480 C   0  0  0  0  0  0  0  0  0  0  0  0
    1.0547   -4.6551   -1.3022 H   0  0  0  0  0  0  0  0  0  0  0  0
    0.7748   -3.2751   -2.9355 N   0  0  0  0  0  0  0  0  0  0  0  0
    0.9458   -3.8750   -3.7309 H   0  0  0  0  0  0  0  0  0  0  0  0
    0.4430   -1.9392   -2.9787 C   0  0  0  0  0  0  0  0  0  0  0  0
    0.3014   -1.3211   -3.8564 H   0  0  0  0  0  0  0  0  0  0  0  0
   -0.9851    1.3114    0.6698 C   0  0  0  0  0  0  0  0  0  0  0  0
   -2.0377    1.8431    0.3168 O   0  0  0  0  0  0  0  0  0  0  0  0
   -0.1052    1.9265    1.4663 N   0  0  0  0  0  0  0  0  0  0  0  0
    0.7810    1.4586    1.6201 H   0  0  0  0  0  0  0  0  0  0  0  0
   -0.2724    3.2715    2.0119 C   0  0  0  0  0  0  0  0  0  0  0  0
   -1.3249    3.4549    2.2426 H   0  0  0  0  0  0  0  0  0  0  0  0
    0.3167    3.3776    2.9239 H   0  0  0  0  0  0  0  0  0  0  0  0
    0.0609    4.0073    1.2782 H   0  0  0  0  0  0  0  0  0  0  0  0
  5  6  2  0  0  0  0
  5  7  1  0  0  0  0
  2  3  1  0  0  0  0
  2  4  1  0  0  0  0
  2  5  1  0  0  0  0
  1  2  1  0  0  0  0
 22 23  2  0  0  0  0
 22 24  1  0  0  0  0
 20 21  1  0  0  0  0
 18 19  1  0  0  0  0
 18 20  1  0  0  0  0
 16 17  1  0  0  0  0
 16 18  1  0  0  0  0
 15 16  2  0  0  0  0
 14 15  1  0  0  0  0
 14 20  2  0  0  0  0
 11 12  1  0  0  0  0
 11 13  1  0  0  0  0
 11 14  1  0  0  0  0
  9 10  1  0  0  0  0
  9 11  1  0  0  0  0
  9 22  1  0  0  0  0
  7  8  1  0  0  0  0
  7  9  1  0  0  0  0
 26 27  1  0  0  0  0
 26 28  1  0  0  0  0
 26 29  1  0  0  0  0
 24 25  1  0  0  0  0
 24 26  1  0  0  0  0
M  END
$$$$
default_name
  -OEChem-02102213163D

 29 29  0     1  0  0  0  0  0999 V2000
   -2.9561   -3.9186    1.3887 H   0  0  0  0  0  0  0  0  0  0  0  0
   -3.1191   -2.9346    0.9517 C   0  0  0  0  0  0  0  0  0  0  0  0
   -3.7811   -2.3546    1.5917 H   0  0  0  0  0  0  0  0  0  0  0  0
   -3.5591   -3.0406   -0.0383 H   0  0  0  0  0  0  0  0  0  0  0  0
   -1.7921   -2.2226    0.8327 C   0  0  0  0  0  0  0  0  0  0  0  0
   -0.7611   -2.7766    1.1927 O   0  0  0  0  0  0  0  0  0  0  0  0
   -1.8201   -0.9926    0.3247 N   0  0  0  0  0  0  0  0  0  0  0  0
   -2.7141   -0.5816    0.0927 H   0  0  0  0  0  0  0  0  0  0  0  0
   -0.6481   -0.1156    0.2017 C   0  0  1  0  0  0  0  0  0  0  0  0
    0.1344   -0.4988    0.8596 H   0  0  0  0  0  0  0  0  0  0  0  0
   -0.1211   -0.1520   -1.2460 C   0  0  0  0  0  0  0  0  0  0  0  0
   -0.9006    0.1842   -1.9313 H   0  0  0  0  0  0  0  0  0  0  0  0
    0.7232    0.5312   -1.3486 H   0  0  0  0  0  0  0  0  0  0  0  0
    0.2955   -1.5349   -1.6841 C   0  0  0  0  0  0  0  0  0  0  0  0
    0.2331   -2.6922   -0.9068 N   0  0  0  0  0  0  0  0  0  0  0  0
    0.6511   -3.6912   -1.6977 C   0  0  0  0  0  0  0  0  0  0  0  0
    0.7317   -4.7254   -1.3874 H   0  0  0  0  0  0  0  0  0  0  0  0
    0.9442   -3.2276   -2.9242 N   0  0  0  0  0  0  0  0  0  0  0  0
    1.2607   -3.7890   -3.7030 H   0  0  0  0  0  0  0  0  0  0  0  0
    0.7221   -1.8685   -2.9363 C   0  0  0  0  0  0  0  0  0  0  0  0
    0.8365   -1.1872   -3.7700 H   0  0  0  0  0  0  0  0  0  0  0  0
   -0.9851    1.3114    0.6698 C   0  0  0  0  0  0  0  0  0  0  0  0
   -2.0377    1.8431    0.3168 O   0  0  0  0  0  0  0  0  0  0  0  0
   -0.1052    1.9265    1.4663 N   0  0  0  0  0  0  0  0  0  0  0  0
    0.7810    1.4586    1.6201 H   0  0  0  0  0  0  0  0  0  0  0  0
   -0.2724    3.2715    2.0119 C   0  0  0  0  0  0  0  0  0  0  0  0
   -1.3249    3.4549    2.2426 H   0  0  0  0  0  0  0  0  0  0  0  0
    0.3167    3.3776    2.9239 H   0  0  0  0  0  0  0  0  0  0  0  0
    0.0609    4.0073    1.2782 H   0  0  0  0  0  0  0  0  0  0  0  0
  5  6  2  0  0  0  0
  5  7  1  0  0  0  0
  2  3  1  0  0  0  0
  2  4  1  0  0  0  0
  2  5  1  0  0  0  0
  1  2  1  0  0  0  0
 22 23  2  0  0  0  0
 22 24  1  0  0  0  0
 20 21  1  0  0  0  0
 18 19  1  0  0  0  0
 18 20  1  0  0  0  0
 16 17  1  0  0  0  0
 16 18  1  0  0  0  0
 15 16  2  0  0  0  0
 14 15  1  0  0  0  0
 14 20  2  0  0  0  0
 11 12  1  0  0  0  0
 11 13  1  0  0  0  0
 11 14  1  0  0  0  0
  9 10  1  0  0  0  0
  9 11  1  0  0  0  0
  9 22  1  0  0  0  0
  7  8  1  0  0  0  0
  7  9  1  0  0  0  0
 26 27  1  0  0  0  0
 26 28  1  0  0  0  0
 26 29  1  0  0  0  0
 24 25  1  0  0  0  0
 24 26  1  0  0  0  0
M  END
$$$$
default_name
  -OEChem-02102213163D

 29 29  0     1  0  0  0  0  0999 V2000
   -2.9561   -3.9186    1.3887 H   0  0  0  0  0  0  0  0  0  0  0  0
   -3.1191   -2.9346    0.9517 C   0  0  0  0  0  0  0  0  0  0  0  0
   -3.7811   -2.3546    1.5917 H   0  0  0  0  0  0  0  0  0  0  0  0
   -3.5591   -3.0406   -0.0383 H   0  0  0  0  0  0  0  0  0  0  0  0
   -1.7921   -2.2226    0.8327 C   0  0  0  0  0  0  0  0  0  0  0  0
   -0.7611   -2.7766    1.1927 O   0  0  0  0  0  0  0  0  0  0  0  0
   -1.8201   -0.9926    0.3247 N   0  0  0  0  0  0  0  0  0  0  0  0
   -2.7141   -0.5816    0.0927 H   0  0  0  0  0  0  0  0  0  0  0  0
   -0.6481   -0.1156    0.2017 C   0  0  1  0  0  0  0  0  0  0  0  0
    0.1344   -0.4988    0.8596 H   0  0  0  0  0  0  0  0  0  0  0  0
   -0.1211   -0.1520   -1.2460 C   0  0  0  0  0  0  0  0  0  0  0  0
   -0.9006    0.1842   -1.9313 H   0  0  0  0  0  0  0  0  0  0  0  0
    0.7232    0.5312   -1.3486 H   0  0  0  0  0  0  0  0  0  0  0  0
    0.2955   -1.5349   -1.6841 C   0  0  0  0  0  0  0  0  0  0  0  0
   -0.0284   -2.7291   -1.0388 N   0  0  0  0  0  0  0  0  0  0  0  0
    0.4997   -3.7084   -1.7875 C   0  0  0  0  0  0  0  0  0  0  0  0
    0.4346   -4.7630   -1.5513 H   0  0  0  0  0  0  0  0  0  0  0  0
    1.1087   -3.1953   -2.8697 N   0  0  0  0  0  0  0  0  0  0  0  0
    1.5647   -3.7316   -3.5952 H   0  0  0  0  0  0  0  0  0  0  0  0
    0.9868   -1.8243   -2.8241 C   0  0  0  0  0  0  0  0  0  0  0  0
    1.3430   -1.1043   -3.5501 H   0  0  0  0  0  0  0  0  0  0  0  0
   -0.9851    1.3114    0.6698 C   0  0  0  0  0  0  0  0  0  0  0  0
   -2.0377    1.8431    0.3168 O   0  0  0  0  0  0  0  0  0  0  0  0
   -0.1052    1.9265    1.4663 N   0  0  0  0  0  0  0  0  0  0  0  0
    0.7810    1.4586    1.6201 H   0  0  0  0  0  0  0  0  0  0  0  0
   -0.2724    3.2715    2.0119 C   0  0  0  0  0  0  0  0  0  0  0  0
   -1.3249    3.4549    2.2426 H   0  0  0  0  0  0  0  0  0  0  0  0
    0.3167    3.3776    2.9239 H   0  0  0  0  0  0  0  0  0  0  0  0
    0.0609    4.0073    1.2782 H   0  0  0  0  0  0  0  0  0  0  0  0
  5  6  2  0  0  0  0
  5  7  1  0  0  0  0
  2  3  1  0  0  0  0
  2  4  1  0  0  0  0
  2  5  1  0  0  0  0
  1  2  1  0  0  0  0
 22 23  2  0  0  0  0
 22 24  1  0  0  0  0
 20 21  1  0  0  0  0
 18 19  1  0  0  0  0
 18 20  1  0  0  0  0
 16 17  1  0  0  0  0
 16 18  1  0  0  0  0
 15 16  2  0  0  0  0
 14 15  1  0  0  0  0
 14 20  2  0  0  0  0
 11 12  1  0  0  0  0
 11 13  1  0  0  0  0
 11 14  1  0  0  0  0
  9 10  1  0  0  0  0
  9 11  1  0  0  0  0
  9 22  1  0  0  0  0
  7  8  1  0  0  0  0
  7  9  1  0  0  0  0
 26 27  1  0  0  0  0
 26 28  1  0  0  0  0
 26 29  1  0  0  0  0
 24 25  1  0  0  0  0
 24 26  1  0  0  0  0
M  END
$$$$
default_name
  -OEChem-02102213163D

 29 29  0     1  0  0  0  0  0999 V2000
   -2.9561   -3.9186    1.3887 H   0  0  0  0  0  0  0  0  0  0  0  0
   -3.1191   -2.9346    0.9517 C   0  0  0  0  0  0  0  0  0  0  0  0
   -3.7811   -2.3546    1.5917 H   0  0  0  0  0  0  0  0  0  0  0  0
   -3.5591   -3.0406   -0.0383 H   0  0  0  0  0  0  0  0  0  0  0  0
   -1.7921   -2.2226    0.8327 C   0  0  0  0  0  0  0  0  0  0  0  0
   -0.7611   -2.7766    1.1927 O   0  0  0  0  0  0  0  0  0  0  0  0
   -1.8201   -0.9926    0.3247 N   0  0  0  0  0  0  0  0  0  0  0  0
   -2.7141   -0.5816    0.0927 H   0  0  0  0  0  0  0  0  0  0  0  0
   -0.6481   -0.1156    0.2017 C   0  0  1  0  0  0  0  0  0  0  0  0
    0.1344   -0.4988    0.8596 H   0  0  0  0  0  0  0  0  0  0  0  0
   -0.1211   -0.1520   -1.2460 C   0  0  0  0  0  0  0  0  0  0  0  0
   -0.9006    0.1842   -1.9313 H   0  0  0  0  0  0  0  0  0  0  0  0
    0.7232    0.5312   -1.3486 H   0  0  0  0  0  0  0  0  0  0  0  0
    0.2955   -1.5349   -1.6841 C   0  0  0  0  0  0  0  0  0  0  0  0
   -0.2524   -2.7357   -1.2310 N   0  0  0  0  0  0  0  0  0  0  0  0
    0.3736   -3.7071   -1.9114 C   0  0  0  0  0  0  0  0  0  0  0  0
    0.1836   -4.7653   -1.7827 H   0  0  0  0  0  0  0  0  0  0  0  0
    1.2570   -3.1804   -2.7758 N   0  0  0  0  0  0  0  0  0  0  0  0
    1.8371   -3.7066   -3.4149 H   0  0  0  0  0  0  0  0  0  0  0  0
    1.2193   -1.8095   -2.6498 C   0  0  0  0  0  0  0  0  0  0  0  0
    1.7863   -1.0780   -3.2117 H   0  0  0  0  0  0  0  0  0  0  0  0
   -0.9851    1.3114    0.6698 C   0  0  0  0  0  0  0  0  0  0  0  0
   -2.0377    1.8431    0.3168 O   0  0  0  0  0  0  0  0  0  0  0  0
   -0.1052    1.9265    1.4663 N   0  0  0  0  0  0  0  0  0  0  0  0
    0.7810    1.4586    1.6201 H   0  0  0  0  0  0  0  0  0  0  0  0
   -0.2724    3.2715    2.0119 C   0  0  0  0  0  0  0  0  0  0  0  0
   -1.3249    3.4549    2.2426 H   0  0  0  0  0  0  0  0  0  0  0  0
    0.3167    3.3776    2.9239 H   0  0  0  0  0  0  0  0  0  0  0  0
    0.0609    4.0073    1.2782 H   0  0  0  0  0  0  0  0  0  0  0  0
  5  6  2  0  0  0  0
  5  7  1  0  0  0  0
  2  3  1  0  0  0  0
  2  4  1  0  0  0  0
  2  5  1  0  0  0  0
  1  2  1  0  0  0  0
 22 23  2  0  0  0  0
 22 24  1  0  0  0  0
 20 21  1  0  0  0  0
 18 19  1  0  0  0  0
 18 20  1  0  0  0  0
 16 17  1  0  0  0  0
 16 18  1  0  0  0  0
 15 16  2  0  0  0  0
 14 15  1  0  0  0  0
 14 20  2  0  0  0  0
 11 12  1  0  0  0  0
 11 13  1  0  0  0  0
 11 14  1  0  0  0  0
  9 10  1  0  0  0  0
  9 11  1  0  0  0  0
  9 22  1  0  0  0  0
  7  8  1  0  0  0  0
  7  9  1  0  0  0  0
 26 27  1  0  0  0  0
 26 28  1  0  0  0  0
 26 29  1  0  0  0  0
 24 25  1  0  0  0  0
 24 26  1  0  0  0  0
M  END
$$$$
default_name
  -OEChem-02102213163D

 29 29  0     1  0  0  0  0  0999 V2000
   -2.9561   -3.9186    1.3887 H   0  0  0  0  0  0  0  0  0  0  0  0
   -3.1191   -2.9346    0.9517 C   0  0  0  0  0  0  0  0  0  0  0  0
   -3.7811   -2.3546    1.5917 H   0  0  0  0  0  0  0  0  0  0  0  0
   -3.5591   -3.0406   -0.0383 H   0  0  0  0  0  0  0  0  0  0  0  0
   -1.7921   -2.2226    0.8327 C   0  0  0  0  0  0  0  0  0  0  0  0
   -0.7611   -2.7766    1.1927 O   0  0  0  0  0  0  0  0  0  0  0  0
   -1.8201   -0.9926    0.3247 N   0  0  0  0  0  0  0  0  0  0  0  0
   -2.7141   -0.5816    0.0927 H   0  0  0  0  0  0  0  0  0  0  0  0
   -0.6481   -0.1156    0.2017 C   0  0  1  0  0  0  0  0  0  0  0  0
    0.1344   -0.4988    0.8596 H   0  0  0  0  0  0  0  0  0  0  0  0
   -0.1211   -0.1520   -1.2460 C   0  0  0  0  0  0  0  0  0  0  0  0
   -0.9006    0.1842   -1.9313 H   0  0  0  0  0  0  0  0  0  0  0  0
    0.7232    0.5312   -1.3486 H   0  0  0  0  0  0  0  0  0  0  0  0
    0.2955   -1.5349   -1.6841 C   0  0  0  0  0  0  0  0  0  0  0  0
   -0.4237   -2.7115   -1.4703 N   0  0  0  0  0  0  0  0  0  0  0  0
    0.2811   -3.6876   -2.0609 C   0  0  0  0  0  0  0  0  0  0  0  0
   -0.0040   -4.7321   -2.0659 H   0  0  0  0  0  0  0  0  0  0  0  0
    1.3792   -3.1838   -2.6488 N   0  0  0  0  0  0  0  0  0  0  0  0
    2.0593   -3.7159   -3.1744 H   0  0  0  0  0  0  0  0  0  0  0  0
    1.4036   -1.8251   -2.4252 C   0  0  0  0  0  0  0  0  0  0  0  0
    2.1362   -1.1100   -2.7778 H   0  0  0  0  0  0  0  0  0  0  0  0
   -0.9851    1.3114    0.6698 C   0  0  0  0  0  0  0  0  0  0  0  0
   -2.0377    1.8431    0.3168 O   0  0  0  0  0  0  0  0  0  0  0  0
   -0.1052    1.9265    1.4663 N   0  0  0  0  0  0  0  0  0  0  0  0
    0.7810    1.4586    1.6201 H   0  0  0  0  0  0  0  0  0  0  0  0
   -0.2724    3.2715    2.0119 C   0  0  0  0  0  0  0  0  0  0  0  0
   -1.3249    3.4549    2.2426 H   0  0  0  0  0  0  0  0  0  0  0  0
    0.3167    3.3776    2.9239 H   0  0  0  0  0  0  0  0  0  0  0  0
    0.0609    4.0073    1.2782 H   0  0  0  0  0  0  0  0  0  0  0  0
  5  6  2  0  0  0  0
  5  7  1  0  0  0  0
  2  3  1  0  0  0  0
  2  4  1  0  0  0  0
  2  5  1  0  0  0  0
  1  2  1  0  0  0  0
 22 23  2  0  0  0  0
 22 24  1  0  0  0  0
 20 21  1  0  0  0  0
 18 19  1  0  0  0  0
 18 20  1  0  0  0  0
 16 17  1  0  0  0  0
 16 18  1  0  0  0  0
 15 16  2  0  0  0  0
 14 15  1  0  0  0  0
 14 20  2  0  0  0  0
 11 12  1  0  0  0  0
 11 13  1  0  0  0  0
 11 14  1  0  0  0  0
  9 10  1  0  0  0  0
  9 11  1  0  0  0  0
  9 22  1  0  0  0  0
  7  8  1  0  0  0  0
  7  9  1  0  0  0  0
 26 27  1  0  0  0  0
 26 28  1  0  0  0  0
 26 29  1  0  0  0  0
 24 25  1  0  0  0  0
 24 26  1  0  0  0  0
M  END
$$$$
default_name
  -OEChem-02102213163D

 29 29  0     1  0  0  0  0  0999 V2000
   -2.9561   -3.9186    1.3887 H   0  0  0  0  0  0  0  0  0  0  0  0
   -3.1191   -2.9346    0.9517 C   0  0  0  0  0  0  0  0  0  0  0  0
   -3.7811   -2.3546    1.5917 H   0  0  0  0  0  0  0  0  0  0  0  0
   -3.5591   -3.0406   -0.0383 H   0  0  0  0  0  0  0  0  0  0  0  0
   -1.7921   -2.2226    0.8327 C   0  0  0  0  0  0  0  0  0  0  0  0
   -0.7611   -2.7766    1.1927 O   0  0  0  0  0  0  0  0  0  0  0  0
   -1.8201   -0.9926    0.3247 N   0  0  0  0  0  0  0  0  0  0  0  0
   -2.7141   -0.5816    0.0927 H   0  0  0  0  0  0  0  0  0  0  0  0
   -0.6481   -0.1156    0.2017 C   0  0  1  0  0  0  0  0  0  0  0  0
    0.1344   -0.4988    0.8596 H   0  0  0  0  0  0  0  0  0  0  0  0
   -0.1211   -0.1520   -1.2460 C   0  0  0  0  0  0  0  0  0  0  0  0
   -0.9006    0.1842   -1.9313 H   0  0  0  0  0  0  0  0  0  0  0  0
    0.7232    0.5312   -1.3486 H   0  0  0  0  0  0  0  0  0  0  0  0
    0.2955   -1.5349   -1.6841 C   0  0  0  0  0  0  0  0  0  0  0  0
   -0.5306   -2.6582   -1.7403 N   0  0  0  0  0  0  0  0  0  0  0  0
    0.2288   -3.6511   -2.2258 C   0  0  0  0  0  0  0  0  0  0  0  0
   -0.1157   -4.6657   -2.3816 H   0  0  0  0  0  0  0  0  0  0  0  0
    1.4669   -3.2054   -2.4974 N   0  0  0  0  0  0  0  0  0  0  0  0
    2.2162   -3.7587   -2.8900 H   0  0  0  0  0  0  0  0  0  0  0  0
    1.5272   -1.8701   -2.1657 C   0  0  0  0  0  0  0  0  0  0  0  0
    2.3688   -1.1983   -2.2780 H   0  0  0  0  0  0  0  0  0  0  0  0
   -0.9851    1.3114    0.6698 C   0  0  0  0  0  0  0  0  0  0  0  0
   -2.0377    1.8431    0.3168 O   0  0  0  0  0  0  0  0  0  0  0  0
   -0.1052    1.9265    1.4663 N   0  0  0  0  0  0  0  0  0  0  0  0
    0.7810    1.4586    1.6201 H   0  0  0  0  0  0  0  0  0  0  0  0
   -0.2724    3.2715    2.0119 C   0  0  0  0  0  0  0  0  0  0  0  0
   -1.3249    3.4549    2.2426 H   0  0  0  0  0  0  0  0  0  0  0  0
    0.3167    3.3776    2.9239 H   0  0  0  0  0  0  0  0  0  0  0  0
    0.0609    4.0073    1.2782 H   0  0  0  0  0  0  0  0  0  0  0  0
  5  6  2  0  0  0  0
  5  7  1  0  0  0  0
  2  3  1  0  0  0  0
  2  4  1  0  0  0  0
  2  5  1  0  0  0  0
  1  2  1  0  0  0  0
 22 23  2  0  0  0  0
 22 24  1  0  0  0  0
 20 21  1  0  0  0  0
 18 19  1  0  0  0  0
 18 20  1  0  0  0  0
 16 17  1  0  0  0  0
 16 18  1  0  0  0  0
 15 16  2  0  0  0  0
 14 15  1  0  0  0  0
 14 20  2  0  0  0  0
 11 12  1  0  0  0  0
 11 13  1  0  0  0  0
 11 14  1  0  0  0  0
  9 10  1  0  0  0  0
  9 11  1  0  0  0  0
  9 22  1  0  0  0  0
  7  8  1  0  0  0  0
  7  9  1  0  0  0  0
 26 27  1  0  0  0  0
 26 28  1  0  0  0  0
 26 29  1  0  0  0  0
 24 25  1  0  0  0  0
 24 26  1  0  0  0  0
M  END
$$$$
default_name
  -OEChem-02102213163D

 29 29  0     1  0  0  0  0  0999 V2000
   -2.9561   -3.9186    1.3887 H   0  0  0  0  0  0  0  0  0  0  0  0
   -3.1191   -2.9346    0.9517 C   0  0  0  0  0  0  0  0  0  0  0  0
   -3.7811   -2.3546    1.5917 H   0  0  0  0  0  0  0  0  0  0  0  0
   -3.5591   -3.0406   -0.0383 H   0  0  0  0  0  0  0  0  0  0  0  0
   -1.7921   -2.2226    0.8327 C   0  0  0  0  0  0  0  0  0  0  0  0
   -0.7611   -2.7766    1.1927 O   0  0  0  0  0  0  0  0  0  0  0  0
   -1.8201   -0.9926    0.3247 N   0  0  0  0  0  0  0  0  0  0  0  0
   -2.7141   -0.5816    0.0927 H   0  0  0  0  0  0  0  0  0  0  0  0
   -0.6481   -0.1156    0.2017 C   0  0  1  0  0  0  0  0  0  0  0  0
    0.1344   -0.4988    0.8596 H   0  0  0  0  0  0  0  0  0  0  0  0
   -0.1211   -0.1520   -1.2460 C   0  0  0  0  0  0  0  0  0  0  0  0
   -0.9006    0.1842   -1.9313 H   0  0  0  0  0  0  0  0  0  0  0  0
    0.7232    0.5312   -1.3486 H   0  0  0  0  0  0  0  0  0  0  0  0
    0.2955   -1.5349   -1.6841 C   0  0  0  0  0  0  0  0  0  0  0  0
   -0.5658   -2.5794   -2.0226 N   0  0  0  0  0  0  0  0  0  0  0  0
    0.2201   -3.6002   -2.3949 C   0  0  0  0  0  0  0  0  0  0  0  0
   -0.1436   -4.5706   -2.7083 H   0  0  0  0  0  0  0  0  0  0  0  0
    1.5140   -3.2436   -2.3319 N   0  0  0  0  0  0  0  0  0  0  0  0
    2.2971   -3.8322   -2.5812 H   0  0  0  0  0  0  0  0  0  0  0  0
    1.5816   -1.9414   -1.8889 C   0  0  0  0  0  0  0  0  0  0  0  0
    2.4684   -1.3367   -1.7463 H   0  0  0  0  0  0  0  0  0  0  0  0
   -0.9851    1.3114    0.6698 C   0  0  0  0  0  0  0  0  0  0  0  0
   -2.0377    1.8431    0.3168 O   0  0  0  0  0  0  0  0  0  0  0  0
   -0.1052    1.9265    1.4663 N   0  0  0  0  0  0  0  0  0  0  0  0
    0.7810    1.4586    1.6201 H   0  0  0  0  0  0  0  0  0  0  0  0
   -0.2724    3.2715    2.0119 C   0  0  0  0  0  0  0  0  0  0  0  0
   -1.3249    3.4549    2.2426 H   0  0  0  0  0  0  0  0  0  0  0  0
    0.3167    3.3776    2.9239 H   0  0  0  0  0  0  0  0  0  0  0  0
    0.0609    4.0073    1.2782 H   0  0  0  0  0  0  0  0  0  0  0  0
  5  6  2  0  0  0  0
  5  7  1  0  0  0  0
  2  3  1  0  0  0  0
  2  4  1  0  0  0  0
  2  5  1  0  0  0  0
  1  2  1  0  0  0  0
 22 23  2  0  0  0  0
 22 24  1  0  0  0  0
 20 21  1  0  0  0  0
 18 19  1  0  0  0  0
 18 20  1  0  0  0  0
 16 17  1  0  0  0  0
 16 18  1  0  0  0  0
 15 16  2  0  0  0  0
 14 15  1  0  0  0  0
 14 20  2  0  0  0  0
 11 12  1  0  0  0  0
 11 13  1  0  0  0  0
 11 14  1  0  0  0  0
  9 10  1  0  0  0  0
  9 11  1  0  0  0  0
  9 22  1  0  0  0  0
  7  8  1  0  0  0  0
  7  9  1  0  0  0  0
 26 27  1  0  0  0  0
 26 28  1  0  0  0  0
 26 29  1  0  0  0  0
 24 25  1  0  0  0  0
 24 26  1  0  0  0  0
M  END
$$$$
default_name
  -OEChem-02102213163D

 29 29  0     1  0  0  0  0  0999 V2000
   -2.9561   -3.9186    1.3887 H   0  0  0  0  0  0  0  0  0  0  0  0
   -3.1191   -2.9346    0.9517 C   0  0  0  0  0  0  0  0  0  0  0  0
   -3.7811   -2.3546    1.5917 H   0  0  0  0  0  0  0  0  0  0  0  0
   -3.5591   -3.0406   -0.0383 H   0  0  0  0  0  0  0  0  0  0  0  0
   -1.7921   -2.2226    0.8327 C   0  0  0  0  0  0  0  0  0  0  0  0
   -0.7611   -2.7766    1.1927 O   0  0  0  0  0  0  0  0  0  0  0  0
   -1.8201   -0.9926    0.3247 N   0  0  0  0  0  0  0  0  0  0  0  0
   -2.7141   -0.5816    0.0927 H   0  0  0  0  0  0  0  0  0  0  0  0
   -0.6481   -0.1156    0.2017 C   0  0  1  0  0  0  0  0  0  0  0  0
    0.1344   -0.4988    0.8596 H   0  0  0  0  0  0  0  0  0  0  0  0
   -0.1211   -0.1520   -1.2460 C   0  0  0  0  0  0  0  0  0  0  0  0
   -0.9006    0.1842   -1.9313 H   0  0  0  0  0  0  0  0  0  0  0  0
    0.7232    0.5312   -1.3486 H   0  0  0  0  0  0  0  0  0  0  0  0
    0.2955   -1.5349   -1.6841 C   0  0  0  0  0  0  0  0  0  0  0  0
   -0.5269   -2.4804   -2.2980 N   0  0  0  0  0  0  0  0  0  0  0  0
    0.2556   -3.5382   -2.5567 C   0  0  0  0  0  0  0  0  0  0  0  0
   -0.0860   -4.4534   -3.0237 H   0  0  0  0  0  0  0  0  0  0  0  0
    1.5174   -3.2959   -2.1637 N   0  0  0  0  0  0  0  0  0  0  0  0
    2.2965   -3.9313   -2.2689 H   0  0  0  0  0  0  0  0  0  0  0  0
    1.5633   -2.0341   -1.6138 C   0  0  0  0  0  0  0  0  0  0  0  0
    2.4281   -1.5159   -1.2191 H   0  0  0  0  0  0  0  0  0  0  0  0
   -0.9851    1.3114    0.6698 C   0  0  0  0  0  0  0  0  0  0  0  0
   -2.0377    1.8431    0.3168 O   0  0  0  0  0  0  0  0  0  0  0  0
   -0.1052    1.9265    1.4663 N   0  0  0  0  0  0  0  0  0  0  0  0
    0.7810    1.4586    1.6201 H   0  0  0  0  0  0  0  0  0  0  0  0
   -0.2724    3.2715    2.0119 C   0  0  0  0  0  0  0  0  0  0  0  0
   -1.3249    3.4549    2.2426 H   0  0  0  0  0  0  0  0  0  0  0  0
    0.3167    3.3776    2.9239 H   0  0  0  0  0  0  0  0  0  0  0  0
    0.0609    4.0073    1.2782 H   0  0  0  0  0  0  0  0  0  0  0  0
  5  6  2  0  0  0  0
  5  7  1  0  0  0  0
  2  3  1  0  0  0  0
  2  4  1  0  0  0  0
  2  5  1  0  0  0  0
  1  2  1  0  0  0  0
 22 23  2  0  0  0  0
 22 24  1  0  0  0  0
 20 21  1  0  0  0  0
 18 19  1  0  0  0  0
 18 20  1  0  0  0  0
 16 17  1  0  0  0  0
 16 18  1  0  0  0  0
 15 16  2  0  0  0  0
 14 15  1  0  0  0  0
 14 20  2  0  0  0  0
 11 12  1  0  0  0  0
 11 13  1  0  0  0  0
 11 14  1  0  0  0  0
  9 10  1  0  0  0  0
  9 11  1  0  0  0  0
  9 22  1  0  0  0  0
  7  8  1  0  0  0  0
  7  9  1  0  0  0  0
 26 27  1  0  0  0  0
 26 28  1  0  0  0  0
 26 29  1  0  0  0  0
 24 25  1  0  0  0  0
 24 26  1  0  0  0  0
M  END
$$$$
default_name
  -OEChem-02102213163D

 29 29  0     1  0  0  0  0  0999 V2000
   -2.9561   -3.9186    1.3887 H   0  0  0  0  0  0  0  0  0  0  0  0
   -3.1191   -2.9346    0.9517 C   0  0  0  0  0  0  0  0  0  0  0  0
   -3.7811   -2.3546    1.5917 H   0  0  0  0  0  0  0  0  0  0  0  0
   -3.5591   -3.0406   -0.0383 H   0  0  0  0  0  0  0  0  0  0  0  0
   -1.7921   -2.2226    0.8327 C   0  0  0  0  0  0  0  0  0  0  0  0
   -0.7611   -2.7766    1.1927 O   0  0  0  0  0  0  0  0  0  0  0  0
   -1.8201   -0.9926    0.3247 N   0  0  0  0  0  0  0  0  0  0  0  0
   -2.7141   -0.5816    0.0927 H   0  0  0  0  0  0  0  0  0  0  0  0
   -0.6481   -0.1156    0.2017 C   0  0  1  0  0  0  0  0  0  0  0  0
    0.1344   -0.4988    0.8596 H   0  0  0  0  0  0  0  0  0  0  0  0
   -0.1211   -0.1520   -1.2460 C   0  0  0  0  0  0  0  0  0  0  0  0
   -0.9006    0.1842   -1.9313 H   0  0  0  0  0  0  0  0  0  0  0  0
    0.7232    0.5312   -1.3486 H   0  0  0  0  0  0  0  0  0  0  0  0
    0.2955   -1.5349   -1.6841 C   0  0  0  0  0  0  0  0  0  0  0  0
   -0.4167   -2.3681   -2.5478 N   0  0  0  0  0  0  0  0  0  0  0  0
    0.3330   -3.4695   -2.7001 C   0  0  0  0  0  0  0  0  0  0  0  0
    0.0532   -4.3219   -3.3063 H   0  0  0  0  0  0  0  0  0  0  0  0
    1.4769   -3.3586   -2.0040 N   0  0  0  0  0  0  0  0  0  0  0  0
    2.2144   -4.0493   -1.9745 H   0  0  0  0  0  0  0  0  0  0  0  0
    1.4733   -2.1419   -1.3590 C   0  0  0  0  0  0  0  0  0  0  0  0
    2.2507   -1.7236   -0.7321 H   0  0  0  0  0  0  0  0  0  0  0  0
   -0.9851    1.3114    0.6698 C   0  0  0  0  0  0  0  0  0  0  0  0
   -2.0377    1.8431    0.3168 O   0  0  0  0  0  0  0  0  0  0  0  0
   -0.1052    1.9265    1.4663 N   0  0  0  0  0  0  0  0  0  0  0  0
    0.7810    1.4586    1.6201 H   0  0  0  0  0  0  0  0  0  0  0  0
   -0.2724    3.2715    2.0119 C   0  0  0  0  0  0  0  0  0  0  0  0
   -1.3249    3.4549    2.2426 H   0  0  0  0  0  0  0  0  0  0  0  0
    0.3167    3.3776    2.9239 H   0  0  0  0  0  0  0  0  0  0  0  0
    0.0609    4.0073    1.2782 H   0  0  0  0  0  0  0  0  0  0  0  0
  5  6  2  0  0  0  0
  5  7  1  0  0  0  0
  2  3  1  0  0  0  0
  2  4  1  0  0  0  0
  2  5  1  0  0  0  0
  1  2  1  0  0  0  0
 22 23  2  0  0  0  0
 22 24  1  0  0  0  0
 20 21  1  0  0  0  0
 18 19  1  0  0  0  0
 18 20  1  0  0  0  0
 16 17  1  0  0  0  0
 16 18  1  0  0  0  0
 15 16  2  0  0  0  0
 14 15  1  0  0  0  0
 14 20  2  0  0  0  0
 11 12  1  0  0  0  0
 11 13  1  0  0  0  0
 11 14  1  0  0  0  0
  9 10  1  0  0  0  0
  9 11  1  0  0  0  0
  9 22  1  0  0  0  0
  7  8  1  0  0  0  0
  7  9  1  0  0  0  0
 26 27  1  0  0  0  0
 26 28  1  0  0  0  0
 26 29  1  0  0  0  0
 24 25  1  0  0  0  0
 24 26  1  0  0  0  0
M  END
$$$$
default_name
  -OEChem-02102213163D

 29 29  0     1  0  0  0  0  0999 V2000
   -2.9561   -3.9186    1.3887 H   0  0  0  0  0  0  0  0  0  0  0  0
   -3.1191   -2.9346    0.9517 C   0  0  0  0  0  0  0  0  0  0  0  0
   -3.7811   -2.3546    1.5917 H   0  0  0  0  0  0  0  0  0  0  0  0
   -3.5591   -3.0406   -0.0383 H   0  0  0  0  0  0  0  0  0  0  0  0
   -1.7921   -2.2226    0.8327 C   0  0  0  0  0  0  0  0  0  0  0  0
   -0.7611   -2.7766    1.1927 O   0  0  0  0  0  0  0  0  0  0  0  0
   -1.8201   -0.9926    0.3247 N   0  0  0  0  0  0  0  0  0  0  0  0
   -2.7141   -0.5816    0.0927 H   0  0  0  0  0  0  0  0  0  0  0  0
   -0.6481   -0.1156    0.2017 C   0  0  1  0  0  0  0  0  0  0  0  0
    0.1344   -0.4988    0.8596 H   0  0  0  0  0  0  0  0  0  0  0  0
   -0.1211   -0.1520   -1.2460 C   0  0  0  0  0  0  0  0  0  0  0  0
   -0.9006    0.1842   -1.9313 H   0  0  0  0  0  0  0  0  0  0  0  0
    0.7232    0.5312   -1.3486 H   0  0  0  0  0  0  0  0  0  0  0  0
    0.2955   -1.5349   -1.6841 C   0  0  0  0  0  0  0  0  0  0  0  0
   -0.2425   -2.2500   -2.7549 N   0  0  0  0  0  0  0  0  0  0  0  0
    0.4468   -3.3987   -2.8154 C   0  0  0  0  0  0  0  0  0  0  0  0
    0.2646   -4.1852   -3.5368 H   0  0  0  0  0  0  0  0  0  0  0  0
    1.3951   -3.4276   -1.8639 N   0  0  0  0  0  0  0  0  0  0  0  0
    2.0565   -4.1781   -1.7181 H   0  0  0  0  0  0  0  0  0  0  0  0
    1.3179   -2.2575   -1.1419 C   0  0  0  0  0  0  0  0  0  0  0  0
    1.9483   -1.9457   -0.3187 H   0  0  0  0  0  0  0  0  0  0  0  0
   -0.9851    1.3114    0.6698 C   0  0  0  0  0  0  0  0  0  0  0  0
   -2.0377    1.8431    0.3168 O   0  0  0  0  0  0  0  0  0  0  0  0
   -0.1052    1.9265    1.4663 N   0  0  0  0  0  0  0  0  0  0  0  0
    0.7810    1.4586    1.6201 H   0  0  0  0  0  0  0  0  0  0  0  0
   -0.2724    3.2715    2.0119 C   0  0  0  0  0  0  0  0  0  0  0  0
   -1.3249    3.4549    2.2426 H   0  0  0  0  0  0  0  0  0  0  0  0
    0.3167    3.3776    2.9239 H   0  0  0  0  0  0  0  0  0  0  0  0
    0.0609    4.0073    1.2782 H   0  0  0  0  0  0  0  0  0  0  0  0
  5  6  2  0  0  0  0
  5  7  1  0  0  0  0
  2  3  1  0  0  0  0
  2  4  1  0  0  0  0
  2  5  1  0  0  0  0
  1  2  1  0  0  0  0
 22 23  2  0  0  0  0
 22 24  1  0  0  0  0
 20 21  1  0  0  0  0
 18 19  1  0  0  0  0
 18 20  1  0  0  0  0
 16 17  1  0  0  0  0
 16 18  1  0  0  0  0
 15 16  2  0  0  0  0
 14 15  1  0  0  0  0
 14 20  2  0  0  0  0
 11 12  1  0  0  0  0
 11 13  1  0  0  0  0
 11 14  1  0  0  0  0
  9 10  1  0  0  0  0
  9 11  1  0  0  0  0
  9 22  1  0  0  0  0
  7  8  1  0  0  0  0
  7  9  1  0  0  0  0
 26 27  1  0  0  0  0
 26 28  1  0  0  0  0
 26 29  1  0  0  0  0
 24 25  1  0  0  0  0
 24 26  1  0  0  0  0
M  END
$$$$
default_name
  -OEChem-02102213163D

 29 29  0     1  0  0  0  0  0999 V2000
   -2.9561   -3.9186    1.3887 H   0  0  0  0  0  0  0  0  0  0  0  0
   -3.1191   -2.9346    0.9517 C   0  0  0  0  0  0  0  0  0  0  0  0
   -3.7811   -2.3546    1.5917 H   0  0  0  0  0  0  0  0  0  0  0  0
   -3.5591   -3.0406   -0.0383 H   0  0  0  0  0  0  0  0  0  0  0  0
   -1.7921   -2.2226    0.8327 C   0  0  0  0  0  0  0  0  0  0  0  0
   -0.7611   -2.7766    1.1927 O   0  0  0  0  0  0  0  0  0  0  0  0
   -1.8201   -0.9926    0.3247 N   0  0  0  0  0  0  0  0  0  0  0  0
   -2.7141   -0.5816    0.0927 H   0  0  0  0  0  0  0  0  0  0  0  0
   -0.6481   -0.1156    0.2017 C   0  0  1  0  0  0  0  0  0  0  0  0
    0.1344   -0.4988    0.8596 H   0  0  0  0  0  0  0  0  0  0  0  0
   -0.1211   -0.1520   -1.2460 C   0  0  0  0  0  0  0  0  0  0  0  0
   -0.9006    0.1842   -1.9313 H   0  0  0  0  0  0  0  0  0  0  0  0
    0.7232    0.5312   -1.3486 H   0  0  0  0  0  0  0  0  0  0  0  0
    0.2955   -1.5349   -1.6841 C   0  0  0  0  0  0  0  0  0  0  0  0
   -0.0162   -2.1342   -2.9052 N   0  0  0  0  0  0  0  0  0  0  0  0
    0.5895   -3.3306   -2.8946 C   0  0  0  0  0  0  0  0  0  0  0  0
    0.5338   -4.0525   -3.6996 H   0  0  0  0  0  0  0  0  0  0  0  0
    1.2778   -3.4982   -1.7529 N   0  0  0  0  0  0  0  0  0  0  0  0
    1.8334   -4.3090   -1.5170 H   0  0  0  0  0  0  0  0  0  0  0  0
    1.1076   -2.3730   -0.9773 C   0  0  0  0  0  0  0  0  0  0  0  0
    1.5414   -2.1670   -0.0069 H   0  0  0  0  0  0  0  0  0  0  0  0
   -0.9851    1.3114    0.6698 C   0  0  0  0  0  0  0  0  0  0  0  0
   -2.0377    1.8431    0.3168 O   0  0  0  0  0  0  0  0  0  0  0  0
   -0.1052    1.9265    1.4663 N   0  0  0  0  0  0  0  0  0  0  0  0
    0.7810    1.4586    1.6201 H   0  0  0  0  0  0  0  0  0  0  0  0
   -0.2724    3.2715    2.0119 C   0  0  0  0  0  0  0  0  0  0  0  0
   -1.3249    3.4549    2.2426 H   0  0  0  0  0  0  0  0  0  0  0  0
    0.3167    3.3776    2.9239 H   0  0  0  0  0  0  0  0  0  0  0  0
    0.0609    4.0073    1.2782 H   0  0  0  0  0  0  0  0  0  0  0  0
  5  6  2  0  0  0  0
  5  7  1  0  0  0  0
  2  3  1  0  0  0  0
  2  4  1  0  0  0  0
  2  5  1  0  0  0  0
  1  2  1  0  0  0  0
 22 23  2  0  0  0  0
 22 24  1  0  0  0  0
 20 21  1  0  0  0  0
 18 19  1  0  0  0  0
 18 20  1  0  0  0  0
 16 17  1  0  0  0  0
 16 18  1  0  0  0  0
 15 16  2  0  0  0  0
 14 15  1  0  0  0  0
 14 20  2  0  0  0  0
 11 12  1  0  0  0  0
 11 13  1  0  0  0  0
 11 14  1  0  0  0  0
  9 10  1  0  0  0  0
  9 11  1  0  0  0  0
  9 22  1  0  0  0  0
  7  8  1  0  0  0  0
  7  9  1  0  0  0  0
 26 27  1  0  0  0  0
 26 28  1  0  0  0  0
 26 29  1  0  0  0  0
 24 25  1  0  0  0  0
 24 26  1  0  0  0  0
M  END
$$$$
default_name
  -OEChem-02102213163D

 29 29  0     1  0  0  0  0  0999 V2000
   -2.9561   -3.9186    1.3887 H   0  0  0  0  0  0  0  0  0  0  0  0
   -3.1191   -2.9346    0.9517 C   0  0  0  0  0  0  0  0  0  0  0  0
   -3.7811   -2.3546    1.5917 H   0  0  0  0  0  0  0  0  0  0  0  0
   -3.5591   -3.0406   -0.0383 H   0  0  0  0  0  0  0  0  0  0  0  0
   -1.7921   -2.2226    0.8327 C   0  0  0  0  0  0  0  0  0  0  0  0
   -0.7611   -2.7766    1.1927 O   0  0  0  0  0  0  0  0  0  0  0  0
   -1.8201   -0.9926    0.3247 N   0  0  0  0  0  0  0  0  0  0  0  0
   -2.7141   -0.5816    0.0927 H   0  0  0  0  0  0  0  0  0  0  0  0
   -0.6481   -0.1156    0.2017 C   0  0  1  0  0  0  0  0  0  0  0  0
    0.1344   -0.4988    0.8596 H   0  0  0  0  0  0  0  0  0  0  0  0
   -0.1211   -0.1520   -1.2460 C   0  0  0  0  0  0  0  0  0  0  0  0
   -0.9006    0.1842   -1.9313 H   0  0  0  0  0  0  0  0  0  0  0  0
    0.7232    0.5312   -1.3486 H   0  0  0  0  0  0  0  0  0  0  0  0
    0.2955   -1.5349   -1.6841 C   0  0  0  0  0  0  0  0  0  0  0  0
    0.2466   -2.0287   -2.9884 N   0  0  0  0  0  0  0  0  0  0  0  0
    0.7512   -3.2699   -2.9325 C   0  0  0  0  0  0  0  0  0  0  0  0
    0.8423   -3.9330   -3.7836 H   0  0  0  0  0  0  0  0  0  0  0  0
    1.1328   -3.5654   -1.6786 N   0  0  0  0  0  0  0  0  0  0  0  0
    1.5604   -4.4331   -1.3850 H   0  0  0  0  0  0  0  0  0  0  0  0
    0.8568   -2.4805   -0.8765 C   0  0  0  0  0  0  0  0  0  0  0  0
    1.0578   -2.3725    0.1819 H   0  0  0  0  0  0  0  0  0  0  0  0
   -0.9851    1.3114    0.6698 C   0  0  0  0  0  0  0  0  0  0  0  0
   -2.0377    1.8431    0.3168 O   0  0  0  0  0  0  0  0  0  0  0  0
   -0.1052    1.9265    1.4663 N   0  0  0  0  0  0  0  0  0  0  0  0
    0.7810    1.4586    1.6201 H   0  0  0  0  0  0  0  0  0  0  0  0
   -0.2724    3.2715    2.0119 C   0  0  0  0  0  0  0  0  0  0  0  0
   -1.3249    3.4549    2.2426 H   0  0  0  0  0  0  0  0  0  0  0  0
    0.3167    3.3776    2.9239 H   0  0  0  0  0  0  0  0  0  0  0  0
    0.0609    4.0073    1.2782 H   0  0  0  0  0  0  0  0  0  0  0  0
  5  6  2  0  0  0  0
  5  7  1  0  0  0  0
  2  3  1  0  0  0  0
  2  4  1  0  0  0  0
  2  5  1  0  0  0  0
  1  2  1  0  0  0  0
 22 23  2  0  0  0  0
 22 24  1  0  0  0  0
 20 21  1  0  0  0  0
 18 19  1  0  0  0  0
 18 20  1  0  0  0  0
 16 17  1  0  0  0  0
 16 18  1  0  0  0  0
 15 16  2  0  0  0  0
 14 15  1  0  0  0  0
 14 20  2  0  0  0  0
 11 12  1  0  0  0  0
 11 13  1  0  0  0  0
 11 14  1  0  0  0  0
  9 10  1  0  0  0  0
  9 11  1  0  0  0  0
  9 22  1  0  0  0  0
  7  8  1  0  0  0  0
  7  9  1  0  0  0  0
 26 27  1  0  0  0  0
 26 28  1  0  0  0  0
 26 29  1  0  0  0  0
 24 25  1  0  0  0  0
 24 26  1  0  0  0  0
M  END
$$$$
default_name
  -OEChem-02102213163D

 29 29  0     1  0  0  0  0  0999 V2000
   -2.9561   -3.9186    1.3887 H   0  0  0  0  0  0  0  0  0  0  0  0
   -3.1191   -2.9346    0.9517 C   0  0  0  0  0  0  0  0  0  0  0  0
   -3.7811   -2.3546    1.5917 H   0  0  0  0  0  0  0  0  0  0  0  0
   -3.5591   -3.0406   -0.0383 H   0  0  0  0  0  0  0  0  0  0  0  0
   -1.7921   -2.2226    0.8327 C   0  0  0  0  0  0  0  0  0  0  0  0
   -0.7611   -2.7766    1.1927 O   0  0  0  0  0  0  0  0  0  0  0  0
   -1.8201   -0.9926    0.3247 N   0  0  0  0  0  0  0  0  0  0  0  0
   -2.7141   -0.5816    0.0927 H   0  0  0  0  0  0  0  0  0  0  0  0
   -0.6481   -0.1156    0.2017 C   0  0  1  0  0  0  0  0  0  0  0  0
    0.1344   -0.4988    0.8596 H   0  0  0  0  0  0  0  0  0  0  0  0
   -0.1211   -0.1520   -1.2460 C   0  0  0  0  0  0  0  0  0  0  0  0
   -0.9006    0.1842   -1.9313 H   0  0  0  0  0  0  0  0  0  0  0  0
    0.7232    0.5312   -1.3486 H   0  0  0  0  0  0  0  0  0  0  0  0
    0.2955   -1.5349   -1.6841 C   0  0  0  0  0  0  0  0  0  0  0  0
    0.5282   -1.9405   -2.9989 N   0  0  0  0  0  0  0  0  0  0  0  0
    0.9209   -3.2207   -2.9264 C   0  0  0  0  0  0  0  0  0  0  0  0
    1.1692   -3.8347   -3.7829 H   0  0  0  0  0  0  0  0  0  0  0  0
    0.9701   -3.6248   -1.6460 N   0  0  0  0  0  0  0  0  0  0  0  0
    1.2561   -4.5418   -1.3312 H   0  0  0  0  0  0  0  0  0  0  0  0
    0.5825   -2.5727   -0.8463 C   0  0  0  0  0  0  0  0  0  0  0  0
    0.5305   -2.5482    0.2349 H   0  0  0  0  0  0  0  0  0  0  0  0
   -0.9851    1.3114    0.6698 C   0  0  0  0  0  0  0  0  0  0  0  0
   -2.0377    1.8431    0.3168 O   0  0  0  0  0  0  0  0  0  0  0  0
   -0.1052    1.9265    1.4663 N   0  0  0  0  0  0  0  0  0  0  0  0
    0.7810    1.4586    1.6201 H   0  0  0  0  0  0  0  0  0  0  0  0
   -0.2724    3.2715    2.0119 C   0  0  0  0  0  0  0  0  0  0  0  0
   -1.3249    3.4549    2.2426 H   0  0  0  0  0  0  0  0  0  0  0  0
    0.3167    3.3776    2.9239 H   0  0  0  0  0  0  0  0  0  0  0  0
    0.0609    4.0073    1.2782 H   0  0  0  0  0  0  0  0  0  0  0  0
  5  6  2  0  0  0  0
  5  7  1  0  0  0  0
  2  3  1  0  0  0  0
  2  4  1  0  0  0  0
  2  5  1  0  0  0  0
  1  2  1  0  0  0  0
 22 23  2  0  0  0  0
 22 24  1  0  0  0  0
 20 21  1  0  0  0  0
 18 19  1  0  0  0  0
 18 20  1  0  0  0  0
 16 17  1  0  0  0  0
 16 18  1  0  0  0  0
 15 16  2  0  0  0  0
 14 15  1  0  0  0  0
 14 20  2  0  0  0  0
 11 12  1  0  0  0  0
 11 13  1  0  0  0  0
 11 14  1  0  0  0  0
  9 10  1  0  0  0  0
  9 11  1  0  0  0  0
  9 22  1  0  0  0  0
  7  8  1  0  0  0  0
  7  9  1  0  0  0  0
 26 27  1  0  0  0  0
 26 28  1  0  0  0  0
 26 29  1  0  0  0  0
 24 25  1  0  0  0  0
 24 26  1  0  0  0  0
M  END
$$$$
default_name
  -OEChem-02102213163D

 29 29  0     1  0  0  0  0  0999 V2000
   -2.9561   -3.9186    1.3887 H   0  0  0  0  0  0  0  0  0  0  0  0
   -3.1191   -2.9346    0.9517 C   0  0  0  0  0  0  0  0  0  0  0  0
   -3.7811   -2.3546    1.5917 H   0  0  0  0  0  0  0  0  0  0  0  0
   -3.5591   -3.0406   -0.0383 H   0  0  0  0  0  0  0  0  0  0  0  0
   -1.7921   -2.2226    0.8327 C   0  0  0  0  0  0  0  0  0  0  0  0
   -0.7611   -2.7766    1.1927 O   0  0  0  0  0  0  0  0  0  0  0  0
   -1.8201   -0.9926    0.3247 N   0  0  0  0  0  0  0  0  0  0  0  0
   -2.7141   -0.5816    0.0927 H   0  0  0  0  0  0  0  0  0  0  0  0
   -0.6481   -0.1156    0.2017 C   0  0  1  0  0  0  0  0  0  0  0  0
    0.1344   -0.4988    0.8596 H   0  0  0  0  0  0  0  0  0  0  0  0
   -0.1211   -0.1520   -1.2460 C   0  0  0  0  0  0  0  0  0  0  0  0
   -0.7838    0.4227   -1.8947 H   0  0  0  0  0  0  0  0  0  0  0  0
    0.8654    0.3114   -1.2913 H   0  0  0  0  0  0  0  0  0  0  0  0
   -0.0454   -1.5508   -1.8078 C   0  0  0  0  0  0  0  0  0  0  0  0
    0.3915   -1.8952   -3.0876 N   0  0  0  0  0  0  0  0  0  0  0  0
    0.3417   -3.2340   -3.1470 C   0  0  0  0  0  0  0  0  0  0  0  0
    0.6082   -3.8189   -4.0183 H   0  0  0  0  0  0  0  0  0  0  0  0
   -0.0749   -3.7406   -1.9743 N   0  0  0  0  0  0  0  0  0  0  0  0
   -0.1758   -4.7240   -1.7633 H   0  0  0  0  0  0  0  0  0  0  0  0
   -0.3205   -2.6932   -1.1146 C   0  0  0  0  0  0  0  0  0  0  0  0
   -0.6463   -2.7466   -0.0834 H   0  0  0  0  0  0  0  0  0  0  0  0
   -0.9851    1.3114    0.6698 C   0  0  0  0  0  0  0  0  0  0  0  0
   -2.0377    1.8431    0.3168 O   0  0  0  0  0  0  0  0  0  0  0  0
   -0.1052    1.9265    1.4663 N   0  0  0  0  0  0  0  0  0  0  0  0
    0.7810    1.4586    1.6201 H   0  0  0  0  0  0  0  0  0  0  0  0
   -0.2724    3.2715    2.0119 C   0  0  0  0  0  0  0  0  0  0  0  0
   -1.3249    3.4549    2.2426 H   0  0  0  0  0  0  0  0  0  0  0  0
    0.3167    3.3776    2.9239 H   0  0  0  0  0  0  0  0  0  0  0  0
    0.0609    4.0073    1.2782 H   0  0  0  0  0  0  0  0  0  0  0  0
  5  6  2  0  0  0  0
  5  7  1  0  0  0  0
  2  3  1  0  0  0  0
  2  4  1  0  0  0  0
  2  5  1  0  0  0  0
  1  2  1  0  0  0  0
 22 23  2  0  0  0  0
 22 24  1  0  0  0  0
 20 21  1  0  0  0  0
 18 19  1  0  0  0  0
 18 20  1  0  0  0  0
 16 17  1  0  0  0  0
 16 18  1  0  0  0  0
 15 16  2  0  0  0  0
 14 15  1  0  0  0  0
 14 20  2  0  0  0  0
 11 12  1  0  0  0  0
 11 13  1  0  0  0  0
 11 14  1  0  0  0  0
  9 10  1  0  0  0  0
  9 11  1  0  0  0  0
  9 22  1  0  0  0  0
  7  8  1  0  0  0  0
  7  9  1  0  0  0  0
 26 27  1  0  0  0  0
 26 28  1  0  0  0  0
 26 29  1  0  0  0  0
 24 25  1  0  0  0  0
 24 26  1  0  0  0  0
M  END
$$$$
default_name
  -OEChem-02102213163D

 29 29  0     1  0  0  0  0  0999 V2000
   -2.9561   -3.9186    1.3887 H   0  0  0  0  0  0  0  0  0  0  0  0
   -3.1191   -2.9346    0.9517 C   0  0  0  0  0  0  0  0  0  0  0  0
   -3.7811   -2.3546    1.5917 H   0  0  0  0  0  0  0  0  0  0  0  0
   -3.5591   -3.0406   -0.0383 H   0  0  0  0  0  0  0  0  0  0  0  0
   -1.7921   -2.2226    0.8327 C   0  0  0  0  0  0  0  0  0  0  0  0
   -0.7611   -2.7766    1.1927 O   0  0  0  0  0  0  0  0  0  0  0  0
   -1.8201   -0.9926    0.3247 N   0  0  0  0  0  0  0  0  0  0  0  0
   -2.7141   -0.5816    0.0927 H   0  0  0  0  0  0  0  0  0  0  0  0
   -0.6481   -0.1156    0.2017 C   0  0  1  0  0  0  0  0  0  0  0  0
    0.1344   -0.4988    0.8596 H   0  0  0  0  0  0  0  0  0  0  0  0
   -0.1211   -0.1520   -1.2460 C   0  0  0  0  0  0  0  0  0  0  0  0
   -0.7838    0.4227   -1.8947 H   0  0  0  0  0  0  0  0  0  0  0  0
    0.8654    0.3114   -1.2913 H   0  0  0  0  0  0  0  0  0  0  0  0
   -0.0454   -1.5508   -1.8078 C   0  0  0  0  0  0  0  0  0  0  0  0
    0.6518   -1.9348   -2.9540 N   0  0  0  0  0  0  0  0  0  0  0  0
    0.4911   -3.2621   -3.0567 C   0  0  0  0  0  0  0  0  0  0  0  0
    0.9027   -3.8692   -3.8531 H   0  0  0  0  0  0  0  0  0  0  0  0
   -0.2414   -3.7270   -2.0307 N   0  0  0  0  0  0  0  0  0  0  0  0
   -0.4828   -4.6961   -1.8743 H   0  0  0  0  0  0  0  0  0  0  0  0
   -0.5861   -2.6616   -1.2290 C   0  0  0  0  0  0  0  0  0  0  0  0
   -1.1540   -2.6841   -0.3074 H   0  0  0  0  0  0  0  0  0  0  0  0
   -0.9851    1.3114    0.6698 C   0  0  0  0  0  0  0  0  0  0  0  0
   -2.0377    1.8431    0.3168 O   0  0  0  0  0  0  0  0  0  0  0  0
   -0.1052    1.9265    1.4663 N   0  0  0  0  0  0  0  0  0  0  0  0
    0.7810    1.4586    1.6201 H   0  0  0  0  0  0  0  0  0  0  0  0
   -0.2724    3.2715    2.0119 C   0  0  0  0  0  0  0  0  0  0  0  0
   -1.3249    3.4549    2.2426 H   0  0  0  0  0  0  0  0  0  0  0  0
    0.3167    3.3776    2.9239 H   0  0  0  0  0  0  0  0  0  0  0  0
    0.0609    4.0073    1.2782 H   0  0  0  0  0  0  0  0  0  0  0  0
  5  6  2  0  0  0  0
  5  7  1  0  0  0  0
  2  3  1  0  0  0  0
  2  4  1  0  0  0  0
  2  5  1  0  0  0  0
  1  2  1  0  0  0  0
 22 23  2  0  0  0  0
 22 24  1  0  0  0  0
 20 21  1  0  0  0  0
 18 19  1  0  0  0  0
 18 20  1  0  0  0  0
 16 17  1  0  0  0  0
 16 18  1  0  0  0  0
 15 16  2  0  0  0  0
 14 15  1  0  0  0  0
 14 20  2  0  0  0  0
 11 12  1  0  0  0  0
 11 13  1  0  0  0  0
 11 14  1  0  0  0  0
  9 10  1  0  0  0  0
  9 11  1  0  0  0  0
  9 22  1  0  0  0  0
  7  8  1  0  0  0  0
  7  9  1  0  0  0  0
 26 27  1  0  0  0  0
 26 28  1  0  0  0  0
 26 29  1  0  0  0  0
 24 25  1  0  0  0  0
 24 26  1  0  0  0  0
M  END
$$$$
default_name
  -OEChem-02102213163D

 29 29  0     1  0  0  0  0  0999 V2000
   -2.9561   -3.9186    1.3887 H   0  0  0  0  0  0  0  0  0  0  0  0
   -3.1191   -2.9346    0.9517 C   0  0  0  0  0  0  0  0  0  0  0  0
   -3.7811   -2.3546    1.5917 H   0  0  0  0  0  0  0  0  0  0  0  0
   -3.5591   -3.0406   -0.0383 H   0  0  0  0  0  0  0  0  0  0  0  0
   -1.7921   -2.2226    0.8327 C   0  0  0  0  0  0  0  0  0  0  0  0
   -0.7611   -2.7766    1.1927 O   0  0  0  0  0  0  0  0  0  0  0  0
   -1.8201   -0.9926    0.3247 N   0  0  0  0  0  0  0  0  0  0  0  0
   -2.7141   -0.5816    0.0927 H   0  0  0  0  0  0  0  0  0  0  0  0
   -0.6481   -0.1156    0.2017 C   0  0  1  0  0  0  0  0  0  0  0  0
    0.1344   -0.4988    0.8596 H   0  0  0  0  0  0  0  0  0  0  0  0
   -0.1211   -0.1520   -1.2460 C   0  0  0  0  0  0  0  0  0  0  0  0
   -0.7838    0.4227   -1.8947 H   0  0  0  0  0  0  0  0  0  0  0  0
    0.8654    0.3114   -1.2913 H   0  0  0  0  0  0  0  0  0  0  0  0
   -0.0454   -1.5508   -1.8078 C   0  0  0  0  0  0  0  0  0  0  0  0
    0.8674   -1.9998   -2.7631 N   0  0  0  0  0  0  0  0  0  0  0  0
    0.6111   -3.3049   -2.9341 C   0  0  0  0  0  0  0  0  0  0  0  0
    1.1427   -3.9484   -3.6236 H   0  0  0  0  0  0  0  0  0  0  0  0
   -0.3873   -3.6970   -2.1249 N   0  0  0  0  0  0  0  0  0  0  0  0
   -0.7499   -4.6380   -2.0548 H   0  0  0  0  0  0  0  0  0  0  0  0
   -0.8122   -2.6040   -1.4028 C   0  0  0  0  0  0  0  0  0  0  0  0
   -1.5845   -2.5720   -0.6447 H   0  0  0  0  0  0  0  0  0  0  0  0
   -0.9851    1.3114    0.6698 C   0  0  0  0  0  0  0  0  0  0  0  0
   -2.0377    1.8431    0.3168 O   0  0  0  0  0  0  0  0  0  0  0  0
   -0.1052    1.9265    1.4663 N   0  0  0  0  0  0  0  0  0  0  0  0
    0.7810    1.4586    1.6201 H   0  0  0  0  0  0  0  0  0  0  0  0
   -0.2724    3.2715    2.0119 C   0  0  0  0  0  0  0  0  0  0  0  0
   -1.3249    3.4549    2.2426 H   0  0  0  0  0  0  0  0  0  0  0  0
    0.3167    3.3776    2.9239 H   0  0  0  0  0  0  0  0  0  0  0  0
    0.0609    4.0073    1.2782 H   0  0  0  0  0  0  0  0  0  0  0  0
  5  6  2  0  0  0  0
  5  7  1  0  0  0  0
  2  3  1  0  0  0  0
  2  4  1  0  0  0  0
  2  5  1  0  0  0  0
  1  2  1  0  0  0  0
 22 23  2  0  0  0  0
 22 24  1  0  0  0  0
 20 21  1  0  0  0  0
 18 19  1  0  0  0  0
 18 20  1  0  0  0  0
 16 17  1  0  0  0  0
 16 18  1  0  0  0  0
 15 16  2  0  0  0  0
 14 15  1  0  0  0  0
 14 20  2  0  0  0  0
 11 12  1  0  0  0  0
 11 13  1  0  0  0  0
 11 14  1  0  0  0  0
  9 10  1  0  0  0  0
  9 11  1  0  0  0  0
  9 22  1  0  0  0  0
  7  8  1  0  0  0  0
  7  9  1  0  0  0  0
 26 27  1  0  0  0  0
 26 28  1  0  0  0  0
 26 29  1  0  0  0  0
 24 25  1  0  0  0  0
 24 26  1  0  0  0  0
M  END
$$$$
default_name
  -OEChem-02102213163D

 29 29  0     1  0  0  0  0  0999 V2000
   -2.9561   -3.9186    1.3887 H   0  0  0  0  0  0  0  0  0  0  0  0
   -3.1191   -2.9346    0.9517 C   0  0  0  0  0  0  0  0  0  0  0  0
   -3.7811   -2.3546    1.5917 H   0  0  0  0  0  0  0  0  0  0  0  0
   -3.5591   -3.0406   -0.0383 H   0  0  0  0  0  0  0  0  0  0  0  0
   -1.7921   -2.2226    0.8327 C   0  0  0  0  0  0  0  0  0  0  0  0
   -0.7611   -2.7766    1.1927 O   0  0  0  0  0  0  0  0  0  0  0  0
   -1.8201   -0.9926    0.3247 N   0  0  0  0  0  0  0  0  0  0  0  0
   -2.7141   -0.5816    0.0927 H   0  0  0  0  0  0  0  0  0  0  0  0
   -0.6481   -0.1156    0.2017 C   0  0  1  0  0  0  0  0  0  0  0  0
    0.1344   -0.4988    0.8596 H   0  0  0  0  0  0  0  0  0  0  0  0
   -0.1211   -0.1520   -1.2460 C   0  0  0  0  0  0  0  0  0  0  0  0
   -0.7838    0.4227   -1.8947 H   0  0  0  0  0  0  0  0  0  0  0  0
    0.8654    0.3114   -1.2913 H   0  0  0  0  0  0  0  0  0  0  0  0
   -0.0454   -1.5508   -1.8078 C   0  0  0  0  0  0  0  0  0  0  0  0
    1.0236   -2.0858   -2.5278 N   0  0  0  0  0  0  0  0  0  0  0  0
    0.6934   -3.3594   -2.7874 C   0  0  0  0  0  0  0  0  0  0  0  0
    1.3118   -4.0510   -3.3454 H   0  0  0  0  0  0  0  0  0  0  0  0
   -0.5028   -3.6529   -2.2504 N   0  0  0  0  0  0  0  0  0  0  0  0
   -0.9591   -4.5539   -2.2925 H   0  0  0  0  0  0  0  0  0  0  0  0
   -0.9833   -2.5244   -1.6242 C   0  0  0  0  0  0  0  0  0  0  0  0
   -1.9087   -2.4178   -1.0723 H   0  0  0  0  0  0  0  0  0  0  0  0
   -0.9851    1.3114    0.6698 C   0  0  0  0  0  0  0  0  0  0  0  0
   -2.0377    1.8431    0.3168 O   0  0  0  0  0  0  0  0  0  0  0  0
   -0.1052    1.9265    1.4663 N   0  0  0  0  0  0  0  0  0  0  0  0
    0.7810    1.4586    1.6201 H   0  0  0  0  0  0  0  0  0  0  0  0
   -0.2724    3.2715    2.0119 C   0  0  0  0  0  0  0  0  0  0  0  0
   -1.3249    3.4549    2.2426 H   0  0  0  0  0  0  0  0  0  0  0  0
    0.3167    3.3776    2.9239 H   0  0  0  0  0  0  0  0  0  0  0  0
    0.0609    4.0073    1.2782 H   0  0  0  0  0  0  0  0  0  0  0  0
  5  6  2  0  0  0  0
  5  7  1  0  0  0  0
  2  3  1  0  0  0  0
  2  4  1  0  0  0  0
  2  5  1  0  0  0  0
  1  2  1  0  0  0  0
 22 23  2  0  0  0  0
 22 24  1  0  0  0  0
 20 21  1  0  0  0  0
 18 19  1  0  0  0  0
 18 20  1  0  0  0  0
 16 17  1  0  0  0  0
 16 18  1  0  0  0  0
 15 16  2  0  0  0  0
 14 15  1  0  0  0  0
 14 20  2  0  0  0  0
 11 12  1  0  0  0  0
 11 13  1  0  0  0  0
 11 14  1  0  0  0  0
  9 10  1  0  0  0  0
  9 11  1  0  0  0  0
  9 22  1  0  0  0  0
  7  8  1  0  0  0  0
  7  9  1  0  0  0  0
 26 27  1  0  0  0  0
 26 28  1  0  0  0  0
 26 29  1  0  0  0  0
 24 25  1  0  0  0  0
 24 26  1  0  0  0  0
M  END
$$$$
default_name
  -OEChem-02102213163D

 29 29  0     1  0  0  0  0  0999 V2000
   -2.9561   -3.9186    1.3887 H   0  0  0  0  0  0  0  0  0  0  0  0
   -3.1191   -2.9346    0.9517 C   0  0  0  0  0  0  0  0  0  0  0  0
   -3.7811   -2.3546    1.5917 H   0  0  0  0  0  0  0  0  0  0  0  0
   -3.5591   -3.0406   -0.0383 H   0  0  0  0  0  0  0  0  0  0  0  0
   -1.7921   -2.2226    0.8327 C   0  0  0  0  0  0  0  0  0  0  0  0
   -0.7611   -2.7766    1.1927 O   0  0  0  0  0  0  0  0  0  0  0  0
   -1.8201   -0.9926    0.3247 N   0  0  0  0  0  0  0  0  0  0  0  0
   -2.7141   -0.5816    0.0927 H   0  0  0  0  0  0  0  0  0  0  0  0
   -0.6481   -0.1156    0.2017 C   0  0  1  0  0  0  0  0  0  0  0  0
    0.1344   -0.4988    0.8596 H   0  0  0  0  0  0  0  0  0  0  0  0
   -0.1211   -0.1520   -1.2460 C   0  0  0  0  0  0  0  0  0  0  0  0
   -0.7838    0.4227   -1.8947 H   0  0  0  0  0  0  0  0  0  0  0  0
    0.8654    0.3114   -1.2913 H   0  0  0  0  0  0  0  0  0  0  0  0
   -0.0454   -1.5508   -1.8078 C   0  0  0  0  0  0  0  0  0  0  0  0
    1.1097   -2.1871   -2.2642 N   0  0  0  0  0  0  0  0  0  0  0  0
    0.7325   -3.4218   -2.6266 C   0  0  0  0  0  0  0  0  0  0  0  0
    1.3986   -4.1700   -3.0374 H   0  0  0  0  0  0  0  0  0  0  0  0
   -0.5800   -3.5974   -2.3989 N   0  0  0  0  0  0  0  0  0  0  0  0
   -1.0961   -4.4494   -2.5712 H   0  0  0  0  0  0  0  0  0  0  0  0
   -1.0878   -2.4280   -1.8781 C   0  0  0  0  0  0  0  0  0  0  0  0
   -2.1044   -2.2320   -1.5611 H   0  0  0  0  0  0  0  0  0  0  0  0
   -0.9851    1.3114    0.6698 C   0  0  0  0  0  0  0  0  0  0  0  0
   -2.0377    1.8431    0.3168 O   0  0  0  0  0  0  0  0  0  0  0  0
   -0.1052    1.9265    1.4663 N   0  0  0  0  0  0  0  0  0  0  0  0
    0.7810    1.4586    1.6201 H   0  0  0  0  0  0  0  0  0  0  0  0
   -0.2724    3.2715    2.0119 C   0  0  0  0  0  0  0  0  0  0  0  0
   -1.3249    3.4549    2.2426 H   0  0  0  0  0  0  0  0  0  0  0  0
    0.3167    3.3776    2.9239 H   0  0  0  0  0  0  0  0  0  0  0  0
    0.0609    4.0073    1.2782 H   0  0  0  0  0  0  0  0  0  0  0  0
  5  6  2  0  0  0  0
  5  7  1  0  0  0  0
  2  3  1  0  0  0  0
  2  4  1  0  0  0  0
  2  5  1  0  0  0  0
  1  2  1  0  0  0  0
 22 23  2  0  0  0  0
 22 24  1  0  0  0  0
 20 21  1  0  0  0  0
 18 19  1  0  0  0  0
 18 20  1  0  0  0  0
 16 17  1  0  0  0  0
 16 18  1  0  0  0  0
 15 16  2  0  0  0  0
 14 15  1  0  0  0  0
 14 20  2  0  0  0  0
 11 12  1  0  0  0  0
 11 13  1  0  0  0  0
 11 14  1  0  0  0  0
  9 10  1  0  0  0  0
  9 11  1  0  0  0  0
  9 22  1  0  0  0  0
  7  8  1  0  0  0  0
  7  9  1  0  0  0  0
 26 27  1  0  0  0  0
 26 28  1  0  0  0  0
 26 29  1  0  0  0  0
 24 25  1  0  0  0  0
 24 26  1  0  0  0  0
M  END
$$$$
default_name
  -OEChem-02102213163D

 29 29  0     1  0  0  0  0  0999 V2000
   -2.9561   -3.9186    1.3887 H   0  0  0  0  0  0  0  0  0  0  0  0
   -3.1191   -2.9346    0.9517 C   0  0  0  0  0  0  0  0  0  0  0  0
   -3.7811   -2.3546    1.5917 H   0  0  0  0  0  0  0  0  0  0  0  0
   -3.5591   -3.0406   -0.0383 H   0  0  0  0  0  0  0  0  0  0  0  0
   -1.7921   -2.2226    0.8327 C   0  0  0  0  0  0  0  0  0  0  0  0
   -0.7611   -2.7766    1.1927 O   0  0  0  0  0  0  0  0  0  0  0  0
   -1.8201   -0.9926    0.3247 N   0  0  0  0  0  0  0  0  0  0  0  0
   -2.7141   -0.5816    0.0927 H   0  0  0  0  0  0  0  0  0  0  0  0
   -0.6481   -0.1156    0.2017 C   0  0  1  0  0  0  0  0  0  0  0  0
    0.1344   -0.4988    0.8596 H   0  0  0  0  0  0  0  0  0  0  0  0
   -0.1211   -0.1520   -1.2460 C   0  0  0  0  0  0  0  0  0  0  0  0
   -0.7838    0.4227   -1.8947 H   0  0  0  0  0  0  0  0  0  0  0  0
    0.8654    0.3114   -1.2913 H   0  0  0  0  0  0  0  0  0  0  0  0
   -0.0454   -1.5508   -1.8078 C   0  0  0  0  0  0  0  0  0  0  0  0
    1.1199   -2.2966   -1.9902 N   0  0  0  0  0  0  0  0  0  0  0  0
    0.7257   -3.4880   -2.4628 C   0  0  0  0  0  0  0  0  0  0  0  0
    1.3970   -4.2973   -2.7207 H   0  0  0  0  0  0  0  0  0  0  0  0
   -0.6136   -3.5345   -2.5601 N   0  0  0  0  0  0  0  0  0  0  0  0
   -1.1514   -4.3316   -2.8718 H   0  0  0  0  0  0  0  0  0  0  0  0
   -1.1186   -2.3217   -2.1471 C   0  0  0  0  0  0  0  0  0  0  0  0
   -2.1583   -2.0274   -2.0778 H   0  0  0  0  0  0  0  0  0  0  0  0
   -0.9851    1.3114    0.6698 C   0  0  0  0  0  0  0  0  0  0  0  0
   -2.0377    1.8431    0.3168 O   0  0  0  0  0  0  0  0  0  0  0  0
   -0.1052    1.9265    1.4663 N   0  0  0  0  0  0  0  0  0  0  0  0
    0.7810    1.4586    1.6201 H   0  0  0  0  0  0  0  0  0  0  0  0
   -0.2724    3.2715    2.0119 C   0  0  0  0  0  0  0  0  0  0  0  0
   -1.3249    3.4549    2.2426 H   0  0  0  0  0  0  0  0  0  0  0  0
    0.3167    3.3776    2.9239 H   0  0  0  0  0  0  0  0  0  0  0  0
    0.0609    4.0073    1.2782 H   0  0  0  0  0  0  0  0  0  0  0  0
  5  6  2  0  0  0  0
  5  7  1  0  0  0  0
  2  3  1  0  0  0  0
  2  4  1  0  0  0  0
  2  5  1  0  0  0  0
  1  2  1  0  0  0  0
 22 23  2  0  0  0  0
 22 24  1  0  0  0  0
 20 21  1  0  0  0  0
 18 19  1  0  0  0  0
 18 20  1  0  0  0  0
 16 17  1  0  0  0  0
 16 18  1  0  0  0  0
 15 16  2  0  0  0  0
 14 15  1  0  0  0  0
 14 20  2  0  0  0  0
 11 12  1  0  0  0  0
 11 13  1  0  0  0  0
 11 14  1  0  0  0  0
  9 10  1  0  0  0  0
  9 11  1  0  0  0  0
  9 22  1  0  0  0  0
  7  8  1  0  0  0  0
  7  9  1  0  0  0  0
 26 27  1  0  0  0  0
 26 28  1  0  0  0  0
 26 29  1  0  0  0  0
 24 25  1  0  0  0  0
 24 26  1  0  0  0  0
M  END
$$$$
default_name
  -OEChem-02102213163D

 29 29  0     1  0  0  0  0  0999 V2000
   -2.9561   -3.9186    1.3887 H   0  0  0  0  0  0  0  0  0  0  0  0
   -3.1191   -2.9346    0.9517 C   0  0  0  0  0  0  0  0  0  0  0  0
   -3.7811   -2.3546    1.5917 H   0  0  0  0  0  0  0  0  0  0  0  0
   -3.5591   -3.0406   -0.0383 H   0  0  0  0  0  0  0  0  0  0  0  0
   -1.7921   -2.2226    0.8327 C   0  0  0  0  0  0  0  0  0  0  0  0
   -0.7611   -2.7766    1.1927 O   0  0  0  0  0  0  0  0  0  0  0  0
   -1.8201   -0.9926    0.3247 N   0  0  0  0  0  0  0  0  0  0  0  0
   -2.7141   -0.5816    0.0927 H   0  0  0  0  0  0  0  0  0  0  0  0
   -0.6481   -0.1156    0.2017 C   0  0  1  0  0  0  0  0  0  0  0  0
    0.1344   -0.4988    0.8596 H   0  0  0  0  0  0  0  0  0  0  0  0
   -0.1211   -0.1520   -1.2460 C   0  0  0  0  0  0  0  0  0  0  0  0
   -0.7838    0.4227   -1.8947 H   0  0  0  0  0  0  0  0  0  0  0  0
    0.8654    0.3114   -1.2913 H   0  0  0  0  0  0  0  0  0  0  0  0
   -0.0454   -1.5508   -1.8078 C   0  0  0  0  0  0  0  0  0  0  0  0
    1.0535   -2.4069   -1.7245 N   0  0  0  0  0  0  0  0  0  0  0  0
    0.6734   -3.5534   -2.3070 C   0  0  0  0  0  0  0  0  0  0  0  0
    1.3073   -4.4243   -2.4168 H   0  0  0  0  0  0  0  0  0  0  0  0
   -0.6014   -3.4684   -2.7230 N   0  0  0  0  0  0  0  0  0  0  0  0
   -1.1215   -4.2086   -3.1740 H   0  0  0  0  0  0  0  0  0  0  0  0
   -1.0736   -2.2124   -2.4130 C   0  0  0  0  0  0  0  0  0  0  0  0
   -2.0667   -1.8179   -2.5871 H   0  0  0  0  0  0  0  0  0  0  0  0
   -0.9851    1.3114    0.6698 C   0  0  0  0  0  0  0  0  0  0  0  0
   -2.0377    1.8431    0.3168 O   0  0  0  0  0  0  0  0  0  0  0  0
   -0.1052    1.9265    1.4663 N   0  0  0  0  0  0  0  0  0  0  0  0
    0.7810    1.4586    1.6201 H   0  0  0  0  0  0  0  0  0  0  0  0
   -0.2724    3.2715    2.0119 C   0  0  0  0  0  0  0  0  0  0  0  0
   -1.3249    3.4549    2.2426 H   0  0  0  0  0  0  0  0  0  0  0  0
    0.3167    3.3776    2.9239 H   0  0  0  0  0  0  0  0  0  0  0  0
    0.0609    4.0073    1.2782 H   0  0  0  0  0  0  0  0  0  0  0  0
  5  6  2  0  0  0  0
  5  7  1  0  0  0  0
  2  3  1  0  0  0  0
  2  4  1  0  0  0  0
  2  5  1  0  0  0  0
  1  2  1  0  0  0  0
 22 23  2  0  0  0  0
 22 24  1  0  0  0  0
 20 21  1  0  0  0  0
 18 19  1  0  0  0  0
 18 20  1  0  0  0  0
 16 17  1  0  0  0  0
 16 18  1  0  0  0  0
 15 16  2  0  0  0  0
 14 15  1  0  0  0  0
 14 20  2  0  0  0  0
 11 12  1  0  0  0  0
 11 13  1  0  0  0  0
 11 14  1  0  0  0  0
  9 10  1  0  0  0  0
  9 11  1  0  0  0  0
  9 22  1  0  0  0  0
  7  8  1  0  0  0  0
  7  9  1  0  0  0  0
 26 27  1  0  0  0  0
 26 28  1  0  0  0  0
 26 29  1  0  0  0  0
 24 25  1  0  0  0  0
 24 26  1  0  0  0  0
M  END
$$$$
default_name
  -OEChem-02102213163D

 29 29  0     1  0  0  0  0  0999 V2000
   -2.9561   -3.9186    1.3887 H   0  0  0  0  0  0  0  0  0  0  0  0
   -3.1191   -2.9346    0.9517 C   0  0  0  0  0  0  0  0  0  0  0  0
   -3.7811   -2.3546    1.5917 H   0  0  0  0  0  0  0  0  0  0  0  0
   -3.5591   -3.0406   -0.0383 H   0  0  0  0  0  0  0  0  0  0  0  0
   -1.7921   -2.2226    0.8327 C   0  0  0  0  0  0  0  0  0  0  0  0
   -0.7611   -2.7766    1.1927 O   0  0  0  0  0  0  0  0  0  0  0  0
   -1.8201   -0.9926    0.3247 N   0  0  0  0  0  0  0  0  0  0  0  0
   -2.7141   -0.5816    0.0927 H   0  0  0  0  0  0  0  0  0  0  0  0
   -0.6481   -0.1156    0.2017 C   0  0  1  0  0  0  0  0  0  0  0  0
    0.1344   -0.4988    0.8596 H   0  0  0  0  0  0  0  0  0  0  0  0
   -0.1211   -0.1520   -1.2460 C   0  0  0  0  0  0  0  0  0  0  0  0
   -0.7838    0.4227   -1.8947 H   0  0  0  0  0  0  0  0  0  0  0  0
    0.8654    0.3114   -1.2913 H   0  0  0  0  0  0  0  0  0  0  0  0
   -0.0454   -1.5508   -1.8078 C   0  0  0  0  0  0  0  0  0  0  0  0
    0.9150   -2.5105   -1.4852 N   0  0  0  0  0  0  0  0  0  0  0  0
    0.5793   -3.6136   -2.1699 C   0  0  0  0  0  0  0  0  0  0  0  0
    1.1355   -4.5422   -2.1464 H   0  0  0  0  0  0  0  0  0  0  0  0
   -0.5441   -3.4036   -2.8766 N   0  0  0  0  0  0  0  0  0  0  0  0
   -1.0082   -4.0888   -3.4570 H   0  0  0  0  0  0  0  0  0  0  0  0
   -0.9558   -2.1078   -2.6575 C   0  0  0  0  0  0  0  0  0  0  0  0
   -1.8359   -1.6177   -3.0544 H   0  0  0  0  0  0  0  0  0  0  0  0
   -0.9851    1.3114    0.6698 C   0  0  0  0  0  0  0  0  0  0  0  0
   -2.0377    1.8431    0.3168 O   0  0  0  0  0  0  0  0  0  0  0  0
   -0.1052    1.9265    1.4663 N   0  0  0  0  0  0  0  0  0  0  0  0
    0.7810    1.4586    1.6201 H   0  0  0  0  0  0  0  0  0  0  0  0
   -0.2724    3.2715    2.0119 C   0  0  0  0  0  0  0  0  0  0  0  0
   -1.3249    3.4549    2.2426 H   0  0  0  0  0  0  0  0  0  0  0  0
    0.3167    3.3776    2.9239 H   0  0  0  0  0  0  0  0  0  0  0  0
    0.0609    4.0073    1.2782 H   0  0  0  0  0  0  0  0  0  0  0  0
  5  6  2  0  0  0  0
  5  7  1  0  0  0  0
  2  3  1  0  0  0  0
  2  4  1  0  0  0  0
  2  5  1  0  0  0  0
  1  2  1  0  0  0  0
 22 23  2  0  0  0  0
 22 24  1  0  0  0  0
 20 21  1  0  0  0  0
 18 19  1  0  0  0  0
 18 20  1  0  0  0  0
 16 17  1  0  0  0  0
 16 18  1  0  0  0  0
 15 16  2  0  0  0  0
 14 15  1  0  0  0  0
 14 20  2  0  0  0  0
 11 12  1  0  0  0  0
 11 13  1  0  0  0  0
 11 14  1  0  0  0  0
  9 10  1  0  0  0  0
  9 11  1  0  0  0  0
  9 22  1  0  0  0  0
  7  8  1  0  0  0  0
  7  9  1  0  0  0  0
 26 27  1  0  0  0  0
 26 28  1  0  0  0  0
 26 29  1  0  0  0  0
 24 25  1  0  0  0  0
 24 26  1  0  0  0  0
M  END
$$$$
default_name
  -OEChem-02102213163D

 29 29  0     1  0  0  0  0  0999 V2000
   -2.9561   -3.9186    1.3887 H   0  0  0  0  0  0  0  0  0  0  0  0
   -3.1191   -2.9346    0.9517 C   0  0  0  0  0  0  0  0  0  0  0  0
   -3.7811   -2.3546    1.5917 H   0  0  0  0  0  0  0  0  0  0  0  0
   -3.5591   -3.0406   -0.0383 H   0  0  0  0  0  0  0  0  0  0  0  0
   -1.7921   -2.2226    0.8327 C   0  0  0  0  0  0  0  0  0  0  0  0
   -0.7611   -2.7766    1.1927 O   0  0  0  0  0  0  0  0  0  0  0  0
   -1.8201   -0.9926    0.3247 N   0  0  0  0  0  0  0  0  0  0  0  0
   -2.7141   -0.5816    0.0927 H   0  0  0  0  0  0  0  0  0  0  0  0
   -0.6481   -0.1156    0.2017 C   0  0  1  0  0  0  0  0  0  0  0  0
    0.1344   -0.4988    0.8596 H   0  0  0  0  0  0  0  0  0  0  0  0
   -0.1211   -0.1520   -1.2460 C   0  0  0  0  0  0  0  0  0  0  0  0
   -0.7838    0.4227   -1.8947 H   0  0  0  0  0  0  0  0  0  0  0  0
    0.8654    0.3114   -1.2913 H   0  0  0  0  0  0  0  0  0  0  0  0
   -0.0454   -1.5508   -1.8078 C   0  0  0  0  0  0  0  0  0  0  0  0
    0.7138   -2.6003   -1.2887 N   0  0  0  0  0  0  0  0  0  0  0  0
    0.4497   -3.6644   -2.0609 C   0  0  0  0  0  0  0  0  0  0  0  0
    0.8933   -4.6430   -1.9279 H   0  0  0  0  0  0  0  0  0  0  0  0
   -0.4456   -3.3446   -3.0103 N   0  0  0  0  0  0  0  0  0  0  0  0
   -0.8193   -3.9803   -3.7017 H   0  0  0  0  0  0  0  0  0  0  0  0
   -0.7733   -2.0150   -2.8642 C   0  0  0  0  0  0  0  0  0  0  0  0
   -1.4816   -1.4405   -3.4479 H   0  0  0  0  0  0  0  0  0  0  0  0
   -0.9851    1.3114    0.6698 C   0  0  0  0  0  0  0  0  0  0  0  0
   -2.0377    1.8431    0.3168 O   0  0  0  0  0  0  0  0  0  0  0  0
   -0.1052    1.9265    1.4663 N   0  0  0  0  0  0  0  0  0  0  0  0
    0.7810    1.4586    1.6201 H   0  0  0  0  0  0  0  0  0  0  0  0
   -0.2724    3.2715    2.0119 C   0  0  0  0  0  0  0  0  0  0  0  0
   -1.3249    3.4549    2.2426 H   0  0  0  0  0  0  0  0  0  0  0  0
    0.3167    3.3776    2.9239 H   0  0  0  0  0  0  0  0  0  0  0  0
    0.0609    4.0073    1.2782 H   0  0  0  0  0  0  0  0  0  0  0  0
  5  6  2  0  0  0  0
  5  7  1  0  0  0  0
  2  3  1  0  0  0  0
  2  4  1  0  0  0  0
  2  5  1  0  0  0  0
  1  2  1  0  0  0  0
 22 23  2  0  0  0  0
 22 24  1  0  0  0  0
 20 21  1  0  0  0  0
 18 19  1  0  0  0  0
 18 20  1  0  0  0  0
 16 17  1  0  0  0  0
 16 18  1  0  0  0  0
 15 16  2  0  0  0  0
 14 15  1  0  0  0  0
 14 20  2  0  0  0  0
 11 12  1  0  0  0  0
 11 13  1  0  0  0  0
 11 14  1  0  0  0  0
  9 10  1  0  0  0  0
  9 11  1  0  0  0  0
  9 22  1  0  0  0  0
  7  8  1  0  0  0  0
  7  9  1  0  0  0  0
 26 27  1  0  0  0  0
 26 28  1  0  0  0  0
 26 29  1  0  0  0  0
 24 25  1  0  0  0  0
 24 26  1  0  0  0  0
M  END
$$$$
default_name
  -OEChem-02102213163D

 29 29  0     1  0  0  0  0  0999 V2000
   -2.9561   -3.9186    1.3887 H   0  0  0  0  0  0  0  0  0  0  0  0
   -3.1191   -2.9346    0.9517 C   0  0  0  0  0  0  0  0  0  0  0  0
   -3.7811   -2.3546    1.5917 H   0  0  0  0  0  0  0  0  0  0  0  0
   -3.5591   -3.0406   -0.0383 H   0  0  0  0  0  0  0  0  0  0  0  0
   -1.7921   -2.2226    0.8327 C   0  0  0  0  0  0  0  0  0  0  0  0
   -0.7611   -2.7766    1.1927 O   0  0  0  0  0  0  0  0  0  0  0  0
   -1.8201   -0.9926    0.3247 N   0  0  0  0  0  0  0  0  0  0  0  0
   -2.7141   -0.5816    0.0927 H   0  0  0  0  0  0  0  0  0  0  0  0
   -0.6481   -0.1156    0.2017 C   0  0  1  0  0  0  0  0  0  0  0  0
    0.1344   -0.4988    0.8596 H   0  0  0  0  0  0  0  0  0  0  0  0
   -0.1211   -0.1520   -1.2460 C   0  0  0  0  0  0  0  0  0  0  0  0
   -0.7838    0.4227   -1.8947 H   0  0  0  0  0  0  0  0  0  0  0  0
    0.8654    0.3114   -1.2913 H   0  0  0  0  0  0  0  0  0  0  0  0
   -0.0454   -1.5508   -1.8078 C   0  0  0  0  0  0  0  0  0  0  0  0
    0.4637   -2.6702   -1.1483 N   0  0  0  0  0  0  0  0  0  0  0  0
    0.2934   -3.7024   -1.9873 C   0  0  0  0  0  0  0  0  0  0  0  0
    0.5973   -4.7199   -1.7763 H   0  0  0  0  0  0  0  0  0  0  0  0
   -0.3128   -3.2953   -3.1152 N   0  0  0  0  0  0  0  0  0  0  0  0
   -0.5677   -3.8905   -3.8914 H   0  0  0  0  0  0  0  0  0  0  0  0
   -0.5385   -1.9401   -3.0188 C   0  0  0  0  0  0  0  0  0  0  0  0
   -1.0279   -1.2984   -3.7406 H   0  0  0  0  0  0  0  0  0  0  0  0
   -0.9851    1.3114    0.6698 C   0  0  0  0  0  0  0  0  0  0  0  0
   -2.0377    1.8431    0.3168 O   0  0  0  0  0  0  0  0  0  0  0  0
   -0.1052    1.9265    1.4663 N   0  0  0  0  0  0  0  0  0  0  0  0
    0.7810    1.4586    1.6201 H   0  0  0  0  0  0  0  0  0  0  0  0
   -0.2724    3.2715    2.0119 C   0  0  0  0  0  0  0  0  0  0  0  0
   -1.3249    3.4549    2.2426 H   0  0  0  0  0  0  0  0  0  0  0  0
    0.3167    3.3776    2.9239 H   0  0  0  0  0  0  0  0  0  0  0  0
    0.0609    4.0073    1.2782 H   0  0  0  0  0  0  0  0  0  0  0  0
  5  6  2  0  0  0  0
  5  7  1  0  0  0  0
  2  3  1  0  0  0  0
  2  4  1  0  0  0  0
  2  5  1  0  0  0  0
  1  2  1  0  0  0  0
 22 23  2  0  0  0  0
 22 24  1  0  0  0  0
 20 21  1  0  0  0  0
 18 19  1  0  0  0  0
 18 20  1  0  0  0  0
 16 17  1  0  0  0  0
 16 18  1  0  0  0  0
 15 16  2  0  0  0  0
 14 15  1  0  0  0  0
 14 20  2  0  0  0  0
 11 12  1  0  0  0  0
 11 13  1  0  0  0  0
 11 14  1  0  0  0  0
  9 10  1  0  0  0  0
  9 11  1  0  0  0  0
  9 22  1  0  0  0  0
  7  8  1  0  0  0  0
  7  9  1  0  0  0  0
 26 27  1  0  0  0  0
 26 28  1  0  0  0  0
 26 29  1  0  0  0  0
 24 25  1  0  0  0  0
 24 26  1  0  0  0  0
M  END
$$$$
default_name
  -OEChem-02102213163D

 29 29  0     1  0  0  0  0  0999 V2000
   -2.9561   -3.9186    1.3887 H   0  0  0  0  0  0  0  0  0  0  0  0
   -3.1191   -2.9346    0.9517 C   0  0  0  0  0  0  0  0  0  0  0  0
   -3.7811   -2.3546    1.5917 H   0  0  0  0  0  0  0  0  0  0  0  0
   -3.5591   -3.0406   -0.0383 H   0  0  0  0  0  0  0  0  0  0  0  0
   -1.7921   -2.2226    0.8327 C   0  0  0  0  0  0  0  0  0  0  0  0
   -0.7611   -2.7766    1.1927 O   0  0  0  0  0  0  0  0  0  0  0  0
   -1.8201   -0.9926    0.3247 N   0  0  0  0  0  0  0  0  0  0  0  0
   -2.7141   -0.5816    0.0927 H   0  0  0  0  0  0  0  0  0  0  0  0
   -0.6481   -0.1156    0.2017 C   0  0  1  0  0  0  0  0  0  0  0  0
    0.1344   -0.4988    0.8596 H   0  0  0  0  0  0  0  0  0  0  0  0
   -0.1211   -0.1520   -1.2460 C   0  0  0  0  0  0  0  0  0  0  0  0
   -0.7838    0.4227   -1.8947 H   0  0  0  0  0  0  0  0  0  0  0  0
    0.8654    0.3114   -1.2913 H   0  0  0  0  0  0  0  0  0  0  0  0
   -0.0454   -1.5508   -1.8078 C   0  0  0  0  0  0  0  0  0  0  0  0
    0.1817   -2.7155   -1.0735 N   0  0  0  0  0  0  0  0  0  0  0  0
    0.1212   -3.7250   -1.9542 C   0  0  0  0  0  0  0  0  0  0  0  0
    0.2676   -4.7677   -1.7019 H   0  0  0  0  0  0  0  0  0  0  0  0
   -0.1546   -3.2591   -3.1839 N   0  0  0  0  0  0  0  0  0  0  0  0
   -0.2706   -3.8256   -4.0131 H   0  0  0  0  0  0  0  0  0  0  0  0
   -0.2674   -1.8885   -3.1108 C   0  0  0  0  0  0  0  0  0  0  0  0
   -0.5057   -1.2010   -3.9126 H   0  0  0  0  0  0  0  0  0  0  0  0
   -0.9851    1.3114    0.6698 C   0  0  0  0  0  0  0  0  0  0  0  0
   -2.0377    1.8431    0.3168 O   0  0  0  0  0  0  0  0  0  0  0  0
   -0.1052    1.9265    1.4663 N   0  0  0  0  0  0  0  0  0  0  0  0
    0.7810    1.4586    1.6201 H   0  0  0  0  0  0  0  0  0  0  0  0
   -0.2724    3.2715    2.0119 C   0  0  0  0  0  0  0  0  0  0  0  0
   -1.3249    3.4549    2.2426 H   0  0  0  0  0  0  0  0  0  0  0  0
    0.3167    3.3776    2.9239 H   0  0  0  0  0  0  0  0  0  0  0  0
    0.0609    4.0073    1.2782 H   0  0  0  0  0  0  0  0  0  0  0  0
  5  6  2  0  0  0  0
  5  7  1  0  0  0  0
  2  3  1  0  0  0  0
  2  4  1  0  0  0  0
  2  5  1  0  0  0  0
  1  2  1  0  0  0  0
 22 23  2  0  0  0  0
 22 24  1  0  0  0  0
 20 21  1  0  0  0  0
 18 19  1  0  0  0  0
 18 20  1  0  0  0  0
 16 17  1  0  0  0  0
 16 18  1  0  0  0  0
 15 16  2  0  0  0  0
 14 15  1  0  0  0  0
 14 20  2  0  0  0  0
 11 12  1  0  0  0  0
 11 13  1  0  0  0  0
 11 14  1  0  0  0  0
  9 10  1  0  0  0  0
  9 11  1  0  0  0  0
  9 22  1  0  0  0  0
  7  8  1  0  0  0  0
  7  9  1  0  0  0  0
 26 27  1  0  0  0  0
 26 28  1  0  0  0  0
 26 29  1  0  0  0  0
 24 25  1  0  0  0  0
 24 26  1  0  0  0  0
M  END
$$$$
default_name
  -OEChem-02102213163D

 29 29  0     1  0  0  0  0  0999 V2000
   -2.9561   -3.9186    1.3887 H   0  0  0  0  0  0  0  0  0  0  0  0
   -3.1191   -2.9346    0.9517 C   0  0  0  0  0  0  0  0  0  0  0  0
   -3.7811   -2.3546    1.5917 H   0  0  0  0  0  0  0  0  0  0  0  0
   -3.5591   -3.0406   -0.0383 H   0  0  0  0  0  0  0  0  0  0  0  0
   -1.7921   -2.2226    0.8327 C   0  0  0  0  0  0  0  0  0  0  0  0
   -0.7611   -2.7766    1.1927 O   0  0  0  0  0  0  0  0  0  0  0  0
   -1.8201   -0.9926    0.3247 N   0  0  0  0  0  0  0  0  0  0  0  0
   -2.7141   -0.5816    0.0927 H   0  0  0  0  0  0  0  0  0  0  0  0
   -0.6481   -0.1156    0.2017 C   0  0  1  0  0  0  0  0  0  0  0  0
    0.1344   -0.4988    0.8596 H   0  0  0  0  0  0  0  0  0  0  0  0
   -0.1211   -0.1520   -1.2460 C   0  0  0  0  0  0  0  0  0  0  0  0
   -0.7838    0.4227   -1.8947 H   0  0  0  0  0  0  0  0  0  0  0  0
    0.8654    0.3114   -1.2913 H   0  0  0  0  0  0  0  0  0  0  0  0
   -0.0454   -1.5508   -1.8078 C   0  0  0  0  0  0  0  0  0  0  0  0
   -0.1130   -2.7331   -1.0695 N   0  0  0  0  0  0  0  0  0  0  0  0
   -0.0553   -3.7307   -1.9638 C   0  0  0  0  0  0  0  0  0  0  0  0
   -0.0734   -4.7830   -1.7097 H   0  0  0  0  0  0  0  0  0  0  0  0
    0.0182   -3.2385   -3.2119 N   0  0  0  0  0  0  0  0  0  0  0  0
    0.0519   -3.7899   -4.0585 H   0  0  0  0  0  0  0  0  0  0  0  0
    0.0216   -1.8635   -3.1341 C   0  0  0  0  0  0  0  0  0  0  0  0
    0.0493   -1.1550   -3.9523 H   0  0  0  0  0  0  0  0  0  0  0  0
   -0.9851    1.3114    0.6698 C   0  0  0  0  0  0  0  0  0  0  0  0
   -2.0377    1.8431    0.3168 O   0  0  0  0  0  0  0  0  0  0  0  0
   -0.1052    1.9265    1.4663 N   0  0  0  0  0  0  0  0  0  0  0  0
    0.7810    1.4586    1.6201 H   0  0  0  0  0  0  0  0  0  0  0  0
   -0.2724    3.2715    2.0119 C   0  0  0  0  0  0  0  0  0  0  0  0
   -1.3249    3.4549    2.2426 H   0  0  0  0  0  0  0  0  0  0  0  0
    0.3167    3.3776    2.9239 H   0  0  0  0  0  0  0  0  0  0  0  0
    0.0609    4.0073    1.2782 H   0  0  0  0  0  0  0  0  0  0  0  0
  5  6  2  0  0  0  0
  5  7  1  0  0  0  0
  2  3  1  0  0  0  0
  2  4  1  0  0  0  0
  2  5  1  0  0  0  0
  1  2  1  0  0  0  0
 22 23  2  0  0  0  0
 22 24  1  0  0  0  0
 20 21  1  0  0  0  0
 18 19  1  0  0  0  0
 18 20  1  0  0  0  0
 16 17  1  0  0  0  0
 16 18  1  0  0  0  0
 15 16  2  0  0  0  0
 14 15  1  0  0  0  0
 14 20  2  0  0  0  0
 11 12  1  0  0  0  0
 11 13  1  0  0  0  0
 11 14  1  0  0  0  0
  9 10  1  0  0  0  0
  9 11  1  0  0  0  0
  9 22  1  0  0  0  0
  7  8  1  0  0  0  0
  7  9  1  0  0  0  0
 26 27  1  0  0  0  0
 26 28  1  0  0  0  0
 26 29  1  0  0  0  0
 24 25  1  0  0  0  0
 24 26  1  0  0  0  0
M  END
$$$$
default_name
  -OEChem-02102213163D

 29 29  0     1  0  0  0  0  0999 V2000
   -2.9561   -3.9186    1.3887 H   0  0  0  0  0  0  0  0  0  0  0  0
   -3.1191   -2.9346    0.9517 C   0  0  0  0  0  0  0  0  0  0  0  0
   -3.7811   -2.3546    1.5917 H   0  0  0  0  0  0  0  0  0  0  0  0
   -3.5591   -3.0406   -0.0383 H   0  0  0  0  0  0  0  0  0  0  0  0
   -1.7921   -2.2226    0.8327 C   0  0  0  0  0  0  0  0  0  0  0  0
   -0.7611   -2.7766    1.1927 O   0  0  0  0  0  0  0  0  0  0  0  0
   -1.8201   -0.9926    0.3247 N   0  0  0  0  0  0  0  0  0  0  0  0
   -2.7141   -0.5816    0.0927 H   0  0  0  0  0  0  0  0  0  0  0  0
   -0.6481   -0.1156    0.2017 C   0  0  1  0  0  0  0  0  0  0  0  0
    0.1344   -0.4988    0.8596 H   0  0  0  0  0  0  0  0  0  0  0  0
   -0.1211   -0.1520   -1.2460 C   0  0  0  0  0  0  0  0  0  0  0  0
   -0.7838    0.4227   -1.8947 H   0  0  0  0  0  0  0  0  0  0  0  0
    0.8654    0.3114   -1.2913 H   0  0  0  0  0  0  0  0  0  0  0  0
   -0.0454   -1.5508   -1.8078 C   0  0  0  0  0  0  0  0  0  0  0  0
   -0.4003   -2.7217   -1.1366 N   0  0  0  0  0  0  0  0  0  0  0  0
   -0.2240   -3.7190   -2.0156 C   0  0  0  0  0  0  0  0  0  0  0  0
   -0.4023   -4.7648   -1.7992 H   0  0  0  0  0  0  0  0  0  0  0  0
    0.1938   -3.2349   -3.1972 N   0  0  0  0  0  0  0  0  0  0  0  0
    0.3777   -3.7859   -4.0245 H   0  0  0  0  0  0  0  0  0  0  0  0
    0.3086   -1.8670   -3.0868 C   0  0  0  0  0  0  0  0  0  0  0  0
    0.5993   -1.1636   -3.8570 H   0  0  0  0  0  0  0  0  0  0  0  0
   -0.9851    1.3114    0.6698 C   0  0  0  0  0  0  0  0  0  0  0  0
   -2.0377    1.8431    0.3168 O   0  0  0  0  0  0  0  0  0  0  0  0
   -0.1052    1.9265    1.4663 N   0  0  0  0  0  0  0  0  0  0  0  0
    0.7810    1.4586    1.6201 H   0  0  0  0  0  0  0  0  0  0  0  0
   -0.2724    3.2715    2.0119 C   0  0  0  0  0  0  0  0  0  0  0  0
   -1.3249    3.4549    2.2426 H   0  0  0  0  0  0  0  0  0  0  0  0
    0.3167    3.3776    2.9239 H   0  0  0  0  0  0  0  0  0  0  0  0
    0.0609    4.0073    1.2782 H   0  0  0  0  0  0  0  0  0  0  0  0
  5  6  2  0  0  0  0
  5  7  1  0  0  0  0
  2  3  1  0  0  0  0
  2  4  1  0  0  0  0
  2  5  1  0  0  0  0
  1  2  1  0  0  0  0
 22 23  2  0  0  0  0
 22 24  1  0  0  0  0
 20 21  1  0  0  0  0
 18 19  1  0  0  0  0
 18 20  1  0  0  0  0
 16 17  1  0  0  0  0
 16 18  1  0  0  0  0
 15 16  2  0  0  0  0
 14 15  1  0  0  0  0
 14 20  2  0  0  0  0
 11 12  1  0  0  0  0
 11 13  1  0  0  0  0
 11 14  1  0  0  0  0
  9 10  1  0  0  0  0
  9 11  1  0  0  0  0
  9 22  1  0  0  0  0
  7  8  1  0  0  0  0
  7  9  1  0  0  0  0
 26 27  1  0  0  0  0
 26 28  1  0  0  0  0
 26 29  1  0  0  0  0
 24 25  1  0  0  0  0
 24 26  1  0  0  0  0
M  END
$$$$
default_name
  -OEChem-02102213163D

 29 29  0     1  0  0  0  0  0999 V2000
   -2.9561   -3.9186    1.3887 H   0  0  0  0  0  0  0  0  0  0  0  0
   -3.1191   -2.9346    0.9517 C   0  0  0  0  0  0  0  0  0  0  0  0
   -3.7811   -2.3546    1.5917 H   0  0  0  0  0  0  0  0  0  0  0  0
   -3.5591   -3.0406   -0.0383 H   0  0  0  0  0  0  0  0  0  0  0  0
   -1.7921   -2.2226    0.8327 C   0  0  0  0  0  0  0  0  0  0  0  0
   -0.7611   -2.7766    1.1927 O   0  0  0  0  0  0  0  0  0  0  0  0
   -1.8201   -0.9926    0.3247 N   0  0  0  0  0  0  0  0  0  0  0  0
   -2.7141   -0.5816    0.0927 H   0  0  0  0  0  0  0  0  0  0  0  0
   -0.6481   -0.1156    0.2017 C   0  0  1  0  0  0  0  0  0  0  0  0
    0.1344   -0.4988    0.8596 H   0  0  0  0  0  0  0  0  0  0  0  0
   -0.1211   -0.1520   -1.2460 C   0  0  0  0  0  0  0  0  0  0  0  0
   -0.7838    0.4227   -1.8947 H   0  0  0  0  0  0  0  0  0  0  0  0
    0.8654    0.3114   -1.2913 H   0  0  0  0  0  0  0  0  0  0  0  0
   -0.0454   -1.5508   -1.8078 C   0  0  0  0  0  0  0  0  0  0  0  0
   -0.6606   -2.6821   -1.2702 N   0  0  0  0  0  0  0  0  0  0  0  0
   -0.3734   -3.6909   -2.1058 C   0  0  0  0  0  0  0  0  0  0  0  0
   -0.6968   -4.7144   -1.9644 H   0  0  0  0  0  0  0  0  0  0  0  0
    0.3602   -3.2485   -3.1409 N   0  0  0  0  0  0  0  0  0  0  0  0
    0.6847   -3.8138   -3.9135 H   0  0  0  0  0  0  0  0  0  0  0  0
    0.5742   -1.8985   -2.9724 C   0  0  0  0  0  0  0  0  0  0  0  0
    1.1069   -1.2260   -3.6330 H   0  0  0  0  0  0  0  0  0  0  0  0
   -0.9851    1.3114    0.6698 C   0  0  0  0  0  0  0  0  0  0  0  0
   -2.0377    1.8431    0.3168 O   0  0  0  0  0  0  0  0  0  0  0  0
   -0.1052    1.9265    1.4663 N   0  0  0  0  0  0  0  0  0  0  0  0
    0.7810    1.4586    1.6201 H   0  0  0  0  0  0  0  0  0  0  0  0
   -0.2724    3.2715    2.0119 C   0  0  0  0  0  0  0  0  0  0  0  0
   -1.3249    3.4549    2.2426 H   0  0  0  0  0  0  0  0  0  0  0  0
    0.3167    3.3776    2.9239 H   0  0  0  0  0  0  0  0  0  0  0  0
    0.0609    4.0073    1.2782 H   0  0  0  0  0  0  0  0  0  0  0  0
  5  6  2  0  0  0  0
  5  7  1  0  0  0  0
  2  3  1  0  0  0  0
  2  4  1  0  0  0  0
  2  5  1  0  0  0  0
  1  2  1  0  0  0  0
 22 23  2  0  0  0  0
 22 24  1  0  0  0  0
 20 21  1  0  0  0  0
 18 19  1  0  0  0  0
 18 20  1  0  0  0  0
 16 17  1  0  0  0  0
 16 18  1  0  0  0  0
 15 16  2  0  0  0  0
 14 15  1  0  0  0  0
 14 20  2  0  0  0  0
 11 12  1  0  0  0  0
 11 13  1  0  0  0  0
 11 14  1  0  0  0  0
  9 10  1  0  0  0  0
  9 11  1  0  0  0  0
  9 22  1  0  0  0  0
  7  8  1  0  0  0  0
  7  9  1  0  0  0  0
 26 27  1  0  0  0  0
 26 28  1  0  0  0  0
 26 29  1  0  0  0  0
 24 25  1  0  0  0  0
 24 26  1  0  0  0  0
M  END
$$$$
default_name
  -OEChem-02102213163D

 29 29  0     1  0  0  0  0  0999 V2000
   -2.9561   -3.9186    1.3887 H   0  0  0  0  0  0  0  0  0  0  0  0
   -3.1191   -2.9346    0.9517 C   0  0  0  0  0  0  0  0  0  0  0  0
   -3.7811   -2.3546    1.5917 H   0  0  0  0  0  0  0  0  0  0  0  0
   -3.5591   -3.0406   -0.0383 H   0  0  0  0  0  0  0  0  0  0  0  0
   -1.7921   -2.2226    0.8327 C   0  0  0  0  0  0  0  0  0  0  0  0
   -0.7611   -2.7766    1.1927 O   0  0  0  0  0  0  0  0  0  0  0  0
   -1.8201   -0.9926    0.3247 N   0  0  0  0  0  0  0  0  0  0  0  0
   -2.7141   -0.5816    0.0927 H   0  0  0  0  0  0  0  0  0  0  0  0
   -0.6481   -0.1156    0.2017 C   0  0  1  0  0  0  0  0  0  0  0  0
    0.1344   -0.4988    0.8596 H   0  0  0  0  0  0  0  0  0  0  0  0
   -0.1211   -0.1520   -1.2460 C   0  0  0  0  0  0  0  0  0  0  0  0
   -0.7838    0.4227   -1.8947 H   0  0  0  0  0  0  0  0  0  0  0  0
    0.8654    0.3114   -1.2913 H   0  0  0  0  0  0  0  0  0  0  0  0
   -0.0454   -1.5508   -1.8078 C   0  0  0  0  0  0  0  0  0  0  0  0
   -0.8762   -2.6171   -1.4611 N   0  0  0  0  0  0  0  0  0  0  0  0
   -0.4934   -3.6481   -2.2285 C   0  0  0  0  0  0  0  0  0  0  0  0
   -0.9368   -4.6352   -2.1939 H   0  0  0  0  0  0  0  0  0  0  0  0
    0.5062   -3.2784   -3.0467 N   0  0  0  0  0  0  0  0  0  0  0  0
    0.9519   -3.8719   -3.7330 H   0  0  0  0  0  0  0  0  0  0  0  0
    0.8003   -1.9561   -2.7986 C   0  0  0  0  0  0  0  0  0  0  0  0
    1.5375   -1.3382   -3.2957 H   0  0  0  0  0  0  0  0  0  0  0  0
   -0.9851    1.3114    0.6698 C   0  0  0  0  0  0  0  0  0  0  0  0
   -2.0377    1.8431    0.3168 O   0  0  0  0  0  0  0  0  0  0  0  0
   -0.1052    1.9265    1.4663 N   0  0  0  0  0  0  0  0  0  0  0  0
    0.7810    1.4586    1.6201 H   0  0  0  0  0  0  0  0  0  0  0  0
   -0.2724    3.2715    2.0119 C   0  0  0  0  0  0  0  0  0  0  0  0
   -1.3249    3.4549    2.2426 H   0  0  0  0  0  0  0  0  0  0  0  0
    0.3167    3.3776    2.9239 H   0  0  0  0  0  0  0  0  0  0  0  0
    0.0609    4.0073    1.2782 H   0  0  0  0  0  0  0  0  0  0  0  0
  5  6  2  0  0  0  0
  5  7  1  0  0  0  0
  2  3  1  0  0  0  0
  2  4  1  0  0  0  0
  2  5  1  0  0  0  0
  1  2  1  0  0  0  0
 22 23  2  0  0  0  0
 22 24  1  0  0  0  0
 20 21  1  0  0  0  0
 18 19  1  0  0  0  0
 18 20  1  0  0  0  0
 16 17  1  0  0  0  0
 16 18  1  0  0  0  0
 15 16  2  0  0  0  0
 14 15  1  0  0  0  0
 14 20  2  0  0  0  0
 11 12  1  0  0  0  0
 11 13  1  0  0  0  0
 11 14  1  0  0  0  0
  9 10  1  0  0  0  0
  9 11  1  0  0  0  0
  9 22  1  0  0  0  0
  7  8  1  0  0  0  0
  7  9  1  0  0  0  0
 26 27  1  0  0  0  0
 26 28  1  0  0  0  0
 26 29  1  0  0  0  0
 24 25  1  0  0  0  0
 24 26  1  0  0  0  0
M  END
$$$$
default_name
  -OEChem-02102213163D

 29 29  0     1  0  0  0  0  0999 V2000
   -2.9561   -3.9186    1.3887 H   0  0  0  0  0  0  0  0  0  0  0  0
   -3.1191   -2.9346    0.9517 C   0  0  0  0  0  0  0  0  0  0  0  0
   -3.7811   -2.3546    1.5917 H   0  0  0  0  0  0  0  0  0  0  0  0
   -3.5591   -3.0406   -0.0383 H   0  0  0  0  0  0  0  0  0  0  0  0
   -1.7921   -2.2226    0.8327 C   0  0  0  0  0  0  0  0  0  0  0  0
   -0.7611   -2.7766    1.1927 O   0  0  0  0  0  0  0  0  0  0  0  0
   -1.8201   -0.9926    0.3247 N   0  0  0  0  0  0  0  0  0  0  0  0
   -2.7141   -0.5816    0.0927 H   0  0  0  0  0  0  0  0  0  0  0  0
   -0.6481   -0.1156    0.2017 C   0  0  1  0  0  0  0  0  0  0  0  0
    0.1344   -0.4988    0.8596 H   0  0  0  0  0  0  0  0  0  0  0  0
   -0.1211   -0.1520   -1.2460 C   0  0  0  0  0  0  0  0  0  0  0  0
   -0.7838    0.4227   -1.8947 H   0  0  0  0  0  0  0  0  0  0  0  0
    0.8654    0.3114   -1.2913 H   0  0  0  0  0  0  0  0  0  0  0  0
   -0.0454   -1.5508   -1.8078 C   0  0  0  0  0  0  0  0  0  0  0  0
   -1.0323   -2.5310   -1.6964 N   0  0  0  0  0  0  0  0  0  0  0  0
   -0.5757   -3.5936   -2.3752 C   0  0  0  0  0  0  0  0  0  0  0  0
   -1.1059   -4.5326   -2.4721 H   0  0  0  0  0  0  0  0  0  0  0  0
    0.6217   -3.3226   -2.9211 N   0  0  0  0  0  0  0  0  0  0  0  0
    1.1611   -3.9560   -3.4954 H   0  0  0  0  0  0  0  0  0  0  0  0
    0.9715   -2.0358   -2.5772 C   0  0  0  0  0  0  0  0  0  0  0  0
    1.8617   -1.4924   -2.8681 H   0  0  0  0  0  0  0  0  0  0  0  0
   -0.9851    1.3114    0.6698 C   0  0  0  0  0  0  0  0  0  0  0  0
   -2.0377    1.8431    0.3168 O   0  0  0  0  0  0  0  0  0  0  0  0
   -0.1052    1.9265    1.4663 N   0  0  0  0  0  0  0  0  0  0  0  0
    0.7810    1.4586    1.6201 H   0  0  0  0  0  0  0  0  0  0  0  0
   -0.2724    3.2715    2.0119 C   0  0  0  0  0  0  0  0  0  0  0  0
   -1.3249    3.4549    2.2426 H   0  0  0  0  0  0  0  0  0  0  0  0
    0.3167    3.3776    2.9239 H   0  0  0  0  0  0  0  0  0  0  0  0
    0.0609    4.0073    1.2782 H   0  0  0  0  0  0  0  0  0  0  0  0
  5  6  2  0  0  0  0
  5  7  1  0  0  0  0
  2  3  1  0  0  0  0
  2  4  1  0  0  0  0
  2  5  1  0  0  0  0
  1  2  1  0  0  0  0
 22 23  2  0  0  0  0
 22 24  1  0  0  0  0
 20 21  1  0  0  0  0
 18 19  1  0  0  0  0
 18 20  1  0  0  0  0
 16 17  1  0  0  0  0
 16 18  1  0  0  0  0
 15 16  2  0  0  0  0
 14 15  1  0  0  0  0
 14 20  2  0  0  0  0
 11 12  1  0  0  0  0
 11 13  1  0  0  0  0
 11 14  1  0  0  0  0
  9 10  1  0  0  0  0
  9 11  1  0  0  0  0
  9 22  1  0  0  0  0
  7  8  1  0  0  0  0
  7  9  1  0  0  0  0
 26 27  1  0  0  0  0
 26 28  1  0  0  0  0
 26 29  1  0  0  0  0
 24 25  1  0  0  0  0
 24 26  1  0  0  0  0
M  END
$$$$
default_name
  -OEChem-02102213163D

 29 29  0     1  0  0  0  0  0999 V2000
   -2.9561   -3.9186    1.3887 H   0  0  0  0  0  0  0  0  0  0  0  0
   -3.1191   -2.9346    0.9517 C   0  0  0  0  0  0  0  0  0  0  0  0
   -3.7811   -2.3546    1.5917 H   0  0  0  0  0  0  0  0  0  0  0  0
   -3.5591   -3.0406   -0.0383 H   0  0  0  0  0  0  0  0  0  0  0  0
   -1.7921   -2.2226    0.8327 C   0  0  0  0  0  0  0  0  0  0  0  0
   -0.7611   -2.7766    1.1927 O   0  0  0  0  0  0  0  0  0  0  0  0
   -1.8201   -0.9926    0.3247 N   0  0  0  0  0  0  0  0  0  0  0  0
   -2.7141   -0.5816    0.0927 H   0  0  0  0  0  0  0  0  0  0  0  0
   -0.6481   -0.1156    0.2017 C   0  0  1  0  0  0  0  0  0  0  0  0
    0.1344   -0.4988    0.8596 H   0  0  0  0  0  0  0  0  0  0  0  0
   -0.1211   -0.1520   -1.2460 C   0  0  0  0  0  0  0  0  0  0  0  0
   -0.7838    0.4227   -1.8947 H   0  0  0  0  0  0  0  0  0  0  0  0
    0.8654    0.3114   -1.2913 H   0  0  0  0  0  0  0  0  0  0  0  0
   -0.0454   -1.5508   -1.8078 C   0  0  0  0  0  0  0  0  0  0  0  0
   -1.1185   -2.4298   -1.9601 N   0  0  0  0  0  0  0  0  0  0  0  0
   -0.6148   -3.5312   -2.5359 C   0  0  0  0  0  0  0  0  0  0  0  0
   -1.1927   -4.4136   -2.7801 H   0  0  0  0  0  0  0  0  0  0  0  0
    0.6989   -3.3781   -2.7727 N   0  0  0  0  0  0  0  0  0  0  0  0
    1.2980   -4.0605   -3.2167 H   0  0  0  0  0  0  0  0  0  0  0  0
    1.0760   -2.1321   -2.3234 C   0  0  0  0  0  0  0  0  0  0  0  0
    2.0574   -1.6782   -2.3793 H   0  0  0  0  0  0  0  0  0  0  0  0
   -0.9851    1.3114    0.6698 C   0  0  0  0  0  0  0  0  0  0  0  0
   -2.0377    1.8431    0.3168 O   0  0  0  0  0  0  0  0  0  0  0  0
   -0.1052    1.9265    1.4663 N   0  0  0  0  0  0  0  0  0  0  0  0
    0.7810    1.4586    1.6201 H   0  0  0  0  0  0  0  0  0  0  0  0
   -0.2724    3.2715    2.0119 C   0  0  0  0  0  0  0  0  0  0  0  0
   -1.3249    3.4549    2.2426 H   0  0  0  0  0  0  0  0  0  0  0  0
    0.3167    3.3776    2.9239 H   0  0  0  0  0  0  0  0  0  0  0  0
    0.0609    4.0073    1.2782 H   0  0  0  0  0  0  0  0  0  0  0  0
  5  6  2  0  0  0  0
  5  7  1  0  0  0  0
  2  3  1  0  0  0  0
  2  4  1  0  0  0  0
  2  5  1  0  0  0  0
  1  2  1  0  0  0  0
 22 23  2  0  0  0  0
 22 24  1  0  0  0  0
 20 21  1  0  0  0  0
 18 19  1  0  0  0  0
 18 20  1  0  0  0  0
 16 17  1  0  0  0  0
 16 18  1  0  0  0  0
 15 16  2  0  0  0  0
 14 15  1  0  0  0  0
 14 20  2  0  0  0  0
 11 12  1  0  0  0  0
 11 13  1  0  0  0  0
 11 14  1  0  0  0  0
  9 10  1  0  0  0  0
  9 11  1  0  0  0  0
  9 22  1  0  0  0  0
  7  8  1  0  0  0  0
  7  9  1  0  0  0  0
 26 27  1  0  0  0  0
 26 28  1  0  0  0  0
 26 29  1  0  0  0  0
 24 25  1  0  0  0  0
 24 26  1  0  0  0  0
M  END
$$$$
default_name
  -OEChem-02102213163D

 29 29  0     1  0  0  0  0  0999 V2000
   -2.9561   -3.9186    1.3887 H   0  0  0  0  0  0  0  0  0  0  0  0
   -3.1191   -2.9346    0.9517 C   0  0  0  0  0  0  0  0  0  0  0  0
   -3.7811   -2.3546    1.5917 H   0  0  0  0  0  0  0  0  0  0  0  0
   -3.5591   -3.0406   -0.0383 H   0  0  0  0  0  0  0  0  0  0  0  0
   -1.7921   -2.2226    0.8327 C   0  0  0  0  0  0  0  0  0  0  0  0
   -0.7611   -2.7766    1.1927 O   0  0  0  0  0  0  0  0  0  0  0  0
   -1.8201   -0.9926    0.3247 N   0  0  0  0  0  0  0  0  0  0  0  0
   -2.7141   -0.5816    0.0927 H   0  0  0  0  0  0  0  0  0  0  0  0
   -0.6481   -0.1156    0.2017 C   0  0  1  0  0  0  0  0  0  0  0  0
    0.1344   -0.4988    0.8596 H   0  0  0  0  0  0  0  0  0  0  0  0
   -0.1211   -0.1520   -1.2460 C   0  0  0  0  0  0  0  0  0  0  0  0
   -0.7838    0.4227   -1.8947 H   0  0  0  0  0  0  0  0  0  0  0  0
    0.8654    0.3114   -1.2913 H   0  0  0  0  0  0  0  0  0  0  0  0
   -0.0454   -1.5508   -1.8078 C   0  0  0  0  0  0  0  0  0  0  0  0
   -1.1287   -2.3203   -2.2341 N   0  0  0  0  0  0  0  0  0  0  0  0
   -0.6080   -3.4650   -2.6998 C   0  0  0  0  0  0  0  0  0  0  0  0
   -1.1911   -4.2863   -3.0968 H   0  0  0  0  0  0  0  0  0  0  0  0
    0.7325   -3.4410   -2.6115 N   0  0  0  0  0  0  0  0  0  0  0  0
    1.3534   -4.1783   -2.9161 H   0  0  0  0  0  0  0  0  0  0  0  0
    1.1068   -2.2385   -2.0544 C   0  0  0  0  0  0  0  0  0  0  0  0
    2.1113   -1.8828   -1.8626 H   0  0  0  0  0  0  0  0  0  0  0  0
   -0.9851    1.3114    0.6698 C   0  0  0  0  0  0  0  0  0  0  0  0
   -2.0377    1.8431    0.3168 O   0  0  0  0  0  0  0  0  0  0  0  0
   -0.1052    1.9265    1.4663 N   0  0  0  0  0  0  0  0  0  0  0  0
    0.7810    1.4586    1.6201 H   0  0  0  0  0  0  0  0  0  0  0  0
   -0.2724    3.2715    2.0119 C   0  0  0  0  0  0  0  0  0  0  0  0
   -1.3249    3.4549    2.2426 H   0  0  0  0  0  0  0  0  0  0  0  0
    0.3167    3.3776    2.9239 H   0  0  0  0  0  0  0  0  0  0  0  0
    0.0609    4.0073    1.2782 H   0  0  0  0  0  0  0  0  0  0  0  0
  5  6  2  0  0  0  0
  5  7  1  0  0  0  0
  2  3  1  0  0  0  0
  2  4  1  0  0  0  0
  2  5  1  0  0  0  0
  1  2  1  0  0  0  0
 22 23  2  0  0  0  0
 22 24  1  0  0  0  0
 20 21  1  0  0  0  0
 18 19  1  0  0  0  0
 18 20  1  0  0  0  0
 16 17  1  0  0  0  0
 16 18  1  0  0  0  0
 15 16  2  0  0  0  0
 14 15  1  0  0  0  0
 14 20  2  0  0  0  0
 11 12  1  0  0  0  0
 11 13  1  0  0  0  0
 11 14  1  0  0  0  0
  9 10  1  0  0  0  0
  9 11  1  0  0  0  0
  9 22  1  0  0  0  0
  7  8  1  0  0  0  0
  7  9  1  0  0  0  0
 26 27  1  0  0  0  0
 26 28  1  0  0  0  0
 26 29  1  0  0  0  0
 24 25  1  0  0  0  0
 24 26  1  0  0  0  0
M  END
$$$$
default_name
  -OEChem-02102213163D

 29 29  0     1  0  0  0  0  0999 V2000
   -2.9561   -3.9186    1.3887 H   0  0  0  0  0  0  0  0  0  0  0  0
   -3.1191   -2.9346    0.9517 C   0  0  0  0  0  0  0  0  0  0  0  0
   -3.7811   -2.3546    1.5917 H   0  0  0  0  0  0  0  0  0  0  0  0
   -3.5591   -3.0406   -0.0383 H   0  0  0  0  0  0  0  0  0  0  0  0
   -1.7921   -2.2226    0.8327 C   0  0  0  0  0  0  0  0  0  0  0  0
   -0.7611   -2.7766    1.1927 O   0  0  0  0  0  0  0  0  0  0  0  0
   -1.8201   -0.9926    0.3247 N   0  0  0  0  0  0  0  0  0  0  0  0
   -2.7141   -0.5816    0.0927 H   0  0  0  0  0  0  0  0  0  0  0  0
   -0.6481   -0.1156    0.2017 C   0  0  1  0  0  0  0  0  0  0  0  0
    0.1344   -0.4988    0.8596 H   0  0  0  0  0  0  0  0  0  0  0  0
   -0.1211   -0.1520   -1.2460 C   0  0  0  0  0  0  0  0  0  0  0  0
   -0.7838    0.4227   -1.8947 H   0  0  0  0  0  0  0  0  0  0  0  0
    0.8654    0.3114   -1.2913 H   0  0  0  0  0  0  0  0  0  0  0  0
   -0.0454   -1.5508   -1.8078 C   0  0  0  0  0  0  0  0  0  0  0  0
   -1.0623   -2.2100   -2.4997 N   0  0  0  0  0  0  0  0  0  0  0  0
   -0.5557   -3.3996   -2.8555 C   0  0  0  0  0  0  0  0  0  0  0  0
   -1.1014   -4.1594   -3.4007 H   0  0  0  0  0  0  0  0  0  0  0  0
    0.7202   -3.5071   -2.4486 N   0  0  0  0  0  0  0  0  0  0  0  0
    1.3234   -4.3013   -2.6139 H   0  0  0  0  0  0  0  0  0  0  0  0
    1.0618   -2.3477   -1.7885 C   0  0  0  0  0  0  0  0  0  0  0  0
    2.0197   -2.0923   -1.3533 H   0  0  0  0  0  0  0  0  0  0  0  0
   -0.9851    1.3114    0.6698 C   0  0  0  0  0  0  0  0  0  0  0  0
   -2.0377    1.8431    0.3168 O   0  0  0  0  0  0  0  0  0  0  0  0
   -0.1052    1.9265    1.4663 N   0  0  0  0  0  0  0  0  0  0  0  0
    0.7810    1.4586    1.6201 H   0  0  0  0  0  0  0  0  0  0  0  0
   -0.2724    3.2715    2.0119 C   0  0  0  0  0  0  0  0  0  0  0  0
   -1.3249    3.4549    2.2426 H   0  0  0  0  0  0  0  0  0  0  0  0
    0.3167    3.3776    2.9239 H   0  0  0  0  0  0  0  0  0  0  0  0
    0.0609    4.0073    1.2782 H   0  0  0  0  0  0  0  0  0  0  0  0
  5  6  2  0  0  0  0
  5  7  1  0  0  0  0
  2  3  1  0  0  0  0
  2  4  1  0  0  0  0
  2  5  1  0  0  0  0
  1  2  1  0  0  0  0
 22 23  2  0  0  0  0
 22 24  1  0  0  0  0
 20 21  1  0  0  0  0
 18 19  1  0  0  0  0
 18 20  1  0  0  0  0
 16 17  1  0  0  0  0
 16 18  1  0  0  0  0
 15 16  2  0  0  0  0
 14 15  1  0  0  0  0
 14 20  2  0  0  0  0
 11 12  1  0  0  0  0
 11 13  1  0  0  0  0
 11 14  1  0  0  0  0
  9 10  1  0  0  0  0
  9 11  1  0  0  0  0
  9 22  1  0  0  0  0
  7  8  1  0  0  0  0
  7  9  1  0  0  0  0
 26 27  1  0  0  0  0
 26 28  1  0  0  0  0
 26 29  1  0  0  0  0
 24 25  1  0  0  0  0
 24 26  1  0  0  0  0
M  END
$$$$
default_name
  -OEChem-02102213163D

 29 29  0     1  0  0  0  0  0999 V2000
   -2.9561   -3.9186    1.3887 H   0  0  0  0  0  0  0  0  0  0  0  0
   -3.1191   -2.9346    0.9517 C   0  0  0  0  0  0  0  0  0  0  0  0
   -3.7811   -2.3546    1.5917 H   0  0  0  0  0  0  0  0  0  0  0  0
   -3.5591   -3.0406   -0.0383 H   0  0  0  0  0  0  0  0  0  0  0  0
   -1.7921   -2.2226    0.8327 C   0  0  0  0  0  0  0  0  0  0  0  0
   -0.7611   -2.7766    1.1927 O   0  0  0  0  0  0  0  0  0  0  0  0
   -1.8201   -0.9926    0.3247 N   0  0  0  0  0  0  0  0  0  0  0  0
   -2.7141   -0.5816    0.0927 H   0  0  0  0  0  0  0  0  0  0  0  0
   -0.6481   -0.1156    0.2017 C   0  0  1  0  0  0  0  0  0  0  0  0
    0.1344   -0.4988    0.8596 H   0  0  0  0  0  0  0  0  0  0  0  0
   -0.1211   -0.1520   -1.2460 C   0  0  0  0  0  0  0  0  0  0  0  0
   -0.7838    0.4227   -1.8947 H   0  0  0  0  0  0  0  0  0  0  0  0
    0.8654    0.3114   -1.2913 H   0  0  0  0  0  0  0  0  0  0  0  0
   -0.0454   -1.5508   -1.8078 C   0  0  0  0  0  0  0  0  0  0  0  0
   -0.9238   -2.1064   -2.7390 N   0  0  0  0  0  0  0  0  0  0  0  0
   -0.4616   -3.3394   -2.9926 C   0  0  0  0  0  0  0  0  0  0  0  0
   -0.9296   -4.0415   -3.6711 H   0  0  0  0  0  0  0  0  0  0  0  0
    0.6629   -3.5719   -2.2950 N   0  0  0  0  0  0  0  0  0  0  0  0
    1.2101   -4.4211   -2.3308 H   0  0  0  0  0  0  0  0  0  0  0  0
    0.9440   -2.4523   -1.5439 C   0  0  0  0  0  0  0  0  0  0  0  0
    1.7889   -2.2925   -0.8860 H   0  0  0  0  0  0  0  0  0  0  0  0
   -0.9851    1.3114    0.6698 C   0  0  0  0  0  0  0  0  0  0  0  0
   -2.0377    1.8431    0.3168 O   0  0  0  0  0  0  0  0  0  0  0  0
   -0.1052    1.9265    1.4663 N   0  0  0  0  0  0  0  0  0  0  0  0
    0.7810    1.4586    1.6201 H   0  0  0  0  0  0  0  0  0  0  0  0
   -0.2724    3.2715    2.0119 C   0  0  0  0  0  0  0  0  0  0  0  0
   -1.3249    3.4549    2.2426 H   0  0  0  0  0  0  0  0  0  0  0  0
    0.3167    3.3776    2.9239 H   0  0  0  0  0  0  0  0  0  0  0  0
    0.0609    4.0073    1.2782 H   0  0  0  0  0  0  0  0  0  0  0  0
  5  6  2  0  0  0  0
  5  7  1  0  0  0  0
  2  3  1  0  0  0  0
  2  4  1  0  0  0  0
  2  5  1  0  0  0  0
  1  2  1  0  0  0  0
 22 23  2  0  0  0  0
 22 24  1  0  0  0  0
 20 21  1  0  0  0  0
 18 19  1  0  0  0  0
 18 20  1  0  0  0  0
 16 17  1  0  0  0  0
 16 18  1  0  0  0  0
 15 16  2  0  0  0  0
 14 15  1  0  0  0  0
 14 20  2  0  0  0  0
 11 12  1  0  0  0  0
 11 13  1  0  0  0  0
 11 14  1  0  0  0  0
  9 10  1  0  0  0  0
  9 11  1  0  0  0  0
  9 22  1  0  0  0  0
  7  8  1  0  0  0  0
  7  9  1  0  0  0  0
 26 27  1  0  0  0  0
 26 28  1  0  0  0  0
 26 29  1  0  0  0  0
 24 25  1  0  0  0  0
 24 26  1  0  0  0  0
M  END
$$$$
default_name
  -OEChem-02102213163D

 29 29  0     1  0  0  0  0  0999 V2000
   -2.9561   -3.9186    1.3887 H   0  0  0  0  0  0  0  0  0  0  0  0
   -3.1191   -2.9346    0.9517 C   0  0  0  0  0  0  0  0  0  0  0  0
   -3.7811   -2.3546    1.5917 H   0  0  0  0  0  0  0  0  0  0  0  0
   -3.5591   -3.0406   -0.0383 H   0  0  0  0  0  0  0  0  0  0  0  0
   -1.7921   -2.2226    0.8327 C   0  0  0  0  0  0  0  0  0  0  0  0
   -0.7611   -2.7766    1.1927 O   0  0  0  0  0  0  0  0  0  0  0  0
   -1.8201   -0.9926    0.3247 N   0  0  0  0  0  0  0  0  0  0  0  0
   -2.7141   -0.5816    0.0927 H   0  0  0  0  0  0  0  0  0  0  0  0
   -0.6481   -0.1156    0.2017 C   0  0  1  0  0  0  0  0  0  0  0  0
    0.1344   -0.4988    0.8596 H   0  0  0  0  0  0  0  0  0  0  0  0
   -0.1211   -0.1520   -1.2460 C   0  0  0  0  0  0  0  0  0  0  0  0
   -0.7838    0.4227   -1.8947 H   0  0  0  0  0  0  0  0  0  0  0  0
    0.8654    0.3114   -1.2913 H   0  0  0  0  0  0  0  0  0  0  0  0
   -0.0454   -1.5508   -1.8078 C   0  0  0  0  0  0  0  0  0  0  0  0
   -0.7226   -2.0166   -2.9355 N   0  0  0  0  0  0  0  0  0  0  0  0
   -0.3320   -3.2886   -3.1017 C   0  0  0  0  0  0  0  0  0  0  0  0
   -0.6874   -3.9407   -3.8896 H   0  0  0  0  0  0  0  0  0  0  0  0
    0.5645   -3.6309   -2.1612 N   0  0  0  0  0  0  0  0  0  0  0  0
    1.0212   -4.5296   -2.0861 H   0  0  0  0  0  0  0  0  0  0  0  0
    0.7615   -2.5452   -1.3373 C   0  0  0  0  0  0  0  0  0  0  0  0
    1.4346   -2.4697   -0.4925 H   0  0  0  0  0  0  0  0  0  0  0  0
   -0.9851    1.3114    0.6698 C   0  0  0  0  0  0  0  0  0  0  0  0
   -2.0377    1.8431    0.3168 O   0  0  0  0  0  0  0  0  0  0  0  0
   -0.1052    1.9265    1.4663 N   0  0  0  0  0  0  0  0  0  0  0  0
    0.7810    1.4586    1.6201 H   0  0  0  0  0  0  0  0  0  0  0  0
   -0.2724    3.2715    2.0119 C   0  0  0  0  0  0  0  0  0  0  0  0
   -1.3249    3.4549    2.2426 H   0  0  0  0  0  0  0  0  0  0  0  0
    0.3167    3.3776    2.9239 H   0  0  0  0  0  0  0  0  0  0  0  0
    0.0609    4.0073    1.2782 H   0  0  0  0  0  0  0  0  0  0  0  0
  5  6  2  0  0  0  0
  5  7  1  0  0  0  0
  2  3  1  0  0  0  0
  2  4  1  0  0  0  0
  2  5  1  0  0  0  0
  1  2  1  0  0  0  0
 22 23  2  0  0  0  0
 22 24  1  0  0  0  0
 20 21  1  0  0  0  0
 18 19  1  0  0  0  0
 18 20  1  0  0  0  0
 16 17  1  0  0  0  0
 16 18  1  0  0  0  0
 15 16  2  0  0  0  0
 14 15  1  0  0  0  0
 14 20  2  0  0  0  0
 11 12  1  0  0  0  0
 11 13  1  0  0  0  0
 11 14  1  0  0  0  0
  9 10  1  0  0  0  0
  9 11  1  0  0  0  0
  9 22  1  0  0  0  0
  7  8  1  0  0  0  0
  7  9  1  0  0  0  0
 26 27  1  0  0  0  0
 26 28  1  0  0  0  0
 26 29  1  0  0  0  0
 24 25  1  0  0  0  0
 24 26  1  0  0  0  0
M  END
$$$$
default_name
  -OEChem-02102213163D

 29 29  0     1  0  0  0  0  0999 V2000
   -2.9561   -3.9186    1.3887 H   0  0  0  0  0  0  0  0  0  0  0  0
   -3.1191   -2.9346    0.9517 C   0  0  0  0  0  0  0  0  0  0  0  0
   -3.7811   -2.3546    1.5917 H   0  0  0  0  0  0  0  0  0  0  0  0
   -3.5591   -3.0406   -0.0383 H   0  0  0  0  0  0  0  0  0  0  0  0
   -1.7921   -2.2226    0.8327 C   0  0  0  0  0  0  0  0  0  0  0  0
   -0.7611   -2.7766    1.1927 O   0  0  0  0  0  0  0  0  0  0  0  0
   -1.8201   -0.9926    0.3247 N   0  0  0  0  0  0  0  0  0  0  0  0
   -2.7141   -0.5816    0.0927 H   0  0  0  0  0  0  0  0  0  0  0  0
   -0.6481   -0.1156    0.2017 C   0  0  1  0  0  0  0  0  0  0  0  0
    0.1344   -0.4988    0.8596 H   0  0  0  0  0  0  0  0  0  0  0  0
   -0.1211   -0.1520   -1.2460 C   0  0  0  0  0  0  0  0  0  0  0  0
   -0.7838    0.4227   -1.8947 H   0  0  0  0  0  0  0  0  0  0  0  0
    0.8654    0.3114   -1.2913 H   0  0  0  0  0  0  0  0  0  0  0  0
   -0.0454   -1.5508   -1.8078 C   0  0  0  0  0  0  0  0  0  0  0  0
   -0.4725   -1.9466   -3.0760 N   0  0  0  0  0  0  0  0  0  0  0  0
   -0.1758   -3.2506   -3.1752 C   0  0  0  0  0  0  0  0  0  0  0  0
   -0.3914   -3.8637   -4.0412 H   0  0  0  0  0  0  0  0  0  0  0  0
    0.4317   -3.6802   -2.0564 N   0  0  0  0  0  0  0  0  0  0  0  0
    0.7696   -4.6194   -1.8965 H   0  0  0  0  0  0  0  0  0  0  0  0
    0.5266   -2.6200   -1.1826 C   0  0  0  0  0  0  0  0  0  0  0  0
    0.9809   -2.6118   -0.1998 H   0  0  0  0  0  0  0  0  0  0  0  0
   -0.9851    1.3114    0.6698 C   0  0  0  0  0  0  0  0  0  0  0  0
   -2.0377    1.8431    0.3168 O   0  0  0  0  0  0  0  0  0  0  0  0
   -0.1052    1.9265    1.4663 N   0  0  0  0  0  0  0  0  0  0  0  0
    0.7810    1.4586    1.6201 H   0  0  0  0  0  0  0  0  0  0  0  0
   -0.2724    3.2715    2.0119 C   0  0  0  0  0  0  0  0  0  0  0  0
   -1.3249    3.4549    2.2426 H   0  0  0  0  0  0  0  0  0  0  0  0
    0.3167    3.3776    2.9239 H   0  0  0  0  0  0  0  0  0  0  0  0
    0.0609    4.0073    1.2782 H   0  0  0  0  0  0  0  0  0  0  0  0
  5  6  2  0  0  0  0
  5  7  1  0  0  0  0
  2  3  1  0  0  0  0
  2  4  1  0  0  0  0
  2  5  1  0  0  0  0
  1  2  1  0  0  0  0
 22 23  2  0  0  0  0
 22 24  1  0  0  0  0
 20 21  1  0  0  0  0
 18 19  1  0  0  0  0
 18 20  1  0  0  0  0
 16 17  1  0  0  0  0
 16 18  1  0  0  0  0
 15 16  2  0  0  0  0
 14 15  1  0  0  0  0
 14 20  2  0  0  0  0
 11 12  1  0  0  0  0
 11 13  1  0  0  0  0
 11 14  1  0  0  0  0
  9 10  1  0  0  0  0
  9 11  1  0  0  0  0
  9 22  1  0  0  0  0
  7  8  1  0  0  0  0
  7  9  1  0  0  0  0
 26 27  1  0  0  0  0
 26 28  1  0  0  0  0
 26 29  1  0  0  0  0
 24 25  1  0  0  0  0
 24 26  1  0  0  0  0
M  END
$$$$
default_name
  -OEChem-02102213163D

 29 29  0     1  0  0  0  0  0999 V2000
   -2.9561   -3.9186    1.3887 H   0  0  0  0  0  0  0  0  0  0  0  0
   -3.1191   -2.9346    0.9517 C   0  0  0  0  0  0  0  0  0  0  0  0
   -3.7811   -2.3546    1.5917 H   0  0  0  0  0  0  0  0  0  0  0  0
   -3.5591   -3.0406   -0.0383 H   0  0  0  0  0  0  0  0  0  0  0  0
   -1.7921   -2.2226    0.8327 C   0  0  0  0  0  0  0  0  0  0  0  0
   -0.7611   -2.7766    1.1927 O   0  0  0  0  0  0  0  0  0  0  0  0
   -1.8201   -0.9926    0.3247 N   0  0  0  0  0  0  0  0  0  0  0  0
   -2.7141   -0.5816    0.0927 H   0  0  0  0  0  0  0  0  0  0  0  0
   -0.6481   -0.1156    0.2017 C   0  0  1  0  0  0  0  0  0  0  0  0
    0.1344   -0.4988    0.8596 H   0  0  0  0  0  0  0  0  0  0  0  0
   -0.1211   -0.1520   -1.2460 C   0  0  0  0  0  0  0  0  0  0  0  0
   -0.7838    0.4227   -1.8947 H   0  0  0  0  0  0  0  0  0  0  0  0
    0.8654    0.3114   -1.2913 H   0  0  0  0  0  0  0  0  0  0  0  0
   -0.0454   -1.5508   -1.8078 C   0  0  0  0  0  0  0  0  0  0  0  0
   -0.1905   -1.9013   -3.1507 N   0  0  0  0  0  0  0  0  0  0  0  0
   -0.0035   -3.2280   -3.2083 C   0  0  0  0  0  0  0  0  0  0  0  0
   -0.0617   -3.8160   -4.1156 H   0  0  0  0  0  0  0  0  0  0  0  0
    0.2735   -3.7164   -1.9877 N   0  0  0  0  0  0  0  0  0  0  0  0
    0.4725   -4.6843   -1.7748 H   0  0  0  0  0  0  0  0  0  0  0  0
    0.2555   -2.6716   -1.0906 C   0  0  0  0  0  0  0  0  0  0  0  0
    0.4587   -2.7092   -0.0278 H   0  0  0  0  0  0  0  0  0  0  0  0
   -0.9851    1.3114    0.6698 C   0  0  0  0  0  0  0  0  0  0  0  0
   -2.0377    1.8431    0.3168 O   0  0  0  0  0  0  0  0  0  0  0  0
   -0.1052    1.9265    1.4663 N   0  0  0  0  0  0  0  0  0  0  0  0
    0.7810    1.4586    1.6201 H   0  0  0  0  0  0  0  0  0  0  0  0
   -0.2724    3.2715    2.0119 C   0  0  0  0  0  0  0  0  0  0  0  0
   -1.3249    3.4549    2.2426 H   0  0  0  0  0  0  0  0  0  0  0  0
    0.3167    3.3776    2.9239 H   0  0  0  0  0  0  0  0  0  0  0  0
    0.0609    4.0073    1.2782 H   0  0  0  0  0  0  0  0  0  0  0  0
  5  6  2  0  0  0  0
  5  7  1  0  0  0  0
  2  3  1  0  0  0  0
  2  4  1  0  0  0  0
  2  5  1  0  0  0  0
  1  2  1  0  0  0  0
 22 23  2  0  0  0  0
 22 24  1  0  0  0  0
 20 21  1  0  0  0  0
 18 19  1  0  0  0  0
 18 20  1  0  0  0  0
 16 17  1  0  0  0  0
 16 18  1  0  0  0  0
 15 16  2  0  0  0  0
 14 15  1  0  0  0  0
 14 20  2  0  0  0  0
 11 12  1  0  0  0  0
 11 13  1  0  0  0  0
 11 14  1  0  0  0  0
  9 10  1  0  0  0  0
  9 11  1  0  0  0  0
  9 22  1  0  0  0  0
  7  8  1  0  0  0  0
  7  9  1  0  0  0  0
 26 27  1  0  0  0  0
 26 28  1  0  0  0  0
 26 29  1  0  0  0  0
 24 25  1  0  0  0  0
 24 26  1  0  0  0  0
M  END
$$$$
default_name
  -OEChem-02102213163D

 29 29  0     1  0  0  0  0  0999 V2000
   -2.9561   -3.9186    1.3887 H   0  0  0  0  0  0  0  0  0  0  0  0
   -3.1191   -2.9346    0.9517 C   0  0  0  0  0  0  0  0  0  0  0  0
   -3.7811   -2.3546    1.5917 H   0  0  0  0  0  0  0  0  0  0  0  0
   -3.5591   -3.0406   -0.0383 H   0  0  0  0  0  0  0  0  0  0  0  0
   -1.7921   -2.2226    0.8327 C   0  0  0  0  0  0  0  0  0  0  0  0
   -0.7611   -2.7766    1.1927 O   0  0  0  0  0  0  0  0  0  0  0  0
   -1.8201   -0.9926    0.3247 N   0  0  0  0  0  0  0  0  0  0  0  0
   -2.7141   -0.5816    0.0927 H   0  0  0  0  0  0  0  0  0  0  0  0
   -0.6481   -0.1156    0.2017 C   0  0  1  0  0  0  0  0  0  0  0  0
    0.1344   -0.4988    0.8596 H   0  0  0  0  0  0  0  0  0  0  0  0
   -0.1211   -0.1520   -1.2460 C   0  0  0  0  0  0  0  0  0  0  0  0
   -0.7838    0.4227   -1.8947 H   0  0  0  0  0  0  0  0  0  0  0  0
    0.8654    0.3114   -1.2913 H   0  0  0  0  0  0  0  0  0  0  0  0
   -0.0454   -1.5508   -1.8078 C   0  0  0  0  0  0  0  0  0  0  0  0
    0.1042   -1.8838   -3.1547 N   0  0  0  0  0  0  0  0  0  0  0  0
    0.1730   -3.2223   -3.1987 C   0  0  0  0  0  0  0  0  0  0  0  0
    0.2793   -3.8007   -4.1078 H   0  0  0  0  0  0  0  0  0  0  0  0
    0.1007   -3.7370   -1.9597 N   0  0  0  0  0  0  0  0  0  0  0  0
    0.1500   -4.7200   -1.7294 H   0  0  0  0  0  0  0  0  0  0  0  0
   -0.0334   -2.6966   -1.0674 C   0  0  0  0  0  0  0  0  0  0  0  0
   -0.0963   -2.7552    0.0119 H   0  0  0  0  0  0  0  0  0  0  0  0
   -0.9851    1.3114    0.6698 C   0  0  0  0  0  0  0  0  0  0  0  0
   -2.0377    1.8431    0.3168 O   0  0  0  0  0  0  0  0  0  0  0  0
   -0.1052    1.9265    1.4663 N   0  0  0  0  0  0  0  0  0  0  0  0
    0.7810    1.4586    1.6201 H   0  0  0  0  0  0  0  0  0  0  0  0
   -0.2724    3.2715    2.0119 C   0  0  0  0  0  0  0  0  0  0  0  0
   -1.3249    3.4549    2.2426 H   0  0  0  0  0  0  0  0  0  0  0  0
    0.3167    3.3776    2.9239 H   0  0  0  0  0  0  0  0  0  0  0  0
    0.0609    4.0073    1.2782 H   0  0  0  0  0  0  0  0  0  0  0  0
  5  6  2  0  0  0  0
  5  7  1  0  0  0  0
  2  3  1  0  0  0  0
  2  4  1  0  0  0  0
  2  5  1  0  0  0  0
  1  2  1  0  0  0  0
 22 23  2  0  0  0  0
 22 24  1  0  0  0  0
 20 21  1  0  0  0  0
 18 19  1  0  0  0  0
 18 20  1  0  0  0  0
 16 17  1  0  0  0  0
 16 18  1  0  0  0  0
 15 16  2  0  0  0  0
 14 15  1  0  0  0  0
 14 20  2  0  0  0  0
 11 12  1  0  0  0  0
 11 13  1  0  0  0  0
 11 14  1  0  0  0  0
  9 10  1  0  0  0  0
  9 11  1  0  0  0  0
  9 22  1  0  0  0  0
  7  8  1  0  0  0  0
  7  9  1  0  0  0  0
 26 27  1  0  0  0  0
 26 28  1  0  0  0  0
 26 29  1  0  0  0  0
 24 25  1  0  0  0  0
 24 26  1  0  0  0  0
M  END
$$$$
default_name
  -OEChem-02102213163D

 29 29  0     1  0  0  0  0  0999 V2000
   -2.9561   -3.9186    1.3887 H   0  0  0  0  0  0  0  0  0  0  0  0
   -3.1191   -2.9346    0.9517 C   0  0  0  0  0  0  0  0  0  0  0  0
   -3.7811   -2.3546    1.5917 H   0  0  0  0  0  0  0  0  0  0  0  0
   -3.5591   -3.0406   -0.0383 H   0  0  0  0  0  0  0  0  0  0  0  0
   -1.7921   -2.2226    0.8327 C   0  0  0  0  0  0  0  0  0  0  0  0
   -0.7611   -2.7766    1.1927 O   0  0  0  0  0  0  0  0  0  0  0  0
   -1.8201   -0.9926    0.3247 N   0  0  0  0  0  0  0  0  0  0  0  0
   -2.7141   -0.5816    0.0927 H   0  0  0  0  0  0  0  0  0  0  0  0
   -0.6481   -0.1156    0.2017 C   0  0  1  0  0  0  0  0  0  0  0  0
    0.1344   -0.4988    0.8596 H   0  0  0  0  0  0  0  0  0  0  0  0
   -0.1211   -0.1520   -1.2460 C   0  0  0  0  0  0  0  0  0  0  0  0
   -0.6132    0.6213   -1.8376 H   0  0  0  0  0  0  0  0  0  0  0  0
    0.9490    0.0595   -1.2545 H   0  0  0  0  0  0  0  0  0  0  0  0
   -0.3778   -1.4723   -1.9308 C   0  0  0  0  0  0  0  0  0  0  0  0
   -0.0159   -1.7990   -3.2383 N   0  0  0  0  0  0  0  0  0  0  0  0
   -0.3883   -3.0748   -3.4168 C   0  0  0  0  0  0  0  0  0  0  0  0
   -0.2570   -3.6282   -4.3381 H   0  0  0  0  0  0  0  0  0  0  0  0
   -0.9354   -3.5657   -2.2920 N   0  0  0  0  0  0  0  0  0  0  0  0
   -1.2757   -4.5096   -2.1692 H   0  0  0  0  0  0  0  0  0  0  0  0
   -0.9339   -2.5696   -1.3410 C   0  0  0  0  0  0  0  0  0  0  0  0
   -1.2805   -2.6324   -0.3172 H   0  0  0  0  0  0  0  0  0  0  0  0
   -0.9851    1.3114    0.6698 C   0  0  0  0  0  0  0  0  0  0  0  0
   -2.0377    1.8431    0.3168 O   0  0  0  0  0  0  0  0  0  0  0  0
   -0.1052    1.9265    1.4663 N   0  0  0  0  0  0  0  0  0  0  0  0
    0.7810    1.4586    1.6201 H   0  0  0  0  0  0  0  0  0  0  0  0
   -0.2724    3.2715    2.0119 C   0  0  0  0  0  0  0  0  0  0  0  0
   -1.3249    3.4549    2.2426 H   0  0  0  0  0  0  0  0  0  0  0  0
    0.3167    3.3776    2.9239 H   0  0  0  0  0  0  0  0  0  0  0  0
    0.0609    4.0073    1.2782 H   0  0  0  0  0  0  0  0  0  0  0  0
  5  6  2  0  0  0  0
  5  7  1  0  0  0  0
  2  3  1  0  0  0  0
  2  4  1  0  0  0  0
  2  5  1  0  0  0  0
  1  2  1  0  0  0  0
 22 23  2  0  0  0  0
 22 24  1  0  0  0  0
 20 21  1  0  0  0  0
 18 19  1  0  0  0  0
 18 20  1  0  0  0  0
 16 17  1  0  0  0  0
 16 18  1  0  0  0  0
 15 16  2  0  0  0  0
 14 15  1  0  0  0  0
 14 20  2  0  0  0  0
 11 12  1  0  0  0  0
 11 13  1  0  0  0  0
 11 14  1  0  0  0  0
  9 10  1  0  0  0  0
  9 11  1  0  0  0  0
  9 22  1  0  0  0  0
  7  8  1  0  0  0  0
  7  9  1  0  0  0  0
 26 27  1  0  0  0  0
 26 28  1  0  0  0  0
 26 29  1  0  0  0  0
 24 25  1  0  0  0  0
 24 26  1  0  0  0  0
M  END
$$$$
default_name
  -OEChem-02102213163D

 29 29  0     1  0  0  0  0  0999 V2000
   -2.9561   -3.9186    1.3887 H   0  0  0  0  0  0  0  0  0  0  0  0
   -3.1191   -2.9346    0.9517 C   0  0  0  0  0  0  0  0  0  0  0  0
   -3.7811   -2.3546    1.5917 H   0  0  0  0  0  0  0  0  0  0  0  0
   -3.5591   -3.0406   -0.0383 H   0  0  0  0  0  0  0  0  0  0  0  0
   -1.7921   -2.2226    0.8327 C   0  0  0  0  0  0  0  0  0  0  0  0
   -0.7611   -2.7766    1.1927 O   0  0  0  0  0  0  0  0  0  0  0  0
   -1.8201   -0.9926    0.3247 N   0  0  0  0  0  0  0  0  0  0  0  0
   -2.7141   -0.5816    0.0927 H   0  0  0  0  0  0  0  0  0  0  0  0
   -0.6481   -0.1156    0.2017 C   0  0  1  0  0  0  0  0  0  0  0  0
    0.1344   -0.4988    0.8596 H   0  0  0  0  0  0  0  0  0  0  0  0
   -0.1211   -0.1520   -1.2460 C   0  0  0  0  0  0  0  0  0  0  0  0
   -0.6132    0.6213   -1.8376 H   0  0  0  0  0  0  0  0  0  0  0  0
    0.9490    0.0595   -1.2545 H   0  0  0  0  0  0  0  0  0  0  0  0
   -0.3778   -1.4723   -1.9308 C   0  0  0  0  0  0  0  0  0  0  0  0
    0.2247   -1.9123   -3.1101 N   0  0  0  0  0  0  0  0  0  0  0  0
   -0.2518   -3.1463   -3.3301 C   0  0  0  0  0  0  0  0  0  0  0  0
    0.0136   -3.7630   -4.1795 H   0  0  0  0  0  0  0  0  0  0  0  0
   -1.0926   -3.5071   -2.3461 N   0  0  0  0  0  0  0  0  0  0  0  0
   -1.5647   -4.3981   -2.2757 H   0  0  0  0  0  0  0  0  0  0  0  0
   -1.1819   -2.4644   -1.4509 C   0  0  0  0  0  0  0  0  0  0  0  0
   -1.7538   -2.4289   -0.5322 H   0  0  0  0  0  0  0  0  0  0  0  0
   -0.9851    1.3114    0.6698 C   0  0  0  0  0  0  0  0  0  0  0  0
   -2.0377    1.8431    0.3168 O   0  0  0  0  0  0  0  0  0  0  0  0
   -0.1052    1.9265    1.4663 N   0  0  0  0  0  0  0  0  0  0  0  0
    0.7810    1.4586    1.6201 H   0  0  0  0  0  0  0  0  0  0  0  0
   -0.2724    3.2715    2.0119 C   0  0  0  0  0  0  0  0  0  0  0  0
   -1.3249    3.4549    2.2426 H   0  0  0  0  0  0  0  0  0  0  0  0
    0.3167    3.3776    2.9239 H   0  0  0  0  0  0  0  0  0  0  0  0
    0.0609    4.0073    1.2782 H   0  0  0  0  0  0  0  0  0  0  0  0
  5  6  2  0  0  0  0
  5  7  1  0  0  0  0
  2  3  1  0  0  0  0
  2  4  1  0  0  0  0
  2  5  1  0  0  0  0
  1  2  1  0  0  0  0
 22 23  2  0  0  0  0
 22 24  1  0  0  0  0
 20 21  1  0  0  0  0
 18 19  1  0  0  0  0
 18 20  1  0  0  0  0
 16 17  1  0  0  0  0
 16 18  1  0  0  0  0
 15 16  2  0  0  0  0
 14 15  1  0  0  0  0
 14 20  2  0  0  0  0
 11 12  1  0  0  0  0
 11 13  1  0  0  0  0
 11 14  1  0  0  0  0
  9 10  1  0  0  0  0
  9 11  1  0  0  0  0
  9 22  1  0  0  0  0
  7  8  1  0  0  0  0
  7  9  1  0  0  0  0
 26 27  1  0  0  0  0
 26 28  1  0  0  0  0
 26 29  1  0  0  0  0
 24 25  1  0  0  0  0
 24 26  1  0  0  0  0
M  END
$$$$
default_name
  -OEChem-02102213163D

 29 29  0     1  0  0  0  0  0999 V2000
   -2.9561   -3.9186    1.3887 H   0  0  0  0  0  0  0  0  0  0  0  0
   -3.1191   -2.9346    0.9517 C   0  0  0  0  0  0  0  0  0  0  0  0
   -3.7811   -2.3546    1.5917 H   0  0  0  0  0  0  0  0  0  0  0  0
   -3.5591   -3.0406   -0.0383 H   0  0  0  0  0  0  0  0  0  0  0  0
   -1.7921   -2.2226    0.8327 C   0  0  0  0  0  0  0  0  0  0  0  0
   -0.7611   -2.7766    1.1927 O   0  0  0  0  0  0  0  0  0  0  0  0
   -1.8201   -0.9926    0.3247 N   0  0  0  0  0  0  0  0  0  0  0  0
   -2.7141   -0.5816    0.0927 H   0  0  0  0  0  0  0  0  0  0  0  0
   -0.6481   -0.1156    0.2017 C   0  0  1  0  0  0  0  0  0  0  0  0
    0.1344   -0.4988    0.8596 H   0  0  0  0  0  0  0  0  0  0  0  0
   -0.1211   -0.1520   -1.2460 C   0  0  0  0  0  0  0  0  0  0  0  0
   -0.6132    0.6213   -1.8376 H   0  0  0  0  0  0  0  0  0  0  0  0
    0.9490    0.0595   -1.2545 H   0  0  0  0  0  0  0  0  0  0  0  0
   -0.3778   -1.4723   -1.9308 C   0  0  0  0  0  0  0  0  0  0  0  0
    0.4148   -2.0443   -2.9268 N   0  0  0  0  0  0  0  0  0  0  0  0
   -0.1479   -3.2276   -3.2123 C   0  0  0  0  0  0  0  0  0  0  0  0
    0.2232   -3.9181   -3.9592 H   0  0  0  0  0  0  0  0  0  0  0  0
   -1.2253   -3.4344   -2.4365 N   0  0  0  0  0  0  0  0  0  0  0  0
   -1.8067   -4.2612   -2.4490 H   0  0  0  0  0  0  0  0  0  0  0  0
   -1.3842   -2.3385   -1.6178 C   0  0  0  0  0  0  0  0  0  0  0  0
   -2.1385   -2.1861   -0.8561 H   0  0  0  0  0  0  0  0  0  0  0  0
   -0.9851    1.3114    0.6698 C   0  0  0  0  0  0  0  0  0  0  0  0
   -2.0377    1.8431    0.3168 O   0  0  0  0  0  0  0  0  0  0  0  0
   -0.1052    1.9265    1.4663 N   0  0  0  0  0  0  0  0  0  0  0  0
    0.7810    1.4586    1.6201 H   0  0  0  0  0  0  0  0  0  0  0  0
   -0.2724    3.2715    2.0119 C   0  0  0  0  0  0  0  0  0  0  0  0
   -1.3249    3.4549    2.2426 H   0  0  0  0  0  0  0  0  0  0  0  0
    0.3167    3.3776    2.9239 H   0  0  0  0  0  0  0  0  0  0  0  0
    0.0609    4.0073    1.2782 H   0  0  0  0  0  0  0  0  0  0  0  0
  5  6  2  0  0  0  0
  5  7  1  0  0  0  0
  2  3  1  0  0  0  0
  2  4  1  0  0  0  0
  2  5  1  0  0  0  0
  1  2  1  0  0  0  0
 22 23  2  0  0  0  0
 22 24  1  0  0  0  0
 20 21  1  0  0  0  0
 18 19  1  0  0  0  0
 18 20  1  0  0  0  0
 16 17  1  0  0  0  0
 16 18  1  0  0  0  0
 15 16  2  0  0  0  0
 14 15  1  0  0  0  0
 14 20  2  0  0  0  0
 11 12  1  0  0  0  0
 11 13  1  0  0  0  0
 11 14  1  0  0  0  0
  9 10  1  0  0  0  0
  9 11  1  0  0  0  0
  9 22  1  0  0  0  0
  7  8  1  0  0  0  0
  7  9  1  0  0  0  0
 26 27  1  0  0  0  0
 26 28  1  0  0  0  0
 26 29  1  0  0  0  0
 24 25  1  0  0  0  0
 24 26  1  0  0  0  0
M  END
$$$$
default_name
  -OEChem-02102213163D

 29 29  0     1  0  0  0  0  0999 V2000
   -2.9561   -3.9186    1.3887 H   0  0  0  0  0  0  0  0  0  0  0  0
   -3.1191   -2.9346    0.9517 C   0  0  0  0  0  0  0  0  0  0  0  0
   -3.7811   -2.3546    1.5917 H   0  0  0  0  0  0  0  0  0  0  0  0
   -3.5591   -3.0406   -0.0383 H   0  0  0  0  0  0  0  0  0  0  0  0
   -1.7921   -2.2226    0.8327 C   0  0  0  0  0  0  0  0  0  0  0  0
   -0.7611   -2.7766    1.1927 O   0  0  0  0  0  0  0  0  0  0  0  0
   -1.8201   -0.9926    0.3247 N   0  0  0  0  0  0  0  0  0  0  0  0
   -2.7141   -0.5816    0.0927 H   0  0  0  0  0  0  0  0  0  0  0  0
   -0.6481   -0.1156    0.2017 C   0  0  1  0  0  0  0  0  0  0  0  0
    0.1344   -0.4988    0.8596 H   0  0  0  0  0  0  0  0  0  0  0  0
   -0.1211   -0.1520   -1.2460 C   0  0  0  0  0  0  0  0  0  0  0  0
   -0.6132    0.6213   -1.8376 H   0  0  0  0  0  0  0  0  0  0  0  0
    0.9490    0.0595   -1.2545 H   0  0  0  0  0  0  0  0  0  0  0  0
   -0.3778   -1.4723   -1.9308 C   0  0  0  0  0  0  0  0  0  0  0  0
    0.5413   -2.1861   -2.7009 N   0  0  0  0  0  0  0  0  0  0  0  0
   -0.0838   -3.3131   -3.0715 C   0  0  0  0  0  0  0  0  0  0  0  0
    0.3576   -4.0828   -3.6920 H   0  0  0  0  0  0  0  0  0  0  0  0
   -1.3244   -3.3526   -2.5571 N   0  0  0  0  0  0  0  0  0  0  0  0
   -1.9851   -4.1081   -2.6772 H   0  0  0  0  0  0  0  0  0  0  0  0
   -1.5271   -2.2005   -1.8303 C   0  0  0  0  0  0  0  0  0  0  0  0
   -2.4082   -1.9207   -1.2666 H   0  0  0  0  0  0  0  0  0  0  0  0
   -0.9851    1.3114    0.6698 C   0  0  0  0  0  0  0  0  0  0  0  0
   -2.0377    1.8431    0.3168 O   0  0  0  0  0  0  0  0  0  0  0  0
   -0.1052    1.9265    1.4663 N   0  0  0  0  0  0  0  0  0  0  0  0
    0.7810    1.4586    1.6201 H   0  0  0  0  0  0  0  0  0  0  0  0
   -0.2724    3.2715    2.0119 C   0  0  0  0  0  0  0  0  0  0  0  0
   -1.3249    3.4549    2.2426 H   0  0  0  0  0  0  0  0  0  0  0  0
    0.3167    3.3776    2.9239 H   0  0  0  0  0  0  0  0  0  0  0  0
    0.0609    4.0073    1.2782 H   0  0  0  0  0  0  0  0  0  0  0  0
  5  6  2  0  0  0  0
  5  7  1  0  0  0  0
  2  3  1  0  0  0  0
  2  4  1  0  0  0  0
  2  5  1  0  0  0  0
  1  2  1  0  0  0  0
 22 23  2  0  0  0  0
 22 24  1  0  0  0  0
 20 21  1  0  0  0  0
 18 19  1  0  0  0  0
 18 20  1  0  0  0  0
 16 17  1  0  0  0  0
 16 18  1  0  0  0  0
 15 16  2  0  0  0  0
 14 15  1  0  0  0  0
 14 20  2  0  0  0  0
 11 12  1  0  0  0  0
 11 13  1  0  0  0  0
 11 14  1  0  0  0  0
  9 10  1  0  0  0  0
  9 11  1  0  0  0  0
  9 22  1  0  0  0  0
  7  8  1  0  0  0  0
  7  9  1  0  0  0  0
 26 27  1  0  0  0  0
 26 28  1  0  0  0  0
 26 29  1  0  0  0  0
 24 25  1  0  0  0  0
 24 26  1  0  0  0  0
M  END
$$$$
default_name
  -OEChem-02102213163D

 29 29  0     1  0  0  0  0  0999 V2000
   -2.9561   -3.9186    1.3887 H   0  0  0  0  0  0  0  0  0  0  0  0
   -3.1191   -2.9346    0.9517 C   0  0  0  0  0  0  0  0  0  0  0  0
   -3.7811   -2.3546    1.5917 H   0  0  0  0  0  0  0  0  0  0  0  0
   -3.5591   -3.0406   -0.0383 H   0  0  0  0  0  0  0  0  0  0  0  0
   -1.7921   -2.2226    0.8327 C   0  0  0  0  0  0  0  0  0  0  0  0
   -0.7611   -2.7766    1.1927 O   0  0  0  0  0  0  0  0  0  0  0  0
   -1.8201   -0.9926    0.3247 N   0  0  0  0  0  0  0  0  0  0  0  0
   -2.7141   -0.5816    0.0927 H   0  0  0  0  0  0  0  0  0  0  0  0
   -0.6481   -0.1156    0.2017 C   0  0  1  0  0  0  0  0  0  0  0  0
    0.1344   -0.4988    0.8596 H   0  0  0  0  0  0  0  0  0  0  0  0
   -0.1211   -0.1520   -1.2460 C   0  0  0  0  0  0  0  0  0  0  0  0
   -0.6132    0.6213   -1.8376 H   0  0  0  0  0  0  0  0  0  0  0  0
    0.9490    0.0595   -1.2545 H   0  0  0  0  0  0  0  0  0  0  0  0
   -0.3778   -1.4723   -1.9308 C   0  0  0  0  0  0  0  0  0  0  0  0
    0.5958   -2.3280   -2.4477 N   0  0  0  0  0  0  0  0  0  0  0  0
   -0.0638   -3.3971   -2.9171 C   0  0  0  0  0  0  0  0  0  0  0  0
    0.4076   -4.2459   -3.3963 H   0  0  0  0  0  0  0  0  0  0  0  0
   -1.3833   -3.2672   -2.6996 N   0  0  0  0  0  0  0  0  0  0  0  0
   -2.0878   -3.9494   -2.9448 H   0  0  0  0  0  0  0  0  0  0  0  0
   -1.6007   -2.0597   -2.0741 C   0  0  0  0  0  0  0  0  0  0  0  0
   -2.5445   -1.6508   -1.7359 H   0  0  0  0  0  0  0  0  0  0  0  0
   -0.9851    1.3114    0.6698 C   0  0  0  0  0  0  0  0  0  0  0  0
   -2.0377    1.8431    0.3168 O   0  0  0  0  0  0  0  0  0  0  0  0
   -0.1052    1.9265    1.4663 N   0  0  0  0  0  0  0  0  0  0  0  0
    0.7810    1.4586    1.6201 H   0  0  0  0  0  0  0  0  0  0  0  0
   -0.2724    3.2715    2.0119 C   0  0  0  0  0  0  0  0  0  0  0  0
   -1.3249    3.4549    2.2426 H   0  0  0  0  0  0  0  0  0  0  0  0
    0.3167    3.3776    2.9239 H   0  0  0  0  0  0  0  0  0  0  0  0
    0.0609    4.0073    1.2782 H   0  0  0  0  0  0  0  0  0  0  0  0
  5  6  2  0  0  0  0
  5  7  1  0  0  0  0
  2  3  1  0  0  0  0
  2  4  1  0  0  0  0
  2  5  1  0  0  0  0
  1  2  1  0  0  0  0
 22 23  2  0  0  0  0
 22 24  1  0  0  0  0
 20 21  1  0  0  0  0
 18 19  1  0  0  0  0
 18 20  1  0  0  0  0
 16 17  1  0  0  0  0
 16 18  1  0  0  0  0
 15 16  2  0  0  0  0
 14 15  1  0  0  0  0
 14 20  2  0  0  0  0
 11 12  1  0  0  0  0
 11 13  1  0  0  0  0
 11 14  1  0  0  0  0
  9 10  1  0  0  0  0
  9 11  1  0  0  0  0
  9 22  1  0  0  0  0
  7  8  1  0  0  0  0
  7  9  1  0  0  0  0
 26 27  1  0  0  0  0
 26 28  1  0  0  0  0
 26 29  1  0  0  0  0
 24 25  1  0  0  0  0
 24 26  1  0  0  0  0
M  END
$$$$
default_name
  -OEChem-02102213163D

 29 29  0     1  0  0  0  0  0999 V2000
   -2.9561   -3.9186    1.3887 H   0  0  0  0  0  0  0  0  0  0  0  0
   -3.1191   -2.9346    0.9517 C   0  0  0  0  0  0  0  0  0  0  0  0
   -3.7811   -2.3546    1.5917 H   0  0  0  0  0  0  0  0  0  0  0  0
   -3.5591   -3.0406   -0.0383 H   0  0  0  0  0  0  0  0  0  0  0  0
   -1.7921   -2.2226    0.8327 C   0  0  0  0  0  0  0  0  0  0  0  0
   -0.7611   -2.7766    1.1927 O   0  0  0  0  0  0  0  0  0  0  0  0
   -1.8201   -0.9926    0.3247 N   0  0  0  0  0  0  0  0  0  0  0  0
   -2.7141   -0.5816    0.0927 H   0  0  0  0  0  0  0  0  0  0  0  0
   -0.6481   -0.1156    0.2017 C   0  0  1  0  0  0  0  0  0  0  0  0
    0.1344   -0.4988    0.8596 H   0  0  0  0  0  0  0  0  0  0  0  0
   -0.1211   -0.1520   -1.2460 C   0  0  0  0  0  0  0  0  0  0  0  0
   -0.6132    0.6213   -1.8376 H   0  0  0  0  0  0  0  0  0  0  0  0
    0.9490    0.0595   -1.2545 H   0  0  0  0  0  0  0  0  0  0  0  0
   -0.3778   -1.4723   -1.9308 C   0  0  0  0  0  0  0  0  0  0  0  0
    0.5744   -2.4603   -2.1847 N   0  0  0  0  0  0  0  0  0  0  0  0
   -0.0893   -3.4737   -2.7598 C   0  0  0  0  0  0  0  0  0  0  0  0
    0.3698   -4.3963   -3.0922 H   0  0  0  0  0  0  0  0  0  0  0  0
   -1.3979   -3.1841   -2.8544 N   0  0  0  0  0  0  0  0  0  0  0  0
   -2.1078   -3.7958   -3.2334 H   0  0  0  0  0  0  0  0  0  0  0  0
   -1.6002   -1.9259   -2.3324 C   0  0  0  0  0  0  0  0  0  0  0  0
   -2.5383   -1.3947   -2.2320 H   0  0  0  0  0  0  0  0  0  0  0  0
   -0.9851    1.3114    0.6698 C   0  0  0  0  0  0  0  0  0  0  0  0
   -2.0377    1.8431    0.3168 O   0  0  0  0  0  0  0  0  0  0  0  0
   -0.1052    1.9265    1.4663 N   0  0  0  0  0  0  0  0  0  0  0  0
    0.7810    1.4586    1.6201 H   0  0  0  0  0  0  0  0  0  0  0  0
   -0.2724    3.2715    2.0119 C   0  0  0  0  0  0  0  0  0  0  0  0
   -1.3249    3.4549    2.2426 H   0  0  0  0  0  0  0  0  0  0  0  0
    0.3167    3.3776    2.9239 H   0  0  0  0  0  0  0  0  0  0  0  0
    0.0609    4.0073    1.2782 H   0  0  0  0  0  0  0  0  0  0  0  0
  5  6  2  0  0  0  0
  5  7  1  0  0  0  0
  2  3  1  0  0  0  0
  2  4  1  0  0  0  0
  2  5  1  0  0  0  0
  1  2  1  0  0  0  0
 22 23  2  0  0  0  0
 22 24  1  0  0  0  0
 20 21  1  0  0  0  0
 18 19  1  0  0  0  0
 18 20  1  0  0  0  0
 16 17  1  0  0  0  0
 16 18  1  0  0  0  0
 15 16  2  0  0  0  0
 14 15  1  0  0  0  0
 14 20  2  0  0  0  0
 11 12  1  0  0  0  0
 11 13  1  0  0  0  0
 11 14  1  0  0  0  0
  9 10  1  0  0  0  0
  9 11  1  0  0  0  0
  9 22  1  0  0  0  0
  7  8  1  0  0  0  0
  7  9  1  0  0  0  0
 26 27  1  0  0  0  0
 26 28  1  0  0  0  0
 26 29  1  0  0  0  0
 24 25  1  0  0  0  0
 24 26  1  0  0  0  0
M  END
$$$$
default_name
  -OEChem-02102213163D

 29 29  0     1  0  0  0  0  0999 V2000
   -2.9561   -3.9186    1.3887 H   0  0  0  0  0  0  0  0  0  0  0  0
   -3.1191   -2.9346    0.9517 C   0  0  0  0  0  0  0  0  0  0  0  0
   -3.7811   -2.3546    1.5917 H   0  0  0  0  0  0  0  0  0  0  0  0
   -3.5591   -3.0406   -0.0383 H   0  0  0  0  0  0  0  0  0  0  0  0
   -1.7921   -2.2226    0.8327 C   0  0  0  0  0  0  0  0  0  0  0  0
   -0.7611   -2.7766    1.1927 O   0  0  0  0  0  0  0  0  0  0  0  0
   -1.8201   -0.9926    0.3247 N   0  0  0  0  0  0  0  0  0  0  0  0
   -2.7141   -0.5816    0.0927 H   0  0  0  0  0  0  0  0  0  0  0  0
   -0.6481   -0.1156    0.2017 C   0  0  1  0  0  0  0  0  0  0  0  0
    0.1344   -0.4988    0.8596 H   0  0  0  0  0  0  0  0  0  0  0  0
   -0.1211   -0.1520   -1.2460 C   0  0  0  0  0  0  0  0  0  0  0  0
   -0.6132    0.6213   -1.8376 H   0  0  0  0  0  0  0  0  0  0  0  0
    0.9490    0.0595   -1.2545 H   0  0  0  0  0  0  0  0  0  0  0  0
   -0.3778   -1.4723   -1.9308 C   0  0  0  0  0  0  0  0  0  0  0  0
    0.4787   -2.5740   -1.9296 N   0  0  0  0  0  0  0  0  0  0  0  0
   -0.1585   -3.5378   -2.6102 C   0  0  0  0  0  0  0  0  0  0  0  0
    0.2467   -4.5237   -2.8004 H   0  0  0  0  0  0  0  0  0  0  0  0
   -1.3671   -3.1089   -3.0108 N   0  0  0  0  0  0  0  0  0  0  0  0
   -2.0437   -3.6578   -3.5236 H   0  0  0  0  0  0  0  0  0  0  0  0
   -1.5254   -1.8080   -2.5876 C   0  0  0  0  0  0  0  0  0  0  0  0
   -2.3899   -1.1698   -2.7211 H   0  0  0  0  0  0  0  0  0  0  0  0
   -0.9851    1.3114    0.6698 C   0  0  0  0  0  0  0  0  0  0  0  0
   -2.0377    1.8431    0.3168 O   0  0  0  0  0  0  0  0  0  0  0  0
   -0.1052    1.9265    1.4663 N   0  0  0  0  0  0  0  0  0  0  0  0
    0.7810    1.4586    1.6201 H   0  0  0  0  0  0  0  0  0  0  0  0
   -0.2724    3.2715    2.0119 C   0  0  0  0  0  0  0  0  0  0  0  0
   -1.3249    3.4549    2.2426 H   0  0  0  0  0  0  0  0  0  0  0  0
    0.3167    3.3776    2.9239 H   0  0  0  0  0  0  0  0  0  0  0  0
    0.0609    4.0073    1.2782 H   0  0  0  0  0  0  0  0  0  0  0  0
  5  6  2  0  0  0  0
  5  7  1  0  0  0  0
  2  3  1  0  0  0  0
  2  4  1  0  0  0  0
  2  5  1  0  0  0  0
  1  2  1  0  0  0  0
 22 23  2  0  0  0  0
 22 24  1  0  0  0  0
 20 21  1  0  0  0  0
 18 19  1  0  0  0  0
 18 20  1  0  0  0  0
 16 17  1  0  0  0  0
 16 18  1  0  0  0  0
 15 16  2  0  0  0  0
 14 15  1  0  0  0  0
 14 20  2  0  0  0  0
 11 12  1  0  0  0  0
 11 13  1  0  0  0  0
 11 14  1  0  0  0  0
  9 10  1  0  0  0  0
  9 11  1  0  0  0  0
  9 22  1  0  0  0  0
  7  8  1  0  0  0  0
  7  9  1  0  0  0  0
 26 27  1  0  0  0  0
 26 28  1  0  0  0  0
 26 29  1  0  0  0  0
 24 25  1  0  0  0  0
 24 26  1  0  0  0  0
M  END
$$$$
default_name
  -OEChem-02102213163D

 29 29  0     1  0  0  0  0  0999 V2000
   -2.9561   -3.9186    1.3887 H   0  0  0  0  0  0  0  0  0  0  0  0
   -3.1191   -2.9346    0.9517 C   0  0  0  0  0  0  0  0  0  0  0  0
   -3.7811   -2.3546    1.5917 H   0  0  0  0  0  0  0  0  0  0  0  0
   -3.5591   -3.0406   -0.0383 H   0  0  0  0  0  0  0  0  0  0  0  0
   -1.7921   -2.2226    0.8327 C   0  0  0  0  0  0  0  0  0  0  0  0
   -0.7611   -2.7766    1.1927 O   0  0  0  0  0  0  0  0  0  0  0  0
   -1.8201   -0.9926    0.3247 N   0  0  0  0  0  0  0  0  0  0  0  0
   -2.7141   -0.5816    0.0927 H   0  0  0  0  0  0  0  0  0  0  0  0
   -0.6481   -0.1156    0.2017 C   0  0  1  0  0  0  0  0  0  0  0  0
    0.1344   -0.4988    0.8596 H   0  0  0  0  0  0  0  0  0  0  0  0
   -0.1211   -0.1520   -1.2460 C   0  0  0  0  0  0  0  0  0  0  0  0
   -0.6132    0.6213   -1.8376 H   0  0  0  0  0  0  0  0  0  0  0  0
    0.9490    0.0595   -1.2545 H   0  0  0  0  0  0  0  0  0  0  0  0
   -0.3778   -1.4723   -1.9308 C   0  0  0  0  0  0  0  0  0  0  0  0
    0.3151   -2.6613   -1.6998 N   0  0  0  0  0  0  0  0  0  0  0  0
   -0.2667   -3.5851   -2.4786 C   0  0  0  0  0  0  0  0  0  0  0  0
    0.0468   -4.6195   -2.5408 H   0  0  0  0  0  0  0  0  0  0  0  0
   -1.2932   -3.0468   -3.1583 N   0  0  0  0  0  0  0  0  0  0  0  0
   -1.8999   -3.5448   -3.7954 H   0  0  0  0  0  0  0  0  0  0  0  0
   -1.3816   -1.7142   -2.8225 C   0  0  0  0  0  0  0  0  0  0  0  0
   -2.1094   -0.9916   -3.1697 H   0  0  0  0  0  0  0  0  0  0  0  0
   -0.9851    1.3114    0.6698 C   0  0  0  0  0  0  0  0  0  0  0  0
   -2.0377    1.8431    0.3168 O   0  0  0  0  0  0  0  0  0  0  0  0
   -0.1052    1.9265    1.4663 N   0  0  0  0  0  0  0  0  0  0  0  0
    0.7810    1.4586    1.6201 H   0  0  0  0  0  0  0  0  0  0  0  0
   -0.2724    3.2715    2.0119 C   0  0  0  0  0  0  0  0  0  0  0  0
   -1.3249    3.4549    2.2426 H   0  0  0  0  0  0  0  0  0  0  0  0
    0.3167    3.3776    2.9239 H   0  0  0  0  0  0  0  0  0  0  0  0
    0.0609    4.0073    1.2782 H   0  0  0  0  0  0  0  0  0  0  0  0
  5  6  2  0  0  0  0
  5  7  1  0  0  0  0
  2  3  1  0  0  0  0
  2  4  1  0  0  0  0
  2  5  1  0  0  0  0
  1  2  1  0  0  0  0
 22 23  2  0  0  0  0
 22 24  1  0  0  0  0
 20 21  1  0  0  0  0
 18 19  1  0  0  0  0
 18 20  1  0  0  0  0
 16 17  1  0  0  0  0
 16 18  1  0  0  0  0
 15 16  2  0  0  0  0
 14 15  1  0  0  0  0
 14 20  2  0  0  0  0
 11 12  1  0  0  0  0
 11 13  1  0  0  0  0
 11 14  1  0  0  0  0
  9 10  1  0  0  0  0
  9 11  1  0  0  0  0
  9 22  1  0  0  0  0
  7  8  1  0  0  0  0
  7  9  1  0  0  0  0
 26 27  1  0  0  0  0
 26 28  1  0  0  0  0
 26 29  1  0  0  0  0
 24 25  1  0  0  0  0
 24 26  1  0  0  0  0
M  END
$$$$
default_name
  -OEChem-02102213163D

 29 29  0     1  0  0  0  0  0999 V2000
   -2.9561   -3.9186    1.3887 H   0  0  0  0  0  0  0  0  0  0  0  0
   -3.1191   -2.9346    0.9517 C   0  0  0  0  0  0  0  0  0  0  0  0
   -3.7811   -2.3546    1.5917 H   0  0  0  0  0  0  0  0  0  0  0  0
   -3.5591   -3.0406   -0.0383 H   0  0  0  0  0  0  0  0  0  0  0  0
   -1.7921   -2.2226    0.8327 C   0  0  0  0  0  0  0  0  0  0  0  0
   -0.7611   -2.7766    1.1927 O   0  0  0  0  0  0  0  0  0  0  0  0
   -1.8201   -0.9926    0.3247 N   0  0  0  0  0  0  0  0  0  0  0  0
   -2.7141   -0.5816    0.0927 H   0  0  0  0  0  0  0  0  0  0  0  0
   -0.6481   -0.1156    0.2017 C   0  0  1  0  0  0  0  0  0  0  0  0
    0.1344   -0.4988    0.8596 H   0  0  0  0  0  0  0  0  0  0  0  0
   -0.1211   -0.1520   -1.2460 C   0  0  0  0  0  0  0  0  0  0  0  0
   -0.6132    0.6213   -1.8376 H   0  0  0  0  0  0  0  0  0  0  0  0
    0.9490    0.0595   -1.2545 H   0  0  0  0  0  0  0  0  0  0  0  0
   -0.3778   -1.4723   -1.9308 C   0  0  0  0  0  0  0  0  0  0  0  0
    0.0948   -2.7164   -1.5111 N   0  0  0  0  0  0  0  0  0  0  0  0
   -0.4066   -3.6122   -2.3739 C   0  0  0  0  0  0  0  0  0  0  0  0
   -0.2163   -4.6771   -2.3310 H   0  0  0  0  0  0  0  0  0  0  0  0
   -1.1811   -3.0020   -3.2867 N   0  0  0  0  0  0  0  0  0  0  0  0
   -1.6862   -3.4644   -4.0303 H   0  0  0  0  0  0  0  0  0  0  0  0
   -1.1785   -1.6507   -3.0209 C   0  0  0  0  0  0  0  0  0  0  0  0
   -1.7160   -0.8722   -3.5475 H   0  0  0  0  0  0  0  0  0  0  0  0
   -0.9851    1.3114    0.6698 C   0  0  0  0  0  0  0  0  0  0  0  0
   -2.0377    1.8431    0.3168 O   0  0  0  0  0  0  0  0  0  0  0  0
   -0.1052    1.9265    1.4663 N   0  0  0  0  0  0  0  0  0  0  0  0
    0.7810    1.4586    1.6201 H   0  0  0  0  0  0  0  0  0  0  0  0
   -0.2724    3.2715    2.0119 C   0  0  0  0  0  0  0  0  0  0  0  0
   -1.3249    3.4549    2.2426 H   0  0  0  0  0  0  0  0  0  0  0  0
    0.3167    3.3776    2.9239 H   0  0  0  0  0  0  0  0  0  0  0  0
    0.0609    4.0073    1.2782 H   0  0  0  0  0  0  0  0  0  0  0  0
  5  6  2  0  0  0  0
  5  7  1  0  0  0  0
  2  3  1  0  0  0  0
  2  4  1  0  0  0  0
  2  5  1  0  0  0  0
  1  2  1  0  0  0  0
 22 23  2  0  0  0  0
 22 24  1  0  0  0  0
 20 21  1  0  0  0  0
 18 19  1  0  0  0  0
 18 20  1  0  0  0  0
 16 17  1  0  0  0  0
 16 18  1  0  0  0  0
 15 16  2  0  0  0  0
 14 15  1  0  0  0  0
 14 20  2  0  0  0  0
 11 12  1  0  0  0  0
 11 13  1  0  0  0  0
 11 14  1  0  0  0  0
  9 10  1  0  0  0  0
  9 11  1  0  0  0  0
  9 22  1  0  0  0  0
  7  8  1  0  0  0  0
  7  9  1  0  0  0  0
 26 27  1  0  0  0  0
 26 28  1  0  0  0  0
 26 29  1  0  0  0  0
 24 25  1  0  0  0  0
 24 26  1  0  0  0  0
M  END
$$$$
default_name
  -OEChem-02102213163D

 29 29  0     1  0  0  0  0  0999 V2000
   -2.9561   -3.9186    1.3887 H   0  0  0  0  0  0  0  0  0  0  0  0
   -3.1191   -2.9346    0.9517 C   0  0  0  0  0  0  0  0  0  0  0  0
   -3.7811   -2.3546    1.5917 H   0  0  0  0  0  0  0  0  0  0  0  0
   -3.5591   -3.0406   -0.0383 H   0  0  0  0  0  0  0  0  0  0  0  0
   -1.7921   -2.2226    0.8327 C   0  0  0  0  0  0  0  0  0  0  0  0
   -0.7611   -2.7766    1.1927 O   0  0  0  0  0  0  0  0  0  0  0  0
   -1.8201   -0.9926    0.3247 N   0  0  0  0  0  0  0  0  0  0  0  0
   -2.7141   -0.5816    0.0927 H   0  0  0  0  0  0  0  0  0  0  0  0
   -0.6481   -0.1156    0.2017 C   0  0  1  0  0  0  0  0  0  0  0  0
    0.1344   -0.4988    0.8596 H   0  0  0  0  0  0  0  0  0  0  0  0
   -0.1211   -0.1520   -1.2460 C   0  0  0  0  0  0  0  0  0  0  0  0
   -0.6132    0.6213   -1.8376 H   0  0  0  0  0  0  0  0  0  0  0  0
    0.9490    0.0595   -1.2545 H   0  0  0  0  0  0  0  0  0  0  0  0
   -0.3778   -1.4723   -1.9308 C   0  0  0  0  0  0  0  0  0  0  0  0
   -0.1671   -2.7354   -1.3763 N   0  0  0  0  0  0  0  0  0  0  0  0
   -0.5687   -3.6173   -2.3033 C   0  0  0  0  0  0  0  0  0  0  0  0
   -0.5247   -4.6927   -2.1855 H   0  0  0  0  0  0  0  0  0  0  0  0
   -1.0385   -2.9775   -3.3874 N   0  0  0  0  0  0  0  0  0  0  0  0
   -1.4171   -3.4223   -4.2124 H   0  0  0  0  0  0  0  0  0  0  0  0
   -0.9300   -1.6221   -3.1693 C   0  0  0  0  0  0  0  0  0  0  0  0
   -1.2365   -0.8197   -3.8285 H   0  0  0  0  0  0  0  0  0  0  0  0
   -0.9851    1.3114    0.6698 C   0  0  0  0  0  0  0  0  0  0  0  0
   -2.0377    1.8431    0.3168 O   0  0  0  0  0  0  0  0  0  0  0  0
   -0.1052    1.9265    1.4663 N   0  0  0  0  0  0  0  0  0  0  0  0
    0.7810    1.4586    1.6201 H   0  0  0  0  0  0  0  0  0  0  0  0
   -0.2724    3.2715    2.0119 C   0  0  0  0  0  0  0  0  0  0  0  0
   -1.3249    3.4549    2.2426 H   0  0  0  0  0  0  0  0  0  0  0  0
    0.3167    3.3776    2.9239 H   0  0  0  0  0  0  0  0  0  0  0  0
    0.0609    4.0073    1.2782 H   0  0  0  0  0  0  0  0  0  0  0  0
  5  6  2  0  0  0  0
  5  7  1  0  0  0  0
  2  3  1  0  0  0  0
  2  4  1  0  0  0  0
  2  5  1  0  0  0  0
  1  2  1  0  0  0  0
 22 23  2  0  0  0  0
 22 24  1  0  0  0  0
 20 21  1  0  0  0  0
 18 19  1  0  0  0  0
 18 20  1  0  0  0  0
 16 17  1  0  0  0  0
 16 18  1  0  0  0  0
 15 16  2  0  0  0  0
 14 15  1  0  0  0  0
 14 20  2  0  0  0  0
 11 12  1  0  0  0  0
 11 13  1  0  0  0  0
 11 14  1  0  0  0  0
  9 10  1  0  0  0  0
  9 11  1  0  0  0  0
  9 22  1  0  0  0  0
  7  8  1  0  0  0  0
  7  9  1  0  0  0  0
 26 27  1  0  0  0  0
 26 28  1  0  0  0  0
 26 29  1  0  0  0  0
 24 25  1  0  0  0  0
 24 26  1  0  0  0  0
M  END
$$$$
default_name
  -OEChem-02102213163D

 29 29  0     1  0  0  0  0  0999 V2000
   -2.9561   -3.9186    1.3887 H   0  0  0  0  0  0  0  0  0  0  0  0
   -3.1191   -2.9346    0.9517 C   0  0  0  0  0  0  0  0  0  0  0  0
   -3.7811   -2.3546    1.5917 H   0  0  0  0  0  0  0  0  0  0  0  0
   -3.5591   -3.0406   -0.0383 H   0  0  0  0  0  0  0  0  0  0  0  0
   -1.7921   -2.2226    0.8327 C   0  0  0  0  0  0  0  0  0  0  0  0
   -0.7611   -2.7766    1.1927 O   0  0  0  0  0  0  0  0  0  0  0  0
   -1.8201   -0.9926    0.3247 N   0  0  0  0  0  0  0  0  0  0  0  0
   -2.7141   -0.5816    0.0927 H   0  0  0  0  0  0  0  0  0  0  0  0
   -0.6481   -0.1156    0.2017 C   0  0  1  0  0  0  0  0  0  0  0  0
    0.1344   -0.4988    0.8596 H   0  0  0  0  0  0  0  0  0  0  0  0
   -0.1211   -0.1520   -1.2460 C   0  0  0  0  0  0  0  0  0  0  0  0
   -0.6132    0.6213   -1.8376 H   0  0  0  0  0  0  0  0  0  0  0  0
    0.9490    0.0595   -1.2545 H   0  0  0  0  0  0  0  0  0  0  0  0
   -0.3778   -1.4723   -1.9308 C   0  0  0  0  0  0  0  0  0  0  0  0
   -0.4529   -2.7171   -1.3045 N   0  0  0  0  0  0  0  0  0  0  0  0
   -0.7418   -3.6001   -2.2715 C   0  0  0  0  0  0  0  0  0  0  0  0
   -0.8573   -4.6651   -2.1140 H   0  0  0  0  0  0  0  0  0  0  0  0
   -0.8751   -2.9750   -3.4534 N   0  0  0  0  0  0  0  0  0  0  0  0
   -1.1110   -3.4212   -4.3292 H   0  0  0  0  0  0  0  0  0  0  0  0
   -0.6529   -1.6301   -3.2577 C   0  0  0  0  0  0  0  0  0  0  0  0
   -0.7034   -0.8376   -3.9938 H   0  0  0  0  0  0  0  0  0  0  0  0
   -0.9851    1.3114    0.6698 C   0  0  0  0  0  0  0  0  0  0  0  0
   -2.0377    1.8431    0.3168 O   0  0  0  0  0  0  0  0  0  0  0  0
   -0.1052    1.9265    1.4663 N   0  0  0  0  0  0  0  0  0  0  0  0
    0.7810    1.4586    1.6201 H   0  0  0  0  0  0  0  0  0  0  0  0
   -0.2724    3.2715    2.0119 C   0  0  0  0  0  0  0  0  0  0  0  0
   -1.3249    3.4549    2.2426 H   0  0  0  0  0  0  0  0  0  0  0  0
    0.3167    3.3776    2.9239 H   0  0  0  0  0  0  0  0  0  0  0  0
    0.0609    4.0073    1.2782 H   0  0  0  0  0  0  0  0  0  0  0  0
  5  6  2  0  0  0  0
  5  7  1  0  0  0  0
  2  3  1  0  0  0  0
  2  4  1  0  0  0  0
  2  5  1  0  0  0  0
  1  2  1  0  0  0  0
 22 23  2  0  0  0  0
 22 24  1  0  0  0  0
 20 21  1  0  0  0  0
 18 19  1  0  0  0  0
 18 20  1  0  0  0  0
 16 17  1  0  0  0  0
 16 18  1  0  0  0  0
 15 16  2  0  0  0  0
 14 15  1  0  0  0  0
 14 20  2  0  0  0  0
 11 12  1  0  0  0  0
 11 13  1  0  0  0  0
 11 14  1  0  0  0  0
  9 10  1  0  0  0  0
  9 11  1  0  0  0  0
  9 22  1  0  0  0  0
  7  8  1  0  0  0  0
  7  9  1  0  0  0  0
 26 27  1  0  0  0  0
 26 28  1  0  0  0  0
 26 29  1  0  0  0  0
 24 25  1  0  0  0  0
 24 26  1  0  0  0  0
M  END
$$$$
default_name
  -OEChem-02102213163D

 29 29  0     1  0  0  0  0  0999 V2000
   -2.9561   -3.9186    1.3887 H   0  0  0  0  0  0  0  0  0  0  0  0
   -3.1191   -2.9346    0.9517 C   0  0  0  0  0  0  0  0  0  0  0  0
   -3.7811   -2.3546    1.5917 H   0  0  0  0  0  0  0  0  0  0  0  0
   -3.5591   -3.0406   -0.0383 H   0  0  0  0  0  0  0  0  0  0  0  0
   -1.7921   -2.2226    0.8327 C   0  0  0  0  0  0  0  0  0  0  0  0
   -0.7611   -2.7766    1.1927 O   0  0  0  0  0  0  0  0  0  0  0  0
   -1.8201   -0.9926    0.3247 N   0  0  0  0  0  0  0  0  0  0  0  0
   -2.7141   -0.5816    0.0927 H   0  0  0  0  0  0  0  0  0  0  0  0
   -0.6481   -0.1156    0.2017 C   0  0  1  0  0  0  0  0  0  0  0  0
    0.1344   -0.4988    0.8596 H   0  0  0  0  0  0  0  0  0  0  0  0
   -0.1211   -0.1520   -1.2460 C   0  0  0  0  0  0  0  0  0  0  0  0
   -0.6132    0.6213   -1.8376 H   0  0  0  0  0  0  0  0  0  0  0  0
    0.9490    0.0595   -1.2545 H   0  0  0  0  0  0  0  0  0  0  0  0
   -0.3778   -1.4723   -1.9308 C   0  0  0  0  0  0  0  0  0  0  0  0
   -0.7431   -2.6626   -1.3007 N   0  0  0  0  0  0  0  0  0  0  0  0
   -0.9141   -3.5618   -2.2808 C   0  0  0  0  0  0  0  0  0  0  0  0
   -1.1916   -4.5962   -2.1215 H   0  0  0  0  0  0  0  0  0  0  0  0
   -0.7021   -2.9947   -3.4803 N   0  0  0  0  0  0  0  0  0  0  0  0
   -0.7888   -3.4613   -4.3728 H   0  0  0  0  0  0  0  0  0  0  0  0
   -0.3662   -1.6743   -3.2800 C   0  0  0  0  0  0  0  0  0  0  0  0
   -0.1533   -0.9248   -4.0319 H   0  0  0  0  0  0  0  0  0  0  0  0
   -0.9851    1.3114    0.6698 C   0  0  0  0  0  0  0  0  0  0  0  0
   -2.0377    1.8431    0.3168 O   0  0  0  0  0  0  0  0  0  0  0  0
   -0.1052    1.9265    1.4663 N   0  0  0  0  0  0  0  0  0  0  0  0
    0.7810    1.4586    1.6201 H   0  0  0  0  0  0  0  0  0  0  0  0
   -0.2724    3.2715    2.0119 C   0  0  0  0  0  0  0  0  0  0  0  0
   -1.3249    3.4549    2.2426 H   0  0  0  0  0  0  0  0  0  0  0  0
    0.3167    3.3776    2.9239 H   0  0  0  0  0  0  0  0  0  0  0  0
    0.0609    4.0073    1.2782 H   0  0  0  0  0  0  0  0  0  0  0  0
  5  6  2  0  0  0  0
  5  7  1  0  0  0  0
  2  3  1  0  0  0  0
  2  4  1  0  0  0  0
  2  5  1  0  0  0  0
  1  2  1  0  0  0  0
 22 23  2  0  0  0  0
 22 24  1  0  0  0  0
 20 21  1  0  0  0  0
 18 19  1  0  0  0  0
 18 20  1  0  0  0  0
 16 17  1  0  0  0  0
 16 18  1  0  0  0  0
 15 16  2  0  0  0  0
 14 15  1  0  0  0  0
 14 20  2  0  0  0  0
 11 12  1  0  0  0  0
 11 13  1  0  0  0  0
 11 14  1  0  0  0  0
  9 10  1  0  0  0  0
  9 11  1  0  0  0  0
  9 22  1  0  0  0  0
  7  8  1  0  0  0  0
  7  9  1  0  0  0  0
 26 27  1  0  0  0  0
 26 28  1  0  0  0  0
 26 29  1  0  0  0  0
 24 25  1  0  0  0  0
 24 26  1  0  0  0  0
M  END
$$$$
default_name
  -OEChem-02102213163D

 29 29  0     1  0  0  0  0  0999 V2000
   -2.9561   -3.9186    1.3887 H   0  0  0  0  0  0  0  0  0  0  0  0
   -3.1191   -2.9346    0.9517 C   0  0  0  0  0  0  0  0  0  0  0  0
   -3.7811   -2.3546    1.5917 H   0  0  0  0  0  0  0  0  0  0  0  0
   -3.5591   -3.0406   -0.0383 H   0  0  0  0  0  0  0  0  0  0  0  0
   -1.7921   -2.2226    0.8327 C   0  0  0  0  0  0  0  0  0  0  0  0
   -0.7611   -2.7766    1.1927 O   0  0  0  0  0  0  0  0  0  0  0  0
   -1.8201   -0.9926    0.3247 N   0  0  0  0  0  0  0  0  0  0  0  0
   -2.7141   -0.5816    0.0927 H   0  0  0  0  0  0  0  0  0  0  0  0
   -0.6481   -0.1156    0.2017 C   0  0  1  0  0  0  0  0  0  0  0  0
    0.1344   -0.4988    0.8596 H   0  0  0  0  0  0  0  0  0  0  0  0
   -0.1211   -0.1520   -1.2460 C   0  0  0  0  0  0  0  0  0  0  0  0
   -0.6132    0.6213   -1.8376 H   0  0  0  0  0  0  0  0  0  0  0  0
    0.9490    0.0595   -1.2545 H   0  0  0  0  0  0  0  0  0  0  0  0
   -0.3778   -1.4723   -1.9308 C   0  0  0  0  0  0  0  0  0  0  0  0
   -1.0178   -2.5758   -1.3651 N   0  0  0  0  0  0  0  0  0  0  0  0
   -1.0741   -3.5050   -2.3304 C   0  0  0  0  0  0  0  0  0  0  0  0
   -1.5047   -4.4907   -2.2075 H   0  0  0  0  0  0  0  0  0  0  0  0
   -0.5311   -3.0353   -3.4662 N   0  0  0  0  0  0  0  0  0  0  0  0
   -0.4724   -3.5397   -4.3402 H   0  0  0  0  0  0  0  0  0  0  0  0
   -0.0894   -1.7516   -3.2347 C   0  0  0  0  0  0  0  0  0  0  0  0
    0.3765   -1.0753   -3.9403 H   0  0  0  0  0  0  0  0  0  0  0  0
   -0.9851    1.3114    0.6698 C   0  0  0  0  0  0  0  0  0  0  0  0
   -2.0377    1.8431    0.3168 O   0  0  0  0  0  0  0  0  0  0  0  0
   -0.1052    1.9265    1.4663 N   0  0  0  0  0  0  0  0  0  0  0  0
    0.7810    1.4586    1.6201 H   0  0  0  0  0  0  0  0  0  0  0  0
   -0.2724    3.2715    2.0119 C   0  0  0  0  0  0  0  0  0  0  0  0
   -1.3249    3.4549    2.2426 H   0  0  0  0  0  0  0  0  0  0  0  0
    0.3167    3.3776    2.9239 H   0  0  0  0  0  0  0  0  0  0  0  0
    0.0609    4.0073    1.2782 H   0  0  0  0  0  0  0  0  0  0  0  0
  5  6  2  0  0  0  0
  5  7  1  0  0  0  0
  2  3  1  0  0  0  0
  2  4  1  0  0  0  0
  2  5  1  0  0  0  0
  1  2  1  0  0  0  0
 22 23  2  0  0  0  0
 22 24  1  0  0  0  0
 20 21  1  0  0  0  0
 18 19  1  0  0  0  0
 18 20  1  0  0  0  0
 16 17  1  0  0  0  0
 16 18  1  0  0  0  0
 15 16  2  0  0  0  0
 14 15  1  0  0  0  0
 14 20  2  0  0  0  0
 11 12  1  0  0  0  0
 11 13  1  0  0  0  0
 11 14  1  0  0  0  0
  9 10  1  0  0  0  0
  9 11  1  0  0  0  0
  9 22  1  0  0  0  0
  7  8  1  0  0  0  0
  7  9  1  0  0  0  0
 26 27  1  0  0  0  0
 26 28  1  0  0  0  0
 26 29  1  0  0  0  0
 24 25  1  0  0  0  0
 24 26  1  0  0  0  0
M  END
$$$$
default_name
  -OEChem-02102213163D

 29 29  0     1  0  0  0  0  0999 V2000
   -2.9561   -3.9186    1.3887 H   0  0  0  0  0  0  0  0  0  0  0  0
   -3.1191   -2.9346    0.9517 C   0  0  0  0  0  0  0  0  0  0  0  0
   -3.7811   -2.3546    1.5917 H   0  0  0  0  0  0  0  0  0  0  0  0
   -3.5591   -3.0406   -0.0383 H   0  0  0  0  0  0  0  0  0  0  0  0
   -1.7921   -2.2226    0.8327 C   0  0  0  0  0  0  0  0  0  0  0  0
   -0.7611   -2.7766    1.1927 O   0  0  0  0  0  0  0  0  0  0  0  0
   -1.8201   -0.9926    0.3247 N   0  0  0  0  0  0  0  0  0  0  0  0
   -2.7141   -0.5816    0.0927 H   0  0  0  0  0  0  0  0  0  0  0  0
   -0.6481   -0.1156    0.2017 C   0  0  1  0  0  0  0  0  0  0  0  0
    0.1344   -0.4988    0.8596 H   0  0  0  0  0  0  0  0  0  0  0  0
   -0.1211   -0.1520   -1.2460 C   0  0  0  0  0  0  0  0  0  0  0  0
   -0.6132    0.6213   -1.8376 H   0  0  0  0  0  0  0  0  0  0  0  0
    0.9490    0.0595   -1.2545 H   0  0  0  0  0  0  0  0  0  0  0  0
   -0.3778   -1.4723   -1.9308 C   0  0  0  0  0  0  0  0  0  0  0  0
   -1.2584   -2.4625   -1.4934 N   0  0  0  0  0  0  0  0  0  0  0  0
   -1.2106   -3.4335   -2.4171 C   0  0  0  0  0  0  0  0  0  0  0  0
   -1.7753   -4.3559   -2.3660 H   0  0  0  0  0  0  0  0  0  0  0  0
   -0.3739   -3.0939   -3.4121 N   0  0  0  0  0  0  0  0  0  0  0  0
   -0.1834   -3.6512   -4.2337 H   0  0  0  0  0  0  0  0  0  0  0  0
    0.1586   -1.8568   -3.1248 C   0  0  0  0  0  0  0  0  0  0  0  0
    0.8499   -1.2789   -3.7253 H   0  0  0  0  0  0  0  0  0  0  0  0
   -0.9851    1.3114    0.6698 C   0  0  0  0  0  0  0  0  0  0  0  0
   -2.0377    1.8431    0.3168 O   0  0  0  0  0  0  0  0  0  0  0  0
   -0.1052    1.9265    1.4663 N   0  0  0  0  0  0  0  0  0  0  0  0
    0.7810    1.4586    1.6201 H   0  0  0  0  0  0  0  0  0  0  0  0
   -0.2724    3.2715    2.0119 C   0  0  0  0  0  0  0  0  0  0  0  0
   -1.3249    3.4549    2.2426 H   0  0  0  0  0  0  0  0  0  0  0  0
    0.3167    3.3776    2.9239 H   0  0  0  0  0  0  0  0  0  0  0  0
    0.0609    4.0073    1.2782 H   0  0  0  0  0  0  0  0  0  0  0  0
  5  6  2  0  0  0  0
  5  7  1  0  0  0  0
  2  3  1  0  0  0  0
  2  4  1  0  0  0  0
  2  5  1  0  0  0  0
  1  2  1  0  0  0  0
 22 23  2  0  0  0  0
 22 24  1  0  0  0  0
 20 21  1  0  0  0  0
 18 19  1  0  0  0  0
 18 20  1  0  0  0  0
 16 17  1  0  0  0  0
 16 18  1  0  0  0  0
 15 16  2  0  0  0  0
 14 15  1  0  0  0  0
 14 20  2  0  0  0  0
 11 12  1  0  0  0  0
 11 13  1  0  0  0  0
 11 14  1  0  0  0  0
  9 10  1  0  0  0  0
  9 11  1  0  0  0  0
  9 22  1  0  0  0  0
  7  8  1  0  0  0  0
  7  9  1  0  0  0  0
 26 27  1  0  0  0  0
 26 28  1  0  0  0  0
 26 29  1  0  0  0  0
 24 25  1  0  0  0  0
 24 26  1  0  0  0  0
M  END
$$$$
default_name
  -OEChem-02102213163D

 29 29  0     1  0  0  0  0  0999 V2000
   -2.9561   -3.9186    1.3887 H   0  0  0  0  0  0  0  0  0  0  0  0
   -3.1191   -2.9346    0.9517 C   0  0  0  0  0  0  0  0  0  0  0  0
   -3.7811   -2.3546    1.5917 H   0  0  0  0  0  0  0  0  0  0  0  0
   -3.5591   -3.0406   -0.0383 H   0  0  0  0  0  0  0  0  0  0  0  0
   -1.7921   -2.2226    0.8327 C   0  0  0  0  0  0  0  0  0  0  0  0
   -0.7611   -2.7766    1.1927 O   0  0  0  0  0  0  0  0  0  0  0  0
   -1.8201   -0.9926    0.3247 N   0  0  0  0  0  0  0  0  0  0  0  0
   -2.7141   -0.5816    0.0927 H   0  0  0  0  0  0  0  0  0  0  0  0
   -0.6481   -0.1156    0.2017 C   0  0  1  0  0  0  0  0  0  0  0  0
    0.1344   -0.4988    0.8596 H   0  0  0  0  0  0  0  0  0  0  0  0
   -0.1211   -0.1520   -1.2460 C   0  0  0  0  0  0  0  0  0  0  0  0
   -0.6132    0.6213   -1.8376 H   0  0  0  0  0  0  0  0  0  0  0  0
    0.9490    0.0595   -1.2545 H   0  0  0  0  0  0  0  0  0  0  0  0
   -0.3778   -1.4723   -1.9308 C   0  0  0  0  0  0  0  0  0  0  0  0
   -1.4485   -2.3305   -1.6767 N   0  0  0  0  0  0  0  0  0  0  0  0
   -1.3145   -3.3522   -2.5349 C   0  0  0  0  0  0  0  0  0  0  0  0
   -1.9849   -4.2008   -2.5864 H   0  0  0  0  0  0  0  0  0  0  0  0
   -0.2413   -3.1666   -3.3216 N   0  0  0  0  0  0  0  0  0  0  0  0
    0.0586   -3.7881   -4.0604 H   0  0  0  0  0  0  0  0  0  0  0  0
    0.3609   -1.9827   -2.9579 C   0  0  0  0  0  0  0  0  0  0  0  0
    1.2345   -1.5216   -3.4014 H   0  0  0  0  0  0  0  0  0  0  0  0
   -0.9851    1.3114    0.6698 C   0  0  0  0  0  0  0  0  0  0  0  0
   -2.0377    1.8431    0.3168 O   0  0  0  0  0  0  0  0  0  0  0  0
   -0.1052    1.9265    1.4663 N   0  0  0  0  0  0  0  0  0  0  0  0
    0.7810    1.4586    1.6201 H   0  0  0  0  0  0  0  0  0  0  0  0
   -0.2724    3.2715    2.0119 C   0  0  0  0  0  0  0  0  0  0  0  0
   -1.3249    3.4549    2.2426 H   0  0  0  0  0  0  0  0  0  0  0  0
    0.3167    3.3776    2.9239 H   0  0  0  0  0  0  0  0  0  0  0  0
    0.0609    4.0073    1.2782 H   0  0  0  0  0  0  0  0  0  0  0  0
  5  6  2  0  0  0  0
  5  7  1  0  0  0  0
  2  3  1  0  0  0  0
  2  4  1  0  0  0  0
  2  5  1  0  0  0  0
  1  2  1  0  0  0  0
 22 23  2  0  0  0  0
 22 24  1  0  0  0  0
 20 21  1  0  0  0  0
 18 19  1  0  0  0  0
 18 20  1  0  0  0  0
 16 17  1  0  0  0  0
 16 18  1  0  0  0  0
 15 16  2  0  0  0  0
 14 15  1  0  0  0  0
 14 20  2  0  0  0  0
 11 12  1  0  0  0  0
 11 13  1  0  0  0  0
 11 14  1  0  0  0  0
  9 10  1  0  0  0  0
  9 11  1  0  0  0  0
  9 22  1  0  0  0  0
  7  8  1  0  0  0  0
  7  9  1  0  0  0  0
 26 27  1  0  0  0  0
 26 28  1  0  0  0  0
 26 29  1  0  0  0  0
 24 25  1  0  0  0  0
 24 26  1  0  0  0  0
M  END
$$$$
default_name
  -OEChem-02102213163D

 29 29  0     1  0  0  0  0  0999 V2000
   -2.9561   -3.9186    1.3887 H   0  0  0  0  0  0  0  0  0  0  0  0
   -3.1191   -2.9346    0.9517 C   0  0  0  0  0  0  0  0  0  0  0  0
   -3.7811   -2.3546    1.5917 H   0  0  0  0  0  0  0  0  0  0  0  0
   -3.5591   -3.0406   -0.0383 H   0  0  0  0  0  0  0  0  0  0  0  0
   -1.7921   -2.2226    0.8327 C   0  0  0  0  0  0  0  0  0  0  0  0
   -0.7611   -2.7766    1.1927 O   0  0  0  0  0  0  0  0  0  0  0  0
   -1.8201   -0.9926    0.3247 N   0  0  0  0  0  0  0  0  0  0  0  0
   -2.7141   -0.5816    0.0927 H   0  0  0  0  0  0  0  0  0  0  0  0
   -0.6481   -0.1156    0.2017 C   0  0  1  0  0  0  0  0  0  0  0  0
    0.1344   -0.4988    0.8596 H   0  0  0  0  0  0  0  0  0  0  0  0
   -0.1211   -0.1520   -1.2460 C   0  0  0  0  0  0  0  0  0  0  0  0
   -0.6132    0.6213   -1.8376 H   0  0  0  0  0  0  0  0  0  0  0  0
    0.9490    0.0595   -1.2545 H   0  0  0  0  0  0  0  0  0  0  0  0
   -0.3778   -1.4723   -1.9308 C   0  0  0  0  0  0  0  0  0  0  0  0
   -1.5750   -2.1887   -1.9026 N   0  0  0  0  0  0  0  0  0  0  0  0
   -1.3786   -3.2666   -2.6757 C   0  0  0  0  0  0  0  0  0  0  0  0
   -2.1193   -4.0361   -2.8535 H   0  0  0  0  0  0  0  0  0  0  0  0
   -0.1421   -3.2484   -3.2011 N   0  0  0  0  0  0  0  0  0  0  0  0
    0.2370   -3.9411   -3.8322 H   0  0  0  0  0  0  0  0  0  0  0  0
    0.5038   -2.1207   -2.7454 C   0  0  0  0  0  0  0  0  0  0  0  0
    1.5042   -1.7870   -2.9909 H   0  0  0  0  0  0  0  0  0  0  0  0
   -0.9851    1.3114    0.6698 C   0  0  0  0  0  0  0  0  0  0  0  0
   -2.0377    1.8431    0.3168 O   0  0  0  0  0  0  0  0  0  0  0  0
   -0.1052    1.9265    1.4663 N   0  0  0  0  0  0  0  0  0  0  0  0
    0.7810    1.4586    1.6201 H   0  0  0  0  0  0  0  0  0  0  0  0
   -0.2724    3.2715    2.0119 C   0  0  0  0  0  0  0  0  0  0  0  0
   -1.3249    3.4549    2.2426 H   0  0  0  0  0  0  0  0  0  0  0  0
    0.3167    3.3776    2.9239 H   0  0  0  0  0  0  0  0  0  0  0  0
    0.0609    4.0073    1.2782 H   0  0  0  0  0  0  0  0  0  0  0  0
  5  6  2  0  0  0  0
  5  7  1  0  0  0  0
  2  3  1  0  0  0  0
  2  4  1  0  0  0  0
  2  5  1  0  0  0  0
  1  2  1  0  0  0  0
 22 23  2  0  0  0  0
 22 24  1  0  0  0  0
 20 21  1  0  0  0  0
 18 19  1  0  0  0  0
 18 20  1  0  0  0  0
 16 17  1  0  0  0  0
 16 18  1  0  0  0  0
 15 16  2  0  0  0  0
 14 15  1  0  0  0  0
 14 20  2  0  0  0  0
 11 12  1  0  0  0  0
 11 13  1  0  0  0  0
 11 14  1  0  0  0  0
  9 10  1  0  0  0  0
  9 11  1  0  0  0  0
  9 22  1  0  0  0  0
  7  8  1  0  0  0  0
  7  9  1  0  0  0  0
 26 27  1  0  0  0  0
 26 28  1  0  0  0  0
 26 29  1  0  0  0  0
 24 25  1  0  0  0  0
 24 26  1  0  0  0  0
M  END
$$$$
default_name
  -OEChem-02102213163D

 29 29  0     1  0  0  0  0  0999 V2000
   -2.9561   -3.9186    1.3887 H   0  0  0  0  0  0  0  0  0  0  0  0
   -3.1191   -2.9346    0.9517 C   0  0  0  0  0  0  0  0  0  0  0  0
   -3.7811   -2.3546    1.5917 H   0  0  0  0  0  0  0  0  0  0  0  0
   -3.5591   -3.0406   -0.0383 H   0  0  0  0  0  0  0  0  0  0  0  0
   -1.7921   -2.2226    0.8327 C   0  0  0  0  0  0  0  0  0  0  0  0
   -0.7611   -2.7766    1.1927 O   0  0  0  0  0  0  0  0  0  0  0  0
   -1.8201   -0.9926    0.3247 N   0  0  0  0  0  0  0  0  0  0  0  0
   -2.7141   -0.5816    0.0927 H   0  0  0  0  0  0  0  0  0  0  0  0
   -0.6481   -0.1156    0.2017 C   0  0  1  0  0  0  0  0  0  0  0  0
    0.1344   -0.4988    0.8596 H   0  0  0  0  0  0  0  0  0  0  0  0
   -0.1211   -0.1520   -1.2460 C   0  0  0  0  0  0  0  0  0  0  0  0
   -0.6132    0.6213   -1.8376 H   0  0  0  0  0  0  0  0  0  0  0  0
    0.9490    0.0595   -1.2545 H   0  0  0  0  0  0  0  0  0  0  0  0
   -0.3778   -1.4723   -1.9308 C   0  0  0  0  0  0  0  0  0  0  0  0
   -1.6295   -2.0468   -2.1557 N   0  0  0  0  0  0  0  0  0  0  0  0
   -1.3986   -3.1827   -2.8301 C   0  0  0  0  0  0  0  0  0  0  0  0
   -2.1692   -3.8730   -3.1492 H   0  0  0  0  0  0  0  0  0  0  0  0
   -0.0832   -3.3338   -3.0585 N   0  0  0  0  0  0  0  0  0  0  0  0
    0.3397   -4.0999   -3.5646 H   0  0  0  0  0  0  0  0  0  0  0  0
    0.5775   -2.2615   -2.5016 C   0  0  0  0  0  0  0  0  0  0  0  0
    1.6405   -2.0570   -2.5215 H   0  0  0  0  0  0  0  0  0  0  0  0
   -0.9851    1.3114    0.6698 C   0  0  0  0  0  0  0  0  0  0  0  0
   -2.0377    1.8431    0.3168 O   0  0  0  0  0  0  0  0  0  0  0  0
   -0.1052    1.9265    1.4663 N   0  0  0  0  0  0  0  0  0  0  0  0
    0.7810    1.4586    1.6201 H   0  0  0  0  0  0  0  0  0  0  0  0
   -0.2724    3.2715    2.0119 C   0  0  0  0  0  0  0  0  0  0  0  0
   -1.3249    3.4549    2.2426 H   0  0  0  0  0  0  0  0  0  0  0  0
    0.3167    3.3776    2.9239 H   0  0  0  0  0  0  0  0  0  0  0  0
    0.0609    4.0073    1.2782 H   0  0  0  0  0  0  0  0  0  0  0  0
  5  6  2  0  0  0  0
  5  7  1  0  0  0  0
  2  3  1  0  0  0  0
  2  4  1  0  0  0  0
  2  5  1  0  0  0  0
  1  2  1  0  0  0  0
 22 23  2  0  0  0  0
 22 24  1  0  0  0  0
 20 21  1  0  0  0  0
 18 19  1  0  0  0  0
 18 20  1  0  0  0  0
 16 17  1  0  0  0  0
 16 18  1  0  0  0  0
 15 16  2  0  0  0  0
 14 15  1  0  0  0  0
 14 20  2  0  0  0  0
 11 12  1  0  0  0  0
 11 13  1  0  0  0  0
 11 14  1  0  0  0  0
  9 10  1  0  0  0  0
  9 11  1  0  0  0  0
  9 22  1  0  0  0  0
  7  8  1  0  0  0  0
  7  9  1  0  0  0  0
 26 27  1  0  0  0  0
 26 28  1  0  0  0  0
 26 29  1  0  0  0  0
 24 25  1  0  0  0  0
 24 26  1  0  0  0  0
M  END
$$$$
default_name
  -OEChem-02102213163D

 29 29  0     1  0  0  0  0  0999 V2000
   -2.9561   -3.9186    1.3887 H   0  0  0  0  0  0  0  0  0  0  0  0
   -3.1191   -2.9346    0.9517 C   0  0  0  0  0  0  0  0  0  0  0  0
   -3.7811   -2.3546    1.5917 H   0  0  0  0  0  0  0  0  0  0  0  0
   -3.5591   -3.0406   -0.0383 H   0  0  0  0  0  0  0  0  0  0  0  0
   -1.7921   -2.2226    0.8327 C   0  0  0  0  0  0  0  0  0  0  0  0
   -0.7611   -2.7766    1.1927 O   0  0  0  0  0  0  0  0  0  0  0  0
   -1.8201   -0.9926    0.3247 N   0  0  0  0  0  0  0  0  0  0  0  0
   -2.7141   -0.5816    0.0927 H   0  0  0  0  0  0  0  0  0  0  0  0
   -0.6481   -0.1156    0.2017 C   0  0  1  0  0  0  0  0  0  0  0  0
    0.1344   -0.4988    0.8596 H   0  0  0  0  0  0  0  0  0  0  0  0
   -0.1211   -0.1520   -1.2460 C   0  0  0  0  0  0  0  0  0  0  0  0
   -0.6132    0.6213   -1.8376 H   0  0  0  0  0  0  0  0  0  0  0  0
    0.9490    0.0595   -1.2545 H   0  0  0  0  0  0  0  0  0  0  0  0
   -0.3778   -1.4723   -1.9308 C   0  0  0  0  0  0  0  0  0  0  0  0
   -1.6081   -1.9145   -2.4188 N   0  0  0  0  0  0  0  0  0  0  0  0
   -1.3732   -3.1060   -2.9874 C   0  0  0  0  0  0  0  0  0  0  0  0
   -2.1314   -3.7226   -3.4533 H   0  0  0  0  0  0  0  0  0  0  0  0
   -0.0687   -3.4169   -2.9038 N   0  0  0  0  0  0  0  0  0  0  0  0
    0.3597   -4.2535   -3.2760 H   0  0  0  0  0  0  0  0  0  0  0  0
    0.5769   -2.3954   -2.2433 C   0  0  0  0  0  0  0  0  0  0  0  0
    1.6343   -2.3131   -2.0255 H   0  0  0  0  0  0  0  0  0  0  0  0
   -0.9851    1.3114    0.6698 C   0  0  0  0  0  0  0  0  0  0  0  0
   -2.0377    1.8431    0.3168 O   0  0  0  0  0  0  0  0  0  0  0  0
   -0.1052    1.9265    1.4663 N   0  0  0  0  0  0  0  0  0  0  0  0
    0.7810    1.4586    1.6201 H   0  0  0  0  0  0  0  0  0  0  0  0
   -0.2724    3.2715    2.0119 C   0  0  0  0  0  0  0  0  0  0  0  0
   -1.3249    3.4549    2.2426 H   0  0  0  0  0  0  0  0  0  0  0  0
    0.3167    3.3776    2.9239 H   0  0  0  0  0  0  0  0  0  0  0  0
    0.0609    4.0073    1.2782 H   0  0  0  0  0  0  0  0  0  0  0  0
  5  6  2  0  0  0  0
  5  7  1  0  0  0  0
  2  3  1  0  0  0  0
  2  4  1  0  0  0  0
  2  5  1  0  0  0  0
  1  2  1  0  0  0  0
 22 23  2  0  0  0  0
 22 24  1  0  0  0  0
 20 21  1  0  0  0  0
 18 19  1  0  0  0  0
 18 20  1  0  0  0  0
 16 17  1  0  0  0  0
 16 18  1  0  0  0  0
 15 16  2  0  0  0  0
 14 15  1  0  0  0  0
 14 20  2  0  0  0  0
 11 12  1  0  0  0  0
 11 13  1  0  0  0  0
 11 14  1  0  0  0  0
  9 10  1  0  0  0  0
  9 11  1  0  0  0  0
  9 22  1  0  0  0  0
  7  8  1  0  0  0  0
  7  9  1  0  0  0  0
 26 27  1  0  0  0  0
 26 28  1  0  0  0  0
 26 29  1  0  0  0  0
 24 25  1  0  0  0  0
 24 26  1  0  0  0  0
M  END
$$$$
default_name
  -OEChem-02102213163D

 29 29  0     1  0  0  0  0  0999 V2000
   -2.9561   -3.9186    1.3887 H   0  0  0  0  0  0  0  0  0  0  0  0
   -3.1191   -2.9346    0.9517 C   0  0  0  0  0  0  0  0  0  0  0  0
   -3.7811   -2.3546    1.5917 H   0  0  0  0  0  0  0  0  0  0  0  0
   -3.5591   -3.0406   -0.0383 H   0  0  0  0  0  0  0  0  0  0  0  0
   -1.7921   -2.2226    0.8327 C   0  0  0  0  0  0  0  0  0  0  0  0
   -0.7611   -2.7766    1.1927 O   0  0  0  0  0  0  0  0  0  0  0  0
   -1.8201   -0.9926    0.3247 N   0  0  0  0  0  0  0  0  0  0  0  0
   -2.7141   -0.5816    0.0927 H   0  0  0  0  0  0  0  0  0  0  0  0
   -0.6481   -0.1156    0.2017 C   0  0  1  0  0  0  0  0  0  0  0  0
    0.1344   -0.4988    0.8596 H   0  0  0  0  0  0  0  0  0  0  0  0
   -0.1211   -0.1520   -1.2460 C   0  0  0  0  0  0  0  0  0  0  0  0
   -0.6132    0.6213   -1.8376 H   0  0  0  0  0  0  0  0  0  0  0  0
    0.9490    0.0595   -1.2545 H   0  0  0  0  0  0  0  0  0  0  0  0
   -0.3778   -1.4723   -1.9308 C   0  0  0  0  0  0  0  0  0  0  0  0
   -1.5124   -1.8008   -2.6739 N   0  0  0  0  0  0  0  0  0  0  0  0
   -1.3039   -3.0419   -3.1369 C   0  0  0  0  0  0  0  0  0  0  0  0
   -2.0084   -3.5952   -3.7451 H   0  0  0  0  0  0  0  0  0  0  0  0
   -0.0994   -3.4921   -2.7474 N   0  0  0  0  0  0  0  0  0  0  0  0
    0.2956   -4.3915   -2.9858 H   0  0  0  0  0  0  0  0  0  0  0  0
    0.5022   -2.5132   -1.9881 C   0  0  0  0  0  0  0  0  0  0  0  0
    1.4859   -2.5379   -1.5364 H   0  0  0  0  0  0  0  0  0  0  0  0
   -0.9851    1.3114    0.6698 C   0  0  0  0  0  0  0  0  0  0  0  0
   -2.0377    1.8431    0.3168 O   0  0  0  0  0  0  0  0  0  0  0  0
   -0.1052    1.9265    1.4663 N   0  0  0  0  0  0  0  0  0  0  0  0
    0.7810    1.4586    1.6201 H   0  0  0  0  0  0  0  0  0  0  0  0
   -0.2724    3.2715    2.0119 C   0  0  0  0  0  0  0  0  0  0  0  0
   -1.3249    3.4549    2.2426 H   0  0  0  0  0  0  0  0  0  0  0  0
    0.3167    3.3776    2.9239 H   0  0  0  0  0  0  0  0  0  0  0  0
    0.0609    4.0073    1.2782 H   0  0  0  0  0  0  0  0  0  0  0  0
  5  6  2  0  0  0  0
  5  7  1  0  0  0  0
  2  3  1  0  0  0  0
  2  4  1  0  0  0  0
  2  5  1  0  0  0  0
  1  2  1  0  0  0  0
 22 23  2  0  0  0  0
 22 24  1  0  0  0  0
 20 21  1  0  0  0  0
 18 19  1  0  0  0  0
 18 20  1  0  0  0  0
 16 17  1  0  0  0  0
 16 18  1  0  0  0  0
 15 16  2  0  0  0  0
 14 15  1  0  0  0  0
 14 20  2  0  0  0  0
 11 12  1  0  0  0  0
 11 13  1  0  0  0  0
 11 14  1  0  0  0  0
  9 10  1  0  0  0  0
  9 11  1  0  0  0  0
  9 22  1  0  0  0  0
  7  8  1  0  0  0  0
  7  9  1  0  0  0  0
 26 27  1  0  0  0  0
 26 28  1  0  0  0  0
 26 29  1  0  0  0  0
 24 25  1  0  0  0  0
 24 26  1  0  0  0  0
M  END
$$$$
default_name
  -OEChem-02102213163D

 29 29  0     1  0  0  0  0  0999 V2000
   -2.9561   -3.9186    1.3887 H   0  0  0  0  0  0  0  0  0  0  0  0
   -3.1191   -2.9346    0.9517 C   0  0  0  0  0  0  0  0  0  0  0  0
   -3.7811   -2.3546    1.5917 H   0  0  0  0  0  0  0  0  0  0  0  0
   -3.5591   -3.0406   -0.0383 H   0  0  0  0  0  0  0  0  0  0  0  0
   -1.7921   -2.2226    0.8327 C   0  0  0  0  0  0  0  0  0  0  0  0
   -0.7611   -2.7766    1.1927 O   0  0  0  0  0  0  0  0  0  0  0  0
   -1.8201   -0.9926    0.3247 N   0  0  0  0  0  0  0  0  0  0  0  0
   -2.7141   -0.5816    0.0927 H   0  0  0  0  0  0  0  0  0  0  0  0
   -0.6481   -0.1156    0.2017 C   0  0  1  0  0  0  0  0  0  0  0  0
    0.1344   -0.4988    0.8596 H   0  0  0  0  0  0  0  0  0  0  0  0
   -0.1211   -0.1520   -1.2460 C   0  0  0  0  0  0  0  0  0  0  0  0
   -0.6132    0.6213   -1.8376 H   0  0  0  0  0  0  0  0  0  0  0  0
    0.9490    0.0595   -1.2545 H   0  0  0  0  0  0  0  0  0  0  0  0
   -0.3778   -1.4723   -1.9308 C   0  0  0  0  0  0  0  0  0  0  0  0
   -1.3488   -1.7134   -2.9036 N   0  0  0  0  0  0  0  0  0  0  0  0
   -1.1957   -2.9947   -3.2685 C   0  0  0  0  0  0  0  0  0  0  0  0
   -1.8085   -3.4994   -4.0047 H   0  0  0  0  0  0  0  0  0  0  0  0
   -0.1733   -3.5542   -2.5999 N   0  0  0  0  0  0  0  0  0  0  0  0
    0.1517   -4.5045   -2.7140 H   0  0  0  0  0  0  0  0  0  0  0  0
    0.3584   -2.6071   -1.7532 C   0  0  0  0  0  0  0  0  0  0  0  0
    1.2055   -2.7161   -1.0877 H   0  0  0  0  0  0  0  0  0  0  0  0
   -0.9851    1.3114    0.6698 C   0  0  0  0  0  0  0  0  0  0  0  0
   -2.0377    1.8431    0.3168 O   0  0  0  0  0  0  0  0  0  0  0  0
   -0.1052    1.9265    1.4663 N   0  0  0  0  0  0  0  0  0  0  0  0
    0.7810    1.4586    1.6201 H   0  0  0  0  0  0  0  0  0  0  0  0
   -0.2724    3.2715    2.0119 C   0  0  0  0  0  0  0  0  0  0  0  0
   -1.3249    3.4549    2.2426 H   0  0  0  0  0  0  0  0  0  0  0  0
    0.3167    3.3776    2.9239 H   0  0  0  0  0  0  0  0  0  0  0  0
    0.0609    4.0073    1.2782 H   0  0  0  0  0  0  0  0  0  0  0  0
  5  6  2  0  0  0  0
  5  7  1  0  0  0  0
  2  3  1  0  0  0  0
  2  4  1  0  0  0  0
  2  5  1  0  0  0  0
  1  2  1  0  0  0  0
 22 23  2  0  0  0  0
 22 24  1  0  0  0  0
 20 21  1  0  0  0  0
 18 19  1  0  0  0  0
 18 20  1  0  0  0  0
 16 17  1  0  0  0  0
 16 18  1  0  0  0  0
 15 16  2  0  0  0  0
 14 15  1  0  0  0  0
 14 20  2  0  0  0  0
 11 12  1  0  0  0  0
 11 13  1  0  0  0  0
 11 14  1  0  0  0  0
  9 10  1  0  0  0  0
  9 11  1  0  0  0  0
  9 22  1  0  0  0  0
  7  8  1  0  0  0  0
  7  9  1  0  0  0  0
 26 27  1  0  0  0  0
 26 28  1  0  0  0  0
 26 29  1  0  0  0  0
 24 25  1  0  0  0  0
 24 26  1  0  0  0  0
M  END
$$$$
default_name
  -OEChem-02102213163D

 29 29  0     1  0  0  0  0  0999 V2000
   -2.9561   -3.9186    1.3887 H   0  0  0  0  0  0  0  0  0  0  0  0
   -3.1191   -2.9346    0.9517 C   0  0  0  0  0  0  0  0  0  0  0  0
   -3.7811   -2.3546    1.5917 H   0  0  0  0  0  0  0  0  0  0  0  0
   -3.5591   -3.0406   -0.0383 H   0  0  0  0  0  0  0  0  0  0  0  0
   -1.7921   -2.2226    0.8327 C   0  0  0  0  0  0  0  0  0  0  0  0
   -0.7611   -2.7766    1.1927 O   0  0  0  0  0  0  0  0  0  0  0  0
   -1.8201   -0.9926    0.3247 N   0  0  0  0  0  0  0  0  0  0  0  0
   -2.7141   -0.5816    0.0927 H   0  0  0  0  0  0  0  0  0  0  0  0
   -0.6481   -0.1156    0.2017 C   0  0  1  0  0  0  0  0  0  0  0  0
    0.1344   -0.4988    0.8596 H   0  0  0  0  0  0  0  0  0  0  0  0
   -0.1211   -0.1520   -1.2460 C   0  0  0  0  0  0  0  0  0  0  0  0
   -0.6132    0.6213   -1.8376 H   0  0  0  0  0  0  0  0  0  0  0  0
    0.9490    0.0595   -1.2545 H   0  0  0  0  0  0  0  0  0  0  0  0
   -0.3778   -1.4723   -1.9308 C   0  0  0  0  0  0  0  0  0  0  0  0
   -1.1285   -1.6584   -3.0923 N   0  0  0  0  0  0  0  0  0  0  0  0
   -1.0558   -2.9676   -3.3732 C   0  0  0  0  0  0  0  0  0  0  0  0
   -1.5454   -3.4418   -4.2145 H   0  0  0  0  0  0  0  0  0  0  0  0
   -0.2854   -3.5990   -2.4715 N   0  0  0  0  0  0  0  0  0  0  0  0
   -0.0620   -4.5848   -2.4791 H   0  0  0  0  0  0  0  0  0  0  0  0
    0.1552   -2.6705   -1.5548 C   0  0  0  0  0  0  0  0  0  0  0  0
    0.8120   -2.8355   -0.7100 H   0  0  0  0  0  0  0  0  0  0  0  0
   -0.9851    1.3114    0.6698 C   0  0  0  0  0  0  0  0  0  0  0  0
   -2.0377    1.8431    0.3168 O   0  0  0  0  0  0  0  0  0  0  0  0
   -0.1052    1.9265    1.4663 N   0  0  0  0  0  0  0  0  0  0  0  0
    0.7810    1.4586    1.6201 H   0  0  0  0  0  0  0  0  0  0  0  0
   -0.2724    3.2715    2.0119 C   0  0  0  0  0  0  0  0  0  0  0  0
   -1.3249    3.4549    2.2426 H   0  0  0  0  0  0  0  0  0  0  0  0
    0.3167    3.3776    2.9239 H   0  0  0  0  0  0  0  0  0  0  0  0
    0.0609    4.0073    1.2782 H   0  0  0  0  0  0  0  0  0  0  0  0
  5  6  2  0  0  0  0
  5  7  1  0  0  0  0
  2  3  1  0  0  0  0
  2  4  1  0  0  0  0
  2  5  1  0  0  0  0
  1  2  1  0  0  0  0
 22 23  2  0  0  0  0
 22 24  1  0  0  0  0
 20 21  1  0  0  0  0
 18 19  1  0  0  0  0
 18 20  1  0  0  0  0
 16 17  1  0  0  0  0
 16 18  1  0  0  0  0
 15 16  2  0  0  0  0
 14 15  1  0  0  0  0
 14 20  2  0  0  0  0
 11 12  1  0  0  0  0
 11 13  1  0  0  0  0
 11 14  1  0  0  0  0
  9 10  1  0  0  0  0
  9 11  1  0  0  0  0
  9 22  1  0  0  0  0
  7  8  1  0  0  0  0
  7  9  1  0  0  0  0
 26 27  1  0  0  0  0
 26 28  1  0  0  0  0
 26 29  1  0  0  0  0
 24 25  1  0  0  0  0
 24 26  1  0  0  0  0
M  END
$$$$
default_name
  -OEChem-02102213163D

 29 29  0     1  0  0  0  0  0999 V2000
   -2.9561   -3.9186    1.3887 H   0  0  0  0  0  0  0  0  0  0  0  0
   -3.1191   -2.9346    0.9517 C   0  0  0  0  0  0  0  0  0  0  0  0
   -3.7811   -2.3546    1.5917 H   0  0  0  0  0  0  0  0  0  0  0  0
   -3.5591   -3.0406   -0.0383 H   0  0  0  0  0  0  0  0  0  0  0  0
   -1.7921   -2.2226    0.8327 C   0  0  0  0  0  0  0  0  0  0  0  0
   -0.7611   -2.7766    1.1927 O   0  0  0  0  0  0  0  0  0  0  0  0
   -1.8201   -0.9926    0.3247 N   0  0  0  0  0  0  0  0  0  0  0  0
   -2.7141   -0.5816    0.0927 H   0  0  0  0  0  0  0  0  0  0  0  0
   -0.6481   -0.1156    0.2017 C   0  0  1  0  0  0  0  0  0  0  0  0
    0.1344   -0.4988    0.8596 H   0  0  0  0  0  0  0  0  0  0  0  0
   -0.1211   -0.1520   -1.2460 C   0  0  0  0  0  0  0  0  0  0  0  0
   -0.6132    0.6213   -1.8376 H   0  0  0  0  0  0  0  0  0  0  0  0
    0.9490    0.0595   -1.2545 H   0  0  0  0  0  0  0  0  0  0  0  0
   -0.3778   -1.4723   -1.9308 C   0  0  0  0  0  0  0  0  0  0  0  0
   -0.8666   -1.6394   -3.2272 N   0  0  0  0  0  0  0  0  0  0  0  0
   -0.8937   -2.9625   -3.4439 C   0  0  0  0  0  0  0  0  0  0  0  0
   -1.2370   -3.4262   -4.3600 H   0  0  0  0  0  0  0  0  0  0  0  0
   -0.4280   -3.6235   -2.3708 N   0  0  0  0  0  0  0  0  0  0  0  0
   -0.3310   -4.6270   -2.2970 H   0  0  0  0  0  0  0  0  0  0  0  0
   -0.0933   -2.6992   -1.4064 C   0  0  0  0  0  0  0  0  0  0  0  0
    0.3325   -2.8881   -0.4289 H   0  0  0  0  0  0  0  0  0  0  0  0
   -0.9851    1.3114    0.6698 C   0  0  0  0  0  0  0  0  0  0  0  0
   -2.0377    1.8431    0.3168 O   0  0  0  0  0  0  0  0  0  0  0  0
   -0.1052    1.9265    1.4663 N   0  0  0  0  0  0  0  0  0  0  0  0
    0.7810    1.4586    1.6201 H   0  0  0  0  0  0  0  0  0  0  0  0
   -0.2724    3.2715    2.0119 C   0  0  0  0  0  0  0  0  0  0  0  0
   -1.3249    3.4549    2.2426 H   0  0  0  0  0  0  0  0  0  0  0  0
    0.3167    3.3776    2.9239 H   0  0  0  0  0  0  0  0  0  0  0  0
    0.0609    4.0073    1.2782 H   0  0  0  0  0  0  0  0  0  0  0  0
  5  6  2  0  0  0  0
  5  7  1  0  0  0  0
  2  3  1  0  0  0  0
  2  4  1  0  0  0  0
  2  5  1  0  0  0  0
  1  2  1  0  0  0  0
 22 23  2  0  0  0  0
 22 24  1  0  0  0  0
 20 21  1  0  0  0  0
 18 19  1  0  0  0  0
 18 20  1  0  0  0  0
 16 17  1  0  0  0  0
 16 18  1  0  0  0  0
 15 16  2  0  0  0  0
 14 15  1  0  0  0  0
 14 20  2  0  0  0  0
 11 12  1  0  0  0  0
 11 13  1  0  0  0  0
 11 14  1  0  0  0  0
  9 10  1  0  0  0  0
  9 11  1  0  0  0  0
  9 22  1  0  0  0  0
  7  8  1  0  0  0  0
  7  9  1  0  0  0  0
 26 27  1  0  0  0  0
 26 28  1  0  0  0  0
 26 29  1  0  0  0  0
 24 25  1  0  0  0  0
 24 26  1  0  0  0  0
M  END
$$$$
default_name
  -OEChem-02102213163D

 29 29  0     1  0  0  0  0  0999 V2000
   -2.9561   -3.9186    1.3887 H   0  0  0  0  0  0  0  0  0  0  0  0
   -3.1191   -2.9346    0.9517 C   0  0  0  0  0  0  0  0  0  0  0  0
   -3.7811   -2.3546    1.5917 H   0  0  0  0  0  0  0  0  0  0  0  0
   -3.5591   -3.0406   -0.0383 H   0  0  0  0  0  0  0  0  0  0  0  0
   -1.7921   -2.2226    0.8327 C   0  0  0  0  0  0  0  0  0  0  0  0
   -0.7611   -2.7766    1.1927 O   0  0  0  0  0  0  0  0  0  0  0  0
   -1.8201   -0.9926    0.3247 N   0  0  0  0  0  0  0  0  0  0  0  0
   -2.7141   -0.5816    0.0927 H   0  0  0  0  0  0  0  0  0  0  0  0
   -0.6481   -0.1156    0.2017 C   0  0  1  0  0  0  0  0  0  0  0  0
    0.1344   -0.4988    0.8596 H   0  0  0  0  0  0  0  0  0  0  0  0
   -0.1211   -0.1520   -1.2460 C   0  0  0  0  0  0  0  0  0  0  0  0
   -0.6132    0.6213   -1.8376 H   0  0  0  0  0  0  0  0  0  0  0  0
    0.9490    0.0595   -1.2545 H   0  0  0  0  0  0  0  0  0  0  0  0
   -0.3778   -1.4723   -1.9308 C   0  0  0  0  0  0  0  0  0  0  0  0
   -0.5808   -1.6577   -3.2989 N   0  0  0  0  0  0  0  0  0  0  0  0
   -0.7206   -2.9796   -3.4757 C   0  0  0  0  0  0  0  0  0  0  0  0
   -0.9043   -3.4538   -4.4315 H   0  0  0  0  0  0  0  0  0  0  0  0
   -0.5914   -3.6260   -2.3048 N   0  0  0  0  0  0  0  0  0  0  0  0
   -0.6371   -4.6281   -2.1802 H   0  0  0  0  0  0  0  0  0  0  0  0
   -0.3704   -2.6911   -1.3180 C   0  0  0  0  0  0  0  0  0  0  0  0
   -0.2005   -2.8701   -0.2637 H   0  0  0  0  0  0  0  0  0  0  0  0
   -0.9851    1.3114    0.6698 C   0  0  0  0  0  0  0  0  0  0  0  0
   -2.0377    1.8431    0.3168 O   0  0  0  0  0  0  0  0  0  0  0  0
   -0.1052    1.9265    1.4663 N   0  0  0  0  0  0  0  0  0  0  0  0
    0.7810    1.4586    1.6201 H   0  0  0  0  0  0  0  0  0  0  0  0
   -0.2724    3.2715    2.0119 C   0  0  0  0  0  0  0  0  0  0  0  0
   -1.3249    3.4549    2.2426 H   0  0  0  0  0  0  0  0  0  0  0  0
    0.3167    3.3776    2.9239 H   0  0  0  0  0  0  0  0  0  0  0  0
    0.0609    4.0073    1.2782 H   0  0  0  0  0  0  0  0  0  0  0  0
  5  6  2  0  0  0  0
  5  7  1  0  0  0  0
  2  3  1  0  0  0  0
  2  4  1  0  0  0  0
  2  5  1  0  0  0  0
  1  2  1  0  0  0  0
 22 23  2  0  0  0  0
 22 24  1  0  0  0  0
 20 21  1  0  0  0  0
 18 19  1  0  0  0  0
 18 20  1  0  0  0  0
 16 17  1  0  0  0  0
 16 18  1  0  0  0  0
 15 16  2  0  0  0  0
 14 15  1  0  0  0  0
 14 20  2  0  0  0  0
 11 12  1  0  0  0  0
 11 13  1  0  0  0  0
 11 14  1  0  0  0  0
  9 10  1  0  0  0  0
  9 11  1  0  0  0  0
  9 22  1  0  0  0  0
  7  8  1  0  0  0  0
  7  9  1  0  0  0  0
 26 27  1  0  0  0  0
 26 28  1  0  0  0  0
 26 29  1  0  0  0  0
 24 25  1  0  0  0  0
 24 26  1  0  0  0  0
M  END
$$$$
default_name
  -OEChem-02102213163D

 29 29  0     1  0  0  0  0  0999 V2000
   -2.9561   -3.9186    1.3887 H   0  0  0  0  0  0  0  0  0  0  0  0
   -3.1191   -2.9346    0.9517 C   0  0  0  0  0  0  0  0  0  0  0  0
   -3.7811   -2.3546    1.5917 H   0  0  0  0  0  0  0  0  0  0  0  0
   -3.5591   -3.0406   -0.0383 H   0  0  0  0  0  0  0  0  0  0  0  0
   -1.7921   -2.2226    0.8327 C   0  0  0  0  0  0  0  0  0  0  0  0
   -0.7611   -2.7766    1.1927 O   0  0  0  0  0  0  0  0  0  0  0  0
   -1.8201   -0.9926    0.3247 N   0  0  0  0  0  0  0  0  0  0  0  0
   -2.7141   -0.5816    0.0927 H   0  0  0  0  0  0  0  0  0  0  0  0
   -0.6481   -0.1156    0.2017 C   0  0  1  0  0  0  0  0  0  0  0  0
    0.1344   -0.4988    0.8596 H   0  0  0  0  0  0  0  0  0  0  0  0
   -0.1211   -0.1520   -1.2460 C   0  0  0  0  0  0  0  0  0  0  0  0
   -0.6132    0.6213   -1.8376 H   0  0  0  0  0  0  0  0  0  0  0  0
    0.9490    0.0595   -1.2545 H   0  0  0  0  0  0  0  0  0  0  0  0
   -0.3778   -1.4723   -1.9308 C   0  0  0  0  0  0  0  0  0  0  0  0
   -0.2906   -1.7122   -3.3027 N   0  0  0  0  0  0  0  0  0  0  0  0
   -0.5483   -3.0180   -3.4664 C   0  0  0  0  0  0  0  0  0  0  0  0
   -0.5701   -3.5227   -4.4240 H   0  0  0  0  0  0  0  0  0  0  0  0
   -0.7645   -3.6062   -2.2779 N   0  0  0  0  0  0  0  0  0  0  0  0
   -0.9593   -4.5880   -2.1366 H   0  0  0  0  0  0  0  0  0  0  0  0
   -0.6571   -2.6469   -1.2957 C   0  0  0  0  0  0  0  0  0  0  0  0
   -0.7507   -2.7829   -0.2256 H   0  0  0  0  0  0  0  0  0  0  0  0
   -0.9851    1.3114    0.6698 C   0  0  0  0  0  0  0  0  0  0  0  0
   -2.0377    1.8431    0.3168 O   0  0  0  0  0  0  0  0  0  0  0  0
   -0.1052    1.9265    1.4663 N   0  0  0  0  0  0  0  0  0  0  0  0
    0.7810    1.4586    1.6201 H   0  0  0  0  0  0  0  0  0  0  0  0
   -0.2724    3.2715    2.0119 C   0  0  0  0  0  0  0  0  0  0  0  0
   -1.3249    3.4549    2.2426 H   0  0  0  0  0  0  0  0  0  0  0  0
    0.3167    3.3776    2.9239 H   0  0  0  0  0  0  0  0  0  0  0  0
    0.0609    4.0073    1.2782 H   0  0  0  0  0  0  0  0  0  0  0  0
  5  6  2  0  0  0  0
  5  7  1  0  0  0  0
  2  3  1  0  0  0  0
  2  4  1  0  0  0  0
  2  5  1  0  0  0  0
  1  2  1  0  0  0  0
 22 23  2  0  0  0  0
 22 24  1  0  0  0  0
 20 21  1  0  0  0  0
 18 19  1  0  0  0  0
 18 20  1  0  0  0  0
 16 17  1  0  0  0  0
 16 18  1  0  0  0  0
 15 16  2  0  0  0  0
 14 15  1  0  0  0  0
 14 20  2  0  0  0  0
 11 12  1  0  0  0  0
 11 13  1  0  0  0  0
 11 14  1  0  0  0  0
  9 10  1  0  0  0  0
  9 11  1  0  0  0  0
  9 22  1  0  0  0  0
  7  8  1  0  0  0  0
  7  9  1  0  0  0  0
 26 27  1  0  0  0  0
 26 28  1  0  0  0  0
 26 29  1  0  0  0  0
 24 25  1  0  0  0  0
 24 26  1  0  0  0  0
M  END
$$$$
default_name
  -OEChem-02102213163D

 29 29  0     1  0  0  0  0  0999 V2000
   -2.9561   -3.9186    1.3887 H   0  0  0  0  0  0  0  0  0  0  0  0
   -3.1191   -2.9346    0.9517 C   0  0  0  0  0  0  0  0  0  0  0  0
   -3.7811   -2.3546    1.5917 H   0  0  0  0  0  0  0  0  0  0  0  0
   -3.5591   -3.0406   -0.0383 H   0  0  0  0  0  0  0  0  0  0  0  0
   -1.7921   -2.2226    0.8327 C   0  0  0  0  0  0  0  0  0  0  0  0
   -0.7611   -2.7766    1.1927 O   0  0  0  0  0  0  0  0  0  0  0  0
   -1.8201   -0.9926    0.3247 N   0  0  0  0  0  0  0  0  0  0  0  0
   -2.7141   -0.5816    0.0927 H   0  0  0  0  0  0  0  0  0  0  0  0
   -0.6481   -0.1156    0.2017 C   0  0  1  0  0  0  0  0  0  0  0  0
    0.1344   -0.4988    0.8596 H   0  0  0  0  0  0  0  0  0  0  0  0
   -0.1211   -0.1520   -1.2460 C   0  0  0  0  0  0  0  0  0  0  0  0
   -0.4005    0.7667   -1.7638 H   0  0  0  0  0  0  0  0  0  0  0  0
    0.9683   -0.2074   -1.2408 H   0  0  0  0  0  0  0  0  0  0  0  0
   -0.6790   -1.3047   -2.0447 C   0  0  0  0  0  0  0  0  0  0  0  0
   -0.3851   -1.5936   -3.3779 N   0  0  0  0  0  0  0  0  0  0  0  0
   -1.0531   -2.7197   -3.6677 C   0  0  0  0  0  0  0  0  0  0  0  0
   -1.0444   -3.2054   -4.6353 H   0  0  0  0  0  0  0  0  0  0  0  0
   -1.7221   -3.1594   -2.5886 N   0  0  0  0  0  0  0  0  0  0  0  0
   -2.2835   -3.9991   -2.5489 H   0  0  0  0  0  0  0  0  0  0  0  0
   -1.4949   -2.2811   -1.5525 C   0  0  0  0  0  0  0  0  0  0  0  0
   -1.8639   -2.3472   -0.5367 H   0  0  0  0  0  0  0  0  0  0  0  0
   -0.9851    1.3114    0.6698 C   0  0  0  0  0  0  0  0  0  0  0  0
   -2.0377    1.8431    0.3168 O   0  0  0  0  0  0  0  0  0  0  0  0
   -0.1052    1.9265    1.4663 N   0  0  0  0  0  0  0  0  0  0  0  0
    0.7810    1.4586    1.6201 H   0  0  0  0  0  0  0  0  0  0  0  0
   -0.2724    3.2715    2.0119 C   0  0  0  0  0  0  0  0  0  0  0  0
   -1.3249    3.4549    2.2426 H   0  0  0  0  0  0  0  0  0  0  0  0
    0.3167    3.3776    2.9239 H   0  0  0  0  0  0  0  0  0  0  0  0
    0.0609    4.0073    1.2782 H   0  0  0  0  0  0  0  0  0  0  0  0
  5  6  2  0  0  0  0
  5  7  1  0  0  0  0
  2  3  1  0  0  0  0
  2  4  1  0  0  0  0
  2  5  1  0  0  0  0
  1  2  1  0  0  0  0
 22 23  2  0  0  0  0
 22 24  1  0  0  0  0
 20 21  1  0  0  0  0
 18 19  1  0  0  0  0
 18 20  1  0  0  0  0
 16 17  1  0  0  0  0
 16 18  1  0  0  0  0
 15 16  2  0  0  0  0
 14 15  1  0  0  0  0
 14 20  2  0  0  0  0
 11 12  1  0  0  0  0
 11 13  1  0  0  0  0
 11 14  1  0  0  0  0
  9 10  1  0  0  0  0
  9 11  1  0  0  0  0
  9 22  1  0  0  0  0
  7  8  1  0  0  0  0
  7  9  1  0  0  0  0
 26 27  1  0  0  0  0
 26 28  1  0  0  0  0
 26 29  1  0  0  0  0
 24 25  1  0  0  0  0
 24 26  1  0  0  0  0
M  END
$$$$
default_name
  -OEChem-02102213163D

 29 29  0     1  0  0  0  0  0999 V2000
   -2.9561   -3.9186    1.3887 H   0  0  0  0  0  0  0  0  0  0  0  0
   -3.1191   -2.9346    0.9517 C   0  0  0  0  0  0  0  0  0  0  0  0
   -3.7811   -2.3546    1.5917 H   0  0  0  0  0  0  0  0  0  0  0  0
   -3.5591   -3.0406   -0.0383 H   0  0  0  0  0  0  0  0  0  0  0  0
   -1.7921   -2.2226    0.8327 C   0  0  0  0  0  0  0  0  0  0  0  0
   -0.7611   -2.7766    1.1927 O   0  0  0  0  0  0  0  0  0  0  0  0
   -1.8201   -0.9926    0.3247 N   0  0  0  0  0  0  0  0  0  0  0  0
   -2.7141   -0.5816    0.0927 H   0  0  0  0  0  0  0  0  0  0  0  0
   -0.6481   -0.1156    0.2017 C   0  0  1  0  0  0  0  0  0  0  0  0
    0.1344   -0.4988    0.8596 H   0  0  0  0  0  0  0  0  0  0  0  0
   -0.1211   -0.1520   -1.2460 C   0  0  0  0  0  0  0  0  0  0  0  0
   -0.4005    0.7667   -1.7638 H   0  0  0  0  0  0  0  0  0  0  0  0
    0.9683   -0.2074   -1.2408 H   0  0  0  0  0  0  0  0  0  0  0  0
   -0.6790   -1.3047   -2.0447 C   0  0  0  0  0  0  0  0  0  0  0  0
   -0.1814   -1.7729   -3.2615 N   0  0  0  0  0  0  0  0  0  0  0  0
   -0.9395   -2.8296   -3.5884 C   0  0  0  0  0  0  0  0  0  0  0  0
   -0.8174   -3.4154   -4.4908 H   0  0  0  0  0  0  0  0  0  0  0  0
   -1.8594   -3.0598   -2.6365 N   0  0  0  0  0  0  0  0  0  0  0  0
   -2.5350   -3.8117   -2.6437 H   0  0  0  0  0  0  0  0  0  0  0  0
   -1.7081   -2.1095   -1.6514 C   0  0  0  0  0  0  0  0  0  0  0  0
   -2.2699   -2.0165   -0.7304 H   0  0  0  0  0  0  0  0  0  0  0  0
   -0.9851    1.3114    0.6698 C   0  0  0  0  0  0  0  0  0  0  0  0
   -2.0377    1.8431    0.3168 O   0  0  0  0  0  0  0  0  0  0  0  0
   -0.1052    1.9265    1.4663 N   0  0  0  0  0  0  0  0  0  0  0  0
    0.7810    1.4586    1.6201 H   0  0  0  0  0  0  0  0  0  0  0  0
   -0.2724    3.2715    2.0119 C   0  0  0  0  0  0  0  0  0  0  0  0
   -1.3249    3.4549    2.2426 H   0  0  0  0  0  0  0  0  0  0  0  0
    0.3167    3.3776    2.9239 H   0  0  0  0  0  0  0  0  0  0  0  0
    0.0609    4.0073    1.2782 H   0  0  0  0  0  0  0  0  0  0  0  0
  5  6  2  0  0  0  0
  5  7  1  0  0  0  0
  2  3  1  0  0  0  0
  2  4  1  0  0  0  0
  2  5  1  0  0  0  0
  1  2  1  0  0  0  0
 22 23  2  0  0  0  0
 22 24  1  0  0  0  0
 20 21  1  0  0  0  0
 18 19  1  0  0  0  0
 18 20  1  0  0  0  0
 16 17  1  0  0  0  0
 16 18  1  0  0  0  0
 15 16  2  0  0  0  0
 14 15  1  0  0  0  0
 14 20  2  0  0  0  0
 11 12  1  0  0  0  0
 11 13  1  0  0  0  0
 11 14  1  0  0  0  0
  9 10  1  0  0  0  0
  9 11  1  0  0  0  0
  9 22  1  0  0  0  0
  7  8  1  0  0  0  0
  7  9  1  0  0  0  0
 26 27  1  0  0  0  0
 26 28  1  0  0  0  0
 26 29  1  0  0  0  0
 24 25  1  0  0  0  0
 24 26  1  0  0  0  0
M  END
$$$$
default_name
  -OEChem-02102213163D

 29 29  0     1  0  0  0  0  0999 V2000
   -2.9561   -3.9186    1.3887 H   0  0  0  0  0  0  0  0  0  0  0  0
   -3.1191   -2.9346    0.9517 C   0  0  0  0  0  0  0  0  0  0  0  0
   -3.7811   -2.3546    1.5917 H   0  0  0  0  0  0  0  0  0  0  0  0
   -3.5591   -3.0406   -0.0383 H   0  0  0  0  0  0  0  0  0  0  0  0
   -1.7921   -2.2226    0.8327 C   0  0  0  0  0  0  0  0  0  0  0  0
   -0.7611   -2.7766    1.1927 O   0  0  0  0  0  0  0  0  0  0  0  0
   -1.8201   -0.9926    0.3247 N   0  0  0  0  0  0  0  0  0  0  0  0
   -2.7141   -0.5816    0.0927 H   0  0  0  0  0  0  0  0  0  0  0  0
   -0.6481   -0.1156    0.2017 C   0  0  1  0  0  0  0  0  0  0  0  0
    0.1344   -0.4988    0.8596 H   0  0  0  0  0  0  0  0  0  0  0  0
   -0.1211   -0.1520   -1.2460 C   0  0  0  0  0  0  0  0  0  0  0  0
   -0.4005    0.7667   -1.7638 H   0  0  0  0  0  0  0  0  0  0  0  0
    0.9683   -0.2074   -1.2408 H   0  0  0  0  0  0  0  0  0  0  0  0
   -0.6790   -1.3047   -2.0447 C   0  0  0  0  0  0  0  0  0  0  0  0
   -0.0323   -1.9628   -3.0916 N   0  0  0  0  0  0  0  0  0  0  0  0
   -0.8605   -2.9438   -3.4789 C   0  0  0  0  0  0  0  0  0  0  0  0
   -0.6555   -3.6355   -4.2862 H   0  0  0  0  0  0  0  0  0  0  0  0
   -1.9689   -2.9493   -2.7195 N   0  0  0  0  0  0  0  0  0  0  0  0
   -2.7334   -3.6054   -2.8029 H   0  0  0  0  0  0  0  0  0  0  0  0
   -1.8709   -1.9240   -1.8054 C   0  0  0  0  0  0  0  0  0  0  0  0
   -2.5784   -1.6600   -1.0295 H   0  0  0  0  0  0  0  0  0  0  0  0
   -0.9851    1.3114    0.6698 C   0  0  0  0  0  0  0  0  0  0  0  0
   -2.0377    1.8431    0.3168 O   0  0  0  0  0  0  0  0  0  0  0  0
   -0.1052    1.9265    1.4663 N   0  0  0  0  0  0  0  0  0  0  0  0
    0.7810    1.4586    1.6201 H   0  0  0  0  0  0  0  0  0  0  0  0
   -0.2724    3.2715    2.0119 C   0  0  0  0  0  0  0  0  0  0  0  0
   -1.3249    3.4549    2.2426 H   0  0  0  0  0  0  0  0  0  0  0  0
    0.3167    3.3776    2.9239 H   0  0  0  0  0  0  0  0  0  0  0  0
    0.0609    4.0073    1.2782 H   0  0  0  0  0  0  0  0  0  0  0  0
  5  6  2  0  0  0  0
  5  7  1  0  0  0  0
  2  3  1  0  0  0  0
  2  4  1  0  0  0  0
  2  5  1  0  0  0  0
  1  2  1  0  0  0  0
 22 23  2  0  0  0  0
 22 24  1  0  0  0  0
 20 21  1  0  0  0  0
 18 19  1  0  0  0  0
 18 20  1  0  0  0  0
 16 17  1  0  0  0  0
 16 18  1  0  0  0  0
 15 16  2  0  0  0  0
 14 15  1  0  0  0  0
 14 20  2  0  0  0  0
 11 12  1  0  0  0  0
 11 13  1  0  0  0  0
 11 14  1  0  0  0  0
  9 10  1  0  0  0  0
  9 11  1  0  0  0  0
  9 22  1  0  0  0  0
  7  8  1  0  0  0  0
  7  9  1  0  0  0  0
 26 27  1  0  0  0  0
 26 28  1  0  0  0  0
 26 29  1  0  0  0  0
 24 25  1  0  0  0  0
 24 26  1  0  0  0  0
M  END
$$$$
default_name
  -OEChem-02102213163D

 29 29  0     1  0  0  0  0  0999 V2000
   -2.9561   -3.9186    1.3887 H   0  0  0  0  0  0  0  0  0  0  0  0
   -3.1191   -2.9346    0.9517 C   0  0  0  0  0  0  0  0  0  0  0  0
   -3.7811   -2.3546    1.5917 H   0  0  0  0  0  0  0  0  0  0  0  0
   -3.5591   -3.0406   -0.0383 H   0  0  0  0  0  0  0  0  0  0  0  0
   -1.7921   -2.2226    0.8327 C   0  0  0  0  0  0  0  0  0  0  0  0
   -0.7611   -2.7766    1.1927 O   0  0  0  0  0  0  0  0  0  0  0  0
   -1.8201   -0.9926    0.3247 N   0  0  0  0  0  0  0  0  0  0  0  0
   -2.7141   -0.5816    0.0927 H   0  0  0  0  0  0  0  0  0  0  0  0
   -0.6481   -0.1156    0.2017 C   0  0  1  0  0  0  0  0  0  0  0  0
    0.1344   -0.4988    0.8596 H   0  0  0  0  0  0  0  0  0  0  0  0
   -0.1211   -0.1520   -1.2460 C   0  0  0  0  0  0  0  0  0  0  0  0
   -0.4005    0.7667   -1.7638 H   0  0  0  0  0  0  0  0  0  0  0  0
    0.9683   -0.2074   -1.2408 H   0  0  0  0  0  0  0  0  0  0  0  0
   -0.6790   -1.3047   -2.0447 C   0  0  0  0  0  0  0  0  0  0  0  0
    0.0522   -2.1504   -2.8798 N   0  0  0  0  0  0  0  0  0  0  0  0
   -0.8215   -3.0543   -3.3465 C   0  0  0  0  0  0  0  0  0  0  0  0
   -0.5697   -3.8508   -4.0355 H   0  0  0  0  0  0  0  0  0  0  0  0
   -2.0432   -2.8356   -2.8318 N   0  0  0  0  0  0  0  0  0  0  0  0
   -2.8654   -3.3941   -3.0157 H   0  0  0  0  0  0  0  0  0  0  0  0
   -1.9723   -1.7372   -2.0041 C   0  0  0  0  0  0  0  0  0  0  0  0
   -2.7685   -1.3020   -1.4134 H   0  0  0  0  0  0  0  0  0  0  0  0
   -0.9851    1.3114    0.6698 C   0  0  0  0  0  0  0  0  0  0  0  0
   -2.0377    1.8431    0.3168 O   0  0  0  0  0  0  0  0  0  0  0  0
   -0.1052    1.9265    1.4663 N   0  0  0  0  0  0  0  0  0  0  0  0
    0.7810    1.4586    1.6201 H   0  0  0  0  0  0  0  0  0  0  0  0
   -0.2724    3.2715    2.0119 C   0  0  0  0  0  0  0  0  0  0  0  0
   -1.3249    3.4549    2.2426 H   0  0  0  0  0  0  0  0  0  0  0  0
    0.3167    3.3776    2.9239 H   0  0  0  0  0  0  0  0  0  0  0  0
    0.0609    4.0073    1.2782 H   0  0  0  0  0  0  0  0  0  0  0  0
  5  6  2  0  0  0  0
  5  7  1  0  0  0  0
  2  3  1  0  0  0  0
  2  4  1  0  0  0  0
  2  5  1  0  0  0  0
  1  2  1  0  0  0  0
 22 23  2  0  0  0  0
 22 24  1  0  0  0  0
 20 21  1  0  0  0  0
 18 19  1  0  0  0  0
 18 20  1  0  0  0  0
 16 17  1  0  0  0  0
 16 18  1  0  0  0  0
 15 16  2  0  0  0  0
 14 15  1  0  0  0  0
 14 20  2  0  0  0  0
 11 12  1  0  0  0  0
 11 13  1  0  0  0  0
 11 14  1  0  0  0  0
  9 10  1  0  0  0  0
  9 11  1  0  0  0  0
  9 22  1  0  0  0  0
  7  8  1  0  0  0  0
  7  9  1  0  0  0  0
 26 27  1  0  0  0  0
 26 28  1  0  0  0  0
 26 29  1  0  0  0  0
 24 25  1  0  0  0  0
 24 26  1  0  0  0  0
M  END
$$$$
default_name
  -OEChem-02102213163D

 29 29  0     1  0  0  0  0  0999 V2000
   -2.9561   -3.9186    1.3887 H   0  0  0  0  0  0  0  0  0  0  0  0
   -3.1191   -2.9346    0.9517 C   0  0  0  0  0  0  0  0  0  0  0  0
   -3.7811   -2.3546    1.5917 H   0  0  0  0  0  0  0  0  0  0  0  0
   -3.5591   -3.0406   -0.0383 H   0  0  0  0  0  0  0  0  0  0  0  0
   -1.7921   -2.2226    0.8327 C   0  0  0  0  0  0  0  0  0  0  0  0
   -0.7611   -2.7766    1.1927 O   0  0  0  0  0  0  0  0  0  0  0  0
   -1.8201   -0.9926    0.3247 N   0  0  0  0  0  0  0  0  0  0  0  0
   -2.7141   -0.5816    0.0927 H   0  0  0  0  0  0  0  0  0  0  0  0
   -0.6481   -0.1156    0.2017 C   0  0  1  0  0  0  0  0  0  0  0  0
    0.1344   -0.4988    0.8596 H   0  0  0  0  0  0  0  0  0  0  0  0
   -0.1211   -0.1520   -1.2460 C   0  0  0  0  0  0  0  0  0  0  0  0
   -0.4005    0.7667   -1.7638 H   0  0  0  0  0  0  0  0  0  0  0  0
    0.9683   -0.2074   -1.2408 H   0  0  0  0  0  0  0  0  0  0  0  0
   -0.6790   -1.3047   -2.0447 C   0  0  0  0  0  0  0  0  0  0  0  0
    0.0663   -2.3229   -2.6407 N   0  0  0  0  0  0  0  0  0  0  0  0
   -0.8251   -3.1539   -3.2004 C   0  0  0  0  0  0  0  0  0  0  0  0
   -0.5659   -4.0464   -3.7558 H   0  0  0  0  0  0  0  0  0  0  0  0
   -2.0771   -2.7263   -2.9658 N   0  0  0  0  0  0  0  0  0  0  0  0
   -2.9219   -3.1923   -3.2675 H   0  0  0  0  0  0  0  0  0  0  0  0
   -2.0054   -1.5619   -2.2339 C   0  0  0  0  0  0  0  0  0  0  0  0
   -2.8273   -0.9668   -1.8561 H   0  0  0  0  0  0  0  0  0  0  0  0
   -0.9851    1.3114    0.6698 C   0  0  0  0  0  0  0  0  0  0  0  0
   -2.0377    1.8431    0.3168 O   0  0  0  0  0  0  0  0  0  0  0  0
   -0.1052    1.9265    1.4663 N   0  0  0  0  0  0  0  0  0  0  0  0
    0.7810    1.4586    1.6201 H   0  0  0  0  0  0  0  0  0  0  0  0
   -0.2724    3.2715    2.0119 C   0  0  0  0  0  0  0  0  0  0  0  0
   -1.3249    3.4549    2.2426 H   0  0  0  0  0  0  0  0  0  0  0  0
    0.3167    3.3776    2.9239 H   0  0  0  0  0  0  0  0  0  0  0  0
    0.0609    4.0073    1.2782 H   0  0  0  0  0  0  0  0  0  0  0  0
  5  6  2  0  0  0  0
  5  7  1  0  0  0  0
  2  3  1  0  0  0  0
  2  4  1  0  0  0  0
  2  5  1  0  0  0  0
  1  2  1  0  0  0  0
 22 23  2  0  0  0  0
 22 24  1  0  0  0  0
 20 21  1  0  0  0  0
 18 19  1  0  0  0  0
 18 20  1  0  0  0  0
 16 17  1  0  0  0  0
 16 18  1  0  0  0  0
 15 16  2  0  0  0  0
 14 15  1  0  0  0  0
 14 20  2  0  0  0  0
 11 12  1  0  0  0  0
 11 13  1  0  0  0  0
 11 14  1  0  0  0  0
  9 10  1  0  0  0  0
  9 11  1  0  0  0  0
  9 22  1  0  0  0  0
  7  8  1  0  0  0  0
  7  9  1  0  0  0  0
 26 27  1  0  0  0  0
 26 28  1  0  0  0  0
 26 29  1  0  0  0  0
 24 25  1  0  0  0  0
 24 26  1  0  0  0  0
M  END
$$$$
default_name
  -OEChem-02102213163D

 29 29  0     1  0  0  0  0  0999 V2000
   -2.9561   -3.9186    1.3887 H   0  0  0  0  0  0  0  0  0  0  0  0
   -3.1191   -2.9346    0.9517 C   0  0  0  0  0  0  0  0  0  0  0  0
   -3.7811   -2.3546    1.5917 H   0  0  0  0  0  0  0  0  0  0  0  0
   -3.5591   -3.0406   -0.0383 H   0  0  0  0  0  0  0  0  0  0  0  0
   -1.7921   -2.2226    0.8327 C   0  0  0  0  0  0  0  0  0  0  0  0
   -0.7611   -2.7766    1.1927 O   0  0  0  0  0  0  0  0  0  0  0  0
   -1.8201   -0.9926    0.3247 N   0  0  0  0  0  0  0  0  0  0  0  0
   -2.7141   -0.5816    0.0927 H   0  0  0  0  0  0  0  0  0  0  0  0
   -0.6481   -0.1156    0.2017 C   0  0  1  0  0  0  0  0  0  0  0  0
    0.1344   -0.4988    0.8596 H   0  0  0  0  0  0  0  0  0  0  0  0
   -0.1211   -0.1520   -1.2460 C   0  0  0  0  0  0  0  0  0  0  0  0
   -0.4005    0.7667   -1.7638 H   0  0  0  0  0  0  0  0  0  0  0  0
    0.9683   -0.2074   -1.2408 H   0  0  0  0  0  0  0  0  0  0  0  0
   -0.6790   -1.3047   -2.0447 C   0  0  0  0  0  0  0  0  0  0  0  0
    0.0089   -2.4686   -2.3903 N   0  0  0  0  0  0  0  0  0  0  0  0
   -0.8711   -3.2355   -3.0504 C   0  0  0  0  0  0  0  0  0  0  0  0
   -0.6443   -4.2092   -3.4661 H   0  0  0  0  0  0  0  0  0  0  0  0
   -2.0684   -2.6289   -3.1125 N   0  0  0  0  0  0  0  0  0  0  0  0
   -2.8990   -3.0137   -3.5412 H   0  0  0  0  0  0  0  0  0  0  0  0
   -1.9680   -1.4101   -2.4792 C   0  0  0  0  0  0  0  0  0  0  0  0
   -2.7506   -0.6774   -2.3273 H   0  0  0  0  0  0  0  0  0  0  0  0
   -0.9851    1.3114    0.6698 C   0  0  0  0  0  0  0  0  0  0  0  0
   -2.0377    1.8431    0.3168 O   0  0  0  0  0  0  0  0  0  0  0  0
   -0.1052    1.9265    1.4663 N   0  0  0  0  0  0  0  0  0  0  0  0
    0.7810    1.4586    1.6201 H   0  0  0  0  0  0  0  0  0  0  0  0
   -0.2724    3.2715    2.0119 C   0  0  0  0  0  0  0  0  0  0  0  0
   -1.3249    3.4549    2.2426 H   0  0  0  0  0  0  0  0  0  0  0  0
    0.3167    3.3776    2.9239 H   0  0  0  0  0  0  0  0  0  0  0  0
    0.0609    4.0073    1.2782 H   0  0  0  0  0  0  0  0  0  0  0  0
  5  6  2  0  0  0  0
  5  7  1  0  0  0  0
  2  3  1  0  0  0  0
  2  4  1  0  0  0  0
  2  5  1  0  0  0  0
  1  2  1  0  0  0  0
 22 23  2  0  0  0  0
 22 24  1  0  0  0  0
 20 21  1  0  0  0  0
 18 19  1  0  0  0  0
 18 20  1  0  0  0  0
 16 17  1  0  0  0  0
 16 18  1  0  0  0  0
 15 16  2  0  0  0  0
 14 15  1  0  0  0  0
 14 20  2  0  0  0  0
 11 12  1  0  0  0  0
 11 13  1  0  0  0  0
 11 14  1  0  0  0  0
  9 10  1  0  0  0  0
  9 11  1  0  0  0  0
  9 22  1  0  0  0  0
  7  8  1  0  0  0  0
  7  9  1  0  0  0  0
 26 27  1  0  0  0  0
 26 28  1  0  0  0  0
 26 29  1  0  0  0  0
 24 25  1  0  0  0  0
 24 26  1  0  0  0  0
M  END
$$$$
default_name
  -OEChem-02102213163D

 29 29  0     1  0  0  0  0  0999 V2000
   -2.9561   -3.9186    1.3887 H   0  0  0  0  0  0  0  0  0  0  0  0
   -3.1191   -2.9346    0.9517 C   0  0  0  0  0  0  0  0  0  0  0  0
   -3.7811   -2.3546    1.5917 H   0  0  0  0  0  0  0  0  0  0  0  0
   -3.5591   -3.0406   -0.0383 H   0  0  0  0  0  0  0  0  0  0  0  0
   -1.7921   -2.2226    0.8327 C   0  0  0  0  0  0  0  0  0  0  0  0
   -0.7611   -2.7766    1.1927 O   0  0  0  0  0  0  0  0  0  0  0  0
   -1.8201   -0.9926    0.3247 N   0  0  0  0  0  0  0  0  0  0  0  0
   -2.7141   -0.5816    0.0927 H   0  0  0  0  0  0  0  0  0  0  0  0
   -0.6481   -0.1156    0.2017 C   0  0  1  0  0  0  0  0  0  0  0  0
    0.1344   -0.4988    0.8596 H   0  0  0  0  0  0  0  0  0  0  0  0
   -0.1211   -0.1520   -1.2460 C   0  0  0  0  0  0  0  0  0  0  0  0
   -0.4005    0.7667   -1.7638 H   0  0  0  0  0  0  0  0  0  0  0  0
    0.9683   -0.2074   -1.2408 H   0  0  0  0  0  0  0  0  0  0  0  0
   -0.6790   -1.3047   -2.0447 C   0  0  0  0  0  0  0  0  0  0  0  0
   -0.1159   -2.5775   -2.1460 N   0  0  0  0  0  0  0  0  0  0  0  0
   -0.9564   -3.2937   -2.9069 C   0  0  0  0  0  0  0  0  0  0  0  0
   -0.7996   -4.3279   -3.1862 H   0  0  0  0  0  0  0  0  0  0  0  0
   -2.0177   -2.5500   -3.2617 N   0  0  0  0  0  0  0  0  0  0  0  0
   -2.7984   -2.8705   -3.8181 H   0  0  0  0  0  0  0  0  0  0  0  0
   -1.8625   -1.2920   -2.7233 C   0  0  0  0  0  0  0  0  0  0  0  0
   -2.5437   -0.4535   -2.7951 H   0  0  0  0  0  0  0  0  0  0  0  0
   -0.9851    1.3114    0.6698 C   0  0  0  0  0  0  0  0  0  0  0  0
   -2.0377    1.8431    0.3168 O   0  0  0  0  0  0  0  0  0  0  0  0
   -0.1052    1.9265    1.4663 N   0  0  0  0  0  0  0  0  0  0  0  0
    0.7810    1.4586    1.6201 H   0  0  0  0  0  0  0  0  0  0  0  0
   -0.2724    3.2715    2.0119 C   0  0  0  0  0  0  0  0  0  0  0  0
   -1.3249    3.4549    2.2426 H   0  0  0  0  0  0  0  0  0  0  0  0
    0.3167    3.3776    2.9239 H   0  0  0  0  0  0  0  0  0  0  0  0
    0.0609    4.0073    1.2782 H   0  0  0  0  0  0  0  0  0  0  0  0
  5  6  2  0  0  0  0
  5  7  1  0  0  0  0
  2  3  1  0  0  0  0
  2  4  1  0  0  0  0
  2  5  1  0  0  0  0
  1  2  1  0  0  0  0
 22 23  2  0  0  0  0
 22 24  1  0  0  0  0
 20 21  1  0  0  0  0
 18 19  1  0  0  0  0
 18 20  1  0  0  0  0
 16 17  1  0  0  0  0
 16 18  1  0  0  0  0
 15 16  2  0  0  0  0
 14 15  1  0  0  0  0
 14 20  2  0  0  0  0
 11 12  1  0  0  0  0
 11 13  1  0  0  0  0
 11 14  1  0  0  0  0
  9 10  1  0  0  0  0
  9 11  1  0  0  0  0
  9 22  1  0  0  0  0
  7  8  1  0  0  0  0
  7  9  1  0  0  0  0
 26 27  1  0  0  0  0
 26 28  1  0  0  0  0
 26 29  1  0  0  0  0
 24 25  1  0  0  0  0
 24 26  1  0  0  0  0
M  END
$$$$
default_name
  -OEChem-02102213163D

 29 29  0     1  0  0  0  0  0999 V2000
   -2.9561   -3.9186    1.3887 H   0  0  0  0  0  0  0  0  0  0  0  0
   -3.1191   -2.9346    0.9517 C   0  0  0  0  0  0  0  0  0  0  0  0
   -3.7811   -2.3546    1.5917 H   0  0  0  0  0  0  0  0  0  0  0  0
   -3.5591   -3.0406   -0.0383 H   0  0  0  0  0  0  0  0  0  0  0  0
   -1.7921   -2.2226    0.8327 C   0  0  0  0  0  0  0  0  0  0  0  0
   -0.7611   -2.7766    1.1927 O   0  0  0  0  0  0  0  0  0  0  0  0
   -1.8201   -0.9926    0.3247 N   0  0  0  0  0  0  0  0  0  0  0  0
   -2.7141   -0.5816    0.0927 H   0  0  0  0  0  0  0  0  0  0  0  0
   -0.6481   -0.1156    0.2017 C   0  0  1  0  0  0  0  0  0  0  0  0
    0.1344   -0.4988    0.8596 H   0  0  0  0  0  0  0  0  0  0  0  0
   -0.1211   -0.1520   -1.2460 C   0  0  0  0  0  0  0  0  0  0  0  0
   -0.4005    0.7667   -1.7638 H   0  0  0  0  0  0  0  0  0  0  0  0
    0.9683   -0.2074   -1.2408 H   0  0  0  0  0  0  0  0  0  0  0  0
   -0.6790   -1.3047   -2.0447 C   0  0  0  0  0  0  0  0  0  0  0  0
   -0.2997   -2.6422   -1.9242 N   0  0  0  0  0  0  0  0  0  0  0  0
   -1.0751   -3.3245   -2.7795 C   0  0  0  0  0  0  0  0  0  0  0  0
   -1.0211   -4.3946   -2.9352 H   0  0  0  0  0  0  0  0  0  0  0  0
   -1.9284   -2.4951   -3.4034 N   0  0  0  0  0  0  0  0  0  0  0  0
   -2.6268   -2.7725   -4.0794 H   0  0  0  0  0  0  0  0  0  0  0  0
   -1.6962   -1.2158   -2.9495 C   0  0  0  0  0  0  0  0  0  0  0  0
   -2.2207   -0.3102   -3.2274 H   0  0  0  0  0  0  0  0  0  0  0  0
   -0.9851    1.3114    0.6698 C   0  0  0  0  0  0  0  0  0  0  0  0
   -2.0377    1.8431    0.3168 O   0  0  0  0  0  0  0  0  0  0  0  0
   -0.1052    1.9265    1.4663 N   0  0  0  0  0  0  0  0  0  0  0  0
    0.7810    1.4586    1.6201 H   0  0  0  0  0  0  0  0  0  0  0  0
   -0.2724    3.2715    2.0119 C   0  0  0  0  0  0  0  0  0  0  0  0
   -1.3249    3.4549    2.2426 H   0  0  0  0  0  0  0  0  0  0  0  0
    0.3167    3.3776    2.9239 H   0  0  0  0  0  0  0  0  0  0  0  0
    0.0609    4.0073    1.2782 H   0  0  0  0  0  0  0  0  0  0  0  0
  5  6  2  0  0  0  0
  5  7  1  0  0  0  0
  2  3  1  0  0  0  0
  2  4  1  0  0  0  0
  2  5  1  0  0  0  0
  1  2  1  0  0  0  0
 22 23  2  0  0  0  0
 22 24  1  0  0  0  0
 20 21  1  0  0  0  0
 18 19  1  0  0  0  0
 18 20  1  0  0  0  0
 16 17  1  0  0  0  0
 16 18  1  0  0  0  0
 15 16  2  0  0  0  0
 14 15  1  0  0  0  0
 14 20  2  0  0  0  0
 11 12  1  0  0  0  0
 11 13  1  0  0  0  0
 11 14  1  0  0  0  0
  9 10  1  0  0  0  0
  9 11  1  0  0  0  0
  9 22  1  0  0  0  0
  7  8  1  0  0  0  0
  7  9  1  0  0  0  0
 26 27  1  0  0  0  0
 26 28  1  0  0  0  0
 26 29  1  0  0  0  0
 24 25  1  0  0  0  0
 24 26  1  0  0  0  0
M  END
$$$$
default_name
  -OEChem-02102213163D

 29 29  0     1  0  0  0  0  0999 V2000
   -2.9561   -3.9186    1.3887 H   0  0  0  0  0  0  0  0  0  0  0  0
   -3.1191   -2.9346    0.9517 C   0  0  0  0  0  0  0  0  0  0  0  0
   -3.7811   -2.3546    1.5917 H   0  0  0  0  0  0  0  0  0  0  0  0
   -3.5591   -3.0406   -0.0383 H   0  0  0  0  0  0  0  0  0  0  0  0
   -1.7921   -2.2226    0.8327 C   0  0  0  0  0  0  0  0  0  0  0  0
   -0.7611   -2.7766    1.1927 O   0  0  0  0  0  0  0  0  0  0  0  0
   -1.8201   -0.9926    0.3247 N   0  0  0  0  0  0  0  0  0  0  0  0
   -2.7141   -0.5816    0.0927 H   0  0  0  0  0  0  0  0  0  0  0  0
   -0.6481   -0.1156    0.2017 C   0  0  1  0  0  0  0  0  0  0  0  0
    0.1344   -0.4988    0.8596 H   0  0  0  0  0  0  0  0  0  0  0  0
   -0.1211   -0.1520   -1.2460 C   0  0  0  0  0  0  0  0  0  0  0  0
   -0.4005    0.7667   -1.7638 H   0  0  0  0  0  0  0  0  0  0  0  0
    0.9683   -0.2074   -1.2408 H   0  0  0  0  0  0  0  0  0  0  0  0
   -0.6790   -1.3047   -2.0447 C   0  0  0  0  0  0  0  0  0  0  0  0
   -0.5299   -2.6583   -1.7400 N   0  0  0  0  0  0  0  0  0  0  0  0
   -1.2191   -3.3258   -2.6769 C   0  0  0  0  0  0  0  0  0  0  0  0
   -1.2939   -4.4046   -2.7302 H   0  0  0  0  0  0  0  0  0  0  0  0
   -1.8066   -2.4678   -3.5278 N   0  0  0  0  0  0  0  0  0  0  0  0
   -2.3961   -2.7263   -4.3073 H   0  0  0  0  0  0  0  0  0  0  0  0
   -1.4804   -1.1865   -3.1424 C   0  0  0  0  0  0  0  0  0  0  0  0
   -1.8037   -0.2575   -3.5949 H   0  0  0  0  0  0  0  0  0  0  0  0
   -0.9851    1.3114    0.6698 C   0  0  0  0  0  0  0  0  0  0  0  0
   -2.0377    1.8431    0.3168 O   0  0  0  0  0  0  0  0  0  0  0  0
   -0.1052    1.9265    1.4663 N   0  0  0  0  0  0  0  0  0  0  0  0
    0.7810    1.4586    1.6201 H   0  0  0  0  0  0  0  0  0  0  0  0
   -0.2724    3.2715    2.0119 C   0  0  0  0  0  0  0  0  0  0  0  0
   -1.3249    3.4549    2.2426 H   0  0  0  0  0  0  0  0  0  0  0  0
    0.3167    3.3776    2.9239 H   0  0  0  0  0  0  0  0  0  0  0  0
    0.0609    4.0073    1.2782 H   0  0  0  0  0  0  0  0  0  0  0  0
  5  6  2  0  0  0  0
  5  7  1  0  0  0  0
  2  3  1  0  0  0  0
  2  4  1  0  0  0  0
  2  5  1  0  0  0  0
  1  2  1  0  0  0  0
 22 23  2  0  0  0  0
 22 24  1  0  0  0  0
 20 21  1  0  0  0  0
 18 19  1  0  0  0  0
 18 20  1  0  0  0  0
 16 17  1  0  0  0  0
 16 18  1  0  0  0  0
 15 16  2  0  0  0  0
 14 15  1  0  0  0  0
 14 20  2  0  0  0  0
 11 12  1  0  0  0  0
 11 13  1  0  0  0  0
 11 14  1  0  0  0  0
  9 10  1  0  0  0  0
  9 11  1  0  0  0  0
  9 22  1  0  0  0  0
  7  8  1  0  0  0  0
  7  9  1  0  0  0  0
 26 27  1  0  0  0  0
 26 28  1  0  0  0  0
 26 29  1  0  0  0  0
 24 25  1  0  0  0  0
 24 26  1  0  0  0  0
M  END
$$$$
default_name
  -OEChem-02102213163D

 29 29  0     1  0  0  0  0  0999 V2000
   -2.9561   -3.9186    1.3887 H   0  0  0  0  0  0  0  0  0  0  0  0
   -3.1191   -2.9346    0.9517 C   0  0  0  0  0  0  0  0  0  0  0  0
   -3.7811   -2.3546    1.5917 H   0  0  0  0  0  0  0  0  0  0  0  0
   -3.5591   -3.0406   -0.0383 H   0  0  0  0  0  0  0  0  0  0  0  0
   -1.7921   -2.2226    0.8327 C   0  0  0  0  0  0  0  0  0  0  0  0
   -0.7611   -2.7766    1.1927 O   0  0  0  0  0  0  0  0  0  0  0  0
   -1.8201   -0.9926    0.3247 N   0  0  0  0  0  0  0  0  0  0  0  0
   -2.7141   -0.5816    0.0927 H   0  0  0  0  0  0  0  0  0  0  0  0
   -0.6481   -0.1156    0.2017 C   0  0  1  0  0  0  0  0  0  0  0  0
    0.1344   -0.4988    0.8596 H   0  0  0  0  0  0  0  0  0  0  0  0
   -0.1211   -0.1520   -1.2460 C   0  0  0  0  0  0  0  0  0  0  0  0
   -0.4005    0.7667   -1.7638 H   0  0  0  0  0  0  0  0  0  0  0  0
    0.9683   -0.2074   -1.2408 H   0  0  0  0  0  0  0  0  0  0  0  0
   -0.6790   -1.3047   -2.0447 C   0  0  0  0  0  0  0  0  0  0  0  0
   -0.7909   -2.6248   -1.6062 N   0  0  0  0  0  0  0  0  0  0  0  0
   -1.3788   -3.2975   -2.6063 C   0  0  0  0  0  0  0  0  0  0  0  0
   -1.5992   -4.3574   -2.5851 H   0  0  0  0  0  0  0  0  0  0  0  0
   -1.6606   -2.4700   -3.6266 N   0  0  0  0  0  0  0  0  0  0  0  0
   -2.1217   -2.7351   -4.4862 H   0  0  0  0  0  0  0  0  0  0  0  0
   -1.2298   -1.2063   -3.2889 C   0  0  0  0  0  0  0  0  0  0  0  0
   -1.3210   -0.2988   -3.8724 H   0  0  0  0  0  0  0  0  0  0  0  0
   -0.9851    1.3114    0.6698 C   0  0  0  0  0  0  0  0  0  0  0  0
   -2.0377    1.8431    0.3168 O   0  0  0  0  0  0  0  0  0  0  0  0
   -0.1052    1.9265    1.4663 N   0  0  0  0  0  0  0  0  0  0  0  0
    0.7810    1.4586    1.6201 H   0  0  0  0  0  0  0  0  0  0  0  0
   -0.2724    3.2715    2.0119 C   0  0  0  0  0  0  0  0  0  0  0  0
   -1.3249    3.4549    2.2426 H   0  0  0  0  0  0  0  0  0  0  0  0
    0.3167    3.3776    2.9239 H   0  0  0  0  0  0  0  0  0  0  0  0
    0.0609    4.0073    1.2782 H   0  0  0  0  0  0  0  0  0  0  0  0
  5  6  2  0  0  0  0
  5  7  1  0  0  0  0
  2  3  1  0  0  0  0
  2  4  1  0  0  0  0
  2  5  1  0  0  0  0
  1  2  1  0  0  0  0
 22 23  2  0  0  0  0
 22 24  1  0  0  0  0
 20 21  1  0  0  0  0
 18 19  1  0  0  0  0
 18 20  1  0  0  0  0
 16 17  1  0  0  0  0
 16 18  1  0  0  0  0
 15 16  2  0  0  0  0
 14 15  1  0  0  0  0
 14 20  2  0  0  0  0
 11 12  1  0  0  0  0
 11 13  1  0  0  0  0
 11 14  1  0  0  0  0
  9 10  1  0  0  0  0
  9 11  1  0  0  0  0
  9 22  1  0  0  0  0
  7  8  1  0  0  0  0
  7  9  1  0  0  0  0
 26 27  1  0  0  0  0
 26 28  1  0  0  0  0
 26 29  1  0  0  0  0
 24 25  1  0  0  0  0
 24 26  1  0  0  0  0
M  END
$$$$
default_name
  -OEChem-02102213163D

 29 29  0     1  0  0  0  0  0999 V2000
   -2.9561   -3.9186    1.3887 H   0  0  0  0  0  0  0  0  0  0  0  0
   -3.1191   -2.9346    0.9517 C   0  0  0  0  0  0  0  0  0  0  0  0
   -3.7811   -2.3546    1.5917 H   0  0  0  0  0  0  0  0  0  0  0  0
   -3.5591   -3.0406   -0.0383 H   0  0  0  0  0  0  0  0  0  0  0  0
   -1.7921   -2.2226    0.8327 C   0  0  0  0  0  0  0  0  0  0  0  0
   -0.7611   -2.7766    1.1927 O   0  0  0  0  0  0  0  0  0  0  0  0
   -1.8201   -0.9926    0.3247 N   0  0  0  0  0  0  0  0  0  0  0  0
   -2.7141   -0.5816    0.0927 H   0  0  0  0  0  0  0  0  0  0  0  0
   -0.6481   -0.1156    0.2017 C   0  0  1  0  0  0  0  0  0  0  0  0
    0.1344   -0.4988    0.8596 H   0  0  0  0  0  0  0  0  0  0  0  0
   -0.1211   -0.1520   -1.2460 C   0  0  0  0  0  0  0  0  0  0  0  0
   -0.4005    0.7667   -1.7638 H   0  0  0  0  0  0  0  0  0  0  0  0
    0.9683   -0.2074   -1.2408 H   0  0  0  0  0  0  0  0  0  0  0  0
   -0.6790   -1.3047   -2.0447 C   0  0  0  0  0  0  0  0  0  0  0  0
   -1.0649   -2.5438   -1.5317 N   0  0  0  0  0  0  0  0  0  0  0  0
   -1.5430   -3.2416   -2.5722 C   0  0  0  0  0  0  0  0  0  0  0  0
   -1.9164   -4.2560   -2.5099 H   0  0  0  0  0  0  0  0  0  0  0  0
   -1.5004   -2.5016   -3.6929 N   0  0  0  0  0  0  0  0  0  0  0  0
   -1.8226   -2.7983   -4.6040 H   0  0  0  0  0  0  0  0  0  0  0  0
   -0.9615   -1.2738   -3.3790 C   0  0  0  0  0  0  0  0  0  0  0  0
   -0.8056   -0.4314   -4.0411 H   0  0  0  0  0  0  0  0  0  0  0  0
   -0.9851    1.3114    0.6698 C   0  0  0  0  0  0  0  0  0  0  0  0
   -2.0377    1.8431    0.3168 O   0  0  0  0  0  0  0  0  0  0  0  0
   -0.1052    1.9265    1.4663 N   0  0  0  0  0  0  0  0  0  0  0  0
    0.7810    1.4586    1.6201 H   0  0  0  0  0  0  0  0  0  0  0  0
   -0.2724    3.2715    2.0119 C   0  0  0  0  0  0  0  0  0  0  0  0
   -1.3249    3.4549    2.2426 H   0  0  0  0  0  0  0  0  0  0  0  0
    0.3167    3.3776    2.9239 H   0  0  0  0  0  0  0  0  0  0  0  0
    0.0609    4.0073    1.2782 H   0  0  0  0  0  0  0  0  0  0  0  0
  5  6  2  0  0  0  0
  5  7  1  0  0  0  0
  2  3  1  0  0  0  0
  2  4  1  0  0  0  0
  2  5  1  0  0  0  0
  1  2  1  0  0  0  0
 22 23  2  0  0  0  0
 22 24  1  0  0  0  0
 20 21  1  0  0  0  0
 18 19  1  0  0  0  0
 18 20  1  0  0  0  0
 16 17  1  0  0  0  0
 16 18  1  0  0  0  0
 15 16  2  0  0  0  0
 14 15  1  0  0  0  0
 14 20  2  0  0  0  0
 11 12  1  0  0  0  0
 11 13  1  0  0  0  0
 11 14  1  0  0  0  0
  9 10  1  0  0  0  0
  9 11  1  0  0  0  0
  9 22  1  0  0  0  0
  7  8  1  0  0  0  0
  7  9  1  0  0  0  0
 26 27  1  0  0  0  0
 26 28  1  0  0  0  0
 26 29  1  0  0  0  0
 24 25  1  0  0  0  0
 24 26  1  0  0  0  0
M  END
$$$$
default_name
  -OEChem-02102213163D

 29 29  0     1  0  0  0  0  0999 V2000
   -2.9561   -3.9186    1.3887 H   0  0  0  0  0  0  0  0  0  0  0  0
   -3.1191   -2.9346    0.9517 C   0  0  0  0  0  0  0  0  0  0  0  0
   -3.7811   -2.3546    1.5917 H   0  0  0  0  0  0  0  0  0  0  0  0
   -3.5591   -3.0406   -0.0383 H   0  0  0  0  0  0  0  0  0  0  0  0
   -1.7921   -2.2226    0.8327 C   0  0  0  0  0  0  0  0  0  0  0  0
   -0.7611   -2.7766    1.1927 O   0  0  0  0  0  0  0  0  0  0  0  0
   -1.8201   -0.9926    0.3247 N   0  0  0  0  0  0  0  0  0  0  0  0
   -2.7141   -0.5816    0.0927 H   0  0  0  0  0  0  0  0  0  0  0  0
   -0.6481   -0.1156    0.2017 C   0  0  1  0  0  0  0  0  0  0  0  0
    0.1344   -0.4988    0.8596 H   0  0  0  0  0  0  0  0  0  0  0  0
   -0.1211   -0.1520   -1.2460 C   0  0  0  0  0  0  0  0  0  0  0  0
   -0.4005    0.7667   -1.7638 H   0  0  0  0  0  0  0  0  0  0  0  0
    0.9683   -0.2074   -1.2408 H   0  0  0  0  0  0  0  0  0  0  0  0
   -0.6790   -1.3047   -2.0447 C   0  0  0  0  0  0  0  0  0  0  0  0
   -1.3332   -2.4209   -1.5216 N   0  0  0  0  0  0  0  0  0  0  0  0
   -1.7008   -3.1618   -2.5772 C   0  0  0  0  0  0  0  0  0  0  0  0
   -2.2238   -4.1074   -2.5096 H   0  0  0  0  0  0  0  0  0  0  0  0
   -1.3369   -2.5604   -3.7223 N   0  0  0  0  0  0  0  0  0  0  0  0
   -1.5191   -2.9116   -4.6525 H   0  0  0  0  0  0  0  0  0  0  0  0
   -0.6938   -1.3843   -3.4066 C   0  0  0  0  0  0  0  0  0  0  0  0
   -0.2925   -0.6462   -4.0896 H   0  0  0  0  0  0  0  0  0  0  0  0
   -0.9851    1.3114    0.6698 C   0  0  0  0  0  0  0  0  0  0  0  0
   -2.0377    1.8431    0.3168 O   0  0  0  0  0  0  0  0  0  0  0  0
   -0.1052    1.9265    1.4663 N   0  0  0  0  0  0  0  0  0  0  0  0
    0.7810    1.4586    1.6201 H   0  0  0  0  0  0  0  0  0  0  0  0
   -0.2724    3.2715    2.0119 C   0  0  0  0  0  0  0  0  0  0  0  0
   -1.3249    3.4549    2.2426 H   0  0  0  0  0  0  0  0  0  0  0  0
    0.3167    3.3776    2.9239 H   0  0  0  0  0  0  0  0  0  0  0  0
    0.0609    4.0073    1.2782 H   0  0  0  0  0  0  0  0  0  0  0  0
  5  6  2  0  0  0  0
  5  7  1  0  0  0  0
  2  3  1  0  0  0  0
  2  4  1  0  0  0  0
  2  5  1  0  0  0  0
  1  2  1  0  0  0  0
 22 23  2  0  0  0  0
 22 24  1  0  0  0  0
 20 21  1  0  0  0  0
 18 19  1  0  0  0  0
 18 20  1  0  0  0  0
 16 17  1  0  0  0  0
 16 18  1  0  0  0  0
 15 16  2  0  0  0  0
 14 15  1  0  0  0  0
 14 20  2  0  0  0  0
 11 12  1  0  0  0  0
 11 13  1  0  0  0  0
 11 14  1  0  0  0  0
  9 10  1  0  0  0  0
  9 11  1  0  0  0  0
  9 22  1  0  0  0  0
  7  8  1  0  0  0  0
  7  9  1  0  0  0  0
 26 27  1  0  0  0  0
 26 28  1  0  0  0  0
 26 29  1  0  0  0  0
 24 25  1  0  0  0  0
 24 26  1  0  0  0  0
M  END
$$$$
default_name
  -OEChem-02102213163D

 29 29  0     1  0  0  0  0  0999 V2000
   -2.9561   -3.9186    1.3887 H   0  0  0  0  0  0  0  0  0  0  0  0
   -3.1191   -2.9346    0.9517 C   0  0  0  0  0  0  0  0  0  0  0  0
   -3.7811   -2.3546    1.5917 H   0  0  0  0  0  0  0  0  0  0  0  0
   -3.5591   -3.0406   -0.0383 H   0  0  0  0  0  0  0  0  0  0  0  0
   -1.7921   -2.2226    0.8327 C   0  0  0  0  0  0  0  0  0  0  0  0
   -0.7611   -2.7766    1.1927 O   0  0  0  0  0  0  0  0  0  0  0  0
   -1.8201   -0.9926    0.3247 N   0  0  0  0  0  0  0  0  0  0  0  0
   -2.7141   -0.5816    0.0927 H   0  0  0  0  0  0  0  0  0  0  0  0
   -0.6481   -0.1156    0.2017 C   0  0  1  0  0  0  0  0  0  0  0  0
    0.1344   -0.4988    0.8596 H   0  0  0  0  0  0  0  0  0  0  0  0
   -0.1211   -0.1520   -1.2460 C   0  0  0  0  0  0  0  0  0  0  0  0
   -0.4005    0.7667   -1.7638 H   0  0  0  0  0  0  0  0  0  0  0  0
    0.9683   -0.2074   -1.2408 H   0  0  0  0  0  0  0  0  0  0  0  0
   -0.6790   -1.3047   -2.0447 C   0  0  0  0  0  0  0  0  0  0  0  0
   -1.5774   -2.2645   -1.5767 N   0  0  0  0  0  0  0  0  0  0  0  0
   -1.8412   -3.0636   -2.6208 C   0  0  0  0  0  0  0  0  0  0  0  0
   -2.5004   -3.9218   -2.5843 H   0  0  0  0  0  0  0  0  0  0  0  0
   -1.1812   -2.6424   -3.7127 N   0  0  0  0  0  0  0  0  0  0  0  0
   -1.2318   -3.0672   -4.6286 H   0  0  0  0  0  0  0  0  0  0  0  0
   -0.4449   -1.5303   -3.3697 C   0  0  0  0  0  0  0  0  0  0  0  0
    0.1832   -0.9285   -4.0143 H   0  0  0  0  0  0  0  0  0  0  0  0
   -0.9851    1.3114    0.6698 C   0  0  0  0  0  0  0  0  0  0  0  0
   -2.0377    1.8431    0.3168 O   0  0  0  0  0  0  0  0  0  0  0  0
   -0.1052    1.9265    1.4663 N   0  0  0  0  0  0  0  0  0  0  0  0
    0.7810    1.4586    1.6201 H   0  0  0  0  0  0  0  0  0  0  0  0
   -0.2724    3.2715    2.0119 C   0  0  0  0  0  0  0  0  0  0  0  0
   -1.3249    3.4549    2.2426 H   0  0  0  0  0  0  0  0  0  0  0  0
    0.3167    3.3776    2.9239 H   0  0  0  0  0  0  0  0  0  0  0  0
    0.0609    4.0073    1.2782 H   0  0  0  0  0  0  0  0  0  0  0  0
  5  6  2  0  0  0  0
  5  7  1  0  0  0  0
  2  3  1  0  0  0  0
  2  4  1  0  0  0  0
  2  5  1  0  0  0  0
  1  2  1  0  0  0  0
 22 23  2  0  0  0  0
 22 24  1  0  0  0  0
 20 21  1  0  0  0  0
 18 19  1  0  0  0  0
 18 20  1  0  0  0  0
 16 17  1  0  0  0  0
 16 18  1  0  0  0  0
 15 16  2  0  0  0  0
 14 15  1  0  0  0  0
 14 20  2  0  0  0  0
 11 12  1  0  0  0  0
 11 13  1  0  0  0  0
 11 14  1  0  0  0  0
  9 10  1  0  0  0  0
  9 11  1  0  0  0  0
  9 22  1  0  0  0  0
  7  8  1  0  0  0  0
  7  9  1  0  0  0  0
 26 27  1  0  0  0  0
 26 28  1  0  0  0  0
 26 29  1  0  0  0  0
 24 25  1  0  0  0  0
 24 26  1  0  0  0  0
M  END
$$$$
default_name
  -OEChem-02102213163D

 29 29  0     1  0  0  0  0  0999 V2000
   -2.9561   -3.9186    1.3887 H   0  0  0  0  0  0  0  0  0  0  0  0
   -3.1191   -2.9346    0.9517 C   0  0  0  0  0  0  0  0  0  0  0  0
   -3.7811   -2.3546    1.5917 H   0  0  0  0  0  0  0  0  0  0  0  0
   -3.5591   -3.0406   -0.0383 H   0  0  0  0  0  0  0  0  0  0  0  0
   -1.7921   -2.2226    0.8327 C   0  0  0  0  0  0  0  0  0  0  0  0
   -0.7611   -2.7766    1.1927 O   0  0  0  0  0  0  0  0  0  0  0  0
   -1.8201   -0.9926    0.3247 N   0  0  0  0  0  0  0  0  0  0  0  0
   -2.7141   -0.5816    0.0927 H   0  0  0  0  0  0  0  0  0  0  0  0
   -0.6481   -0.1156    0.2017 C   0  0  1  0  0  0  0  0  0  0  0  0
    0.1344   -0.4988    0.8596 H   0  0  0  0  0  0  0  0  0  0  0  0
   -0.1211   -0.1520   -1.2460 C   0  0  0  0  0  0  0  0  0  0  0  0
   -0.4005    0.7667   -1.7638 H   0  0  0  0  0  0  0  0  0  0  0  0
    0.9683   -0.2074   -1.2408 H   0  0  0  0  0  0  0  0  0  0  0  0
   -0.6790   -1.3047   -2.0447 C   0  0  0  0  0  0  0  0  0  0  0  0
   -1.7811   -2.0853   -1.6931 N   0  0  0  0  0  0  0  0  0  0  0  0
   -1.9548   -2.9537   -2.7001 C   0  0  0  0  0  0  0  0  0  0  0  0
   -2.7273   -3.7118   -2.7288 H   0  0  0  0  0  0  0  0  0  0  0  0
   -1.0439   -2.7421   -3.6648 N   0  0  0  0  0  0  0  0  0  0  0  0
   -0.9804   -3.2546   -4.5338 H   0  0  0  0  0  0  0  0  0  0  0  0
   -0.2318   -1.7019   -3.2708 C   0  0  0  0  0  0  0  0  0  0  0  0
    0.5892   -1.2593   -3.8206 H   0  0  0  0  0  0  0  0  0  0  0  0
   -0.9851    1.3114    0.6698 C   0  0  0  0  0  0  0  0  0  0  0  0
   -2.0377    1.8431    0.3168 O   0  0  0  0  0  0  0  0  0  0  0  0
   -0.1052    1.9265    1.4663 N   0  0  0  0  0  0  0  0  0  0  0  0
    0.7810    1.4586    1.6201 H   0  0  0  0  0  0  0  0  0  0  0  0
   -0.2724    3.2715    2.0119 C   0  0  0  0  0  0  0  0  0  0  0  0
   -1.3249    3.4549    2.2426 H   0  0  0  0  0  0  0  0  0  0  0  0
    0.3167    3.3776    2.9239 H   0  0  0  0  0  0  0  0  0  0  0  0
    0.0609    4.0073    1.2782 H   0  0  0  0  0  0  0  0  0  0  0  0
  5  6  2  0  0  0  0
  5  7  1  0  0  0  0
  2  3  1  0  0  0  0
  2  4  1  0  0  0  0
  2  5  1  0  0  0  0
  1  2  1  0  0  0  0
 22 23  2  0  0  0  0
 22 24  1  0  0  0  0
 20 21  1  0  0  0  0
 18 19  1  0  0  0  0
 18 20  1  0  0  0  0
 16 17  1  0  0  0  0
 16 18  1  0  0  0  0
 15 16  2  0  0  0  0
 14 15  1  0  0  0  0
 14 20  2  0  0  0  0
 11 12  1  0  0  0  0
 11 13  1  0  0  0  0
 11 14  1  0  0  0  0
  9 10  1  0  0  0  0
  9 11  1  0  0  0  0
  9 22  1  0  0  0  0
  7  8  1  0  0  0  0
  7  9  1  0  0  0  0
 26 27  1  0  0  0  0
 26 28  1  0  0  0  0
 26 29  1  0  0  0  0
 24 25  1  0  0  0  0
 24 26  1  0  0  0  0
M  END
$$$$
default_name
  -OEChem-02102213163D

 29 29  0     1  0  0  0  0  0999 V2000
   -2.9561   -3.9186    1.3887 H   0  0  0  0  0  0  0  0  0  0  0  0
   -3.1191   -2.9346    0.9517 C   0  0  0  0  0  0  0  0  0  0  0  0
   -3.7811   -2.3546    1.5917 H   0  0  0  0  0  0  0  0  0  0  0  0
   -3.5591   -3.0406   -0.0383 H   0  0  0  0  0  0  0  0  0  0  0  0
   -1.7921   -2.2226    0.8327 C   0  0  0  0  0  0  0  0  0  0  0  0
   -0.7611   -2.7766    1.1927 O   0  0  0  0  0  0  0  0  0  0  0  0
   -1.8201   -0.9926    0.3247 N   0  0  0  0  0  0  0  0  0  0  0  0
   -2.7141   -0.5816    0.0927 H   0  0  0  0  0  0  0  0  0  0  0  0
   -0.6481   -0.1156    0.2017 C   0  0  1  0  0  0  0  0  0  0  0  0
    0.1344   -0.4988    0.8596 H   0  0  0  0  0  0  0  0  0  0  0  0
   -0.1211   -0.1520   -1.2460 C   0  0  0  0  0  0  0  0  0  0  0  0
   -0.4005    0.7667   -1.7638 H   0  0  0  0  0  0  0  0  0  0  0  0
    0.9683   -0.2074   -1.2408 H   0  0  0  0  0  0  0  0  0  0  0  0
   -0.6790   -1.3047   -2.0447 C   0  0  0  0  0  0  0  0  0  0  0  0
   -1.9302   -1.8954   -1.8630 N   0  0  0  0  0  0  0  0  0  0  0  0
   -2.0338   -2.8396   -2.8096 C   0  0  0  0  0  0  0  0  0  0  0  0
   -2.8892   -3.4916   -2.9334 H   0  0  0  0  0  0  0  0  0  0  0  0
   -0.9344   -2.8525   -3.5819 N   0  0  0  0  0  0  0  0  0  0  0  0
   -0.7819   -3.4610   -4.3746 H   0  0  0  0  0  0  0  0  0  0  0  0
   -0.0690   -1.8874   -3.1168 C   0  0  0  0  0  0  0  0  0  0  0  0
    0.8978   -1.6158   -3.5216 H   0  0  0  0  0  0  0  0  0  0  0  0
   -0.9851    1.3114    0.6698 C   0  0  0  0  0  0  0  0  0  0  0  0
   -2.0377    1.8431    0.3168 O   0  0  0  0  0  0  0  0  0  0  0  0
   -0.1052    1.9265    1.4663 N   0  0  0  0  0  0  0  0  0  0  0  0
    0.7810    1.4586    1.6201 H   0  0  0  0  0  0  0  0  0  0  0  0
   -0.2724    3.2715    2.0119 C   0  0  0  0  0  0  0  0  0  0  0  0
   -1.3249    3.4549    2.2426 H   0  0  0  0  0  0  0  0  0  0  0  0
    0.3167    3.3776    2.9239 H   0  0  0  0  0  0  0  0  0  0  0  0
    0.0609    4.0073    1.2782 H   0  0  0  0  0  0  0  0  0  0  0  0
  5  6  2  0  0  0  0
  5  7  1  0  0  0  0
  2  3  1  0  0  0  0
  2  4  1  0  0  0  0
  2  5  1  0  0  0  0
  1  2  1  0  0  0  0
 22 23  2  0  0  0  0
 22 24  1  0  0  0  0
 20 21  1  0  0  0  0
 18 19  1  0  0  0  0
 18 20  1  0  0  0  0
 16 17  1  0  0  0  0
 16 18  1  0  0  0  0
 15 16  2  0  0  0  0
 14 15  1  0  0  0  0
 14 20  2  0  0  0  0
 11 12  1  0  0  0  0
 11 13  1  0  0  0  0
 11 14  1  0  0  0  0
  9 10  1  0  0  0  0
  9 11  1  0  0  0  0
  9 22  1  0  0  0  0
  7  8  1  0  0  0  0
  7  9  1  0  0  0  0
 26 27  1  0  0  0  0
 26 28  1  0  0  0  0
 26 29  1  0  0  0  0
 24 25  1  0  0  0  0
 24 26  1  0  0  0  0
M  END
$$$$
default_name
  -OEChem-02102213163D

 29 29  0     1  0  0  0  0  0999 V2000
   -2.9561   -3.9186    1.3887 H   0  0  0  0  0  0  0  0  0  0  0  0
   -3.1191   -2.9346    0.9517 C   0  0  0  0  0  0  0  0  0  0  0  0
   -3.7811   -2.3546    1.5917 H   0  0  0  0  0  0  0  0  0  0  0  0
   -3.5591   -3.0406   -0.0383 H   0  0  0  0  0  0  0  0  0  0  0  0
   -1.7921   -2.2226    0.8327 C   0  0  0  0  0  0  0  0  0  0  0  0
   -0.7611   -2.7766    1.1927 O   0  0  0  0  0  0  0  0  0  0  0  0
   -1.8201   -0.9926    0.3247 N   0  0  0  0  0  0  0  0  0  0  0  0
   -2.7141   -0.5816    0.0927 H   0  0  0  0  0  0  0  0  0  0  0  0
   -0.6481   -0.1156    0.2017 C   0  0  1  0  0  0  0  0  0  0  0  0
    0.1344   -0.4988    0.8596 H   0  0  0  0  0  0  0  0  0  0  0  0
   -0.1211   -0.1520   -1.2460 C   0  0  0  0  0  0  0  0  0  0  0  0
   -0.4005    0.7667   -1.7638 H   0  0  0  0  0  0  0  0  0  0  0  0
    0.9683   -0.2074   -1.2408 H   0  0  0  0  0  0  0  0  0  0  0  0
   -0.6790   -1.3047   -2.0447 C   0  0  0  0  0  0  0  0  0  0  0  0
   -2.0147   -1.7078   -2.0748 N   0  0  0  0  0  0  0  0  0  0  0  0
   -2.0728   -2.7290   -2.9420 C   0  0  0  0  0  0  0  0  0  0  0  0
   -2.9750   -3.2764   -3.1841 H   0  0  0  0  0  0  0  0  0  0  0  0
   -0.8601   -2.9663   -3.4696 N   0  0  0  0  0  0  0  0  0  0  0  0
   -0.6499   -3.6723   -4.1618 H   0  0  0  0  0  0  0  0  0  0  0  0
    0.0324   -2.0742   -2.9181 C   0  0  0  0  0  0  0  0  0  0  0  0
    1.0879   -1.9738   -3.1377 H   0  0  0  0  0  0  0  0  0  0  0  0
   -0.9851    1.3114    0.6698 C   0  0  0  0  0  0  0  0  0  0  0  0
   -2.0377    1.8431    0.3168 O   0  0  0  0  0  0  0  0  0  0  0  0
   -0.1052    1.9265    1.4663 N   0  0  0  0  0  0  0  0  0  0  0  0
    0.7810    1.4586    1.6201 H   0  0  0  0  0  0  0  0  0  0  0  0
   -0.2724    3.2715    2.0119 C   0  0  0  0  0  0  0  0  0  0  0  0
   -1.3249    3.4549    2.2426 H   0  0  0  0  0  0  0  0  0  0  0  0
    0.3167    3.3776    2.9239 H   0  0  0  0  0  0  0  0  0  0  0  0
    0.0609    4.0073    1.2782 H   0  0  0  0  0  0  0  0  0  0  0  0
  5  6  2  0  0  0  0
  5  7  1  0  0  0  0
  2  3  1  0  0  0  0
  2  4  1  0  0  0  0
  2  5  1  0  0  0  0
  1  2  1  0  0  0  0
 22 23  2  0  0  0  0
 22 24  1  0  0  0  0
 20 21  1  0  0  0  0
 18 19  1  0  0  0  0
 18 20  1  0  0  0  0
 16 17  1  0  0  0  0
 16 18  1  0  0  0  0
 15 16  2  0  0  0  0
 14 15  1  0  0  0  0
 14 20  2  0  0  0  0
 11 12  1  0  0  0  0
 11 13  1  0  0  0  0
 11 14  1  0  0  0  0
  9 10  1  0  0  0  0
  9 11  1  0  0  0  0
  9 22  1  0  0  0  0
  7  8  1  0  0  0  0
  7  9  1  0  0  0  0
 26 27  1  0  0  0  0
 26 28  1  0  0  0  0
 26 29  1  0  0  0  0
 24 25  1  0  0  0  0
 24 26  1  0  0  0  0
M  END
$$$$
default_name
  -OEChem-02102213163D

 29 29  0     1  0  0  0  0  0999 V2000
   -2.9561   -3.9186    1.3887 H   0  0  0  0  0  0  0  0  0  0  0  0
   -3.1191   -2.9346    0.9517 C   0  0  0  0  0  0  0  0  0  0  0  0
   -3.7811   -2.3546    1.5917 H   0  0  0  0  0  0  0  0  0  0  0  0
   -3.5591   -3.0406   -0.0383 H   0  0  0  0  0  0  0  0  0  0  0  0
   -1.7921   -2.2226    0.8327 C   0  0  0  0  0  0  0  0  0  0  0  0
   -0.7611   -2.7766    1.1927 O   0  0  0  0  0  0  0  0  0  0  0  0
   -1.8201   -0.9926    0.3247 N   0  0  0  0  0  0  0  0  0  0  0  0
   -2.7141   -0.5816    0.0927 H   0  0  0  0  0  0  0  0  0  0  0  0
   -0.6481   -0.1156    0.2017 C   0  0  1  0  0  0  0  0  0  0  0  0
    0.1344   -0.4988    0.8596 H   0  0  0  0  0  0  0  0  0  0  0  0
   -0.1211   -0.1520   -1.2460 C   0  0  0  0  0  0  0  0  0  0  0  0
   -0.4005    0.7667   -1.7638 H   0  0  0  0  0  0  0  0  0  0  0  0
    0.9683   -0.2074   -1.2408 H   0  0  0  0  0  0  0  0  0  0  0  0
   -0.6790   -1.3047   -2.0447 C   0  0  0  0  0  0  0  0  0  0  0  0
   -2.0288   -1.5353   -2.3139 N   0  0  0  0  0  0  0  0  0  0  0  0
   -2.0692   -2.6295   -3.0881 C   0  0  0  0  0  0  0  0  0  0  0  0
   -2.9789   -3.0807   -3.4639 H   0  0  0  0  0  0  0  0  0  0  0  0
   -0.8262   -3.0756   -3.3355 N   0  0  0  0  0  0  0  0  0  0  0  0
   -0.5934   -3.8741   -3.9100 H   0  0  0  0  0  0  0  0  0  0  0  0
    0.0655   -2.2495   -2.6883 C   0  0  0  0  0  0  0  0  0  0  0  0
    1.1466   -2.3090   -2.6950 H   0  0  0  0  0  0  0  0  0  0  0  0
   -0.9851    1.3114    0.6698 C   0  0  0  0  0  0  0  0  0  0  0  0
   -2.0377    1.8431    0.3168 O   0  0  0  0  0  0  0  0  0  0  0  0
   -0.1052    1.9265    1.4663 N   0  0  0  0  0  0  0  0  0  0  0  0
    0.7810    1.4586    1.6201 H   0  0  0  0  0  0  0  0  0  0  0  0
   -0.2724    3.2715    2.0119 C   0  0  0  0  0  0  0  0  0  0  0  0
   -1.3249    3.4549    2.2426 H   0  0  0  0  0  0  0  0  0  0  0  0
    0.3167    3.3776    2.9239 H   0  0  0  0  0  0  0  0  0  0  0  0
    0.0609    4.0073    1.2782 H   0  0  0  0  0  0  0  0  0  0  0  0
  5  6  2  0  0  0  0
  5  7  1  0  0  0  0
  2  3  1  0  0  0  0
  2  4  1  0  0  0  0
  2  5  1  0  0  0  0
  1  2  1  0  0  0  0
 22 23  2  0  0  0  0
 22 24  1  0  0  0  0
 20 21  1  0  0  0  0
 18 19  1  0  0  0  0
 18 20  1  0  0  0  0
 16 17  1  0  0  0  0
 16 18  1  0  0  0  0
 15 16  2  0  0  0  0
 14 15  1  0  0  0  0
 14 20  2  0  0  0  0
 11 12  1  0  0  0  0
 11 13  1  0  0  0  0
 11 14  1  0  0  0  0
  9 10  1  0  0  0  0
  9 11  1  0  0  0  0
  9 22  1  0  0  0  0
  7  8  1  0  0  0  0
  7  9  1  0  0  0  0
 26 27  1  0  0  0  0
 26 28  1  0  0  0  0
 26 29  1  0  0  0  0
 24 25  1  0  0  0  0
 24 26  1  0  0  0  0
M  END
$$$$
default_name
  -OEChem-02102213163D

 29 29  0     1  0  0  0  0  0999 V2000
   -2.9561   -3.9186    1.3887 H   0  0  0  0  0  0  0  0  0  0  0  0
   -3.1191   -2.9346    0.9517 C   0  0  0  0  0  0  0  0  0  0  0  0
   -3.7811   -2.3546    1.5917 H   0  0  0  0  0  0  0  0  0  0  0  0
   -3.5591   -3.0406   -0.0383 H   0  0  0  0  0  0  0  0  0  0  0  0
   -1.7921   -2.2226    0.8327 C   0  0  0  0  0  0  0  0  0  0  0  0
   -0.7611   -2.7766    1.1927 O   0  0  0  0  0  0  0  0  0  0  0  0
   -1.8201   -0.9926    0.3247 N   0  0  0  0  0  0  0  0  0  0  0  0
   -2.7141   -0.5816    0.0927 H   0  0  0  0  0  0  0  0  0  0  0  0
   -0.6481   -0.1156    0.2017 C   0  0  1  0  0  0  0  0  0  0  0  0
    0.1344   -0.4988    0.8596 H   0  0  0  0  0  0  0  0  0  0  0  0
   -0.1211   -0.1520   -1.2460 C   0  0  0  0  0  0  0  0  0  0  0  0
   -0.4005    0.7667   -1.7638 H   0  0  0  0  0  0  0  0  0  0  0  0
    0.9683   -0.2074   -1.2408 H   0  0  0  0  0  0  0  0  0  0  0  0
   -0.6790   -1.3047   -2.0447 C   0  0  0  0  0  0  0  0  0  0  0  0
   -1.9714   -1.3896   -2.5643 N   0  0  0  0  0  0  0  0  0  0  0  0
   -2.0232   -2.5479   -3.2381 C   0  0  0  0  0  0  0  0  0  0  0  0
   -2.9005   -2.9180   -3.7535 H   0  0  0  0  0  0  0  0  0  0  0  0
   -0.8349   -3.1730   -3.1889 N   0  0  0  0  0  0  0  0  0  0  0  0
   -0.6163   -4.0527   -3.6363 H   0  0  0  0  0  0  0  0  0  0  0  0
    0.0281   -2.4013   -2.4430 C   0  0  0  0  0  0  0  0  0  0  0  0
    1.0699   -2.5984   -2.2238 H   0  0  0  0  0  0  0  0  0  0  0  0
   -0.9851    1.3114    0.6698 C   0  0  0  0  0  0  0  0  0  0  0  0
   -2.0377    1.8431    0.3168 O   0  0  0  0  0  0  0  0  0  0  0  0
   -0.1052    1.9265    1.4663 N   0  0  0  0  0  0  0  0  0  0  0  0
    0.7810    1.4586    1.6201 H   0  0  0  0  0  0  0  0  0  0  0  0
   -0.2724    3.2715    2.0119 C   0  0  0  0  0  0  0  0  0  0  0  0
   -1.3249    3.4549    2.2426 H   0  0  0  0  0  0  0  0  0  0  0  0
    0.3167    3.3776    2.9239 H   0  0  0  0  0  0  0  0  0  0  0  0
    0.0609    4.0073    1.2782 H   0  0  0  0  0  0  0  0  0  0  0  0
  5  6  2  0  0  0  0
  5  7  1  0  0  0  0
  2  3  1  0  0  0  0
  2  4  1  0  0  0  0
  2  5  1  0  0  0  0
  1  2  1  0  0  0  0
 22 23  2  0  0  0  0
 22 24  1  0  0  0  0
 20 21  1  0  0  0  0
 18 19  1  0  0  0  0
 18 20  1  0  0  0  0
 16 17  1  0  0  0  0
 16 18  1  0  0  0  0
 15 16  2  0  0  0  0
 14 15  1  0  0  0  0
 14 20  2  0  0  0  0
 11 12  1  0  0  0  0
 11 13  1  0  0  0  0
 11 14  1  0  0  0  0
  9 10  1  0  0  0  0
  9 11  1  0  0  0  0
  9 22  1  0  0  0  0
  7  8  1  0  0  0  0
  7  9  1  0  0  0  0
 26 27  1  0  0  0  0
 26 28  1  0  0  0  0
 26 29  1  0  0  0  0
 24 25  1  0  0  0  0
 24 26  1  0  0  0  0
M  END
$$$$
default_name
  -OEChem-02102213163D

 29 29  0     1  0  0  0  0  0999 V2000
   -2.9561   -3.9186    1.3887 H   0  0  0  0  0  0  0  0  0  0  0  0
   -3.1191   -2.9346    0.9517 C   0  0  0  0  0  0  0  0  0  0  0  0
   -3.7811   -2.3546    1.5917 H   0  0  0  0  0  0  0  0  0  0  0  0
   -3.5591   -3.0406   -0.0383 H   0  0  0  0  0  0  0  0  0  0  0  0
   -1.7921   -2.2226    0.8327 C   0  0  0  0  0  0  0  0  0  0  0  0
   -0.7611   -2.7766    1.1927 O   0  0  0  0  0  0  0  0  0  0  0  0
   -1.8201   -0.9926    0.3247 N   0  0  0  0  0  0  0  0  0  0  0  0
   -2.7141   -0.5816    0.0927 H   0  0  0  0  0  0  0  0  0  0  0  0
   -0.6481   -0.1156    0.2017 C   0  0  1  0  0  0  0  0  0  0  0  0
    0.1344   -0.4988    0.8596 H   0  0  0  0  0  0  0  0  0  0  0  0
   -0.1211   -0.1520   -1.2460 C   0  0  0  0  0  0  0  0  0  0  0  0
   -0.4005    0.7667   -1.7638 H   0  0  0  0  0  0  0  0  0  0  0  0
    0.9683   -0.2074   -1.2408 H   0  0  0  0  0  0  0  0  0  0  0  0
   -0.6790   -1.3047   -2.0447 C   0  0  0  0  0  0  0  0  0  0  0  0
   -1.8466   -1.2807   -2.8086 N   0  0  0  0  0  0  0  0  0  0  0  0
   -1.9379   -2.4896   -3.3816 C   0  0  0  0  0  0  0  0  0  0  0  0
   -2.7452   -2.7992   -4.0334 H   0  0  0  0  0  0  0  0  0  0  0  0
   -0.8856   -3.2518   -3.0396 N   0  0  0  0  0  0  0  0  0  0  0  0
   -0.7169   -4.1959   -3.3594 H   0  0  0  0  0  0  0  0  0  0  0  0
   -0.0774   -2.5194   -2.1989 C   0  0  0  0  0  0  0  0  0  0  0  0
    0.8631   -2.8223   -1.7560 H   0  0  0  0  0  0  0  0  0  0  0  0
   -0.9851    1.3114    0.6698 C   0  0  0  0  0  0  0  0  0  0  0  0
   -2.0377    1.8431    0.3168 O   0  0  0  0  0  0  0  0  0  0  0  0
   -0.1052    1.9265    1.4663 N   0  0  0  0  0  0  0  0  0  0  0  0
    0.7810    1.4586    1.6201 H   0  0  0  0  0  0  0  0  0  0  0  0
   -0.2724    3.2715    2.0119 C   0  0  0  0  0  0  0  0  0  0  0  0
   -1.3249    3.4549    2.2426 H   0  0  0  0  0  0  0  0  0  0  0  0
    0.3167    3.3776    2.9239 H   0  0  0  0  0  0  0  0  0  0  0  0
    0.0609    4.0073    1.2782 H   0  0  0  0  0  0  0  0  0  0  0  0
  5  6  2  0  0  0  0
  5  7  1  0  0  0  0
  2  3  1  0  0  0  0
  2  4  1  0  0  0  0
  2  5  1  0  0  0  0
  1  2  1  0  0  0  0
 22 23  2  0  0  0  0
 22 24  1  0  0  0  0
 20 21  1  0  0  0  0
 18 19  1  0  0  0  0
 18 20  1  0  0  0  0
 16 17  1  0  0  0  0
 16 18  1  0  0  0  0
 15 16  2  0  0  0  0
 14 15  1  0  0  0  0
 14 20  2  0  0  0  0
 11 12  1  0  0  0  0
 11 13  1  0  0  0  0
 11 14  1  0  0  0  0
  9 10  1  0  0  0  0
  9 11  1  0  0  0  0
  9 22  1  0  0  0  0
  7  8  1  0  0  0  0
  7  9  1  0  0  0  0
 26 27  1  0  0  0  0
 26 28  1  0  0  0  0
 26 29  1  0  0  0  0
 24 25  1  0  0  0  0
 24 26  1  0  0  0  0
M  END
$$$$
default_name
  -OEChem-02102213163D

 29 29  0     1  0  0  0  0  0999 V2000
   -2.9561   -3.9186    1.3887 H   0  0  0  0  0  0  0  0  0  0  0  0
   -3.1191   -2.9346    0.9517 C   0  0  0  0  0  0  0  0  0  0  0  0
   -3.7811   -2.3546    1.5917 H   0  0  0  0  0  0  0  0  0  0  0  0
   -3.5591   -3.0406   -0.0383 H   0  0  0  0  0  0  0  0  0  0  0  0
   -1.7921   -2.2226    0.8327 C   0  0  0  0  0  0  0  0  0  0  0  0
   -0.7611   -2.7766    1.1927 O   0  0  0  0  0  0  0  0  0  0  0  0
   -1.8201   -0.9926    0.3247 N   0  0  0  0  0  0  0  0  0  0  0  0
   -2.7141   -0.5816    0.0927 H   0  0  0  0  0  0  0  0  0  0  0  0
   -0.6481   -0.1156    0.2017 C   0  0  1  0  0  0  0  0  0  0  0  0
    0.1344   -0.4988    0.8596 H   0  0  0  0  0  0  0  0  0  0  0  0
   -0.1211   -0.1520   -1.2460 C   0  0  0  0  0  0  0  0  0  0  0  0
   -0.4005    0.7667   -1.7638 H   0  0  0  0  0  0  0  0  0  0  0  0
    0.9683   -0.2074   -1.2408 H   0  0  0  0  0  0  0  0  0  0  0  0
   -0.6790   -1.3047   -2.0447 C   0  0  0  0  0  0  0  0  0  0  0  0
   -1.6628   -1.2159   -3.0304 N   0  0  0  0  0  0  0  0  0  0  0  0
   -1.8192   -2.4588   -3.5090 C   0  0  0  0  0  0  0  0  0  0  0  0
   -2.5236   -2.7326   -4.2844 H   0  0  0  0  0  0  0  0  0  0  0  0
   -0.9749   -3.3068   -2.8980 N   0  0  0  0  0  0  0  0  0  0  0  0
   -0.8885   -4.2939   -3.0981 H   0  0  0  0  0  0  0  0  0  0  0  0
   -0.2437   -2.5956   -1.9727 C   0  0  0  0  0  0  0  0  0  0  0  0
    0.5401   -2.9656   -1.3237 H   0  0  0  0  0  0  0  0  0  0  0  0
   -0.9851    1.3114    0.6698 C   0  0  0  0  0  0  0  0  0  0  0  0
   -2.0377    1.8431    0.3168 O   0  0  0  0  0  0  0  0  0  0  0  0
   -0.1052    1.9265    1.4663 N   0  0  0  0  0  0  0  0  0  0  0  0
    0.7810    1.4586    1.6201 H   0  0  0  0  0  0  0  0  0  0  0  0
   -0.2724    3.2715    2.0119 C   0  0  0  0  0  0  0  0  0  0  0  0
   -1.3249    3.4549    2.2426 H   0  0  0  0  0  0  0  0  0  0  0  0
    0.3167    3.3776    2.9239 H   0  0  0  0  0  0  0  0  0  0  0  0
    0.0609    4.0073    1.2782 H   0  0  0  0  0  0  0  0  0  0  0  0
  5  6  2  0  0  0  0
  5  7  1  0  0  0  0
  2  3  1  0  0  0  0
  2  4  1  0  0  0  0
  2  5  1  0  0  0  0
  1  2  1  0  0  0  0
 22 23  2  0  0  0  0
 22 24  1  0  0  0  0
 20 21  1  0  0  0  0
 18 19  1  0  0  0  0
 18 20  1  0  0  0  0
 16 17  1  0  0  0  0
 16 18  1  0  0  0  0
 15 16  2  0  0  0  0
 14 15  1  0  0  0  0
 14 20  2  0  0  0  0
 11 12  1  0  0  0  0
 11 13  1  0  0  0  0
 11 14  1  0  0  0  0
  9 10  1  0  0  0  0
  9 11  1  0  0  0  0
  9 22  1  0  0  0  0
  7  8  1  0  0  0  0
  7  9  1  0  0  0  0
 26 27  1  0  0  0  0
 26 28  1  0  0  0  0
 26 29  1  0  0  0  0
 24 25  1  0  0  0  0
 24 26  1  0  0  0  0
M  END
$$$$
default_name
  -OEChem-02102213163D

 29 29  0     1  0  0  0  0  0999 V2000
   -2.9561   -3.9186    1.3887 H   0  0  0  0  0  0  0  0  0  0  0  0
   -3.1191   -2.9346    0.9517 C   0  0  0  0  0  0  0  0  0  0  0  0
   -3.7811   -2.3546    1.5917 H   0  0  0  0  0  0  0  0  0  0  0  0
   -3.5591   -3.0406   -0.0383 H   0  0  0  0  0  0  0  0  0  0  0  0
   -1.7921   -2.2226    0.8327 C   0  0  0  0  0  0  0  0  0  0  0  0
   -0.7611   -2.7766    1.1927 O   0  0  0  0  0  0  0  0  0  0  0  0
   -1.8201   -0.9926    0.3247 N   0  0  0  0  0  0  0  0  0  0  0  0
   -2.7141   -0.5816    0.0927 H   0  0  0  0  0  0  0  0  0  0  0  0
   -0.6481   -0.1156    0.2017 C   0  0  1  0  0  0  0  0  0  0  0  0
    0.1344   -0.4988    0.8596 H   0  0  0  0  0  0  0  0  0  0  0  0
   -0.1211   -0.1520   -1.2460 C   0  0  0  0  0  0  0  0  0  0  0  0
   -0.4005    0.7667   -1.7638 H   0  0  0  0  0  0  0  0  0  0  0  0
    0.9683   -0.2074   -1.2408 H   0  0  0  0  0  0  0  0  0  0  0  0
   -0.6790   -1.3047   -2.0447 C   0  0  0  0  0  0  0  0  0  0  0  0
   -1.4326   -1.1998   -3.2145 N   0  0  0  0  0  0  0  0  0  0  0  0
   -1.6752   -2.4575   -3.6116 C   0  0  0  0  0  0  0  0  0  0  0  0
   -2.2509   -2.7225   -4.4894 H   0  0  0  0  0  0  0  0  0  0  0  0
   -1.0967   -3.3341   -2.7735 N   0  0  0  0  0  0  0  0  0  0  0  0
   -1.1193   -4.3400   -2.8702 H   0  0  0  0  0  0  0  0  0  0  0  0
   -0.4595   -2.6249   -1.7798 C   0  0  0  0  0  0  0  0  0  0  0  0
    0.1231   -3.0183   -0.9562 H   0  0  0  0  0  0  0  0  0  0  0  0
   -0.9851    1.3114    0.6698 C   0  0  0  0  0  0  0  0  0  0  0  0
   -2.0377    1.8431    0.3168 O   0  0  0  0  0  0  0  0  0  0  0  0
   -0.1052    1.9265    1.4663 N   0  0  0  0  0  0  0  0  0  0  0  0
    0.7810    1.4586    1.6201 H   0  0  0  0  0  0  0  0  0  0  0  0
   -0.2724    3.2715    2.0119 C   0  0  0  0  0  0  0  0  0  0  0  0
   -1.3249    3.4549    2.2426 H   0  0  0  0  0  0  0  0  0  0  0  0
    0.3167    3.3776    2.9239 H   0  0  0  0  0  0  0  0  0  0  0  0
    0.0609    4.0073    1.2782 H   0  0  0  0  0  0  0  0  0  0  0  0
  5  6  2  0  0  0  0
  5  7  1  0  0  0  0
  2  3  1  0  0  0  0
  2  4  1  0  0  0  0
  2  5  1  0  0  0  0
  1  2  1  0  0  0  0
 22 23  2  0  0  0  0
 22 24  1  0  0  0  0
 20 21  1  0  0  0  0
 18 19  1  0  0  0  0
 18 20  1  0  0  0  0
 16 17  1  0  0  0  0
 16 18  1  0  0  0  0
 15 16  2  0  0  0  0
 14 15  1  0  0  0  0
 14 20  2  0  0  0  0
 11 12  1  0  0  0  0
 11 13  1  0  0  0  0
 11 14  1  0  0  0  0
  9 10  1  0  0  0  0
  9 11  1  0  0  0  0
  9 22  1  0  0  0  0
  7  8  1  0  0  0  0
  7  9  1  0  0  0  0
 26 27  1  0  0  0  0
 26 28  1  0  0  0  0
 26 29  1  0  0  0  0
 24 25  1  0  0  0  0
 24 26  1  0  0  0  0
M  END
$$$$
default_name
  -OEChem-02102213163D

 29 29  0     1  0  0  0  0  0999 V2000
   -2.9561   -3.9186    1.3887 H   0  0  0  0  0  0  0  0  0  0  0  0
   -3.1191   -2.9346    0.9517 C   0  0  0  0  0  0  0  0  0  0  0  0
   -3.7811   -2.3546    1.5917 H   0  0  0  0  0  0  0  0  0  0  0  0
   -3.5591   -3.0406   -0.0383 H   0  0  0  0  0  0  0  0  0  0  0  0
   -1.7921   -2.2226    0.8327 C   0  0  0  0  0  0  0  0  0  0  0  0
   -0.7611   -2.7766    1.1927 O   0  0  0  0  0  0  0  0  0  0  0  0
   -1.8201   -0.9926    0.3247 N   0  0  0  0  0  0  0  0  0  0  0  0
   -2.7141   -0.5816    0.0927 H   0  0  0  0  0  0  0  0  0  0  0  0
   -0.6481   -0.1156    0.2017 C   0  0  1  0  0  0  0  0  0  0  0  0
    0.1344   -0.4988    0.8596 H   0  0  0  0  0  0  0  0  0  0  0  0
   -0.1211   -0.1520   -1.2460 C   0  0  0  0  0  0  0  0  0  0  0  0
   -0.4005    0.7667   -1.7638 H   0  0  0  0  0  0  0  0  0  0  0  0
    0.9683   -0.2074   -1.2408 H   0  0  0  0  0  0  0  0  0  0  0  0
   -0.6790   -1.3047   -2.0447 C   0  0  0  0  0  0  0  0  0  0  0  0
   -1.1716   -1.2334   -3.3484 N   0  0  0  0  0  0  0  0  0  0  0  0
   -1.5156   -2.4858   -3.6822 C   0  0  0  0  0  0  0  0  0  0  0  0
   -1.9455   -2.7698   -4.6345 H   0  0  0  0  0  0  0  0  0  0  0  0
   -1.2427   -3.3318   -2.6748 N   0  0  0  0  0  0  0  0  0  0  0  0
   -1.3936   -4.3312   -2.6913 H   0  0  0  0  0  0  0  0  0  0  0  0
   -0.7100   -2.6051   -1.6333 C   0  0  0  0  0  0  0  0  0  0  0  0
   -0.3596   -2.9770   -0.6787 H   0  0  0  0  0  0  0  0  0  0  0  0
   -0.9851    1.3114    0.6698 C   0  0  0  0  0  0  0  0  0  0  0  0
   -2.0377    1.8431    0.3168 O   0  0  0  0  0  0  0  0  0  0  0  0
   -0.1052    1.9265    1.4663 N   0  0  0  0  0  0  0  0  0  0  0  0
    0.7810    1.4586    1.6201 H   0  0  0  0  0  0  0  0  0  0  0  0
   -0.2724    3.2715    2.0119 C   0  0  0  0  0  0  0  0  0  0  0  0
   -1.3249    3.4549    2.2426 H   0  0  0  0  0  0  0  0  0  0  0  0
    0.3167    3.3776    2.9239 H   0  0  0  0  0  0  0  0  0  0  0  0
    0.0609    4.0073    1.2782 H   0  0  0  0  0  0  0  0  0  0  0  0
  5  6  2  0  0  0  0
  5  7  1  0  0  0  0
  2  3  1  0  0  0  0
  2  4  1  0  0  0  0
  2  5  1  0  0  0  0
  1  2  1  0  0  0  0
 22 23  2  0  0  0  0
 22 24  1  0  0  0  0
 20 21  1  0  0  0  0
 18 19  1  0  0  0  0
 18 20  1  0  0  0  0
 16 17  1  0  0  0  0
 16 18  1  0  0  0  0
 15 16  2  0  0  0  0
 14 15  1  0  0  0  0
 14 20  2  0  0  0  0
 11 12  1  0  0  0  0
 11 13  1  0  0  0  0
 11 14  1  0  0  0  0
  9 10  1  0  0  0  0
  9 11  1  0  0  0  0
  9 22  1  0  0  0  0
  7  8  1  0  0  0  0
  7  9  1  0  0  0  0
 26 27  1  0  0  0  0
 26 28  1  0  0  0  0
 26 29  1  0  0  0  0
 24 25  1  0  0  0  0
 24 26  1  0  0  0  0
M  END
$$$$
default_name
  -OEChem-02102213163D

 29 29  0     1  0  0  0  0  0999 V2000
   -2.9561   -3.9186    1.3887 H   0  0  0  0  0  0  0  0  0  0  0  0
   -3.1191   -2.9346    0.9517 C   0  0  0  0  0  0  0  0  0  0  0  0
   -3.7811   -2.3546    1.5917 H   0  0  0  0  0  0  0  0  0  0  0  0
   -3.5591   -3.0406   -0.0383 H   0  0  0  0  0  0  0  0  0  0  0  0
   -1.7921   -2.2226    0.8327 C   0  0  0  0  0  0  0  0  0  0  0  0
   -0.7611   -2.7766    1.1927 O   0  0  0  0  0  0  0  0  0  0  0  0
   -1.8201   -0.9926    0.3247 N   0  0  0  0  0  0  0  0  0  0  0  0
   -2.7141   -0.5816    0.0927 H   0  0  0  0  0  0  0  0  0  0  0  0
   -0.6481   -0.1156    0.2017 C   0  0  1  0  0  0  0  0  0  0  0  0
    0.1344   -0.4988    0.8596 H   0  0  0  0  0  0  0  0  0  0  0  0
   -0.1211   -0.1520   -1.2460 C   0  0  0  0  0  0  0  0  0  0  0  0
   -0.4005    0.7667   -1.7638 H   0  0  0  0  0  0  0  0  0  0  0  0
    0.9683   -0.2074   -1.2408 H   0  0  0  0  0  0  0  0  0  0  0  0
   -0.6790   -1.3047   -2.0447 C   0  0  0  0  0  0  0  0  0  0  0  0
   -0.8976   -1.3144   -3.4229 N   0  0  0  0  0  0  0  0  0  0  0  0
   -1.3513   -2.5417   -3.7163 C   0  0  0  0  0  0  0  0  0  0  0  0
   -1.6283   -2.8712   -4.7097 H   0  0  0  0  0  0  0  0  0  0  0  0
   -1.4029   -3.3002   -2.6084 N   0  0  0  0  0  0  0  0  0  0  0  0
   -1.6927   -4.2680   -2.5735 H   0  0  0  0  0  0  0  0  0  0  0  0
   -0.9783   -2.5377   -1.5432 C   0  0  0  0  0  0  0  0  0  0  0  0
   -0.8750   -2.8444   -0.5099 H   0  0  0  0  0  0  0  0  0  0  0  0
   -0.9851    1.3114    0.6698 C   0  0  0  0  0  0  0  0  0  0  0  0
   -2.0377    1.8431    0.3168 O   0  0  0  0  0  0  0  0  0  0  0  0
   -0.1052    1.9265    1.4663 N   0  0  0  0  0  0  0  0  0  0  0  0
    0.7810    1.4586    1.6201 H   0  0  0  0  0  0  0  0  0  0  0  0
   -0.2724    3.2715    2.0119 C   0  0  0  0  0  0  0  0  0  0  0  0
   -1.3249    3.4549    2.2426 H   0  0  0  0  0  0  0  0  0  0  0  0
    0.3167    3.3776    2.9239 H   0  0  0  0  0  0  0  0  0  0  0  0
    0.0609    4.0073    1.2782 H   0  0  0  0  0  0  0  0  0  0  0  0
  5  6  2  0  0  0  0
  5  7  1  0  0  0  0
  2  3  1  0  0  0  0
  2  4  1  0  0  0  0
  2  5  1  0  0  0  0
  1  2  1  0  0  0  0
 22 23  2  0  0  0  0
 22 24  1  0  0  0  0
 20 21  1  0  0  0  0
 18 19  1  0  0  0  0
 18 20  1  0  0  0  0
 16 17  1  0  0  0  0
 16 18  1  0  0  0  0
 15 16  2  0  0  0  0
 14 15  1  0  0  0  0
 14 20  2  0  0  0  0
 11 12  1  0  0  0  0
 11 13  1  0  0  0  0
 11 14  1  0  0  0  0
  9 10  1  0  0  0  0
  9 11  1  0  0  0  0
  9 22  1  0  0  0  0
  7  8  1  0  0  0  0
  7  9  1  0  0  0  0
 26 27  1  0  0  0  0
 26 28  1  0  0  0  0
 26 29  1  0  0  0  0
 24 25  1  0  0  0  0
 24 26  1  0  0  0  0
M  END
$$$$
default_name
  -OEChem-02102213163D

 29 29  0     1  0  0  0  0  0999 V2000
   -2.9561   -3.9186    1.3887 H   0  0  0  0  0  0  0  0  0  0  0  0
   -3.1191   -2.9346    0.9517 C   0  0  0  0  0  0  0  0  0  0  0  0
   -3.7811   -2.3546    1.5917 H   0  0  0  0  0  0  0  0  0  0  0  0
   -3.5591   -3.0406   -0.0383 H   0  0  0  0  0  0  0  0  0  0  0  0
   -1.7921   -2.2226    0.8327 C   0  0  0  0  0  0  0  0  0  0  0  0
   -0.7611   -2.7766    1.1927 O   0  0  0  0  0  0  0  0  0  0  0  0
   -1.8201   -0.9926    0.3247 N   0  0  0  0  0  0  0  0  0  0  0  0
   -2.7141   -0.5816    0.0927 H   0  0  0  0  0  0  0  0  0  0  0  0
   -0.6481   -0.1156    0.2017 C   0  0  1  0  0  0  0  0  0  0  0  0
    0.1344   -0.4988    0.8596 H   0  0  0  0  0  0  0  0  0  0  0  0
   -0.1211   -0.1520   -1.2460 C   0  0  0  0  0  0  0  0  0  0  0  0
   -0.4005    0.7667   -1.7638 H   0  0  0  0  0  0  0  0  0  0  0  0
    0.9683   -0.2074   -1.2408 H   0  0  0  0  0  0  0  0  0  0  0  0
   -0.6790   -1.3047   -2.0447 C   0  0  0  0  0  0  0  0  0  0  0  0
   -0.6293   -1.4372   -3.4330 N   0  0  0  0  0  0  0  0  0  0  0  0
   -1.1936   -2.6215   -3.7113 C   0  0  0  0  0  0  0  0  0  0  0  0
   -1.3210   -3.0197   -4.7100 H   0  0  0  0  0  0  0  0  0  0  0  0
   -1.5664   -3.2414   -2.5791 N   0  0  0  0  0  0  0  0  0  0  0  0
   -1.9962   -4.1548   -2.5250 H   0  0  0  0  0  0  0  0  0  0  0  0
   -1.2460   -2.4272   -1.5156 C   0  0  0  0  0  0  0  0  0  0  0  0
   -1.3881   -2.6296   -0.4615 H   0  0  0  0  0  0  0  0  0  0  0  0
   -0.9851    1.3114    0.6698 C   0  0  0  0  0  0  0  0  0  0  0  0
   -2.0377    1.8431    0.3168 O   0  0  0  0  0  0  0  0  0  0  0  0
   -0.1052    1.9265    1.4663 N   0  0  0  0  0  0  0  0  0  0  0  0
    0.7810    1.4586    1.6201 H   0  0  0  0  0  0  0  0  0  0  0  0
   -0.2724    3.2715    2.0119 C   0  0  0  0  0  0  0  0  0  0  0  0
   -1.3249    3.4549    2.2426 H   0  0  0  0  0  0  0  0  0  0  0  0
    0.3167    3.3776    2.9239 H   0  0  0  0  0  0  0  0  0  0  0  0
    0.0609    4.0073    1.2782 H   0  0  0  0  0  0  0  0  0  0  0  0
  5  6  2  0  0  0  0
  5  7  1  0  0  0  0
  2  3  1  0  0  0  0
  2  4  1  0  0  0  0
  2  5  1  0  0  0  0
  1  2  1  0  0  0  0
 22 23  2  0  0  0  0
 22 24  1  0  0  0  0
 20 21  1  0  0  0  0
 18 19  1  0  0  0  0
 18 20  1  0  0  0  0
 16 17  1  0  0  0  0
 16 18  1  0  0  0  0
 15 16  2  0  0  0  0
 14 15  1  0  0  0  0
 14 20  2  0  0  0  0
 11 12  1  0  0  0  0
 11 13  1  0  0  0  0
 11 14  1  0  0  0  0
  9 10  1  0  0  0  0
  9 11  1  0  0  0  0
  9 22  1  0  0  0  0
  7  8  1  0  0  0  0
  7  9  1  0  0  0  0
 26 27  1  0  0  0  0
 26 28  1  0  0  0  0
 26 29  1  0  0  0  0
 24 25  1  0  0  0  0
 24 26  1  0  0  0  0
M  END
$$$$
default_name
  -OEChem-02102213163D

 29 29  0     1  0  0  0  0  0999 V2000
   -2.9561   -3.9186    1.3887 H   0  0  0  0  0  0  0  0  0  0  0  0
   -3.1191   -2.9346    0.9517 C   0  0  0  0  0  0  0  0  0  0  0  0
   -3.7811   -2.3546    1.5917 H   0  0  0  0  0  0  0  0  0  0  0  0
   -3.5591   -3.0406   -0.0383 H   0  0  0  0  0  0  0  0  0  0  0  0
   -1.7921   -2.2226    0.8327 C   0  0  0  0  0  0  0  0  0  0  0  0
   -0.7611   -2.7766    1.1927 O   0  0  0  0  0  0  0  0  0  0  0  0
   -1.8201   -0.9926    0.3247 N   0  0  0  0  0  0  0  0  0  0  0  0
   -2.7141   -0.5816    0.0927 H   0  0  0  0  0  0  0  0  0  0  0  0
   -0.6481   -0.1156    0.2017 C   0  0  1  0  0  0  0  0  0  0  0  0
    0.1344   -0.4988    0.8596 H   0  0  0  0  0  0  0  0  0  0  0  0
   -0.1211   -0.1520   -1.2460 C   0  0  0  0  0  0  0  0  0  0  0  0
   -0.1602    0.8489   -1.6784 H   0  0  0  0  0  0  0  0  0  0  0  0
    0.9220   -0.4712   -1.2510 H   0  0  0  0  0  0  0  0  0  0  0  0
   -0.9286   -1.0595   -2.1417 C   0  0  0  0  0  0  0  0  0  0  0  0
   -0.6909   -1.2932   -3.4968 N   0  0  0  0  0  0  0  0  0  0  0  0
   -1.6074   -2.1929   -3.8827 C   0  0  0  0  0  0  0  0  0  0  0  0
   -1.7004   -2.5792   -4.8899 H   0  0  0  0  0  0  0  0  0  0  0  0
   -2.3815   -2.5495   -2.8440 N   0  0  0  0  0  0  0  0  0  0  0  0
   -3.1306   -3.2274   -2.8767 H   0  0  0  0  0  0  0  0  0  0  0  0
   -1.9655   -1.8473   -1.7348 C   0  0  0  0  0  0  0  0  0  0  0  0
   -2.3567   -1.9105   -0.7271 H   0  0  0  0  0  0  0  0  0  0  0  0
   -0.9851    1.3114    0.6698 C   0  0  0  0  0  0  0  0  0  0  0  0
   -2.0377    1.8431    0.3168 O   0  0  0  0  0  0  0  0  0  0  0  0
   -0.1052    1.9265    1.4663 N   0  0  0  0  0  0  0  0  0  0  0  0
    0.7810    1.4586    1.6201 H   0  0  0  0  0  0  0  0  0  0  0  0
   -0.2724    3.2715    2.0119 C   0  0  0  0  0  0  0  0  0  0  0  0
   -1.3249    3.4549    2.2426 H   0  0  0  0  0  0  0  0  0  0  0  0
    0.3167    3.3776    2.9239 H   0  0  0  0  0  0  0  0  0  0  0  0
    0.0609    4.0073    1.2782 H   0  0  0  0  0  0  0  0  0  0  0  0
  5  6  2  0  0  0  0
  5  7  1  0  0  0  0
  2  3  1  0  0  0  0
  2  4  1  0  0  0  0
  2  5  1  0  0  0  0
  1  2  1  0  0  0  0
 22 23  2  0  0  0  0
 22 24  1  0  0  0  0
 20 21  1  0  0  0  0
 18 19  1  0  0  0  0
 18 20  1  0  0  0  0
 16 17  1  0  0  0  0
 16 18  1  0  0  0  0
 15 16  2  0  0  0  0
 14 15  1  0  0  0  0
 14 20  2  0  0  0  0
 11 12  1  0  0  0  0
 11 13  1  0  0  0  0
 11 14  1  0  0  0  0
  9 10  1  0  0  0  0
  9 11  1  0  0  0  0
  9 22  1  0  0  0  0
  7  8  1  0  0  0  0
  7  9  1  0  0  0  0
 26 27  1  0  0  0  0
 26 28  1  0  0  0  0
 26 29  1  0  0  0  0
 24 25  1  0  0  0  0
 24 26  1  0  0  0  0
M  END
$$$$
default_name
  -OEChem-02102213163D

 29 29  0     1  0  0  0  0  0999 V2000
   -2.9561   -3.9186    1.3887 H   0  0  0  0  0  0  0  0  0  0  0  0
   -3.1191   -2.9346    0.9517 C   0  0  0  0  0  0  0  0  0  0  0  0
   -3.7811   -2.3546    1.5917 H   0  0  0  0  0  0  0  0  0  0  0  0
   -3.5591   -3.0406   -0.0383 H   0  0  0  0  0  0  0  0  0  0  0  0
   -1.7921   -2.2226    0.8327 C   0  0  0  0  0  0  0  0  0  0  0  0
   -0.7611   -2.7766    1.1927 O   0  0  0  0  0  0  0  0  0  0  0  0
   -1.8201   -0.9926    0.3247 N   0  0  0  0  0  0  0  0  0  0  0  0
   -2.7141   -0.5816    0.0927 H   0  0  0  0  0  0  0  0  0  0  0  0
   -0.6481   -0.1156    0.2017 C   0  0  1  0  0  0  0  0  0  0  0  0
    0.1344   -0.4988    0.8596 H   0  0  0  0  0  0  0  0  0  0  0  0
   -0.1211   -0.1520   -1.2460 C   0  0  0  0  0  0  0  0  0  0  0  0
   -0.1602    0.8489   -1.6784 H   0  0  0  0  0  0  0  0  0  0  0  0
    0.9220   -0.4712   -1.2510 H   0  0  0  0  0  0  0  0  0  0  0  0
   -0.9286   -1.0595   -2.1417 C   0  0  0  0  0  0  0  0  0  0  0  0
   -0.5389   -1.5261   -3.3978 N   0  0  0  0  0  0  0  0  0  0  0  0
   -1.5252   -2.3336   -3.8141 C   0  0  0  0  0  0  0  0  0  0  0  0
   -1.5337   -2.8500   -4.7658 H   0  0  0  0  0  0  0  0  0  0  0  0
   -2.4896   -2.4156   -2.8821 N   0  0  0  0  0  0  0  0  0  0  0  0
   -3.3273   -2.9769   -2.9532 H   0  0  0  0  0  0  0  0  0  0  0  0
   -2.1288   -1.6210   -1.8168 C   0  0  0  0  0  0  0  0  0  0  0  0
   -2.6668   -1.4752   -0.8886 H   0  0  0  0  0  0  0  0  0  0  0  0
   -0.9851    1.3114    0.6698 C   0  0  0  0  0  0  0  0  0  0  0  0
   -2.0377    1.8431    0.3168 O   0  0  0  0  0  0  0  0  0  0  0  0
   -0.1052    1.9265    1.4663 N   0  0  0  0  0  0  0  0  0  0  0  0
    0.7810    1.4586    1.6201 H   0  0  0  0  0  0  0  0  0  0  0  0
   -0.2724    3.2715    2.0119 C   0  0  0  0  0  0  0  0  0  0  0  0
   -1.3249    3.4549    2.2426 H   0  0  0  0  0  0  0  0  0  0  0  0
    0.3167    3.3776    2.9239 H   0  0  0  0  0  0  0  0  0  0  0  0
    0.0609    4.0073    1.2782 H   0  0  0  0  0  0  0  0  0  0  0  0
  5  6  2  0  0  0  0
  5  7  1  0  0  0  0
  2  3  1  0  0  0  0
  2  4  1  0  0  0  0
  2  5  1  0  0  0  0
  1  2  1  0  0  0  0
 22 23  2  0  0  0  0
 22 24  1  0  0  0  0
 20 21  1  0  0  0  0
 18 19  1  0  0  0  0
 18 20  1  0  0  0  0
 16 17  1  0  0  0  0
 16 18  1  0  0  0  0
 15 16  2  0  0  0  0
 14 15  1  0  0  0  0
 14 20  2  0  0  0  0
 11 12  1  0  0  0  0
 11 13  1  0  0  0  0
 11 14  1  0  0  0  0
  9 10  1  0  0  0  0
  9 11  1  0  0  0  0
  9 22  1  0  0  0  0
  7  8  1  0  0  0  0
  7  9  1  0  0  0  0
 26 27  1  0  0  0  0
 26 28  1  0  0  0  0
 26 29  1  0  0  0  0
 24 25  1  0  0  0  0
 24 26  1  0  0  0  0
M  END
$$$$
default_name
  -OEChem-02102213163D

 29 29  0     1  0  0  0  0  0999 V2000
   -2.9561   -3.9186    1.3887 H   0  0  0  0  0  0  0  0  0  0  0  0
   -3.1191   -2.9346    0.9517 C   0  0  0  0  0  0  0  0  0  0  0  0
   -3.7811   -2.3546    1.5917 H   0  0  0  0  0  0  0  0  0  0  0  0
   -3.5591   -3.0406   -0.0383 H   0  0  0  0  0  0  0  0  0  0  0  0
   -1.7921   -2.2226    0.8327 C   0  0  0  0  0  0  0  0  0  0  0  0
   -0.7611   -2.7766    1.1927 O   0  0  0  0  0  0  0  0  0  0  0  0
   -1.8201   -0.9926    0.3247 N   0  0  0  0  0  0  0  0  0  0  0  0
   -2.7141   -0.5816    0.0927 H   0  0  0  0  0  0  0  0  0  0  0  0
   -0.6481   -0.1156    0.2017 C   0  0  1  0  0  0  0  0  0  0  0  0
    0.1344   -0.4988    0.8596 H   0  0  0  0  0  0  0  0  0  0  0  0
   -0.1211   -0.1520   -1.2460 C   0  0  0  0  0  0  0  0  0  0  0  0
   -0.1602    0.8489   -1.6784 H   0  0  0  0  0  0  0  0  0  0  0  0
    0.9220   -0.4712   -1.2510 H   0  0  0  0  0  0  0  0  0  0  0  0
   -0.9286   -1.0595   -2.1417 C   0  0  0  0  0  0  0  0  0  0  0  0
   -0.4432   -1.7608   -3.2463 N   0  0  0  0  0  0  0  0  0  0  0  0
   -1.4782   -2.4727   -3.7156 C   0  0  0  0  0  0  0  0  0  0  0  0
   -1.4336   -3.1200   -4.5824 H   0  0  0  0  0  0  0  0  0  0  0  0
   -2.5676   -2.2750   -2.9544 N   0  0  0  0  0  0  0  0  0  0  0  0
   -3.4670   -2.7153   -3.0923 H   0  0  0  0  0  0  0  0  0  0  0  0
   -2.2390   -1.3886   -1.9529 C   0  0  0  0  0  0  0  0  0  0  0  0
   -2.8744   -1.0295   -1.1531 H   0  0  0  0  0  0  0  0  0  0  0  0
   -0.9851    1.3114    0.6698 C   0  0  0  0  0  0  0  0  0  0  0  0
   -2.0377    1.8431    0.3168 O   0  0  0  0  0  0  0  0  0  0  0  0
   -0.1052    1.9265    1.4663 N   0  0  0  0  0  0  0  0  0  0  0  0
    0.7810    1.4586    1.6201 H   0  0  0  0  0  0  0  0  0  0  0  0
   -0.2724    3.2715    2.0119 C   0  0  0  0  0  0  0  0  0  0  0  0
   -1.3249    3.4549    2.2426 H   0  0  0  0  0  0  0  0  0  0  0  0
    0.3167    3.3776    2.9239 H   0  0  0  0  0  0  0  0  0  0  0  0
    0.0609    4.0073    1.2782 H   0  0  0  0  0  0  0  0  0  0  0  0
  5  6  2  0  0  0  0
  5  7  1  0  0  0  0
  2  3  1  0  0  0  0
  2  4  1  0  0  0  0
  2  5  1  0  0  0  0
  1  2  1  0  0  0  0
 22 23  2  0  0  0  0
 22 24  1  0  0  0  0
 20 21  1  0  0  0  0
 18 19  1  0  0  0  0
 18 20  1  0  0  0  0
 16 17  1  0  0  0  0
 16 18  1  0  0  0  0
 15 16  2  0  0  0  0
 14 15  1  0  0  0  0
 14 20  2  0  0  0  0
 11 12  1  0  0  0  0
 11 13  1  0  0  0  0
 11 14  1  0  0  0  0
  9 10  1  0  0  0  0
  9 11  1  0  0  0  0
  9 22  1  0  0  0  0
  7  8  1  0  0  0  0
  7  9  1  0  0  0  0
 26 27  1  0  0  0  0
 26 28  1  0  0  0  0
 26 29  1  0  0  0  0
 24 25  1  0  0  0  0
 24 26  1  0  0  0  0
M  END
$$$$
default_name
  -OEChem-02102213163D

 29 29  0     1  0  0  0  0  0999 V2000
   -2.9561   -3.9186    1.3887 H   0  0  0  0  0  0  0  0  0  0  0  0
   -3.1191   -2.9346    0.9517 C   0  0  0  0  0  0  0  0  0  0  0  0
   -3.7811   -2.3546    1.5917 H   0  0  0  0  0  0  0  0  0  0  0  0
   -3.5591   -3.0406   -0.0383 H   0  0  0  0  0  0  0  0  0  0  0  0
   -1.7921   -2.2226    0.8327 C   0  0  0  0  0  0  0  0  0  0  0  0
   -0.7611   -2.7766    1.1927 O   0  0  0  0  0  0  0  0  0  0  0  0
   -1.8201   -0.9926    0.3247 N   0  0  0  0  0  0  0  0  0  0  0  0
   -2.7141   -0.5816    0.0927 H   0  0  0  0  0  0  0  0  0  0  0  0
   -0.6481   -0.1156    0.2017 C   0  0  1  0  0  0  0  0  0  0  0  0
    0.1344   -0.4988    0.8596 H   0  0  0  0  0  0  0  0  0  0  0  0
   -0.1211   -0.1520   -1.2460 C   0  0  0  0  0  0  0  0  0  0  0  0
   -0.1602    0.8489   -1.6784 H   0  0  0  0  0  0  0  0  0  0  0  0
    0.9220   -0.4712   -1.2510 H   0  0  0  0  0  0  0  0  0  0  0  0
   -0.9286   -1.0595   -2.1417 C   0  0  0  0  0  0  0  0  0  0  0  0
   -0.4105   -1.9811   -3.0525 N   0  0  0  0  0  0  0  0  0  0  0  0
   -1.4695   -2.6007   -3.5938 C   0  0  0  0  0  0  0  0  0  0  0  0
   -1.4069   -3.3708   -4.3523 H   0  0  0  0  0  0  0  0  0  0  0  0
   -2.6100   -2.1372   -3.0557 N   0  0  0  0  0  0  0  0  0  0  0  0
   -3.5400   -2.4604   -3.2847 H   0  0  0  0  0  0  0  0  0  0  0  0
   -2.2887   -1.1661   -2.1336 C   0  0  0  0  0  0  0  0  0  0  0  0
   -2.9653   -0.6037   -1.5026 H   0  0  0  0  0  0  0  0  0  0  0  0
   -0.9851    1.3114    0.6698 C   0  0  0  0  0  0  0  0  0  0  0  0
   -2.0377    1.8431    0.3168 O   0  0  0  0  0  0  0  0  0  0  0  0
   -0.1052    1.9265    1.4663 N   0  0  0  0  0  0  0  0  0  0  0  0
    0.7810    1.4586    1.6201 H   0  0  0  0  0  0  0  0  0  0  0  0
   -0.2724    3.2715    2.0119 C   0  0  0  0  0  0  0  0  0  0  0  0
   -1.3249    3.4549    2.2426 H   0  0  0  0  0  0  0  0  0  0  0  0
    0.3167    3.3776    2.9239 H   0  0  0  0  0  0  0  0  0  0  0  0
    0.0609    4.0073    1.2782 H   0  0  0  0  0  0  0  0  0  0  0  0
  5  6  2  0  0  0  0
  5  7  1  0  0  0  0
  2  3  1  0  0  0  0
  2  4  1  0  0  0  0
  2  5  1  0  0  0  0
  1  2  1  0  0  0  0
 22 23  2  0  0  0  0
 22 24  1  0  0  0  0
 20 21  1  0  0  0  0
 18 19  1  0  0  0  0
 18 20  1  0  0  0  0
 16 17  1  0  0  0  0
 16 18  1  0  0  0  0
 15 16  2  0  0  0  0
 14 15  1  0  0  0  0
 14 20  2  0  0  0  0
 11 12  1  0  0  0  0
 11 13  1  0  0  0  0
 11 14  1  0  0  0  0
  9 10  1  0  0  0  0
  9 11  1  0  0  0  0
  9 22  1  0  0  0  0
  7  8  1  0  0  0  0
  7  9  1  0  0  0  0
 26 27  1  0  0  0  0
 26 28  1  0  0  0  0
 26 29  1  0  0  0  0
 24 25  1  0  0  0  0
 24 26  1  0  0  0  0
M  END
$$$$
default_name
  -OEChem-02102213163D

 29 29  0     1  0  0  0  0  0999 V2000
   -2.9561   -3.9186    1.3887 H   0  0  0  0  0  0  0  0  0  0  0  0
   -3.1191   -2.9346    0.9517 C   0  0  0  0  0  0  0  0  0  0  0  0
   -3.7811   -2.3546    1.5917 H   0  0  0  0  0  0  0  0  0  0  0  0
   -3.5591   -3.0406   -0.0383 H   0  0  0  0  0  0  0  0  0  0  0  0
   -1.7921   -2.2226    0.8327 C   0  0  0  0  0  0  0  0  0  0  0  0
   -0.7611   -2.7766    1.1927 O   0  0  0  0  0  0  0  0  0  0  0  0
   -1.8201   -0.9926    0.3247 N   0  0  0  0  0  0  0  0  0  0  0  0
   -2.7141   -0.5816    0.0927 H   0  0  0  0  0  0  0  0  0  0  0  0
   -0.6481   -0.1156    0.2017 C   0  0  1  0  0  0  0  0  0  0  0  0
    0.1344   -0.4988    0.8596 H   0  0  0  0  0  0  0  0  0  0  0  0
   -0.1211   -0.1520   -1.2460 C   0  0  0  0  0  0  0  0  0  0  0  0
   -0.1602    0.8489   -1.6784 H   0  0  0  0  0  0  0  0  0  0  0  0
    0.9220   -0.4712   -1.2510 H   0  0  0  0  0  0  0  0  0  0  0  0
   -0.9286   -1.0595   -2.1417 C   0  0  0  0  0  0  0  0  0  0  0  0
   -0.4428   -2.1722   -2.8298 N   0  0  0  0  0  0  0  0  0  0  0  0
   -1.4996   -2.7087   -3.4572 C   0  0  0  0  0  0  0  0  0  0  0  0
   -1.4555   -3.5852   -4.0912 H   0  0  0  0  0  0  0  0  0  0  0  0
   -2.6141   -2.0116   -3.1793 N   0  0  0  0  0  0  0  0  0  0  0  0
   -3.5415   -2.2296   -3.5172 H   0  0  0  0  0  0  0  0  0  0  0  0
   -2.2743   -0.9686   -2.3467 C   0  0  0  0  0  0  0  0  0  0  0  0
   -2.9333   -0.2268   -1.9133 H   0  0  0  0  0  0  0  0  0  0  0  0
   -0.9851    1.3114    0.6698 C   0  0  0  0  0  0  0  0  0  0  0  0
   -2.0377    1.8431    0.3168 O   0  0  0  0  0  0  0  0  0  0  0  0
   -0.1052    1.9265    1.4663 N   0  0  0  0  0  0  0  0  0  0  0  0
    0.7810    1.4586    1.6201 H   0  0  0  0  0  0  0  0  0  0  0  0
   -0.2724    3.2715    2.0119 C   0  0  0  0  0  0  0  0  0  0  0  0
   -1.3249    3.4549    2.2426 H   0  0  0  0  0  0  0  0  0  0  0  0
    0.3167    3.3776    2.9239 H   0  0  0  0  0  0  0  0  0  0  0  0
    0.0609    4.0073    1.2782 H   0  0  0  0  0  0  0  0  0  0  0  0
  5  6  2  0  0  0  0
  5  7  1  0  0  0  0
  2  3  1  0  0  0  0
  2  4  1  0  0  0  0
  2  5  1  0  0  0  0
  1  2  1  0  0  0  0
 22 23  2  0  0  0  0
 22 24  1  0  0  0  0
 20 21  1  0  0  0  0
 18 19  1  0  0  0  0
 18 20  1  0  0  0  0
 16 17  1  0  0  0  0
 16 18  1  0  0  0  0
 15 16  2  0  0  0  0
 14 15  1  0  0  0  0
 14 20  2  0  0  0  0
 11 12  1  0  0  0  0
 11 13  1  0  0  0  0
 11 14  1  0  0  0  0
  9 10  1  0  0  0  0
  9 11  1  0  0  0  0
  9 22  1  0  0  0  0
  7  8  1  0  0  0  0
  7  9  1  0  0  0  0
 26 27  1  0  0  0  0
 26 28  1  0  0  0  0
 26 29  1  0  0  0  0
 24 25  1  0  0  0  0
 24 26  1  0  0  0  0
M  END
$$$$
default_name
  -OEChem-02102213163D

 29 29  0     1  0  0  0  0  0999 V2000
   -2.9561   -3.9186    1.3887 H   0  0  0  0  0  0  0  0  0  0  0  0
   -3.1191   -2.9346    0.9517 C   0  0  0  0  0  0  0  0  0  0  0  0
   -3.7811   -2.3546    1.5917 H   0  0  0  0  0  0  0  0  0  0  0  0
   -3.5591   -3.0406   -0.0383 H   0  0  0  0  0  0  0  0  0  0  0  0
   -1.7921   -2.2226    0.8327 C   0  0  0  0  0  0  0  0  0  0  0  0
   -0.7611   -2.7766    1.1927 O   0  0  0  0  0  0  0  0  0  0  0  0
   -1.8201   -0.9926    0.3247 N   0  0  0  0  0  0  0  0  0  0  0  0
   -2.7141   -0.5816    0.0927 H   0  0  0  0  0  0  0  0  0  0  0  0
   -0.6481   -0.1156    0.2017 C   0  0  1  0  0  0  0  0  0  0  0  0
    0.1344   -0.4988    0.8596 H   0  0  0  0  0  0  0  0  0  0  0  0
   -0.1211   -0.1520   -1.2460 C   0  0  0  0  0  0  0  0  0  0  0  0
   -0.1602    0.8489   -1.6784 H   0  0  0  0  0  0  0  0  0  0  0  0
    0.9220   -0.4712   -1.2510 H   0  0  0  0  0  0  0  0  0  0  0  0
   -0.9286   -1.0595   -2.1417 C   0  0  0  0  0  0  0  0  0  0  0  0
   -0.5381   -2.3209   -2.5932 N   0  0  0  0  0  0  0  0  0  0  0  0
   -1.5666   -2.7895   -3.3149 C   0  0  0  0  0  0  0  0  0  0  0  0
   -1.5760   -3.7488   -3.8169 H   0  0  0  0  0  0  0  0  0  0  0  0
   -2.5795   -1.9067   -3.3167 N   0  0  0  0  0  0  0  0  0  0  0  0
   -3.4713   -2.0386   -3.7740 H   0  0  0  0  0  0  0  0  0  0  0  0
   -2.1969   -0.8095   -2.5777 C   0  0  0  0  0  0  0  0  0  0  0  0
   -2.7806    0.0754   -2.3572 H   0  0  0  0  0  0  0  0  0  0  0  0
   -0.9851    1.3114    0.6698 C   0  0  0  0  0  0  0  0  0  0  0  0
   -2.0377    1.8431    0.3168 O   0  0  0  0  0  0  0  0  0  0  0  0
   -0.1052    1.9265    1.4663 N   0  0  0  0  0  0  0  0  0  0  0  0
    0.7810    1.4586    1.6201 H   0  0  0  0  0  0  0  0  0  0  0  0
   -0.2724    3.2715    2.0119 C   0  0  0  0  0  0  0  0  0  0  0  0
   -1.3249    3.4549    2.2426 H   0  0  0  0  0  0  0  0  0  0  0  0
    0.3167    3.3776    2.9239 H   0  0  0  0  0  0  0  0  0  0  0  0
    0.0609    4.0073    1.2782 H   0  0  0  0  0  0  0  0  0  0  0  0
  5  6  2  0  0  0  0
  5  7  1  0  0  0  0
  2  3  1  0  0  0  0
  2  4  1  0  0  0  0
  2  5  1  0  0  0  0
  1  2  1  0  0  0  0
 22 23  2  0  0  0  0
 22 24  1  0  0  0  0
 20 21  1  0  0  0  0
 18 19  1  0  0  0  0
 18 20  1  0  0  0  0
 16 17  1  0  0  0  0
 16 18  1  0  0  0  0
 15 16  2  0  0  0  0
 14 15  1  0  0  0  0
 14 20  2  0  0  0  0
 11 12  1  0  0  0  0
 11 13  1  0  0  0  0
 11 14  1  0  0  0  0
  9 10  1  0  0  0  0
  9 11  1  0  0  0  0
  9 22  1  0  0  0  0
  7  8  1  0  0  0  0
  7  9  1  0  0  0  0
 26 27  1  0  0  0  0
 26 28  1  0  0  0  0
 26 29  1  0  0  0  0
 24 25  1  0  0  0  0
 24 26  1  0  0  0  0
M  END
$$$$
default_name
  -OEChem-02102213163D

 29 29  0     1  0  0  0  0  0999 V2000
   -2.9561   -3.9186    1.3887 H   0  0  0  0  0  0  0  0  0  0  0  0
   -3.1191   -2.9346    0.9517 C   0  0  0  0  0  0  0  0  0  0  0  0
   -3.7811   -2.3546    1.5917 H   0  0  0  0  0  0  0  0  0  0  0  0
   -3.5591   -3.0406   -0.0383 H   0  0  0  0  0  0  0  0  0  0  0  0
   -1.7921   -2.2226    0.8327 C   0  0  0  0  0  0  0  0  0  0  0  0
   -0.7611   -2.7766    1.1927 O   0  0  0  0  0  0  0  0  0  0  0  0
   -1.8201   -0.9926    0.3247 N   0  0  0  0  0  0  0  0  0  0  0  0
   -2.7141   -0.5816    0.0927 H   0  0  0  0  0  0  0  0  0  0  0  0
   -0.6481   -0.1156    0.2017 C   0  0  1  0  0  0  0  0  0  0  0  0
    0.1344   -0.4988    0.8596 H   0  0  0  0  0  0  0  0  0  0  0  0
   -0.1211   -0.1520   -1.2460 C   0  0  0  0  0  0  0  0  0  0  0  0
   -0.1602    0.8489   -1.6784 H   0  0  0  0  0  0  0  0  0  0  0  0
    0.9220   -0.4712   -1.2510 H   0  0  0  0  0  0  0  0  0  0  0  0
   -0.9286   -1.0595   -2.1417 C   0  0  0  0  0  0  0  0  0  0  0  0
   -0.6898   -2.4172   -2.3589 N   0  0  0  0  0  0  0  0  0  0  0  0
   -1.6659   -2.8376   -3.1767 C   0  0  0  0  0  0  0  0  0  0  0  0
   -1.7602   -3.8503   -3.5480 H   0  0  0  0  0  0  0  0  0  0  0  0
   -2.5086   -1.8298   -3.4585 N   0  0  0  0  0  0  0  0  0  0  0  0
   -3.3342   -1.9005   -4.0376 H   0  0  0  0  0  0  0  0  0  0  0  0
   -2.0618   -0.6997   -2.8107 C   0  0  0  0  0  0  0  0  0  0  0  0
   -2.5176    0.2824   -2.8040 H   0  0  0  0  0  0  0  0  0  0  0  0
   -0.9851    1.3114    0.6698 C   0  0  0  0  0  0  0  0  0  0  0  0
   -2.0377    1.8431    0.3168 O   0  0  0  0  0  0  0  0  0  0  0  0
   -0.1052    1.9265    1.4663 N   0  0  0  0  0  0  0  0  0  0  0  0
    0.7810    1.4586    1.6201 H   0  0  0  0  0  0  0  0  0  0  0  0
   -0.2724    3.2715    2.0119 C   0  0  0  0  0  0  0  0  0  0  0  0
   -1.3249    3.4549    2.2426 H   0  0  0  0  0  0  0  0  0  0  0  0
    0.3167    3.3776    2.9239 H   0  0  0  0  0  0  0  0  0  0  0  0
    0.0609    4.0073    1.2782 H   0  0  0  0  0  0  0  0  0  0  0  0
  5  6  2  0  0  0  0
  5  7  1  0  0  0  0
  2  3  1  0  0  0  0
  2  4  1  0  0  0  0
  2  5  1  0  0  0  0
  1  2  1  0  0  0  0
 22 23  2  0  0  0  0
 22 24  1  0  0  0  0
 20 21  1  0  0  0  0
 18 19  1  0  0  0  0
 18 20  1  0  0  0  0
 16 17  1  0  0  0  0
 16 18  1  0  0  0  0
 15 16  2  0  0  0  0
 14 15  1  0  0  0  0
 14 20  2  0  0  0  0
 11 12  1  0  0  0  0
 11 13  1  0  0  0  0
 11 14  1  0  0  0  0
  9 10  1  0  0  0  0
  9 11  1  0  0  0  0
  9 22  1  0  0  0  0
  7  8  1  0  0  0  0
  7  9  1  0  0  0  0
 26 27  1  0  0  0  0
 26 28  1  0  0  0  0
 26 29  1  0  0  0  0
 24 25  1  0  0  0  0
 24 26  1  0  0  0  0
M  END
$$$$
default_name
  -OEChem-02102213163D

 29 29  0     1  0  0  0  0  0999 V2000
   -2.9561   -3.9186    1.3887 H   0  0  0  0  0  0  0  0  0  0  0  0
   -3.1191   -2.9346    0.9517 C   0  0  0  0  0  0  0  0  0  0  0  0
   -3.7811   -2.3546    1.5917 H   0  0  0  0  0  0  0  0  0  0  0  0
   -3.5591   -3.0406   -0.0383 H   0  0  0  0  0  0  0  0  0  0  0  0
   -1.7921   -2.2226    0.8327 C   0  0  0  0  0  0  0  0  0  0  0  0
   -0.7611   -2.7766    1.1927 O   0  0  0  0  0  0  0  0  0  0  0  0
   -1.8201   -0.9926    0.3247 N   0  0  0  0  0  0  0  0  0  0  0  0
   -2.7141   -0.5816    0.0927 H   0  0  0  0  0  0  0  0  0  0  0  0
   -0.6481   -0.1156    0.2017 C   0  0  1  0  0  0  0  0  0  0  0  0
    0.1344   -0.4988    0.8596 H   0  0  0  0  0  0  0  0  0  0  0  0
   -0.1211   -0.1520   -1.2460 C   0  0  0  0  0  0  0  0  0  0  0  0
   -0.1602    0.8489   -1.6784 H   0  0  0  0  0  0  0  0  0  0  0  0
    0.9220   -0.4712   -1.2510 H   0  0  0  0  0  0  0  0  0  0  0  0
   -0.9286   -1.0595   -2.1417 C   0  0  0  0  0  0  0  0  0  0  0  0
   -0.8875   -2.4544   -2.1429 N   0  0  0  0  0  0  0  0  0  0  0  0
   -1.7907   -2.8497   -3.0519 C   0  0  0  0  0  0  0  0  0  0  0  0
   -1.9956   -3.8828   -3.3029 H   0  0  0  0  0  0  0  0  0  0  0  0
   -2.4063   -1.7860   -3.5952 N   0  0  0  0  0  0  0  0  0  0  0  0
   -3.1395   -1.8247   -4.2899 H   0  0  0  0  0  0  0  0  0  0  0  0
   -1.8781   -0.6466   -3.0300 C   0  0  0  0  0  0  0  0  0  0  0  0
   -2.1622    0.3801   -3.2234 H   0  0  0  0  0  0  0  0  0  0  0  0
   -0.9851    1.3114    0.6698 C   0  0  0  0  0  0  0  0  0  0  0  0
   -2.0377    1.8431    0.3168 O   0  0  0  0  0  0  0  0  0  0  0  0
   -0.1052    1.9265    1.4663 N   0  0  0  0  0  0  0  0  0  0  0  0
    0.7810    1.4586    1.6201 H   0  0  0  0  0  0  0  0  0  0  0  0
   -0.2724    3.2715    2.0119 C   0  0  0  0  0  0  0  0  0  0  0  0
   -1.3249    3.4549    2.2426 H   0  0  0  0  0  0  0  0  0  0  0  0
    0.3167    3.3776    2.9239 H   0  0  0  0  0  0  0  0  0  0  0  0
    0.0609    4.0073    1.2782 H   0  0  0  0  0  0  0  0  0  0  0  0
  5  6  2  0  0  0  0
  5  7  1  0  0  0  0
  2  3  1  0  0  0  0
  2  4  1  0  0  0  0
  2  5  1  0  0  0  0
  1  2  1  0  0  0  0
 22 23  2  0  0  0  0
 22 24  1  0  0  0  0
 20 21  1  0  0  0  0
 18 19  1  0  0  0  0
 18 20  1  0  0  0  0
 16 17  1  0  0  0  0
 16 18  1  0  0  0  0
 15 16  2  0  0  0  0
 14 15  1  0  0  0  0
 14 20  2  0  0  0  0
 11 12  1  0  0  0  0
 11 13  1  0  0  0  0
 11 14  1  0  0  0  0
  9 10  1  0  0  0  0
  9 11  1  0  0  0  0
  9 22  1  0  0  0  0
  7  8  1  0  0  0  0
  7  9  1  0  0  0  0
 26 27  1  0  0  0  0
 26 28  1  0  0  0  0
 26 29  1  0  0  0  0
 24 25  1  0  0  0  0
 24 26  1  0  0  0  0
M  END
$$$$
default_name
  -OEChem-02102213163D

 29 29  0     1  0  0  0  0  0999 V2000
   -2.9561   -3.9186    1.3887 H   0  0  0  0  0  0  0  0  0  0  0  0
   -3.1191   -2.9346    0.9517 C   0  0  0  0  0  0  0  0  0  0  0  0
   -3.7811   -2.3546    1.5917 H   0  0  0  0  0  0  0  0  0  0  0  0
   -3.5591   -3.0406   -0.0383 H   0  0  0  0  0  0  0  0  0  0  0  0
   -1.7921   -2.2226    0.8327 C   0  0  0  0  0  0  0  0  0  0  0  0
   -0.7611   -2.7766    1.1927 O   0  0  0  0  0  0  0  0  0  0  0  0
   -1.8201   -0.9926    0.3247 N   0  0  0  0  0  0  0  0  0  0  0  0
   -2.7141   -0.5816    0.0927 H   0  0  0  0  0  0  0  0  0  0  0  0
   -0.6481   -0.1156    0.2017 C   0  0  1  0  0  0  0  0  0  0  0  0
    0.1344   -0.4988    0.8596 H   0  0  0  0  0  0  0  0  0  0  0  0
   -0.1211   -0.1520   -1.2460 C   0  0  0  0  0  0  0  0  0  0  0  0
   -0.1602    0.8489   -1.6784 H   0  0  0  0  0  0  0  0  0  0  0  0
    0.9220   -0.4712   -1.2510 H   0  0  0  0  0  0  0  0  0  0  0  0
   -0.9286   -1.0595   -2.1417 C   0  0  0  0  0  0  0  0  0  0  0  0
   -1.1179   -2.4301   -1.9598 N   0  0  0  0  0  0  0  0  0  0  0  0
   -1.9325   -2.8249   -2.9492 C   0  0  0  0  0  0  0  0  0  0  0  0
   -2.2661   -3.8441   -3.0982 H   0  0  0  0  0  0  0  0  0  0  0  0
   -2.2794   -1.7784   -3.7173 N   0  0  0  0  0  0  0  0  0  0  0  0
   -2.9006   -1.8162   -4.5139 H   0  0  0  0  0  0  0  0  0  0  0  0
   -1.6584   -0.6540   -3.2206 C   0  0  0  0  0  0  0  0  0  0  0  0
   -1.7386    0.3618   -3.5867 H   0  0  0  0  0  0  0  0  0  0  0  0
   -0.9851    1.3114    0.6698 C   0  0  0  0  0  0  0  0  0  0  0  0
   -2.0377    1.8431    0.3168 O   0  0  0  0  0  0  0  0  0  0  0  0
   -0.1052    1.9265    1.4663 N   0  0  0  0  0  0  0  0  0  0  0  0
    0.7810    1.4586    1.6201 H   0  0  0  0  0  0  0  0  0  0  0  0
   -0.2724    3.2715    2.0119 C   0  0  0  0  0  0  0  0  0  0  0  0
   -1.3249    3.4549    2.2426 H   0  0  0  0  0  0  0  0  0  0  0  0
    0.3167    3.3776    2.9239 H   0  0  0  0  0  0  0  0  0  0  0  0
    0.0609    4.0073    1.2782 H   0  0  0  0  0  0  0  0  0  0  0  0
  5  6  2  0  0  0  0
  5  7  1  0  0  0  0
  2  3  1  0  0  0  0
  2  4  1  0  0  0  0
  2  5  1  0  0  0  0
  1  2  1  0  0  0  0
 22 23  2  0  0  0  0
 22 24  1  0  0  0  0
 20 21  1  0  0  0  0
 18 19  1  0  0  0  0
 18 20  1  0  0  0  0
 16 17  1  0  0  0  0
 16 18  1  0  0  0  0
 15 16  2  0  0  0  0
 14 15  1  0  0  0  0
 14 20  2  0  0  0  0
 11 12  1  0  0  0  0
 11 13  1  0  0  0  0
 11 14  1  0  0  0  0
  9 10  1  0  0  0  0
  9 11  1  0  0  0  0
  9 22  1  0  0  0  0
  7  8  1  0  0  0  0
  7  9  1  0  0  0  0
 26 27  1  0  0  0  0
 26 28  1  0  0  0  0
 26 29  1  0  0  0  0
 24 25  1  0  0  0  0
 24 26  1  0  0  0  0
M  END
$$$$
default_name
  -OEChem-02102213163D

 29 29  0     1  0  0  0  0  0999 V2000
   -2.9561   -3.9186    1.3887 H   0  0  0  0  0  0  0  0  0  0  0  0
   -3.1191   -2.9346    0.9517 C   0  0  0  0  0  0  0  0  0  0  0  0
   -3.7811   -2.3546    1.5917 H   0  0  0  0  0  0  0  0  0  0  0  0
   -3.5591   -3.0406   -0.0383 H   0  0  0  0  0  0  0  0  0  0  0  0
   -1.7921   -2.2226    0.8327 C   0  0  0  0  0  0  0  0  0  0  0  0
   -0.7611   -2.7766    1.1927 O   0  0  0  0  0  0  0  0  0  0  0  0
   -1.8201   -0.9926    0.3247 N   0  0  0  0  0  0  0  0  0  0  0  0
   -2.7141   -0.5816    0.0927 H   0  0  0  0  0  0  0  0  0  0  0  0
   -0.6481   -0.1156    0.2017 C   0  0  1  0  0  0  0  0  0  0  0  0
    0.1344   -0.4988    0.8596 H   0  0  0  0  0  0  0  0  0  0  0  0
   -0.1211   -0.1520   -1.2460 C   0  0  0  0  0  0  0  0  0  0  0  0
   -0.1602    0.8489   -1.6784 H   0  0  0  0  0  0  0  0  0  0  0  0
    0.9220   -0.4712   -1.2510 H   0  0  0  0  0  0  0  0  0  0  0  0
   -0.9286   -1.0595   -2.1417 C   0  0  0  0  0  0  0  0  0  0  0  0
   -1.3652   -2.3459   -1.8223 N   0  0  0  0  0  0  0  0  0  0  0  0
   -2.0816   -2.7649   -2.8755 C   0  0  0  0  0  0  0  0  0  0  0  0
   -2.5532   -3.7368   -2.9480 H   0  0  0  0  0  0  0  0  0  0  0  0
   -2.1367   -1.8074   -3.8166 N   0  0  0  0  0  0  0  0  0  0  0  0
   -2.6336   -1.8758   -4.6942 H   0  0  0  0  0  0  0  0  0  0  0  0
   -1.4177   -0.7212   -3.3695 C   0  0  0  0  0  0  0  0  0  0  0  0
   -1.2758    0.2288   -3.8692 H   0  0  0  0  0  0  0  0  0  0  0  0
   -0.9851    1.3114    0.6698 C   0  0  0  0  0  0  0  0  0  0  0  0
   -2.0377    1.8431    0.3168 O   0  0  0  0  0  0  0  0  0  0  0  0
   -0.1052    1.9265    1.4663 N   0  0  0  0  0  0  0  0  0  0  0  0
    0.7810    1.4586    1.6201 H   0  0  0  0  0  0  0  0  0  0  0  0
   -0.2724    3.2715    2.0119 C   0  0  0  0  0  0  0  0  0  0  0  0
   -1.3249    3.4549    2.2426 H   0  0  0  0  0  0  0  0  0  0  0  0
    0.3167    3.3776    2.9239 H   0  0  0  0  0  0  0  0  0  0  0  0
    0.0609    4.0073    1.2782 H   0  0  0  0  0  0  0  0  0  0  0  0
  5  6  2  0  0  0  0
  5  7  1  0  0  0  0
  2  3  1  0  0  0  0
  2  4  1  0  0  0  0
  2  5  1  0  0  0  0
  1  2  1  0  0  0  0
 22 23  2  0  0  0  0
 22 24  1  0  0  0  0
 20 21  1  0  0  0  0
 18 19  1  0  0  0  0
 18 20  1  0  0  0  0
 16 17  1  0  0  0  0
 16 18  1  0  0  0  0
 15 16  2  0  0  0  0
 14 15  1  0  0  0  0
 14 20  2  0  0  0  0
 11 12  1  0  0  0  0
 11 13  1  0  0  0  0
 11 14  1  0  0  0  0
  9 10  1  0  0  0  0
  9 11  1  0  0  0  0
  9 22  1  0  0  0  0
  7  8  1  0  0  0  0
  7  9  1  0  0  0  0
 26 27  1  0  0  0  0
 26 28  1  0  0  0  0
 26 29  1  0  0  0  0
 24 25  1  0  0  0  0
 24 26  1  0  0  0  0
M  END
$$$$
default_name
  -OEChem-02102213163D

 29 29  0     1  0  0  0  0  0999 V2000
   -2.9561   -3.9186    1.3887 H   0  0  0  0  0  0  0  0  0  0  0  0
   -3.1191   -2.9346    0.9517 C   0  0  0  0  0  0  0  0  0  0  0  0
   -3.7811   -2.3546    1.5917 H   0  0  0  0  0  0  0  0  0  0  0  0
   -3.5591   -3.0406   -0.0383 H   0  0  0  0  0  0  0  0  0  0  0  0
   -1.7921   -2.2226    0.8327 C   0  0  0  0  0  0  0  0  0  0  0  0
   -0.7611   -2.7766    1.1927 O   0  0  0  0  0  0  0  0  0  0  0  0
   -1.8201   -0.9926    0.3247 N   0  0  0  0  0  0  0  0  0  0  0  0
   -2.7141   -0.5816    0.0927 H   0  0  0  0  0  0  0  0  0  0  0  0
   -0.6481   -0.1156    0.2017 C   0  0  1  0  0  0  0  0  0  0  0  0
    0.1344   -0.4988    0.8596 H   0  0  0  0  0  0  0  0  0  0  0  0
   -0.1211   -0.1520   -1.2460 C   0  0  0  0  0  0  0  0  0  0  0  0
   -0.1602    0.8489   -1.6784 H   0  0  0  0  0  0  0  0  0  0  0  0
    0.9220   -0.4712   -1.2510 H   0  0  0  0  0  0  0  0  0  0  0  0
   -0.9286   -1.0595   -2.1417 C   0  0  0  0  0  0  0  0  0  0  0  0
   -1.6125   -2.2075   -1.7395 N   0  0  0  0  0  0  0  0  0  0  0  0
   -2.2280   -2.6739   -2.8359 C   0  0  0  0  0  0  0  0  0  0  0  0
   -2.8375   -3.5683   -2.8625 H   0  0  0  0  0  0  0  0  0  0  0  0
   -1.9878   -1.8711   -3.8862 N   0  0  0  0  0  0  0  0  0  0  0  0
   -2.3569   -1.9993   -4.8185 H   0  0  0  0  0  0  0  0  0  0  0  0
   -1.1723   -0.8438   -3.4666 C   0  0  0  0  0  0  0  0  0  0  0  0
   -0.8052   -0.0099   -4.0516 H   0  0  0  0  0  0  0  0  0  0  0  0
   -0.9851    1.3114    0.6698 C   0  0  0  0  0  0  0  0  0  0  0  0
   -2.0377    1.8431    0.3168 O   0  0  0  0  0  0  0  0  0  0  0  0
   -0.1052    1.9265    1.4663 N   0  0  0  0  0  0  0  0  0  0  0  0
    0.7810    1.4586    1.6201 H   0  0  0  0  0  0  0  0  0  0  0  0
   -0.2724    3.2715    2.0119 C   0  0  0  0  0  0  0  0  0  0  0  0
   -1.3249    3.4549    2.2426 H   0  0  0  0  0  0  0  0  0  0  0  0
    0.3167    3.3776    2.9239 H   0  0  0  0  0  0  0  0  0  0  0  0
    0.0609    4.0073    1.2782 H   0  0  0  0  0  0  0  0  0  0  0  0
  5  6  2  0  0  0  0
  5  7  1  0  0  0  0
  2  3  1  0  0  0  0
  2  4  1  0  0  0  0
  2  5  1  0  0  0  0
  1  2  1  0  0  0  0
 22 23  2  0  0  0  0
 22 24  1  0  0  0  0
 20 21  1  0  0  0  0
 18 19  1  0  0  0  0
 18 20  1  0  0  0  0
 16 17  1  0  0  0  0
 16 18  1  0  0  0  0
 15 16  2  0  0  0  0
 14 15  1  0  0  0  0
 14 20  2  0  0  0  0
 11 12  1  0  0  0  0
 11 13  1  0  0  0  0
 11 14  1  0  0  0  0
  9 10  1  0  0  0  0
  9 11  1  0  0  0  0
  9 22  1  0  0  0  0
  7  8  1  0  0  0  0
  7  9  1  0  0  0  0
 26 27  1  0  0  0  0
 26 28  1  0  0  0  0
 26 29  1  0  0  0  0
 24 25  1  0  0  0  0
 24 26  1  0  0  0  0
M  END
$$$$
default_name
  -OEChem-02102213163D

 29 29  0     1  0  0  0  0  0999 V2000
   -2.9561   -3.9186    1.3887 H   0  0  0  0  0  0  0  0  0  0  0  0
   -3.1191   -2.9346    0.9517 C   0  0  0  0  0  0  0  0  0  0  0  0
   -3.7811   -2.3546    1.5917 H   0  0  0  0  0  0  0  0  0  0  0  0
   -3.5591   -3.0406   -0.0383 H   0  0  0  0  0  0  0  0  0  0  0  0
   -1.7921   -2.2226    0.8327 C   0  0  0  0  0  0  0  0  0  0  0  0
   -0.7611   -2.7766    1.1927 O   0  0  0  0  0  0  0  0  0  0  0  0
   -1.8201   -0.9926    0.3247 N   0  0  0  0  0  0  0  0  0  0  0  0
   -2.7141   -0.5816    0.0927 H   0  0  0  0  0  0  0  0  0  0  0  0
   -0.6481   -0.1156    0.2017 C   0  0  1  0  0  0  0  0  0  0  0  0
    0.1344   -0.4988    0.8596 H   0  0  0  0  0  0  0  0  0  0  0  0
   -0.1211   -0.1520   -1.2460 C   0  0  0  0  0  0  0  0  0  0  0  0
   -0.1602    0.8489   -1.6784 H   0  0  0  0  0  0  0  0  0  0  0  0
    0.9220   -0.4712   -1.2510 H   0  0  0  0  0  0  0  0  0  0  0  0
   -0.9286   -1.0595   -2.1417 C   0  0  0  0  0  0  0  0  0  0  0  0
   -1.8430   -2.0244   -1.7172 N   0  0  0  0  0  0  0  0  0  0  0  0
   -2.3615   -2.5580   -2.8329 C   0  0  0  0  0  0  0  0  0  0  0  0
   -3.0996   -3.3500   -2.8475 H   0  0  0  0  0  0  0  0  0  0  0  0
   -1.8430   -1.9651   -3.9215 N   0  0  0  0  0  0  0  0  0  0  0  0
   -2.0891   -2.1784   -4.8785 H   0  0  0  0  0  0  0  0  0  0  0  0
   -0.9390   -1.0133   -3.5051 C   0  0  0  0  0  0  0  0  0  0  0  0
   -0.3589   -0.3380   -4.1215 H   0  0  0  0  0  0  0  0  0  0  0  0
   -0.9851    1.3114    0.6698 C   0  0  0  0  0  0  0  0  0  0  0  0
   -2.0377    1.8431    0.3168 O   0  0  0  0  0  0  0  0  0  0  0  0
   -0.1052    1.9265    1.4663 N   0  0  0  0  0  0  0  0  0  0  0  0
    0.7810    1.4586    1.6201 H   0  0  0  0  0  0  0  0  0  0  0  0
   -0.2724    3.2715    2.0119 C   0  0  0  0  0  0  0  0  0  0  0  0
   -1.3249    3.4549    2.2426 H   0  0  0  0  0  0  0  0  0  0  0  0
    0.3167    3.3776    2.9239 H   0  0  0  0  0  0  0  0  0  0  0  0
    0.0609    4.0073    1.2782 H   0  0  0  0  0  0  0  0  0  0  0  0
  5  6  2  0  0  0  0
  5  7  1  0  0  0  0
  2  3  1  0  0  0  0
  2  4  1  0  0  0  0
  2  5  1  0  0  0  0
  1  2  1  0  0  0  0
 22 23  2  0  0  0  0
 22 24  1  0  0  0  0
 20 21  1  0  0  0  0
 18 19  1  0  0  0  0
 18 20  1  0  0  0  0
 16 17  1  0  0  0  0
 16 18  1  0  0  0  0
 15 16  2  0  0  0  0
 14 15  1  0  0  0  0
 14 20  2  0  0  0  0
 11 12  1  0  0  0  0
 11 13  1  0  0  0  0
 11 14  1  0  0  0  0
  9 10  1  0  0  0  0
  9 11  1  0  0  0  0
  9 22  1  0  0  0  0
  7  8  1  0  0  0  0
  7  9  1  0  0  0  0
 26 27  1  0  0  0  0
 26 28  1  0  0  0  0
 26 29  1  0  0  0  0
 24 25  1  0  0  0  0
 24 26  1  0  0  0  0
M  END
$$$$
default_name
  -OEChem-02102213163D

 29 29  0     1  0  0  0  0  0999 V2000
   -2.9561   -3.9186    1.3887 H   0  0  0  0  0  0  0  0  0  0  0  0
   -3.1191   -2.9346    0.9517 C   0  0  0  0  0  0  0  0  0  0  0  0
   -3.7811   -2.3546    1.5917 H   0  0  0  0  0  0  0  0  0  0  0  0
   -3.5591   -3.0406   -0.0383 H   0  0  0  0  0  0  0  0  0  0  0  0
   -1.7921   -2.2226    0.8327 C   0  0  0  0  0  0  0  0  0  0  0  0
   -0.7611   -2.7766    1.1927 O   0  0  0  0  0  0  0  0  0  0  0  0
   -1.8201   -0.9926    0.3247 N   0  0  0  0  0  0  0  0  0  0  0  0
   -2.7141   -0.5816    0.0927 H   0  0  0  0  0  0  0  0  0  0  0  0
   -0.6481   -0.1156    0.2017 C   0  0  1  0  0  0  0  0  0  0  0  0
    0.1344   -0.4988    0.8596 H   0  0  0  0  0  0  0  0  0  0  0  0
   -0.1211   -0.1520   -1.2460 C   0  0  0  0  0  0  0  0  0  0  0  0
   -0.1602    0.8489   -1.6784 H   0  0  0  0  0  0  0  0  0  0  0  0
    0.9220   -0.4712   -1.2510 H   0  0  0  0  0  0  0  0  0  0  0  0
   -0.9286   -1.0595   -2.1417 C   0  0  0  0  0  0  0  0  0  0  0  0
   -2.0410   -1.8091   -1.7569 N   0  0  0  0  0  0  0  0  0  0  0  0
   -2.4731   -2.4251   -2.8669 C   0  0  0  0  0  0  0  0  0  0  0  0
   -3.3215   -3.0968   -2.9039 H   0  0  0  0  0  0  0  0  0  0  0  0
   -1.7120   -2.0831   -3.9200 N   0  0  0  0  0  0  0  0  0  0  0  0
   -1.8487   -2.4007   -4.8699 H   0  0  0  0  0  0  0  0  0  0  0  0
   -0.7337   -1.2182   -3.4826 C   0  0  0  0  0  0  0  0  0  0  0  0
    0.0327   -0.7332   -4.0741 H   0  0  0  0  0  0  0  0  0  0  0  0
   -0.9851    1.3114    0.6698 C   0  0  0  0  0  0  0  0  0  0  0  0
   -2.0377    1.8431    0.3168 O   0  0  0  0  0  0  0  0  0  0  0  0
   -0.1052    1.9265    1.4663 N   0  0  0  0  0  0  0  0  0  0  0  0
    0.7810    1.4586    1.6201 H   0  0  0  0  0  0  0  0  0  0  0  0
   -0.2724    3.2715    2.0119 C   0  0  0  0  0  0  0  0  0  0  0  0
   -1.3249    3.4549    2.2426 H   0  0  0  0  0  0  0  0  0  0  0  0
    0.3167    3.3776    2.9239 H   0  0  0  0  0  0  0  0  0  0  0  0
    0.0609    4.0073    1.2782 H   0  0  0  0  0  0  0  0  0  0  0  0
  5  6  2  0  0  0  0
  5  7  1  0  0  0  0
  2  3  1  0  0  0  0
  2  4  1  0  0  0  0
  2  5  1  0  0  0  0
  1  2  1  0  0  0  0
 22 23  2  0  0  0  0
 22 24  1  0  0  0  0
 20 21  1  0  0  0  0
 18 19  1  0  0  0  0
 18 20  1  0  0  0  0
 16 17  1  0  0  0  0
 16 18  1  0  0  0  0
 15 16  2  0  0  0  0
 14 15  1  0  0  0  0
 14 20  2  0  0  0  0
 11 12  1  0  0  0  0
 11 13  1  0  0  0  0
 11 14  1  0  0  0  0
  9 10  1  0  0  0  0
  9 11  1  0  0  0  0
  9 22  1  0  0  0  0
  7  8  1  0  0  0  0
  7  9  1  0  0  0  0
 26 27  1  0  0  0  0
 26 28  1  0  0  0  0
 26 29  1  0  0  0  0
 24 25  1  0  0  0  0
 24 26  1  0  0  0  0
M  END
$$$$
default_name
  -OEChem-02102213163D

 29 29  0     1  0  0  0  0  0999 V2000
   -2.9561   -3.9186    1.3887 H   0  0  0  0  0  0  0  0  0  0  0  0
   -3.1191   -2.9346    0.9517 C   0  0  0  0  0  0  0  0  0  0  0  0
   -3.7811   -2.3546    1.5917 H   0  0  0  0  0  0  0  0  0  0  0  0
   -3.5591   -3.0406   -0.0383 H   0  0  0  0  0  0  0  0  0  0  0  0
   -1.7921   -2.2226    0.8327 C   0  0  0  0  0  0  0  0  0  0  0  0
   -0.7611   -2.7766    1.1927 O   0  0  0  0  0  0  0  0  0  0  0  0
   -1.8201   -0.9926    0.3247 N   0  0  0  0  0  0  0  0  0  0  0  0
   -2.7141   -0.5816    0.0927 H   0  0  0  0  0  0  0  0  0  0  0  0
   -0.6481   -0.1156    0.2017 C   0  0  1  0  0  0  0  0  0  0  0  0
    0.1344   -0.4988    0.8596 H   0  0  0  0  0  0  0  0  0  0  0  0
   -0.1211   -0.1520   -1.2460 C   0  0  0  0  0  0  0  0  0  0  0  0
   -0.1602    0.8489   -1.6784 H   0  0  0  0  0  0  0  0  0  0  0  0
    0.9220   -0.4712   -1.2510 H   0  0  0  0  0  0  0  0  0  0  0  0
   -0.9286   -1.0595   -2.1417 C   0  0  0  0  0  0  0  0  0  0  0  0
   -2.1930   -1.5761   -1.8559 N   0  0  0  0  0  0  0  0  0  0  0  0
   -2.5553   -2.2843   -2.9355 C   0  0  0  0  0  0  0  0  0  0  0  0
   -3.4882   -2.8260   -3.0281 H   0  0  0  0  0  0  0  0  0  0  0  0
   -1.6039   -2.2170   -3.8819 N   0  0  0  0  0  0  0  0  0  0  0  0
   -1.6519   -2.6513   -4.7934 H   0  0  0  0  0  0  0  0  0  0  0  0
   -0.5704   -1.4445   -3.4006 C   0  0  0  0  0  0  0  0  0  0  0  0
    0.3429   -1.1685   -3.9126 H   0  0  0  0  0  0  0  0  0  0  0  0
   -0.9851    1.3114    0.6698 C   0  0  0  0  0  0  0  0  0  0  0  0
   -2.0377    1.8431    0.3168 O   0  0  0  0  0  0  0  0  0  0  0  0
   -0.1052    1.9265    1.4663 N   0  0  0  0  0  0  0  0  0  0  0  0
    0.7810    1.4586    1.6201 H   0  0  0  0  0  0  0  0  0  0  0  0
   -0.2724    3.2715    2.0119 C   0  0  0  0  0  0  0  0  0  0  0  0
   -1.3249    3.4549    2.2426 H   0  0  0  0  0  0  0  0  0  0  0  0
    0.3167    3.3776    2.9239 H   0  0  0  0  0  0  0  0  0  0  0  0
    0.0609    4.0073    1.2782 H   0  0  0  0  0  0  0  0  0  0  0  0
  5  6  2  0  0  0  0
  5  7  1  0  0  0  0
  2  3  1  0  0  0  0
  2  4  1  0  0  0  0
  2  5  1  0  0  0  0
  1  2  1  0  0  0  0
 22 23  2  0  0  0  0
 22 24  1  0  0  0  0
 20 21  1  0  0  0  0
 18 19  1  0  0  0  0
 18 20  1  0  0  0  0
 16 17  1  0  0  0  0
 16 18  1  0  0  0  0
 15 16  2  0  0  0  0
 14 15  1  0  0  0  0
 14 20  2  0  0  0  0
 11 12  1  0  0  0  0
 11 13  1  0  0  0  0
 11 14  1  0  0  0  0
  9 10  1  0  0  0  0
  9 11  1  0  0  0  0
  9 22  1  0  0  0  0
  7  8  1  0  0  0  0
  7  9  1  0  0  0  0
 26 27  1  0  0  0  0
 26 28  1  0  0  0  0
 26 29  1  0  0  0  0
 24 25  1  0  0  0  0
 24 26  1  0  0  0  0
M  END
$$$$
default_name
  -OEChem-02102213163D

 29 29  0     1  0  0  0  0  0999 V2000
   -2.9561   -3.9186    1.3887 H   0  0  0  0  0  0  0  0  0  0  0  0
   -3.1191   -2.9346    0.9517 C   0  0  0  0  0  0  0  0  0  0  0  0
   -3.7811   -2.3546    1.5917 H   0  0  0  0  0  0  0  0  0  0  0  0
   -3.5591   -3.0406   -0.0383 H   0  0  0  0  0  0  0  0  0  0  0  0
   -1.7921   -2.2226    0.8327 C   0  0  0  0  0  0  0  0  0  0  0  0
   -0.7611   -2.7766    1.1927 O   0  0  0  0  0  0  0  0  0  0  0  0
   -1.8201   -0.9926    0.3247 N   0  0  0  0  0  0  0  0  0  0  0  0
   -2.7141   -0.5816    0.0927 H   0  0  0  0  0  0  0  0  0  0  0  0
   -0.6481   -0.1156    0.2017 C   0  0  1  0  0  0  0  0  0  0  0  0
    0.1344   -0.4988    0.8596 H   0  0  0  0  0  0  0  0  0  0  0  0
   -0.1211   -0.1520   -1.2460 C   0  0  0  0  0  0  0  0  0  0  0  0
   -0.1602    0.8489   -1.6784 H   0  0  0  0  0  0  0  0  0  0  0  0
    0.9220   -0.4712   -1.2510 H   0  0  0  0  0  0  0  0  0  0  0  0
   -0.9286   -1.0595   -2.1417 C   0  0  0  0  0  0  0  0  0  0  0  0
   -2.2887   -1.3415   -2.0074 N   0  0  0  0  0  0  0  0  0  0  0  0
   -2.6023   -2.1453   -3.0340 C   0  0  0  0  0  0  0  0  0  0  0  0
   -3.5882   -2.5560   -3.2114 H   0  0  0  0  0  0  0  0  0  0  0  0
   -1.5259   -2.3576   -3.8097 N   0  0  0  0  0  0  0  0  0  0  0  0
   -1.5123   -2.9129   -4.6543 H   0  0  0  0  0  0  0  0  0  0  0  0
   -0.4601   -1.6768   -3.2645 C   0  0  0  0  0  0  0  0  0  0  0  0
    0.5505   -1.6142   -3.6481 H   0  0  0  0  0  0  0  0  0  0  0  0
   -0.9851    1.3114    0.6698 C   0  0  0  0  0  0  0  0  0  0  0  0
   -2.0377    1.8431    0.3168 O   0  0  0  0  0  0  0  0  0  0  0  0
   -0.1052    1.9265    1.4663 N   0  0  0  0  0  0  0  0  0  0  0  0
    0.7810    1.4586    1.6201 H   0  0  0  0  0  0  0  0  0  0  0  0
   -0.2724    3.2715    2.0119 C   0  0  0  0  0  0  0  0  0  0  0  0
   -1.3249    3.4549    2.2426 H   0  0  0  0  0  0  0  0  0  0  0  0
    0.3167    3.3776    2.9239 H   0  0  0  0  0  0  0  0  0  0  0  0
    0.0609    4.0073    1.2782 H   0  0  0  0  0  0  0  0  0  0  0  0
  5  6  2  0  0  0  0
  5  7  1  0  0  0  0
  2  3  1  0  0  0  0
  2  4  1  0  0  0  0
  2  5  1  0  0  0  0
  1  2  1  0  0  0  0
 22 23  2  0  0  0  0
 22 24  1  0  0  0  0
 20 21  1  0  0  0  0
 18 19  1  0  0  0  0
 18 20  1  0  0  0  0
 16 17  1  0  0  0  0
 16 18  1  0  0  0  0
 15 16  2  0  0  0  0
 14 15  1  0  0  0  0
 14 20  2  0  0  0  0
 11 12  1  0  0  0  0
 11 13  1  0  0  0  0
 11 14  1  0  0  0  0
  9 10  1  0  0  0  0
  9 11  1  0  0  0  0
  9 22  1  0  0  0  0
  7  8  1  0  0  0  0
  7  9  1  0  0  0  0
 26 27  1  0  0  0  0
 26 28  1  0  0  0  0
 26 29  1  0  0  0  0
 24 25  1  0  0  0  0
 24 26  1  0  0  0  0
M  END
$$$$
default_name
  -OEChem-02102213163D

 29 29  0     1  0  0  0  0  0999 V2000
   -2.9561   -3.9186    1.3887 H   0  0  0  0  0  0  0  0  0  0  0  0
   -3.1191   -2.9346    0.9517 C   0  0  0  0  0  0  0  0  0  0  0  0
   -3.7811   -2.3546    1.5917 H   0  0  0  0  0  0  0  0  0  0  0  0
   -3.5591   -3.0406   -0.0383 H   0  0  0  0  0  0  0  0  0  0  0  0
   -1.7921   -2.2226    0.8327 C   0  0  0  0  0  0  0  0  0  0  0  0
   -0.7611   -2.7766    1.1927 O   0  0  0  0  0  0  0  0  0  0  0  0
   -1.8201   -0.9926    0.3247 N   0  0  0  0  0  0  0  0  0  0  0  0
   -2.7141   -0.5816    0.0927 H   0  0  0  0  0  0  0  0  0  0  0  0
   -0.6481   -0.1156    0.2017 C   0  0  1  0  0  0  0  0  0  0  0  0
    0.1344   -0.4988    0.8596 H   0  0  0  0  0  0  0  0  0  0  0  0
   -0.1211   -0.1520   -1.2460 C   0  0  0  0  0  0  0  0  0  0  0  0
   -0.1602    0.8489   -1.6784 H   0  0  0  0  0  0  0  0  0  0  0  0
    0.9220   -0.4712   -1.2510 H   0  0  0  0  0  0  0  0  0  0  0  0
   -0.9286   -1.0595   -2.1417 C   0  0  0  0  0  0  0  0  0  0  0  0
   -2.3214   -1.1211   -2.2012 N   0  0  0  0  0  0  0  0  0  0  0  0
   -2.6110   -2.0173   -3.1558 C   0  0  0  0  0  0  0  0  0  0  0  0
   -3.6149   -2.3052   -3.4415 H   0  0  0  0  0  0  0  0  0  0  0  0
   -1.4835   -2.4954   -3.7083 N   0  0  0  0  0  0  0  0  0  0  0  0
   -1.4392   -3.1678   -4.4619 H   0  0  0  0  0  0  0  0  0  0  0  0
   -0.4105   -1.8994   -3.0838 C   0  0  0  0  0  0  0  0  0  0  0  0
    0.6414   -2.0400   -3.2986 H   0  0  0  0  0  0  0  0  0  0  0  0
   -0.9851    1.3114    0.6698 C   0  0  0  0  0  0  0  0  0  0  0  0
   -2.0377    1.8431    0.3168 O   0  0  0  0  0  0  0  0  0  0  0  0
   -0.1052    1.9265    1.4663 N   0  0  0  0  0  0  0  0  0  0  0  0
    0.7810    1.4586    1.6201 H   0  0  0  0  0  0  0  0  0  0  0  0
   -0.2724    3.2715    2.0119 C   0  0  0  0  0  0  0  0  0  0  0  0
   -1.3249    3.4549    2.2426 H   0  0  0  0  0  0  0  0  0  0  0  0
    0.3167    3.3776    2.9239 H   0  0  0  0  0  0  0  0  0  0  0  0
    0.0609    4.0073    1.2782 H   0  0  0  0  0  0  0  0  0  0  0  0
  5  6  2  0  0  0  0
  5  7  1  0  0  0  0
  2  3  1  0  0  0  0
  2  4  1  0  0  0  0
  2  5  1  0  0  0  0
  1  2  1  0  0  0  0
 22 23  2  0  0  0  0
 22 24  1  0  0  0  0
 20 21  1  0  0  0  0
 18 19  1  0  0  0  0
 18 20  1  0  0  0  0
 16 17  1  0  0  0  0
 16 18  1  0  0  0  0
 15 16  2  0  0  0  0
 14 15  1  0  0  0  0
 14 20  2  0  0  0  0
 11 12  1  0  0  0  0
 11 13  1  0  0  0  0
 11 14  1  0  0  0  0
  9 10  1  0  0  0  0
  9 11  1  0  0  0  0
  9 22  1  0  0  0  0
  7  8  1  0  0  0  0
  7  9  1  0  0  0  0
 26 27  1  0  0  0  0
 26 28  1  0  0  0  0
 26 29  1  0  0  0  0
 24 25  1  0  0  0  0
 24 26  1  0  0  0  0
M  END
$$$$
default_name
  -OEChem-02102213163D

 29 29  0     1  0  0  0  0  0999 V2000
   -2.9561   -3.9186    1.3887 H   0  0  0  0  0  0  0  0  0  0  0  0
   -3.1191   -2.9346    0.9517 C   0  0  0  0  0  0  0  0  0  0  0  0
   -3.7811   -2.3546    1.5917 H   0  0  0  0  0  0  0  0  0  0  0  0
   -3.5591   -3.0406   -0.0383 H   0  0  0  0  0  0  0  0  0  0  0  0
   -1.7921   -2.2226    0.8327 C   0  0  0  0  0  0  0  0  0  0  0  0
   -0.7611   -2.7766    1.1927 O   0  0  0  0  0  0  0  0  0  0  0  0
   -1.8201   -0.9926    0.3247 N   0  0  0  0  0  0  0  0  0  0  0  0
   -2.7141   -0.5816    0.0927 H   0  0  0  0  0  0  0  0  0  0  0  0
   -0.6481   -0.1156    0.2017 C   0  0  1  0  0  0  0  0  0  0  0  0
    0.1344   -0.4988    0.8596 H   0  0  0  0  0  0  0  0  0  0  0  0
   -0.1211   -0.1520   -1.2460 C   0  0  0  0  0  0  0  0  0  0  0  0
   -0.1602    0.8489   -1.6784 H   0  0  0  0  0  0  0  0  0  0  0  0
    0.9220   -0.4712   -1.2510 H   0  0  0  0  0  0  0  0  0  0  0  0
   -0.9286   -1.0595   -2.1417 C   0  0  0  0  0  0  0  0  0  0  0  0
   -2.2891   -0.9301   -2.4239 N   0  0  0  0  0  0  0  0  0  0  0  0
   -2.5809   -1.9093   -3.2925 C   0  0  0  0  0  0  0  0  0  0  0  0
   -3.5663   -2.0907   -3.7026 H   0  0  0  0  0  0  0  0  0  0  0  0
   -1.4794   -2.6210   -3.5847 N   0  0  0  0  0  0  0  0  0  0  0  0
   -1.4377   -3.3986   -4.2294 H   0  0  0  0  0  0  0  0  0  0  0  0
   -0.4249   -2.0969   -2.8707 C   0  0  0  0  0  0  0  0  0  0  0  0
    0.6094   -2.4169   -2.8879 H   0  0  0  0  0  0  0  0  0  0  0  0
   -0.9851    1.3114    0.6698 C   0  0  0  0  0  0  0  0  0  0  0  0
   -2.0377    1.8431    0.3168 O   0  0  0  0  0  0  0  0  0  0  0  0
   -0.1052    1.9265    1.4663 N   0  0  0  0  0  0  0  0  0  0  0  0
    0.7810    1.4586    1.6201 H   0  0  0  0  0  0  0  0  0  0  0  0
   -0.2724    3.2715    2.0119 C   0  0  0  0  0  0  0  0  0  0  0  0
   -1.3249    3.4549    2.2426 H   0  0  0  0  0  0  0  0  0  0  0  0
    0.3167    3.3776    2.9239 H   0  0  0  0  0  0  0  0  0  0  0  0
    0.0609    4.0073    1.2782 H   0  0  0  0  0  0  0  0  0  0  0  0
  5  6  2  0  0  0  0
  5  7  1  0  0  0  0
  2  3  1  0  0  0  0
  2  4  1  0  0  0  0
  2  5  1  0  0  0  0
  1  2  1  0  0  0  0
 22 23  2  0  0  0  0
 22 24  1  0  0  0  0
 20 21  1  0  0  0  0
 18 19  1  0  0  0  0
 18 20  1  0  0  0  0
 16 17  1  0  0  0  0
 16 18  1  0  0  0  0
 15 16  2  0  0  0  0
 14 15  1  0  0  0  0
 14 20  2  0  0  0  0
 11 12  1  0  0  0  0
 11 13  1  0  0  0  0
 11 14  1  0  0  0  0
  9 10  1  0  0  0  0
  9 11  1  0  0  0  0
  9 22  1  0  0  0  0
  7  8  1  0  0  0  0
  7  9  1  0  0  0  0
 26 27  1  0  0  0  0
 26 28  1  0  0  0  0
 26 29  1  0  0  0  0
 24 25  1  0  0  0  0
 24 26  1  0  0  0  0
M  END
$$$$
default_name
  -OEChem-02102213163D

 29 29  0     1  0  0  0  0  0999 V2000
   -2.9561   -3.9186    1.3887 H   0  0  0  0  0  0  0  0  0  0  0  0
   -3.1191   -2.9346    0.9517 C   0  0  0  0  0  0  0  0  0  0  0  0
   -3.7811   -2.3546    1.5917 H   0  0  0  0  0  0  0  0  0  0  0  0
   -3.5591   -3.0406   -0.0383 H   0  0  0  0  0  0  0  0  0  0  0  0
   -1.7921   -2.2226    0.8327 C   0  0  0  0  0  0  0  0  0  0  0  0
   -0.7611   -2.7766    1.1927 O   0  0  0  0  0  0  0  0  0  0  0  0
   -1.8201   -0.9926    0.3247 N   0  0  0  0  0  0  0  0  0  0  0  0
   -2.7141   -0.5816    0.0927 H   0  0  0  0  0  0  0  0  0  0  0  0
   -0.6481   -0.1156    0.2017 C   0  0  1  0  0  0  0  0  0  0  0  0
    0.1344   -0.4988    0.8596 H   0  0  0  0  0  0  0  0  0  0  0  0
   -0.1211   -0.1520   -1.2460 C   0  0  0  0  0  0  0  0  0  0  0  0
   -0.1602    0.8489   -1.6784 H   0  0  0  0  0  0  0  0  0  0  0  0
    0.9220   -0.4712   -1.2510 H   0  0  0  0  0  0  0  0  0  0  0  0
   -0.9286   -1.0595   -2.1417 C   0  0  0  0  0  0  0  0  0  0  0  0
   -2.1938   -0.7813   -2.6605 N   0  0  0  0  0  0  0  0  0  0  0  0
   -2.5139   -1.8284   -3.4348 C   0  0  0  0  0  0  0  0  0  0  0  0
   -3.4458   -1.9272   -3.9770 H   0  0  0  0  0  0  0  0  0  0  0  0
   -1.5140   -2.7258   -3.4473 N   0  0  0  0  0  0  0  0  0  0  0  0
   -1.5079   -3.5895   -3.9726 H   0  0  0  0  0  0  0  0  0  0  0  0
   -0.5023   -2.2560   -2.6397 C   0  0  0  0  0  0  0  0  0  0  0  0
    0.4567   -2.7192   -2.4440 H   0  0  0  0  0  0  0  0  0  0  0  0
   -0.9851    1.3114    0.6698 C   0  0  0  0  0  0  0  0  0  0  0  0
   -2.0377    1.8431    0.3168 O   0  0  0  0  0  0  0  0  0  0  0  0
   -0.1052    1.9265    1.4663 N   0  0  0  0  0  0  0  0  0  0  0  0
    0.7810    1.4586    1.6201 H   0  0  0  0  0  0  0  0  0  0  0  0
   -0.2724    3.2715    2.0119 C   0  0  0  0  0  0  0  0  0  0  0  0
   -1.3249    3.4549    2.2426 H   0  0  0  0  0  0  0  0  0  0  0  0
    0.3167    3.3776    2.9239 H   0  0  0  0  0  0  0  0  0  0  0  0
    0.0609    4.0073    1.2782 H   0  0  0  0  0  0  0  0  0  0  0  0
  5  6  2  0  0  0  0
  5  7  1  0  0  0  0
  2  3  1  0  0  0  0
  2  4  1  0  0  0  0
  2  5  1  0  0  0  0
  1  2  1  0  0  0  0
 22 23  2  0  0  0  0
 22 24  1  0  0  0  0
 20 21  1  0  0  0  0
 18 19  1  0  0  0  0
 18 20  1  0  0  0  0
 16 17  1  0  0  0  0
 16 18  1  0  0  0  0
 15 16  2  0  0  0  0
 14 15  1  0  0  0  0
 14 20  2  0  0  0  0
 11 12  1  0  0  0  0
 11 13  1  0  0  0  0
 11 14  1  0  0  0  0
  9 10  1  0  0  0  0
  9 11  1  0  0  0  0
  9 22  1  0  0  0  0
  7  8  1  0  0  0  0
  7  9  1  0  0  0  0
 26 27  1  0  0  0  0
 26 28  1  0  0  0  0
 26 29  1  0  0  0  0
 24 25  1  0  0  0  0
 24 26  1  0  0  0  0
M  END
$$$$
default_name
  -OEChem-02102213163D

 29 29  0     1  0  0  0  0  0999 V2000
   -2.9561   -3.9186    1.3887 H   0  0  0  0  0  0  0  0  0  0  0  0
   -3.1191   -2.9346    0.9517 C   0  0  0  0  0  0  0  0  0  0  0  0
   -3.7811   -2.3546    1.5917 H   0  0  0  0  0  0  0  0  0  0  0  0
   -3.5591   -3.0406   -0.0383 H   0  0  0  0  0  0  0  0  0  0  0  0
   -1.7921   -2.2226    0.8327 C   0  0  0  0  0  0  0  0  0  0  0  0
   -0.7611   -2.7766    1.1927 O   0  0  0  0  0  0  0  0  0  0  0  0
   -1.8201   -0.9926    0.3247 N   0  0  0  0  0  0  0  0  0  0  0  0
   -2.7141   -0.5816    0.0927 H   0  0  0  0  0  0  0  0  0  0  0  0
   -0.6481   -0.1156    0.2017 C   0  0  1  0  0  0  0  0  0  0  0  0
    0.1344   -0.4988    0.8596 H   0  0  0  0  0  0  0  0  0  0  0  0
   -0.1211   -0.1520   -1.2460 C   0  0  0  0  0  0  0  0  0  0  0  0
   -0.1602    0.8489   -1.6784 H   0  0  0  0  0  0  0  0  0  0  0  0
    0.9220   -0.4712   -1.2510 H   0  0  0  0  0  0  0  0  0  0  0  0
   -0.9286   -1.0595   -2.1417 C   0  0  0  0  0  0  0  0  0  0  0  0
   -2.0421   -0.6851   -2.8948 N   0  0  0  0  0  0  0  0  0  0  0  0
   -2.4146   -1.7804   -3.5730 C   0  0  0  0  0  0  0  0  0  0  0  0
   -3.2616   -1.8257   -4.2458 H   0  0  0  0  0  0  0  0  0  0  0  0
   -1.5849   -2.8028   -3.3055 N   0  0  0  0  0  0  0  0  0  0  0  0
   -1.6450   -3.7276   -3.7090 H   0  0  0  0  0  0  0  0  0  0  0  0
   -0.6374   -2.3658   -2.4067 C   0  0  0  0  0  0  0  0  0  0  0  0
    0.1936   -2.9262   -1.9971 H   0  0  0  0  0  0  0  0  0  0  0  0
   -0.9851    1.3114    0.6698 C   0  0  0  0  0  0  0  0  0  0  0  0
   -2.0377    1.8431    0.3168 O   0  0  0  0  0  0  0  0  0  0  0  0
   -0.1052    1.9265    1.4663 N   0  0  0  0  0  0  0  0  0  0  0  0
    0.7810    1.4586    1.6201 H   0  0  0  0  0  0  0  0  0  0  0  0
   -0.2724    3.2715    2.0119 C   0  0  0  0  0  0  0  0  0  0  0  0
   -1.3249    3.4549    2.2426 H   0  0  0  0  0  0  0  0  0  0  0  0
    0.3167    3.3776    2.9239 H   0  0  0  0  0  0  0  0  0  0  0  0
    0.0609    4.0073    1.2782 H   0  0  0  0  0  0  0  0  0  0  0  0
  5  6  2  0  0  0  0
  5  7  1  0  0  0  0
  2  3  1  0  0  0  0
  2  4  1  0  0  0  0
  2  5  1  0  0  0  0
  1  2  1  0  0  0  0
 22 23  2  0  0  0  0
 22 24  1  0  0  0  0
 20 21  1  0  0  0  0
 18 19  1  0  0  0  0
 18 20  1  0  0  0  0
 16 17  1  0  0  0  0
 16 18  1  0  0  0  0
 15 16  2  0  0  0  0
 14 15  1  0  0  0  0
 14 20  2  0  0  0  0
 11 12  1  0  0  0  0
 11 13  1  0  0  0  0
 11 14  1  0  0  0  0
  9 10  1  0  0  0  0
  9 11  1  0  0  0  0
  9 22  1  0  0  0  0
  7  8  1  0  0  0  0
  7  9  1  0  0  0  0
 26 27  1  0  0  0  0
 26 28  1  0  0  0  0
 26 29  1  0  0  0  0
 24 25  1  0  0  0  0
 24 26  1  0  0  0  0
M  END
$$$$
default_name
  -OEChem-02102213163D

 29 29  0     1  0  0  0  0  0999 V2000
   -2.9561   -3.9186    1.3887 H   0  0  0  0  0  0  0  0  0  0  0  0
   -3.1191   -2.9346    0.9517 C   0  0  0  0  0  0  0  0  0  0  0  0
   -3.7811   -2.3546    1.5917 H   0  0  0  0  0  0  0  0  0  0  0  0
   -3.5591   -3.0406   -0.0383 H   0  0  0  0  0  0  0  0  0  0  0  0
   -1.7921   -2.2226    0.8327 C   0  0  0  0  0  0  0  0  0  0  0  0
   -0.7611   -2.7766    1.1927 O   0  0  0  0  0  0  0  0  0  0  0  0
   -1.8201   -0.9926    0.3247 N   0  0  0  0  0  0  0  0  0  0  0  0
   -2.7141   -0.5816    0.0927 H   0  0  0  0  0  0  0  0  0  0  0  0
   -0.6481   -0.1156    0.2017 C   0  0  1  0  0  0  0  0  0  0  0  0
    0.1344   -0.4988    0.8596 H   0  0  0  0  0  0  0  0  0  0  0  0
   -0.1211   -0.1520   -1.2460 C   0  0  0  0  0  0  0  0  0  0  0  0
   -0.1602    0.8489   -1.6784 H   0  0  0  0  0  0  0  0  0  0  0  0
    0.9220   -0.4712   -1.2510 H   0  0  0  0  0  0  0  0  0  0  0  0
   -0.9286   -1.0595   -2.1417 C   0  0  0  0  0  0  0  0  0  0  0  0
   -1.8444   -0.6478   -3.1108 N   0  0  0  0  0  0  0  0  0  0  0  0
   -2.2898   -1.7683   -3.6977 C   0  0  0  0  0  0  0  0  0  0  0  0
   -3.0262   -1.7932   -4.4910 H   0  0  0  0  0  0  0  0  0  0  0  0
   -1.6872   -2.8465   -3.1689 N   0  0  0  0  0  0  0  0  0  0  0  0
   -1.8397   -3.8035   -3.4567 H   0  0  0  0  0  0  0  0  0  0  0  0
   -0.8211   -2.4188   -2.1873 C   0  0  0  0  0  0  0  0  0  0  0  0
   -0.1618   -3.0239   -1.5778 H   0  0  0  0  0  0  0  0  0  0  0  0
   -0.9851    1.3114    0.6698 C   0  0  0  0  0  0  0  0  0  0  0  0
   -2.0377    1.8431    0.3168 O   0  0  0  0  0  0  0  0  0  0  0  0
   -0.1052    1.9265    1.4663 N   0  0  0  0  0  0  0  0  0  0  0  0
    0.7810    1.4586    1.6201 H   0  0  0  0  0  0  0  0  0  0  0  0
   -0.2724    3.2715    2.0119 C   0  0  0  0  0  0  0  0  0  0  0  0
   -1.3249    3.4549    2.2426 H   0  0  0  0  0  0  0  0  0  0  0  0
    0.3167    3.3776    2.9239 H   0  0  0  0  0  0  0  0  0  0  0  0
    0.0609    4.0073    1.2782 H   0  0  0  0  0  0  0  0  0  0  0  0
  5  6  2  0  0  0  0
  5  7  1  0  0  0  0
  2  3  1  0  0  0  0
  2  4  1  0  0  0  0
  2  5  1  0  0  0  0
  1  2  1  0  0  0  0
 22 23  2  0  0  0  0
 22 24  1  0  0  0  0
 20 21  1  0  0  0  0
 18 19  1  0  0  0  0
 18 20  1  0  0  0  0
 16 17  1  0  0  0  0
 16 18  1  0  0  0  0
 15 16  2  0  0  0  0
 14 15  1  0  0  0  0
 14 20  2  0  0  0  0
 11 12  1  0  0  0  0
 11 13  1  0  0  0  0
 11 14  1  0  0  0  0
  9 10  1  0  0  0  0
  9 11  1  0  0  0  0
  9 22  1  0  0  0  0
  7  8  1  0  0  0  0
  7  9  1  0  0  0  0
 26 27  1  0  0  0  0
 26 28  1  0  0  0  0
 26 29  1  0  0  0  0
 24 25  1  0  0  0  0
 24 26  1  0  0  0  0
M  END
$$$$
default_name
  -OEChem-02102213163D

 29 29  0     1  0  0  0  0  0999 V2000
   -2.9561   -3.9186    1.3887 H   0  0  0  0  0  0  0  0  0  0  0  0
   -3.1191   -2.9346    0.9517 C   0  0  0  0  0  0  0  0  0  0  0  0
   -3.7811   -2.3546    1.5917 H   0  0  0  0  0  0  0  0  0  0  0  0
   -3.5591   -3.0406   -0.0383 H   0  0  0  0  0  0  0  0  0  0  0  0
   -1.7921   -2.2226    0.8327 C   0  0  0  0  0  0  0  0  0  0  0  0
   -0.7611   -2.7766    1.1927 O   0  0  0  0  0  0  0  0  0  0  0  0
   -1.8201   -0.9926    0.3247 N   0  0  0  0  0  0  0  0  0  0  0  0
   -2.7141   -0.5816    0.0927 H   0  0  0  0  0  0  0  0  0  0  0  0
   -0.6481   -0.1156    0.2017 C   0  0  1  0  0  0  0  0  0  0  0  0
    0.1344   -0.4988    0.8596 H   0  0  0  0  0  0  0  0  0  0  0  0
   -0.1211   -0.1520   -1.2460 C   0  0  0  0  0  0  0  0  0  0  0  0
   -0.1602    0.8489   -1.6784 H   0  0  0  0  0  0  0  0  0  0  0  0
    0.9220   -0.4712   -1.2510 H   0  0  0  0  0  0  0  0  0  0  0  0
   -0.9286   -1.0595   -2.1417 C   0  0  0  0  0  0  0  0  0  0  0  0
   -1.6140   -0.6721   -3.2939 N   0  0  0  0  0  0  0  0  0  0  0  0
   -2.1480   -1.7931   -3.8004 C   0  0  0  0  0  0  0  0  0  0  0  0
   -2.7558   -1.8319   -4.6956 H   0  0  0  0  0  0  0  0  0  0  0  0
   -1.8141   -2.8542   -3.0467 N   0  0  0  0  0  0  0  0  0  0  0  0
   -2.0787   -3.8119   -3.2327 H   0  0  0  0  0  0  0  0  0  0  0  0
   -1.0407   -2.4115   -1.9967 C   0  0  0  0  0  0  0  0  0  0  0  0
   -0.5853   -3.0056   -1.2145 H   0  0  0  0  0  0  0  0  0  0  0  0
   -0.9851    1.3114    0.6698 C   0  0  0  0  0  0  0  0  0  0  0  0
   -2.0377    1.8431    0.3168 O   0  0  0  0  0  0  0  0  0  0  0  0
   -0.1052    1.9265    1.4663 N   0  0  0  0  0  0  0  0  0  0  0  0
    0.7810    1.4586    1.6201 H   0  0  0  0  0  0  0  0  0  0  0  0
   -0.2724    3.2715    2.0119 C   0  0  0  0  0  0  0  0  0  0  0  0
   -1.3249    3.4549    2.2426 H   0  0  0  0  0  0  0  0  0  0  0  0
    0.3167    3.3776    2.9239 H   0  0  0  0  0  0  0  0  0  0  0  0
    0.0609    4.0073    1.2782 H   0  0  0  0  0  0  0  0  0  0  0  0
  5  6  2  0  0  0  0
  5  7  1  0  0  0  0
  2  3  1  0  0  0  0
  2  4  1  0  0  0  0
  2  5  1  0  0  0  0
  1  2  1  0  0  0  0
 22 23  2  0  0  0  0
 22 24  1  0  0  0  0
 20 21  1  0  0  0  0
 18 19  1  0  0  0  0
 18 20  1  0  0  0  0
 16 17  1  0  0  0  0
 16 18  1  0  0  0  0
 15 16  2  0  0  0  0
 14 15  1  0  0  0  0
 14 20  2  0  0  0  0
 11 12  1  0  0  0  0
 11 13  1  0  0  0  0
 11 14  1  0  0  0  0
  9 10  1  0  0  0  0
  9 11  1  0  0  0  0
  9 22  1  0  0  0  0
  7  8  1  0  0  0  0
  7  9  1  0  0  0  0
 26 27  1  0  0  0  0
 26 28  1  0  0  0  0
 26 29  1  0  0  0  0
 24 25  1  0  0  0  0
 24 26  1  0  0  0  0
M  END
$$$$
default_name
  -OEChem-02102213163D

 29 29  0     1  0  0  0  0  0999 V2000
   -2.9561   -3.9186    1.3887 H   0  0  0  0  0  0  0  0  0  0  0  0
   -3.1191   -2.9346    0.9517 C   0  0  0  0  0  0  0  0  0  0  0  0
   -3.7811   -2.3546    1.5917 H   0  0  0  0  0  0  0  0  0  0  0  0
   -3.5591   -3.0406   -0.0383 H   0  0  0  0  0  0  0  0  0  0  0  0
   -1.7921   -2.2226    0.8327 C   0  0  0  0  0  0  0  0  0  0  0  0
   -0.7611   -2.7766    1.1927 O   0  0  0  0  0  0  0  0  0  0  0  0
   -1.8201   -0.9926    0.3247 N   0  0  0  0  0  0  0  0  0  0  0  0
   -2.7141   -0.5816    0.0927 H   0  0  0  0  0  0  0  0  0  0  0  0
   -0.6481   -0.1156    0.2017 C   0  0  1  0  0  0  0  0  0  0  0  0
    0.1344   -0.4988    0.8596 H   0  0  0  0  0  0  0  0  0  0  0  0
   -0.1211   -0.1520   -1.2460 C   0  0  0  0  0  0  0  0  0  0  0  0
   -0.1602    0.8489   -1.6784 H   0  0  0  0  0  0  0  0  0  0  0  0
    0.9220   -0.4712   -1.2510 H   0  0  0  0  0  0  0  0  0  0  0  0
   -0.9286   -1.0595   -2.1417 C   0  0  0  0  0  0  0  0  0  0  0  0
   -1.3667   -0.7563   -3.4315 N   0  0  0  0  0  0  0  0  0  0  0  0
   -1.9989   -1.8531   -3.8741 C   0  0  0  0  0  0  0  0  0  0  0  0
   -2.4686   -1.9392   -4.8458 H   0  0  0  0  0  0  0  0  0  0  0  0
   -1.9568   -2.8251   -2.9475 N   0  0  0  0  0  0  0  0  0  0  0  0
   -2.3456   -3.7523   -3.0524 H   0  0  0  0  0  0  0  0  0  0  0  0
   -1.2815   -2.3442   -1.8479 C   0  0  0  0  0  0  0  0  0  0  0  0
   -1.0482   -2.8725   -0.9320 H   0  0  0  0  0  0  0  0  0  0  0  0
   -0.9851    1.3114    0.6698 C   0  0  0  0  0  0  0  0  0  0  0  0
   -2.0377    1.8431    0.3168 O   0  0  0  0  0  0  0  0  0  0  0  0
   -0.1052    1.9265    1.4663 N   0  0  0  0  0  0  0  0  0  0  0  0
    0.7810    1.4586    1.6201 H   0  0  0  0  0  0  0  0  0  0  0  0
   -0.2724    3.2715    2.0119 C   0  0  0  0  0  0  0  0  0  0  0  0
   -1.3249    3.4549    2.2426 H   0  0  0  0  0  0  0  0  0  0  0  0
    0.3167    3.3776    2.9239 H   0  0  0  0  0  0  0  0  0  0  0  0
    0.0609    4.0073    1.2782 H   0  0  0  0  0  0  0  0  0  0  0  0
  5  6  2  0  0  0  0
  5  7  1  0  0  0  0
  2  3  1  0  0  0  0
  2  4  1  0  0  0  0
  2  5  1  0  0  0  0
  1  2  1  0  0  0  0
 22 23  2  0  0  0  0
 22 24  1  0  0  0  0
 20 21  1  0  0  0  0
 18 19  1  0  0  0  0
 18 20  1  0  0  0  0
 16 17  1  0  0  0  0
 16 18  1  0  0  0  0
 15 16  2  0  0  0  0
 14 15  1  0  0  0  0
 14 20  2  0  0  0  0
 11 12  1  0  0  0  0
 11 13  1  0  0  0  0
 11 14  1  0  0  0  0
  9 10  1  0  0  0  0
  9 11  1  0  0  0  0
  9 22  1  0  0  0  0
  7  8  1  0  0  0  0
  7  9  1  0  0  0  0
 26 27  1  0  0  0  0
 26 28  1  0  0  0  0
 26 29  1  0  0  0  0
 24 25  1  0  0  0  0
 24 26  1  0  0  0  0
M  END
$$$$
default_name
  -OEChem-02102213163D

 29 29  0     1  0  0  0  0  0999 V2000
   -2.9561   -3.9186    1.3887 H   0  0  0  0  0  0  0  0  0  0  0  0
   -3.1191   -2.9346    0.9517 C   0  0  0  0  0  0  0  0  0  0  0  0
   -3.7811   -2.3546    1.5917 H   0  0  0  0  0  0  0  0  0  0  0  0
   -3.5591   -3.0406   -0.0383 H   0  0  0  0  0  0  0  0  0  0  0  0
   -1.7921   -2.2226    0.8327 C   0  0  0  0  0  0  0  0  0  0  0  0
   -0.7611   -2.7766    1.1927 O   0  0  0  0  0  0  0  0  0  0  0  0
   -1.8201   -0.9926    0.3247 N   0  0  0  0  0  0  0  0  0  0  0  0
   -2.7141   -0.5816    0.0927 H   0  0  0  0  0  0  0  0  0  0  0  0
   -0.6481   -0.1156    0.2017 C   0  0  1  0  0  0  0  0  0  0  0  0
    0.1344   -0.4988    0.8596 H   0  0  0  0  0  0  0  0  0  0  0  0
   -0.1211   -0.1520   -1.2460 C   0  0  0  0  0  0  0  0  0  0  0  0
   -0.1602    0.8489   -1.6784 H   0  0  0  0  0  0  0  0  0  0  0  0
    0.9220   -0.4712   -1.2510 H   0  0  0  0  0  0  0  0  0  0  0  0
   -0.9286   -1.0595   -2.1417 C   0  0  0  0  0  0  0  0  0  0  0  0
   -1.1194   -0.8947   -3.5142 N   0  0  0  0  0  0  0  0  0  0  0  0
   -1.8525   -1.9441   -3.9138 C   0  0  0  0  0  0  0  0  0  0  0  0
   -2.1843   -2.1077   -4.9313 H   0  0  0  0  0  0  0  0  0  0  0  0
   -2.1057   -2.7615   -2.8778 N   0  0  0  0  0  0  0  0  0  0  0  0
   -2.6224   -3.6288   -2.9281 H   0  0  0  0  0  0  0  0  0  0  0  0
   -1.5269   -2.2217   -1.7508 C   0  0  0  0  0  0  0  0  0  0  0  0
   -1.5188   -2.6338   -0.7496 H   0  0  0  0  0  0  0  0  0  0  0  0
   -0.9851    1.3114    0.6698 C   0  0  0  0  0  0  0  0  0  0  0  0
   -2.0377    1.8431    0.3168 O   0  0  0  0  0  0  0  0  0  0  0  0
   -0.1052    1.9265    1.4663 N   0  0  0  0  0  0  0  0  0  0  0  0
    0.7810    1.4586    1.6201 H   0  0  0  0  0  0  0  0  0  0  0  0
   -0.2724    3.2715    2.0119 C   0  0  0  0  0  0  0  0  0  0  0  0
   -1.3249    3.4549    2.2426 H   0  0  0  0  0  0  0  0  0  0  0  0
    0.3167    3.3776    2.9239 H   0  0  0  0  0  0  0  0  0  0  0  0
    0.0609    4.0073    1.2782 H   0  0  0  0  0  0  0  0  0  0  0  0
  5  6  2  0  0  0  0
  5  7  1  0  0  0  0
  2  3  1  0  0  0  0
  2  4  1  0  0  0  0
  2  5  1  0  0  0  0
  1  2  1  0  0  0  0
 22 23  2  0  0  0  0
 22 24  1  0  0  0  0
 20 21  1  0  0  0  0
 18 19  1  0  0  0  0
 18 20  1  0  0  0  0
 16 17  1  0  0  0  0
 16 18  1  0  0  0  0
 15 16  2  0  0  0  0
 14 15  1  0  0  0  0
 14 20  2  0  0  0  0
 11 12  1  0  0  0  0
 11 13  1  0  0  0  0
 11 14  1  0  0  0  0
  9 10  1  0  0  0  0
  9 11  1  0  0  0  0
  9 22  1  0  0  0  0
  7  8  1  0  0  0  0
  7  9  1  0  0  0  0
 26 27  1  0  0  0  0
 26 28  1  0  0  0  0
 26 29  1  0  0  0  0
 24 25  1  0  0  0  0
 24 26  1  0  0  0  0
M  END
$$$$
default_name
  -OEChem-02102213163D

 29 29  0     1  0  0  0  0  0999 V2000
   -2.9561   -3.9186    1.3887 H   0  0  0  0  0  0  0  0  0  0  0  0
   -3.1191   -2.9346    0.9517 C   0  0  0  0  0  0  0  0  0  0  0  0
   -3.7811   -2.3546    1.5917 H   0  0  0  0  0  0  0  0  0  0  0  0
   -3.5591   -3.0406   -0.0383 H   0  0  0  0  0  0  0  0  0  0  0  0
   -1.7921   -2.2226    0.8327 C   0  0  0  0  0  0  0  0  0  0  0  0
   -0.7611   -2.7766    1.1927 O   0  0  0  0  0  0  0  0  0  0  0  0
   -1.8201   -0.9926    0.3247 N   0  0  0  0  0  0  0  0  0  0  0  0
   -2.7141   -0.5816    0.0927 H   0  0  0  0  0  0  0  0  0  0  0  0
   -0.6481   -0.1156    0.2017 C   0  0  1  0  0  0  0  0  0  0  0  0
    0.1344   -0.4988    0.8596 H   0  0  0  0  0  0  0  0  0  0  0  0
   -0.1211   -0.1520   -1.2460 C   0  0  0  0  0  0  0  0  0  0  0  0
   -0.1602    0.8489   -1.6784 H   0  0  0  0  0  0  0  0  0  0  0  0
    0.9220   -0.4712   -1.2510 H   0  0  0  0  0  0  0  0  0  0  0  0
   -0.9286   -1.0595   -2.1417 C   0  0  0  0  0  0  0  0  0  0  0  0
   -0.8889   -1.0778   -3.5365 N   0  0  0  0  0  0  0  0  0  0  0  0
   -1.7190   -2.0600   -3.9167 C   0  0  0  0  0  0  0  0  0  0  0  0
   -1.9223   -2.3260   -4.9464 H   0  0  0  0  0  0  0  0  0  0  0  0
   -2.2505   -2.6674   -2.8425 N   0  0  0  0  0  0  0  0  0  0  0  0
   -2.8901   -3.4498   -2.8681 H   0  0  0  0  0  0  0  0  0  0  0  0
   -1.7601   -2.0522   -1.7122 C   0  0  0  0  0  0  0  0  0  0  0  0
   -1.9651   -2.3057   -0.6797 H   0  0  0  0  0  0  0  0  0  0  0  0
   -0.9851    1.3114    0.6698 C   0  0  0  0  0  0  0  0  0  0  0  0
   -2.0377    1.8431    0.3168 O   0  0  0  0  0  0  0  0  0  0  0  0
   -0.1052    1.9265    1.4663 N   0  0  0  0  0  0  0  0  0  0  0  0
    0.7810    1.4586    1.6201 H   0  0  0  0  0  0  0  0  0  0  0  0
   -0.2724    3.2715    2.0119 C   0  0  0  0  0  0  0  0  0  0  0  0
   -1.3249    3.4549    2.2426 H   0  0  0  0  0  0  0  0  0  0  0  0
    0.3167    3.3776    2.9239 H   0  0  0  0  0  0  0  0  0  0  0  0
    0.0609    4.0073    1.2782 H   0  0  0  0  0  0  0  0  0  0  0  0
  5  6  2  0  0  0  0
  5  7  1  0  0  0  0
  2  3  1  0  0  0  0
  2  4  1  0  0  0  0
  2  5  1  0  0  0  0
  1  2  1  0  0  0  0
 22 23  2  0  0  0  0
 22 24  1  0  0  0  0
 20 21  1  0  0  0  0
 18 19  1  0  0  0  0
 18 20  1  0  0  0  0
 16 17  1  0  0  0  0
 16 18  1  0  0  0  0
 15 16  2  0  0  0  0
 14 15  1  0  0  0  0
 14 20  2  0  0  0  0
 11 12  1  0  0  0  0
 11 13  1  0  0  0  0
 11 14  1  0  0  0  0
  9 10  1  0  0  0  0
  9 11  1  0  0  0  0
  9 22  1  0  0  0  0
  7  8  1  0  0  0  0
  7  9  1  0  0  0  0
 26 27  1  0  0  0  0
 26 28  1  0  0  0  0
 26 29  1  0  0  0  0
 24 25  1  0  0  0  0
 24 26  1  0  0  0  0
M  END
$$$$
default_name
  -OEChem-02102213163D

 29 29  0     1  0  0  0  0  0999 V2000
   -2.9561   -3.9186    1.3887 H   0  0  0  0  0  0  0  0  0  0  0  0
   -3.1191   -2.9346    0.9517 C   0  0  0  0  0  0  0  0  0  0  0  0
   -3.7811   -2.3546    1.5917 H   0  0  0  0  0  0  0  0  0  0  0  0
   -3.5591   -3.0406   -0.0383 H   0  0  0  0  0  0  0  0  0  0  0  0
   -1.7921   -2.2226    0.8327 C   0  0  0  0  0  0  0  0  0  0  0  0
   -0.7611   -2.7766    1.1927 O   0  0  0  0  0  0  0  0  0  0  0  0
   -1.8201   -0.9926    0.3247 N   0  0  0  0  0  0  0  0  0  0  0  0
   -2.7141   -0.5816    0.0927 H   0  0  0  0  0  0  0  0  0  0  0  0
   -0.6481   -0.1156    0.2017 C   0  0  1  0  0  0  0  0  0  0  0  0
    0.1344   -0.4988    0.8596 H   0  0  0  0  0  0  0  0  0  0  0  0
   -0.1211   -0.1520   -1.2460 C   0  0  0  0  0  0  0  0  0  0  0  0
    0.0914    0.8623   -1.5871 H   0  0  0  0  0  0  0  0  0  0  0  0
    0.8132   -0.7138   -1.2846 H   0  0  0  0  0  0  0  0  0  0  0  0
   -1.1094   -0.7535   -2.2152 C   0  0  0  0  0  0  0  0  0  0  0  0
   -0.9125   -0.9181   -3.5869 N   0  0  0  0  0  0  0  0  0  0  0  0
   -2.0133   -1.5302   -4.0472 C   0  0  0  0  0  0  0  0  0  0  0  0
   -2.1802   -1.7923   -5.0843 H   0  0  0  0  0  0  0  0  0  0  0  0
   -2.8684   -1.7774   -3.0407 N   0  0  0  0  0  0  0  0  0  0  0  0
   -3.7591   -2.2470   -3.1301 H   0  0  0  0  0  0  0  0  0  0  0  0
   -2.3134   -1.2977   -1.8752 C   0  0  0  0  0  0  0  0  0  0  0  0
   -2.7253   -1.3520   -0.8754 H   0  0  0  0  0  0  0  0  0  0  0  0
   -0.9851    1.3114    0.6698 C   0  0  0  0  0  0  0  0  0  0  0  0
   -2.0377    1.8431    0.3168 O   0  0  0  0  0  0  0  0  0  0  0  0
   -0.1052    1.9265    1.4663 N   0  0  0  0  0  0  0  0  0  0  0  0
    0.7810    1.4586    1.6201 H   0  0  0  0  0  0  0  0  0  0  0  0
   -0.2724    3.2715    2.0119 C   0  0  0  0  0  0  0  0  0  0  0  0
   -1.3249    3.4549    2.2426 H   0  0  0  0  0  0  0  0  0  0  0  0
    0.3167    3.3776    2.9239 H   0  0  0  0  0  0  0  0  0  0  0  0
    0.0609    4.0073    1.2782 H   0  0  0  0  0  0  0  0  0  0  0  0
  5  6  2  0  0  0  0
  5  7  1  0  0  0  0
  2  3  1  0  0  0  0
  2  4  1  0  0  0  0
  2  5  1  0  0  0  0
  1  2  1  0  0  0  0
 22 23  2  0  0  0  0
 22 24  1  0  0  0  0
 20 21  1  0  0  0  0
 18 19  1  0  0  0  0
 18 20  1  0  0  0  0
 16 17  1  0  0  0  0
 16 18  1  0  0  0  0
 15 16  2  0  0  0  0
 14 15  1  0  0  0  0
 14 20  2  0  0  0  0
 11 12  1  0  0  0  0
 11 13  1  0  0  0  0
 11 14  1  0  0  0  0
  9 10  1  0  0  0  0
  9 11  1  0  0  0  0
  9 22  1  0  0  0  0
  7  8  1  0  0  0  0
  7  9  1  0  0  0  0
 26 27  1  0  0  0  0
 26 28  1  0  0  0  0
 26 29  1  0  0  0  0
 24 25  1  0  0  0  0
 24 26  1  0  0  0  0
M  END
$$$$
default_name
  -OEChem-02102213163D

 29 29  0     1  0  0  0  0  0999 V2000
   -2.9561   -3.9186    1.3887 H   0  0  0  0  0  0  0  0  0  0  0  0
   -3.1191   -2.9346    0.9517 C   0  0  0  0  0  0  0  0  0  0  0  0
   -3.7811   -2.3546    1.5917 H   0  0  0  0  0  0  0  0  0  0  0  0
   -3.5591   -3.0406   -0.0383 H   0  0  0  0  0  0  0  0  0  0  0  0
   -1.7921   -2.2226    0.8327 C   0  0  0  0  0  0  0  0  0  0  0  0
   -0.7611   -2.7766    1.1927 O   0  0  0  0  0  0  0  0  0  0  0  0
   -1.8201   -0.9926    0.3247 N   0  0  0  0  0  0  0  0  0  0  0  0
   -2.7141   -0.5816    0.0927 H   0  0  0  0  0  0  0  0  0  0  0  0
   -0.6481   -0.1156    0.2017 C   0  0  1  0  0  0  0  0  0  0  0  0
    0.1344   -0.4988    0.8596 H   0  0  0  0  0  0  0  0  0  0  0  0
   -0.1211   -0.1520   -1.2460 C   0  0  0  0  0  0  0  0  0  0  0  0
    0.0914    0.8623   -1.5871 H   0  0  0  0  0  0  0  0  0  0  0  0
    0.8132   -0.7138   -1.2846 H   0  0  0  0  0  0  0  0  0  0  0  0
   -1.1094   -0.7535   -2.2152 C   0  0  0  0  0  0  0  0  0  0  0  0
   -0.8233   -1.1888   -3.5098 N   0  0  0  0  0  0  0  0  0  0  0  0
   -1.9690   -1.6922   -3.9918 C   0  0  0  0  0  0  0  0  0  0  0  0
   -2.0864   -2.1054   -4.9857 H   0  0  0  0  0  0  0  0  0  0  0  0
   -2.9402   -1.6184   -3.0662 N   0  0  0  0  0  0  0  0  0  0  0  0
   -3.8878   -1.9504   -3.1830 H   0  0  0  0  0  0  0  0  0  0  0  0
   -2.4154   -1.0321   -1.9360 C   0  0  0  0  0  0  0  0  0  0  0  0
   -2.9177   -0.8419   -0.9958 H   0  0  0  0  0  0  0  0  0  0  0  0
   -0.9851    1.3114    0.6698 C   0  0  0  0  0  0  0  0  0  0  0  0
   -2.0377    1.8431    0.3168 O   0  0  0  0  0  0  0  0  0  0  0  0
   -0.1052    1.9265    1.4663 N   0  0  0  0  0  0  0  0  0  0  0  0
    0.7810    1.4586    1.6201 H   0  0  0  0  0  0  0  0  0  0  0  0
   -0.2724    3.2715    2.0119 C   0  0  0  0  0  0  0  0  0  0  0  0
   -1.3249    3.4549    2.2426 H   0  0  0  0  0  0  0  0  0  0  0  0
    0.3167    3.3776    2.9239 H   0  0  0  0  0  0  0  0  0  0  0  0
    0.0609    4.0073    1.2782 H   0  0  0  0  0  0  0  0  0  0  0  0
  5  6  2  0  0  0  0
  5  7  1  0  0  0  0
  2  3  1  0  0  0  0
  2  4  1  0  0  0  0
  2  5  1  0  0  0  0
  1  2  1  0  0  0  0
 22 23  2  0  0  0  0
 22 24  1  0  0  0  0
 20 21  1  0  0  0  0
 18 19  1  0  0  0  0
 18 20  1  0  0  0  0
 16 17  1  0  0  0  0
 16 18  1  0  0  0  0
 15 16  2  0  0  0  0
 14 15  1  0  0  0  0
 14 20  2  0  0  0  0
 11 12  1  0  0  0  0
 11 13  1  0  0  0  0
 11 14  1  0  0  0  0
  9 10  1  0  0  0  0
  9 11  1  0  0  0  0
  9 22  1  0  0  0  0
  7  8  1  0  0  0  0
  7  9  1  0  0  0  0
 26 27  1  0  0  0  0
 26 28  1  0  0  0  0
 26 29  1  0  0  0  0
 24 25  1  0  0  0  0
 24 26  1  0  0  0  0
M  END
$$$$
default_name
  -OEChem-02102213163D

 29 29  0     1  0  0  0  0  0999 V2000
   -2.9561   -3.9186    1.3887 H   0  0  0  0  0  0  0  0  0  0  0  0
   -3.1191   -2.9346    0.9517 C   0  0  0  0  0  0  0  0  0  0  0  0
   -3.7811   -2.3546    1.5917 H   0  0  0  0  0  0  0  0  0  0  0  0
   -3.5591   -3.0406   -0.0383 H   0  0  0  0  0  0  0  0  0  0  0  0
   -1.7921   -2.2226    0.8327 C   0  0  0  0  0  0  0  0  0  0  0  0
   -0.7611   -2.7766    1.1927 O   0  0  0  0  0  0  0  0  0  0  0  0
   -1.8201   -0.9926    0.3247 N   0  0  0  0  0  0  0  0  0  0  0  0
   -2.7141   -0.5816    0.0927 H   0  0  0  0  0  0  0  0  0  0  0  0
   -0.6481   -0.1156    0.2017 C   0  0  1  0  0  0  0  0  0  0  0  0
    0.1344   -0.4988    0.8596 H   0  0  0  0  0  0  0  0  0  0  0  0
   -0.1211   -0.1520   -1.2460 C   0  0  0  0  0  0  0  0  0  0  0  0
    0.0914    0.8623   -1.5871 H   0  0  0  0  0  0  0  0  0  0  0  0
    0.8132   -0.7138   -1.2846 H   0  0  0  0  0  0  0  0  0  0  0  0
   -1.1094   -0.7535   -2.2152 C   0  0  0  0  0  0  0  0  0  0  0  0
   -0.7901   -1.4520   -3.3803 N   0  0  0  0  0  0  0  0  0  0  0  0
   -1.9589   -1.8466   -3.9063 C   0  0  0  0  0  0  0  0  0  0  0  0
   -2.0580   -2.4066   -4.8277 H   0  0  0  0  0  0  0  0  0  0  0  0
   -2.9804   -1.4573   -3.1252 N   0  0  0  0  0  0  0  0  0  0  0  0
   -3.9573   -1.6515   -3.2976 H   0  0  0  0  0  0  0  0  0  0  0  0
   -2.4636   -0.7689   -2.0502 C   0  0  0  0  0  0  0  0  0  0  0  0
   -3.0063   -0.3376   -1.2184 H   0  0  0  0  0  0  0  0  0  0  0  0
   -0.9851    1.3114    0.6698 C   0  0  0  0  0  0  0  0  0  0  0  0
   -2.0377    1.8431    0.3168 O   0  0  0  0  0  0  0  0  0  0  0  0
   -0.1052    1.9265    1.4663 N   0  0  0  0  0  0  0  0  0  0  0  0
    0.7810    1.4586    1.6201 H   0  0  0  0  0  0  0  0  0  0  0  0
   -0.2724    3.2715    2.0119 C   0  0  0  0  0  0  0  0  0  0  0  0
   -1.3249    3.4549    2.2426 H   0  0  0  0  0  0  0  0  0  0  0  0
    0.3167    3.3776    2.9239 H   0  0  0  0  0  0  0  0  0  0  0  0
    0.0609    4.0073    1.2782 H   0  0  0  0  0  0  0  0  0  0  0  0
  5  6  2  0  0  0  0
  5  7  1  0  0  0  0
  2  3  1  0  0  0  0
  2  4  1  0  0  0  0
  2  5  1  0  0  0  0
  1  2  1  0  0  0  0
 22 23  2  0  0  0  0
 22 24  1  0  0  0  0
 20 21  1  0  0  0  0
 18 19  1  0  0  0  0
 18 20  1  0  0  0  0
 16 17  1  0  0  0  0
 16 18  1  0  0  0  0
 15 16  2  0  0  0  0
 14 15  1  0  0  0  0
 14 20  2  0  0  0  0
 11 12  1  0  0  0  0
 11 13  1  0  0  0  0
 11 14  1  0  0  0  0
  9 10  1  0  0  0  0
  9 11  1  0  0  0  0
  9 22  1  0  0  0  0
  7  8  1  0  0  0  0
  7  9  1  0  0  0  0
 26 27  1  0  0  0  0
 26 28  1  0  0  0  0
 26 29  1  0  0  0  0
 24 25  1  0  0  0  0
 24 26  1  0  0  0  0
M  END
$$$$
default_name
  -OEChem-02102213163D

 29 29  0     1  0  0  0  0  0999 V2000
   -2.9561   -3.9186    1.3887 H   0  0  0  0  0  0  0  0  0  0  0  0
   -3.1191   -2.9346    0.9517 C   0  0  0  0  0  0  0  0  0  0  0  0
   -3.7811   -2.3546    1.5917 H   0  0  0  0  0  0  0  0  0  0  0  0
   -3.5591   -3.0406   -0.0383 H   0  0  0  0  0  0  0  0  0  0  0  0
   -1.7921   -2.2226    0.8327 C   0  0  0  0  0  0  0  0  0  0  0  0
   -0.7611   -2.7766    1.1927 O   0  0  0  0  0  0  0  0  0  0  0  0
   -1.8201   -0.9926    0.3247 N   0  0  0  0  0  0  0  0  0  0  0  0
   -2.7141   -0.5816    0.0927 H   0  0  0  0  0  0  0  0  0  0  0  0
   -0.6481   -0.1156    0.2017 C   0  0  1  0  0  0  0  0  0  0  0  0
    0.1344   -0.4988    0.8596 H   0  0  0  0  0  0  0  0  0  0  0  0
   -0.1211   -0.1520   -1.2460 C   0  0  0  0  0  0  0  0  0  0  0  0
    0.0914    0.8623   -1.5871 H   0  0  0  0  0  0  0  0  0  0  0  0
    0.8132   -0.7138   -1.2846 H   0  0  0  0  0  0  0  0  0  0  0  0
   -1.1094   -0.7535   -2.2152 C   0  0  0  0  0  0  0  0  0  0  0  0
   -0.8152   -1.6898   -3.2072 N   0  0  0  0  0  0  0  0  0  0  0  0
   -1.9835   -1.9830   -3.7965 C   0  0  0  0  0  0  0  0  0  0  0  0
   -2.0970   -2.6755   -4.6210 H   0  0  0  0  0  0  0  0  0  0  0  0
   -2.9864   -1.3049   -3.2136 N   0  0  0  0  0  0  0  0  0  0  0  0
   -3.9630   -1.3706   -3.4661 H   0  0  0  0  0  0  0  0  0  0  0  0
   -2.4546   -0.5260   -2.2101 C   0  0  0  0  0  0  0  0  0  0  0  0
   -2.9851    0.1265   -1.5281 H   0  0  0  0  0  0  0  0  0  0  0  0
   -0.9851    1.3114    0.6698 C   0  0  0  0  0  0  0  0  0  0  0  0
   -2.0377    1.8431    0.3168 O   0  0  0  0  0  0  0  0  0  0  0  0
   -0.1052    1.9265    1.4663 N   0  0  0  0  0  0  0  0  0  0  0  0
    0.7810    1.4586    1.6201 H   0  0  0  0  0  0  0  0  0  0  0  0
   -0.2724    3.2715    2.0119 C   0  0  0  0  0  0  0  0  0  0  0  0
   -1.3249    3.4549    2.2426 H   0  0  0  0  0  0  0  0  0  0  0  0
    0.3167    3.3776    2.9239 H   0  0  0  0  0  0  0  0  0  0  0  0
    0.0609    4.0073    1.2782 H   0  0  0  0  0  0  0  0  0  0  0  0
  5  6  2  0  0  0  0
  5  7  1  0  0  0  0
  2  3  1  0  0  0  0
  2  4  1  0  0  0  0
  2  5  1  0  0  0  0
  1  2  1  0  0  0  0
 22 23  2  0  0  0  0
 22 24  1  0  0  0  0
 20 21  1  0  0  0  0
 18 19  1  0  0  0  0
 18 20  1  0  0  0  0
 16 17  1  0  0  0  0
 16 18  1  0  0  0  0
 15 16  2  0  0  0  0
 14 15  1  0  0  0  0
 14 20  2  0  0  0  0
 11 12  1  0  0  0  0
 11 13  1  0  0  0  0
 11 14  1  0  0  0  0
  9 10  1  0  0  0  0
  9 11  1  0  0  0  0
  9 22  1  0  0  0  0
  7  8  1  0  0  0  0
  7  9  1  0  0  0  0
 26 27  1  0  0  0  0
 26 28  1  0  0  0  0
 26 29  1  0  0  0  0
 24 25  1  0  0  0  0
 24 26  1  0  0  0  0
M  END
$$$$
default_name
  -OEChem-02102213163D

 29 29  0     1  0  0  0  0  0999 V2000
   -2.9561   -3.9186    1.3887 H   0  0  0  0  0  0  0  0  0  0  0  0
   -3.1191   -2.9346    0.9517 C   0  0  0  0  0  0  0  0  0  0  0  0
   -3.7811   -2.3546    1.5917 H   0  0  0  0  0  0  0  0  0  0  0  0
   -3.5591   -3.0406   -0.0383 H   0  0  0  0  0  0  0  0  0  0  0  0
   -1.7921   -2.2226    0.8327 C   0  0  0  0  0  0  0  0  0  0  0  0
   -0.7611   -2.7766    1.1927 O   0  0  0  0  0  0  0  0  0  0  0  0
   -1.8201   -0.9926    0.3247 N   0  0  0  0  0  0  0  0  0  0  0  0
   -2.7141   -0.5816    0.0927 H   0  0  0  0  0  0  0  0  0  0  0  0
   -0.6481   -0.1156    0.2017 C   0  0  1  0  0  0  0  0  0  0  0  0
    0.1344   -0.4988    0.8596 H   0  0  0  0  0  0  0  0  0  0  0  0
   -0.1211   -0.1520   -1.2460 C   0  0  0  0  0  0  0  0  0  0  0  0
    0.0914    0.8623   -1.5871 H   0  0  0  0  0  0  0  0  0  0  0  0
    0.8132   -0.7138   -1.2846 H   0  0  0  0  0  0  0  0  0  0  0  0
   -1.1094   -0.7535   -2.2152 C   0  0  0  0  0  0  0  0  0  0  0  0
   -0.8968   -1.8861   -3.0022 N   0  0  0  0  0  0  0  0  0  0  0  0
   -2.0414   -2.0920   -3.6699 C   0  0  0  0  0  0  0  0  0  0  0  0
   -2.2006   -2.8938   -4.3799 H   0  0  0  0  0  0  0  0  0  0  0  0
   -2.9577   -1.1717   -3.3255 N   0  0  0  0  0  0  0  0  0  0  0  0
   -3.9044   -1.1269   -3.6771 H   0  0  0  0  0  0  0  0  0  0  0  0
   -2.3891   -0.3200   -2.4048 C   0  0  0  0  0  0  0  0  0  0  0  0
   -2.8555    0.5188   -1.9037 H   0  0  0  0  0  0  0  0  0  0  0  0
   -0.9851    1.3114    0.6698 C   0  0  0  0  0  0  0  0  0  0  0  0
   -2.0377    1.8431    0.3168 O   0  0  0  0  0  0  0  0  0  0  0  0
   -0.1052    1.9265    1.4663 N   0  0  0  0  0  0  0  0  0  0  0  0
    0.7810    1.4586    1.6201 H   0  0  0  0  0  0  0  0  0  0  0  0
   -0.2724    3.2715    2.0119 C   0  0  0  0  0  0  0  0  0  0  0  0
   -1.3249    3.4549    2.2426 H   0  0  0  0  0  0  0  0  0  0  0  0
    0.3167    3.3776    2.9239 H   0  0  0  0  0  0  0  0  0  0  0  0
    0.0609    4.0073    1.2782 H   0  0  0  0  0  0  0  0  0  0  0  0
  5  6  2  0  0  0  0
  5  7  1  0  0  0  0
  2  3  1  0  0  0  0
  2  4  1  0  0  0  0
  2  5  1  0  0  0  0
  1  2  1  0  0  0  0
 22 23  2  0  0  0  0
 22 24  1  0  0  0  0
 20 21  1  0  0  0  0
 18 19  1  0  0  0  0
 18 20  1  0  0  0  0
 16 17  1  0  0  0  0
 16 18  1  0  0  0  0
 15 16  2  0  0  0  0
 14 15  1  0  0  0  0
 14 20  2  0  0  0  0
 11 12  1  0  0  0  0
 11 13  1  0  0  0  0
 11 14  1  0  0  0  0
  9 10  1  0  0  0  0
  9 11  1  0  0  0  0
  9 22  1  0  0  0  0
  7  8  1  0  0  0  0
  7  9  1  0  0  0  0
 26 27  1  0  0  0  0
 26 28  1  0  0  0  0
 26 29  1  0  0  0  0
 24 25  1  0  0  0  0
 24 26  1  0  0  0  0
M  END
$$$$
default_name
  -OEChem-02102213163D

 29 29  0     1  0  0  0  0  0999 V2000
   -2.9561   -3.9186    1.3887 H   0  0  0  0  0  0  0  0  0  0  0  0
   -3.1191   -2.9346    0.9517 C   0  0  0  0  0  0  0  0  0  0  0  0
   -3.7811   -2.3546    1.5917 H   0  0  0  0  0  0  0  0  0  0  0  0
   -3.5591   -3.0406   -0.0383 H   0  0  0  0  0  0  0  0  0  0  0  0
   -1.7921   -2.2226    0.8327 C   0  0  0  0  0  0  0  0  0  0  0  0
   -0.7611   -2.7766    1.1927 O   0  0  0  0  0  0  0  0  0  0  0  0
   -1.8201   -0.9926    0.3247 N   0  0  0  0  0  0  0  0  0  0  0  0
   -2.7141   -0.5816    0.0927 H   0  0  0  0  0  0  0  0  0  0  0  0
   -0.6481   -0.1156    0.2017 C   0  0  1  0  0  0  0  0  0  0  0  0
    0.1344   -0.4988    0.8596 H   0  0  0  0  0  0  0  0  0  0  0  0
   -0.1211   -0.1520   -1.2460 C   0  0  0  0  0  0  0  0  0  0  0  0
    0.0914    0.8623   -1.5871 H   0  0  0  0  0  0  0  0  0  0  0  0
    0.8132   -0.7138   -1.2846 H   0  0  0  0  0  0  0  0  0  0  0  0
   -1.1094   -0.7535   -2.2152 C   0  0  0  0  0  0  0  0  0  0  0  0
   -1.0293   -2.0273   -2.7794 N   0  0  0  0  0  0  0  0  0  0  0  0
   -2.1284   -2.1663   -3.5351 C   0  0  0  0  0  0  0  0  0  0  0  0
   -2.3619   -3.0465   -4.1206 H   0  0  0  0  0  0  0  0  0  0  0  0
   -2.8964   -1.0668   -3.4532 N   0  0  0  0  0  0  0  0  0  0  0  0
   -3.7856   -0.9370   -3.9161 H   0  0  0  0  0  0  0  0  0  0  0  0
   -2.2714   -0.1649   -2.6210 C   0  0  0  0  0  0  0  0  0  0  0  0
   -2.6264    0.8126   -2.3196 H   0  0  0  0  0  0  0  0  0  0  0  0
   -0.9851    1.3114    0.6698 C   0  0  0  0  0  0  0  0  0  0  0  0
   -2.0377    1.8431    0.3168 O   0  0  0  0  0  0  0  0  0  0  0  0
   -0.1052    1.9265    1.4663 N   0  0  0  0  0  0  0  0  0  0  0  0
    0.7810    1.4586    1.6201 H   0  0  0  0  0  0  0  0  0  0  0  0
   -0.2724    3.2715    2.0119 C   0  0  0  0  0  0  0  0  0  0  0  0
   -1.3249    3.4549    2.2426 H   0  0  0  0  0  0  0  0  0  0  0  0
    0.3167    3.3776    2.9239 H   0  0  0  0  0  0  0  0  0  0  0  0
    0.0609    4.0073    1.2782 H   0  0  0  0  0  0  0  0  0  0  0  0
  5  6  2  0  0  0  0
  5  7  1  0  0  0  0
  2  3  1  0  0  0  0
  2  4  1  0  0  0  0
  2  5  1  0  0  0  0
  1  2  1  0  0  0  0
 22 23  2  0  0  0  0
 22 24  1  0  0  0  0
 20 21  1  0  0  0  0
 18 19  1  0  0  0  0
 18 20  1  0  0  0  0
 16 17  1  0  0  0  0
 16 18  1  0  0  0  0
 15 16  2  0  0  0  0
 14 15  1  0  0  0  0
 14 20  2  0  0  0  0
 11 12  1  0  0  0  0
 11 13  1  0  0  0  0
 11 14  1  0  0  0  0
  9 10  1  0  0  0  0
  9 11  1  0  0  0  0
  9 22  1  0  0  0  0
  7  8  1  0  0  0  0
  7  9  1  0  0  0  0
 26 27  1  0  0  0  0
 26 28  1  0  0  0  0
 26 29  1  0  0  0  0
 24 25  1  0  0  0  0
 24 26  1  0  0  0  0
M  END
$$$$
default_name
  -OEChem-02102213163D

 29 29  0     1  0  0  0  0  0999 V2000
   -2.9561   -3.9186    1.3887 H   0  0  0  0  0  0  0  0  0  0  0  0
   -3.1191   -2.9346    0.9517 C   0  0  0  0  0  0  0  0  0  0  0  0
   -3.7811   -2.3546    1.5917 H   0  0  0  0  0  0  0  0  0  0  0  0
   -3.5591   -3.0406   -0.0383 H   0  0  0  0  0  0  0  0  0  0  0  0
   -1.7921   -2.2226    0.8327 C   0  0  0  0  0  0  0  0  0  0  0  0
   -0.7611   -2.7766    1.1927 O   0  0  0  0  0  0  0  0  0  0  0  0
   -1.8201   -0.9926    0.3247 N   0  0  0  0  0  0  0  0  0  0  0  0
   -2.7141   -0.5816    0.0927 H   0  0  0  0  0  0  0  0  0  0  0  0
   -0.6481   -0.1156    0.2017 C   0  0  1  0  0  0  0  0  0  0  0  0
    0.1344   -0.4988    0.8596 H   0  0  0  0  0  0  0  0  0  0  0  0
   -0.1211   -0.1520   -1.2460 C   0  0  0  0  0  0  0  0  0  0  0  0
    0.0914    0.8623   -1.5871 H   0  0  0  0  0  0  0  0  0  0  0  0
    0.8132   -0.7138   -1.2846 H   0  0  0  0  0  0  0  0  0  0  0  0
   -1.1094   -0.7535   -2.2152 C   0  0  0  0  0  0  0  0  0  0  0  0
   -1.2038   -2.1039   -2.5539 N   0  0  0  0  0  0  0  0  0  0  0  0
   -2.2387   -2.2007   -3.4012 C   0  0  0  0  0  0  0  0  0  0  0  0
   -2.5698   -3.1233   -3.8610 H   0  0  0  0  0  0  0  0  0  0  0  0
   -2.8065   -0.9973   -3.5879 N   0  0  0  0  0  0  0  0  0  0  0  0
   -3.6146   -0.8139   -4.1669 H   0  0  0  0  0  0  0  0  0  0  0  0
   -2.1097   -0.0713   -2.8440 C   0  0  0  0  0  0  0  0  0  0  0  0
   -2.3134    0.9877   -2.7474 H   0  0  0  0  0  0  0  0  0  0  0  0
   -0.9851    1.3114    0.6698 C   0  0  0  0  0  0  0  0  0  0  0  0
   -2.0377    1.8431    0.3168 O   0  0  0  0  0  0  0  0  0  0  0  0
   -0.1052    1.9265    1.4663 N   0  0  0  0  0  0  0  0  0  0  0  0
    0.7810    1.4586    1.6201 H   0  0  0  0  0  0  0  0  0  0  0  0
   -0.2724    3.2715    2.0119 C   0  0  0  0  0  0  0  0  0  0  0  0
   -1.3249    3.4549    2.2426 H   0  0  0  0  0  0  0  0  0  0  0  0
    0.3167    3.3776    2.9239 H   0  0  0  0  0  0  0  0  0  0  0  0
    0.0609    4.0073    1.2782 H   0  0  0  0  0  0  0  0  0  0  0  0
  5  6  2  0  0  0  0
  5  7  1  0  0  0  0
  2  3  1  0  0  0  0
  2  4  1  0  0  0  0
  2  5  1  0  0  0  0
  1  2  1  0  0  0  0
 22 23  2  0  0  0  0
 22 24  1  0  0  0  0
 20 21  1  0  0  0  0
 18 19  1  0  0  0  0
 18 20  1  0  0  0  0
 16 17  1  0  0  0  0
 16 18  1  0  0  0  0
 15 16  2  0  0  0  0
 14 15  1  0  0  0  0
 14 20  2  0  0  0  0
 11 12  1  0  0  0  0
 11 13  1  0  0  0  0
 11 14  1  0  0  0  0
  9 10  1  0  0  0  0
  9 11  1  0  0  0  0
  9 22  1  0  0  0  0
  7  8  1  0  0  0  0
  7  9  1  0  0  0  0
 26 27  1  0  0  0  0
 26 28  1  0  0  0  0
 26 29  1  0  0  0  0
 24 25  1  0  0  0  0
 24 26  1  0  0  0  0
M  END
$$$$
default_name
  -OEChem-02102213163D

 29 29  0     1  0  0  0  0  0999 V2000
   -2.9561   -3.9186    1.3887 H   0  0  0  0  0  0  0  0  0  0  0  0
   -3.1191   -2.9346    0.9517 C   0  0  0  0  0  0  0  0  0  0  0  0
   -3.7811   -2.3546    1.5917 H   0  0  0  0  0  0  0  0  0  0  0  0
   -3.5591   -3.0406   -0.0383 H   0  0  0  0  0  0  0  0  0  0  0  0
   -1.7921   -2.2226    0.8327 C   0  0  0  0  0  0  0  0  0  0  0  0
   -0.7611   -2.7766    1.1927 O   0  0  0  0  0  0  0  0  0  0  0  0
   -1.8201   -0.9926    0.3247 N   0  0  0  0  0  0  0  0  0  0  0  0
   -2.7141   -0.5816    0.0927 H   0  0  0  0  0  0  0  0  0  0  0  0
   -0.6481   -0.1156    0.2017 C   0  0  1  0  0  0  0  0  0  0  0  0
    0.1344   -0.4988    0.8596 H   0  0  0  0  0  0  0  0  0  0  0  0
   -0.1211   -0.1520   -1.2460 C   0  0  0  0  0  0  0  0  0  0  0  0
    0.0914    0.8623   -1.5871 H   0  0  0  0  0  0  0  0  0  0  0  0
    0.8132   -0.7138   -1.2846 H   0  0  0  0  0  0  0  0  0  0  0  0
   -1.1094   -0.7535   -2.2152 C   0  0  0  0  0  0  0  0  0  0  0  0
   -1.4084   -2.1107   -2.3411 N   0  0  0  0  0  0  0  0  0  0  0  0
   -2.3648   -2.1929   -3.2775 C   0  0  0  0  0  0  0  0  0  0  0  0
   -2.8102   -3.1189   -3.6186 H   0  0  0  0  0  0  0  0  0  0  0  0
   -2.6943   -0.9680   -3.7206 N   0  0  0  0  0  0  0  0  0  0  0  0
   -3.4030   -0.7658   -4.4124 H   0  0  0  0  0  0  0  0  0  0  0  0
   -1.9150   -0.0455   -3.0586 C   0  0  0  0  0  0  0  0  0  0  0  0
   -1.9378    1.0324   -3.1581 H   0  0  0  0  0  0  0  0  0  0  0  0
   -0.9851    1.3114    0.6698 C   0  0  0  0  0  0  0  0  0  0  0  0
   -2.0377    1.8431    0.3168 O   0  0  0  0  0  0  0  0  0  0  0  0
   -0.1052    1.9265    1.4663 N   0  0  0  0  0  0  0  0  0  0  0  0
    0.7810    1.4586    1.6201 H   0  0  0  0  0  0  0  0  0  0  0  0
   -0.2724    3.2715    2.0119 C   0  0  0  0  0  0  0  0  0  0  0  0
   -1.3249    3.4549    2.2426 H   0  0  0  0  0  0  0  0  0  0  0  0
    0.3167    3.3776    2.9239 H   0  0  0  0  0  0  0  0  0  0  0  0
    0.0609    4.0073    1.2782 H   0  0  0  0  0  0  0  0  0  0  0  0
  5  6  2  0  0  0  0
  5  7  1  0  0  0  0
  2  3  1  0  0  0  0
  2  4  1  0  0  0  0
  2  5  1  0  0  0  0
  1  2  1  0  0  0  0
 22 23  2  0  0  0  0
 22 24  1  0  0  0  0
 20 21  1  0  0  0  0
 18 19  1  0  0  0  0
 18 20  1  0  0  0  0
 16 17  1  0  0  0  0
 16 18  1  0  0  0  0
 15 16  2  0  0  0  0
 14 15  1  0  0  0  0
 14 20  2  0  0  0  0
 11 12  1  0  0  0  0
 11 13  1  0  0  0  0
 11 14  1  0  0  0  0
  9 10  1  0  0  0  0
  9 11  1  0  0  0  0
  9 22  1  0  0  0  0
  7  8  1  0  0  0  0
  7  9  1  0  0  0  0
 26 27  1  0  0  0  0
 26 28  1  0  0  0  0
 26 29  1  0  0  0  0
 24 25  1  0  0  0  0
 24 26  1  0  0  0  0
M  END
$$$$
default_name
  -OEChem-02102213163D

 29 29  0     1  0  0  0  0  0999 V2000
   -2.9561   -3.9186    1.3887 H   0  0  0  0  0  0  0  0  0  0  0  0
   -3.1191   -2.9346    0.9517 C   0  0  0  0  0  0  0  0  0  0  0  0
   -3.7811   -2.3546    1.5917 H   0  0  0  0  0  0  0  0  0  0  0  0
   -3.5591   -3.0406   -0.0383 H   0  0  0  0  0  0  0  0  0  0  0  0
   -1.7921   -2.2226    0.8327 C   0  0  0  0  0  0  0  0  0  0  0  0
   -0.7611   -2.7766    1.1927 O   0  0  0  0  0  0  0  0  0  0  0  0
   -1.8201   -0.9926    0.3247 N   0  0  0  0  0  0  0  0  0  0  0  0
   -2.7141   -0.5816    0.0927 H   0  0  0  0  0  0  0  0  0  0  0  0
   -0.6481   -0.1156    0.2017 C   0  0  1  0  0  0  0  0  0  0  0  0
    0.1344   -0.4988    0.8596 H   0  0  0  0  0  0  0  0  0  0  0  0
   -0.1211   -0.1520   -1.2460 C   0  0  0  0  0  0  0  0  0  0  0  0
    0.0914    0.8623   -1.5871 H   0  0  0  0  0  0  0  0  0  0  0  0
    0.8132   -0.7138   -1.2846 H   0  0  0  0  0  0  0  0  0  0  0  0
   -1.1094   -0.7535   -2.2152 C   0  0  0  0  0  0  0  0  0  0  0  0
   -1.6290   -2.0472   -2.1555 N   0  0  0  0  0  0  0  0  0  0  0  0
   -2.4981   -2.1434   -3.1723 C   0  0  0  0  0  0  0  0  0  0  0  0
   -3.0666   -3.0337   -3.4101 H   0  0  0  0  0  0  0  0  0  0  0  0
   -2.5673   -0.9808   -3.8421 N   0  0  0  0  0  0  0  0  0  0  0  0
   -3.1654   -0.7962   -4.6359 H   0  0  0  0  0  0  0  0  0  0  0  0
   -1.7004   -0.0894   -3.2501 C   0  0  0  0  0  0  0  0  0  0  0  0
   -1.5253    0.9435   -3.5237 H   0  0  0  0  0  0  0  0  0  0  0  0
   -0.9851    1.3114    0.6698 C   0  0  0  0  0  0  0  0  0  0  0  0
   -2.0377    1.8431    0.3168 O   0  0  0  0  0  0  0  0  0  0  0  0
   -0.1052    1.9265    1.4663 N   0  0  0  0  0  0  0  0  0  0  0  0
    0.7810    1.4586    1.6201 H   0  0  0  0  0  0  0  0  0  0  0  0
   -0.2724    3.2715    2.0119 C   0  0  0  0  0  0  0  0  0  0  0  0
   -1.3249    3.4549    2.2426 H   0  0  0  0  0  0  0  0  0  0  0  0
    0.3167    3.3776    2.9239 H   0  0  0  0  0  0  0  0  0  0  0  0
    0.0609    4.0073    1.2782 H   0  0  0  0  0  0  0  0  0  0  0  0
  5  6  2  0  0  0  0
  5  7  1  0  0  0  0
  2  3  1  0  0  0  0
  2  4  1  0  0  0  0
  2  5  1  0  0  0  0
  1  2  1  0  0  0  0
 22 23  2  0  0  0  0
 22 24  1  0  0  0  0
 20 21  1  0  0  0  0
 18 19  1  0  0  0  0
 18 20  1  0  0  0  0
 16 17  1  0  0  0  0
 16 18  1  0  0  0  0
 15 16  2  0  0  0  0
 14 15  1  0  0  0  0
 14 20  2  0  0  0  0
 11 12  1  0  0  0  0
 11 13  1  0  0  0  0
 11 14  1  0  0  0  0
  9 10  1  0  0  0  0
  9 11  1  0  0  0  0
  9 22  1  0  0  0  0
  7  8  1  0  0  0  0
  7  9  1  0  0  0  0
 26 27  1  0  0  0  0
 26 28  1  0  0  0  0
 26 29  1  0  0  0  0
 24 25  1  0  0  0  0
 24 26  1  0  0  0  0
M  END
$$$$
default_name
  -OEChem-02102213163D

 29 29  0     1  0  0  0  0  0999 V2000
   -2.9561   -3.9186    1.3887 H   0  0  0  0  0  0  0  0  0  0  0  0
   -3.1191   -2.9346    0.9517 C   0  0  0  0  0  0  0  0  0  0  0  0
   -3.7811   -2.3546    1.5917 H   0  0  0  0  0  0  0  0  0  0  0  0
   -3.5591   -3.0406   -0.0383 H   0  0  0  0  0  0  0  0  0  0  0  0
   -1.7921   -2.2226    0.8327 C   0  0  0  0  0  0  0  0  0  0  0  0
   -0.7611   -2.7766    1.1927 O   0  0  0  0  0  0  0  0  0  0  0  0
   -1.8201   -0.9926    0.3247 N   0  0  0  0  0  0  0  0  0  0  0  0
   -2.7141   -0.5816    0.0927 H   0  0  0  0  0  0  0  0  0  0  0  0
   -0.6481   -0.1156    0.2017 C   0  0  1  0  0  0  0  0  0  0  0  0
    0.1344   -0.4988    0.8596 H   0  0  0  0  0  0  0  0  0  0  0  0
   -0.1211   -0.1520   -1.2460 C   0  0  0  0  0  0  0  0  0  0  0  0
    0.0914    0.8623   -1.5871 H   0  0  0  0  0  0  0  0  0  0  0  0
    0.8132   -0.7138   -1.2846 H   0  0  0  0  0  0  0  0  0  0  0  0
   -1.1094   -0.7535   -2.2152 C   0  0  0  0  0  0  0  0  0  0  0  0
   -1.8507   -1.9178   -2.0098 N   0  0  0  0  0  0  0  0  0  0  0  0
   -2.6294   -2.0557   -3.0928 C   0  0  0  0  0  0  0  0  0  0  0  0
   -3.3217   -2.8733   -3.2495 H   0  0  0  0  0  0  0  0  0  0  0  0
   -2.4342   -1.0348   -3.9443 N   0  0  0  0  0  0  0  0  0  0  0  0
   -2.9179   -0.9029   -4.8221 H   0  0  0  0  0  0  0  0  0  0  0  0
   -1.4807   -0.1999   -3.4056 C   0  0  0  0  0  0  0  0  0  0  0  0
   -1.1038    0.7271   -3.8191 H   0  0  0  0  0  0  0  0  0  0  0  0
   -0.9851    1.3114    0.6698 C   0  0  0  0  0  0  0  0  0  0  0  0
   -2.0377    1.8431    0.3168 O   0  0  0  0  0  0  0  0  0  0  0  0
   -0.1052    1.9265    1.4663 N   0  0  0  0  0  0  0  0  0  0  0  0
    0.7810    1.4586    1.6201 H   0  0  0  0  0  0  0  0  0  0  0  0
   -0.2724    3.2715    2.0119 C   0  0  0  0  0  0  0  0  0  0  0  0
   -1.3249    3.4549    2.2426 H   0  0  0  0  0  0  0  0  0  0  0  0
    0.3167    3.3776    2.9239 H   0  0  0  0  0  0  0  0  0  0  0  0
    0.0609    4.0073    1.2782 H   0  0  0  0  0  0  0  0  0  0  0  0
  5  6  2  0  0  0  0
  5  7  1  0  0  0  0
  2  3  1  0  0  0  0
  2  4  1  0  0  0  0
  2  5  1  0  0  0  0
  1  2  1  0  0  0  0
 22 23  2  0  0  0  0
 22 24  1  0  0  0  0
 20 21  1  0  0  0  0
 18 19  1  0  0  0  0
 18 20  1  0  0  0  0
 16 17  1  0  0  0  0
 16 18  1  0  0  0  0
 15 16  2  0  0  0  0
 14 15  1  0  0  0  0
 14 20  2  0  0  0  0
 11 12  1  0  0  0  0
 11 13  1  0  0  0  0
 11 14  1  0  0  0  0
  9 10  1  0  0  0  0
  9 11  1  0  0  0  0
  9 22  1  0  0  0  0
  7  8  1  0  0  0  0
  7  9  1  0  0  0  0
 26 27  1  0  0  0  0
 26 28  1  0  0  0  0
 26 29  1  0  0  0  0
 24 25  1  0  0  0  0
 24 26  1  0  0  0  0
M  END
$$$$
default_name
  -OEChem-02102213163D

 29 29  0     1  0  0  0  0  0999 V2000
   -2.9561   -3.9186    1.3887 H   0  0  0  0  0  0  0  0  0  0  0  0
   -3.1191   -2.9346    0.9517 C   0  0  0  0  0  0  0  0  0  0  0  0
   -3.7811   -2.3546    1.5917 H   0  0  0  0  0  0  0  0  0  0  0  0
   -3.5591   -3.0406   -0.0383 H   0  0  0  0  0  0  0  0  0  0  0  0
   -1.7921   -2.2226    0.8327 C   0  0  0  0  0  0  0  0  0  0  0  0
   -0.7611   -2.7766    1.1927 O   0  0  0  0  0  0  0  0  0  0  0  0
   -1.8201   -0.9926    0.3247 N   0  0  0  0  0  0  0  0  0  0  0  0
   -2.7141   -0.5816    0.0927 H   0  0  0  0  0  0  0  0  0  0  0  0
   -0.6481   -0.1156    0.2017 C   0  0  1  0  0  0  0  0  0  0  0  0
    0.1344   -0.4988    0.8596 H   0  0  0  0  0  0  0  0  0  0  0  0
   -0.1211   -0.1520   -1.2460 C   0  0  0  0  0  0  0  0  0  0  0  0
    0.0914    0.8623   -1.5871 H   0  0  0  0  0  0  0  0  0  0  0  0
    0.8132   -0.7138   -1.2846 H   0  0  0  0  0  0  0  0  0  0  0  0
   -1.1094   -0.7535   -2.2152 C   0  0  0  0  0  0  0  0  0  0  0  0
   -2.0584   -1.7312   -1.9138 N   0  0  0  0  0  0  0  0  0  0  0  0
   -2.7499   -1.9356   -3.0445 C   0  0  0  0  0  0  0  0  0  0  0  0
   -3.5579   -2.6489   -3.1479 H   0  0  0  0  0  0  0  0  0  0  0  0
   -2.3041   -1.1265   -4.0201 N   0  0  0  0  0  0  0  0  0  0  0  0
   -2.6773   -1.0787   -4.9583 H   0  0  0  0  0  0  0  0  0  0  0  0
   -1.2708   -0.3694   -3.5143 C   0  0  0  0  0  0  0  0  0  0  0  0
   -0.7022    0.3980   -4.0244 H   0  0  0  0  0  0  0  0  0  0  0  0
   -0.9851    1.3114    0.6698 C   0  0  0  0  0  0  0  0  0  0  0  0
   -2.0377    1.8431    0.3168 O   0  0  0  0  0  0  0  0  0  0  0  0
   -0.1052    1.9265    1.4663 N   0  0  0  0  0  0  0  0  0  0  0  0
    0.7810    1.4586    1.6201 H   0  0  0  0  0  0  0  0  0  0  0  0
   -0.2724    3.2715    2.0119 C   0  0  0  0  0  0  0  0  0  0  0  0
   -1.3249    3.4549    2.2426 H   0  0  0  0  0  0  0  0  0  0  0  0
    0.3167    3.3776    2.9239 H   0  0  0  0  0  0  0  0  0  0  0  0
    0.0609    4.0073    1.2782 H   0  0  0  0  0  0  0  0  0  0  0  0
  5  6  2  0  0  0  0
  5  7  1  0  0  0  0
  2  3  1  0  0  0  0
  2  4  1  0  0  0  0
  2  5  1  0  0  0  0
  1  2  1  0  0  0  0
 22 23  2  0  0  0  0
 22 24  1  0  0  0  0
 20 21  1  0  0  0  0
 18 19  1  0  0  0  0
 18 20  1  0  0  0  0
 16 17  1  0  0  0  0
 16 18  1  0  0  0  0
 15 16  2  0  0  0  0
 14 15  1  0  0  0  0
 14 20  2  0  0  0  0
 11 12  1  0  0  0  0
 11 13  1  0  0  0  0
 11 14  1  0  0  0  0
  9 10  1  0  0  0  0
  9 11  1  0  0  0  0
  9 22  1  0  0  0  0
  7  8  1  0  0  0  0
  7  9  1  0  0  0  0
 26 27  1  0  0  0  0
 26 28  1  0  0  0  0
 26 29  1  0  0  0  0
 24 25  1  0  0  0  0
 24 26  1  0  0  0  0
M  END
$$$$
default_name
  -OEChem-02102213163D

 29 29  0     1  0  0  0  0  0999 V2000
   -2.9561   -3.9186    1.3887 H   0  0  0  0  0  0  0  0  0  0  0  0
   -3.1191   -2.9346    0.9517 C   0  0  0  0  0  0  0  0  0  0  0  0
   -3.7811   -2.3546    1.5917 H   0  0  0  0  0  0  0  0  0  0  0  0
   -3.5591   -3.0406   -0.0383 H   0  0  0  0  0  0  0  0  0  0  0  0
   -1.7921   -2.2226    0.8327 C   0  0  0  0  0  0  0  0  0  0  0  0
   -0.7611   -2.7766    1.1927 O   0  0  0  0  0  0  0  0  0  0  0  0
   -1.8201   -0.9926    0.3247 N   0  0  0  0  0  0  0  0  0  0  0  0
   -2.7141   -0.5816    0.0927 H   0  0  0  0  0  0  0  0  0  0  0  0
   -0.6481   -0.1156    0.2017 C   0  0  1  0  0  0  0  0  0  0  0  0
    0.1344   -0.4988    0.8596 H   0  0  0  0  0  0  0  0  0  0  0  0
   -0.1211   -0.1520   -1.2460 C   0  0  0  0  0  0  0  0  0  0  0  0
    0.0914    0.8623   -1.5871 H   0  0  0  0  0  0  0  0  0  0  0  0
    0.8132   -0.7138   -1.2846 H   0  0  0  0  0  0  0  0  0  0  0  0
   -1.1094   -0.7535   -2.2152 C   0  0  0  0  0  0  0  0  0  0  0  0
   -2.2379   -1.5002   -1.8742 N   0  0  0  0  0  0  0  0  0  0  0  0
   -2.8513   -1.7914   -3.0305 C   0  0  0  0  0  0  0  0  0  0  0  0
   -3.7593   -2.3756   -3.1121 H   0  0  0  0  0  0  0  0  0  0  0  0
   -2.1859   -1.2495   -4.0643 N   0  0  0  0  0  0  0  0  0  0  0  0
   -2.4601   -1.3115   -5.0353 H   0  0  0  0  0  0  0  0  0  0  0  0
   -1.0851   -0.5866   -3.5690 C   0  0  0  0  0  0  0  0  0  0  0  0
   -0.3479   -0.0215   -4.1254 H   0  0  0  0  0  0  0  0  0  0  0  0
   -0.9851    1.3114    0.6698 C   0  0  0  0  0  0  0  0  0  0  0  0
   -2.0377    1.8431    0.3168 O   0  0  0  0  0  0  0  0  0  0  0  0
   -0.1052    1.9265    1.4663 N   0  0  0  0  0  0  0  0  0  0  0  0
    0.7810    1.4586    1.6201 H   0  0  0  0  0  0  0  0  0  0  0  0
   -0.2724    3.2715    2.0119 C   0  0  0  0  0  0  0  0  0  0  0  0
   -1.3249    3.4549    2.2426 H   0  0  0  0  0  0  0  0  0  0  0  0
    0.3167    3.3776    2.9239 H   0  0  0  0  0  0  0  0  0  0  0  0
    0.0609    4.0073    1.2782 H   0  0  0  0  0  0  0  0  0  0  0  0
  5  6  2  0  0  0  0
  5  7  1  0  0  0  0
  2  3  1  0  0  0  0
  2  4  1  0  0  0  0
  2  5  1  0  0  0  0
  1  2  1  0  0  0  0
 22 23  2  0  0  0  0
 22 24  1  0  0  0  0
 20 21  1  0  0  0  0
 18 19  1  0  0  0  0
 18 20  1  0  0  0  0
 16 17  1  0  0  0  0
 16 18  1  0  0  0  0
 15 16  2  0  0  0  0
 14 15  1  0  0  0  0
 14 20  2  0  0  0  0
 11 12  1  0  0  0  0
 11 13  1  0  0  0  0
 11 14  1  0  0  0  0
  9 10  1  0  0  0  0
  9 11  1  0  0  0  0
  9 22  1  0  0  0  0
  7  8  1  0  0  0  0
  7  9  1  0  0  0  0
 26 27  1  0  0  0  0
 26 28  1  0  0  0  0
 26 29  1  0  0  0  0
 24 25  1  0  0  0  0
 24 26  1  0  0  0  0
M  END
$$$$
default_name
  -OEChem-02102213163D

 29 29  0     1  0  0  0  0  0999 V2000
   -2.9561   -3.9186    1.3887 H   0  0  0  0  0  0  0  0  0  0  0  0
   -3.1191   -2.9346    0.9517 C   0  0  0  0  0  0  0  0  0  0  0  0
   -3.7811   -2.3546    1.5917 H   0  0  0  0  0  0  0  0  0  0  0  0
   -3.5591   -3.0406   -0.0383 H   0  0  0  0  0  0  0  0  0  0  0  0
   -1.7921   -2.2226    0.8327 C   0  0  0  0  0  0  0  0  0  0  0  0
   -0.7611   -2.7766    1.1927 O   0  0  0  0  0  0  0  0  0  0  0  0
   -1.8201   -0.9926    0.3247 N   0  0  0  0  0  0  0  0  0  0  0  0
   -2.7141   -0.5816    0.0927 H   0  0  0  0  0  0  0  0  0  0  0  0
   -0.6481   -0.1156    0.2017 C   0  0  1  0  0  0  0  0  0  0  0  0
    0.1344   -0.4988    0.8596 H   0  0  0  0  0  0  0  0  0  0  0  0
   -0.1211   -0.1520   -1.2460 C   0  0  0  0  0  0  0  0  0  0  0  0
    0.0914    0.8623   -1.5871 H   0  0  0  0  0  0  0  0  0  0  0  0
    0.8132   -0.7138   -1.2846 H   0  0  0  0  0  0  0  0  0  0  0  0
   -1.1094   -0.7535   -2.2152 C   0  0  0  0  0  0  0  0  0  0  0  0
   -2.3770   -1.2405   -1.8935 N   0  0  0  0  0  0  0  0  0  0  0  0
   -2.9268   -1.6329   -3.0520 C   0  0  0  0  0  0  0  0  0  0  0  0
   -3.9121   -2.0720   -3.1447 H   0  0  0  0  0  0  0  0  0  0  0  0
   -2.0875   -1.3954   -4.0740 N   0  0  0  0  0  0  0  0  0  0  0  0
   -2.2810   -1.5856   -5.0478 H   0  0  0  0  0  0  0  0  0  0  0  0
   -0.9361   -0.8364   -3.5659 C   0  0  0  0  0  0  0  0  0  0  0  0
   -0.0648   -0.5027   -4.1154 H   0  0  0  0  0  0  0  0  0  0  0  0
   -0.9851    1.3114    0.6698 C   0  0  0  0  0  0  0  0  0  0  0  0
   -2.0377    1.8431    0.3168 O   0  0  0  0  0  0  0  0  0  0  0  0
   -0.1052    1.9265    1.4663 N   0  0  0  0  0  0  0  0  0  0  0  0
    0.7810    1.4586    1.6201 H   0  0  0  0  0  0  0  0  0  0  0  0
   -0.2724    3.2715    2.0119 C   0  0  0  0  0  0  0  0  0  0  0  0
   -1.3249    3.4549    2.2426 H   0  0  0  0  0  0  0  0  0  0  0  0
    0.3167    3.3776    2.9239 H   0  0  0  0  0  0  0  0  0  0  0  0
    0.0609    4.0073    1.2782 H   0  0  0  0  0  0  0  0  0  0  0  0
  5  6  2  0  0  0  0
  5  7  1  0  0  0  0
  2  3  1  0  0  0  0
  2  4  1  0  0  0  0
  2  5  1  0  0  0  0
  1  2  1  0  0  0  0
 22 23  2  0  0  0  0
 22 24  1  0  0  0  0
 20 21  1  0  0  0  0
 18 19  1  0  0  0  0
 18 20  1  0  0  0  0
 16 17  1  0  0  0  0
 16 18  1  0  0  0  0
 15 16  2  0  0  0  0
 14 15  1  0  0  0  0
 14 20  2  0  0  0  0
 11 12  1  0  0  0  0
 11 13  1  0  0  0  0
 11 14  1  0  0  0  0
  9 10  1  0  0  0  0
  9 11  1  0  0  0  0
  9 22  1  0  0  0  0
  7  8  1  0  0  0  0
  7  9  1  0  0  0  0
 26 27  1  0  0  0  0
 26 28  1  0  0  0  0
 26 29  1  0  0  0  0
 24 25  1  0  0  0  0
 24 26  1  0  0  0  0
M  END
$$$$
default_name
  -OEChem-02102213163D

 29 29  0     1  0  0  0  0  0999 V2000
   -2.9561   -3.9186    1.3887 H   0  0  0  0  0  0  0  0  0  0  0  0
   -3.1191   -2.9346    0.9517 C   0  0  0  0  0  0  0  0  0  0  0  0
   -3.7811   -2.3546    1.5917 H   0  0  0  0  0  0  0  0  0  0  0  0
   -3.5591   -3.0406   -0.0383 H   0  0  0  0  0  0  0  0  0  0  0  0
   -1.7921   -2.2226    0.8327 C   0  0  0  0  0  0  0  0  0  0  0  0
   -0.7611   -2.7766    1.1927 O   0  0  0  0  0  0  0  0  0  0  0  0
   -1.8201   -0.9926    0.3247 N   0  0  0  0  0  0  0  0  0  0  0  0
   -2.7141   -0.5816    0.0927 H   0  0  0  0  0  0  0  0  0  0  0  0
   -0.6481   -0.1156    0.2017 C   0  0  1  0  0  0  0  0  0  0  0  0
    0.1344   -0.4988    0.8596 H   0  0  0  0  0  0  0  0  0  0  0  0
   -0.1211   -0.1520   -1.2460 C   0  0  0  0  0  0  0  0  0  0  0  0
    0.0914    0.8623   -1.5871 H   0  0  0  0  0  0  0  0  0  0  0  0
    0.8132   -0.7138   -1.2846 H   0  0  0  0  0  0  0  0  0  0  0  0
   -1.1094   -0.7535   -2.2152 C   0  0  0  0  0  0  0  0  0  0  0  0
   -2.4662   -0.9698   -1.9706 N   0  0  0  0  0  0  0  0  0  0  0  0
   -2.9711   -1.4710   -3.1073 C   0  0  0  0  0  0  0  0  0  0  0  0
   -4.0059   -1.7590   -3.2434 H   0  0  0  0  0  0  0  0  0  0  0  0
   -2.0158   -1.5544   -4.0485 N   0  0  0  0  0  0  0  0  0  0  0  0
   -2.1524   -1.8822   -4.9949 H   0  0  0  0  0  0  0  0  0  0  0  0
   -0.8340   -1.1020   -3.5051 C   0  0  0  0  0  0  0  0  0  0  0  0
    0.1275   -1.0128   -3.9949 H   0  0  0  0  0  0  0  0  0  0  0  0
   -0.9851    1.3114    0.6698 C   0  0  0  0  0  0  0  0  0  0  0  0
   -2.0377    1.8431    0.3168 O   0  0  0  0  0  0  0  0  0  0  0  0
   -0.1052    1.9265    1.4663 N   0  0  0  0  0  0  0  0  0  0  0  0
    0.7810    1.4586    1.6201 H   0  0  0  0  0  0  0  0  0  0  0  0
   -0.2724    3.2715    2.0119 C   0  0  0  0  0  0  0  0  0  0  0  0
   -1.3249    3.4549    2.2426 H   0  0  0  0  0  0  0  0  0  0  0  0
    0.3167    3.3776    2.9239 H   0  0  0  0  0  0  0  0  0  0  0  0
    0.0609    4.0073    1.2782 H   0  0  0  0  0  0  0  0  0  0  0  0
  5  6  2  0  0  0  0
  5  7  1  0  0  0  0
  2  3  1  0  0  0  0
  2  4  1  0  0  0  0
  2  5  1  0  0  0  0
  1  2  1  0  0  0  0
 22 23  2  0  0  0  0
 22 24  1  0  0  0  0
 20 21  1  0  0  0  0
 18 19  1  0  0  0  0
 18 20  1  0  0  0  0
 16 17  1  0  0  0  0
 16 18  1  0  0  0  0
 15 16  2  0  0  0  0
 14 15  1  0  0  0  0
 14 20  2  0  0  0  0
 11 12  1  0  0  0  0
 11 13  1  0  0  0  0
 11 14  1  0  0  0  0
  9 10  1  0  0  0  0
  9 11  1  0  0  0  0
  9 22  1  0  0  0  0
  7  8  1  0  0  0  0
  7  9  1  0  0  0  0
 26 27  1  0  0  0  0
 26 28  1  0  0  0  0
 26 29  1  0  0  0  0
 24 25  1  0  0  0  0
 24 26  1  0  0  0  0
M  END
$$$$
default_name
  -OEChem-02102213163D

 29 29  0     1  0  0  0  0  0999 V2000
   -2.9561   -3.9186    1.3887 H   0  0  0  0  0  0  0  0  0  0  0  0
   -3.1191   -2.9346    0.9517 C   0  0  0  0  0  0  0  0  0  0  0  0
   -3.7811   -2.3546    1.5917 H   0  0  0  0  0  0  0  0  0  0  0  0
   -3.5591   -3.0406   -0.0383 H   0  0  0  0  0  0  0  0  0  0  0  0
   -1.7921   -2.2226    0.8327 C   0  0  0  0  0  0  0  0  0  0  0  0
   -0.7611   -2.7766    1.1927 O   0  0  0  0  0  0  0  0  0  0  0  0
   -1.8201   -0.9926    0.3247 N   0  0  0  0  0  0  0  0  0  0  0  0
   -2.7141   -0.5816    0.0927 H   0  0  0  0  0  0  0  0  0  0  0  0
   -0.6481   -0.1156    0.2017 C   0  0  1  0  0  0  0  0  0  0  0  0
    0.1344   -0.4988    0.8596 H   0  0  0  0  0  0  0  0  0  0  0  0
   -0.1211   -0.1520   -1.2460 C   0  0  0  0  0  0  0  0  0  0  0  0
    0.0914    0.8623   -1.5871 H   0  0  0  0  0  0  0  0  0  0  0  0
    0.8132   -0.7138   -1.2846 H   0  0  0  0  0  0  0  0  0  0  0  0
   -1.1094   -0.7535   -2.2152 C   0  0  0  0  0  0  0  0  0  0  0  0
   -2.4994   -0.7065   -2.1001 N   0  0  0  0  0  0  0  0  0  0  0  0
   -2.9812   -1.3165   -3.1928 C   0  0  0  0  0  0  0  0  0  0  0  0
   -4.0342   -1.4577   -3.4014 H   0  0  0  0  0  0  0  0  0  0  0  0
   -1.9756   -1.7155   -3.9895 N   0  0  0  0  0  0  0  0  0  0  0  0
   -2.0828   -2.1811   -4.8804 H   0  0  0  0  0  0  0  0  0  0  0  0
   -0.7858   -1.3652   -3.3909 C   0  0  0  0  0  0  0  0  0  0  0  0
    0.2161   -1.5171   -3.7723 H   0  0  0  0  0  0  0  0  0  0  0  0
   -0.9851    1.3114    0.6698 C   0  0  0  0  0  0  0  0  0  0  0  0
   -2.0377    1.8431    0.3168 O   0  0  0  0  0  0  0  0  0  0  0  0
   -0.1052    1.9265    1.4663 N   0  0  0  0  0  0  0  0  0  0  0  0
    0.7810    1.4586    1.6201 H   0  0  0  0  0  0  0  0  0  0  0  0
   -0.2724    3.2715    2.0119 C   0  0  0  0  0  0  0  0  0  0  0  0
   -1.3249    3.4549    2.2426 H   0  0  0  0  0  0  0  0  0  0  0  0
    0.3167    3.3776    2.9239 H   0  0  0  0  0  0  0  0  0  0  0  0
    0.0609    4.0073    1.2782 H   0  0  0  0  0  0  0  0  0  0  0  0
  5  6  2  0  0  0  0
  5  7  1  0  0  0  0
  2  3  1  0  0  0  0
  2  4  1  0  0  0  0
  2  5  1  0  0  0  0
  1  2  1  0  0  0  0
 22 23  2  0  0  0  0
 22 24  1  0  0  0  0
 20 21  1  0  0  0  0
 18 19  1  0  0  0  0
 18 20  1  0  0  0  0
 16 17  1  0  0  0  0
 16 18  1  0  0  0  0
 15 16  2  0  0  0  0
 14 15  1  0  0  0  0
 14 20  2  0  0  0  0
 11 12  1  0  0  0  0
 11 13  1  0  0  0  0
 11 14  1  0  0  0  0
  9 10  1  0  0  0  0
  9 11  1  0  0  0  0
  9 22  1  0  0  0  0
  7  8  1  0  0  0  0
  7  9  1  0  0  0  0
 26 27  1  0  0  0  0
 26 28  1  0  0  0  0
 26 29  1  0  0  0  0
 24 25  1  0  0  0  0
 24 26  1  0  0  0  0
M  END
$$$$
default_name
  -OEChem-02102213163D

 29 29  0     1  0  0  0  0  0999 V2000
   -2.9561   -3.9186    1.3887 H   0  0  0  0  0  0  0  0  0  0  0  0
   -3.1191   -2.9346    0.9517 C   0  0  0  0  0  0  0  0  0  0  0  0
   -3.7811   -2.3546    1.5917 H   0  0  0  0  0  0  0  0  0  0  0  0
   -3.5591   -3.0406   -0.0383 H   0  0  0  0  0  0  0  0  0  0  0  0
   -1.7921   -2.2226    0.8327 C   0  0  0  0  0  0  0  0  0  0  0  0
   -0.7611   -2.7766    1.1927 O   0  0  0  0  0  0  0  0  0  0  0  0
   -1.8201   -0.9926    0.3247 N   0  0  0  0  0  0  0  0  0  0  0  0
   -2.7141   -0.5816    0.0927 H   0  0  0  0  0  0  0  0  0  0  0  0
   -0.6481   -0.1156    0.2017 C   0  0  1  0  0  0  0  0  0  0  0  0
    0.1344   -0.4988    0.8596 H   0  0  0  0  0  0  0  0  0  0  0  0
   -0.1211   -0.1520   -1.2460 C   0  0  0  0  0  0  0  0  0  0  0  0
    0.0914    0.8623   -1.5871 H   0  0  0  0  0  0  0  0  0  0  0  0
    0.8132   -0.7138   -1.2846 H   0  0  0  0  0  0  0  0  0  0  0  0
   -1.1094   -0.7535   -2.2152 C   0  0  0  0  0  0  0  0  0  0  0  0
   -2.4743   -0.4687   -2.2732 N   0  0  0  0  0  0  0  0  0  0  0  0
   -2.9566   -1.1801   -3.3026 C   0  0  0  0  0  0  0  0  0  0  0  0
   -3.9953   -1.1888   -3.6080 H   0  0  0  0  0  0  0  0  0  0  0  0
   -1.9696   -1.8679   -3.9011 N   0  0  0  0  0  0  0  0  0  0  0  0
   -2.0771   -2.4620   -4.7118 H   0  0  0  0  0  0  0  0  0  0  0  0
   -0.7948   -1.6081   -3.2310 C   0  0  0  0  0  0  0  0  0  0  0  0
    0.1949   -1.9812   -3.4626 H   0  0  0  0  0  0  0  0  0  0  0  0
   -0.9851    1.3114    0.6698 C   0  0  0  0  0  0  0  0  0  0  0  0
   -2.0377    1.8431    0.3168 O   0  0  0  0  0  0  0  0  0  0  0  0
   -0.1052    1.9265    1.4663 N   0  0  0  0  0  0  0  0  0  0  0  0
    0.7810    1.4586    1.6201 H   0  0  0  0  0  0  0  0  0  0  0  0
   -0.2724    3.2715    2.0119 C   0  0  0  0  0  0  0  0  0  0  0  0
   -1.3249    3.4549    2.2426 H   0  0  0  0  0  0  0  0  0  0  0  0
    0.3167    3.3776    2.9239 H   0  0  0  0  0  0  0  0  0  0  0  0
    0.0609    4.0073    1.2782 H   0  0  0  0  0  0  0  0  0  0  0  0
  5  6  2  0  0  0  0
  5  7  1  0  0  0  0
  2  3  1  0  0  0  0
  2  4  1  0  0  0  0
  2  5  1  0  0  0  0
  1  2  1  0  0  0  0
 22 23  2  0  0  0  0
 22 24  1  0  0  0  0
 20 21  1  0  0  0  0
 18 19  1  0  0  0  0
 18 20  1  0  0  0  0
 16 17  1  0  0  0  0
 16 18  1  0  0  0  0
 15 16  2  0  0  0  0
 14 15  1  0  0  0  0
 14 20  2  0  0  0  0
 11 12  1  0  0  0  0
 11 13  1  0  0  0  0
 11 14  1  0  0  0  0
  9 10  1  0  0  0  0
  9 11  1  0  0  0  0
  9 22  1  0  0  0  0
  7  8  1  0  0  0  0
  7  9  1  0  0  0  0
 26 27  1  0  0  0  0
 26 28  1  0  0  0  0
 26 29  1  0  0  0  0
 24 25  1  0  0  0  0
 24 26  1  0  0  0  0
M  END
$$$$
default_name
  -OEChem-02102213163D

 29 29  0     1  0  0  0  0  0999 V2000
   -2.9561   -3.9186    1.3887 H   0  0  0  0  0  0  0  0  0  0  0  0
   -3.1191   -2.9346    0.9517 C   0  0  0  0  0  0  0  0  0  0  0  0
   -3.7811   -2.3546    1.5917 H   0  0  0  0  0  0  0  0  0  0  0  0
   -3.5591   -3.0406   -0.0383 H   0  0  0  0  0  0  0  0  0  0  0  0
   -1.7921   -2.2226    0.8327 C   0  0  0  0  0  0  0  0  0  0  0  0
   -0.7611   -2.7766    1.1927 O   0  0  0  0  0  0  0  0  0  0  0  0
   -1.8201   -0.9926    0.3247 N   0  0  0  0  0  0  0  0  0  0  0  0
   -2.7141   -0.5816    0.0927 H   0  0  0  0  0  0  0  0  0  0  0  0
   -0.6481   -0.1156    0.2017 C   0  0  1  0  0  0  0  0  0  0  0  0
    0.1344   -0.4988    0.8596 H   0  0  0  0  0  0  0  0  0  0  0  0
   -0.1211   -0.1520   -1.2460 C   0  0  0  0  0  0  0  0  0  0  0  0
    0.0914    0.8623   -1.5871 H   0  0  0  0  0  0  0  0  0  0  0  0
    0.8132   -0.7138   -1.2846 H   0  0  0  0  0  0  0  0  0  0  0  0
   -1.1094   -0.7535   -2.2152 C   0  0  0  0  0  0  0  0  0  0  0  0
   -2.3927   -0.2725   -2.4782 N   0  0  0  0  0  0  0  0  0  0  0  0
   -2.8987   -1.0711   -3.4293 C   0  0  0  0  0  0  0  0  0  0  0  0
   -3.8916   -0.9705   -3.8492 H   0  0  0  0  0  0  0  0  0  0  0  0
   -1.9982   -2.0010   -3.7892 N   0  0  0  0  0  0  0  0  0  0  0  0
   -2.1357   -2.7057   -4.5009 H   0  0  0  0  0  0  0  0  0  0  0  0
   -0.8604   -1.8141   -3.0363 C   0  0  0  0  0  0  0  0  0  0  0  0
    0.0653   -2.3735   -3.0871 H   0  0  0  0  0  0  0  0  0  0  0  0
   -0.9851    1.3114    0.6698 C   0  0  0  0  0  0  0  0  0  0  0  0
   -2.0377    1.8431    0.3168 O   0  0  0  0  0  0  0  0  0  0  0  0
   -0.1052    1.9265    1.4663 N   0  0  0  0  0  0  0  0  0  0  0  0
    0.7810    1.4586    1.6201 H   0  0  0  0  0  0  0  0  0  0  0  0
   -0.2724    3.2715    2.0119 C   0  0  0  0  0  0  0  0  0  0  0  0
   -1.3249    3.4549    2.2426 H   0  0  0  0  0  0  0  0  0  0  0  0
    0.3167    3.3776    2.9239 H   0  0  0  0  0  0  0  0  0  0  0  0
    0.0609    4.0073    1.2782 H   0  0  0  0  0  0  0  0  0  0  0  0
  5  6  2  0  0  0  0
  5  7  1  0  0  0  0
  2  3  1  0  0  0  0
  2  4  1  0  0  0  0
  2  5  1  0  0  0  0
  1  2  1  0  0  0  0
 22 23  2  0  0  0  0
 22 24  1  0  0  0  0
 20 21  1  0  0  0  0
 18 19  1  0  0  0  0
 18 20  1  0  0  0  0
 16 17  1  0  0  0  0
 16 18  1  0  0  0  0
 15 16  2  0  0  0  0
 14 15  1  0  0  0  0
 14 20  2  0  0  0  0
 11 12  1  0  0  0  0
 11 13  1  0  0  0  0
 11 14  1  0  0  0  0
  9 10  1  0  0  0  0
  9 11  1  0  0  0  0
  9 22  1  0  0  0  0
  7  8  1  0  0  0  0
  7  9  1  0  0  0  0
 26 27  1  0  0  0  0
 26 28  1  0  0  0  0
 26 29  1  0  0  0  0
 24 25  1  0  0  0  0
 24 26  1  0  0  0  0
M  END
$$$$
default_name
  -OEChem-02102213163D

 29 29  0     1  0  0  0  0  0999 V2000
   -2.9561   -3.9186    1.3887 H   0  0  0  0  0  0  0  0  0  0  0  0
   -3.1191   -2.9346    0.9517 C   0  0  0  0  0  0  0  0  0  0  0  0
   -3.7811   -2.3546    1.5917 H   0  0  0  0  0  0  0  0  0  0  0  0
   -3.5591   -3.0406   -0.0383 H   0  0  0  0  0  0  0  0  0  0  0  0
   -1.7921   -2.2226    0.8327 C   0  0  0  0  0  0  0  0  0  0  0  0
   -0.7611   -2.7766    1.1927 O   0  0  0  0  0  0  0  0  0  0  0  0
   -1.8201   -0.9926    0.3247 N   0  0  0  0  0  0  0  0  0  0  0  0
   -2.7141   -0.5816    0.0927 H   0  0  0  0  0  0  0  0  0  0  0  0
   -0.6481   -0.1156    0.2017 C   0  0  1  0  0  0  0  0  0  0  0  0
    0.1344   -0.4988    0.8596 H   0  0  0  0  0  0  0  0  0  0  0  0
   -0.1211   -0.1520   -1.2460 C   0  0  0  0  0  0  0  0  0  0  0  0
    0.0914    0.8623   -1.5871 H   0  0  0  0  0  0  0  0  0  0  0  0
    0.8132   -0.7138   -1.2846 H   0  0  0  0  0  0  0  0  0  0  0  0
   -1.1094   -0.7535   -2.2152 C   0  0  0  0  0  0  0  0  0  0  0  0
   -2.2602   -0.1312   -2.7010 N   0  0  0  0  0  0  0  0  0  0  0  0
   -2.8117   -0.9968   -3.5641 C   0  0  0  0  0  0  0  0  0  0  0  0
   -3.7303   -0.8178   -4.1084 H   0  0  0  0  0  0  0  0  0  0  0  0
   -2.0596   -2.1059   -3.6616 N   0  0  0  0  0  0  0  0  0  0  0  0
   -2.2545   -2.8956   -4.2618 H   0  0  0  0  0  0  0  0  0  0  0  0
   -0.9780   -1.9692   -2.8201 C   0  0  0  0  0  0  0  0  0  0  0  0
   -0.1638   -2.6672   -2.6712 H   0  0  0  0  0  0  0  0  0  0  0  0
   -0.9851    1.3114    0.6698 C   0  0  0  0  0  0  0  0  0  0  0  0
   -2.0377    1.8431    0.3168 O   0  0  0  0  0  0  0  0  0  0  0  0
   -0.1052    1.9265    1.4663 N   0  0  0  0  0  0  0  0  0  0  0  0
    0.7810    1.4586    1.6201 H   0  0  0  0  0  0  0  0  0  0  0  0
   -0.2724    3.2715    2.0119 C   0  0  0  0  0  0  0  0  0  0  0  0
   -1.3249    3.4549    2.2426 H   0  0  0  0  0  0  0  0  0  0  0  0
    0.3167    3.3776    2.9239 H   0  0  0  0  0  0  0  0  0  0  0  0
    0.0609    4.0073    1.2782 H   0  0  0  0  0  0  0  0  0  0  0  0
  5  6  2  0  0  0  0
  5  7  1  0  0  0  0
  2  3  1  0  0  0  0
  2  4  1  0  0  0  0
  2  5  1  0  0  0  0
  1  2  1  0  0  0  0
 22 23  2  0  0  0  0
 22 24  1  0  0  0  0
 20 21  1  0  0  0  0
 18 19  1  0  0  0  0
 18 20  1  0  0  0  0
 16 17  1  0  0  0  0
 16 18  1  0  0  0  0
 15 16  2  0  0  0  0
 14 15  1  0  0  0  0
 14 20  2  0  0  0  0
 11 12  1  0  0  0  0
 11 13  1  0  0  0  0
 11 14  1  0  0  0  0
  9 10  1  0  0  0  0
  9 11  1  0  0  0  0
  9 22  1  0  0  0  0
  7  8  1  0  0  0  0
  7  9  1  0  0  0  0
 26 27  1  0  0  0  0
 26 28  1  0  0  0  0
 26 29  1  0  0  0  0
 24 25  1  0  0  0  0
 24 26  1  0  0  0  0
M  END
$$$$
default_name
  -OEChem-02102213163D

 29 29  0     1  0  0  0  0  0999 V2000
   -2.9561   -3.9186    1.3887 H   0  0  0  0  0  0  0  0  0  0  0  0
   -3.1191   -2.9346    0.9517 C   0  0  0  0  0  0  0  0  0  0  0  0
   -3.7811   -2.3546    1.5917 H   0  0  0  0  0  0  0  0  0  0  0  0
   -3.5591   -3.0406   -0.0383 H   0  0  0  0  0  0  0  0  0  0  0  0
   -1.7921   -2.2226    0.8327 C   0  0  0  0  0  0  0  0  0  0  0  0
   -0.7611   -2.7766    1.1927 O   0  0  0  0  0  0  0  0  0  0  0  0
   -1.8201   -0.9926    0.3247 N   0  0  0  0  0  0  0  0  0  0  0  0
   -2.7141   -0.5816    0.0927 H   0  0  0  0  0  0  0  0  0  0  0  0
   -0.6481   -0.1156    0.2017 C   0  0  1  0  0  0  0  0  0  0  0  0
    0.1344   -0.4988    0.8596 H   0  0  0  0  0  0  0  0  0  0  0  0
   -0.1211   -0.1520   -1.2460 C   0  0  0  0  0  0  0  0  0  0  0  0
    0.0914    0.8623   -1.5871 H   0  0  0  0  0  0  0  0  0  0  0  0
    0.8132   -0.7138   -1.2846 H   0  0  0  0  0  0  0  0  0  0  0  0
   -1.1094   -0.7535   -2.2152 C   0  0  0  0  0  0  0  0  0  0  0  0
   -2.0857   -0.0546   -2.9265 N   0  0  0  0  0  0  0  0  0  0  0  0
   -2.7014   -0.9624   -3.6979 C   0  0  0  0  0  0  0  0  0  0  0  0
   -3.5224   -0.7410   -4.3681 H   0  0  0  0  0  0  0  0  0  0  0  0
   -2.1495   -2.1754   -3.5268 N   0  0  0  0  0  0  0  0  0  0  0  0
   -2.4256   -3.0187   -4.0110 H   0  0  0  0  0  0  0  0  0  0  0  0
   -1.1397   -2.0628   -2.5971 C   0  0  0  0  0  0  0  0  0  0  0  0
   -0.4768   -2.8424   -2.2433 H   0  0  0  0  0  0  0  0  0  0  0  0
   -0.9851    1.3114    0.6698 C   0  0  0  0  0  0  0  0  0  0  0  0
   -2.0377    1.8431    0.3168 O   0  0  0  0  0  0  0  0  0  0  0  0
   -0.1052    1.9265    1.4663 N   0  0  0  0  0  0  0  0  0  0  0  0
    0.7810    1.4586    1.6201 H   0  0  0  0  0  0  0  0  0  0  0  0
   -0.2724    3.2715    2.0119 C   0  0  0  0  0  0  0  0  0  0  0  0
   -1.3249    3.4549    2.2426 H   0  0  0  0  0  0  0  0  0  0  0  0
    0.3167    3.3776    2.9239 H   0  0  0  0  0  0  0  0  0  0  0  0
    0.0609    4.0073    1.2782 H   0  0  0  0  0  0  0  0  0  0  0  0
  5  6  2  0  0  0  0
  5  7  1  0  0  0  0
  2  3  1  0  0  0  0
  2  4  1  0  0  0  0
  2  5  1  0  0  0  0
  1  2  1  0  0  0  0
 22 23  2  0  0  0  0
 22 24  1  0  0  0  0
 20 21  1  0  0  0  0
 18 19  1  0  0  0  0
 18 20  1  0  0  0  0
 16 17  1  0  0  0  0
 16 18  1  0  0  0  0
 15 16  2  0  0  0  0
 14 15  1  0  0  0  0
 14 20  2  0  0  0  0
 11 12  1  0  0  0  0
 11 13  1  0  0  0  0
 11 14  1  0  0  0  0
  9 10  1  0  0  0  0
  9 11  1  0  0  0  0
  9 22  1  0  0  0  0
  7  8  1  0  0  0  0
  7  9  1  0  0  0  0
 26 27  1  0  0  0  0
 26 28  1  0  0  0  0
 26 29  1  0  0  0  0
 24 25  1  0  0  0  0
 24 26  1  0  0  0  0
M  END
$$$$
default_name
  -OEChem-02102213163D

 29 29  0     1  0  0  0  0  0999 V2000
   -2.9561   -3.9186    1.3887 H   0  0  0  0  0  0  0  0  0  0  0  0
   -3.1191   -2.9346    0.9517 C   0  0  0  0  0  0  0  0  0  0  0  0
   -3.7811   -2.3546    1.5917 H   0  0  0  0  0  0  0  0  0  0  0  0
   -3.5591   -3.0406   -0.0383 H   0  0  0  0  0  0  0  0  0  0  0  0
   -1.7921   -2.2226    0.8327 C   0  0  0  0  0  0  0  0  0  0  0  0
   -0.7611   -2.7766    1.1927 O   0  0  0  0  0  0  0  0  0  0  0  0
   -1.8201   -0.9926    0.3247 N   0  0  0  0  0  0  0  0  0  0  0  0
   -2.7141   -0.5816    0.0927 H   0  0  0  0  0  0  0  0  0  0  0  0
   -0.6481   -0.1156    0.2017 C   0  0  1  0  0  0  0  0  0  0  0  0
    0.1344   -0.4988    0.8596 H   0  0  0  0  0  0  0  0  0  0  0  0
   -0.1211   -0.1520   -1.2460 C   0  0  0  0  0  0  0  0  0  0  0  0
    0.0914    0.8623   -1.5871 H   0  0  0  0  0  0  0  0  0  0  0  0
    0.8132   -0.7138   -1.2846 H   0  0  0  0  0  0  0  0  0  0  0  0
   -1.1094   -0.7535   -2.2152 C   0  0  0  0  0  0  0  0  0  0  0  0
   -1.8811   -0.0478   -3.1393 N   0  0  0  0  0  0  0  0  0  0  0  0
   -2.5753   -0.9702   -3.8217 C   0  0  0  0  0  0  0  0  0  0  0  0
   -3.2821   -0.7454   -4.6104 H   0  0  0  0  0  0  0  0  0  0  0  0
   -2.2617   -2.2048   -3.3941 N   0  0  0  0  0  0  0  0  0  0  0  0
   -2.6371   -3.0668   -3.7655 H   0  0  0  0  0  0  0  0  0  0  0  0
   -1.3345   -2.0886   -2.3826 C   0  0  0  0  0  0  0  0  0  0  0  0
   -0.8524   -2.8870   -1.8326 H   0  0  0  0  0  0  0  0  0  0  0  0
   -0.9851    1.3114    0.6698 C   0  0  0  0  0  0  0  0  0  0  0  0
   -2.0377    1.8431    0.3168 O   0  0  0  0  0  0  0  0  0  0  0  0
   -0.1052    1.9265    1.4663 N   0  0  0  0  0  0  0  0  0  0  0  0
    0.7810    1.4586    1.6201 H   0  0  0  0  0  0  0  0  0  0  0  0
   -0.2724    3.2715    2.0119 C   0  0  0  0  0  0  0  0  0  0  0  0
   -1.3249    3.4549    2.2426 H   0  0  0  0  0  0  0  0  0  0  0  0
    0.3167    3.3776    2.9239 H   0  0  0  0  0  0  0  0  0  0  0  0
    0.0609    4.0073    1.2782 H   0  0  0  0  0  0  0  0  0  0  0  0
  5  6  2  0  0  0  0
  5  7  1  0  0  0  0
  2  3  1  0  0  0  0
  2  4  1  0  0  0  0
  2  5  1  0  0  0  0
  1  2  1  0  0  0  0
 22 23  2  0  0  0  0
 22 24  1  0  0  0  0
 20 21  1  0  0  0  0
 18 19  1  0  0  0  0
 18 20  1  0  0  0  0
 16 17  1  0  0  0  0
 16 18  1  0  0  0  0
 15 16  2  0  0  0  0
 14 15  1  0  0  0  0
 14 20  2  0  0  0  0
 11 12  1  0  0  0  0
 11 13  1  0  0  0  0
 11 14  1  0  0  0  0
  9 10  1  0  0  0  0
  9 11  1  0  0  0  0
  9 22  1  0  0  0  0
  7  8  1  0  0  0  0
  7  9  1  0  0  0  0
 26 27  1  0  0  0  0
 26 28  1  0  0  0  0
 26 29  1  0  0  0  0
 24 25  1  0  0  0  0
 24 26  1  0  0  0  0
M  END
$$$$
default_name
  -OEChem-02102213163D

 29 29  0     1  0  0  0  0  0999 V2000
   -2.9561   -3.9186    1.3887 H   0  0  0  0  0  0  0  0  0  0  0  0
   -3.1191   -2.9346    0.9517 C   0  0  0  0  0  0  0  0  0  0  0  0
   -3.7811   -2.3546    1.5917 H   0  0  0  0  0  0  0  0  0  0  0  0
   -3.5591   -3.0406   -0.0383 H   0  0  0  0  0  0  0  0  0  0  0  0
   -1.7921   -2.2226    0.8327 C   0  0  0  0  0  0  0  0  0  0  0  0
   -0.7611   -2.7766    1.1927 O   0  0  0  0  0  0  0  0  0  0  0  0
   -1.8201   -0.9926    0.3247 N   0  0  0  0  0  0  0  0  0  0  0  0
   -2.7141   -0.5816    0.0927 H   0  0  0  0  0  0  0  0  0  0  0  0
   -0.6481   -0.1156    0.2017 C   0  0  1  0  0  0  0  0  0  0  0  0
    0.1344   -0.4988    0.8596 H   0  0  0  0  0  0  0  0  0  0  0  0
   -0.1211   -0.1520   -1.2460 C   0  0  0  0  0  0  0  0  0  0  0  0
    0.0914    0.8623   -1.5871 H   0  0  0  0  0  0  0  0  0  0  0  0
    0.8132   -0.7138   -1.2846 H   0  0  0  0  0  0  0  0  0  0  0  0
   -1.1094   -0.7535   -2.2152 C   0  0  0  0  0  0  0  0  0  0  0  0
   -1.6605   -0.1113   -3.3249 N   0  0  0  0  0  0  0  0  0  0  0  0
   -2.4420   -1.0197   -3.9269 C   0  0  0  0  0  0  0  0  0  0  0  0
   -3.0256   -0.8307   -4.8190 H   0  0  0  0  0  0  0  0  0  0  0  0
   -2.3887   -2.1920   -3.2726 N   0  0  0  0  0  0  0  0  0  0  0  0
   -2.8747   -3.0364   -3.5420 H   0  0  0  0  0  0  0  0  0  0  0  0
   -1.5490   -2.0448   -2.1910 C   0  0  0  0  0  0  0  0  0  0  0  0
   -1.2649   -2.7981   -1.4671 H   0  0  0  0  0  0  0  0  0  0  0  0
   -0.9851    1.3114    0.6698 C   0  0  0  0  0  0  0  0  0  0  0  0
   -2.0377    1.8431    0.3168 O   0  0  0  0  0  0  0  0  0  0  0  0
   -0.1052    1.9265    1.4663 N   0  0  0  0  0  0  0  0  0  0  0  0
    0.7810    1.4586    1.6201 H   0  0  0  0  0  0  0  0  0  0  0  0
   -0.2724    3.2715    2.0119 C   0  0  0  0  0  0  0  0  0  0  0  0
   -1.3249    3.4549    2.2426 H   0  0  0  0  0  0  0  0  0  0  0  0
    0.3167    3.3776    2.9239 H   0  0  0  0  0  0  0  0  0  0  0  0
    0.0609    4.0073    1.2782 H   0  0  0  0  0  0  0  0  0  0  0  0
  5  6  2  0  0  0  0
  5  7  1  0  0  0  0
  2  3  1  0  0  0  0
  2  4  1  0  0  0  0
  2  5  1  0  0  0  0
  1  2  1  0  0  0  0
 22 23  2  0  0  0  0
 22 24  1  0  0  0  0
 20 21  1  0  0  0  0
 18 19  1  0  0  0  0
 18 20  1  0  0  0  0
 16 17  1  0  0  0  0
 16 18  1  0  0  0  0
 15 16  2  0  0  0  0
 14 15  1  0  0  0  0
 14 20  2  0  0  0  0
 11 12  1  0  0  0  0
 11 13  1  0  0  0  0
 11 14  1  0  0  0  0
  9 10  1  0  0  0  0
  9 11  1  0  0  0  0
  9 22  1  0  0  0  0
  7  8  1  0  0  0  0
  7  9  1  0  0  0  0
 26 27  1  0  0  0  0
 26 28  1  0  0  0  0
 26 29  1  0  0  0  0
 24 25  1  0  0  0  0
 24 26  1  0  0  0  0
M  END
$$$$
default_name
  -OEChem-02102213163D

 29 29  0     1  0  0  0  0  0999 V2000
   -2.9561   -3.9186    1.3887 H   0  0  0  0  0  0  0  0  0  0  0  0
   -3.1191   -2.9346    0.9517 C   0  0  0  0  0  0  0  0  0  0  0  0
   -3.7811   -2.3546    1.5917 H   0  0  0  0  0  0  0  0  0  0  0  0
   -3.5591   -3.0406   -0.0383 H   0  0  0  0  0  0  0  0  0  0  0  0
   -1.7921   -2.2226    0.8327 C   0  0  0  0  0  0  0  0  0  0  0  0
   -0.7611   -2.7766    1.1927 O   0  0  0  0  0  0  0  0  0  0  0  0
   -1.8201   -0.9926    0.3247 N   0  0  0  0  0  0  0  0  0  0  0  0
   -2.7141   -0.5816    0.0927 H   0  0  0  0  0  0  0  0  0  0  0  0
   -0.6481   -0.1156    0.2017 C   0  0  1  0  0  0  0  0  0  0  0  0
    0.1344   -0.4988    0.8596 H   0  0  0  0  0  0  0  0  0  0  0  0
   -0.1211   -0.1520   -1.2460 C   0  0  0  0  0  0  0  0  0  0  0  0
    0.0914    0.8623   -1.5871 H   0  0  0  0  0  0  0  0  0  0  0  0
    0.8132   -0.7138   -1.2846 H   0  0  0  0  0  0  0  0  0  0  0  0
   -1.1094   -0.7535   -2.2152 C   0  0  0  0  0  0  0  0  0  0  0  0
   -1.4388   -0.2408   -3.4706 N   0  0  0  0  0  0  0  0  0  0  0  0
   -2.3107   -1.1074   -4.0063 C   0  0  0  0  0  0  0  0  0  0  0  0
   -2.7706   -0.9910   -4.9796 H   0  0  0  0  0  0  0  0  0  0  0  0
   -2.5218   -2.1380   -3.1704 N   0  0  0  0  0  0  0  0  0  0  0  0
   -3.1223   -2.9297   -3.3559 H   0  0  0  0  0  0  0  0  0  0  0  0
   -1.7687   -1.9343   -2.0355 C   0  0  0  0  0  0  0  0  0  0  0  0
   -1.6864   -2.5818   -1.1716 H   0  0  0  0  0  0  0  0  0  0  0  0
   -0.9851    1.3114    0.6698 C   0  0  0  0  0  0  0  0  0  0  0  0
   -2.0377    1.8431    0.3168 O   0  0  0  0  0  0  0  0  0  0  0  0
   -0.1052    1.9265    1.4663 N   0  0  0  0  0  0  0  0  0  0  0  0
    0.7810    1.4586    1.6201 H   0  0  0  0  0  0  0  0  0  0  0  0
   -0.2724    3.2715    2.0119 C   0  0  0  0  0  0  0  0  0  0  0  0
   -1.3249    3.4549    2.2426 H   0  0  0  0  0  0  0  0  0  0  0  0
    0.3167    3.3776    2.9239 H   0  0  0  0  0  0  0  0  0  0  0  0
    0.0609    4.0073    1.2782 H   0  0  0  0  0  0  0  0  0  0  0  0
  5  6  2  0  0  0  0
  5  7  1  0  0  0  0
  2  3  1  0  0  0  0
  2  4  1  0  0  0  0
  2  5  1  0  0  0  0
  1  2  1  0  0  0  0
 22 23  2  0  0  0  0
 22 24  1  0  0  0  0
 20 21  1  0  0  0  0
 18 19  1  0  0  0  0
 18 20  1  0  0  0  0
 16 17  1  0  0  0  0
 16 18  1  0  0  0  0
 15 16  2  0  0  0  0
 14 15  1  0  0  0  0
 14 20  2  0  0  0  0
 11 12  1  0  0  0  0
 11 13  1  0  0  0  0
 11 14  1  0  0  0  0
  9 10  1  0  0  0  0
  9 11  1  0  0  0  0
  9 22  1  0  0  0  0
  7  8  1  0  0  0  0
  7  9  1  0  0  0  0
 26 27  1  0  0  0  0
 26 28  1  0  0  0  0
 26 29  1  0  0  0  0
 24 25  1  0  0  0  0
 24 26  1  0  0  0  0
M  END
$$$$
default_name
  -OEChem-02102213163D

 29 29  0     1  0  0  0  0  0999 V2000
   -2.9561   -3.9186    1.3887 H   0  0  0  0  0  0  0  0  0  0  0  0
   -3.1191   -2.9346    0.9517 C   0  0  0  0  0  0  0  0  0  0  0  0
   -3.7811   -2.3546    1.5917 H   0  0  0  0  0  0  0  0  0  0  0  0
   -3.5591   -3.0406   -0.0383 H   0  0  0  0  0  0  0  0  0  0  0  0
   -1.7921   -2.2226    0.8327 C   0  0  0  0  0  0  0  0  0  0  0  0
   -0.7611   -2.7766    1.1927 O   0  0  0  0  0  0  0  0  0  0  0  0
   -1.8201   -0.9926    0.3247 N   0  0  0  0  0  0  0  0  0  0  0  0
   -2.7141   -0.5816    0.0927 H   0  0  0  0  0  0  0  0  0  0  0  0
   -0.6481   -0.1156    0.2017 C   0  0  1  0  0  0  0  0  0  0  0  0
    0.1344   -0.4988    0.8596 H   0  0  0  0  0  0  0  0  0  0  0  0
   -0.1211   -0.1520   -1.2460 C   0  0  0  0  0  0  0  0  0  0  0  0
    0.0914    0.8623   -1.5871 H   0  0  0  0  0  0  0  0  0  0  0  0
    0.8132   -0.7138   -1.2846 H   0  0  0  0  0  0  0  0  0  0  0  0
   -1.1094   -0.7535   -2.2152 C   0  0  0  0  0  0  0  0  0  0  0  0
   -1.2311   -0.4274   -3.5666 N   0  0  0  0  0  0  0  0  0  0  0  0
   -2.1902   -1.2275   -4.0547 C   0  0  0  0  0  0  0  0  0  0  0  0
   -2.5343   -1.2155   -5.0812 H   0  0  0  0  0  0  0  0  0  0  0  0
   -2.6519   -2.0463   -3.0947 N   0  0  0  0  0  0  0  0  0  0  0  0
   -3.3628   -2.7539   -3.2196 H   0  0  0  0  0  0  0  0  0  0  0  0
   -1.9786   -1.7647   -1.9268 C   0  0  0  0  0  0  0  0  0  0  0  0
   -2.0880   -2.2526   -0.9664 H   0  0  0  0  0  0  0  0  0  0  0  0
   -0.9851    1.3114    0.6698 C   0  0  0  0  0  0  0  0  0  0  0  0
   -2.0377    1.8431    0.3168 O   0  0  0  0  0  0  0  0  0  0  0  0
   -0.1052    1.9265    1.4663 N   0  0  0  0  0  0  0  0  0  0  0  0
    0.7810    1.4586    1.6201 H   0  0  0  0  0  0  0  0  0  0  0  0
   -0.2724    3.2715    2.0119 C   0  0  0  0  0  0  0  0  0  0  0  0
   -1.3249    3.4549    2.2426 H   0  0  0  0  0  0  0  0  0  0  0  0
    0.3167    3.3776    2.9239 H   0  0  0  0  0  0  0  0  0  0  0  0
    0.0609    4.0073    1.2782 H   0  0  0  0  0  0  0  0  0  0  0  0
  5  6  2  0  0  0  0
  5  7  1  0  0  0  0
  2  3  1  0  0  0  0
  2  4  1  0  0  0  0
  2  5  1  0  0  0  0
  1  2  1  0  0  0  0
 22 23  2  0  0  0  0
 22 24  1  0  0  0  0
 20 21  1  0  0  0  0
 18 19  1  0  0  0  0
 18 20  1  0  0  0  0
 16 17  1  0  0  0  0
 16 18  1  0  0  0  0
 15 16  2  0  0  0  0
 14 15  1  0  0  0  0
 14 20  2  0  0  0  0
 11 12  1  0  0  0  0
 11 13  1  0  0  0  0
 11 14  1  0  0  0  0
  9 10  1  0  0  0  0
  9 11  1  0  0  0  0
  9 22  1  0  0  0  0
  7  8  1  0  0  0  0
  7  9  1  0  0  0  0
 26 27  1  0  0  0  0
 26 28  1  0  0  0  0
 26 29  1  0  0  0  0
 24 25  1  0  0  0  0
 24 26  1  0  0  0  0
M  END
$$$$
default_name
  -OEChem-02102213163D

 29 29  0     1  0  0  0  0  0999 V2000
   -2.9561   -3.9186    1.3887 H   0  0  0  0  0  0  0  0  0  0  0  0
   -3.1191   -2.9346    0.9517 C   0  0  0  0  0  0  0  0  0  0  0  0
   -3.7811   -2.3546    1.5917 H   0  0  0  0  0  0  0  0  0  0  0  0
   -3.5591   -3.0406   -0.0383 H   0  0  0  0  0  0  0  0  0  0  0  0
   -1.7921   -2.2226    0.8327 C   0  0  0  0  0  0  0  0  0  0  0  0
   -0.7611   -2.7766    1.1927 O   0  0  0  0  0  0  0  0  0  0  0  0
   -1.8201   -0.9926    0.3247 N   0  0  0  0  0  0  0  0  0  0  0  0
   -2.7141   -0.5816    0.0927 H   0  0  0  0  0  0  0  0  0  0  0  0
   -0.6481   -0.1156    0.2017 C   0  0  1  0  0  0  0  0  0  0  0  0
    0.1344   -0.4988    0.8596 H   0  0  0  0  0  0  0  0  0  0  0  0
   -0.1211   -0.1520   -1.2460 C   0  0  0  0  0  0  0  0  0  0  0  0
    0.0914    0.8623   -1.5871 H   0  0  0  0  0  0  0  0  0  0  0  0
    0.8132   -0.7138   -1.2846 H   0  0  0  0  0  0  0  0  0  0  0  0
   -1.1094   -0.7535   -2.2152 C   0  0  0  0  0  0  0  0  0  0  0  0
   -1.0516   -0.6584   -3.6063 N   0  0  0  0  0  0  0  0  0  0  0  0
   -2.0888   -1.3717   -4.0686 C   0  0  0  0  0  0  0  0  0  0  0  0
   -2.3329   -1.4888   -5.1169 H   0  0  0  0  0  0  0  0  0  0  0  0
   -2.7701   -1.9233   -3.0504 N   0  0  0  0  0  0  0  0  0  0  0  0
   -3.5800   -2.5211   -3.1426 H   0  0  0  0  0  0  0  0  0  0  0  0
   -2.1644   -1.5476   -1.8721 C   0  0  0  0  0  0  0  0  0  0  0  0
   -2.4423   -1.8332   -0.8653 H   0  0  0  0  0  0  0  0  0  0  0  0
   -0.9851    1.3114    0.6698 C   0  0  0  0  0  0  0  0  0  0  0  0
   -2.0377    1.8431    0.3168 O   0  0  0  0  0  0  0  0  0  0  0  0
   -0.1052    1.9265    1.4663 N   0  0  0  0  0  0  0  0  0  0  0  0
    0.7810    1.4586    1.6201 H   0  0  0  0  0  0  0  0  0  0  0  0
   -0.2724    3.2715    2.0119 C   0  0  0  0  0  0  0  0  0  0  0  0
   -1.3249    3.4549    2.2426 H   0  0  0  0  0  0  0  0  0  0  0  0
    0.3167    3.3776    2.9239 H   0  0  0  0  0  0  0  0  0  0  0  0
    0.0609    4.0073    1.2782 H   0  0  0  0  0  0  0  0  0  0  0  0
  5  6  2  0  0  0  0
  5  7  1  0  0  0  0
  2  3  1  0  0  0  0
  2  4  1  0  0  0  0
  2  5  1  0  0  0  0
  1  2  1  0  0  0  0
 22 23  2  0  0  0  0
 22 24  1  0  0  0  0
 20 21  1  0  0  0  0
 18 19  1  0  0  0  0
 18 20  1  0  0  0  0
 16 17  1  0  0  0  0
 16 18  1  0  0  0  0
 15 16  2  0  0  0  0
 14 15  1  0  0  0  0
 14 20  2  0  0  0  0
 11 12  1  0  0  0  0
 11 13  1  0  0  0  0
 11 14  1  0  0  0  0
  9 10  1  0  0  0  0
  9 11  1  0  0  0  0
  9 22  1  0  0  0  0
  7  8  1  0  0  0  0
  7  9  1  0  0  0  0
 26 27  1  0  0  0  0
 26 28  1  0  0  0  0
 26 29  1  0  0  0  0
 24 25  1  0  0  0  0
 24 26  1  0  0  0  0
M  END
$$$$
default_name
  -OEChem-02102213163D

 29 29  0     1  0  0  0  0  0999 V2000
   -2.9561   -3.9186    1.3887 H   0  0  0  0  0  0  0  0  0  0  0  0
   -3.1191   -2.9346    0.9517 C   0  0  0  0  0  0  0  0  0  0  0  0
   -3.7811   -2.3546    1.5917 H   0  0  0  0  0  0  0  0  0  0  0  0
   -3.5591   -3.0406   -0.0383 H   0  0  0  0  0  0  0  0  0  0  0  0
   -1.7921   -2.2226    0.8327 C   0  0  0  0  0  0  0  0  0  0  0  0
   -0.7611   -2.7766    1.1927 O   0  0  0  0  0  0  0  0  0  0  0  0
   -1.8201   -0.9926    0.3247 N   0  0  0  0  0  0  0  0  0  0  0  0
   -2.7141   -0.5816    0.0927 H   0  0  0  0  0  0  0  0  0  0  0  0
   -0.6481   -0.1156    0.2017 C   0  0  1  0  0  0  0  0  0  0  0  0
    0.1344   -0.4988    0.8596 H   0  0  0  0  0  0  0  0  0  0  0  0
   -0.1211   -0.1520   -1.2460 C   0  0  0  0  0  0  0  0  0  0  0  0
    0.3372    0.8060   -1.4962 H   0  0  0  0  0  0  0  0  0  0  0  0
    0.6493   -0.9186   -1.3391 H   0  0  0  0  0  0  0  0  0  0  0  0
   -1.2092   -0.4073   -2.2603 C   0  0  0  0  0  0  0  0  0  0  0  0
   -1.0348   -0.4939   -3.6421 N   0  0  0  0  0  0  0  0  0  0  0  0
   -2.2433   -0.7768   -4.1498 C   0  0  0  0  0  0  0  0  0  0  0  0
   -2.4511   -0.8984   -5.2055 H   0  0  0  0  0  0  0  0  0  0  0  0
   -3.1499   -0.8958   -3.1653 N   0  0  0  0  0  0  0  0  0  0  0  0
   -4.1263   -1.1248   -3.2920 H   0  0  0  0  0  0  0  0  0  0  0  0
   -2.5149   -0.6699   -1.9644 C   0  0  0  0  0  0  0  0  0  0  0  0
   -2.9447   -0.7098   -0.9714 H   0  0  0  0  0  0  0  0  0  0  0  0
   -0.9851    1.3114    0.6698 C   0  0  0  0  0  0  0  0  0  0  0  0
   -2.0377    1.8431    0.3168 O   0  0  0  0  0  0  0  0  0  0  0  0
   -0.1052    1.9265    1.4663 N   0  0  0  0  0  0  0  0  0  0  0  0
    0.7810    1.4586    1.6201 H   0  0  0  0  0  0  0  0  0  0  0  0
   -0.2724    3.2715    2.0119 C   0  0  0  0  0  0  0  0  0  0  0  0
   -1.3249    3.4549    2.2426 H   0  0  0  0  0  0  0  0  0  0  0  0
    0.3167    3.3776    2.9239 H   0  0  0  0  0  0  0  0  0  0  0  0
    0.0609    4.0073    1.2782 H   0  0  0  0  0  0  0  0  0  0  0  0
  5  6  2  0  0  0  0
  5  7  1  0  0  0  0
  2  3  1  0  0  0  0
  2  4  1  0  0  0  0
  2  5  1  0  0  0  0
  1  2  1  0  0  0  0
 22 23  2  0  0  0  0
 22 24  1  0  0  0  0
 20 21  1  0  0  0  0
 18 19  1  0  0  0  0
 18 20  1  0  0  0  0
 16 17  1  0  0  0  0
 16 18  1  0  0  0  0
 15 16  2  0  0  0  0
 14 15  1  0  0  0  0
 14 20  2  0  0  0  0
 11 12  1  0  0  0  0
 11 13  1  0  0  0  0
 11 14  1  0  0  0  0
  9 10  1  0  0  0  0
  9 11  1  0  0  0  0
  9 22  1  0  0  0  0
  7  8  1  0  0  0  0
  7  9  1  0  0  0  0
 26 27  1  0  0  0  0
 26 28  1  0  0  0  0
 26 29  1  0  0  0  0
 24 25  1  0  0  0  0
 24 26  1  0  0  0  0
M  END
$$$$
default_name
  -OEChem-02102213163D

 29 29  0     1  0  0  0  0  0999 V2000
   -2.9561   -3.9186    1.3887 H   0  0  0  0  0  0  0  0  0  0  0  0
   -3.1191   -2.9346    0.9517 C   0  0  0  0  0  0  0  0  0  0  0  0
   -3.7811   -2.3546    1.5917 H   0  0  0  0  0  0  0  0  0  0  0  0
   -3.5591   -3.0406   -0.0383 H   0  0  0  0  0  0  0  0  0  0  0  0
   -1.7921   -2.2226    0.8327 C   0  0  0  0  0  0  0  0  0  0  0  0
   -0.7611   -2.7766    1.1927 O   0  0  0  0  0  0  0  0  0  0  0  0
   -1.8201   -0.9926    0.3247 N   0  0  0  0  0  0  0  0  0  0  0  0
   -2.7141   -0.5816    0.0927 H   0  0  0  0  0  0  0  0  0  0  0  0
   -0.6481   -0.1156    0.2017 C   0  0  1  0  0  0  0  0  0  0  0  0
    0.1344   -0.4988    0.8596 H   0  0  0  0  0  0  0  0  0  0  0  0
   -0.1211   -0.1520   -1.2460 C   0  0  0  0  0  0  0  0  0  0  0  0
    0.3372    0.8060   -1.4962 H   0  0  0  0  0  0  0  0  0  0  0  0
    0.6493   -0.9186   -1.3391 H   0  0  0  0  0  0  0  0  0  0  0  0
   -1.2092   -0.4073   -2.2603 C   0  0  0  0  0  0  0  0  0  0  0  0
   -1.0154   -0.7839   -3.5899 N   0  0  0  0  0  0  0  0  0  0  0  0
   -2.2406   -0.9489   -4.1094 C   0  0  0  0  0  0  0  0  0  0  0  0
   -2.4379   -1.2323   -5.1356 H   0  0  0  0  0  0  0  0  0  0  0  0
   -3.1804   -0.7225   -3.1762 N   0  0  0  0  0  0  0  0  0  0  0  0
   -4.1782   -0.8023   -3.3176 H   0  0  0  0  0  0  0  0  0  0  0  0
   -2.5484   -0.3831   -2.0007 C   0  0  0  0  0  0  0  0  0  0  0  0
   -3.0054   -0.1596   -1.0449 H   0  0  0  0  0  0  0  0  0  0  0  0
   -0.9851    1.3114    0.6698 C   0  0  0  0  0  0  0  0  0  0  0  0
   -2.0377    1.8431    0.3168 O   0  0  0  0  0  0  0  0  0  0  0  0
   -0.1052    1.9265    1.4663 N   0  0  0  0  0  0  0  0  0  0  0  0
    0.7810    1.4586    1.6201 H   0  0  0  0  0  0  0  0  0  0  0  0
   -0.2724    3.2715    2.0119 C   0  0  0  0  0  0  0  0  0  0  0  0
   -1.3249    3.4549    2.2426 H   0  0  0  0  0  0  0  0  0  0  0  0
    0.3167    3.3776    2.9239 H   0  0  0  0  0  0  0  0  0  0  0  0
    0.0609    4.0073    1.2782 H   0  0  0  0  0  0  0  0  0  0  0  0
  5  6  2  0  0  0  0
  5  7  1  0  0  0  0
  2  3  1  0  0  0  0
  2  4  1  0  0  0  0
  2  5  1  0  0  0  0
  1  2  1  0  0  0  0
 22 23  2  0  0  0  0
 22 24  1  0  0  0  0
 20 21  1  0  0  0  0
 18 19  1  0  0  0  0
 18 20  1  0  0  0  0
 16 17  1  0  0  0  0
 16 18  1  0  0  0  0
 15 16  2  0  0  0  0
 14 15  1  0  0  0  0
 14 20  2  0  0  0  0
 11 12  1  0  0  0  0
 11 13  1  0  0  0  0
 11 14  1  0  0  0  0
  9 10  1  0  0  0  0
  9 11  1  0  0  0  0
  9 22  1  0  0  0  0
  7  8  1  0  0  0  0
  7  9  1  0  0  0  0
 26 27  1  0  0  0  0
 26 28  1  0  0  0  0
 26 29  1  0  0  0  0
 24 25  1  0  0  0  0
 24 26  1  0  0  0  0
M  END
$$$$
default_name
  -OEChem-02102213163D

 29 29  0     1  0  0  0  0  0999 V2000
   -2.9561   -3.9186    1.3887 H   0  0  0  0  0  0  0  0  0  0  0  0
   -3.1191   -2.9346    0.9517 C   0  0  0  0  0  0  0  0  0  0  0  0
   -3.7811   -2.3546    1.5917 H   0  0  0  0  0  0  0  0  0  0  0  0
   -3.5591   -3.0406   -0.0383 H   0  0  0  0  0  0  0  0  0  0  0  0
   -1.7921   -2.2226    0.8327 C   0  0  0  0  0  0  0  0  0  0  0  0
   -0.7611   -2.7766    1.1927 O   0  0  0  0  0  0  0  0  0  0  0  0
   -1.8201   -0.9926    0.3247 N   0  0  0  0  0  0  0  0  0  0  0  0
   -2.7141   -0.5816    0.0927 H   0  0  0  0  0  0  0  0  0  0  0  0
   -0.6481   -0.1156    0.2017 C   0  0  1  0  0  0  0  0  0  0  0  0
    0.1344   -0.4988    0.8596 H   0  0  0  0  0  0  0  0  0  0  0  0
   -0.1211   -0.1520   -1.2460 C   0  0  0  0  0  0  0  0  0  0  0  0
    0.3372    0.8060   -1.4962 H   0  0  0  0  0  0  0  0  0  0  0  0
    0.6493   -0.9186   -1.3391 H   0  0  0  0  0  0  0  0  0  0  0  0
   -1.2092   -0.4073   -2.2603 C   0  0  0  0  0  0  0  0  0  0  0  0
   -1.0493   -1.0576   -3.4846 N   0  0  0  0  0  0  0  0  0  0  0  0
   -2.2698   -1.1081   -4.0381 C   0  0  0  0  0  0  0  0  0  0  0  0
   -2.4862   -1.5440   -5.0052 H   0  0  0  0  0  0  0  0  0  0  0  0
   -3.1793   -0.5519   -3.2204 N   0  0  0  0  0  0  0  0  0  0  0  0
   -4.1711   -0.4866   -3.4047 H   0  0  0  0  0  0  0  0  0  0  0  0
   -2.5292   -0.1071   -2.0907 C   0  0  0  0  0  0  0  0  0  0  0  0
   -2.9650    0.3686   -1.2212 H   0  0  0  0  0  0  0  0  0  0  0  0
   -0.9851    1.3114    0.6698 C   0  0  0  0  0  0  0  0  0  0  0  0
   -2.0377    1.8431    0.3168 O   0  0  0  0  0  0  0  0  0  0  0  0
   -0.1052    1.9265    1.4663 N   0  0  0  0  0  0  0  0  0  0  0  0
    0.7810    1.4586    1.6201 H   0  0  0  0  0  0  0  0  0  0  0  0
   -0.2724    3.2715    2.0119 C   0  0  0  0  0  0  0  0  0  0  0  0
   -1.3249    3.4549    2.2426 H   0  0  0  0  0  0  0  0  0  0  0  0
    0.3167    3.3776    2.9239 H   0  0  0  0  0  0  0  0  0  0  0  0
    0.0609    4.0073    1.2782 H   0  0  0  0  0  0  0  0  0  0  0  0
  5  6  2  0  0  0  0
  5  7  1  0  0  0  0
  2  3  1  0  0  0  0
  2  4  1  0  0  0  0
  2  5  1  0  0  0  0
  1  2  1  0  0  0  0
 22 23  2  0  0  0  0
 22 24  1  0  0  0  0
 20 21  1  0  0  0  0
 18 19  1  0  0  0  0
 18 20  1  0  0  0  0
 16 17  1  0  0  0  0
 16 18  1  0  0  0  0
 15 16  2  0  0  0  0
 14 15  1  0  0  0  0
 14 20  2  0  0  0  0
 11 12  1  0  0  0  0
 11 13  1  0  0  0  0
 11 14  1  0  0  0  0
  9 10  1  0  0  0  0
  9 11  1  0  0  0  0
  9 22  1  0  0  0  0
  7  8  1  0  0  0  0
  7  9  1  0  0  0  0
 26 27  1  0  0  0  0
 26 28  1  0  0  0  0
 26 29  1  0  0  0  0
 24 25  1  0  0  0  0
 24 26  1  0  0  0  0
M  END
$$$$
default_name
  -OEChem-02102213163D

 29 29  0     1  0  0  0  0  0999 V2000
   -2.9561   -3.9186    1.3887 H   0  0  0  0  0  0  0  0  0  0  0  0
   -3.1191   -2.9346    0.9517 C   0  0  0  0  0  0  0  0  0  0  0  0
   -3.7811   -2.3546    1.5917 H   0  0  0  0  0  0  0  0  0  0  0  0
   -3.5591   -3.0406   -0.0383 H   0  0  0  0  0  0  0  0  0  0  0  0
   -1.7921   -2.2226    0.8327 C   0  0  0  0  0  0  0  0  0  0  0  0
   -0.7611   -2.7766    1.1927 O   0  0  0  0  0  0  0  0  0  0  0  0
   -1.8201   -0.9926    0.3247 N   0  0  0  0  0  0  0  0  0  0  0  0
   -2.7141   -0.5816    0.0927 H   0  0  0  0  0  0  0  0  0  0  0  0
   -0.6481   -0.1156    0.2017 C   0  0  1  0  0  0  0  0  0  0  0  0
    0.1344   -0.4988    0.8596 H   0  0  0  0  0  0  0  0  0  0  0  0
   -0.1211   -0.1520   -1.2460 C   0  0  0  0  0  0  0  0  0  0  0  0
    0.3372    0.8060   -1.4962 H   0  0  0  0  0  0  0  0  0  0  0  0
    0.6493   -0.9186   -1.3391 H   0  0  0  0  0  0  0  0  0  0  0  0
   -1.2092   -0.4073   -2.2603 C   0  0  0  0  0  0  0  0  0  0  0  0
   -1.1343   -1.2964   -3.3333 N   0  0  0  0  0  0  0  0  0  0  0  0
   -2.3287   -1.2435   -3.9408 C   0  0  0  0  0  0  0  0  0  0  0  0
   -2.5928   -1.8124   -4.8232 H   0  0  0  0  0  0  0  0  0  0  0  0
   -3.1466   -0.3955   -3.2948 N   0  0  0  0  0  0  0  0  0  0  0  0
   -4.1055   -0.1991   -3.5474 H   0  0  0  0  0  0  0  0  0  0  0  0
   -2.4588    0.1393   -2.2283 C   0  0  0  0  0  0  0  0  0  0  0  0
   -2.8265    0.8389   -1.4882 H   0  0  0  0  0  0  0  0  0  0  0  0
   -0.9851    1.3114    0.6698 C   0  0  0  0  0  0  0  0  0  0  0  0
   -2.0377    1.8431    0.3168 O   0  0  0  0  0  0  0  0  0  0  0  0
   -0.1052    1.9265    1.4663 N   0  0  0  0  0  0  0  0  0  0  0  0
    0.7810    1.4586    1.6201 H   0  0  0  0  0  0  0  0  0  0  0  0
   -0.2724    3.2715    2.0119 C   0  0  0  0  0  0  0  0  0  0  0  0
   -1.3249    3.4549    2.2426 H   0  0  0  0  0  0  0  0  0  0  0  0
    0.3167    3.3776    2.9239 H   0  0  0  0  0  0  0  0  0  0  0  0
    0.0609    4.0073    1.2782 H   0  0  0  0  0  0  0  0  0  0  0  0
  5  6  2  0  0  0  0
  5  7  1  0  0  0  0
  2  3  1  0  0  0  0
  2  4  1  0  0  0  0
  2  5  1  0  0  0  0
  1  2  1  0  0  0  0
 22 23  2  0  0  0  0
 22 24  1  0  0  0  0
 20 21  1  0  0  0  0
 18 19  1  0  0  0  0
 18 20  1  0  0  0  0
 16 17  1  0  0  0  0
 16 18  1  0  0  0  0
 15 16  2  0  0  0  0
 14 15  1  0  0  0  0
 14 20  2  0  0  0  0
 11 12  1  0  0  0  0
 11 13  1  0  0  0  0
 11 14  1  0  0  0  0
  9 10  1  0  0  0  0
  9 11  1  0  0  0  0
  9 22  1  0  0  0  0
  7  8  1  0  0  0  0
  7  9  1  0  0  0  0
 26 27  1  0  0  0  0
 26 28  1  0  0  0  0
 26 29  1  0  0  0  0
 24 25  1  0  0  0  0
 24 26  1  0  0  0  0
M  END
$$$$
default_name
  -OEChem-02102213163D

 29 29  0     1  0  0  0  0  0999 V2000
   -2.9561   -3.9186    1.3887 H   0  0  0  0  0  0  0  0  0  0  0  0
   -3.1191   -2.9346    0.9517 C   0  0  0  0  0  0  0  0  0  0  0  0
   -3.7811   -2.3546    1.5917 H   0  0  0  0  0  0  0  0  0  0  0  0
   -3.5591   -3.0406   -0.0383 H   0  0  0  0  0  0  0  0  0  0  0  0
   -1.7921   -2.2226    0.8327 C   0  0  0  0  0  0  0  0  0  0  0  0
   -0.7611   -2.7766    1.1927 O   0  0  0  0  0  0  0  0  0  0  0  0
   -1.8201   -0.9926    0.3247 N   0  0  0  0  0  0  0  0  0  0  0  0
   -2.7141   -0.5816    0.0927 H   0  0  0  0  0  0  0  0  0  0  0  0
   -0.6481   -0.1156    0.2017 C   0  0  1  0  0  0  0  0  0  0  0  0
    0.1344   -0.4988    0.8596 H   0  0  0  0  0  0  0  0  0  0  0  0
   -0.1211   -0.1520   -1.2460 C   0  0  0  0  0  0  0  0  0  0  0  0
    0.3372    0.8060   -1.4962 H   0  0  0  0  0  0  0  0  0  0  0  0
    0.6493   -0.9186   -1.3391 H   0  0  0  0  0  0  0  0  0  0  0  0
   -1.2092   -0.4073   -2.2603 C   0  0  0  0  0  0  0  0  0  0  0  0
   -1.2646   -1.4841   -3.1463 N   0  0  0  0  0  0  0  0  0  0  0  0
   -2.4134   -1.3458   -3.8241 C   0  0  0  0  0  0  0  0  0  0  0  0
   -2.7505   -2.0192   -4.6020 H   0  0  0  0  0  0  0  0  0  0  0  0
   -3.0846   -0.2640   -3.3945 N   0  0  0  0  0  0  0  0  0  0  0  0
   -3.9859    0.0405   -3.7361 H   0  0  0  0  0  0  0  0  0  0  0  0
   -2.3419    0.3394   -2.4042 C   0  0  0  0  0  0  0  0  0  0  0  0
   -2.5991    1.2193   -1.8279 H   0  0  0  0  0  0  0  0  0  0  0  0
   -0.9851    1.3114    0.6698 C   0  0  0  0  0  0  0  0  0  0  0  0
   -2.0377    1.8431    0.3168 O   0  0  0  0  0  0  0  0  0  0  0  0
   -0.1052    1.9265    1.4663 N   0  0  0  0  0  0  0  0  0  0  0  0
    0.7810    1.4586    1.6201 H   0  0  0  0  0  0  0  0  0  0  0  0
   -0.2724    3.2715    2.0119 C   0  0  0  0  0  0  0  0  0  0  0  0
   -1.3249    3.4549    2.2426 H   0  0  0  0  0  0  0  0  0  0  0  0
    0.3167    3.3776    2.9239 H   0  0  0  0  0  0  0  0  0  0  0  0
    0.0609    4.0073    1.2782 H   0  0  0  0  0  0  0  0  0  0  0  0
  5  6  2  0  0  0  0
  5  7  1  0  0  0  0
  2  3  1  0  0  0  0
  2  4  1  0  0  0  0
  2  5  1  0  0  0  0
  1  2  1  0  0  0  0
 22 23  2  0  0  0  0
 22 24  1  0  0  0  0
 20 21  1  0  0  0  0
 18 19  1  0  0  0  0
 18 20  1  0  0  0  0
 16 17  1  0  0  0  0
 16 18  1  0  0  0  0
 15 16  2  0  0  0  0
 14 15  1  0  0  0  0
 14 20  2  0  0  0  0
 11 12  1  0  0  0  0
 11 13  1  0  0  0  0
 11 14  1  0  0  0  0
  9 10  1  0  0  0  0
  9 11  1  0  0  0  0
  9 22  1  0  0  0  0
  7  8  1  0  0  0  0
  7  9  1  0  0  0  0
 26 27  1  0  0  0  0
 26 28  1  0  0  0  0
 26 29  1  0  0  0  0
 24 25  1  0  0  0  0
 24 26  1  0  0  0  0
M  END
$$$$
default_name
  -OEChem-02102213163D

 29 29  0     1  0  0  0  0  0999 V2000
   -2.9561   -3.9186    1.3887 H   0  0  0  0  0  0  0  0  0  0  0  0
   -3.1191   -2.9346    0.9517 C   0  0  0  0  0  0  0  0  0  0  0  0
   -3.7811   -2.3546    1.5917 H   0  0  0  0  0  0  0  0  0  0  0  0
   -3.5591   -3.0406   -0.0383 H   0  0  0  0  0  0  0  0  0  0  0  0
   -1.7921   -2.2226    0.8327 C   0  0  0  0  0  0  0  0  0  0  0  0
   -0.7611   -2.7766    1.1927 O   0  0  0  0  0  0  0  0  0  0  0  0
   -1.8201   -0.9926    0.3247 N   0  0  0  0  0  0  0  0  0  0  0  0
   -2.7141   -0.5816    0.0927 H   0  0  0  0  0  0  0  0  0  0  0  0
   -0.6481   -0.1156    0.2017 C   0  0  1  0  0  0  0  0  0  0  0  0
    0.1344   -0.4988    0.8596 H   0  0  0  0  0  0  0  0  0  0  0  0
   -0.1211   -0.1520   -1.2460 C   0  0  0  0  0  0  0  0  0  0  0  0
    0.3372    0.8060   -1.4962 H   0  0  0  0  0  0  0  0  0  0  0  0
    0.6493   -0.9186   -1.3391 H   0  0  0  0  0  0  0  0  0  0  0  0
   -1.2092   -0.4073   -2.2603 C   0  0  0  0  0  0  0  0  0  0  0  0
   -1.4313   -1.6078   -2.9363 N   0  0  0  0  0  0  0  0  0  0  0  0
   -2.5182   -1.4082   -3.6960 C   0  0  0  0  0  0  0  0  0  0  0  0
   -2.9484   -2.1502   -4.3567 H   0  0  0  0  0  0  0  0  0  0  0  0
   -2.9974   -0.1664   -3.5126 N   0  0  0  0  0  0  0  0  0  0  0  0
   -3.8204    0.2160   -3.9578 H   0  0  0  0  0  0  0  0  0  0  0  0
   -2.1864    0.4796   -2.6062 C   0  0  0  0  0  0  0  0  0  0  0  0
   -2.2985    1.4838   -2.2170 H   0  0  0  0  0  0  0  0  0  0  0  0
   -0.9851    1.3114    0.6698 C   0  0  0  0  0  0  0  0  0  0  0  0
   -2.0377    1.8431    0.3168 O   0  0  0  0  0  0  0  0  0  0  0  0
   -0.1052    1.9265    1.4663 N   0  0  0  0  0  0  0  0  0  0  0  0
    0.7810    1.4586    1.6201 H   0  0  0  0  0  0  0  0  0  0  0  0
   -0.2724    3.2715    2.0119 C   0  0  0  0  0  0  0  0  0  0  0  0
   -1.3249    3.4549    2.2426 H   0  0  0  0  0  0  0  0  0  0  0  0
    0.3167    3.3776    2.9239 H   0  0  0  0  0  0  0  0  0  0  0  0
    0.0609    4.0073    1.2782 H   0  0  0  0  0  0  0  0  0  0  0  0
  5  6  2  0  0  0  0
  5  7  1  0  0  0  0
  2  3  1  0  0  0  0
  2  4  1  0  0  0  0
  2  5  1  0  0  0  0
  1  2  1  0  0  0  0
 22 23  2  0  0  0  0
 22 24  1  0  0  0  0
 20 21  1  0  0  0  0
 18 19  1  0  0  0  0
 18 20  1  0  0  0  0
 16 17  1  0  0  0  0
 16 18  1  0  0  0  0
 15 16  2  0  0  0  0
 14 15  1  0  0  0  0
 14 20  2  0  0  0  0
 11 12  1  0  0  0  0
 11 13  1  0  0  0  0
 11 14  1  0  0  0  0
  9 10  1  0  0  0  0
  9 11  1  0  0  0  0
  9 22  1  0  0  0  0
  7  8  1  0  0  0  0
  7  9  1  0  0  0  0
 26 27  1  0  0  0  0
 26 28  1  0  0  0  0
 26 29  1  0  0  0  0
 24 25  1  0  0  0  0
 24 26  1  0  0  0  0
M  END
$$$$
default_name
  -OEChem-02102213163D

 29 29  0     1  0  0  0  0  0999 V2000
   -2.9561   -3.9186    1.3887 H   0  0  0  0  0  0  0  0  0  0  0  0
   -3.1191   -2.9346    0.9517 C   0  0  0  0  0  0  0  0  0  0  0  0
   -3.7811   -2.3546    1.5917 H   0  0  0  0  0  0  0  0  0  0  0  0
   -3.5591   -3.0406   -0.0383 H   0  0  0  0  0  0  0  0  0  0  0  0
   -1.7921   -2.2226    0.8327 C   0  0  0  0  0  0  0  0  0  0  0  0
   -0.7611   -2.7766    1.1927 O   0  0  0  0  0  0  0  0  0  0  0  0
   -1.8201   -0.9926    0.3247 N   0  0  0  0  0  0  0  0  0  0  0  0
   -2.7141   -0.5816    0.0927 H   0  0  0  0  0  0  0  0  0  0  0  0
   -0.6481   -0.1156    0.2017 C   0  0  1  0  0  0  0  0  0  0  0  0
    0.1344   -0.4988    0.8596 H   0  0  0  0  0  0  0  0  0  0  0  0
   -0.1211   -0.1520   -1.2460 C   0  0  0  0  0  0  0  0  0  0  0  0
    0.3372    0.8060   -1.4962 H   0  0  0  0  0  0  0  0  0  0  0  0
    0.6493   -0.9186   -1.3391 H   0  0  0  0  0  0  0  0  0  0  0  0
   -1.2092   -0.4073   -2.2603 C   0  0  0  0  0  0  0  0  0  0  0  0
   -1.6230   -1.6591   -2.7177 N   0  0  0  0  0  0  0  0  0  0  0  0
   -2.6358   -1.4263   -3.5652 C   0  0  0  0  0  0  0  0  0  0  0  0
   -3.1732   -2.1966   -4.1039 H   0  0  0  0  0  0  0  0  0  0  0  0
   -2.8911   -0.1094   -3.6410 N   0  0  0  0  0  0  0  0  0  0  0  0
   -3.6204    0.3154   -4.1974 H   0  0  0  0  0  0  0  0  0  0  0  0
   -2.0030    0.5502   -2.8208 C   0  0  0  0  0  0  0  0  0  0  0  0
   -1.9451    1.6143   -2.6291 H   0  0  0  0  0  0  0  0  0  0  0  0
   -0.9851    1.3114    0.6698 C   0  0  0  0  0  0  0  0  0  0  0  0
   -2.0377    1.8431    0.3168 O   0  0  0  0  0  0  0  0  0  0  0  0
   -0.1052    1.9265    1.4663 N   0  0  0  0  0  0  0  0  0  0  0  0
    0.7810    1.4586    1.6201 H   0  0  0  0  0  0  0  0  0  0  0  0
   -0.2724    3.2715    2.0119 C   0  0  0  0  0  0  0  0  0  0  0  0
   -1.3249    3.4549    2.2426 H   0  0  0  0  0  0  0  0  0  0  0  0
    0.3167    3.3776    2.9239 H   0  0  0  0  0  0  0  0  0  0  0  0
    0.0609    4.0073    1.2782 H   0  0  0  0  0  0  0  0  0  0  0  0
  5  6  2  0  0  0  0
  5  7  1  0  0  0  0
  2  3  1  0  0  0  0
  2  4  1  0  0  0  0
  2  5  1  0  0  0  0
  1  2  1  0  0  0  0
 22 23  2  0  0  0  0
 22 24  1  0  0  0  0
 20 21  1  0  0  0  0
 18 19  1  0  0  0  0
 18 20  1  0  0  0  0
 16 17  1  0  0  0  0
 16 18  1  0  0  0  0
 15 16  2  0  0  0  0
 14 15  1  0  0  0  0
 14 20  2  0  0  0  0
 11 12  1  0  0  0  0
 11 13  1  0  0  0  0
 11 14  1  0  0  0  0
  9 10  1  0  0  0  0
  9 11  1  0  0  0  0
  9 22  1  0  0  0  0
  7  8  1  0  0  0  0
  7  9  1  0  0  0  0
 26 27  1  0  0  0  0
 26 28  1  0  0  0  0
 26 29  1  0  0  0  0
 24 25  1  0  0  0  0
 24 26  1  0  0  0  0
M  END
$$$$
default_name
  -OEChem-02102213163D

 29 29  0     1  0  0  0  0  0999 V2000
   -2.9561   -3.9186    1.3887 H   0  0  0  0  0  0  0  0  0  0  0  0
   -3.1191   -2.9346    0.9517 C   0  0  0  0  0  0  0  0  0  0  0  0
   -3.7811   -2.3546    1.5917 H   0  0  0  0  0  0  0  0  0  0  0  0
   -3.5591   -3.0406   -0.0383 H   0  0  0  0  0  0  0  0  0  0  0  0
   -1.7921   -2.2226    0.8327 C   0  0  0  0  0  0  0  0  0  0  0  0
   -0.7611   -2.7766    1.1927 O   0  0  0  0  0  0  0  0  0  0  0  0
   -1.8201   -0.9926    0.3247 N   0  0  0  0  0  0  0  0  0  0  0  0
   -2.7141   -0.5816    0.0927 H   0  0  0  0  0  0  0  0  0  0  0  0
   -0.6481   -0.1156    0.2017 C   0  0  1  0  0  0  0  0  0  0  0  0
    0.1344   -0.4988    0.8596 H   0  0  0  0  0  0  0  0  0  0  0  0
   -0.1211   -0.1520   -1.2460 C   0  0  0  0  0  0  0  0  0  0  0  0
    0.3372    0.8060   -1.4962 H   0  0  0  0  0  0  0  0  0  0  0  0
    0.6493   -0.9186   -1.3391 H   0  0  0  0  0  0  0  0  0  0  0  0
   -1.2092   -0.4073   -2.2603 C   0  0  0  0  0  0  0  0  0  0  0  0
   -1.8267   -1.6346   -2.5054 N   0  0  0  0  0  0  0  0  0  0  0  0
   -2.7583   -1.3990   -3.4407 C   0  0  0  0  0  0  0  0  0  0  0  0
   -3.4093   -2.1551   -3.8610 H   0  0  0  0  0  0  0  0  0  0  0  0
   -2.7728   -0.0967   -3.7711 N   0  0  0  0  0  0  0  0  0  0  0  0
   -3.3994    0.3318   -4.4387 H   0  0  0  0  0  0  0  0  0  0  0  0
   -1.8042    0.5466   -3.0331 C   0  0  0  0  0  0  0  0  0  0  0  0
   -1.5629    1.6021   -3.0359 H   0  0  0  0  0  0  0  0  0  0  0  0
   -0.9851    1.3114    0.6698 C   0  0  0  0  0  0  0  0  0  0  0  0
   -2.0377    1.8431    0.3168 O   0  0  0  0  0  0  0  0  0  0  0  0
   -0.1052    1.9265    1.4663 N   0  0  0  0  0  0  0  0  0  0  0  0
    0.7810    1.4586    1.6201 H   0  0  0  0  0  0  0  0  0  0  0  0
   -0.2724    3.2715    2.0119 C   0  0  0  0  0  0  0  0  0  0  0  0
   -1.3249    3.4549    2.2426 H   0  0  0  0  0  0  0  0  0  0  0  0
    0.3167    3.3776    2.9239 H   0  0  0  0  0  0  0  0  0  0  0  0
    0.0609    4.0073    1.2782 H   0  0  0  0  0  0  0  0  0  0  0  0
  5  6  2  0  0  0  0
  5  7  1  0  0  0  0
  2  3  1  0  0  0  0
  2  4  1  0  0  0  0
  2  5  1  0  0  0  0
  1  2  1  0  0  0  0
 22 23  2  0  0  0  0
 22 24  1  0  0  0  0
 20 21  1  0  0  0  0
 18 19  1  0  0  0  0
 18 20  1  0  0  0  0
 16 17  1  0  0  0  0
 16 18  1  0  0  0  0
 15 16  2  0  0  0  0
 14 15  1  0  0  0  0
 14 20  2  0  0  0  0
 11 12  1  0  0  0  0
 11 13  1  0  0  0  0
 11 14  1  0  0  0  0
  9 10  1  0  0  0  0
  9 11  1  0  0  0  0
  9 22  1  0  0  0  0
  7  8  1  0  0  0  0
  7  9  1  0  0  0  0
 26 27  1  0  0  0  0
 26 28  1  0  0  0  0
 26 29  1  0  0  0  0
 24 25  1  0  0  0  0
 24 26  1  0  0  0  0
M  END
$$$$
default_name
  -OEChem-02102213163D

 29 29  0     1  0  0  0  0  0999 V2000
   -2.9561   -3.9186    1.3887 H   0  0  0  0  0  0  0  0  0  0  0  0
   -3.1191   -2.9346    0.9517 C   0  0  0  0  0  0  0  0  0  0  0  0
   -3.7811   -2.3546    1.5917 H   0  0  0  0  0  0  0  0  0  0  0  0
   -3.5591   -3.0406   -0.0383 H   0  0  0  0  0  0  0  0  0  0  0  0
   -1.7921   -2.2226    0.8327 C   0  0  0  0  0  0  0  0  0  0  0  0
   -0.7611   -2.7766    1.1927 O   0  0  0  0  0  0  0  0  0  0  0  0
   -1.8201   -0.9926    0.3247 N   0  0  0  0  0  0  0  0  0  0  0  0
   -2.7141   -0.5816    0.0927 H   0  0  0  0  0  0  0  0  0  0  0  0
   -0.6481   -0.1156    0.2017 C   0  0  1  0  0  0  0  0  0  0  0  0
    0.1344   -0.4988    0.8596 H   0  0  0  0  0  0  0  0  0  0  0  0
   -0.1211   -0.1520   -1.2460 C   0  0  0  0  0  0  0  0  0  0  0  0
    0.3372    0.8060   -1.4962 H   0  0  0  0  0  0  0  0  0  0  0  0
    0.6493   -0.9186   -1.3391 H   0  0  0  0  0  0  0  0  0  0  0  0
   -1.2092   -0.4073   -2.2603 C   0  0  0  0  0  0  0  0  0  0  0  0
   -2.0284   -1.5358   -2.3138 N   0  0  0  0  0  0  0  0  0  0  0  0
   -2.8774   -1.3280   -3.3309 C   0  0  0  0  0  0  0  0  0  0  0  0
   -3.6409   -2.0286   -3.6444 H   0  0  0  0  0  0  0  0  0  0  0  0
   -2.6507   -0.1293   -3.8939 N   0  0  0  0  0  0  0  0  0  0  0  0
   -3.1724    0.2643   -4.6651 H   0  0  0  0  0  0  0  0  0  0  0  0
   -1.6035    0.4688   -3.2289 C   0  0  0  0  0  0  0  0  0  0  0  0
   -1.1781    1.4479   -3.4099 H   0  0  0  0  0  0  0  0  0  0  0  0
   -0.9851    1.3114    0.6698 C   0  0  0  0  0  0  0  0  0  0  0  0
   -2.0377    1.8431    0.3168 O   0  0  0  0  0  0  0  0  0  0  0  0
   -0.1052    1.9265    1.4663 N   0  0  0  0  0  0  0  0  0  0  0  0
    0.7810    1.4586    1.6201 H   0  0  0  0  0  0  0  0  0  0  0  0
   -0.2724    3.2715    2.0119 C   0  0  0  0  0  0  0  0  0  0  0  0
   -1.3249    3.4549    2.2426 H   0  0  0  0  0  0  0  0  0  0  0  0
    0.3167    3.3776    2.9239 H   0  0  0  0  0  0  0  0  0  0  0  0
    0.0609    4.0073    1.2782 H   0  0  0  0  0  0  0  0  0  0  0  0
  5  6  2  0  0  0  0
  5  7  1  0  0  0  0
  2  3  1  0  0  0  0
  2  4  1  0  0  0  0
  2  5  1  0  0  0  0
  1  2  1  0  0  0  0
 22 23  2  0  0  0  0
 22 24  1  0  0  0  0
 20 21  1  0  0  0  0
 18 19  1  0  0  0  0
 18 20  1  0  0  0  0
 16 17  1  0  0  0  0
 16 18  1  0  0  0  0
 15 16  2  0  0  0  0
 14 15  1  0  0  0  0
 14 20  2  0  0  0  0
 11 12  1  0  0  0  0
 11 13  1  0  0  0  0
 11 14  1  0  0  0  0
  9 10  1  0  0  0  0
  9 11  1  0  0  0  0
  9 22  1  0  0  0  0
  7  8  1  0  0  0  0
  7  9  1  0  0  0  0
 26 27  1  0  0  0  0
 26 28  1  0  0  0  0
 26 29  1  0  0  0  0
 24 25  1  0  0  0  0
 24 26  1  0  0  0  0
M  END
$$$$
default_name
  -OEChem-02102213163D

 29 29  0     1  0  0  0  0  0999 V2000
   -2.9561   -3.9186    1.3887 H   0  0  0  0  0  0  0  0  0  0  0  0
   -3.1191   -2.9346    0.9517 C   0  0  0  0  0  0  0  0  0  0  0  0
   -3.7811   -2.3546    1.5917 H   0  0  0  0  0  0  0  0  0  0  0  0
   -3.5591   -3.0406   -0.0383 H   0  0  0  0  0  0  0  0  0  0  0  0
   -1.7921   -2.2226    0.8327 C   0  0  0  0  0  0  0  0  0  0  0  0
   -0.7611   -2.7766    1.1927 O   0  0  0  0  0  0  0  0  0  0  0  0
   -1.8201   -0.9926    0.3247 N   0  0  0  0  0  0  0  0  0  0  0  0
   -2.7141   -0.5816    0.0927 H   0  0  0  0  0  0  0  0  0  0  0  0
   -0.6481   -0.1156    0.2017 C   0  0  1  0  0  0  0  0  0  0  0  0
    0.1344   -0.4988    0.8596 H   0  0  0  0  0  0  0  0  0  0  0  0
   -0.1211   -0.1520   -1.2460 C   0  0  0  0  0  0  0  0  0  0  0  0
    0.3372    0.8060   -1.4962 H   0  0  0  0  0  0  0  0  0  0  0  0
    0.6493   -0.9186   -1.3391 H   0  0  0  0  0  0  0  0  0  0  0  0
   -1.2092   -0.4073   -2.2603 C   0  0  0  0  0  0  0  0  0  0  0  0
   -2.2145   -1.3696   -2.1560 N   0  0  0  0  0  0  0  0  0  0  0  0
   -2.9848   -1.2182   -3.2432 C   0  0  0  0  0  0  0  0  0  0  0  0
   -3.8521   -1.8258   -3.4689 H   0  0  0  0  0  0  0  0  0  0  0  0
   -2.5330   -0.2049   -4.0011 N   0  0  0  0  0  0  0  0  0  0  0  0
   -2.9551    0.1173   -4.8613 H   0  0  0  0  0  0  0  0  0  0  0  0
   -1.4146    0.3222   -3.3946 C   0  0  0  0  0  0  0  0  0  0  0  0
   -0.8169    1.1622   -3.7256 H   0  0  0  0  0  0  0  0  0  0  0  0
   -0.9851    1.3114    0.6698 C   0  0  0  0  0  0  0  0  0  0  0  0
   -2.0377    1.8431    0.3168 O   0  0  0  0  0  0  0  0  0  0  0  0
   -0.1052    1.9265    1.4663 N   0  0  0  0  0  0  0  0  0  0  0  0
    0.7810    1.4586    1.6201 H   0  0  0  0  0  0  0  0  0  0  0  0
   -0.2724    3.2715    2.0119 C   0  0  0  0  0  0  0  0  0  0  0  0
   -1.3249    3.4549    2.2426 H   0  0  0  0  0  0  0  0  0  0  0  0
    0.3167    3.3776    2.9239 H   0  0  0  0  0  0  0  0  0  0  0  0
    0.0609    4.0073    1.2782 H   0  0  0  0  0  0  0  0  0  0  0  0
  5  6  2  0  0  0  0
  5  7  1  0  0  0  0
  2  3  1  0  0  0  0
  2  4  1  0  0  0  0
  2  5  1  0  0  0  0
  1  2  1  0  0  0  0
 22 23  2  0  0  0  0
 22 24  1  0  0  0  0
 20 21  1  0  0  0  0
 18 19  1  0  0  0  0
 18 20  1  0  0  0  0
 16 17  1  0  0  0  0
 16 18  1  0  0  0  0
 15 16  2  0  0  0  0
 14 15  1  0  0  0  0
 14 20  2  0  0  0  0
 11 12  1  0  0  0  0
 11 13  1  0  0  0  0
 11 14  1  0  0  0  0
  9 10  1  0  0  0  0
  9 11  1  0  0  0  0
  9 22  1  0  0  0  0
  7  8  1  0  0  0  0
  7  9  1  0  0  0  0
 26 27  1  0  0  0  0
 26 28  1  0  0  0  0
 26 29  1  0  0  0  0
 24 25  1  0  0  0  0
 24 26  1  0  0  0  0
M  END
$$$$
default_name
  -OEChem-02102213163D

 29 29  0     1  0  0  0  0  0999 V2000
   -2.9561   -3.9186    1.3887 H   0  0  0  0  0  0  0  0  0  0  0  0
   -3.1191   -2.9346    0.9517 C   0  0  0  0  0  0  0  0  0  0  0  0
   -3.7811   -2.3546    1.5917 H   0  0  0  0  0  0  0  0  0  0  0  0
   -3.5591   -3.0406   -0.0383 H   0  0  0  0  0  0  0  0  0  0  0  0
   -1.7921   -2.2226    0.8327 C   0  0  0  0  0  0  0  0  0  0  0  0
   -0.7611   -2.7766    1.1927 O   0  0  0  0  0  0  0  0  0  0  0  0
   -1.8201   -0.9926    0.3247 N   0  0  0  0  0  0  0  0  0  0  0  0
   -2.7141   -0.5816    0.0927 H   0  0  0  0  0  0  0  0  0  0  0  0
   -0.6481   -0.1156    0.2017 C   0  0  1  0  0  0  0  0  0  0  0  0
    0.1344   -0.4988    0.8596 H   0  0  0  0  0  0  0  0  0  0  0  0
   -0.1211   -0.1520   -1.2460 C   0  0  0  0  0  0  0  0  0  0  0  0
    0.3372    0.8060   -1.4962 H   0  0  0  0  0  0  0  0  0  0  0  0
    0.6493   -0.9186   -1.3391 H   0  0  0  0  0  0  0  0  0  0  0  0
   -1.2092   -0.4073   -2.2603 C   0  0  0  0  0  0  0  0  0  0  0  0
   -2.3723   -1.1472   -2.0427 N   0  0  0  0  0  0  0  0  0  0  0  0
   -3.0733   -1.0772   -3.1838 C   0  0  0  0  0  0  0  0  0  0  0  0
   -4.0285   -1.5604   -3.3465 H   0  0  0  0  0  0  0  0  0  0  0  0
   -2.4278   -0.3185   -4.0854 N   0  0  0  0  0  0  0  0  0  0  0  0
   -2.7621   -0.0991   -5.0138 H   0  0  0  0  0  0  0  0  0  0  0  0
   -1.2504    0.1169   -3.5191 C   0  0  0  0  0  0  0  0  0  0  0  0
   -0.5038    0.7645   -3.9613 H   0  0  0  0  0  0  0  0  0  0  0  0
   -0.9851    1.3114    0.6698 C   0  0  0  0  0  0  0  0  0  0  0  0
   -2.0377    1.8431    0.3168 O   0  0  0  0  0  0  0  0  0  0  0  0
   -0.1052    1.9265    1.4663 N   0  0  0  0  0  0  0  0  0  0  0  0
    0.7810    1.4586    1.6201 H   0  0  0  0  0  0  0  0  0  0  0  0
   -0.2724    3.2715    2.0119 C   0  0  0  0  0  0  0  0  0  0  0  0
   -1.3249    3.4549    2.2426 H   0  0  0  0  0  0  0  0  0  0  0  0
    0.3167    3.3776    2.9239 H   0  0  0  0  0  0  0  0  0  0  0  0
    0.0609    4.0073    1.2782 H   0  0  0  0  0  0  0  0  0  0  0  0
  5  6  2  0  0  0  0
  5  7  1  0  0  0  0
  2  3  1  0  0  0  0
  2  4  1  0  0  0  0
  2  5  1  0  0  0  0
  1  2  1  0  0  0  0
 22 23  2  0  0  0  0
 22 24  1  0  0  0  0
 20 21  1  0  0  0  0
 18 19  1  0  0  0  0
 18 20  1  0  0  0  0
 16 17  1  0  0  0  0
 16 18  1  0  0  0  0
 15 16  2  0  0  0  0
 14 15  1  0  0  0  0
 14 20  2  0  0  0  0
 11 12  1  0  0  0  0
 11 13  1  0  0  0  0
 11 14  1  0  0  0  0
  9 10  1  0  0  0  0
  9 11  1  0  0  0  0
  9 22  1  0  0  0  0
  7  8  1  0  0  0  0
  7  9  1  0  0  0  0
 26 27  1  0  0  0  0
 26 28  1  0  0  0  0
 26 29  1  0  0  0  0
 24 25  1  0  0  0  0
 24 26  1  0  0  0  0
M  END
$$$$
default_name
  -OEChem-02102213163D

 29 29  0     1  0  0  0  0  0999 V2000
   -2.9561   -3.9186    1.3887 H   0  0  0  0  0  0  0  0  0  0  0  0
   -3.1191   -2.9346    0.9517 C   0  0  0  0  0  0  0  0  0  0  0  0
   -3.7811   -2.3546    1.5917 H   0  0  0  0  0  0  0  0  0  0  0  0
   -3.5591   -3.0406   -0.0383 H   0  0  0  0  0  0  0  0  0  0  0  0
   -1.7921   -2.2226    0.8327 C   0  0  0  0  0  0  0  0  0  0  0  0
   -0.7611   -2.7766    1.1927 O   0  0  0  0  0  0  0  0  0  0  0  0
   -1.8201   -0.9926    0.3247 N   0  0  0  0  0  0  0  0  0  0  0  0
   -2.7141   -0.5816    0.0927 H   0  0  0  0  0  0  0  0  0  0  0  0
   -0.6481   -0.1156    0.2017 C   0  0  1  0  0  0  0  0  0  0  0  0
    0.1344   -0.4988    0.8596 H   0  0  0  0  0  0  0  0  0  0  0  0
   -0.1211   -0.1520   -1.2460 C   0  0  0  0  0  0  0  0  0  0  0  0
    0.3372    0.8060   -1.4962 H   0  0  0  0  0  0  0  0  0  0  0  0
    0.6493   -0.9186   -1.3391 H   0  0  0  0  0  0  0  0  0  0  0  0
   -1.2092   -0.4073   -2.2603 C   0  0  0  0  0  0  0  0  0  0  0  0
   -2.4909   -0.8839   -1.9818 N   0  0  0  0  0  0  0  0  0  0  0  0
   -3.1369   -0.9144   -3.1565 C   0  0  0  0  0  0  0  0  0  0  0  0
   -4.1580   -1.2505   -3.2856 H   0  0  0  0  0  0  0  0  0  0  0  0
   -2.3422   -0.4622   -4.1410 N   0  0  0  0  0  0  0  0  0  0  0  0
   -2.6067   -0.3701   -5.1123 H   0  0  0  0  0  0  0  0  0  0  0  0
   -1.1220   -0.1333   -3.5939 C   0  0  0  0  0  0  0  0  0  0  0  0
   -0.2602    0.2820   -4.1011 H   0  0  0  0  0  0  0  0  0  0  0  0
   -0.9851    1.3114    0.6698 C   0  0  0  0  0  0  0  0  0  0  0  0
   -2.0377    1.8431    0.3168 O   0  0  0  0  0  0  0  0  0  0  0  0
   -0.1052    1.9265    1.4663 N   0  0  0  0  0  0  0  0  0  0  0  0
    0.7810    1.4586    1.6201 H   0  0  0  0  0  0  0  0  0  0  0  0
   -0.2724    3.2715    2.0119 C   0  0  0  0  0  0  0  0  0  0  0  0
   -1.3249    3.4549    2.2426 H   0  0  0  0  0  0  0  0  0  0  0  0
    0.3167    3.3776    2.9239 H   0  0  0  0  0  0  0  0  0  0  0  0
    0.0609    4.0073    1.2782 H   0  0  0  0  0  0  0  0  0  0  0  0
  5  6  2  0  0  0  0
  5  7  1  0  0  0  0
  2  3  1  0  0  0  0
  2  4  1  0  0  0  0
  2  5  1  0  0  0  0
  1  2  1  0  0  0  0
 22 23  2  0  0  0  0
 22 24  1  0  0  0  0
 20 21  1  0  0  0  0
 18 19  1  0  0  0  0
 18 20  1  0  0  0  0
 16 17  1  0  0  0  0
 16 18  1  0  0  0  0
 15 16  2  0  0  0  0
 14 15  1  0  0  0  0
 14 20  2  0  0  0  0
 11 12  1  0  0  0  0
 11 13  1  0  0  0  0
 11 14  1  0  0  0  0
  9 10  1  0  0  0  0
  9 11  1  0  0  0  0
  9 22  1  0  0  0  0
  7  8  1  0  0  0  0
  7  9  1  0  0  0  0
 26 27  1  0  0  0  0
 26 28  1  0  0  0  0
 26 29  1  0  0  0  0
 24 25  1  0  0  0  0
 24 26  1  0  0  0  0
M  END
$$$$
default_name
  -OEChem-02102213163D

 29 29  0     1  0  0  0  0  0999 V2000
   -2.9561   -3.9186    1.3887 H   0  0  0  0  0  0  0  0  0  0  0  0
   -3.1191   -2.9346    0.9517 C   0  0  0  0  0  0  0  0  0  0  0  0
   -3.7811   -2.3546    1.5917 H   0  0  0  0  0  0  0  0  0  0  0  0
   -3.5591   -3.0406   -0.0383 H   0  0  0  0  0  0  0  0  0  0  0  0
   -1.7921   -2.2226    0.8327 C   0  0  0  0  0  0  0  0  0  0  0  0
   -0.7611   -2.7766    1.1927 O   0  0  0  0  0  0  0  0  0  0  0  0
   -1.8201   -0.9926    0.3247 N   0  0  0  0  0  0  0  0  0  0  0  0
   -2.7141   -0.5816    0.0927 H   0  0  0  0  0  0  0  0  0  0  0  0
   -0.6481   -0.1156    0.2017 C   0  0  1  0  0  0  0  0  0  0  0  0
    0.1344   -0.4988    0.8596 H   0  0  0  0  0  0  0  0  0  0  0  0
   -0.1211   -0.1520   -1.2460 C   0  0  0  0  0  0  0  0  0  0  0  0
    0.3372    0.8060   -1.4962 H   0  0  0  0  0  0  0  0  0  0  0  0
    0.6493   -0.9186   -1.3391 H   0  0  0  0  0  0  0  0  0  0  0  0
   -1.2092   -0.4073   -2.2603 C   0  0  0  0  0  0  0  0  0  0  0  0
   -2.5624   -0.5974   -1.9772 N   0  0  0  0  0  0  0  0  0  0  0  0
   -3.1712   -0.7411   -3.1634 C   0  0  0  0  0  0  0  0  0  0  0  0
   -4.2320   -0.9172   -3.2902 H   0  0  0  0  0  0  0  0  0  0  0  0
   -2.2821   -0.6262   -4.1642 N   0  0  0  0  0  0  0  0  0  0  0  0
   -2.4994   -0.6773   -5.1501 H   0  0  0  0  0  0  0  0  0  0  0  0
   -1.0382   -0.4111   -3.6138 C   0  0  0  0  0  0  0  0  0  0  0  0
   -0.1028   -0.2526   -4.1355 H   0  0  0  0  0  0  0  0  0  0  0  0
   -0.9851    1.3114    0.6698 C   0  0  0  0  0  0  0  0  0  0  0  0
   -2.0377    1.8431    0.3168 O   0  0  0  0  0  0  0  0  0  0  0  0
   -0.1052    1.9265    1.4663 N   0  0  0  0  0  0  0  0  0  0  0  0
    0.7810    1.4586    1.6201 H   0  0  0  0  0  0  0  0  0  0  0  0
   -0.2724    3.2715    2.0119 C   0  0  0  0  0  0  0  0  0  0  0  0
   -1.3249    3.4549    2.2426 H   0  0  0  0  0  0  0  0  0  0  0  0
    0.3167    3.3776    2.9239 H   0  0  0  0  0  0  0  0  0  0  0  0
    0.0609    4.0073    1.2782 H   0  0  0  0  0  0  0  0  0  0  0  0
  5  6  2  0  0  0  0
  5  7  1  0  0  0  0
  2  3  1  0  0  0  0
  2  4  1  0  0  0  0
  2  5  1  0  0  0  0
  1  2  1  0  0  0  0
 22 23  2  0  0  0  0
 22 24  1  0  0  0  0
 20 21  1  0  0  0  0
 18 19  1  0  0  0  0
 18 20  1  0  0  0  0
 16 17  1  0  0  0  0
 16 18  1  0  0  0  0
 15 16  2  0  0  0  0
 14 15  1  0  0  0  0
 14 20  2  0  0  0  0
 11 12  1  0  0  0  0
 11 13  1  0  0  0  0
 11 14  1  0  0  0  0
  9 10  1  0  0  0  0
  9 11  1  0  0  0  0
  9 22  1  0  0  0  0
  7  8  1  0  0  0  0
  7  9  1  0  0  0  0
 26 27  1  0  0  0  0
 26 28  1  0  0  0  0
 26 29  1  0  0  0  0
 24 25  1  0  0  0  0
 24 26  1  0  0  0  0
M  END
$$$$
default_name
  -OEChem-02102213163D

 29 29  0     1  0  0  0  0  0999 V2000
   -2.9561   -3.9186    1.3887 H   0  0  0  0  0  0  0  0  0  0  0  0
   -3.1191   -2.9346    0.9517 C   0  0  0  0  0  0  0  0  0  0  0  0
   -3.7811   -2.3546    1.5917 H   0  0  0  0  0  0  0  0  0  0  0  0
   -3.5591   -3.0406   -0.0383 H   0  0  0  0  0  0  0  0  0  0  0  0
   -1.7921   -2.2226    0.8327 C   0  0  0  0  0  0  0  0  0  0  0  0
   -0.7611   -2.7766    1.1927 O   0  0  0  0  0  0  0  0  0  0  0  0
   -1.8201   -0.9926    0.3247 N   0  0  0  0  0  0  0  0  0  0  0  0
   -2.7141   -0.5816    0.0927 H   0  0  0  0  0  0  0  0  0  0  0  0
   -0.6481   -0.1156    0.2017 C   0  0  1  0  0  0  0  0  0  0  0  0
    0.1344   -0.4988    0.8596 H   0  0  0  0  0  0  0  0  0  0  0  0
   -0.1211   -0.1520   -1.2460 C   0  0  0  0  0  0  0  0  0  0  0  0
    0.3372    0.8060   -1.4962 H   0  0  0  0  0  0  0  0  0  0  0  0
    0.6493   -0.9186   -1.3391 H   0  0  0  0  0  0  0  0  0  0  0  0
   -1.2092   -0.4073   -2.2603 C   0  0  0  0  0  0  0  0  0  0  0  0
   -2.5819   -0.3075   -2.0293 N   0  0  0  0  0  0  0  0  0  0  0  0
   -3.1739   -0.5690   -3.2038 C   0  0  0  0  0  0  0  0  0  0  0  0
   -4.2452   -0.5833   -3.3600 H   0  0  0  0  0  0  0  0  0  0  0  0
   -2.2516   -0.7995   -4.1533 N   0  0  0  0  0  0  0  0  0  0  0  0
   -2.4475   -0.9998   -5.1246 H   0  0  0  0  0  0  0  0  0  0  0  0
   -1.0047   -0.6979   -3.5775 C   0  0  0  0  0  0  0  0  0  0  0  0
   -0.0421   -0.8027   -4.0620 H   0  0  0  0  0  0  0  0  0  0  0  0
   -0.9851    1.3114    0.6698 C   0  0  0  0  0  0  0  0  0  0  0  0
   -2.0377    1.8431    0.3168 O   0  0  0  0  0  0  0  0  0  0  0  0
   -0.1052    1.9265    1.4663 N   0  0  0  0  0  0  0  0  0  0  0  0
    0.7810    1.4586    1.6201 H   0  0  0  0  0  0  0  0  0  0  0  0
   -0.2724    3.2715    2.0119 C   0  0  0  0  0  0  0  0  0  0  0  0
   -1.3249    3.4549    2.2426 H   0  0  0  0  0  0  0  0  0  0  0  0
    0.3167    3.3776    2.9239 H   0  0  0  0  0  0  0  0  0  0  0  0
    0.0609    4.0073    1.2782 H   0  0  0  0  0  0  0  0  0  0  0  0
  5  6  2  0  0  0  0
  5  7  1  0  0  0  0
  2  3  1  0  0  0  0
  2  4  1  0  0  0  0
  2  5  1  0  0  0  0
  1  2  1  0  0  0  0
 22 23  2  0  0  0  0
 22 24  1  0  0  0  0
 20 21  1  0  0  0  0
 18 19  1  0  0  0  0
 18 20  1  0  0  0  0
 16 17  1  0  0  0  0
 16 18  1  0  0  0  0
 15 16  2  0  0  0  0
 14 15  1  0  0  0  0
 14 20  2  0  0  0  0
 11 12  1  0  0  0  0
 11 13  1  0  0  0  0
 11 14  1  0  0  0  0
  9 10  1  0  0  0  0
  9 11  1  0  0  0  0
  9 22  1  0  0  0  0
  7  8  1  0  0  0  0
  7  9  1  0  0  0  0
 26 27  1  0  0  0  0
 26 28  1  0  0  0  0
 26 29  1  0  0  0  0
 24 25  1  0  0  0  0
 24 26  1  0  0  0  0
M  END
$$$$
default_name
  -OEChem-02102213163D

 29 29  0     1  0  0  0  0  0999 V2000
   -2.9561   -3.9186    1.3887 H   0  0  0  0  0  0  0  0  0  0  0  0
   -3.1191   -2.9346    0.9517 C   0  0  0  0  0  0  0  0  0  0  0  0
   -3.7811   -2.3546    1.5917 H   0  0  0  0  0  0  0  0  0  0  0  0
   -3.5591   -3.0406   -0.0383 H   0  0  0  0  0  0  0  0  0  0  0  0
   -1.7921   -2.2226    0.8327 C   0  0  0  0  0  0  0  0  0  0  0  0
   -0.7611   -2.7766    1.1927 O   0  0  0  0  0  0  0  0  0  0  0  0
   -1.8201   -0.9926    0.3247 N   0  0  0  0  0  0  0  0  0  0  0  0
   -2.7141   -0.5816    0.0927 H   0  0  0  0  0  0  0  0  0  0  0  0
   -0.6481   -0.1156    0.2017 C   0  0  1  0  0  0  0  0  0  0  0  0
    0.1344   -0.4988    0.8596 H   0  0  0  0  0  0  0  0  0  0  0  0
   -0.1211   -0.1520   -1.2460 C   0  0  0  0  0  0  0  0  0  0  0  0
    0.3372    0.8060   -1.4962 H   0  0  0  0  0  0  0  0  0  0  0  0
    0.6493   -0.9186   -1.3391 H   0  0  0  0  0  0  0  0  0  0  0  0
   -1.2092   -0.4073   -2.2603 C   0  0  0  0  0  0  0  0  0  0  0  0
   -2.5479   -0.0338   -2.1347 N   0  0  0  0  0  0  0  0  0  0  0  0
   -3.1448   -0.4098   -3.2751 C   0  0  0  0  0  0  0  0  0  0  0  0
   -4.1968   -0.2716   -3.4904 H   0  0  0  0  0  0  0  0  0  0  0  0
   -2.2527   -0.9701   -4.1091 N   0  0  0  0  0  0  0  0  0  0  0  0
   -2.4546   -1.3155   -5.0375 H   0  0  0  0  0  0  0  0  0  0  0  0
   -1.0239   -0.9739   -3.4874 C   0  0  0  0  0  0  0  0  0  0  0  0
   -0.0825   -1.3309   -3.8857 H   0  0  0  0  0  0  0  0  0  0  0  0
   -0.9851    1.3114    0.6698 C   0  0  0  0  0  0  0  0  0  0  0  0
   -2.0377    1.8431    0.3168 O   0  0  0  0  0  0  0  0  0  0  0  0
   -0.1052    1.9265    1.4663 N   0  0  0  0  0  0  0  0  0  0  0  0
    0.7810    1.4586    1.6201 H   0  0  0  0  0  0  0  0  0  0  0  0
   -0.2724    3.2715    2.0119 C   0  0  0  0  0  0  0  0  0  0  0  0
   -1.3249    3.4549    2.2426 H   0  0  0  0  0  0  0  0  0  0  0  0
    0.3167    3.3776    2.9239 H   0  0  0  0  0  0  0  0  0  0  0  0
    0.0609    4.0073    1.2782 H   0  0  0  0  0  0  0  0  0  0  0  0
  5  6  2  0  0  0  0
  5  7  1  0  0  0  0
  2  3  1  0  0  0  0
  2  4  1  0  0  0  0
  2  5  1  0  0  0  0
  1  2  1  0  0  0  0
 22 23  2  0  0  0  0
 22 24  1  0  0  0  0
 20 21  1  0  0  0  0
 18 19  1  0  0  0  0
 18 20  1  0  0  0  0
 16 17  1  0  0  0  0
 16 18  1  0  0  0  0
 15 16  2  0  0  0  0
 14 15  1  0  0  0  0
 14 20  2  0  0  0  0
 11 12  1  0  0  0  0
 11 13  1  0  0  0  0
 11 14  1  0  0  0  0
  9 10  1  0  0  0  0
  9 11  1  0  0  0  0
  9 22  1  0  0  0  0
  7  8  1  0  0  0  0
  7  9  1  0  0  0  0
 26 27  1  0  0  0  0
 26 28  1  0  0  0  0
 26 29  1  0  0  0  0
 24 25  1  0  0  0  0
 24 26  1  0  0  0  0
M  END
$$$$
default_name
  -OEChem-02102213163D

 29 29  0     1  0  0  0  0  0999 V2000
   -2.9561   -3.9186    1.3887 H   0  0  0  0  0  0  0  0  0  0  0  0
   -3.1191   -2.9346    0.9517 C   0  0  0  0  0  0  0  0  0  0  0  0
   -3.7811   -2.3546    1.5917 H   0  0  0  0  0  0  0  0  0  0  0  0
   -3.5591   -3.0406   -0.0383 H   0  0  0  0  0  0  0  0  0  0  0  0
   -1.7921   -2.2226    0.8327 C   0  0  0  0  0  0  0  0  0  0  0  0
   -0.7611   -2.7766    1.1927 O   0  0  0  0  0  0  0  0  0  0  0  0
   -1.8201   -0.9926    0.3247 N   0  0  0  0  0  0  0  0  0  0  0  0
   -2.7141   -0.5816    0.0927 H   0  0  0  0  0  0  0  0  0  0  0  0
   -0.6481   -0.1156    0.2017 C   0  0  1  0  0  0  0  0  0  0  0  0
    0.1344   -0.4988    0.8596 H   0  0  0  0  0  0  0  0  0  0  0  0
   -0.1211   -0.1520   -1.2460 C   0  0  0  0  0  0  0  0  0  0  0  0
    0.3372    0.8060   -1.4962 H   0  0  0  0  0  0  0  0  0  0  0  0
    0.6493   -0.9186   -1.3391 H   0  0  0  0  0  0  0  0  0  0  0  0
   -1.2092   -0.4073   -2.2603 C   0  0  0  0  0  0  0  0  0  0  0  0
   -2.4629    0.2050   -2.2860 N   0  0  0  0  0  0  0  0  0  0  0  0
   -3.0859   -0.2744   -3.3725 C   0  0  0  0  0  0  0  0  0  0  0  0
   -4.0902   -0.0032   -3.6724 H   0  0  0  0  0  0  0  0  0  0  0  0
   -2.2854   -1.1265   -4.0347 N   0  0  0  0  0  0  0  0  0  0  0  0
   -2.5202   -1.6030   -4.8947 H   0  0  0  0  0  0  0  0  0  0  0  0
   -1.0943   -1.2203   -3.3498 C   0  0  0  0  0  0  0  0  0  0  0  0
   -0.2211   -1.8013   -3.6186 H   0  0  0  0  0  0  0  0  0  0  0  0
   -0.9851    1.3114    0.6698 C   0  0  0  0  0  0  0  0  0  0  0  0
   -2.0377    1.8431    0.3168 O   0  0  0  0  0  0  0  0  0  0  0  0
   -0.1052    1.9265    1.4663 N   0  0  0  0  0  0  0  0  0  0  0  0
    0.7810    1.4586    1.6201 H   0  0  0  0  0  0  0  0  0  0  0  0
   -0.2724    3.2715    2.0119 C   0  0  0  0  0  0  0  0  0  0  0  0
   -1.3249    3.4549    2.2426 H   0  0  0  0  0  0  0  0  0  0  0  0
    0.3167    3.3776    2.9239 H   0  0  0  0  0  0  0  0  0  0  0  0
    0.0609    4.0073    1.2782 H   0  0  0  0  0  0  0  0  0  0  0  0
  5  6  2  0  0  0  0
  5  7  1  0  0  0  0
  2  3  1  0  0  0  0
  2  4  1  0  0  0  0
  2  5  1  0  0  0  0
  1  2  1  0  0  0  0
 22 23  2  0  0  0  0
 22 24  1  0  0  0  0
 20 21  1  0  0  0  0
 18 19  1  0  0  0  0
 18 20  1  0  0  0  0
 16 17  1  0  0  0  0
 16 18  1  0  0  0  0
 15 16  2  0  0  0  0
 14 15  1  0  0  0  0
 14 20  2  0  0  0  0
 11 12  1  0  0  0  0
 11 13  1  0  0  0  0
 11 14  1  0  0  0  0
  9 10  1  0  0  0  0
  9 11  1  0  0  0  0
  9 22  1  0  0  0  0
  7  8  1  0  0  0  0
  7  9  1  0  0  0  0
 26 27  1  0  0  0  0
 26 28  1  0  0  0  0
 26 29  1  0  0  0  0
 24 25  1  0  0  0  0
 24 26  1  0  0  0  0
M  END
$$$$
default_name
  -OEChem-02102213163D

 29 29  0     1  0  0  0  0  0999 V2000
   -2.9561   -3.9186    1.3887 H   0  0  0  0  0  0  0  0  0  0  0  0
   -3.1191   -2.9346    0.9517 C   0  0  0  0  0  0  0  0  0  0  0  0
   -3.7811   -2.3546    1.5917 H   0  0  0  0  0  0  0  0  0  0  0  0
   -3.5591   -3.0406   -0.0383 H   0  0  0  0  0  0  0  0  0  0  0  0
   -1.7921   -2.2226    0.8327 C   0  0  0  0  0  0  0  0  0  0  0  0
   -0.7611   -2.7766    1.1927 O   0  0  0  0  0  0  0  0  0  0  0  0
   -1.8201   -0.9926    0.3247 N   0  0  0  0  0  0  0  0  0  0  0  0
   -2.7141   -0.5816    0.0927 H   0  0  0  0  0  0  0  0  0  0  0  0
   -0.6481   -0.1156    0.2017 C   0  0  1  0  0  0  0  0  0  0  0  0
    0.1344   -0.4988    0.8596 H   0  0  0  0  0  0  0  0  0  0  0  0
   -0.1211   -0.1520   -1.2460 C   0  0  0  0  0  0  0  0  0  0  0  0
    0.3372    0.8060   -1.4962 H   0  0  0  0  0  0  0  0  0  0  0  0
    0.6493   -0.9186   -1.3391 H   0  0  0  0  0  0  0  0  0  0  0  0
   -1.2092   -0.4073   -2.2603 C   0  0  0  0  0  0  0  0  0  0  0  0
   -2.3326    0.3927   -2.4730 N   0  0  0  0  0  0  0  0  0  0  0  0
   -3.0011   -0.1720   -3.4891 C   0  0  0  0  0  0  0  0  0  0  0  0
   -3.9326    0.2036   -3.8936 H   0  0  0  0  0  0  0  0  0  0  0  0
   -2.3475   -1.2579   -3.9350 N   0  0  0  0  0  0  0  0  0  0  0  0
   -2.6398   -1.8427   -4.7061 H   0  0  0  0  0  0  0  0  0  0  0  0
   -1.2113   -1.4204   -3.1740 C   0  0  0  0  0  0  0  0  0  0  0  0
   -0.4484   -2.1816   -3.2789 H   0  0  0  0  0  0  0  0  0  0  0  0
   -0.9851    1.3114    0.6698 C   0  0  0  0  0  0  0  0  0  0  0  0
   -2.0377    1.8431    0.3168 O   0  0  0  0  0  0  0  0  0  0  0  0
   -0.1052    1.9265    1.4663 N   0  0  0  0  0  0  0  0  0  0  0  0
    0.7810    1.4586    1.6201 H   0  0  0  0  0  0  0  0  0  0  0  0
   -0.2724    3.2715    2.0119 C   0  0  0  0  0  0  0  0  0  0  0  0
   -1.3249    3.4549    2.2426 H   0  0  0  0  0  0  0  0  0  0  0  0
    0.3167    3.3776    2.9239 H   0  0  0  0  0  0  0  0  0  0  0  0
    0.0609    4.0073    1.2782 H   0  0  0  0  0  0  0  0  0  0  0  0
  5  6  2  0  0  0  0
  5  7  1  0  0  0  0
  2  3  1  0  0  0  0
  2  4  1  0  0  0  0
  2  5  1  0  0  0  0
  1  2  1  0  0  0  0
 22 23  2  0  0  0  0
 22 24  1  0  0  0  0
 20 21  1  0  0  0  0
 18 19  1  0  0  0  0
 18 20  1  0  0  0  0
 16 17  1  0  0  0  0
 16 18  1  0  0  0  0
 15 16  2  0  0  0  0
 14 15  1  0  0  0  0
 14 20  2  0  0  0  0
 11 12  1  0  0  0  0
 11 13  1  0  0  0  0
 11 14  1  0  0  0  0
  9 10  1  0  0  0  0
  9 11  1  0  0  0  0
  9 22  1  0  0  0  0
  7  8  1  0  0  0  0
  7  9  1  0  0  0  0
 26 27  1  0  0  0  0
 26 28  1  0  0  0  0
 26 29  1  0  0  0  0
 24 25  1  0  0  0  0
 24 26  1  0  0  0  0
M  END
$$$$
default_name
  -OEChem-02102213163D

 29 29  0     1  0  0  0  0  0999 V2000
   -2.9561   -3.9186    1.3887 H   0  0  0  0  0  0  0  0  0  0  0  0
   -3.1191   -2.9346    0.9517 C   0  0  0  0  0  0  0  0  0  0  0  0
   -3.7811   -2.3546    1.5917 H   0  0  0  0  0  0  0  0  0  0  0  0
   -3.5591   -3.0406   -0.0383 H   0  0  0  0  0  0  0  0  0  0  0  0
   -1.7921   -2.2226    0.8327 C   0  0  0  0  0  0  0  0  0  0  0  0
   -0.7611   -2.7766    1.1927 O   0  0  0  0  0  0  0  0  0  0  0  0
   -1.8201   -0.9926    0.3247 N   0  0  0  0  0  0  0  0  0  0  0  0
   -2.7141   -0.5816    0.0927 H   0  0  0  0  0  0  0  0  0  0  0  0
   -0.6481   -0.1156    0.2017 C   0  0  1  0  0  0  0  0  0  0  0  0
    0.1344   -0.4988    0.8596 H   0  0  0  0  0  0  0  0  0  0  0  0
   -0.1211   -0.1520   -1.2460 C   0  0  0  0  0  0  0  0  0  0  0  0
    0.3372    0.8060   -1.4962 H   0  0  0  0  0  0  0  0  0  0  0  0
    0.6493   -0.9186   -1.3391 H   0  0  0  0  0  0  0  0  0  0  0  0
   -1.2092   -0.4073   -2.2603 C   0  0  0  0  0  0  0  0  0  0  0  0
   -2.1660    0.5164   -2.6830 N   0  0  0  0  0  0  0  0  0  0  0  0
   -2.8964   -0.1097   -3.6172 C   0  0  0  0  0  0  0  0  0  0  0  0
   -3.7346    0.3346   -4.1389 H   0  0  0  0  0  0  0  0  0  0  0  0
   -2.4346   -1.3555   -3.8170 N   0  0  0  0  0  0  0  0  0  0  0  0
   -2.8052   -2.0182   -4.4844 H   0  0  0  0  0  0  0  0  0  0  0  0
   -1.3667   -1.5606   -2.9719 C   0  0  0  0  0  0  0  0  0  0  0  0
   -0.7490   -2.4461   -2.8898 H   0  0  0  0  0  0  0  0  0  0  0  0
   -0.9851    1.3114    0.6698 C   0  0  0  0  0  0  0  0  0  0  0  0
   -2.0377    1.8431    0.3168 O   0  0  0  0  0  0  0  0  0  0  0  0
   -0.1052    1.9265    1.4663 N   0  0  0  0  0  0  0  0  0  0  0  0
    0.7810    1.4586    1.6201 H   0  0  0  0  0  0  0  0  0  0  0  0
   -0.2724    3.2715    2.0119 C   0  0  0  0  0  0  0  0  0  0  0  0
   -1.3249    3.4549    2.2426 H   0  0  0  0  0  0  0  0  0  0  0  0
    0.3167    3.3776    2.9239 H   0  0  0  0  0  0  0  0  0  0  0  0
    0.0609    4.0073    1.2782 H   0  0  0  0  0  0  0  0  0  0  0  0
  5  6  2  0  0  0  0
  5  7  1  0  0  0  0
  2  3  1  0  0  0  0
  2  4  1  0  0  0  0
  2  5  1  0  0  0  0
  1  2  1  0  0  0  0
 22 23  2  0  0  0  0
 22 24  1  0  0  0  0
 20 21  1  0  0  0  0
 18 19  1  0  0  0  0
 18 20  1  0  0  0  0
 16 17  1  0  0  0  0
 16 18  1  0  0  0  0
 15 16  2  0  0  0  0
 14 15  1  0  0  0  0
 14 20  2  0  0  0  0
 11 12  1  0  0  0  0
 11 13  1  0  0  0  0
 11 14  1  0  0  0  0
  9 10  1  0  0  0  0
  9 11  1  0  0  0  0
  9 22  1  0  0  0  0
  7  8  1  0  0  0  0
  7  9  1  0  0  0  0
 26 27  1  0  0  0  0
 26 28  1  0  0  0  0
 26 29  1  0  0  0  0
 24 25  1  0  0  0  0
 24 26  1  0  0  0  0
M  END
$$$$
default_name
  -OEChem-02102213163D

 29 29  0     1  0  0  0  0  0999 V2000
   -2.9561   -3.9186    1.3887 H   0  0  0  0  0  0  0  0  0  0  0  0
   -3.1191   -2.9346    0.9517 C   0  0  0  0  0  0  0  0  0  0  0  0
   -3.7811   -2.3546    1.5917 H   0  0  0  0  0  0  0  0  0  0  0  0
   -3.5591   -3.0406   -0.0383 H   0  0  0  0  0  0  0  0  0  0  0  0
   -1.7921   -2.2226    0.8327 C   0  0  0  0  0  0  0  0  0  0  0  0
   -0.7611   -2.7766    1.1927 O   0  0  0  0  0  0  0  0  0  0  0  0
   -1.8201   -0.9926    0.3247 N   0  0  0  0  0  0  0  0  0  0  0  0
   -2.7141   -0.5816    0.0927 H   0  0  0  0  0  0  0  0  0  0  0  0
   -0.6481   -0.1156    0.2017 C   0  0  1  0  0  0  0  0  0  0  0  0
    0.1344   -0.4988    0.8596 H   0  0  0  0  0  0  0  0  0  0  0  0
   -0.1211   -0.1520   -1.2460 C   0  0  0  0  0  0  0  0  0  0  0  0
    0.3372    0.8060   -1.4962 H   0  0  0  0  0  0  0  0  0  0  0  0
    0.6493   -0.9186   -1.3391 H   0  0  0  0  0  0  0  0  0  0  0  0
   -1.2092   -0.4073   -2.2603 C   0  0  0  0  0  0  0  0  0  0  0  0
   -1.9743    0.5678   -2.9016 N   0  0  0  0  0  0  0  0  0  0  0  0
   -2.7787   -0.0916   -3.7480 C   0  0  0  0  0  0  0  0  0  0  0  0
   -3.5099    0.3810   -4.3917 H   0  0  0  0  0  0  0  0  0  0  0  0
   -2.5409   -1.4126   -3.6885 N   0  0  0  0  0  0  0  0  0  0  0  0
   -3.0053   -2.1175   -4.2447 H   0  0  0  0  0  0  0  0  0  0  0  0
   -1.5501   -1.6312   -2.7574 C   0  0  0  0  0  0  0  0  0  0  0  0
   -1.1024   -2.5767   -2.4778 H   0  0  0  0  0  0  0  0  0  0  0  0
   -0.9851    1.3114    0.6698 C   0  0  0  0  0  0  0  0  0  0  0  0
   -2.0377    1.8431    0.3168 O   0  0  0  0  0  0  0  0  0  0  0  0
   -0.1052    1.9265    1.4663 N   0  0  0  0  0  0  0  0  0  0  0  0
    0.7810    1.4586    1.6201 H   0  0  0  0  0  0  0  0  0  0  0  0
   -0.2724    3.2715    2.0119 C   0  0  0  0  0  0  0  0  0  0  0  0
   -1.3249    3.4549    2.2426 H   0  0  0  0  0  0  0  0  0  0  0  0
    0.3167    3.3776    2.9239 H   0  0  0  0  0  0  0  0  0  0  0  0
    0.0609    4.0073    1.2782 H   0  0  0  0  0  0  0  0  0  0  0  0
  5  6  2  0  0  0  0
  5  7  1  0  0  0  0
  2  3  1  0  0  0  0
  2  4  1  0  0  0  0
  2  5  1  0  0  0  0
  1  2  1  0  0  0  0
 22 23  2  0  0  0  0
 22 24  1  0  0  0  0
 20 21  1  0  0  0  0
 18 19  1  0  0  0  0
 18 20  1  0  0  0  0
 16 17  1  0  0  0  0
 16 18  1  0  0  0  0
 15 16  2  0  0  0  0
 14 15  1  0  0  0  0
 14 20  2  0  0  0  0
 11 12  1  0  0  0  0
 11 13  1  0  0  0  0
 11 14  1  0  0  0  0
  9 10  1  0  0  0  0
  9 11  1  0  0  0  0
  9 22  1  0  0  0  0
  7  8  1  0  0  0  0
  7  9  1  0  0  0  0
 26 27  1  0  0  0  0
 26 28  1  0  0  0  0
 26 29  1  0  0  0  0
 24 25  1  0  0  0  0
 24 26  1  0  0  0  0
M  END
$$$$
default_name
  -OEChem-02102213163D

 29 29  0     1  0  0  0  0  0999 V2000
   -2.9561   -3.9186    1.3887 H   0  0  0  0  0  0  0  0  0  0  0  0
   -3.1191   -2.9346    0.9517 C   0  0  0  0  0  0  0  0  0  0  0  0
   -3.7811   -2.3546    1.5917 H   0  0  0  0  0  0  0  0  0  0  0  0
   -3.5591   -3.0406   -0.0383 H   0  0  0  0  0  0  0  0  0  0  0  0
   -1.7921   -2.2226    0.8327 C   0  0  0  0  0  0  0  0  0  0  0  0
   -0.7611   -2.7766    1.1927 O   0  0  0  0  0  0  0  0  0  0  0  0
   -1.8201   -0.9926    0.3247 N   0  0  0  0  0  0  0  0  0  0  0  0
   -2.7141   -0.5816    0.0927 H   0  0  0  0  0  0  0  0  0  0  0  0
   -0.6481   -0.1156    0.2017 C   0  0  1  0  0  0  0  0  0  0  0  0
    0.1344   -0.4988    0.8596 H   0  0  0  0  0  0  0  0  0  0  0  0
   -0.1211   -0.1520   -1.2460 C   0  0  0  0  0  0  0  0  0  0  0  0
    0.3372    0.8060   -1.4962 H   0  0  0  0  0  0  0  0  0  0  0  0
    0.6493   -0.9186   -1.3391 H   0  0  0  0  0  0  0  0  0  0  0  0
   -1.2092   -0.4073   -2.2603 C   0  0  0  0  0  0  0  0  0  0  0  0
   -1.7706    0.5432   -3.1139 N   0  0  0  0  0  0  0  0  0  0  0  0
   -2.6562   -0.1189   -3.8725 C   0  0  0  0  0  0  0  0  0  0  0  0
   -3.2737    0.3395   -4.6346 H   0  0  0  0  0  0  0  0  0  0  0  0
   -2.6592   -1.4253   -3.5584 N   0  0  0  0  0  0  0  0  0  0  0  0
   -3.2263   -2.1340   -4.0035 H   0  0  0  0  0  0  0  0  0  0  0  0
   -1.7489   -1.6276   -2.5450 C   0  0  0  0  0  0  0  0  0  0  0  0
   -1.4846   -2.5644   -2.0709 H   0  0  0  0  0  0  0  0  0  0  0  0
   -0.9851    1.3114    0.6698 C   0  0  0  0  0  0  0  0  0  0  0  0
   -2.0377    1.8431    0.3168 O   0  0  0  0  0  0  0  0  0  0  0  0
   -0.1052    1.9265    1.4663 N   0  0  0  0  0  0  0  0  0  0  0  0
    0.7810    1.4586    1.6201 H   0  0  0  0  0  0  0  0  0  0  0  0
   -0.2724    3.2715    2.0119 C   0  0  0  0  0  0  0  0  0  0  0  0
   -1.3249    3.4549    2.2426 H   0  0  0  0  0  0  0  0  0  0  0  0
    0.3167    3.3776    2.9239 H   0  0  0  0  0  0  0  0  0  0  0  0
    0.0609    4.0073    1.2782 H   0  0  0  0  0  0  0  0  0  0  0  0
  5  6  2  0  0  0  0
  5  7  1  0  0  0  0
  2  3  1  0  0  0  0
  2  4  1  0  0  0  0
  2  5  1  0  0  0  0
  1  2  1  0  0  0  0
 22 23  2  0  0  0  0
 22 24  1  0  0  0  0
 20 21  1  0  0  0  0
 18 19  1  0  0  0  0
 18 20  1  0  0  0  0
 16 17  1  0  0  0  0
 16 18  1  0  0  0  0
 15 16  2  0  0  0  0
 14 15  1  0  0  0  0
 14 20  2  0  0  0  0
 11 12  1  0  0  0  0
 11 13  1  0  0  0  0
 11 14  1  0  0  0  0
  9 10  1  0  0  0  0
  9 11  1  0  0  0  0
  9 22  1  0  0  0  0
  7  8  1  0  0  0  0
  7  9  1  0  0  0  0
 26 27  1  0  0  0  0
 26 28  1  0  0  0  0
 26 29  1  0  0  0  0
 24 25  1  0  0  0  0
 24 26  1  0  0  0  0
M  END
$$$$
default_name
  -OEChem-02102213163D

 29 29  0     1  0  0  0  0  0999 V2000
   -2.9561   -3.9186    1.3887 H   0  0  0  0  0  0  0  0  0  0  0  0
   -3.1191   -2.9346    0.9517 C   0  0  0  0  0  0  0  0  0  0  0  0
   -3.7811   -2.3546    1.5917 H   0  0  0  0  0  0  0  0  0  0  0  0
   -3.5591   -3.0406   -0.0383 H   0  0  0  0  0  0  0  0  0  0  0  0
   -1.7921   -2.2226    0.8327 C   0  0  0  0  0  0  0  0  0  0  0  0
   -0.7611   -2.7766    1.1927 O   0  0  0  0  0  0  0  0  0  0  0  0
   -1.8201   -0.9926    0.3247 N   0  0  0  0  0  0  0  0  0  0  0  0
   -2.7141   -0.5816    0.0927 H   0  0  0  0  0  0  0  0  0  0  0  0
   -0.6481   -0.1156    0.2017 C   0  0  1  0  0  0  0  0  0  0  0  0
    0.1344   -0.4988    0.8596 H   0  0  0  0  0  0  0  0  0  0  0  0
   -0.1211   -0.1520   -1.2460 C   0  0  0  0  0  0  0  0  0  0  0  0
    0.3372    0.8060   -1.4962 H   0  0  0  0  0  0  0  0  0  0  0  0
    0.6493   -0.9186   -1.3391 H   0  0  0  0  0  0  0  0  0  0  0  0
   -1.2092   -0.4073   -2.2603 C   0  0  0  0  0  0  0  0  0  0  0  0
   -1.5688    0.4445   -3.3055 N   0  0  0  0  0  0  0  0  0  0  0  0
   -2.5372   -0.1899   -3.9824 C   0  0  0  0  0  0  0  0  0  0  0  0
   -3.0421    0.2130   -4.8512 H   0  0  0  0  0  0  0  0  0  0  0  0
   -2.7813   -1.3927   -3.4356 N   0  0  0  0  0  0  0  0  0  0  0  0
   -3.4532   -2.0664   -3.7770 H   0  0  0  0  0  0  0  0  0  0  0  0
   -1.9496   -1.5498   -2.3493 C   0  0  0  0  0  0  0  0  0  0  0  0
   -1.8694   -2.4102   -1.6969 H   0  0  0  0  0  0  0  0  0  0  0  0
   -0.9851    1.3114    0.6698 C   0  0  0  0  0  0  0  0  0  0  0  0
   -2.0377    1.8431    0.3168 O   0  0  0  0  0  0  0  0  0  0  0  0
   -0.1052    1.9265    1.4663 N   0  0  0  0  0  0  0  0  0  0  0  0
    0.7810    1.4586    1.6201 H   0  0  0  0  0  0  0  0  0  0  0  0
   -0.2724    3.2715    2.0119 C   0  0  0  0  0  0  0  0  0  0  0  0
   -1.3249    3.4549    2.2426 H   0  0  0  0  0  0  0  0  0  0  0  0
    0.3167    3.3776    2.9239 H   0  0  0  0  0  0  0  0  0  0  0  0
    0.0609    4.0073    1.2782 H   0  0  0  0  0  0  0  0  0  0  0  0
  5  6  2  0  0  0  0
  5  7  1  0  0  0  0
  2  3  1  0  0  0  0
  2  4  1  0  0  0  0
  2  5  1  0  0  0  0
  1  2  1  0  0  0  0
 22 23  2  0  0  0  0
 22 24  1  0  0  0  0
 20 21  1  0  0  0  0
 18 19  1  0  0  0  0
 18 20  1  0  0  0  0
 16 17  1  0  0  0  0
 16 18  1  0  0  0  0
 15 16  2  0  0  0  0
 14 15  1  0  0  0  0
 14 20  2  0  0  0  0
 11 12  1  0  0  0  0
 11 13  1  0  0  0  0
 11 14  1  0  0  0  0
  9 10  1  0  0  0  0
  9 11  1  0  0  0  0
  9 22  1  0  0  0  0
  7  8  1  0  0  0  0
  7  9  1  0  0  0  0
 26 27  1  0  0  0  0
 26 28  1  0  0  0  0
 26 29  1  0  0  0  0
 24 25  1  0  0  0  0
 24 26  1  0  0  0  0
M  END
$$$$
default_name
  -OEChem-02102213163D

 29 29  0     1  0  0  0  0  0999 V2000
   -2.9561   -3.9186    1.3887 H   0  0  0  0  0  0  0  0  0  0  0  0
   -3.1191   -2.9346    0.9517 C   0  0  0  0  0  0  0  0  0  0  0  0
   -3.7811   -2.3546    1.5917 H   0  0  0  0  0  0  0  0  0  0  0  0
   -3.5591   -3.0406   -0.0383 H   0  0  0  0  0  0  0  0  0  0  0  0
   -1.7921   -2.2226    0.8327 C   0  0  0  0  0  0  0  0  0  0  0  0
   -0.7611   -2.7766    1.1927 O   0  0  0  0  0  0  0  0  0  0  0  0
   -1.8201   -0.9926    0.3247 N   0  0  0  0  0  0  0  0  0  0  0  0
   -2.7141   -0.5816    0.0927 H   0  0  0  0  0  0  0  0  0  0  0  0
   -0.6481   -0.1156    0.2017 C   0  0  1  0  0  0  0  0  0  0  0  0
    0.1344   -0.4988    0.8596 H   0  0  0  0  0  0  0  0  0  0  0  0
   -0.1211   -0.1520   -1.2460 C   0  0  0  0  0  0  0  0  0  0  0  0
    0.3372    0.8060   -1.4962 H   0  0  0  0  0  0  0  0  0  0  0  0
    0.6493   -0.9186   -1.3391 H   0  0  0  0  0  0  0  0  0  0  0  0
   -1.2092   -0.4073   -2.2603 C   0  0  0  0  0  0  0  0  0  0  0  0
   -1.3827    0.2782   -3.4633 N   0  0  0  0  0  0  0  0  0  0  0  0
   -2.4297   -0.2997   -4.0700 C   0  0  0  0  0  0  0  0  0  0  0  0
   -2.8310    0.0102   -5.0267 H   0  0  0  0  0  0  0  0  0  0  0  0
   -2.8990   -1.3171   -3.3284 N   0  0  0  0  0  0  0  0  0  0  0  0
   -3.6706   -1.9194   -3.5809 H   0  0  0  0  0  0  0  0  0  0  0  0
   -2.1385   -1.4032   -2.1835 C   0  0  0  0  0  0  0  0  0  0  0  0
   -2.2306   -2.1245   -1.3813 H   0  0  0  0  0  0  0  0  0  0  0  0
   -0.9851    1.3114    0.6698 C   0  0  0  0  0  0  0  0  0  0  0  0
   -2.0377    1.8431    0.3168 O   0  0  0  0  0  0  0  0  0  0  0  0
   -0.1052    1.9265    1.4663 N   0  0  0  0  0  0  0  0  0  0  0  0
    0.7810    1.4586    1.6201 H   0  0  0  0  0  0  0  0  0  0  0  0
   -0.2724    3.2715    2.0119 C   0  0  0  0  0  0  0  0  0  0  0  0
   -1.3249    3.4549    2.2426 H   0  0  0  0  0  0  0  0  0  0  0  0
    0.3167    3.3776    2.9239 H   0  0  0  0  0  0  0  0  0  0  0  0
    0.0609    4.0073    1.2782 H   0  0  0  0  0  0  0  0  0  0  0  0
  5  6  2  0  0  0  0
  5  7  1  0  0  0  0
  2  3  1  0  0  0  0
  2  4  1  0  0  0  0
  2  5  1  0  0  0  0
  1  2  1  0  0  0  0
 22 23  2  0  0  0  0
 22 24  1  0  0  0  0
 20 21  1  0  0  0  0
 18 19  1  0  0  0  0
 18 20  1  0  0  0  0
 16 17  1  0  0  0  0
 16 18  1  0  0  0  0
 15 16  2  0  0  0  0
 14 15  1  0  0  0  0
 14 20  2  0  0  0  0
 11 12  1  0  0  0  0
 11 13  1  0  0  0  0
 11 14  1  0  0  0  0
  9 10  1  0  0  0  0
  9 11  1  0  0  0  0
  9 22  1  0  0  0  0
  7  8  1  0  0  0  0
  7  9  1  0  0  0  0
 26 27  1  0  0  0  0
 26 28  1  0  0  0  0
 26 29  1  0  0  0  0
 24 25  1  0  0  0  0
 24 26  1  0  0  0  0
M  END
$$$$
default_name
  -OEChem-02102213163D

 29 29  0     1  0  0  0  0  0999 V2000
   -2.9561   -3.9186    1.3887 H   0  0  0  0  0  0  0  0  0  0  0  0
   -3.1191   -2.9346    0.9517 C   0  0  0  0  0  0  0  0  0  0  0  0
   -3.7811   -2.3546    1.5917 H   0  0  0  0  0  0  0  0  0  0  0  0
   -3.5591   -3.0406   -0.0383 H   0  0  0  0  0  0  0  0  0  0  0  0
   -1.7921   -2.2226    0.8327 C   0  0  0  0  0  0  0  0  0  0  0  0
   -0.7611   -2.7766    1.1927 O   0  0  0  0  0  0  0  0  0  0  0  0
   -1.8201   -0.9926    0.3247 N   0  0  0  0  0  0  0  0  0  0  0  0
   -2.7141   -0.5816    0.0927 H   0  0  0  0  0  0  0  0  0  0  0  0
   -0.6481   -0.1156    0.2017 C   0  0  1  0  0  0  0  0  0  0  0  0
    0.1344   -0.4988    0.8596 H   0  0  0  0  0  0  0  0  0  0  0  0
   -0.1211   -0.1520   -1.2460 C   0  0  0  0  0  0  0  0  0  0  0  0
    0.3372    0.8060   -1.4962 H   0  0  0  0  0  0  0  0  0  0  0  0
    0.6493   -0.9186   -1.3391 H   0  0  0  0  0  0  0  0  0  0  0  0
   -1.2092   -0.4073   -2.2603 C   0  0  0  0  0  0  0  0  0  0  0  0
   -1.2250    0.0559   -3.5765 N   0  0  0  0  0  0  0  0  0  0  0  0
   -2.3412   -0.4407   -4.1295 C   0  0  0  0  0  0  0  0  0  0  0  0
   -2.6546   -0.2552   -5.1491 H   0  0  0  0  0  0  0  0  0  0  0  0
   -3.0042   -1.2035   -3.2441 N   0  0  0  0  0  0  0  0  0  0  0  0
   -3.8635   -1.7030   -3.4283 H   0  0  0  0  0  0  0  0  0  0  0  0
   -2.3028   -1.1979   -2.0590 C   0  0  0  0  0  0  0  0  0  0  0  0
   -2.5437   -1.7269   -1.1455 H   0  0  0  0  0  0  0  0  0  0  0  0
   -0.9851    1.3114    0.6698 C   0  0  0  0  0  0  0  0  0  0  0  0
   -2.0377    1.8431    0.3168 O   0  0  0  0  0  0  0  0  0  0  0  0
   -0.1052    1.9265    1.4663 N   0  0  0  0  0  0  0  0  0  0  0  0
    0.7810    1.4586    1.6201 H   0  0  0  0  0  0  0  0  0  0  0  0
   -0.2724    3.2715    2.0119 C   0  0  0  0  0  0  0  0  0  0  0  0
   -1.3249    3.4549    2.2426 H   0  0  0  0  0  0  0  0  0  0  0  0
    0.3167    3.3776    2.9239 H   0  0  0  0  0  0  0  0  0  0  0  0
    0.0609    4.0073    1.2782 H   0  0  0  0  0  0  0  0  0  0  0  0
  5  6  2  0  0  0  0
  5  7  1  0  0  0  0
  2  3  1  0  0  0  0
  2  4  1  0  0  0  0
  2  5  1  0  0  0  0
  1  2  1  0  0  0  0
 22 23  2  0  0  0  0
 22 24  1  0  0  0  0
 20 21  1  0  0  0  0
 18 19  1  0  0  0  0
 18 20  1  0  0  0  0
 16 17  1  0  0  0  0
 16 18  1  0  0  0  0
 15 16  2  0  0  0  0
 14 15  1  0  0  0  0
 14 20  2  0  0  0  0
 11 12  1  0  0  0  0
 11 13  1  0  0  0  0
 11 14  1  0  0  0  0
  9 10  1  0  0  0  0
  9 11  1  0  0  0  0
  9 22  1  0  0  0  0
  7  8  1  0  0  0  0
  7  9  1  0  0  0  0
 26 27  1  0  0  0  0
 26 28  1  0  0  0  0
 26 29  1  0  0  0  0
 24 25  1  0  0  0  0
 24 26  1  0  0  0  0
M  END
$$$$
default_name
  -OEChem-02102213163D

 29 29  0     1  0  0  0  0  0999 V2000
   -2.9561   -3.9186    1.3887 H   0  0  0  0  0  0  0  0  0  0  0  0
   -3.1191   -2.9346    0.9517 C   0  0  0  0  0  0  0  0  0  0  0  0
   -3.7811   -2.3546    1.5917 H   0  0  0  0  0  0  0  0  0  0  0  0
   -3.5591   -3.0406   -0.0383 H   0  0  0  0  0  0  0  0  0  0  0  0
   -1.7921   -2.2226    0.8327 C   0  0  0  0  0  0  0  0  0  0  0  0
   -0.7611   -2.7766    1.1927 O   0  0  0  0  0  0  0  0  0  0  0  0
   -1.8201   -0.9926    0.3247 N   0  0  0  0  0  0  0  0  0  0  0  0
   -2.7141   -0.5816    0.0927 H   0  0  0  0  0  0  0  0  0  0  0  0
   -0.6481   -0.1156    0.2017 C   0  0  1  0  0  0  0  0  0  0  0  0
    0.1344   -0.4988    0.8596 H   0  0  0  0  0  0  0  0  0  0  0  0
   -0.1211   -0.1520   -1.2460 C   0  0  0  0  0  0  0  0  0  0  0  0
    0.3372    0.8060   -1.4962 H   0  0  0  0  0  0  0  0  0  0  0  0
    0.6493   -0.9186   -1.3391 H   0  0  0  0  0  0  0  0  0  0  0  0
   -1.2092   -0.4073   -2.2603 C   0  0  0  0  0  0  0  0  0  0  0  0
   -1.1063   -0.2075   -3.6375 N   0  0  0  0  0  0  0  0  0  0  0  0
   -2.2776   -0.6035   -4.1567 C   0  0  0  0  0  0  0  0  0  0  0  0
   -2.5250   -0.5651   -5.2101 H   0  0  0  0  0  0  0  0  0  0  0  0
   -3.0898   -1.0598   -3.1885 N   0  0  0  0  0  0  0  0  0  0  0  0
   -4.0190   -1.4320   -3.3298 H   0  0  0  0  0  0  0  0  0  0  0  0
   -2.4311   -0.9478   -1.9843 C   0  0  0  0  0  0  0  0  0  0  0  0
   -2.7873   -1.2443   -1.0057 H   0  0  0  0  0  0  0  0  0  0  0  0
   -0.9851    1.3114    0.6698 C   0  0  0  0  0  0  0  0  0  0  0  0
   -2.0377    1.8431    0.3168 O   0  0  0  0  0  0  0  0  0  0  0  0
   -0.1052    1.9265    1.4663 N   0  0  0  0  0  0  0  0  0  0  0  0
    0.7810    1.4586    1.6201 H   0  0  0  0  0  0  0  0  0  0  0  0
   -0.2724    3.2715    2.0119 C   0  0  0  0  0  0  0  0  0  0  0  0
   -1.3249    3.4549    2.2426 H   0  0  0  0  0  0  0  0  0  0  0  0
    0.3167    3.3776    2.9239 H   0  0  0  0  0  0  0  0  0  0  0  0
    0.0609    4.0073    1.2782 H   0  0  0  0  0  0  0  0  0  0  0  0
  5  6  2  0  0  0  0
  5  7  1  0  0  0  0
  2  3  1  0  0  0  0
  2  4  1  0  0  0  0
  2  5  1  0  0  0  0
  1  2  1  0  0  0  0
 22 23  2  0  0  0  0
 22 24  1  0  0  0  0
 20 21  1  0  0  0  0
 18 19  1  0  0  0  0
 18 20  1  0  0  0  0
 16 17  1  0  0  0  0
 16 18  1  0  0  0  0
 15 16  2  0  0  0  0
 14 15  1  0  0  0  0
 14 20  2  0  0  0  0
 11 12  1  0  0  0  0
 11 13  1  0  0  0  0
 11 14  1  0  0  0  0
  9 10  1  0  0  0  0
  9 11  1  0  0  0  0
  9 22  1  0  0  0  0
  7  8  1  0  0  0  0
  7  9  1  0  0  0  0
 26 27  1  0  0  0  0
 26 28  1  0  0  0  0
 26 29  1  0  0  0  0
 24 25  1  0  0  0  0
 24 26  1  0  0  0  0
M  END
$$$$
default_name
  -OEChem-02102213163D

 29 29  0     1  0  0  0  0  0999 V2000
   -2.9561   -3.9186    1.3887 H   0  0  0  0  0  0  0  0  0  0  0  0
   -3.1191   -2.9346    0.9517 C   0  0  0  0  0  0  0  0  0  0  0  0
   -3.7811   -2.3546    1.5917 H   0  0  0  0  0  0  0  0  0  0  0  0
   -3.5591   -3.0406   -0.0383 H   0  0  0  0  0  0  0  0  0  0  0  0
   -1.7921   -2.2226    0.8327 C   0  0  0  0  0  0  0  0  0  0  0  0
   -0.7611   -2.7766    1.1927 O   0  0  0  0  0  0  0  0  0  0  0  0
   -1.8201   -0.9926    0.3247 N   0  0  0  0  0  0  0  0  0  0  0  0
   -2.7141   -0.5816    0.0927 H   0  0  0  0  0  0  0  0  0  0  0  0
   -0.6481   -0.1156    0.2017 C   0  0  1  0  0  0  0  0  0  0  0  0
    0.1344   -0.4988    0.8596 H   0  0  0  0  0  0  0  0  0  0  0  0
   -0.1211   -0.1520   -1.2460 C   0  0  0  0  0  0  0  0  0  0  0  0
    0.5603    0.6838   -1.4119 H   0  0  0  0  0  0  0  0  0  0  0  0
    0.4415   -1.0719   -1.4109 H   0  0  0  0  0  0  0  0  0  0  0  0
   -1.2212   -0.0448   -2.2737 C   0  0  0  0  0  0  0  0  0  0  0  0
   -1.0495   -0.0496   -3.6586 N   0  0  0  0  0  0  0  0  0  0  0  0
   -2.2817    0.0159   -4.1837 C   0  0  0  0  0  0  0  0  0  0  0  0
   -2.4947    0.0417   -5.2450 H   0  0  0  0  0  0  0  0  0  0  0  0
   -3.2067    0.0353   -3.2094 N   0  0  0  0  0  0  0  0  0  0  0  0
   -4.2072    0.0628   -3.3513 H   0  0  0  0  0  0  0  0  0  0  0  0
   -2.5564   -0.0065   -1.9962 C   0  0  0  0  0  0  0  0  0  0  0  0
   -2.9999   -0.0276   -1.0086 H   0  0  0  0  0  0  0  0  0  0  0  0
   -0.9851    1.3114    0.6698 C   0  0  0  0  0  0  0  0  0  0  0  0
   -2.0377    1.8431    0.3168 O   0  0  0  0  0  0  0  0  0  0  0  0
   -0.1052    1.9265    1.4663 N   0  0  0  0  0  0  0  0  0  0  0  0
    0.7810    1.4586    1.6201 H   0  0  0  0  0  0  0  0  0  0  0  0
   -0.2724    3.2715    2.0119 C   0  0  0  0  0  0  0  0  0  0  0  0
   -1.3249    3.4549    2.2426 H   0  0  0  0  0  0  0  0  0  0  0  0
    0.3167    3.3776    2.9239 H   0  0  0  0  0  0  0  0  0  0  0  0
    0.0609    4.0073    1.2782 H   0  0  0  0  0  0  0  0  0  0  0  0
  5  6  2  0  0  0  0
  5  7  1  0  0  0  0
  2  3  1  0  0  0  0
  2  4  1  0  0  0  0
  2  5  1  0  0  0  0
  1  2  1  0  0  0  0
 22 23  2  0  0  0  0
 22 24  1  0  0  0  0
 20 21  1  0  0  0  0
 18 19  1  0  0  0  0
 18 20  1  0  0  0  0
 16 17  1  0  0  0  0
 16 18  1  0  0  0  0
 15 16  2  0  0  0  0
 14 15  1  0  0  0  0
 14 20  2  0  0  0  0
 11 12  1  0  0  0  0
 11 13  1  0  0  0  0
 11 14  1  0  0  0  0
  9 10  1  0  0  0  0
  9 11  1  0  0  0  0
  9 22  1  0  0  0  0
  7  8  1  0  0  0  0
  7  9  1  0  0  0  0
 26 27  1  0  0  0  0
 26 28  1  0  0  0  0
 26 29  1  0  0  0  0
 24 25  1  0  0  0  0
 24 26  1  0  0  0  0
M  END
$$$$
default_name
  -OEChem-02102213163D

 29 29  0     1  0  0  0  0  0999 V2000
   -2.9561   -3.9186    1.3887 H   0  0  0  0  0  0  0  0  0  0  0  0
   -3.1191   -2.9346    0.9517 C   0  0  0  0  0  0  0  0  0  0  0  0
   -3.7811   -2.3546    1.5917 H   0  0  0  0  0  0  0  0  0  0  0  0
   -3.5591   -3.0406   -0.0383 H   0  0  0  0  0  0  0  0  0  0  0  0
   -1.7921   -2.2226    0.8327 C   0  0  0  0  0  0  0  0  0  0  0  0
   -0.7611   -2.7766    1.1927 O   0  0  0  0  0  0  0  0  0  0  0  0
   -1.8201   -0.9926    0.3247 N   0  0  0  0  0  0  0  0  0  0  0  0
   -2.7141   -0.5816    0.0927 H   0  0  0  0  0  0  0  0  0  0  0  0
   -0.6481   -0.1156    0.2017 C   0  0  1  0  0  0  0  0  0  0  0  0
    0.1344   -0.4988    0.8596 H   0  0  0  0  0  0  0  0  0  0  0  0
   -0.1211   -0.1520   -1.2460 C   0  0  0  0  0  0  0  0  0  0  0  0
    0.5603    0.6838   -1.4119 H   0  0  0  0  0  0  0  0  0  0  0  0
    0.4415   -1.0719   -1.4109 H   0  0  0  0  0  0  0  0  0  0  0  0
   -1.2212   -0.0448   -2.2737 C   0  0  0  0  0  0  0  0  0  0  0  0
   -1.1020   -0.3389   -3.6326 N   0  0  0  0  0  0  0  0  0  0  0  0
   -2.3216   -0.1546   -4.1588 C   0  0  0  0  0  0  0  0  0  0  0  0
   -2.5642   -0.2902   -5.2052 H   0  0  0  0  0  0  0  0  0  0  0  0
   -3.1940    0.2110   -3.2046 N   0  0  0  0  0  0  0  0  0  0  0  0
   -4.1787    0.3892   -3.3477 H   0  0  0  0  0  0  0  0  0  0  0  0
   -2.5186    0.2818   -2.0065 C   0  0  0  0  0  0  0  0  0  0  0  0
   -2.9239    0.5251   -1.0324 H   0  0  0  0  0  0  0  0  0  0  0  0
   -0.9851    1.3114    0.6698 C   0  0  0  0  0  0  0  0  0  0  0  0
   -2.0377    1.8431    0.3168 O   0  0  0  0  0  0  0  0  0  0  0  0
   -0.1052    1.9265    1.4663 N   0  0  0  0  0  0  0  0  0  0  0  0
    0.7810    1.4586    1.6201 H   0  0  0  0  0  0  0  0  0  0  0  0
   -0.2724    3.2715    2.0119 C   0  0  0  0  0  0  0  0  0  0  0  0
   -1.3249    3.4549    2.2426 H   0  0  0  0  0  0  0  0  0  0  0  0
    0.3167    3.3776    2.9239 H   0  0  0  0  0  0  0  0  0  0  0  0
    0.0609    4.0073    1.2782 H   0  0  0  0  0  0  0  0  0  0  0  0
  5  6  2  0  0  0  0
  5  7  1  0  0  0  0
  2  3  1  0  0  0  0
  2  4  1  0  0  0  0
  2  5  1  0  0  0  0
  1  2  1  0  0  0  0
 22 23  2  0  0  0  0
 22 24  1  0  0  0  0
 20 21  1  0  0  0  0
 18 19  1  0  0  0  0
 18 20  1  0  0  0  0
 16 17  1  0  0  0  0
 16 18  1  0  0  0  0
 15 16  2  0  0  0  0
 14 15  1  0  0  0  0
 14 20  2  0  0  0  0
 11 12  1  0  0  0  0
 11 13  1  0  0  0  0
 11 14  1  0  0  0  0
  9 10  1  0  0  0  0
  9 11  1  0  0  0  0
  9 22  1  0  0  0  0
  7  8  1  0  0  0  0
  7  9  1  0  0  0  0
 26 27  1  0  0  0  0
 26 28  1  0  0  0  0
 26 29  1  0  0  0  0
 24 25  1  0  0  0  0
 24 26  1  0  0  0  0
M  END
$$$$
default_name
  -OEChem-02102213163D

 29 29  0     1  0  0  0  0  0999 V2000
   -2.9561   -3.9186    1.3887 H   0  0  0  0  0  0  0  0  0  0  0  0
   -3.1191   -2.9346    0.9517 C   0  0  0  0  0  0  0  0  0  0  0  0
   -3.7811   -2.3546    1.5917 H   0  0  0  0  0  0  0  0  0  0  0  0
   -3.5591   -3.0406   -0.0383 H   0  0  0  0  0  0  0  0  0  0  0  0
   -1.7921   -2.2226    0.8327 C   0  0  0  0  0  0  0  0  0  0  0  0
   -0.7611   -2.7766    1.1927 O   0  0  0  0  0  0  0  0  0  0  0  0
   -1.8201   -0.9926    0.3247 N   0  0  0  0  0  0  0  0  0  0  0  0
   -2.7141   -0.5816    0.0927 H   0  0  0  0  0  0  0  0  0  0  0  0
   -0.6481   -0.1156    0.2017 C   0  0  1  0  0  0  0  0  0  0  0  0
    0.1344   -0.4988    0.8596 H   0  0  0  0  0  0  0  0  0  0  0  0
   -0.1211   -0.1520   -1.2460 C   0  0  0  0  0  0  0  0  0  0  0  0
    0.5603    0.6838   -1.4119 H   0  0  0  0  0  0  0  0  0  0  0  0
    0.4415   -1.0719   -1.4109 H   0  0  0  0  0  0  0  0  0  0  0  0
   -1.2212   -0.0448   -2.2737 C   0  0  0  0  0  0  0  0  0  0  0  0
   -1.2032   -0.6043   -3.5520 N   0  0  0  0  0  0  0  0  0  0  0  0
   -2.3897   -0.3075   -4.1019 C   0  0  0  0  0  0  0  0  0  0  0  0
   -2.6890   -0.5910   -5.1030 H   0  0  0  0  0  0  0  0  0  0  0  0
   -3.1508    0.3794   -3.2334 N   0  0  0  0  0  0  0  0  0  0  0  0
   -4.0937    0.7001   -3.4063 H   0  0  0  0  0  0  0  0  0  0  0  0
   -2.4315    0.5516   -2.0717 C   0  0  0  0  0  0  0  0  0  0  0  0
   -2.7535    1.0409   -1.1610 H   0  0  0  0  0  0  0  0  0  0  0  0
   -0.9851    1.3114    0.6698 C   0  0  0  0  0  0  0  0  0  0  0  0
   -2.0377    1.8431    0.3168 O   0  0  0  0  0  0  0  0  0  0  0  0
   -0.1052    1.9265    1.4663 N   0  0  0  0  0  0  0  0  0  0  0  0
    0.7810    1.4586    1.6201 H   0  0  0  0  0  0  0  0  0  0  0  0
   -0.2724    3.2715    2.0119 C   0  0  0  0  0  0  0  0  0  0  0  0
   -1.3249    3.4549    2.2426 H   0  0  0  0  0  0  0  0  0  0  0  0
    0.3167    3.3776    2.9239 H   0  0  0  0  0  0  0  0  0  0  0  0
    0.0609    4.0073    1.2782 H   0  0  0  0  0  0  0  0  0  0  0  0
  5  6  2  0  0  0  0
  5  7  1  0  0  0  0
  2  3  1  0  0  0  0
  2  4  1  0  0  0  0
  2  5  1  0  0  0  0
  1  2  1  0  0  0  0
 22 23  2  0  0  0  0
 22 24  1  0  0  0  0
 20 21  1  0  0  0  0
 18 19  1  0  0  0  0
 18 20  1  0  0  0  0
 16 17  1  0  0  0  0
 16 18  1  0  0  0  0
 15 16  2  0  0  0  0
 14 15  1  0  0  0  0
 14 20  2  0  0  0  0
 11 12  1  0  0  0  0
 11 13  1  0  0  0  0
 11 14  1  0  0  0  0
  9 10  1  0  0  0  0
  9 11  1  0  0  0  0
  9 22  1  0  0  0  0
  7  8  1  0  0  0  0
  7  9  1  0  0  0  0
 26 27  1  0  0  0  0
 26 28  1  0  0  0  0
 26 29  1  0  0  0  0
 24 25  1  0  0  0  0
 24 26  1  0  0  0  0
M  END
$$$$
default_name
  -OEChem-02102213163D

 29 29  0     1  0  0  0  0  0999 V2000
   -2.9561   -3.9186    1.3887 H   0  0  0  0  0  0  0  0  0  0  0  0
   -3.1191   -2.9346    0.9517 C   0  0  0  0  0  0  0  0  0  0  0  0
   -3.7811   -2.3546    1.5917 H   0  0  0  0  0  0  0  0  0  0  0  0
   -3.5591   -3.0406   -0.0383 H   0  0  0  0  0  0  0  0  0  0  0  0
   -1.7921   -2.2226    0.8327 C   0  0  0  0  0  0  0  0  0  0  0  0
   -0.7611   -2.7766    1.1927 O   0  0  0  0  0  0  0  0  0  0  0  0
   -1.8201   -0.9926    0.3247 N   0  0  0  0  0  0  0  0  0  0  0  0
   -2.7141   -0.5816    0.0927 H   0  0  0  0  0  0  0  0  0  0  0  0
   -0.6481   -0.1156    0.2017 C   0  0  1  0  0  0  0  0  0  0  0  0
    0.1344   -0.4988    0.8596 H   0  0  0  0  0  0  0  0  0  0  0  0
   -0.1211   -0.1520   -1.2460 C   0  0  0  0  0  0  0  0  0  0  0  0
    0.5603    0.6838   -1.4119 H   0  0  0  0  0  0  0  0  0  0  0  0
    0.4415   -1.0719   -1.4109 H   0  0  0  0  0  0  0  0  0  0  0  0
   -1.2212   -0.0448   -2.2737 C   0  0  0  0  0  0  0  0  0  0  0  0
   -1.3462   -0.8276   -3.4222 N   0  0  0  0  0  0  0  0  0  0  0  0
   -2.4814   -0.4325   -4.0167 C   0  0  0  0  0  0  0  0  0  0  0  0
   -2.8607   -0.8403   -4.9452 H   0  0  0  0  0  0  0  0  0  0  0  0
   -3.0798    0.5290   -3.2937 N   0  0  0  0  0  0  0  0  0  0  0  0
   -3.9578    0.9743   -3.5231 H   0  0  0  0  0  0  0  0  0  0  0  0
   -2.3010    0.7846   -2.1871 C   0  0  0  0  0  0  0  0  0  0  0  0
   -2.5003    1.4850   -1.3857 H   0  0  0  0  0  0  0  0  0  0  0  0
   -0.9851    1.3114    0.6698 C   0  0  0  0  0  0  0  0  0  0  0  0
   -2.0377    1.8431    0.3168 O   0  0  0  0  0  0  0  0  0  0  0  0
   -0.1052    1.9265    1.4663 N   0  0  0  0  0  0  0  0  0  0  0  0
    0.7810    1.4586    1.6201 H   0  0  0  0  0  0  0  0  0  0  0  0
   -0.2724    3.2715    2.0119 C   0  0  0  0  0  0  0  0  0  0  0  0
   -1.3249    3.4549    2.2426 H   0  0  0  0  0  0  0  0  0  0  0  0
    0.3167    3.3776    2.9239 H   0  0  0  0  0  0  0  0  0  0  0  0
    0.0609    4.0073    1.2782 H   0  0  0  0  0  0  0  0  0  0  0  0
  5  6  2  0  0  0  0
  5  7  1  0  0  0  0
  2  3  1  0  0  0  0
  2  4  1  0  0  0  0
  2  5  1  0  0  0  0
  1  2  1  0  0  0  0
 22 23  2  0  0  0  0
 22 24  1  0  0  0  0
 20 21  1  0  0  0  0
 18 19  1  0  0  0  0
 18 20  1  0  0  0  0
 16 17  1  0  0  0  0
 16 18  1  0  0  0  0
 15 16  2  0  0  0  0
 14 15  1  0  0  0  0
 14 20  2  0  0  0  0
 11 12  1  0  0  0  0
 11 13  1  0  0  0  0
 11 14  1  0  0  0  0
  9 10  1  0  0  0  0
  9 11  1  0  0  0  0
  9 22  1  0  0  0  0
  7  8  1  0  0  0  0
  7  9  1  0  0  0  0
 26 27  1  0  0  0  0
 26 28  1  0  0  0  0
 26 29  1  0  0  0  0
 24 25  1  0  0  0  0
 24 26  1  0  0  0  0
M  END
$$$$
default_name
  -OEChem-02102213163D

 29 29  0     1  0  0  0  0  0999 V2000
   -2.9561   -3.9186    1.3887 H   0  0  0  0  0  0  0  0  0  0  0  0
   -3.1191   -2.9346    0.9517 C   0  0  0  0  0  0  0  0  0  0  0  0
   -3.7811   -2.3546    1.5917 H   0  0  0  0  0  0  0  0  0  0  0  0
   -3.5591   -3.0406   -0.0383 H   0  0  0  0  0  0  0  0  0  0  0  0
   -1.7921   -2.2226    0.8327 C   0  0  0  0  0  0  0  0  0  0  0  0
   -0.7611   -2.7766    1.1927 O   0  0  0  0  0  0  0  0  0  0  0  0
   -1.8201   -0.9926    0.3247 N   0  0  0  0  0  0  0  0  0  0  0  0
   -2.7141   -0.5816    0.0927 H   0  0  0  0  0  0  0  0  0  0  0  0
   -0.6481   -0.1156    0.2017 C   0  0  1  0  0  0  0  0  0  0  0  0
    0.1344   -0.4988    0.8596 H   0  0  0  0  0  0  0  0  0  0  0  0
   -0.1211   -0.1520   -1.2460 C   0  0  0  0  0  0  0  0  0  0  0  0
    0.5603    0.6838   -1.4119 H   0  0  0  0  0  0  0  0  0  0  0  0
    0.4415   -1.0719   -1.4109 H   0  0  0  0  0  0  0  0  0  0  0  0
   -1.2212   -0.0448   -2.2737 C   0  0  0  0  0  0  0  0  0  0  0  0
   -1.5213   -0.9936   -3.2520 N   0  0  0  0  0  0  0  0  0  0  0  0
   -2.5904   -0.5209   -3.9093 C   0  0  0  0  0  0  0  0  0  0  0  0
   -3.0676   -1.0211   -4.7426 H   0  0  0  0  0  0  0  0  0  0  0  0
   -2.9860    0.6497   -3.3815 N   0  0  0  0  0  0  0  0  0  0  0  0
   -3.7804    1.1933   -3.6902 H   0  0  0  0  0  0  0  0  0  0  0  0
   -2.1360    0.9649   -2.3449 C   0  0  0  0  0  0  0  0  0  0  0  0
   -2.1816    1.8268   -1.6912 H   0  0  0  0  0  0  0  0  0  0  0  0
   -0.9851    1.3114    0.6698 C   0  0  0  0  0  0  0  0  0  0  0  0
   -2.0377    1.8431    0.3168 O   0  0  0  0  0  0  0  0  0  0  0  0
   -0.1052    1.9265    1.4663 N   0  0  0  0  0  0  0  0  0  0  0  0
    0.7810    1.4586    1.6201 H   0  0  0  0  0  0  0  0  0  0  0  0
   -0.2724    3.2715    2.0119 C   0  0  0  0  0  0  0  0  0  0  0  0
   -1.3249    3.4549    2.2426 H   0  0  0  0  0  0  0  0  0  0  0  0
    0.3167    3.3776    2.9239 H   0  0  0  0  0  0  0  0  0  0  0  0
    0.0609    4.0073    1.2782 H   0  0  0  0  0  0  0  0  0  0  0  0
  5  6  2  0  0  0  0
  5  7  1  0  0  0  0
  2  3  1  0  0  0  0
  2  4  1  0  0  0  0
  2  5  1  0  0  0  0
  1  2  1  0  0  0  0
 22 23  2  0  0  0  0
 22 24  1  0  0  0  0
 20 21  1  0  0  0  0
 18 19  1  0  0  0  0
 18 20  1  0  0  0  0
 16 17  1  0  0  0  0
 16 18  1  0  0  0  0
 15 16  2  0  0  0  0
 14 15  1  0  0  0  0
 14 20  2  0  0  0  0
 11 12  1  0  0  0  0
 11 13  1  0  0  0  0
 11 14  1  0  0  0  0
  9 10  1  0  0  0  0
  9 11  1  0  0  0  0
  9 22  1  0  0  0  0
  7  8  1  0  0  0  0
  7  9  1  0  0  0  0
 26 27  1  0  0  0  0
 26 28  1  0  0  0  0
 26 29  1  0  0  0  0
 24 25  1  0  0  0  0
 24 26  1  0  0  0  0
M  END
$$$$
default_name
  -OEChem-02102213163D

 29 29  0     1  0  0  0  0  0999 V2000
   -2.9561   -3.9186    1.3887 H   0  0  0  0  0  0  0  0  0  0  0  0
   -3.1191   -2.9346    0.9517 C   0  0  0  0  0  0  0  0  0  0  0  0
   -3.7811   -2.3546    1.5917 H   0  0  0  0  0  0  0  0  0  0  0  0
   -3.5591   -3.0406   -0.0383 H   0  0  0  0  0  0  0  0  0  0  0  0
   -1.7921   -2.2226    0.8327 C   0  0  0  0  0  0  0  0  0  0  0  0
   -0.7611   -2.7766    1.1927 O   0  0  0  0  0  0  0  0  0  0  0  0
   -1.8201   -0.9926    0.3247 N   0  0  0  0  0  0  0  0  0  0  0  0
   -2.7141   -0.5816    0.0927 H   0  0  0  0  0  0  0  0  0  0  0  0
   -0.6481   -0.1156    0.2017 C   0  0  1  0  0  0  0  0  0  0  0  0
    0.1344   -0.4988    0.8596 H   0  0  0  0  0  0  0  0  0  0  0  0
   -0.1211   -0.1520   -1.2460 C   0  0  0  0  0  0  0  0  0  0  0  0
    0.5603    0.6838   -1.4119 H   0  0  0  0  0  0  0  0  0  0  0  0
    0.4415   -1.0719   -1.4109 H   0  0  0  0  0  0  0  0  0  0  0  0
   -1.2212   -0.0448   -2.2737 C   0  0  0  0  0  0  0  0  0  0  0  0
   -1.7166   -1.0909   -3.0532 N   0  0  0  0  0  0  0  0  0  0  0  0
   -2.7093   -0.5669   -3.7867 C   0  0  0  0  0  0  0  0  0  0  0  0
   -3.2956   -1.1210   -4.5090 H   0  0  0  0  0  0  0  0  0  0  0  0
   -2.8757    0.7331   -3.4909 N   0  0  0  0  0  0  0  0  0  0  0  0
   -3.5735    1.3419   -3.8962 H   0  0  0  0  0  0  0  0  0  0  0  0
   -1.9477    1.0802   -2.5344 C   0  0  0  0  0  0  0  0  0  0  0  0
   -1.8192    2.0433   -2.0566 H   0  0  0  0  0  0  0  0  0  0  0  0
   -0.9851    1.3114    0.6698 C   0  0  0  0  0  0  0  0  0  0  0  0
   -2.0377    1.8431    0.3168 O   0  0  0  0  0  0  0  0  0  0  0  0
   -0.1052    1.9265    1.4663 N   0  0  0  0  0  0  0  0  0  0  0  0
    0.7810    1.4586    1.6201 H   0  0  0  0  0  0  0  0  0  0  0  0
   -0.2724    3.2715    2.0119 C   0  0  0  0  0  0  0  0  0  0  0  0
   -1.3249    3.4549    2.2426 H   0  0  0  0  0  0  0  0  0  0  0  0
    0.3167    3.3776    2.9239 H   0  0  0  0  0  0  0  0  0  0  0  0
    0.0609    4.0073    1.2782 H   0  0  0  0  0  0  0  0  0  0  0  0
  5  6  2  0  0  0  0
  5  7  1  0  0  0  0
  2  3  1  0  0  0  0
  2  4  1  0  0  0  0
  2  5  1  0  0  0  0
  1  2  1  0  0  0  0
 22 23  2  0  0  0  0
 22 24  1  0  0  0  0
 20 21  1  0  0  0  0
 18 19  1  0  0  0  0
 18 20  1  0  0  0  0
 16 17  1  0  0  0  0
 16 18  1  0  0  0  0
 15 16  2  0  0  0  0
 14 15  1  0  0  0  0
 14 20  2  0  0  0  0
 11 12  1  0  0  0  0
 11 13  1  0  0  0  0
 11 14  1  0  0  0  0
  9 10  1  0  0  0  0
  9 11  1  0  0  0  0
  9 22  1  0  0  0  0
  7  8  1  0  0  0  0
  7  9  1  0  0  0  0
 26 27  1  0  0  0  0
 26 28  1  0  0  0  0
 26 29  1  0  0  0  0
 24 25  1  0  0  0  0
 24 26  1  0  0  0  0
M  END
$$$$
default_name
  -OEChem-02102213163D

 29 29  0     1  0  0  0  0  0999 V2000
   -2.9561   -3.9186    1.3887 H   0  0  0  0  0  0  0  0  0  0  0  0
   -3.1191   -2.9346    0.9517 C   0  0  0  0  0  0  0  0  0  0  0  0
   -3.7811   -2.3546    1.5917 H   0  0  0  0  0  0  0  0  0  0  0  0
   -3.5591   -3.0406   -0.0383 H   0  0  0  0  0  0  0  0  0  0  0  0
   -1.7921   -2.2226    0.8327 C   0  0  0  0  0  0  0  0  0  0  0  0
   -0.7611   -2.7766    1.1927 O   0  0  0  0  0  0  0  0  0  0  0  0
   -1.8201   -0.9926    0.3247 N   0  0  0  0  0  0  0  0  0  0  0  0
   -2.7141   -0.5816    0.0927 H   0  0  0  0  0  0  0  0  0  0  0  0
   -0.6481   -0.1156    0.2017 C   0  0  1  0  0  0  0  0  0  0  0  0
    0.1344   -0.4988    0.8596 H   0  0  0  0  0  0  0  0  0  0  0  0
   -0.1211   -0.1520   -1.2460 C   0  0  0  0  0  0  0  0  0  0  0  0
    0.5603    0.6838   -1.4119 H   0  0  0  0  0  0  0  0  0  0  0  0
    0.4415   -1.0719   -1.4109 H   0  0  0  0  0  0  0  0  0  0  0  0
   -1.2212   -0.0448   -2.2737 C   0  0  0  0  0  0  0  0  0  0  0  0
   -1.9187   -1.1131   -2.8391 N   0  0  0  0  0  0  0  0  0  0  0  0
   -2.8301   -0.5673   -3.6575 C   0  0  0  0  0  0  0  0  0  0  0  0
   -3.5291   -1.1332   -4.2603 H   0  0  0  0  0  0  0  0  0  0  0  0
   -2.7566    0.7736   -3.6142 N   0  0  0  0  0  0  0  0  0  0  0  0
   -3.3513    1.4103   -4.1269 H   0  0  0  0  0  0  0  0  0  0  0  0
   -1.7490    1.1226   -2.7426 C   0  0  0  0  0  0  0  0  0  0  0  0
   -1.4376    2.1195   -2.4570 H   0  0  0  0  0  0  0  0  0  0  0  0
   -0.9851    1.3114    0.6698 C   0  0  0  0  0  0  0  0  0  0  0  0
   -2.0377    1.8431    0.3168 O   0  0  0  0  0  0  0  0  0  0  0  0
   -0.1052    1.9265    1.4663 N   0  0  0  0  0  0  0  0  0  0  0  0
    0.7810    1.4586    1.6201 H   0  0  0  0  0  0  0  0  0  0  0  0
   -0.2724    3.2715    2.0119 C   0  0  0  0  0  0  0  0  0  0  0  0
   -1.3249    3.4549    2.2426 H   0  0  0  0  0  0  0  0  0  0  0  0
    0.3167    3.3776    2.9239 H   0  0  0  0  0  0  0  0  0  0  0  0
    0.0609    4.0073    1.2782 H   0  0  0  0  0  0  0  0  0  0  0  0
  5  6  2  0  0  0  0
  5  7  1  0  0  0  0
  2  3  1  0  0  0  0
  2  4  1  0  0  0  0
  2  5  1  0  0  0  0
  1  2  1  0  0  0  0
 22 23  2  0  0  0  0
 22 24  1  0  0  0  0
 20 21  1  0  0  0  0
 18 19  1  0  0  0  0
 18 20  1  0  0  0  0
 16 17  1  0  0  0  0
 16 18  1  0  0  0  0
 15 16  2  0  0  0  0
 14 15  1  0  0  0  0
 14 20  2  0  0  0  0
 11 12  1  0  0  0  0
 11 13  1  0  0  0  0
 11 14  1  0  0  0  0
  9 10  1  0  0  0  0
  9 11  1  0  0  0  0
  9 22  1  0  0  0  0
  7  8  1  0  0  0  0
  7  9  1  0  0  0  0
 26 27  1  0  0  0  0
 26 28  1  0  0  0  0
 26 29  1  0  0  0  0
 24 25  1  0  0  0  0
 24 26  1  0  0  0  0
M  END
$$$$
default_name
  -OEChem-02102213163D

 29 29  0     1  0  0  0  0  0999 V2000
   -2.9561   -3.9186    1.3887 H   0  0  0  0  0  0  0  0  0  0  0  0
   -3.1191   -2.9346    0.9517 C   0  0  0  0  0  0  0  0  0  0  0  0
   -3.7811   -2.3546    1.5917 H   0  0  0  0  0  0  0  0  0  0  0  0
   -3.5591   -3.0406   -0.0383 H   0  0  0  0  0  0  0  0  0  0  0  0
   -1.7921   -2.2226    0.8327 C   0  0  0  0  0  0  0  0  0  0  0  0
   -0.7611   -2.7766    1.1927 O   0  0  0  0  0  0  0  0  0  0  0  0
   -1.8201   -0.9926    0.3247 N   0  0  0  0  0  0  0  0  0  0  0  0
   -2.7141   -0.5816    0.0927 H   0  0  0  0  0  0  0  0  0  0  0  0
   -0.6481   -0.1156    0.2017 C   0  0  1  0  0  0  0  0  0  0  0  0
    0.1344   -0.4988    0.8596 H   0  0  0  0  0  0  0  0  0  0  0  0
   -0.1211   -0.1520   -1.2460 C   0  0  0  0  0  0  0  0  0  0  0  0
    0.5603    0.6838   -1.4119 H   0  0  0  0  0  0  0  0  0  0  0  0
    0.4415   -1.0719   -1.4109 H   0  0  0  0  0  0  0  0  0  0  0  0
   -1.2212   -0.0448   -2.2737 C   0  0  0  0  0  0  0  0  0  0  0  0
   -2.1139   -1.0584   -2.6245 N   0  0  0  0  0  0  0  0  0  0  0  0
   -2.9444   -0.5219   -3.5305 C   0  0  0  0  0  0  0  0  0  0  0  0
   -3.7523   -1.0570   -4.0134 H   0  0  0  0  0  0  0  0  0  0  0  0
   -2.6365    0.7685   -3.7432 N   0  0  0  0  0  0  0  0  0  0  0  0
   -3.1288    1.3935   -4.3668 H   0  0  0  0  0  0  0  0  0  0  0  0
   -1.5534    1.0893   -2.9555 C   0  0  0  0  0  0  0  0  0  0  0  0
   -1.0630    2.0504   -2.8652 H   0  0  0  0  0  0  0  0  0  0  0  0
   -0.9851    1.3114    0.6698 C   0  0  0  0  0  0  0  0  0  0  0  0
   -2.0377    1.8431    0.3168 O   0  0  0  0  0  0  0  0  0  0  0  0
   -0.1052    1.9265    1.4663 N   0  0  0  0  0  0  0  0  0  0  0  0
    0.7810    1.4586    1.6201 H   0  0  0  0  0  0  0  0  0  0  0  0
   -0.2724    3.2715    2.0119 C   0  0  0  0  0  0  0  0  0  0  0  0
   -1.3249    3.4549    2.2426 H   0  0  0  0  0  0  0  0  0  0  0  0
    0.3167    3.3776    2.9239 H   0  0  0  0  0  0  0  0  0  0  0  0
    0.0609    4.0073    1.2782 H   0  0  0  0  0  0  0  0  0  0  0  0
  5  6  2  0  0  0  0
  5  7  1  0  0  0  0
  2  3  1  0  0  0  0
  2  4  1  0  0  0  0
  2  5  1  0  0  0  0
  1  2  1  0  0  0  0
 22 23  2  0  0  0  0
 22 24  1  0  0  0  0
 20 21  1  0  0  0  0
 18 19  1  0  0  0  0
 18 20  1  0  0  0  0
 16 17  1  0  0  0  0
 16 18  1  0  0  0  0
 15 16  2  0  0  0  0
 14 15  1  0  0  0  0
 14 20  2  0  0  0  0
 11 12  1  0  0  0  0
 11 13  1  0  0  0  0
 11 14  1  0  0  0  0
  9 10  1  0  0  0  0
  9 11  1  0  0  0  0
  9 22  1  0  0  0  0
  7  8  1  0  0  0  0
  7  9  1  0  0  0  0
 26 27  1  0  0  0  0
 26 28  1  0  0  0  0
 26 29  1  0  0  0  0
 24 25  1  0  0  0  0
 24 26  1  0  0  0  0
M  END
$$$$
default_name
  -OEChem-02102213163D

 29 29  0     1  0  0  0  0  0999 V2000
   -2.9561   -3.9186    1.3887 H   0  0  0  0  0  0  0  0  0  0  0  0
   -3.1191   -2.9346    0.9517 C   0  0  0  0  0  0  0  0  0  0  0  0
   -3.7811   -2.3546    1.5917 H   0  0  0  0  0  0  0  0  0  0  0  0
   -3.5591   -3.0406   -0.0383 H   0  0  0  0  0  0  0  0  0  0  0  0
   -1.7921   -2.2226    0.8327 C   0  0  0  0  0  0  0  0  0  0  0  0
   -0.7611   -2.7766    1.1927 O   0  0  0  0  0  0  0  0  0  0  0  0
   -1.8201   -0.9926    0.3247 N   0  0  0  0  0  0  0  0  0  0  0  0
   -2.7141   -0.5816    0.0927 H   0  0  0  0  0  0  0  0  0  0  0  0
   -0.6481   -0.1156    0.2017 C   0  0  1  0  0  0  0  0  0  0  0  0
    0.1344   -0.4988    0.8596 H   0  0  0  0  0  0  0  0  0  0  0  0
   -0.1211   -0.1520   -1.2460 C   0  0  0  0  0  0  0  0  0  0  0  0
    0.5603    0.6838   -1.4119 H   0  0  0  0  0  0  0  0  0  0  0  0
    0.4415   -1.0719   -1.4109 H   0  0  0  0  0  0  0  0  0  0  0  0
   -1.2212   -0.0448   -2.2737 C   0  0  0  0  0  0  0  0  0  0  0  0
   -2.2889   -0.9307   -2.4238 N   0  0  0  0  0  0  0  0  0  0  0  0
   -3.0445   -0.4340   -3.4142 C   0  0  0  0  0  0  0  0  0  0  0  0
   -3.9499   -0.8975   -3.7853 H   0  0  0  0  0  0  0  0  0  0  0  0
   -2.5239    0.7181   -3.8690 N   0  0  0  0  0  0  0  0  0  0  0  0
   -2.9212    1.2929   -4.5995 H   0  0  0  0  0  0  0  0  0  0  0  0
   -1.3743    0.9825   -3.1583 C   0  0  0  0  0  0  0  0  0  0  0  0
   -0.7209    1.8406   -3.2533 H   0  0  0  0  0  0  0  0  0  0  0  0
   -0.9851    1.3114    0.6698 C   0  0  0  0  0  0  0  0  0  0  0  0
   -2.0377    1.8431    0.3168 O   0  0  0  0  0  0  0  0  0  0  0  0
   -0.1052    1.9265    1.4663 N   0  0  0  0  0  0  0  0  0  0  0  0
    0.7810    1.4586    1.6201 H   0  0  0  0  0  0  0  0  0  0  0  0
   -0.2724    3.2715    2.0119 C   0  0  0  0  0  0  0  0  0  0  0  0
   -1.3249    3.4549    2.2426 H   0  0  0  0  0  0  0  0  0  0  0  0
    0.3167    3.3776    2.9239 H   0  0  0  0  0  0  0  0  0  0  0  0
    0.0609    4.0073    1.2782 H   0  0  0  0  0  0  0  0  0  0  0  0
  5  6  2  0  0  0  0
  5  7  1  0  0  0  0
  2  3  1  0  0  0  0
  2  4  1  0  0  0  0
  2  5  1  0  0  0  0
  1  2  1  0  0  0  0
 22 23  2  0  0  0  0
 22 24  1  0  0  0  0
 20 21  1  0  0  0  0
 18 19  1  0  0  0  0
 18 20  1  0  0  0  0
 16 17  1  0  0  0  0
 16 18  1  0  0  0  0
 15 16  2  0  0  0  0
 14 15  1  0  0  0  0
 14 20  2  0  0  0  0
 11 12  1  0  0  0  0
 11 13  1  0  0  0  0
 11 14  1  0  0  0  0
  9 10  1  0  0  0  0
  9 11  1  0  0  0  0
  9 22  1  0  0  0  0
  7  8  1  0  0  0  0
  7  9  1  0  0  0  0
 26 27  1  0  0  0  0
 26 28  1  0  0  0  0
 26 29  1  0  0  0  0
 24 25  1  0  0  0  0
 24 26  1  0  0  0  0
M  END
$$$$
default_name
  -OEChem-02102213163D

 29 29  0     1  0  0  0  0  0999 V2000
   -2.9561   -3.9186    1.3887 H   0  0  0  0  0  0  0  0  0  0  0  0
   -3.1191   -2.9346    0.9517 C   0  0  0  0  0  0  0  0  0  0  0  0
   -3.7811   -2.3546    1.5917 H   0  0  0  0  0  0  0  0  0  0  0  0
   -3.5591   -3.0406   -0.0383 H   0  0  0  0  0  0  0  0  0  0  0  0
   -1.7921   -2.2226    0.8327 C   0  0  0  0  0  0  0  0  0  0  0  0
   -0.7611   -2.7766    1.1927 O   0  0  0  0  0  0  0  0  0  0  0  0
   -1.8201   -0.9926    0.3247 N   0  0  0  0  0  0  0  0  0  0  0  0
   -2.7141   -0.5816    0.0927 H   0  0  0  0  0  0  0  0  0  0  0  0
   -0.6481   -0.1156    0.2017 C   0  0  1  0  0  0  0  0  0  0  0  0
    0.1344   -0.4988    0.8596 H   0  0  0  0  0  0  0  0  0  0  0  0
   -0.1211   -0.1520   -1.2460 C   0  0  0  0  0  0  0  0  0  0  0  0
    0.5603    0.6838   -1.4119 H   0  0  0  0  0  0  0  0  0  0  0  0
    0.4415   -1.0719   -1.4109 H   0  0  0  0  0  0  0  0  0  0  0  0
   -1.2212   -0.0448   -2.2737 C   0  0  0  0  0  0  0  0  0  0  0  0
   -2.4317   -0.7387   -2.2509 N   0  0  0  0  0  0  0  0  0  0  0  0
   -3.1235   -0.3096   -3.3166 C   0  0  0  0  0  0  0  0  0  0  0  0
   -4.1084   -0.6655   -3.5914 H   0  0  0  0  0  0  0  0  0  0  0  0
   -2.4263    0.6258   -3.9831 N   0  0  0  0  0  0  0  0  0  0  0  0
   -2.7428    1.1152   -4.8090 H   0  0  0  0  0  0  0  0  0  0  0  0
   -1.2239    0.8095   -3.3374 C   0  0  0  0  0  0  0  0  0  0  0  0
   -0.4345    1.5044   -3.5950 H   0  0  0  0  0  0  0  0  0  0  0  0
   -0.9851    1.3114    0.6698 C   0  0  0  0  0  0  0  0  0  0  0  0
   -2.0377    1.8431    0.3168 O   0  0  0  0  0  0  0  0  0  0  0  0
   -0.1052    1.9265    1.4663 N   0  0  0  0  0  0  0  0  0  0  0  0
    0.7810    1.4586    1.6201 H   0  0  0  0  0  0  0  0  0  0  0  0
   -0.2724    3.2715    2.0119 C   0  0  0  0  0  0  0  0  0  0  0  0
   -1.3249    3.4549    2.2426 H   0  0  0  0  0  0  0  0  0  0  0  0
    0.3167    3.3776    2.9239 H   0  0  0  0  0  0  0  0  0  0  0  0
    0.0609    4.0073    1.2782 H   0  0  0  0  0  0  0  0  0  0  0  0
  5  6  2  0  0  0  0
  5  7  1  0  0  0  0
  2  3  1  0  0  0  0
  2  4  1  0  0  0  0
  2  5  1  0  0  0  0
  1  2  1  0  0  0  0
 22 23  2  0  0  0  0
 22 24  1  0  0  0  0
 20 21  1  0  0  0  0
 18 19  1  0  0  0  0
 18 20  1  0  0  0  0
 16 17  1  0  0  0  0
 16 18  1  0  0  0  0
 15 16  2  0  0  0  0
 14 15  1  0  0  0  0
 14 20  2  0  0  0  0
 11 12  1  0  0  0  0
 11 13  1  0  0  0  0
 11 14  1  0  0  0  0
  9 10  1  0  0  0  0
  9 11  1  0  0  0  0
  9 22  1  0  0  0  0
  7  8  1  0  0  0  0
  7  9  1  0  0  0  0
 26 27  1  0  0  0  0
 26 28  1  0  0  0  0
 26 29  1  0  0  0  0
 24 25  1  0  0  0  0
 24 26  1  0  0  0  0
M  END
$$$$
default_name
  -OEChem-02102213163D

 29 29  0     1  0  0  0  0  0999 V2000
   -2.9561   -3.9186    1.3887 H   0  0  0  0  0  0  0  0  0  0  0  0
   -3.1191   -2.9346    0.9517 C   0  0  0  0  0  0  0  0  0  0  0  0
   -3.7811   -2.3546    1.5917 H   0  0  0  0  0  0  0  0  0  0  0  0
   -3.5591   -3.0406   -0.0383 H   0  0  0  0  0  0  0  0  0  0  0  0
   -1.7921   -2.2226    0.8327 C   0  0  0  0  0  0  0  0  0  0  0  0
   -0.7611   -2.7766    1.1927 O   0  0  0  0  0  0  0  0  0  0  0  0
   -1.8201   -0.9926    0.3247 N   0  0  0  0  0  0  0  0  0  0  0  0
   -2.7141   -0.5816    0.0927 H   0  0  0  0  0  0  0  0  0  0  0  0
   -0.6481   -0.1156    0.2017 C   0  0  1  0  0  0  0  0  0  0  0  0
    0.1344   -0.4988    0.8596 H   0  0  0  0  0  0  0  0  0  0  0  0
   -0.1211   -0.1520   -1.2460 C   0  0  0  0  0  0  0  0  0  0  0  0
    0.5603    0.6838   -1.4119 H   0  0  0  0  0  0  0  0  0  0  0  0
    0.4415   -1.0719   -1.4109 H   0  0  0  0  0  0  0  0  0  0  0  0
   -1.2212   -0.0448   -2.2737 C   0  0  0  0  0  0  0  0  0  0  0  0
   -2.5327   -0.4954   -2.1175 N   0  0  0  0  0  0  0  0  0  0  0  0
   -3.1761   -0.1570   -3.2443 C   0  0  0  0  0  0  0  0  0  0  0  0
   -4.2171   -0.3769   -3.4449 H   0  0  0  0  0  0  0  0  0  0  0  0
   -2.3504    0.4979   -4.0777 N   0  0  0  0  0  0  0  0  0  0  0  0
   -2.6056    0.8726   -4.9812 H   0  0  0  0  0  0  0  0  0  0  0  0
   -1.1123    0.5821   -3.4805 C   0  0  0  0  0  0  0  0  0  0  0  0
   -0.2234    1.0648   -3.8668 H   0  0  0  0  0  0  0  0  0  0  0  0
   -0.9851    1.3114    0.6698 C   0  0  0  0  0  0  0  0  0  0  0  0
   -2.0377    1.8431    0.3168 O   0  0  0  0  0  0  0  0  0  0  0  0
   -0.1052    1.9265    1.4663 N   0  0  0  0  0  0  0  0  0  0  0  0
    0.7810    1.4586    1.6201 H   0  0  0  0  0  0  0  0  0  0  0  0
   -0.2724    3.2715    2.0119 C   0  0  0  0  0  0  0  0  0  0  0  0
   -1.3249    3.4549    2.2426 H   0  0  0  0  0  0  0  0  0  0  0  0
    0.3167    3.3776    2.9239 H   0  0  0  0  0  0  0  0  0  0  0  0
    0.0609    4.0073    1.2782 H   0  0  0  0  0  0  0  0  0  0  0  0
  5  6  2  0  0  0  0
  5  7  1  0  0  0  0
  2  3  1  0  0  0  0
  2  4  1  0  0  0  0
  2  5  1  0  0  0  0
  1  2  1  0  0  0  0
 22 23  2  0  0  0  0
 22 24  1  0  0  0  0
 20 21  1  0  0  0  0
 18 19  1  0  0  0  0
 18 20  1  0  0  0  0
 16 17  1  0  0  0  0
 16 18  1  0  0  0  0
 15 16  2  0  0  0  0
 14 15  1  0  0  0  0
 14 20  2  0  0  0  0
 11 12  1  0  0  0  0
 11 13  1  0  0  0  0
 11 14  1  0  0  0  0
  9 10  1  0  0  0  0
  9 11  1  0  0  0  0
  9 22  1  0  0  0  0
  7  8  1  0  0  0  0
  7  9  1  0  0  0  0
 26 27  1  0  0  0  0
 26 28  1  0  0  0  0
 26 29  1  0  0  0  0
 24 25  1  0  0  0  0
 24 26  1  0  0  0  0
M  END
$$$$
default_name
  -OEChem-02102213163D

 29 29  0     1  0  0  0  0  0999 V2000
   -2.9561   -3.9186    1.3887 H   0  0  0  0  0  0  0  0  0  0  0  0
   -3.1191   -2.9346    0.9517 C   0  0  0  0  0  0  0  0  0  0  0  0
   -3.7811   -2.3546    1.5917 H   0  0  0  0  0  0  0  0  0  0  0  0
   -3.5591   -3.0406   -0.0383 H   0  0  0  0  0  0  0  0  0  0  0  0
   -1.7921   -2.2226    0.8327 C   0  0  0  0  0  0  0  0  0  0  0  0
   -0.7611   -2.7766    1.1927 O   0  0  0  0  0  0  0  0  0  0  0  0
   -1.8201   -0.9926    0.3247 N   0  0  0  0  0  0  0  0  0  0  0  0
   -2.7141   -0.5816    0.0927 H   0  0  0  0  0  0  0  0  0  0  0  0
   -0.6481   -0.1156    0.2017 C   0  0  1  0  0  0  0  0  0  0  0  0
    0.1344   -0.4988    0.8596 H   0  0  0  0  0  0  0  0  0  0  0  0
   -0.1211   -0.1520   -1.2460 C   0  0  0  0  0  0  0  0  0  0  0  0
    0.5603    0.6838   -1.4119 H   0  0  0  0  0  0  0  0  0  0  0  0
    0.4415   -1.0719   -1.4109 H   0  0  0  0  0  0  0  0  0  0  0  0
   -1.2212   -0.0448   -2.2737 C   0  0  0  0  0  0  0  0  0  0  0  0
   -2.5848   -0.2175   -2.0327 N   0  0  0  0  0  0  0  0  0  0  0  0
   -3.1988    0.0133   -3.2024 C   0  0  0  0  0  0  0  0  0  0  0  0
   -4.2686   -0.0514   -3.3559 H   0  0  0  0  0  0  0  0  0  0  0  0
   -2.3013    0.3431   -4.1464 N   0  0  0  0  0  0  0  0  0  0  0  0
   -2.5189    0.5816   -5.1043 H   0  0  0  0  0  0  0  0  0  0  0  0
   -1.0473    0.3158   -3.5779 C   0  0  0  0  0  0  0  0  0  0  0  0
   -0.1020    0.5517   -4.0503 H   0  0  0  0  0  0  0  0  0  0  0  0
   -0.9851    1.3114    0.6698 C   0  0  0  0  0  0  0  0  0  0  0  0
   -2.0377    1.8431    0.3168 O   0  0  0  0  0  0  0  0  0  0  0  0
   -0.1052    1.9265    1.4663 N   0  0  0  0  0  0  0  0  0  0  0  0
    0.7810    1.4586    1.6201 H   0  0  0  0  0  0  0  0  0  0  0  0
   -0.2724    3.2715    2.0119 C   0  0  0  0  0  0  0  0  0  0  0  0
   -1.3249    3.4549    2.2426 H   0  0  0  0  0  0  0  0  0  0  0  0
    0.3167    3.3776    2.9239 H   0  0  0  0  0  0  0  0  0  0  0  0
    0.0609    4.0073    1.2782 H   0  0  0  0  0  0  0  0  0  0  0  0
  5  6  2  0  0  0  0
  5  7  1  0  0  0  0
  2  3  1  0  0  0  0
  2  4  1  0  0  0  0
  2  5  1  0  0  0  0
  1  2  1  0  0  0  0
 22 23  2  0  0  0  0
 22 24  1  0  0  0  0
 20 21  1  0  0  0  0
 18 19  1  0  0  0  0
 18 20  1  0  0  0  0
 16 17  1  0  0  0  0
 16 18  1  0  0  0  0
 15 16  2  0  0  0  0
 14 15  1  0  0  0  0
 14 20  2  0  0  0  0
 11 12  1  0  0  0  0
 11 13  1  0  0  0  0
 11 14  1  0  0  0  0
  9 10  1  0  0  0  0
  9 11  1  0  0  0  0
  9 22  1  0  0  0  0
  7  8  1  0  0  0  0
  7  9  1  0  0  0  0
 26 27  1  0  0  0  0
 26 28  1  0  0  0  0
 26 29  1  0  0  0  0
 24 25  1  0  0  0  0
 24 26  1  0  0  0  0
M  END
$$$$
default_name
  -OEChem-02102213163D

 29 29  0     1  0  0  0  0  0999 V2000
   -2.9561   -3.9186    1.3887 H   0  0  0  0  0  0  0  0  0  0  0  0
   -3.1191   -2.9346    0.9517 C   0  0  0  0  0  0  0  0  0  0  0  0
   -3.7811   -2.3546    1.5917 H   0  0  0  0  0  0  0  0  0  0  0  0
   -3.5591   -3.0406   -0.0383 H   0  0  0  0  0  0  0  0  0  0  0  0
   -1.7921   -2.2226    0.8327 C   0  0  0  0  0  0  0  0  0  0  0  0
   -0.7611   -2.7766    1.1927 O   0  0  0  0  0  0  0  0  0  0  0  0
   -1.8201   -0.9926    0.3247 N   0  0  0  0  0  0  0  0  0  0  0  0
   -2.7141   -0.5816    0.0927 H   0  0  0  0  0  0  0  0  0  0  0  0
   -0.6481   -0.1156    0.2017 C   0  0  1  0  0  0  0  0  0  0  0  0
    0.1344   -0.4988    0.8596 H   0  0  0  0  0  0  0  0  0  0  0  0
   -0.1211   -0.1520   -1.2460 C   0  0  0  0  0  0  0  0  0  0  0  0
    0.5603    0.6838   -1.4119 H   0  0  0  0  0  0  0  0  0  0  0  0
    0.4415   -1.0719   -1.4109 H   0  0  0  0  0  0  0  0  0  0  0  0
   -1.2212   -0.0448   -2.2737 C   0  0  0  0  0  0  0  0  0  0  0  0
   -2.5847    0.0761   -2.0022 N   0  0  0  0  0  0  0  0  0  0  0  0
   -3.1898    0.1897   -3.1935 C   0  0  0  0  0  0  0  0  0  0  0  0
   -4.2593    0.2889   -3.3304 H   0  0  0  0  0  0  0  0  0  0  0  0
   -2.2825    0.1721   -4.1844 N   0  0  0  0  0  0  0  0  0  0  0  0
   -2.4888    0.2621   -5.1699 H   0  0  0  0  0  0  0  0  0  0  0  0
   -1.0332    0.0287   -3.6230 C   0  0  0  0  0  0  0  0  0  0  0  0
   -0.0785   -0.0000   -4.1330 H   0  0  0  0  0  0  0  0  0  0  0  0
   -0.9851    1.3114    0.6698 C   0  0  0  0  0  0  0  0  0  0  0  0
   -2.0377    1.8431    0.3168 O   0  0  0  0  0  0  0  0  0  0  0  0
   -0.1052    1.9265    1.4663 N   0  0  0  0  0  0  0  0  0  0  0  0
    0.7810    1.4586    1.6201 H   0  0  0  0  0  0  0  0  0  0  0  0
   -0.2724    3.2715    2.0119 C   0  0  0  0  0  0  0  0  0  0  0  0
   -1.3249    3.4549    2.2426 H   0  0  0  0  0  0  0  0  0  0  0  0
    0.3167    3.3776    2.9239 H   0  0  0  0  0  0  0  0  0  0  0  0
    0.0609    4.0073    1.2782 H   0  0  0  0  0  0  0  0  0  0  0  0
  5  6  2  0  0  0  0
  5  7  1  0  0  0  0
  2  3  1  0  0  0  0
  2  4  1  0  0  0  0
  2  5  1  0  0  0  0
  1  2  1  0  0  0  0
 22 23  2  0  0  0  0
 22 24  1  0  0  0  0
 20 21  1  0  0  0  0
 18 19  1  0  0  0  0
 18 20  1  0  0  0  0
 16 17  1  0  0  0  0
 16 18  1  0  0  0  0
 15 16  2  0  0  0  0
 14 15  1  0  0  0  0
 14 20  2  0  0  0  0
 11 12  1  0  0  0  0
 11 13  1  0  0  0  0
 11 14  1  0  0  0  0
  9 10  1  0  0  0  0
  9 11  1  0  0  0  0
  9 22  1  0  0  0  0
  7  8  1  0  0  0  0
  7  9  1  0  0  0  0
 26 27  1  0  0  0  0
 26 28  1  0  0  0  0
 26 29  1  0  0  0  0
 24 25  1  0  0  0  0
 24 26  1  0  0  0  0
M  END
$$$$
default_name
  -OEChem-02102213163D

 29 29  0     1  0  0  0  0  0999 V2000
   -2.9561   -3.9186    1.3887 H   0  0  0  0  0  0  0  0  0  0  0  0
   -3.1191   -2.9346    0.9517 C   0  0  0  0  0  0  0  0  0  0  0  0
   -3.7811   -2.3546    1.5917 H   0  0  0  0  0  0  0  0  0  0  0  0
   -3.5591   -3.0406   -0.0383 H   0  0  0  0  0  0  0  0  0  0  0  0
   -1.7921   -2.2226    0.8327 C   0  0  0  0  0  0  0  0  0  0  0  0
   -0.7611   -2.7766    1.1927 O   0  0  0  0  0  0  0  0  0  0  0  0
   -1.8201   -0.9926    0.3247 N   0  0  0  0  0  0  0  0  0  0  0  0
   -2.7141   -0.5816    0.0927 H   0  0  0  0  0  0  0  0  0  0  0  0
   -0.6481   -0.1156    0.2017 C   0  0  1  0  0  0  0  0  0  0  0  0
    0.1344   -0.4988    0.8596 H   0  0  0  0  0  0  0  0  0  0  0  0
   -0.1211   -0.1520   -1.2460 C   0  0  0  0  0  0  0  0  0  0  0  0
    0.5603    0.6838   -1.4119 H   0  0  0  0  0  0  0  0  0  0  0  0
    0.4415   -1.0719   -1.4109 H   0  0  0  0  0  0  0  0  0  0  0  0
   -1.2212   -0.0448   -2.2737 C   0  0  0  0  0  0  0  0  0  0  0  0
   -2.5322    0.3655   -2.0282 N   0  0  0  0  0  0  0  0  0  0  0  0
   -3.1499    0.3602   -3.2184 C   0  0  0  0  0  0  0  0  0  0  0  0
   -4.1898    0.6207   -3.3701 H   0  0  0  0  0  0  0  0  0  0  0  0
   -2.2952   -0.0037   -4.1892 N   0  0  0  0  0  0  0  0  0  0  0  0
   -2.5172   -0.0643   -5.1735 H   0  0  0  0  0  0  0  0  0  0  0  0
   -1.0710   -0.2596   -3.6126 C   0  0  0  0  0  0  0  0  0  0  0  0
   -0.1545   -0.5526   -4.1092 H   0  0  0  0  0  0  0  0  0  0  0  0
   -0.9851    1.3114    0.6698 C   0  0  0  0  0  0  0  0  0  0  0  0
   -2.0377    1.8431    0.3168 O   0  0  0  0  0  0  0  0  0  0  0  0
   -0.1052    1.9265    1.4663 N   0  0  0  0  0  0  0  0  0  0  0  0
    0.7810    1.4586    1.6201 H   0  0  0  0  0  0  0  0  0  0  0  0
   -0.2724    3.2715    2.0119 C   0  0  0  0  0  0  0  0  0  0  0  0
   -1.3249    3.4549    2.2426 H   0  0  0  0  0  0  0  0  0  0  0  0
    0.3167    3.3776    2.9239 H   0  0  0  0  0  0  0  0  0  0  0  0
    0.0609    4.0073    1.2782 H   0  0  0  0  0  0  0  0  0  0  0  0
  5  6  2  0  0  0  0
  5  7  1  0  0  0  0
  2  3  1  0  0  0  0
  2  4  1  0  0  0  0
  2  5  1  0  0  0  0
  1  2  1  0  0  0  0
 22 23  2  0  0  0  0
 22 24  1  0  0  0  0
 20 21  1  0  0  0  0
 18 19  1  0  0  0  0
 18 20  1  0  0  0  0
 16 17  1  0  0  0  0
 16 18  1  0  0  0  0
 15 16  2  0  0  0  0
 14 15  1  0  0  0  0
 14 20  2  0  0  0  0
 11 12  1  0  0  0  0
 11 13  1  0  0  0  0
 11 14  1  0  0  0  0
  9 10  1  0  0  0  0
  9 11  1  0  0  0  0
  9 22  1  0  0  0  0
  7  8  1  0  0  0  0
  7  9  1  0  0  0  0
 26 27  1  0  0  0  0
 26 28  1  0  0  0  0
 26 29  1  0  0  0  0
 24 25  1  0  0  0  0
 24 26  1  0  0  0  0
M  END
$$$$
default_name
  -OEChem-02102213163D

 29 29  0     1  0  0  0  0  0999 V2000
   -2.9561   -3.9186    1.3887 H   0  0  0  0  0  0  0  0  0  0  0  0
   -3.1191   -2.9346    0.9517 C   0  0  0  0  0  0  0  0  0  0  0  0
   -3.7811   -2.3546    1.5917 H   0  0  0  0  0  0  0  0  0  0  0  0
   -3.5591   -3.0406   -0.0383 H   0  0  0  0  0  0  0  0  0  0  0  0
   -1.7921   -2.2226    0.8327 C   0  0  0  0  0  0  0  0  0  0  0  0
   -0.7611   -2.7766    1.1927 O   0  0  0  0  0  0  0  0  0  0  0  0
   -1.8201   -0.9926    0.3247 N   0  0  0  0  0  0  0  0  0  0  0  0
   -2.7141   -0.5816    0.0927 H   0  0  0  0  0  0  0  0  0  0  0  0
   -0.6481   -0.1156    0.2017 C   0  0  1  0  0  0  0  0  0  0  0  0
    0.1344   -0.4988    0.8596 H   0  0  0  0  0  0  0  0  0  0  0  0
   -0.1211   -0.1520   -1.2460 C   0  0  0  0  0  0  0  0  0  0  0  0
    0.5603    0.6838   -1.4119 H   0  0  0  0  0  0  0  0  0  0  0  0
    0.4415   -1.0719   -1.4109 H   0  0  0  0  0  0  0  0  0  0  0  0
   -1.2212   -0.0448   -2.2737 C   0  0  0  0  0  0  0  0  0  0  0  0
   -2.4310    0.6309   -2.1088 N   0  0  0  0  0  0  0  0  0  0  0  0
   -3.0818    0.5131   -3.2754 C   0  0  0  0  0  0  0  0  0  0  0  0
   -4.0650    0.9216   -3.4724 H   0  0  0  0  0  0  0  0  0  0  0  0
   -2.3384   -0.1721   -4.1604 N   0  0  0  0  0  0  0  0  0  0  0  0
   -2.6023   -0.3752   -5.1149 H   0  0  0  0  0  0  0  0  0  0  0  0
   -1.1581   -0.5294   -3.5475 C   0  0  0  0  0  0  0  0  0  0  0  0
   -0.3250   -1.0685   -3.9806 H   0  0  0  0  0  0  0  0  0  0  0  0
   -0.9851    1.3114    0.6698 C   0  0  0  0  0  0  0  0  0  0  0  0
   -2.0377    1.8431    0.3168 O   0  0  0  0  0  0  0  0  0  0  0  0
   -0.1052    1.9265    1.4663 N   0  0  0  0  0  0  0  0  0  0  0  0
    0.7810    1.4586    1.6201 H   0  0  0  0  0  0  0  0  0  0  0  0
   -0.2724    3.2715    2.0119 C   0  0  0  0  0  0  0  0  0  0  0  0
   -1.3249    3.4549    2.2426 H   0  0  0  0  0  0  0  0  0  0  0  0
    0.3167    3.3776    2.9239 H   0  0  0  0  0  0  0  0  0  0  0  0
    0.0609    4.0073    1.2782 H   0  0  0  0  0  0  0  0  0  0  0  0
  5  6  2  0  0  0  0
  5  7  1  0  0  0  0
  2  3  1  0  0  0  0
  2  4  1  0  0  0  0
  2  5  1  0  0  0  0
  1  2  1  0  0  0  0
 22 23  2  0  0  0  0
 22 24  1  0  0  0  0
 20 21  1  0  0  0  0
 18 19  1  0  0  0  0
 18 20  1  0  0  0  0
 16 17  1  0  0  0  0
 16 18  1  0  0  0  0
 15 16  2  0  0  0  0
 14 15  1  0  0  0  0
 14 20  2  0  0  0  0
 11 12  1  0  0  0  0
 11 13  1  0  0  0  0
 11 14  1  0  0  0  0
  9 10  1  0  0  0  0
  9 11  1  0  0  0  0
  9 22  1  0  0  0  0
  7  8  1  0  0  0  0
  7  9  1  0  0  0  0
 26 27  1  0  0  0  0
 26 28  1  0  0  0  0
 26 29  1  0  0  0  0
 24 25  1  0  0  0  0
 24 26  1  0  0  0  0
M  END
$$$$
default_name
  -OEChem-02102213163D

 29 29  0     1  0  0  0  0  0999 V2000
   -2.9561   -3.9186    1.3887 H   0  0  0  0  0  0  0  0  0  0  0  0
   -3.1191   -2.9346    0.9517 C   0  0  0  0  0  0  0  0  0  0  0  0
   -3.7811   -2.3546    1.5917 H   0  0  0  0  0  0  0  0  0  0  0  0
   -3.5591   -3.0406   -0.0383 H   0  0  0  0  0  0  0  0  0  0  0  0
   -1.7921   -2.2226    0.8327 C   0  0  0  0  0  0  0  0  0  0  0  0
   -0.7611   -2.7766    1.1927 O   0  0  0  0  0  0  0  0  0  0  0  0
   -1.8201   -0.9926    0.3247 N   0  0  0  0  0  0  0  0  0  0  0  0
   -2.7141   -0.5816    0.0927 H   0  0  0  0  0  0  0  0  0  0  0  0
   -0.6481   -0.1156    0.2017 C   0  0  1  0  0  0  0  0  0  0  0  0
    0.1344   -0.4988    0.8596 H   0  0  0  0  0  0  0  0  0  0  0  0
   -0.1211   -0.1520   -1.2460 C   0  0  0  0  0  0  0  0  0  0  0  0
    0.5603    0.6838   -1.4119 H   0  0  0  0  0  0  0  0  0  0  0  0
    0.4415   -1.0719   -1.4109 H   0  0  0  0  0  0  0  0  0  0  0  0
   -1.2212   -0.0448   -2.2737 C   0  0  0  0  0  0  0  0  0  0  0  0
   -2.2880    0.8542   -2.2386 N   0  0  0  0  0  0  0  0  0  0  0  0
   -2.9901    0.6380   -3.3605 C   0  0  0  0  0  0  0  0  0  0  0  0
   -3.8933    1.1709   -3.6302 H   0  0  0  0  0  0  0  0  0  0  0  0
   -2.4094   -0.3217   -4.1001 N   0  0  0  0  0  0  0  0  0  0  0  0
   -2.7382   -0.6494   -4.9980 H   0  0  0  0  0  0  0  0  0  0  0  0
   -1.2886   -0.7624   -3.4321 C   0  0  0  0  0  0  0  0  0  0  0  0
   -0.5781   -1.5125   -3.7559 H   0  0  0  0  0  0  0  0  0  0  0  0
   -0.9851    1.3114    0.6698 C   0  0  0  0  0  0  0  0  0  0  0  0
   -2.0377    1.8431    0.3168 O   0  0  0  0  0  0  0  0  0  0  0  0
   -0.1052    1.9265    1.4663 N   0  0  0  0  0  0  0  0  0  0  0  0
    0.7810    1.4586    1.6201 H   0  0  0  0  0  0  0  0  0  0  0  0
   -0.2724    3.2715    2.0119 C   0  0  0  0  0  0  0  0  0  0  0  0
   -1.3249    3.4549    2.2426 H   0  0  0  0  0  0  0  0  0  0  0  0
    0.3167    3.3776    2.9239 H   0  0  0  0  0  0  0  0  0  0  0  0
    0.0609    4.0073    1.2782 H   0  0  0  0  0  0  0  0  0  0  0  0
  5  6  2  0  0  0  0
  5  7  1  0  0  0  0
  2  3  1  0  0  0  0
  2  4  1  0  0  0  0
  2  5  1  0  0  0  0
  1  2  1  0  0  0  0
 22 23  2  0  0  0  0
 22 24  1  0  0  0  0
 20 21  1  0  0  0  0
 18 19  1  0  0  0  0
 18 20  1  0  0  0  0
 16 17  1  0  0  0  0
 16 18  1  0  0  0  0
 15 16  2  0  0  0  0
 14 15  1  0  0  0  0
 14 20  2  0  0  0  0
 11 12  1  0  0  0  0
 11 13  1  0  0  0  0
 11 14  1  0  0  0  0
  9 10  1  0  0  0  0
  9 11  1  0  0  0  0
  9 22  1  0  0  0  0
  7  8  1  0  0  0  0
  7  9  1  0  0  0  0
 26 27  1  0  0  0  0
 26 28  1  0  0  0  0
 26 29  1  0  0  0  0
 24 25  1  0  0  0  0
 24 26  1  0  0  0  0
M  END
$$$$
default_name
  -OEChem-02102213163D

 29 29  0     1  0  0  0  0  0999 V2000
   -2.9561   -3.9186    1.3887 H   0  0  0  0  0  0  0  0  0  0  0  0
   -3.1191   -2.9346    0.9517 C   0  0  0  0  0  0  0  0  0  0  0  0
   -3.7811   -2.3546    1.5917 H   0  0  0  0  0  0  0  0  0  0  0  0
   -3.5591   -3.0406   -0.0383 H   0  0  0  0  0  0  0  0  0  0  0  0
   -1.7921   -2.2226    0.8327 C   0  0  0  0  0  0  0  0  0  0  0  0
   -0.7611   -2.7766    1.1927 O   0  0  0  0  0  0  0  0  0  0  0  0
   -1.8201   -0.9926    0.3247 N   0  0  0  0  0  0  0  0  0  0  0  0
   -2.7141   -0.5816    0.0927 H   0  0  0  0  0  0  0  0  0  0  0  0
   -0.6481   -0.1156    0.2017 C   0  0  1  0  0  0  0  0  0  0  0  0
    0.1344   -0.4988    0.8596 H   0  0  0  0  0  0  0  0  0  0  0  0
   -0.1211   -0.1520   -1.2460 C   0  0  0  0  0  0  0  0  0  0  0  0
    0.5603    0.6838   -1.4119 H   0  0  0  0  0  0  0  0  0  0  0  0
    0.4415   -1.0719   -1.4109 H   0  0  0  0  0  0  0  0  0  0  0  0
   -1.2212   -0.0448   -2.2737 C   0  0  0  0  0  0  0  0  0  0  0  0
   -2.1129    1.0202   -2.4088 N   0  0  0  0  0  0  0  0  0  0  0  0
   -2.8811    0.7265   -3.4680 C   0  0  0  0  0  0  0  0  0  0  0  0
   -3.6864    1.3516   -3.8328 H   0  0  0  0  0  0  0  0  0  0  0  0
   -2.5032   -0.4424   -4.0122 N   0  0  0  0  0  0  0  0  0  0  0  0
   -2.9156   -0.8684   -4.8310 H   0  0  0  0  0  0  0  0  0  0  0  0
   -1.4536   -0.9427   -3.2742 C   0  0  0  0  0  0  0  0  0  0  0  0
   -0.8968   -1.8544   -3.4504 H   0  0  0  0  0  0  0  0  0  0  0  0
   -0.9851    1.3114    0.6698 C   0  0  0  0  0  0  0  0  0  0  0  0
   -2.0377    1.8431    0.3168 O   0  0  0  0  0  0  0  0  0  0  0  0
   -0.1052    1.9265    1.4663 N   0  0  0  0  0  0  0  0  0  0  0  0
    0.7810    1.4586    1.6201 H   0  0  0  0  0  0  0  0  0  0  0  0
   -0.2724    3.2715    2.0119 C   0  0  0  0  0  0  0  0  0  0  0  0
   -1.3249    3.4549    2.2426 H   0  0  0  0  0  0  0  0  0  0  0  0
    0.3167    3.3776    2.9239 H   0  0  0  0  0  0  0  0  0  0  0  0
    0.0609    4.0073    1.2782 H   0  0  0  0  0  0  0  0  0  0  0  0
  5  6  2  0  0  0  0
  5  7  1  0  0  0  0
  2  3  1  0  0  0  0
  2  4  1  0  0  0  0
  2  5  1  0  0  0  0
  1  2  1  0  0  0  0
 22 23  2  0  0  0  0
 22 24  1  0  0  0  0
 20 21  1  0  0  0  0
 18 19  1  0  0  0  0
 18 20  1  0  0  0  0
 16 17  1  0  0  0  0
 16 18  1  0  0  0  0
 15 16  2  0  0  0  0
 14 15  1  0  0  0  0
 14 20  2  0  0  0  0
 11 12  1  0  0  0  0
 11 13  1  0  0  0  0
 11 14  1  0  0  0  0
  9 10  1  0  0  0  0
  9 11  1  0  0  0  0
  9 22  1  0  0  0  0
  7  8  1  0  0  0  0
  7  9  1  0  0  0  0
 26 27  1  0  0  0  0
 26 28  1  0  0  0  0
 26 29  1  0  0  0  0
 24 25  1  0  0  0  0
 24 26  1  0  0  0  0
M  END
$$$$
default_name
  -OEChem-02102213163D

 29 29  0     1  0  0  0  0  0999 V2000
   -2.9561   -3.9186    1.3887 H   0  0  0  0  0  0  0  0  0  0  0  0
   -3.1191   -2.9346    0.9517 C   0  0  0  0  0  0  0  0  0  0  0  0
   -3.7811   -2.3546    1.5917 H   0  0  0  0  0  0  0  0  0  0  0  0
   -3.5591   -3.0406   -0.0383 H   0  0  0  0  0  0  0  0  0  0  0  0
   -1.7921   -2.2226    0.8327 C   0  0  0  0  0  0  0  0  0  0  0  0
   -0.7611   -2.7766    1.1927 O   0  0  0  0  0  0  0  0  0  0  0  0
   -1.8201   -0.9926    0.3247 N   0  0  0  0  0  0  0  0  0  0  0  0
   -2.7141   -0.5816    0.0927 H   0  0  0  0  0  0  0  0  0  0  0  0
   -0.6481   -0.1156    0.2017 C   0  0  1  0  0  0  0  0  0  0  0  0
    0.1344   -0.4988    0.8596 H   0  0  0  0  0  0  0  0  0  0  0  0
   -0.1211   -0.1520   -1.2460 C   0  0  0  0  0  0  0  0  0  0  0  0
    0.5603    0.6838   -1.4119 H   0  0  0  0  0  0  0  0  0  0  0  0
    0.4415   -1.0719   -1.4109 H   0  0  0  0  0  0  0  0  0  0  0  0
   -1.2212   -0.0448   -2.2737 C   0  0  0  0  0  0  0  0  0  0  0  0
   -1.9176    1.1175   -2.6077 N   0  0  0  0  0  0  0  0  0  0  0  0
   -2.7622    0.7725   -3.5905 C   0  0  0  0  0  0  0  0  0  0  0  0
   -3.4584    1.4515   -4.0664 H   0  0  0  0  0  0  0  0  0  0  0  0
   -2.6134   -0.5258   -3.9029 N   0  0  0  0  0  0  0  0  0  0  0  0
   -3.1225   -1.0171   -4.6250 H   0  0  0  0  0  0  0  0  0  0  0  0
   -1.6419   -1.0580   -3.0847 C   0  0  0  0  0  0  0  0  0  0  0  0
   -1.2592   -2.0708   -3.0850 H   0  0  0  0  0  0  0  0  0  0  0  0
   -0.9851    1.3114    0.6698 C   0  0  0  0  0  0  0  0  0  0  0  0
   -2.0377    1.8431    0.3168 O   0  0  0  0  0  0  0  0  0  0  0  0
   -0.1052    1.9265    1.4663 N   0  0  0  0  0  0  0  0  0  0  0  0
    0.7810    1.4586    1.6201 H   0  0  0  0  0  0  0  0  0  0  0  0
   -0.2724    3.2715    2.0119 C   0  0  0  0  0  0  0  0  0  0  0  0
   -1.3249    3.4549    2.2426 H   0  0  0  0  0  0  0  0  0  0  0  0
    0.3167    3.3776    2.9239 H   0  0  0  0  0  0  0  0  0  0  0  0
    0.0609    4.0073    1.2782 H   0  0  0  0  0  0  0  0  0  0  0  0
  5  6  2  0  0  0  0
  5  7  1  0  0  0  0
  2  3  1  0  0  0  0
  2  4  1  0  0  0  0
  2  5  1  0  0  0  0
  1  2  1  0  0  0  0
 22 23  2  0  0  0  0
 22 24  1  0  0  0  0
 20 21  1  0  0  0  0
 18 19  1  0  0  0  0
 18 20  1  0  0  0  0
 16 17  1  0  0  0  0
 16 18  1  0  0  0  0
 15 16  2  0  0  0  0
 14 15  1  0  0  0  0
 14 20  2  0  0  0  0
 11 12  1  0  0  0  0
 11 13  1  0  0  0  0
 11 14  1  0  0  0  0
  9 10  1  0  0  0  0
  9 11  1  0  0  0  0
  9 22  1  0  0  0  0
  7  8  1  0  0  0  0
  7  9  1  0  0  0  0
 26 27  1  0  0  0  0
 26 28  1  0  0  0  0
 26 29  1  0  0  0  0
 24 25  1  0  0  0  0
 24 26  1  0  0  0  0
M  END
$$$$
default_name
  -OEChem-02102213163D

 29 29  0     1  0  0  0  0  0999 V2000
   -2.9561   -3.9186    1.3887 H   0  0  0  0  0  0  0  0  0  0  0  0
   -3.1191   -2.9346    0.9517 C   0  0  0  0  0  0  0  0  0  0  0  0
   -3.7811   -2.3546    1.5917 H   0  0  0  0  0  0  0  0  0  0  0  0
   -3.5591   -3.0406   -0.0383 H   0  0  0  0  0  0  0  0  0  0  0  0
   -1.7921   -2.2226    0.8327 C   0  0  0  0  0  0  0  0  0  0  0  0
   -0.7611   -2.7766    1.1927 O   0  0  0  0  0  0  0  0  0  0  0  0
   -1.8201   -0.9926    0.3247 N   0  0  0  0  0  0  0  0  0  0  0  0
   -2.7141   -0.5816    0.0927 H   0  0  0  0  0  0  0  0  0  0  0  0
   -0.6481   -0.1156    0.2017 C   0  0  1  0  0  0  0  0  0  0  0  0
    0.1344   -0.4988    0.8596 H   0  0  0  0  0  0  0  0  0  0  0  0
   -0.1211   -0.1520   -1.2460 C   0  0  0  0  0  0  0  0  0  0  0  0
    0.5603    0.6838   -1.4119 H   0  0  0  0  0  0  0  0  0  0  0  0
    0.4415   -1.0719   -1.4109 H   0  0  0  0  0  0  0  0  0  0  0  0
   -1.2212   -0.0448   -2.2737 C   0  0  0  0  0  0  0  0  0  0  0  0
   -1.7155    1.1396   -2.8217 N   0  0  0  0  0  0  0  0  0  0  0  0
   -2.6414    0.7729   -3.7197 C   0  0  0  0  0  0  0  0  0  0  0  0
   -3.2249    1.4638   -4.3151 H   0  0  0  0  0  0  0  0  0  0  0  0
   -2.7326   -0.5663   -3.7796 N   0  0  0  0  0  0  0  0  0  0  0  0
   -3.3447   -1.0854   -4.3942 H   0  0  0  0  0  0  0  0  0  0  0  0
   -1.8406   -1.1004   -2.8765 C   0  0  0  0  0  0  0  0  0  0  0  0
   -1.6408   -2.1471   -2.6846 H   0  0  0  0  0  0  0  0  0  0  0  0
   -0.9851    1.3114    0.6698 C   0  0  0  0  0  0  0  0  0  0  0  0
   -2.0377    1.8431    0.3168 O   0  0  0  0  0  0  0  0  0  0  0  0
   -0.1052    1.9265    1.4663 N   0  0  0  0  0  0  0  0  0  0  0  0
    0.7810    1.4586    1.6201 H   0  0  0  0  0  0  0  0  0  0  0  0
   -0.2724    3.2715    2.0119 C   0  0  0  0  0  0  0  0  0  0  0  0
   -1.3249    3.4549    2.2426 H   0  0  0  0  0  0  0  0  0  0  0  0
    0.3167    3.3776    2.9239 H   0  0  0  0  0  0  0  0  0  0  0  0
    0.0609    4.0073    1.2782 H   0  0  0  0  0  0  0  0  0  0  0  0
  5  6  2  0  0  0  0
  5  7  1  0  0  0  0
  2  3  1  0  0  0  0
  2  4  1  0  0  0  0
  2  5  1  0  0  0  0
  1  2  1  0  0  0  0
 22 23  2  0  0  0  0
 22 24  1  0  0  0  0
 20 21  1  0  0  0  0
 18 19  1  0  0  0  0
 18 20  1  0  0  0  0
 16 17  1  0  0  0  0
 16 18  1  0  0  0  0
 15 16  2  0  0  0  0
 14 15  1  0  0  0  0
 14 20  2  0  0  0  0
 11 12  1  0  0  0  0
 11 13  1  0  0  0  0
 11 14  1  0  0  0  0
  9 10  1  0  0  0  0
  9 11  1  0  0  0  0
  9 22  1  0  0  0  0
  7  8  1  0  0  0  0
  7  9  1  0  0  0  0
 26 27  1  0  0  0  0
 26 28  1  0  0  0  0
 26 29  1  0  0  0  0
 24 25  1  0  0  0  0
 24 26  1  0  0  0  0
M  END
$$$$
default_name
  -OEChem-02102213163D

 29 29  0     1  0  0  0  0  0999 V2000
   -2.9561   -3.9186    1.3887 H   0  0  0  0  0  0  0  0  0  0  0  0
   -3.1191   -2.9346    0.9517 C   0  0  0  0  0  0  0  0  0  0  0  0
   -3.7811   -2.3546    1.5917 H   0  0  0  0  0  0  0  0  0  0  0  0
   -3.5591   -3.0406   -0.0383 H   0  0  0  0  0  0  0  0  0  0  0  0
   -1.7921   -2.2226    0.8327 C   0  0  0  0  0  0  0  0  0  0  0  0
   -0.7611   -2.7766    1.1927 O   0  0  0  0  0  0  0  0  0  0  0  0
   -1.8201   -0.9926    0.3247 N   0  0  0  0  0  0  0  0  0  0  0  0
   -2.7141   -0.5816    0.0927 H   0  0  0  0  0  0  0  0  0  0  0  0
   -0.6481   -0.1156    0.2017 C   0  0  1  0  0  0  0  0  0  0  0  0
    0.1344   -0.4988    0.8596 H   0  0  0  0  0  0  0  0  0  0  0  0
   -0.1211   -0.1520   -1.2460 C   0  0  0  0  0  0  0  0  0  0  0  0
    0.5603    0.6838   -1.4119 H   0  0  0  0  0  0  0  0  0  0  0  0
    0.4415   -1.0719   -1.4109 H   0  0  0  0  0  0  0  0  0  0  0  0
   -1.2212   -0.0448   -2.2737 C   0  0  0  0  0  0  0  0  0  0  0  0
   -1.5203    1.0850   -3.0364 N   0  0  0  0  0  0  0  0  0  0  0  0
   -2.5271    0.7275   -3.8468 C   0  0  0  0  0  0  0  0  0  0  0  0
   -3.0017    1.3876   -4.5619 H   0  0  0  0  0  0  0  0  0  0  0  0
   -2.8526   -0.5612   -3.6506 N   0  0  0  0  0  0  0  0  0  0  0  0
   -3.5672   -1.0686   -4.1543 H   0  0  0  0  0  0  0  0  0  0  0  0
   -2.0361   -1.0671   -2.6637 C   0  0  0  0  0  0  0  0  0  0  0  0
   -2.0154   -2.0780   -2.2764 H   0  0  0  0  0  0  0  0  0  0  0  0
   -0.9851    1.3114    0.6698 C   0  0  0  0  0  0  0  0  0  0  0  0
   -2.0377    1.8431    0.3168 O   0  0  0  0  0  0  0  0  0  0  0  0
   -0.1052    1.9265    1.4663 N   0  0  0  0  0  0  0  0  0  0  0  0
    0.7810    1.4586    1.6201 H   0  0  0  0  0  0  0  0  0  0  0  0
   -0.2724    3.2715    2.0119 C   0  0  0  0  0  0  0  0  0  0  0  0
   -1.3249    3.4549    2.2426 H   0  0  0  0  0  0  0  0  0  0  0  0
    0.3167    3.3776    2.9239 H   0  0  0  0  0  0  0  0  0  0  0  0
    0.0609    4.0073    1.2782 H   0  0  0  0  0  0  0  0  0  0  0  0
  5  6  2  0  0  0  0
  5  7  1  0  0  0  0
  2  3  1  0  0  0  0
  2  4  1  0  0  0  0
  2  5  1  0  0  0  0
  1  2  1  0  0  0  0
 22 23  2  0  0  0  0
 22 24  1  0  0  0  0
 20 21  1  0  0  0  0
 18 19  1  0  0  0  0
 18 20  1  0  0  0  0
 16 17  1  0  0  0  0
 16 18  1  0  0  0  0
 15 16  2  0  0  0  0
 14 15  1  0  0  0  0
 14 20  2  0  0  0  0
 11 12  1  0  0  0  0
 11 13  1  0  0  0  0
 11 14  1  0  0  0  0
  9 10  1  0  0  0  0
  9 11  1  0  0  0  0
  9 22  1  0  0  0  0
  7  8  1  0  0  0  0
  7  9  1  0  0  0  0
 26 27  1  0  0  0  0
 26 28  1  0  0  0  0
 26 29  1  0  0  0  0
 24 25  1  0  0  0  0
 24 26  1  0  0  0  0
M  END
$$$$
default_name
  -OEChem-02102213163D

 29 29  0     1  0  0  0  0  0999 V2000
   -2.9561   -3.9186    1.3887 H   0  0  0  0  0  0  0  0  0  0  0  0
   -3.1191   -2.9346    0.9517 C   0  0  0  0  0  0  0  0  0  0  0  0
   -3.7811   -2.3546    1.5917 H   0  0  0  0  0  0  0  0  0  0  0  0
   -3.5591   -3.0406   -0.0383 H   0  0  0  0  0  0  0  0  0  0  0  0
   -1.7921   -2.2226    0.8327 C   0  0  0  0  0  0  0  0  0  0  0  0
   -0.7611   -2.7766    1.1927 O   0  0  0  0  0  0  0  0  0  0  0  0
   -1.8201   -0.9926    0.3247 N   0  0  0  0  0  0  0  0  0  0  0  0
   -2.7141   -0.5816    0.0927 H   0  0  0  0  0  0  0  0  0  0  0  0
   -0.6481   -0.1156    0.2017 C   0  0  1  0  0  0  0  0  0  0  0  0
    0.1344   -0.4988    0.8596 H   0  0  0  0  0  0  0  0  0  0  0  0
   -0.1211   -0.1520   -1.2460 C   0  0  0  0  0  0  0  0  0  0  0  0
    0.5603    0.6838   -1.4119 H   0  0  0  0  0  0  0  0  0  0  0  0
    0.4415   -1.0719   -1.4109 H   0  0  0  0  0  0  0  0  0  0  0  0
   -1.2212   -0.0448   -2.2737 C   0  0  0  0  0  0  0  0  0  0  0  0
   -1.3453    0.9573   -3.2370 N   0  0  0  0  0  0  0  0  0  0  0  0
   -2.4270    0.6396   -3.9631 C   0  0  0  0  0  0  0  0  0  0  0  0
   -2.8041    1.2280   -4.7901 H   0  0  0  0  0  0  0  0  0  0  0  0
   -2.9653   -0.5108   -3.5247 N   0  0  0  0  0  0  0  0  0  0  0  0
   -3.7747   -0.9680   -3.9217 H   0  0  0  0  0  0  0  0  0  0  0  0
   -2.2153   -0.9603   -2.4608 C   0  0  0  0  0  0  0  0  0  0  0  0
   -2.3575   -1.8682   -1.8882 H   0  0  0  0  0  0  0  0  0  0  0  0
   -0.9851    1.3114    0.6698 C   0  0  0  0  0  0  0  0  0  0  0  0
   -2.0377    1.8431    0.3168 O   0  0  0  0  0  0  0  0  0  0  0  0
   -0.1052    1.9265    1.4663 N   0  0  0  0  0  0  0  0  0  0  0  0
    0.7810    1.4586    1.6201 H   0  0  0  0  0  0  0  0  0  0  0  0
   -0.2724    3.2715    2.0119 C   0  0  0  0  0  0  0  0  0  0  0  0
   -1.3249    3.4549    2.2426 H   0  0  0  0  0  0  0  0  0  0  0  0
    0.3167    3.3776    2.9239 H   0  0  0  0  0  0  0  0  0  0  0  0
    0.0609    4.0073    1.2782 H   0  0  0  0  0  0  0  0  0  0  0  0
  5  6  2  0  0  0  0
  5  7  1  0  0  0  0
  2  3  1  0  0  0  0
  2  4  1  0  0  0  0
  2  5  1  0  0  0  0
  1  2  1  0  0  0  0
 22 23  2  0  0  0  0
 22 24  1  0  0  0  0
 20 21  1  0  0  0  0
 18 19  1  0  0  0  0
 18 20  1  0  0  0  0
 16 17  1  0  0  0  0
 16 18  1  0  0  0  0
 15 16  2  0  0  0  0
 14 15  1  0  0  0  0
 14 20  2  0  0  0  0
 11 12  1  0  0  0  0
 11 13  1  0  0  0  0
 11 14  1  0  0  0  0
  9 10  1  0  0  0  0
  9 11  1  0  0  0  0
  9 22  1  0  0  0  0
  7  8  1  0  0  0  0
  7  9  1  0  0  0  0
 26 27  1  0  0  0  0
 26 28  1  0  0  0  0
 26 29  1  0  0  0  0
 24 25  1  0  0  0  0
 24 26  1  0  0  0  0
M  END
$$$$
default_name
  -OEChem-02102213163D

 29 29  0     1  0  0  0  0  0999 V2000
   -2.9561   -3.9186    1.3887 H   0  0  0  0  0  0  0  0  0  0  0  0
   -3.1191   -2.9346    0.9517 C   0  0  0  0  0  0  0  0  0  0  0  0
   -3.7811   -2.3546    1.5917 H   0  0  0  0  0  0  0  0  0  0  0  0
   -3.5591   -3.0406   -0.0383 H   0  0  0  0  0  0  0  0  0  0  0  0
   -1.7921   -2.2226    0.8327 C   0  0  0  0  0  0  0  0  0  0  0  0
   -0.7611   -2.7766    1.1927 O   0  0  0  0  0  0  0  0  0  0  0  0
   -1.8201   -0.9926    0.3247 N   0  0  0  0  0  0  0  0  0  0  0  0
   -2.7141   -0.5816    0.0927 H   0  0  0  0  0  0  0  0  0  0  0  0
   -0.6481   -0.1156    0.2017 C   0  0  1  0  0  0  0  0  0  0  0  0
    0.1344   -0.4988    0.8596 H   0  0  0  0  0  0  0  0  0  0  0  0
   -0.1211   -0.1520   -1.2460 C   0  0  0  0  0  0  0  0  0  0  0  0
    0.5603    0.6838   -1.4119 H   0  0  0  0  0  0  0  0  0  0  0  0
    0.4415   -1.0719   -1.4109 H   0  0  0  0  0  0  0  0  0  0  0  0
   -1.2212   -0.0448   -2.2737 C   0  0  0  0  0  0  0  0  0  0  0  0
   -1.2025    0.7653   -3.4099 N   0  0  0  0  0  0  0  0  0  0  0  0
   -2.3480    0.5152   -4.0607 C   0  0  0  0  0  0  0  0  0  0  0  0
   -2.6456    0.9961   -4.9840 H   0  0  0  0  0  0  0  0  0  0  0  0
   -3.0629   -0.4185   -3.4106 N   0  0  0  0  0  0  0  0  0  0  0  0
   -3.9532   -0.7903   -3.7121 H   0  0  0  0  0  0  0  0  0  0  0  0
   -2.3657   -0.7873   -2.2817 C   0  0  0  0  0  0  0  0  0  0  0  0
   -2.6439   -1.5320   -1.5466 H   0  0  0  0  0  0  0  0  0  0  0  0
   -0.9851    1.3114    0.6698 C   0  0  0  0  0  0  0  0  0  0  0  0
   -2.0377    1.8431    0.3168 O   0  0  0  0  0  0  0  0  0  0  0  0
   -0.1052    1.9265    1.4663 N   0  0  0  0  0  0  0  0  0  0  0  0
    0.7810    1.4586    1.6201 H   0  0  0  0  0  0  0  0  0  0  0  0
   -0.2724    3.2715    2.0119 C   0  0  0  0  0  0  0  0  0  0  0  0
   -1.3249    3.4549    2.2426 H   0  0  0  0  0  0  0  0  0  0  0  0
    0.3167    3.3776    2.9239 H   0  0  0  0  0  0  0  0  0  0  0  0
    0.0609    4.0073    1.2782 H   0  0  0  0  0  0  0  0  0  0  0  0
  5  6  2  0  0  0  0
  5  7  1  0  0  0  0
  2  3  1  0  0  0  0
  2  4  1  0  0  0  0
  2  5  1  0  0  0  0
  1  2  1  0  0  0  0
 22 23  2  0  0  0  0
 22 24  1  0  0  0  0
 20 21  1  0  0  0  0
 18 19  1  0  0  0  0
 18 20  1  0  0  0  0
 16 17  1  0  0  0  0
 16 18  1  0  0  0  0
 15 16  2  0  0  0  0
 14 15  1  0  0  0  0
 14 20  2  0  0  0  0
 11 12  1  0  0  0  0
 11 13  1  0  0  0  0
 11 14  1  0  0  0  0
  9 10  1  0  0  0  0
  9 11  1  0  0  0  0
  9 22  1  0  0  0  0
  7  8  1  0  0  0  0
  7  9  1  0  0  0  0
 26 27  1  0  0  0  0
 26 28  1  0  0  0  0
 26 29  1  0  0  0  0
 24 25  1  0  0  0  0
 24 26  1  0  0  0  0
M  END
$$$$
default_name
  -OEChem-02102213163D

 29 29  0     1  0  0  0  0  0999 V2000
   -2.9561   -3.9186    1.3887 H   0  0  0  0  0  0  0  0  0  0  0  0
   -3.1191   -2.9346    0.9517 C   0  0  0  0  0  0  0  0  0  0  0  0
   -3.7811   -2.3546    1.5917 H   0  0  0  0  0  0  0  0  0  0  0  0
   -3.5591   -3.0406   -0.0383 H   0  0  0  0  0  0  0  0  0  0  0  0
   -1.7921   -2.2226    0.8327 C   0  0  0  0  0  0  0  0  0  0  0  0
   -0.7611   -2.7766    1.1927 O   0  0  0  0  0  0  0  0  0  0  0  0
   -1.8201   -0.9926    0.3247 N   0  0  0  0  0  0  0  0  0  0  0  0
   -2.7141   -0.5816    0.0927 H   0  0  0  0  0  0  0  0  0  0  0  0
   -0.6481   -0.1156    0.2017 C   0  0  1  0  0  0  0  0  0  0  0  0
    0.1344   -0.4988    0.8596 H   0  0  0  0  0  0  0  0  0  0  0  0
   -0.1211   -0.1520   -1.2460 C   0  0  0  0  0  0  0  0  0  0  0  0
    0.5603    0.6838   -1.4119 H   0  0  0  0  0  0  0  0  0  0  0  0
    0.4415   -1.0719   -1.4109 H   0  0  0  0  0  0  0  0  0  0  0  0
   -1.2212   -0.0448   -2.2737 C   0  0  0  0  0  0  0  0  0  0  0  0
   -1.1015    0.5220   -3.5433 N   0  0  0  0  0  0  0  0  0  0  0  0
   -2.2954    0.3626   -4.1329 C   0  0  0  0  0  0  0  0  0  0  0  0
   -2.5369    0.7075   -5.1304 H   0  0  0  0  0  0  0  0  0  0  0  0
   -3.1388   -0.2906   -3.3160 N   0  0  0  0  0  0  0  0  0  0  0  0
   -4.0904   -0.5477   -3.5399 H   0  0  0  0  0  0  0  0  0  0  0  0
   -2.4773   -0.5599   -2.1386 C   0  0  0  0  0  0  0  0  0  0  0  0
   -2.8550   -1.0924   -1.2748 H   0  0  0  0  0  0  0  0  0  0  0  0
   -0.9851    1.3114    0.6698 C   0  0  0  0  0  0  0  0  0  0  0  0
   -2.0377    1.8431    0.3168 O   0  0  0  0  0  0  0  0  0  0  0  0
   -0.1052    1.9265    1.4663 N   0  0  0  0  0  0  0  0  0  0  0  0
    0.7810    1.4586    1.6201 H   0  0  0  0  0  0  0  0  0  0  0  0
   -0.2724    3.2715    2.0119 C   0  0  0  0  0  0  0  0  0  0  0  0
   -1.3249    3.4549    2.2426 H   0  0  0  0  0  0  0  0  0  0  0  0
    0.3167    3.3776    2.9239 H   0  0  0  0  0  0  0  0  0  0  0  0
    0.0609    4.0073    1.2782 H   0  0  0  0  0  0  0  0  0  0  0  0
  5  6  2  0  0  0  0
  5  7  1  0  0  0  0
  2  3  1  0  0  0  0
  2  4  1  0  0  0  0
  2  5  1  0  0  0  0
  1  2  1  0  0  0  0
 22 23  2  0  0  0  0
 22 24  1  0  0  0  0
 20 21  1  0  0  0  0
 18 19  1  0  0  0  0
 18 20  1  0  0  0  0
 16 17  1  0  0  0  0
 16 18  1  0  0  0  0
 15 16  2  0  0  0  0
 14 15  1  0  0  0  0
 14 20  2  0  0  0  0
 11 12  1  0  0  0  0
 11 13  1  0  0  0  0
 11 14  1  0  0  0  0
  9 10  1  0  0  0  0
  9 11  1  0  0  0  0
  9 22  1  0  0  0  0
  7  8  1  0  0  0  0
  7  9  1  0  0  0  0
 26 27  1  0  0  0  0
 26 28  1  0  0  0  0
 26 29  1  0  0  0  0
 24 25  1  0  0  0  0
 24 26  1  0  0  0  0
M  END
$$$$
default_name
  -OEChem-02102213163D

 29 29  0     1  0  0  0  0  0999 V2000
   -2.9561   -3.9186    1.3887 H   0  0  0  0  0  0  0  0  0  0  0  0
   -3.1191   -2.9346    0.9517 C   0  0  0  0  0  0  0  0  0  0  0  0
   -3.7811   -2.3546    1.5917 H   0  0  0  0  0  0  0  0  0  0  0  0
   -3.5591   -3.0406   -0.0383 H   0  0  0  0  0  0  0  0  0  0  0  0
   -1.7921   -2.2226    0.8327 C   0  0  0  0  0  0  0  0  0  0  0  0
   -0.7611   -2.7766    1.1927 O   0  0  0  0  0  0  0  0  0  0  0  0
   -1.8201   -0.9926    0.3247 N   0  0  0  0  0  0  0  0  0  0  0  0
   -2.7141   -0.5816    0.0927 H   0  0  0  0  0  0  0  0  0  0  0  0
   -0.6481   -0.1156    0.2017 C   0  0  1  0  0  0  0  0  0  0  0  0
    0.1344   -0.4988    0.8596 H   0  0  0  0  0  0  0  0  0  0  0  0
   -0.1211   -0.1520   -1.2460 C   0  0  0  0  0  0  0  0  0  0  0  0
    0.5603    0.6838   -1.4119 H   0  0  0  0  0  0  0  0  0  0  0  0
    0.4415   -1.0719   -1.4109 H   0  0  0  0  0  0  0  0  0  0  0  0
   -1.2212   -0.0448   -2.2737 C   0  0  0  0  0  0  0  0  0  0  0  0
   -1.0494    0.2441   -3.6281 N   0  0  0  0  0  0  0  0  0  0  0  0
   -2.2727    0.1923   -4.1749 C   0  0  0  0  0  0  0  0  0  0  0  0
   -2.4854    0.3820   -5.2194 H   0  0  0  0  0  0  0  0  0  0  0  0
   -3.1878   -0.1358   -3.2474 N   0  0  0  0  0  0  0  0  0  0  0  0
   -4.1770   -0.2567   -3.4169 H   0  0  0  0  0  0  0  0  0  0  0  0
   -2.5423   -0.2936   -2.0412 C   0  0  0  0  0  0  0  0  0  0  0  0
   -2.9765   -0.5792   -1.0913 H   0  0  0  0  0  0  0  0  0  0  0  0
   -0.9851    1.3114    0.6698 C   0  0  0  0  0  0  0  0  0  0  0  0
   -2.0377    1.8431    0.3168 O   0  0  0  0  0  0  0  0  0  0  0  0
   -0.1052    1.9265    1.4663 N   0  0  0  0  0  0  0  0  0  0  0  0
    0.7810    1.4586    1.6201 H   0  0  0  0  0  0  0  0  0  0  0  0
   -0.2724    3.2715    2.0119 C   0  0  0  0  0  0  0  0  0  0  0  0
   -1.3249    3.4549    2.2426 H   0  0  0  0  0  0  0  0  0  0  0  0
    0.3167    3.3776    2.9239 H   0  0  0  0  0  0  0  0  0  0  0  0
    0.0609    4.0073    1.2782 H   0  0  0  0  0  0  0  0  0  0  0  0
  5  6  2  0  0  0  0
  5  7  1  0  0  0  0
  2  3  1  0  0  0  0
  2  4  1  0  0  0  0
  2  5  1  0  0  0  0
  1  2  1  0  0  0  0
 22 23  2  0  0  0  0
 22 24  1  0  0  0  0
 20 21  1  0  0  0  0
 18 19  1  0  0  0  0
 18 20  1  0  0  0  0
 16 17  1  0  0  0  0
 16 18  1  0  0  0  0
 15 16  2  0  0  0  0
 14 15  1  0  0  0  0
 14 20  2  0  0  0  0
 11 12  1  0  0  0  0
 11 13  1  0  0  0  0
 11 14  1  0  0  0  0
  9 10  1  0  0  0  0
  9 11  1  0  0  0  0
  9 22  1  0  0  0  0
  7  8  1  0  0  0  0
  7  9  1  0  0  0  0
 26 27  1  0  0  0  0
 26 28  1  0  0  0  0
 26 29  1  0  0  0  0
 24 25  1  0  0  0  0
 24 26  1  0  0  0  0
M  END
$$$$
default_name
  -OEChem-02102213163D

 29 29  0     1  0  0  0  0  0999 V2000
   -2.9561   -3.9186    1.3887 H   0  0  0  0  0  0  0  0  0  0  0  0
   -3.1191   -2.9346    0.9517 C   0  0  0  0  0  0  0  0  0  0  0  0
   -3.7811   -2.3546    1.5917 H   0  0  0  0  0  0  0  0  0  0  0  0
   -3.5591   -3.0406   -0.0383 H   0  0  0  0  0  0  0  0  0  0  0  0
   -1.7921   -2.2226    0.8327 C   0  0  0  0  0  0  0  0  0  0  0  0
   -0.7611   -2.7766    1.1927 O   0  0  0  0  0  0  0  0  0  0  0  0
   -1.8201   -0.9926    0.3247 N   0  0  0  0  0  0  0  0  0  0  0  0
   -2.7141   -0.5816    0.0927 H   0  0  0  0  0  0  0  0  0  0  0  0
   -0.6481   -0.1156    0.2017 C   0  0  1  0  0  0  0  0  0  0  0  0
    0.1344   -0.4988    0.8596 H   0  0  0  0  0  0  0  0  0  0  0  0
   -0.1211   -0.1520   -1.2460 C   0  0  0  0  0  0  0  0  0  0  0  0
    0.7456    0.5040   -1.3400 H   0  0  0  0  0  0  0  0  0  0  0  0
    0.2040   -1.1630   -1.4951 H   0  0  0  0  0  0  0  0  0  0  0  0
   -1.1446    0.3096   -2.2547 C   0  0  0  0  0  0  0  0  0  0  0  0
   -0.9556    0.3847   -3.6353 N   0  0  0  0  0  0  0  0  0  0  0  0
   -2.1258    0.7939   -4.1465 C   0  0  0  0  0  0  0  0  0  0  0  0
   -2.3081    0.9638   -5.2002 H   0  0  0  0  0  0  0  0  0  0  0  0
   -3.0349    0.9523   -3.1699 N   0  0  0  0  0  0  0  0  0  0  0  0
   -3.9961    1.2349   -3.3039 H   0  0  0  0  0  0  0  0  0  0  0  0
   -2.4350    0.6472   -1.9684 C   0  0  0  0  0  0  0  0  0  0  0  0
   -2.8872    0.6481   -0.9845 H   0  0  0  0  0  0  0  0  0  0  0  0
   -0.9851    1.3114    0.6698 C   0  0  0  0  0  0  0  0  0  0  0  0
   -2.0377    1.8431    0.3168 O   0  0  0  0  0  0  0  0  0  0  0  0
   -0.1052    1.9265    1.4663 N   0  0  0  0  0  0  0  0  0  0  0  0
    0.7810    1.4586    1.6201 H   0  0  0  0  0  0  0  0  0  0  0  0
   -0.2724    3.2715    2.0119 C   0  0  0  0  0  0  0  0  0  0  0  0
   -1.3249    3.4549    2.2426 H   0  0  0  0  0  0  0  0  0  0  0  0
    0.3167    3.3776    2.9239 H   0  0  0  0  0  0  0  0  0  0  0  0
    0.0609    4.0073    1.2782 H   0  0  0  0  0  0  0  0  0  0  0  0
  5  6  2  0  0  0  0
  5  7  1  0  0  0  0
  2  3  1  0  0  0  0
  2  4  1  0  0  0  0
  2  5  1  0  0  0  0
  1  2  1  0  0  0  0
 22 23  2  0  0  0  0
 22 24  1  0  0  0  0
 20 21  1  0  0  0  0
 18 19  1  0  0  0  0
 18 20  1  0  0  0  0
 16 17  1  0  0  0  0
 16 18  1  0  0  0  0
 15 16  2  0  0  0  0
 14 15  1  0  0  0  0
 14 20  2  0  0  0  0
 11 12  1  0  0  0  0
 11 13  1  0  0  0  0
 11 14  1  0  0  0  0
  9 10  1  0  0  0  0
  9 11  1  0  0  0  0
  9 22  1  0  0  0  0
  7  8  1  0  0  0  0
  7  9  1  0  0  0  0
 26 27  1  0  0  0  0
 26 28  1  0  0  0  0
 26 29  1  0  0  0  0
 24 25  1  0  0  0  0
 24 26  1  0  0  0  0
M  END
$$$$
default_name
  -OEChem-02102213163D

 29 29  0     1  0  0  0  0  0999 V2000
   -2.9561   -3.9186    1.3887 H   0  0  0  0  0  0  0  0  0  0  0  0
   -3.1191   -2.9346    0.9517 C   0  0  0  0  0  0  0  0  0  0  0  0
   -3.7811   -2.3546    1.5917 H   0  0  0  0  0  0  0  0  0  0  0  0
   -3.5591   -3.0406   -0.0383 H   0  0  0  0  0  0  0  0  0  0  0  0
   -1.7921   -2.2226    0.8327 C   0  0  0  0  0  0  0  0  0  0  0  0
   -0.7611   -2.7766    1.1927 O   0  0  0  0  0  0  0  0  0  0  0  0
   -1.8201   -0.9926    0.3247 N   0  0  0  0  0  0  0  0  0  0  0  0
   -2.7141   -0.5816    0.0927 H   0  0  0  0  0  0  0  0  0  0  0  0
   -0.6481   -0.1156    0.2017 C   0  0  1  0  0  0  0  0  0  0  0  0
    0.1344   -0.4988    0.8596 H   0  0  0  0  0  0  0  0  0  0  0  0
   -0.1211   -0.1520   -1.2460 C   0  0  0  0  0  0  0  0  0  0  0  0
    0.7456    0.5040   -1.3400 H   0  0  0  0  0  0  0  0  0  0  0  0
    0.2040   -1.1630   -1.4951 H   0  0  0  0  0  0  0  0  0  0  0  0
   -1.1446    0.3096   -2.2547 C   0  0  0  0  0  0  0  0  0  0  0  0
   -1.0772    0.1156   -3.6350 N   0  0  0  0  0  0  0  0  0  0  0  0
   -2.2063    0.6368   -4.1367 C   0  0  0  0  0  0  0  0  0  0  0  0
   -2.4567    0.6567   -5.1899 H   0  0  0  0  0  0  0  0  0  0  0  0
   -2.9800    1.1185   -3.1495 N   0  0  0  0  0  0  0  0  0  0  0  0
   -3.8894    1.5429   -3.2713 H   0  0  0  0  0  0  0  0  0  0  0  0
   -2.3282    0.9174   -1.9532 C   0  0  0  0  0  0  0  0  0  0  0  0
   -2.6788    1.1655   -0.9593 H   0  0  0  0  0  0  0  0  0  0  0  0
   -0.9851    1.3114    0.6698 C   0  0  0  0  0  0  0  0  0  0  0  0
   -2.0377    1.8431    0.3168 O   0  0  0  0  0  0  0  0  0  0  0  0
   -0.1052    1.9265    1.4663 N   0  0  0  0  0  0  0  0  0  0  0  0
    0.7810    1.4586    1.6201 H   0  0  0  0  0  0  0  0  0  0  0  0
   -0.2724    3.2715    2.0119 C   0  0  0  0  0  0  0  0  0  0  0  0
   -1.3249    3.4549    2.2426 H   0  0  0  0  0  0  0  0  0  0  0  0
    0.3167    3.3776    2.9239 H   0  0  0  0  0  0  0  0  0  0  0  0
    0.0609    4.0073    1.2782 H   0  0  0  0  0  0  0  0  0  0  0  0
  5  6  2  0  0  0  0
  5  7  1  0  0  0  0
  2  3  1  0  0  0  0
  2  4  1  0  0  0  0
  2  5  1  0  0  0  0
  1  2  1  0  0  0  0
 22 23  2  0  0  0  0
 22 24  1  0  0  0  0
 20 21  1  0  0  0  0
 18 19  1  0  0  0  0
 18 20  1  0  0  0  0
 16 17  1  0  0  0  0
 16 18  1  0  0  0  0
 15 16  2  0  0  0  0
 14 15  1  0  0  0  0
 14 20  2  0  0  0  0
 11 12  1  0  0  0  0
 11 13  1  0  0  0  0
 11 14  1  0  0  0  0
  9 10  1  0  0  0  0
  9 11  1  0  0  0  0
  9 22  1  0  0  0  0
  7  8  1  0  0  0  0
  7  9  1  0  0  0  0
 26 27  1  0  0  0  0
 26 28  1  0  0  0  0
 26 29  1  0  0  0  0
 24 25  1  0  0  0  0
 24 26  1  0  0  0  0
M  END
$$$$
default_name
  -OEChem-02102213163D

 29 29  0     1  0  0  0  0  0999 V2000
   -2.9561   -3.9186    1.3887 H   0  0  0  0  0  0  0  0  0  0  0  0
   -3.1191   -2.9346    0.9517 C   0  0  0  0  0  0  0  0  0  0  0  0
   -3.7811   -2.3546    1.5917 H   0  0  0  0  0  0  0  0  0  0  0  0
   -3.5591   -3.0406   -0.0383 H   0  0  0  0  0  0  0  0  0  0  0  0
   -1.7921   -2.2226    0.8327 C   0  0  0  0  0  0  0  0  0  0  0  0
   -0.7611   -2.7766    1.1927 O   0  0  0  0  0  0  0  0  0  0  0  0
   -1.8201   -0.9926    0.3247 N   0  0  0  0  0  0  0  0  0  0  0  0
   -2.7141   -0.5816    0.0927 H   0  0  0  0  0  0  0  0  0  0  0  0
   -0.6481   -0.1156    0.2017 C   0  0  1  0  0  0  0  0  0  0  0  0
    0.1344   -0.4988    0.8596 H   0  0  0  0  0  0  0  0  0  0  0  0
   -0.1211   -0.1520   -1.2460 C   0  0  0  0  0  0  0  0  0  0  0  0
    0.7456    0.5040   -1.3400 H   0  0  0  0  0  0  0  0  0  0  0  0
    0.2040   -1.1630   -1.4951 H   0  0  0  0  0  0  0  0  0  0  0  0
   -1.1446    0.3096   -2.2547 C   0  0  0  0  0  0  0  0  0  0  0  0
   -1.2411   -0.1231   -3.5779 N   0  0  0  0  0  0  0  0  0  0  0  0
   -2.3105    0.5007   -4.0933 C   0  0  0  0  0  0  0  0  0  0  0  0
   -2.6526    0.3875   -5.1143 H   0  0  0  0  0  0  0  0  0  0  0  0
   -2.8966    1.2732   -3.1633 N   0  0  0  0  0  0  0  0  0  0  0  0
   -3.7304    1.8276   -3.3024 H   0  0  0  0  0  0  0  0  0  0  0  0
   -2.1770    1.1625   -1.9944 C   0  0  0  0  0  0  0  0  0  0  0  0
   -2.3860    1.6336   -1.0421 H   0  0  0  0  0  0  0  0  0  0  0  0
   -0.9851    1.3114    0.6698 C   0  0  0  0  0  0  0  0  0  0  0  0
   -2.0377    1.8431    0.3168 O   0  0  0  0  0  0  0  0  0  0  0  0
   -0.1052    1.9265    1.4663 N   0  0  0  0  0  0  0  0  0  0  0  0
    0.7810    1.4586    1.6201 H   0  0  0  0  0  0  0  0  0  0  0  0
   -0.2724    3.2715    2.0119 C   0  0  0  0  0  0  0  0  0  0  0  0
   -1.3249    3.4549    2.2426 H   0  0  0  0  0  0  0  0  0  0  0  0
    0.3167    3.3776    2.9239 H   0  0  0  0  0  0  0  0  0  0  0  0
    0.0609    4.0073    1.2782 H   0  0  0  0  0  0  0  0  0  0  0  0
  5  6  2  0  0  0  0
  5  7  1  0  0  0  0
  2  3  1  0  0  0  0
  2  4  1  0  0  0  0
  2  5  1  0  0  0  0
  1  2  1  0  0  0  0
 22 23  2  0  0  0  0
 22 24  1  0  0  0  0
 20 21  1  0  0  0  0
 18 19  1  0  0  0  0
 18 20  1  0  0  0  0
 16 17  1  0  0  0  0
 16 18  1  0  0  0  0
 15 16  2  0  0  0  0
 14 15  1  0  0  0  0
 14 20  2  0  0  0  0
 11 12  1  0  0  0  0
 11 13  1  0  0  0  0
 11 14  1  0  0  0  0
  9 10  1  0  0  0  0
  9 11  1  0  0  0  0
  9 22  1  0  0  0  0
  7  8  1  0  0  0  0
  7  9  1  0  0  0  0
 26 27  1  0  0  0  0
 26 28  1  0  0  0  0
 26 29  1  0  0  0  0
 24 25  1  0  0  0  0
 24 26  1  0  0  0  0
M  END
$$$$
default_name
  -OEChem-02102213163D

 29 29  0     1  0  0  0  0  0999 V2000
   -2.9561   -3.9186    1.3887 H   0  0  0  0  0  0  0  0  0  0  0  0
   -3.1191   -2.9346    0.9517 C   0  0  0  0  0  0  0  0  0  0  0  0
   -3.7811   -2.3546    1.5917 H   0  0  0  0  0  0  0  0  0  0  0  0
   -3.5591   -3.0406   -0.0383 H   0  0  0  0  0  0  0  0  0  0  0  0
   -1.7921   -2.2226    0.8327 C   0  0  0  0  0  0  0  0  0  0  0  0
   -0.7611   -2.7766    1.1927 O   0  0  0  0  0  0  0  0  0  0  0  0
   -1.8201   -0.9926    0.3247 N   0  0  0  0  0  0  0  0  0  0  0  0
   -2.7141   -0.5816    0.0927 H   0  0  0  0  0  0  0  0  0  0  0  0
   -0.6481   -0.1156    0.2017 C   0  0  1  0  0  0  0  0  0  0  0  0
    0.1344   -0.4988    0.8596 H   0  0  0  0  0  0  0  0  0  0  0  0
   -0.1211   -0.1520   -1.2460 C   0  0  0  0  0  0  0  0  0  0  0  0
    0.7456    0.5040   -1.3400 H   0  0  0  0  0  0  0  0  0  0  0  0
    0.2040   -1.1630   -1.4951 H   0  0  0  0  0  0  0  0  0  0  0  0
   -1.1446    0.3096   -2.2547 C   0  0  0  0  0  0  0  0  0  0  0  0
   -1.4363   -0.3154   -3.4679 N   0  0  0  0  0  0  0  0  0  0  0  0
   -2.4312    0.3948   -4.0193 C   0  0  0  0  0  0  0  0  0  0  0  0
   -2.8824    0.1747   -4.9786 H   0  0  0  0  0  0  0  0  0  0  0  0
   -2.7905    1.4057   -3.2104 N   0  0  0  0  0  0  0  0  0  0  0  0
   -3.5300    2.0697   -3.3949 H   0  0  0  0  0  0  0  0  0  0  0  0
   -1.9919    1.3659   -2.0891 C   0  0  0  0  0  0  0  0  0  0  0  0
   -2.0288    2.0206   -1.2275 H   0  0  0  0  0  0  0  0  0  0  0  0
   -0.9851    1.3114    0.6698 C   0  0  0  0  0  0  0  0  0  0  0  0
   -2.0377    1.8431    0.3168 O   0  0  0  0  0  0  0  0  0  0  0  0
   -0.1052    1.9265    1.4663 N   0  0  0  0  0  0  0  0  0  0  0  0
    0.7810    1.4586    1.6201 H   0  0  0  0  0  0  0  0  0  0  0  0
   -0.2724    3.2715    2.0119 C   0  0  0  0  0  0  0  0  0  0  0  0
   -1.3249    3.4549    2.2426 H   0  0  0  0  0  0  0  0  0  0  0  0
    0.3167    3.3776    2.9239 H   0  0  0  0  0  0  0  0  0  0  0  0
    0.0609    4.0073    1.2782 H   0  0  0  0  0  0  0  0  0  0  0  0
  5  6  2  0  0  0  0
  5  7  1  0  0  0  0
  2  3  1  0  0  0  0
  2  4  1  0  0  0  0
  2  5  1  0  0  0  0
  1  2  1  0  0  0  0
 22 23  2  0  0  0  0
 22 24  1  0  0  0  0
 20 21  1  0  0  0  0
 18 19  1  0  0  0  0
 18 20  1  0  0  0  0
 16 17  1  0  0  0  0
 16 18  1  0  0  0  0
 15 16  2  0  0  0  0
 14 15  1  0  0  0  0
 14 20  2  0  0  0  0
 11 12  1  0  0  0  0
 11 13  1  0  0  0  0
 11 14  1  0  0  0  0
  9 10  1  0  0  0  0
  9 11  1  0  0  0  0
  9 22  1  0  0  0  0
  7  8  1  0  0  0  0
  7  9  1  0  0  0  0
 26 27  1  0  0  0  0
 26 28  1  0  0  0  0
 26 29  1  0  0  0  0
 24 25  1  0  0  0  0
 24 26  1  0  0  0  0
M  END
$$$$
default_name
  -OEChem-02102213163D

 29 29  0     1  0  0  0  0  0999 V2000
   -2.9561   -3.9186    1.3887 H   0  0  0  0  0  0  0  0  0  0  0  0
   -3.1191   -2.9346    0.9517 C   0  0  0  0  0  0  0  0  0  0  0  0
   -3.7811   -2.3546    1.5917 H   0  0  0  0  0  0  0  0  0  0  0  0
   -3.5591   -3.0406   -0.0383 H   0  0  0  0  0  0  0  0  0  0  0  0
   -1.7921   -2.2226    0.8327 C   0  0  0  0  0  0  0  0  0  0  0  0
   -0.7611   -2.7766    1.1927 O   0  0  0  0  0  0  0  0  0  0  0  0
   -1.8201   -0.9926    0.3247 N   0  0  0  0  0  0  0  0  0  0  0  0
   -2.7141   -0.5816    0.0927 H   0  0  0  0  0  0  0  0  0  0  0  0
   -0.6481   -0.1156    0.2017 C   0  0  1  0  0  0  0  0  0  0  0  0
    0.1344   -0.4988    0.8596 H   0  0  0  0  0  0  0  0  0  0  0  0
   -0.1211   -0.1520   -1.2460 C   0  0  0  0  0  0  0  0  0  0  0  0
    0.7456    0.5040   -1.3400 H   0  0  0  0  0  0  0  0  0  0  0  0
    0.2040   -1.1630   -1.4951 H   0  0  0  0  0  0  0  0  0  0  0  0
   -1.1446    0.3096   -2.2547 C   0  0  0  0  0  0  0  0  0  0  0  0
   -1.6494   -0.4480   -3.3124 N   0  0  0  0  0  0  0  0  0  0  0  0
   -2.5603    0.3264   -3.9196 C   0  0  0  0  0  0  0  0  0  0  0  0
   -3.1304    0.0326   -4.7919 H   0  0  0  0  0  0  0  0  0  0  0  0
   -2.6687    1.5071   -3.2876 N   0  0  0  0  0  0  0  0  0  0  0  0
   -3.3019    2.2527   -3.5426 H   0  0  0  0  0  0  0  0  0  0  0  0
   -1.7853    1.5138   -2.2310 C   0  0  0  0  0  0  0  0  0  0  0  0
   -1.6315    2.3001   -1.5028 H   0  0  0  0  0  0  0  0  0  0  0  0
   -0.9851    1.3114    0.6698 C   0  0  0  0  0  0  0  0  0  0  0  0
   -2.0377    1.8431    0.3168 O   0  0  0  0  0  0  0  0  0  0  0  0
   -0.1052    1.9265    1.4663 N   0  0  0  0  0  0  0  0  0  0  0  0
    0.7810    1.4586    1.6201 H   0  0  0  0  0  0  0  0  0  0  0  0
   -0.2724    3.2715    2.0119 C   0  0  0  0  0  0  0  0  0  0  0  0
   -1.3249    3.4549    2.2426 H   0  0  0  0  0  0  0  0  0  0  0  0
    0.3167    3.3776    2.9239 H   0  0  0  0  0  0  0  0  0  0  0  0
    0.0609    4.0073    1.2782 H   0  0  0  0  0  0  0  0  0  0  0  0
  5  6  2  0  0  0  0
  5  7  1  0  0  0  0
  2  3  1  0  0  0  0
  2  4  1  0  0  0  0
  2  5  1  0  0  0  0
  1  2  1  0  0  0  0
 22 23  2  0  0  0  0
 22 24  1  0  0  0  0
 20 21  1  0  0  0  0
 18 19  1  0  0  0  0
 18 20  1  0  0  0  0
 16 17  1  0  0  0  0
 16 18  1  0  0  0  0
 15 16  2  0  0  0  0
 14 15  1  0  0  0  0
 14 20  2  0  0  0  0
 11 12  1  0  0  0  0
 11 13  1  0  0  0  0
 11 14  1  0  0  0  0
  9 10  1  0  0  0  0
  9 11  1  0  0  0  0
  9 22  1  0  0  0  0
  7  8  1  0  0  0  0
  7  9  1  0  0  0  0
 26 27  1  0  0  0  0
 26 28  1  0  0  0  0
 26 29  1  0  0  0  0
 24 25  1  0  0  0  0
 24 26  1  0  0  0  0
M  END
$$$$
default_name
  -OEChem-02102213163D

 29 29  0     1  0  0  0  0  0999 V2000
   -2.9561   -3.9186    1.3887 H   0  0  0  0  0  0  0  0  0  0  0  0
   -3.1191   -2.9346    0.9517 C   0  0  0  0  0  0  0  0  0  0  0  0
   -3.7811   -2.3546    1.5917 H   0  0  0  0  0  0  0  0  0  0  0  0
   -3.5591   -3.0406   -0.0383 H   0  0  0  0  0  0  0  0  0  0  0  0
   -1.7921   -2.2226    0.8327 C   0  0  0  0  0  0  0  0  0  0  0  0
   -0.7611   -2.7766    1.1927 O   0  0  0  0  0  0  0  0  0  0  0  0
   -1.8201   -0.9926    0.3247 N   0  0  0  0  0  0  0  0  0  0  0  0
   -2.7141   -0.5816    0.0927 H   0  0  0  0  0  0  0  0  0  0  0  0
   -0.6481   -0.1156    0.2017 C   0  0  1  0  0  0  0  0  0  0  0  0
    0.1344   -0.4988    0.8596 H   0  0  0  0  0  0  0  0  0  0  0  0
   -0.1211   -0.1520   -1.2460 C   0  0  0  0  0  0  0  0  0  0  0  0
    0.7456    0.5040   -1.3400 H   0  0  0  0  0  0  0  0  0  0  0  0
    0.2040   -1.1630   -1.4951 H   0  0  0  0  0  0  0  0  0  0  0  0
   -1.1446    0.3096   -2.2547 C   0  0  0  0  0  0  0  0  0  0  0  0
   -1.8658   -0.5120   -3.1220 N   0  0  0  0  0  0  0  0  0  0  0  0
   -2.6889    0.3002   -3.8011 C   0  0  0  0  0  0  0  0  0  0  0  0
   -3.3798   -0.0289   -4.5670 H   0  0  0  0  0  0  0  0  0  0  0  0
   -2.5396    1.5705   -3.3895 N   0  0  0  0  0  0  0  0  0  0  0  0
   -3.0616    2.3640   -3.7355 H   0  0  0  0  0  0  0  0  0  0  0  0
   -1.5715    1.5959   -2.4104 C   0  0  0  0  0  0  0  0  0  0  0  0
   -1.2211    2.4530   -1.8491 H   0  0  0  0  0  0  0  0  0  0  0  0
   -0.9851    1.3114    0.6698 C   0  0  0  0  0  0  0  0  0  0  0  0
   -2.0377    1.8431    0.3168 O   0  0  0  0  0  0  0  0  0  0  0  0
   -0.1052    1.9265    1.4663 N   0  0  0  0  0  0  0  0  0  0  0  0
    0.7810    1.4586    1.6201 H   0  0  0  0  0  0  0  0  0  0  0  0
   -0.2724    3.2715    2.0119 C   0  0  0  0  0  0  0  0  0  0  0  0
   -1.3249    3.4549    2.2426 H   0  0  0  0  0  0  0  0  0  0  0  0
    0.3167    3.3776    2.9239 H   0  0  0  0  0  0  0  0  0  0  0  0
    0.0609    4.0073    1.2782 H   0  0  0  0  0  0  0  0  0  0  0  0
  5  6  2  0  0  0  0
  5  7  1  0  0  0  0
  2  3  1  0  0  0  0
  2  4  1  0  0  0  0
  2  5  1  0  0  0  0
  1  2  1  0  0  0  0
 22 23  2  0  0  0  0
 22 24  1  0  0  0  0
 20 21  1  0  0  0  0
 18 19  1  0  0  0  0
 18 20  1  0  0  0  0
 16 17  1  0  0  0  0
 16 18  1  0  0  0  0
 15 16  2  0  0  0  0
 14 15  1  0  0  0  0
 14 20  2  0  0  0  0
 11 12  1  0  0  0  0
 11 13  1  0  0  0  0
 11 14  1  0  0  0  0
  9 10  1  0  0  0  0
  9 11  1  0  0  0  0
  9 22  1  0  0  0  0
  7  8  1  0  0  0  0
  7  9  1  0  0  0  0
 26 27  1  0  0  0  0
 26 28  1  0  0  0  0
 26 29  1  0  0  0  0
 24 25  1  0  0  0  0
 24 26  1  0  0  0  0
M  END
$$$$
default_name
  -OEChem-02102213163D

 29 29  0     1  0  0  0  0  0999 V2000
   -2.9561   -3.9186    1.3887 H   0  0  0  0  0  0  0  0  0  0  0  0
   -3.1191   -2.9346    0.9517 C   0  0  0  0  0  0  0  0  0  0  0  0
   -3.7811   -2.3546    1.5917 H   0  0  0  0  0  0  0  0  0  0  0  0
   -3.5591   -3.0406   -0.0383 H   0  0  0  0  0  0  0  0  0  0  0  0
   -1.7921   -2.2226    0.8327 C   0  0  0  0  0  0  0  0  0  0  0  0
   -0.7611   -2.7766    1.1927 O   0  0  0  0  0  0  0  0  0  0  0  0
   -1.8201   -0.9926    0.3247 N   0  0  0  0  0  0  0  0  0  0  0  0
   -2.7141   -0.5816    0.0927 H   0  0  0  0  0  0  0  0  0  0  0  0
   -0.6481   -0.1156    0.2017 C   0  0  1  0  0  0  0  0  0  0  0  0
    0.1344   -0.4988    0.8596 H   0  0  0  0  0  0  0  0  0  0  0  0
   -0.1211   -0.1520   -1.2460 C   0  0  0  0  0  0  0  0  0  0  0  0
    0.7456    0.5040   -1.3400 H   0  0  0  0  0  0  0  0  0  0  0  0
    0.2040   -1.1630   -1.4951 H   0  0  0  0  0  0  0  0  0  0  0  0
   -1.1446    0.3096   -2.2547 C   0  0  0  0  0  0  0  0  0  0  0  0
   -2.0709   -0.5029   -2.9098 N   0  0  0  0  0  0  0  0  0  0  0  0
   -2.8083    0.3179   -3.6719 C   0  0  0  0  0  0  0  0  0  0  0  0
   -3.6135   -0.0057   -4.3193 H   0  0  0  0  0  0  0  0  0  0  0  0
   -2.4121    1.5915   -3.5093 N   0  0  0  0  0  0  0  0  0  0  0  0
   -2.8255    2.3962   -3.9603 H   0  0  0  0  0  0  0  0  0  0  0  0
   -1.3650    1.6068   -2.6150 C   0  0  0  0  0  0  0  0  0  0  0  0
   -0.8257    2.4689   -2.2430 H   0  0  0  0  0  0  0  0  0  0  0  0
   -0.9851    1.3114    0.6698 C   0  0  0  0  0  0  0  0  0  0  0  0
   -2.0377    1.8431    0.3168 O   0  0  0  0  0  0  0  0  0  0  0  0
   -0.1052    1.9265    1.4663 N   0  0  0  0  0  0  0  0  0  0  0  0
    0.7810    1.4586    1.6201 H   0  0  0  0  0  0  0  0  0  0  0  0
   -0.2724    3.2715    2.0119 C   0  0  0  0  0  0  0  0  0  0  0  0
   -1.3249    3.4549    2.2426 H   0  0  0  0  0  0  0  0  0  0  0  0
    0.3167    3.3776    2.9239 H   0  0  0  0  0  0  0  0  0  0  0  0
    0.0609    4.0073    1.2782 H   0  0  0  0  0  0  0  0  0  0  0  0
  5  6  2  0  0  0  0
  5  7  1  0  0  0  0
  2  3  1  0  0  0  0
  2  4  1  0  0  0  0
  2  5  1  0  0  0  0
  1  2  1  0  0  0  0
 22 23  2  0  0  0  0
 22 24  1  0  0  0  0
 20 21  1  0  0  0  0
 18 19  1  0  0  0  0
 18 20  1  0  0  0  0
 16 17  1  0  0  0  0
 16 18  1  0  0  0  0
 15 16  2  0  0  0  0
 14 15  1  0  0  0  0
 14 20  2  0  0  0  0
 11 12  1  0  0  0  0
 11 13  1  0  0  0  0
 11 14  1  0  0  0  0
  9 10  1  0  0  0  0
  9 11  1  0  0  0  0
  9 22  1  0  0  0  0
  7  8  1  0  0  0  0
  7  9  1  0  0  0  0
 26 27  1  0  0  0  0
 26 28  1  0  0  0  0
 26 29  1  0  0  0  0
 24 25  1  0  0  0  0
 24 26  1  0  0  0  0
M  END
$$$$
default_name
  -OEChem-02102213163D

 29 29  0     1  0  0  0  0  0999 V2000
   -2.9561   -3.9186    1.3887 H   0  0  0  0  0  0  0  0  0  0  0  0
   -3.1191   -2.9346    0.9517 C   0  0  0  0  0  0  0  0  0  0  0  0
   -3.7811   -2.3546    1.5917 H   0  0  0  0  0  0  0  0  0  0  0  0
   -3.5591   -3.0406   -0.0383 H   0  0  0  0  0  0  0  0  0  0  0  0
   -1.7921   -2.2226    0.8327 C   0  0  0  0  0  0  0  0  0  0  0  0
   -0.7611   -2.7766    1.1927 O   0  0  0  0  0  0  0  0  0  0  0  0
   -1.8201   -0.9926    0.3247 N   0  0  0  0  0  0  0  0  0  0  0  0
   -2.7141   -0.5816    0.0927 H   0  0  0  0  0  0  0  0  0  0  0  0
   -0.6481   -0.1156    0.2017 C   0  0  1  0  0  0  0  0  0  0  0  0
    0.1344   -0.4988    0.8596 H   0  0  0  0  0  0  0  0  0  0  0  0
   -0.1211   -0.1520   -1.2460 C   0  0  0  0  0  0  0  0  0  0  0  0
    0.7456    0.5040   -1.3400 H   0  0  0  0  0  0  0  0  0  0  0  0
    0.2040   -1.1630   -1.4951 H   0  0  0  0  0  0  0  0  0  0  0  0
   -1.1446    0.3096   -2.2547 C   0  0  0  0  0  0  0  0  0  0  0  0
   -2.2506   -0.4215   -2.6902 N   0  0  0  0  0  0  0  0  0  0  0  0
   -2.9103    0.3784   -3.5407 C   0  0  0  0  0  0  0  0  0  0  0  0
   -3.8156    0.1006   -4.0656 H   0  0  0  0  0  0  0  0  0  0  0  0
   -2.2947    1.5686   -3.6389 N   0  0  0  0  0  0  0  0  0  0  0  0
   -2.6097    2.3469   -4.2018 H   0  0  0  0  0  0  0  0  0  0  0  0
   -1.1797    1.5457   -2.8309 C   0  0  0  0  0  0  0  0  0  0  0  0
   -0.4722    2.3468   -2.6576 H   0  0  0  0  0  0  0  0  0  0  0  0
   -0.9851    1.3114    0.6698 C   0  0  0  0  0  0  0  0  0  0  0  0
   -2.0377    1.8431    0.3168 O   0  0  0  0  0  0  0  0  0  0  0  0
   -0.1052    1.9265    1.4663 N   0  0  0  0  0  0  0  0  0  0  0  0
    0.7810    1.4586    1.6201 H   0  0  0  0  0  0  0  0  0  0  0  0
   -0.2724    3.2715    2.0119 C   0  0  0  0  0  0  0  0  0  0  0  0
   -1.3249    3.4549    2.2426 H   0  0  0  0  0  0  0  0  0  0  0  0
    0.3167    3.3776    2.9239 H   0  0  0  0  0  0  0  0  0  0  0  0
    0.0609    4.0073    1.2782 H   0  0  0  0  0  0  0  0  0  0  0  0
  5  6  2  0  0  0  0
  5  7  1  0  0  0  0
  2  3  1  0  0  0  0
  2  4  1  0  0  0  0
  2  5  1  0  0  0  0
  1  2  1  0  0  0  0
 22 23  2  0  0  0  0
 22 24  1  0  0  0  0
 20 21  1  0  0  0  0
 18 19  1  0  0  0  0
 18 20  1  0  0  0  0
 16 17  1  0  0  0  0
 16 18  1  0  0  0  0
 15 16  2  0  0  0  0
 14 15  1  0  0  0  0
 14 20  2  0  0  0  0
 11 12  1  0  0  0  0
 11 13  1  0  0  0  0
 11 14  1  0  0  0  0
  9 10  1  0  0  0  0
  9 11  1  0  0  0  0
  9 22  1  0  0  0  0
  7  8  1  0  0  0  0
  7  9  1  0  0  0  0
 26 27  1  0  0  0  0
 26 28  1  0  0  0  0
 26 29  1  0  0  0  0
 24 25  1  0  0  0  0
 24 26  1  0  0  0  0
M  END
$$$$
default_name
  -OEChem-02102213163D

 29 29  0     1  0  0  0  0  0999 V2000
   -2.9561   -3.9186    1.3887 H   0  0  0  0  0  0  0  0  0  0  0  0
   -3.1191   -2.9346    0.9517 C   0  0  0  0  0  0  0  0  0  0  0  0
   -3.7811   -2.3546    1.5917 H   0  0  0  0  0  0  0  0  0  0  0  0
   -3.5591   -3.0406   -0.0383 H   0  0  0  0  0  0  0  0  0  0  0  0
   -1.7921   -2.2226    0.8327 C   0  0  0  0  0  0  0  0  0  0  0  0
   -0.7611   -2.7766    1.1927 O   0  0  0  0  0  0  0  0  0  0  0  0
   -1.8201   -0.9926    0.3247 N   0  0  0  0  0  0  0  0  0  0  0  0
   -2.7141   -0.5816    0.0927 H   0  0  0  0  0  0  0  0  0  0  0  0
   -0.6481   -0.1156    0.2017 C   0  0  1  0  0  0  0  0  0  0  0  0
    0.1344   -0.4988    0.8596 H   0  0  0  0  0  0  0  0  0  0  0  0
   -0.1211   -0.1520   -1.2460 C   0  0  0  0  0  0  0  0  0  0  0  0
    0.7456    0.5040   -1.3400 H   0  0  0  0  0  0  0  0  0  0  0  0
    0.2040   -1.1630   -1.4951 H   0  0  0  0  0  0  0  0  0  0  0  0
   -1.1446    0.3096   -2.2547 C   0  0  0  0  0  0  0  0  0  0  0  0
   -2.3927   -0.2732   -2.4782 N   0  0  0  0  0  0  0  0  0  0  0  0
   -2.9880    0.4774   -3.4165 C   0  0  0  0  0  0  0  0  0  0  0  0
   -3.9724    0.2827   -3.8232 H   0  0  0  0  0  0  0  0  0  0  0  0
   -2.1956    1.5035   -3.7692 N   0  0  0  0  0  0  0  0  0  0  0  0
   -2.4289    2.2196   -4.4435 H   0  0  0  0  0  0  0  0  0  0  0  0
   -1.0285    1.4168   -3.0433 C   0  0  0  0  0  0  0  0  0  0  0  0
   -0.1847    2.0949   -3.0645 H   0  0  0  0  0  0  0  0  0  0  0  0
   -0.9851    1.3114    0.6698 C   0  0  0  0  0  0  0  0  0  0  0  0
   -2.0377    1.8431    0.3168 O   0  0  0  0  0  0  0  0  0  0  0  0
   -0.1052    1.9265    1.4663 N   0  0  0  0  0  0  0  0  0  0  0  0
    0.7810    1.4586    1.6201 H   0  0  0  0  0  0  0  0  0  0  0  0
   -0.2724    3.2715    2.0119 C   0  0  0  0  0  0  0  0  0  0  0  0
   -1.3249    3.4549    2.2426 H   0  0  0  0  0  0  0  0  0  0  0  0
    0.3167    3.3776    2.9239 H   0  0  0  0  0  0  0  0  0  0  0  0
    0.0609    4.0073    1.2782 H   0  0  0  0  0  0  0  0  0  0  0  0
  5  6  2  0  0  0  0
  5  7  1  0  0  0  0
  2  3  1  0  0  0  0
  2  4  1  0  0  0  0
  2  5  1  0  0  0  0
  1  2  1  0  0  0  0
 22 23  2  0  0  0  0
 22 24  1  0  0  0  0
 20 21  1  0  0  0  0
 18 19  1  0  0  0  0
 18 20  1  0  0  0  0
 16 17  1  0  0  0  0
 16 18  1  0  0  0  0
 15 16  2  0  0  0  0
 14 15  1  0  0  0  0
 14 20  2  0  0  0  0
 11 12  1  0  0  0  0
 11 13  1  0  0  0  0
 11 14  1  0  0  0  0
  9 10  1  0  0  0  0
  9 11  1  0  0  0  0
  9 22  1  0  0  0  0
  7  8  1  0  0  0  0
  7  9  1  0  0  0  0
 26 27  1  0  0  0  0
 26 28  1  0  0  0  0
 26 29  1  0  0  0  0
 24 25  1  0  0  0  0
 24 26  1  0  0  0  0
M  END
$$$$
default_name
  -OEChem-02102213163D

 29 29  0     1  0  0  0  0  0999 V2000
   -2.9561   -3.9186    1.3887 H   0  0  0  0  0  0  0  0  0  0  0  0
   -3.1191   -2.9346    0.9517 C   0  0  0  0  0  0  0  0  0  0  0  0
   -3.7811   -2.3546    1.5917 H   0  0  0  0  0  0  0  0  0  0  0  0
   -3.5591   -3.0406   -0.0383 H   0  0  0  0  0  0  0  0  0  0  0  0
   -1.7921   -2.2226    0.8327 C   0  0  0  0  0  0  0  0  0  0  0  0
   -0.7611   -2.7766    1.1927 O   0  0  0  0  0  0  0  0  0  0  0  0
   -1.8201   -0.9926    0.3247 N   0  0  0  0  0  0  0  0  0  0  0  0
   -2.7141   -0.5816    0.0927 H   0  0  0  0  0  0  0  0  0  0  0  0
   -0.6481   -0.1156    0.2017 C   0  0  1  0  0  0  0  0  0  0  0  0
    0.1344   -0.4988    0.8596 H   0  0  0  0  0  0  0  0  0  0  0  0
   -0.1211   -0.1520   -1.2460 C   0  0  0  0  0  0  0  0  0  0  0  0
    0.7456    0.5040   -1.3400 H   0  0  0  0  0  0  0  0  0  0  0  0
    0.2040   -1.1630   -1.4951 H   0  0  0  0  0  0  0  0  0  0  0  0
   -1.1446    0.3096   -2.2547 C   0  0  0  0  0  0  0  0  0  0  0  0
   -2.4876   -0.0681   -2.2881 N   0  0  0  0  0  0  0  0  0  0  0  0
   -3.0361    0.6083   -3.3078 C   0  0  0  0  0  0  0  0  0  0  0  0
   -4.0732    0.5284   -3.6086 H   0  0  0  0  0  0  0  0  0  0  0  0
   -2.1214    1.4006   -3.8916 N   0  0  0  0  0  0  0  0  0  0  0  0
   -2.2954    2.0229   -4.6690 H   0  0  0  0  0  0  0  0  0  0  0  0
   -0.9215    1.2288   -3.2379 C   0  0  0  0  0  0  0  0  0  0  0  0
    0.0173    1.7305   -3.4362 H   0  0  0  0  0  0  0  0  0  0  0  0
   -0.9851    1.3114    0.6698 C   0  0  0  0  0  0  0  0  0  0  0  0
   -2.0377    1.8431    0.3168 O   0  0  0  0  0  0  0  0  0  0  0  0
   -0.1052    1.9265    1.4663 N   0  0  0  0  0  0  0  0  0  0  0  0
    0.7810    1.4586    1.6201 H   0  0  0  0  0  0  0  0  0  0  0  0
   -0.2724    3.2715    2.0119 C   0  0  0  0  0  0  0  0  0  0  0  0
   -1.3249    3.4549    2.2426 H   0  0  0  0  0  0  0  0  0  0  0  0
    0.3167    3.3776    2.9239 H   0  0  0  0  0  0  0  0  0  0  0  0
    0.0609    4.0073    1.2782 H   0  0  0  0  0  0  0  0  0  0  0  0
  5  6  2  0  0  0  0
  5  7  1  0  0  0  0
  2  3  1  0  0  0  0
  2  4  1  0  0  0  0
  2  5  1  0  0  0  0
  1  2  1  0  0  0  0
 22 23  2  0  0  0  0
 22 24  1  0  0  0  0
 20 21  1  0  0  0  0
 18 19  1  0  0  0  0
 18 20  1  0  0  0  0
 16 17  1  0  0  0  0
 16 18  1  0  0  0  0
 15 16  2  0  0  0  0
 14 15  1  0  0  0  0
 14 20  2  0  0  0  0
 11 12  1  0  0  0  0
 11 13  1  0  0  0  0
 11 14  1  0  0  0  0
  9 10  1  0  0  0  0
  9 11  1  0  0  0  0
  9 22  1  0  0  0  0
  7  8  1  0  0  0  0
  7  9  1  0  0  0  0
 26 27  1  0  0  0  0
 26 28  1  0  0  0  0
 26 29  1  0  0  0  0
 24 25  1  0  0  0  0
 24 26  1  0  0  0  0
M  END
$$$$
default_name
  -OEChem-02102213163D

 29 29  0     1  0  0  0  0  0999 V2000
   -2.9561   -3.9186    1.3887 H   0  0  0  0  0  0  0  0  0  0  0  0
   -3.1191   -2.9346    0.9517 C   0  0  0  0  0  0  0  0  0  0  0  0
   -3.7811   -2.3546    1.5917 H   0  0  0  0  0  0  0  0  0  0  0  0
   -3.5591   -3.0406   -0.0383 H   0  0  0  0  0  0  0  0  0  0  0  0
   -1.7921   -2.2226    0.8327 C   0  0  0  0  0  0  0  0  0  0  0  0
   -0.7611   -2.7766    1.1927 O   0  0  0  0  0  0  0  0  0  0  0  0
   -1.8201   -0.9926    0.3247 N   0  0  0  0  0  0  0  0  0  0  0  0
   -2.7141   -0.5816    0.0927 H   0  0  0  0  0  0  0  0  0  0  0  0
   -0.6481   -0.1156    0.2017 C   0  0  1  0  0  0  0  0  0  0  0  0
    0.1344   -0.4988    0.8596 H   0  0  0  0  0  0  0  0  0  0  0  0
   -0.1211   -0.1520   -1.2460 C   0  0  0  0  0  0  0  0  0  0  0  0
    0.7456    0.5040   -1.3400 H   0  0  0  0  0  0  0  0  0  0  0  0
    0.2040   -1.1630   -1.4951 H   0  0  0  0  0  0  0  0  0  0  0  0
   -1.1446    0.3096   -2.2547 C   0  0  0  0  0  0  0  0  0  0  0  0
   -2.5287    0.1797   -2.1330 N   0  0  0  0  0  0  0  0  0  0  0  0
   -3.0514    0.7622   -3.2220 C   0  0  0  0  0  0  0  0  0  0  0  0
   -4.1110    0.8207   -3.4364 H   0  0  0  0  0  0  0  0  0  0  0  0
   -2.0772    1.2669   -3.9976 N   0  0  0  0  0  0  0  0  0  0  0  0
   -2.2183    1.7703   -4.8628 H   0  0  0  0  0  0  0  0  0  0  0  0
   -0.8661    0.9945   -3.4013 C   0  0  0  0  0  0  0  0  0  0  0  0
    0.1199    1.2783   -3.7472 H   0  0  0  0  0  0  0  0  0  0  0  0
   -0.9851    1.3114    0.6698 C   0  0  0  0  0  0  0  0  0  0  0  0
   -2.0377    1.8431    0.3168 O   0  0  0  0  0  0  0  0  0  0  0  0
   -0.1052    1.9265    1.4663 N   0  0  0  0  0  0  0  0  0  0  0  0
    0.7810    1.4586    1.6201 H   0  0  0  0  0  0  0  0  0  0  0  0
   -0.2724    3.2715    2.0119 C   0  0  0  0  0  0  0  0  0  0  0  0
   -1.3249    3.4549    2.2426 H   0  0  0  0  0  0  0  0  0  0  0  0
    0.3167    3.3776    2.9239 H   0  0  0  0  0  0  0  0  0  0  0  0
    0.0609    4.0073    1.2782 H   0  0  0  0  0  0  0  0  0  0  0  0
  5  6  2  0  0  0  0
  5  7  1  0  0  0  0
  2  3  1  0  0  0  0
  2  4  1  0  0  0  0
  2  5  1  0  0  0  0
  1  2  1  0  0  0  0
 22 23  2  0  0  0  0
 22 24  1  0  0  0  0
 20 21  1  0  0  0  0
 18 19  1  0  0  0  0
 18 20  1  0  0  0  0
 16 17  1  0  0  0  0
 16 18  1  0  0  0  0
 15 16  2  0  0  0  0
 14 15  1  0  0  0  0
 14 20  2  0  0  0  0
 11 12  1  0  0  0  0
 11 13  1  0  0  0  0
 11 14  1  0  0  0  0
  9 10  1  0  0  0  0
  9 11  1  0  0  0  0
  9 22  1  0  0  0  0
  7  8  1  0  0  0  0
  7  9  1  0  0  0  0
 26 27  1  0  0  0  0
 26 28  1  0  0  0  0
 26 29  1  0  0  0  0
 24 25  1  0  0  0  0
 24 26  1  0  0  0  0
M  END
$$$$
default_name
  -OEChem-02102213163D

 29 29  0     1  0  0  0  0  0999 V2000
   -2.9561   -3.9186    1.3887 H   0  0  0  0  0  0  0  0  0  0  0  0
   -3.1191   -2.9346    0.9517 C   0  0  0  0  0  0  0  0  0  0  0  0
   -3.7811   -2.3546    1.5917 H   0  0  0  0  0  0  0  0  0  0  0  0
   -3.5591   -3.0406   -0.0383 H   0  0  0  0  0  0  0  0  0  0  0  0
   -1.7921   -2.2226    0.8327 C   0  0  0  0  0  0  0  0  0  0  0  0
   -0.7611   -2.7766    1.1927 O   0  0  0  0  0  0  0  0  0  0  0  0
   -1.8201   -0.9926    0.3247 N   0  0  0  0  0  0  0  0  0  0  0  0
   -2.7141   -0.5816    0.0927 H   0  0  0  0  0  0  0  0  0  0  0  0
   -0.6481   -0.1156    0.2017 C   0  0  1  0  0  0  0  0  0  0  0  0
    0.1344   -0.4988    0.8596 H   0  0  0  0  0  0  0  0  0  0  0  0
   -0.1211   -0.1520   -1.2460 C   0  0  0  0  0  0  0  0  0  0  0  0
    0.7456    0.5040   -1.3400 H   0  0  0  0  0  0  0  0  0  0  0  0
    0.2040   -1.1630   -1.4951 H   0  0  0  0  0  0  0  0  0  0  0  0
   -1.1446    0.3096   -2.2547 C   0  0  0  0  0  0  0  0  0  0  0  0
   -2.5132    0.4535   -2.0235 N   0  0  0  0  0  0  0  0  0  0  0  0
   -3.0327    0.9285   -3.1649 C   0  0  0  0  0  0  0  0  0  0  0  0
   -4.0834    1.1399   -3.3184 H   0  0  0  0  0  0  0  0  0  0  0  0
   -2.0660    1.1115   -4.0800 N   0  0  0  0  0  0  0  0  0  0  0  0
   -2.2028    1.4789   -5.0117 H   0  0  0  0  0  0  0  0  0  0  0  0
   -0.8660    0.7300   -3.5224 C   0  0  0  0  0  0  0  0  0  0  0  0
    0.1162    0.7691   -3.9763 H   0  0  0  0  0  0  0  0  0  0  0  0
   -0.9851    1.3114    0.6698 C   0  0  0  0  0  0  0  0  0  0  0  0
   -2.0377    1.8431    0.3168 O   0  0  0  0  0  0  0  0  0  0  0  0
   -0.1052    1.9265    1.4663 N   0  0  0  0  0  0  0  0  0  0  0  0
    0.7810    1.4586    1.6201 H   0  0  0  0  0  0  0  0  0  0  0  0
   -0.2724    3.2715    2.0119 C   0  0  0  0  0  0  0  0  0  0  0  0
   -1.3249    3.4549    2.2426 H   0  0  0  0  0  0  0  0  0  0  0  0
    0.3167    3.3776    2.9239 H   0  0  0  0  0  0  0  0  0  0  0  0
    0.0609    4.0073    1.2782 H   0  0  0  0  0  0  0  0  0  0  0  0
  5  6  2  0  0  0  0
  5  7  1  0  0  0  0
  2  3  1  0  0  0  0
  2  4  1  0  0  0  0
  2  5  1  0  0  0  0
  1  2  1  0  0  0  0
 22 23  2  0  0  0  0
 22 24  1  0  0  0  0
 20 21  1  0  0  0  0
 18 19  1  0  0  0  0
 18 20  1  0  0  0  0
 16 17  1  0  0  0  0
 16 18  1  0  0  0  0
 15 16  2  0  0  0  0
 14 15  1  0  0  0  0
 14 20  2  0  0  0  0
 11 12  1  0  0  0  0
 11 13  1  0  0  0  0
 11 14  1  0  0  0  0
  9 10  1  0  0  0  0
  9 11  1  0  0  0  0
  9 22  1  0  0  0  0
  7  8  1  0  0  0  0
  7  9  1  0  0  0  0
 26 27  1  0  0  0  0
 26 28  1  0  0  0  0
 26 29  1  0  0  0  0
 24 25  1  0  0  0  0
 24 26  1  0  0  0  0
M  END
$$$$
default_name
  -OEChem-02102213163D

 29 29  0     1  0  0  0  0  0999 V2000
   -2.9561   -3.9186    1.3887 H   0  0  0  0  0  0  0  0  0  0  0  0
   -3.1191   -2.9346    0.9517 C   0  0  0  0  0  0  0  0  0  0  0  0
   -3.7811   -2.3546    1.5917 H   0  0  0  0  0  0  0  0  0  0  0  0
   -3.5591   -3.0406   -0.0383 H   0  0  0  0  0  0  0  0  0  0  0  0
   -1.7921   -2.2226    0.8327 C   0  0  0  0  0  0  0  0  0  0  0  0
   -0.7611   -2.7766    1.1927 O   0  0  0  0  0  0  0  0  0  0  0  0
   -1.8201   -0.9926    0.3247 N   0  0  0  0  0  0  0  0  0  0  0  0
   -2.7141   -0.5816    0.0927 H   0  0  0  0  0  0  0  0  0  0  0  0
   -0.6481   -0.1156    0.2017 C   0  0  1  0  0  0  0  0  0  0  0  0
    0.1344   -0.4988    0.8596 H   0  0  0  0  0  0  0  0  0  0  0  0
   -0.1211   -0.1520   -1.2460 C   0  0  0  0  0  0  0  0  0  0  0  0
    0.7456    0.5040   -1.3400 H   0  0  0  0  0  0  0  0  0  0  0  0
    0.2040   -1.1630   -1.4951 H   0  0  0  0  0  0  0  0  0  0  0  0
   -1.1446    0.3096   -2.2547 C   0  0  0  0  0  0  0  0  0  0  0  0
   -2.4423    0.7344   -1.9669 N   0  0  0  0  0  0  0  0  0  0  0  0
   -2.9813    1.0959   -3.1404 C   0  0  0  0  0  0  0  0  0  0  0  0
   -3.9921    1.4641   -3.2627 H   0  0  0  0  0  0  0  0  0  0  0  0
   -2.0887    0.9450   -4.1332 N   0  0  0  0  0  0  0  0  0  0  0  0
   -2.2501    1.1687   -5.1057 H   0  0  0  0  0  0  0  0  0  0  0  0
   -0.9213    0.4532   -3.5929 C   0  0  0  0  0  0  0  0  0  0  0  0
    0.0064    0.2378   -4.1080 H   0  0  0  0  0  0  0  0  0  0  0  0
   -0.9851    1.3114    0.6698 C   0  0  0  0  0  0  0  0  0  0  0  0
   -2.0377    1.8431    0.3168 O   0  0  0  0  0  0  0  0  0  0  0  0
   -0.1052    1.9265    1.4663 N   0  0  0  0  0  0  0  0  0  0  0  0
    0.7810    1.4586    1.6201 H   0  0  0  0  0  0  0  0  0  0  0  0
   -0.2724    3.2715    2.0119 C   0  0  0  0  0  0  0  0  0  0  0  0
   -1.3249    3.4549    2.2426 H   0  0  0  0  0  0  0  0  0  0  0  0
    0.3167    3.3776    2.9239 H   0  0  0  0  0  0  0  0  0  0  0  0
    0.0609    4.0073    1.2782 H   0  0  0  0  0  0  0  0  0  0  0  0
  5  6  2  0  0  0  0
  5  7  1  0  0  0  0
  2  3  1  0  0  0  0
  2  4  1  0  0  0  0
  2  5  1  0  0  0  0
  1  2  1  0  0  0  0
 22 23  2  0  0  0  0
 22 24  1  0  0  0  0
 20 21  1  0  0  0  0
 18 19  1  0  0  0  0
 18 20  1  0  0  0  0
 16 17  1  0  0  0  0
 16 18  1  0  0  0  0
 15 16  2  0  0  0  0
 14 15  1  0  0  0  0
 14 20  2  0  0  0  0
 11 12  1  0  0  0  0
 11 13  1  0  0  0  0
 11 14  1  0  0  0  0
  9 10  1  0  0  0  0
  9 11  1  0  0  0  0
  9 22  1  0  0  0  0
  7  8  1  0  0  0  0
  7  9  1  0  0  0  0
 26 27  1  0  0  0  0
 26 28  1  0  0  0  0
 26 29  1  0  0  0  0
 24 25  1  0  0  0  0
 24 26  1  0  0  0  0
M  END
$$$$
default_name
  -OEChem-02102213163D

 29 29  0     1  0  0  0  0  0999 V2000
   -2.9561   -3.9186    1.3887 H   0  0  0  0  0  0  0  0  0  0  0  0
   -3.1191   -2.9346    0.9517 C   0  0  0  0  0  0  0  0  0  0  0  0
   -3.7811   -2.3546    1.5917 H   0  0  0  0  0  0  0  0  0  0  0  0
   -3.5591   -3.0406   -0.0383 H   0  0  0  0  0  0  0  0  0  0  0  0
   -1.7921   -2.2226    0.8327 C   0  0  0  0  0  0  0  0  0  0  0  0
   -0.7611   -2.7766    1.1927 O   0  0  0  0  0  0  0  0  0  0  0  0
   -1.8201   -0.9926    0.3247 N   0  0  0  0  0  0  0  0  0  0  0  0
   -2.7141   -0.5816    0.0927 H   0  0  0  0  0  0  0  0  0  0  0  0
   -0.6481   -0.1156    0.2017 C   0  0  1  0  0  0  0  0  0  0  0  0
    0.1344   -0.4988    0.8596 H   0  0  0  0  0  0  0  0  0  0  0  0
   -0.1211   -0.1520   -1.2460 C   0  0  0  0  0  0  0  0  0  0  0  0
    0.7456    0.5040   -1.3400 H   0  0  0  0  0  0  0  0  0  0  0  0
    0.2040   -1.1630   -1.4951 H   0  0  0  0  0  0  0  0  0  0  0  0
   -1.1446    0.3096   -2.2547 C   0  0  0  0  0  0  0  0  0  0  0  0
   -2.3207    1.0034   -1.9672 N   0  0  0  0  0  0  0  0  0  0  0  0
   -2.9008    1.2531   -3.1502 C   0  0  0  0  0  0  0  0  0  0  0  0
   -3.8435    1.7712   -3.2730 H   0  0  0  0  0  0  0  0  0  0  0  0
   -2.1435    0.7788   -4.1536 N   0  0  0  0  0  0  0  0  0  0  0  0
   -2.3569    0.8607   -5.1383 H   0  0  0  0  0  0  0  0  0  0  0  0
   -1.0282    0.1830   -3.6081 C   0  0  0  0  0  0  0  0  0  0  0  0
   -0.2020   -0.2796   -4.1333 H   0  0  0  0  0  0  0  0  0  0  0  0
   -0.9851    1.3114    0.6698 C   0  0  0  0  0  0  0  0  0  0  0  0
   -2.0377    1.8431    0.3168 O   0  0  0  0  0  0  0  0  0  0  0  0
   -0.1052    1.9265    1.4663 N   0  0  0  0  0  0  0  0  0  0  0  0
    0.7810    1.4586    1.6201 H   0  0  0  0  0  0  0  0  0  0  0  0
   -0.2724    3.2715    2.0119 C   0  0  0  0  0  0  0  0  0  0  0  0
   -1.3249    3.4549    2.2426 H   0  0  0  0  0  0  0  0  0  0  0  0
    0.3167    3.3776    2.9239 H   0  0  0  0  0  0  0  0  0  0  0  0
    0.0609    4.0073    1.2782 H   0  0  0  0  0  0  0  0  0  0  0  0
  5  6  2  0  0  0  0
  5  7  1  0  0  0  0
  2  3  1  0  0  0  0
  2  4  1  0  0  0  0
  2  5  1  0  0  0  0
  1  2  1  0  0  0  0
 22 23  2  0  0  0  0
 22 24  1  0  0  0  0
 20 21  1  0  0  0  0
 18 19  1  0  0  0  0
 18 20  1  0  0  0  0
 16 17  1  0  0  0  0
 16 18  1  0  0  0  0
 15 16  2  0  0  0  0
 14 15  1  0  0  0  0
 14 20  2  0  0  0  0
 11 12  1  0  0  0  0
 11 13  1  0  0  0  0
 11 14  1  0  0  0  0
  9 10  1  0  0  0  0
  9 11  1  0  0  0  0
  9 22  1  0  0  0  0
  7  8  1  0  0  0  0
  7  9  1  0  0  0  0
 26 27  1  0  0  0  0
 26 28  1  0  0  0  0
 26 29  1  0  0  0  0
 24 25  1  0  0  0  0
 24 26  1  0  0  0  0
M  END
$$$$
default_name
  -OEChem-02102213163D

 29 29  0     1  0  0  0  0  0999 V2000
   -2.9561   -3.9186    1.3887 H   0  0  0  0  0  0  0  0  0  0  0  0
   -3.1191   -2.9346    0.9517 C   0  0  0  0  0  0  0  0  0  0  0  0
   -3.7811   -2.3546    1.5917 H   0  0  0  0  0  0  0  0  0  0  0  0
   -3.5591   -3.0406   -0.0383 H   0  0  0  0  0  0  0  0  0  0  0  0
   -1.7921   -2.2226    0.8327 C   0  0  0  0  0  0  0  0  0  0  0  0
   -0.7611   -2.7766    1.1927 O   0  0  0  0  0  0  0  0  0  0  0  0
   -1.8201   -0.9926    0.3247 N   0  0  0  0  0  0  0  0  0  0  0  0
   -2.7141   -0.5816    0.0927 H   0  0  0  0  0  0  0  0  0  0  0  0
   -0.6481   -0.1156    0.2017 C   0  0  1  0  0  0  0  0  0  0  0  0
    0.1344   -0.4988    0.8596 H   0  0  0  0  0  0  0  0  0  0  0  0
   -0.1211   -0.1520   -1.2460 C   0  0  0  0  0  0  0  0  0  0  0  0
    0.7456    0.5040   -1.3400 H   0  0  0  0  0  0  0  0  0  0  0  0
    0.2040   -1.1630   -1.4951 H   0  0  0  0  0  0  0  0  0  0  0  0
   -1.1446    0.3096   -2.2547 C   0  0  0  0  0  0  0  0  0  0  0  0
   -2.1567    1.2422   -2.0243 N   0  0  0  0  0  0  0  0  0  0  0  0
   -2.7966    1.3892   -3.1936 C   0  0  0  0  0  0  0  0  0  0  0  0
   -3.6476    2.0404   -3.3485 H   0  0  0  0  0  0  0  0  0  0  0  0
   -2.2269    0.6241   -4.1398 N   0  0  0  0  0  0  0  0  0  0  0  0
   -2.5159    0.5759   -5.1073 H   0  0  0  0  0  0  0  0  0  0  0  0
   -1.1793   -0.0621   -3.5669 C   0  0  0  0  0  0  0  0  0  0  0  0
   -0.4948   -0.7477   -4.0504 H   0  0  0  0  0  0  0  0  0  0  0  0
   -0.9851    1.3114    0.6698 C   0  0  0  0  0  0  0  0  0  0  0  0
   -2.0377    1.8431    0.3168 O   0  0  0  0  0  0  0  0  0  0  0  0
   -0.1052    1.9265    1.4663 N   0  0  0  0  0  0  0  0  0  0  0  0
    0.7810    1.4586    1.6201 H   0  0  0  0  0  0  0  0  0  0  0  0
   -0.2724    3.2715    2.0119 C   0  0  0  0  0  0  0  0  0  0  0  0
   -1.3249    3.4549    2.2426 H   0  0  0  0  0  0  0  0  0  0  0  0
    0.3167    3.3776    2.9239 H   0  0  0  0  0  0  0  0  0  0  0  0
    0.0609    4.0073    1.2782 H   0  0  0  0  0  0  0  0  0  0  0  0
  5  6  2  0  0  0  0
  5  7  1  0  0  0  0
  2  3  1  0  0  0  0
  2  4  1  0  0  0  0
  2  5  1  0  0  0  0
  1  2  1  0  0  0  0
 22 23  2  0  0  0  0
 22 24  1  0  0  0  0
 20 21  1  0  0  0  0
 18 19  1  0  0  0  0
 18 20  1  0  0  0  0
 16 17  1  0  0  0  0
 16 18  1  0  0  0  0
 15 16  2  0  0  0  0
 14 15  1  0  0  0  0
 14 20  2  0  0  0  0
 11 12  1  0  0  0  0
 11 13  1  0  0  0  0
 11 14  1  0  0  0  0
  9 10  1  0  0  0  0
  9 11  1  0  0  0  0
  9 22  1  0  0  0  0
  7  8  1  0  0  0  0
  7  9  1  0  0  0  0
 26 27  1  0  0  0  0
 26 28  1  0  0  0  0
 26 29  1  0  0  0  0
 24 25  1  0  0  0  0
 24 26  1  0  0  0  0
M  END
$$$$
default_name
  -OEChem-02102213163D

 29 29  0     1  0  0  0  0  0999 V2000
   -2.9561   -3.9186    1.3887 H   0  0  0  0  0  0  0  0  0  0  0  0
   -3.1191   -2.9346    0.9517 C   0  0  0  0  0  0  0  0  0  0  0  0
   -3.7811   -2.3546    1.5917 H   0  0  0  0  0  0  0  0  0  0  0  0
   -3.5591   -3.0406   -0.0383 H   0  0  0  0  0  0  0  0  0  0  0  0
   -1.7921   -2.2226    0.8327 C   0  0  0  0  0  0  0  0  0  0  0  0
   -0.7611   -2.7766    1.1927 O   0  0  0  0  0  0  0  0  0  0  0  0
   -1.8201   -0.9926    0.3247 N   0  0  0  0  0  0  0  0  0  0  0  0
   -2.7141   -0.5816    0.0927 H   0  0  0  0  0  0  0  0  0  0  0  0
   -0.6481   -0.1156    0.2017 C   0  0  1  0  0  0  0  0  0  0  0  0
    0.1344   -0.4988    0.8596 H   0  0  0  0  0  0  0  0  0  0  0  0
   -0.1211   -0.1520   -1.2460 C   0  0  0  0  0  0  0  0  0  0  0  0
    0.7456    0.5040   -1.3400 H   0  0  0  0  0  0  0  0  0  0  0  0
    0.2040   -1.1630   -1.4951 H   0  0  0  0  0  0  0  0  0  0  0  0
   -1.1446    0.3096   -2.2547 C   0  0  0  0  0  0  0  0  0  0  0  0
   -1.9615    1.4345   -2.1344 N   0  0  0  0  0  0  0  0  0  0  0  0
   -2.6759    1.4951   -3.2676 C   0  0  0  0  0  0  0  0  0  0  0  0
   -3.4178    2.2532   -3.4843 H   0  0  0  0  0  0  0  0  0  0  0  0
   -2.3331    0.4915   -4.0927 N   0  0  0  0  0  0  0  0  0  0  0  0
   -2.7162    0.3338   -5.0148 H   0  0  0  0  0  0  0  0  0  0  0  0
   -1.3645   -0.2656   -3.4722 C   0  0  0  0  0  0  0  0  0  0  0  0
   -0.8520   -1.1347   -3.8651 H   0  0  0  0  0  0  0  0  0  0  0  0
   -0.9851    1.3114    0.6698 C   0  0  0  0  0  0  0  0  0  0  0  0
   -2.0377    1.8431    0.3168 O   0  0  0  0  0  0  0  0  0  0  0  0
   -0.1052    1.9265    1.4663 N   0  0  0  0  0  0  0  0  0  0  0  0
    0.7810    1.4586    1.6201 H   0  0  0  0  0  0  0  0  0  0  0  0
   -0.2724    3.2715    2.0119 C   0  0  0  0  0  0  0  0  0  0  0  0
   -1.3249    3.4549    2.2426 H   0  0  0  0  0  0  0  0  0  0  0  0
    0.3167    3.3776    2.9239 H   0  0  0  0  0  0  0  0  0  0  0  0
    0.0609    4.0073    1.2782 H   0  0  0  0  0  0  0  0  0  0  0  0
  5  6  2  0  0  0  0
  5  7  1  0  0  0  0
  2  3  1  0  0  0  0
  2  4  1  0  0  0  0
  2  5  1  0  0  0  0
  1  2  1  0  0  0  0
 22 23  2  0  0  0  0
 22 24  1  0  0  0  0
 20 21  1  0  0  0  0
 18 19  1  0  0  0  0
 18 20  1  0  0  0  0
 16 17  1  0  0  0  0
 16 18  1  0  0  0  0
 15 16  2  0  0  0  0
 14 15  1  0  0  0  0
 14 20  2  0  0  0  0
 11 12  1  0  0  0  0
 11 13  1  0  0  0  0
 11 14  1  0  0  0  0
  9 10  1  0  0  0  0
  9 11  1  0  0  0  0
  9 22  1  0  0  0  0
  7  8  1  0  0  0  0
  7  9  1  0  0  0  0
 26 27  1  0  0  0  0
 26 28  1  0  0  0  0
 26 29  1  0  0  0  0
 24 25  1  0  0  0  0
 24 26  1  0  0  0  0
M  END
$$$$
default_name
  -OEChem-02102213163D

 29 29  0     1  0  0  0  0  0999 V2000
   -2.9561   -3.9186    1.3887 H   0  0  0  0  0  0  0  0  0  0  0  0
   -3.1191   -2.9346    0.9517 C   0  0  0  0  0  0  0  0  0  0  0  0
   -3.7811   -2.3546    1.5917 H   0  0  0  0  0  0  0  0  0  0  0  0
   -3.5591   -3.0406   -0.0383 H   0  0  0  0  0  0  0  0  0  0  0  0
   -1.7921   -2.2226    0.8327 C   0  0  0  0  0  0  0  0  0  0  0  0
   -0.7611   -2.7766    1.1927 O   0  0  0  0  0  0  0  0  0  0  0  0
   -1.8201   -0.9926    0.3247 N   0  0  0  0  0  0  0  0  0  0  0  0
   -2.7141   -0.5816    0.0927 H   0  0  0  0  0  0  0  0  0  0  0  0
   -0.6481   -0.1156    0.2017 C   0  0  1  0  0  0  0  0  0  0  0  0
    0.1344   -0.4988    0.8596 H   0  0  0  0  0  0  0  0  0  0  0  0
   -0.1211   -0.1520   -1.2460 C   0  0  0  0  0  0  0  0  0  0  0  0
    0.7456    0.5040   -1.3400 H   0  0  0  0  0  0  0  0  0  0  0  0
    0.2040   -1.1630   -1.4951 H   0  0  0  0  0  0  0  0  0  0  0  0
   -1.1446    0.3096   -2.2547 C   0  0  0  0  0  0  0  0  0  0  0  0
   -1.7485    1.5671   -2.2898 N   0  0  0  0  0  0  0  0  0  0  0  0
   -2.5468    1.5634   -3.3673 C   0  0  0  0  0  0  0  0  0  0  0  0
   -3.1698    2.3953   -3.6710 H   0  0  0  0  0  0  0  0  0  0  0  0
   -2.4549    0.3901   -4.0156 N   0  0  0  0  0  0  0  0  0  0  0  0
   -2.9443    0.1509   -4.8670 H   0  0  0  0  0  0  0  0  0  0  0  0
   -1.5710   -0.4134   -3.3302 C   0  0  0  0  0  0  0  0  0  0  0  0
   -1.2493   -1.4141   -3.5898 H   0  0  0  0  0  0  0  0  0  0  0  0
   -0.9851    1.3114    0.6698 C   0  0  0  0  0  0  0  0  0  0  0  0
   -2.0377    1.8431    0.3168 O   0  0  0  0  0  0  0  0  0  0  0  0
   -0.1052    1.9265    1.4663 N   0  0  0  0  0  0  0  0  0  0  0  0
    0.7810    1.4586    1.6201 H   0  0  0  0  0  0  0  0  0  0  0  0
   -0.2724    3.2715    2.0119 C   0  0  0  0  0  0  0  0  0  0  0  0
   -1.3249    3.4549    2.2426 H   0  0  0  0  0  0  0  0  0  0  0  0
    0.3167    3.3776    2.9239 H   0  0  0  0  0  0  0  0  0  0  0  0
    0.0609    4.0073    1.2782 H   0  0  0  0  0  0  0  0  0  0  0  0
  5  6  2  0  0  0  0
  5  7  1  0  0  0  0
  2  3  1  0  0  0  0
  2  4  1  0  0  0  0
  2  5  1  0  0  0  0
  1  2  1  0  0  0  0
 22 23  2  0  0  0  0
 22 24  1  0  0  0  0
 20 21  1  0  0  0  0
 18 19  1  0  0  0  0
 18 20  1  0  0  0  0
 16 17  1  0  0  0  0
 16 18  1  0  0  0  0
 15 16  2  0  0  0  0
 14 15  1  0  0  0  0
 14 20  2  0  0  0  0
 11 12  1  0  0  0  0
 11 13  1  0  0  0  0
 11 14  1  0  0  0  0
  9 10  1  0  0  0  0
  9 11  1  0  0  0  0
  9 22  1  0  0  0  0
  7  8  1  0  0  0  0
  7  9  1  0  0  0  0
 26 27  1  0  0  0  0
 26 28  1  0  0  0  0
 26 29  1  0  0  0  0
 24 25  1  0  0  0  0
 24 26  1  0  0  0  0
M  END
$$$$
default_name
  -OEChem-02102213163D

 29 29  0     1  0  0  0  0  0999 V2000
   -2.9561   -3.9186    1.3887 H   0  0  0  0  0  0  0  0  0  0  0  0
   -3.1191   -2.9346    0.9517 C   0  0  0  0  0  0  0  0  0  0  0  0
   -3.7811   -2.3546    1.5917 H   0  0  0  0  0  0  0  0  0  0  0  0
   -3.5591   -3.0406   -0.0383 H   0  0  0  0  0  0  0  0  0  0  0  0
   -1.7921   -2.2226    0.8327 C   0  0  0  0  0  0  0  0  0  0  0  0
   -0.7611   -2.7766    1.1927 O   0  0  0  0  0  0  0  0  0  0  0  0
   -1.8201   -0.9926    0.3247 N   0  0  0  0  0  0  0  0  0  0  0  0
   -2.7141   -0.5816    0.0927 H   0  0  0  0  0  0  0  0  0  0  0  0
   -0.6481   -0.1156    0.2017 C   0  0  1  0  0  0  0  0  0  0  0  0
    0.1344   -0.4988    0.8596 H   0  0  0  0  0  0  0  0  0  0  0  0
   -0.1211   -0.1520   -1.2460 C   0  0  0  0  0  0  0  0  0  0  0  0
    0.7456    0.5040   -1.3400 H   0  0  0  0  0  0  0  0  0  0  0  0
    0.2040   -1.1630   -1.4951 H   0  0  0  0  0  0  0  0  0  0  0  0
   -1.1446    0.3096   -2.2547 C   0  0  0  0  0  0  0  0  0  0  0  0
   -1.5320    1.6311   -2.4802 N   0  0  0  0  0  0  0  0  0  0  0  0
   -2.4182    1.5897   -3.4858 C   0  0  0  0  0  0  0  0  0  0  0  0
   -2.9204    2.4568   -3.8958 H   0  0  0  0  0  0  0  0  0  0  0  0
   -2.5839    0.3268   -3.9136 N   0  0  0  0  0  0  0  0  0  0  0  0
   -3.1846    0.0395   -4.6742 H   0  0  0  0  0  0  0  0  0  0  0  0
   -1.7848   -0.4956   -3.1509 C   0  0  0  0  0  0  0  0  0  0  0  0
   -1.6596   -1.5671   -3.2434 H   0  0  0  0  0  0  0  0  0  0  0  0
   -0.9851    1.3114    0.6698 C   0  0  0  0  0  0  0  0  0  0  0  0
   -2.0377    1.8431    0.3168 O   0  0  0  0  0  0  0  0  0  0  0  0
   -0.1052    1.9265    1.4663 N   0  0  0  0  0  0  0  0  0  0  0  0
    0.7810    1.4586    1.6201 H   0  0  0  0  0  0  0  0  0  0  0  0
   -0.2724    3.2715    2.0119 C   0  0  0  0  0  0  0  0  0  0  0  0
   -1.3249    3.4549    2.2426 H   0  0  0  0  0  0  0  0  0  0  0  0
    0.3167    3.3776    2.9239 H   0  0  0  0  0  0  0  0  0  0  0  0
    0.0609    4.0073    1.2782 H   0  0  0  0  0  0  0  0  0  0  0  0
  5  6  2  0  0  0  0
  5  7  1  0  0  0  0
  2  3  1  0  0  0  0
  2  4  1  0  0  0  0
  2  5  1  0  0  0  0
  1  2  1  0  0  0  0
 22 23  2  0  0  0  0
 22 24  1  0  0  0  0
 20 21  1  0  0  0  0
 18 19  1  0  0  0  0
 18 20  1  0  0  0  0
 16 17  1  0  0  0  0
 16 18  1  0  0  0  0
 15 16  2  0  0  0  0
 14 15  1  0  0  0  0
 14 20  2  0  0  0  0
 11 12  1  0  0  0  0
 11 13  1  0  0  0  0
 11 14  1  0  0  0  0
  9 10  1  0  0  0  0
  9 11  1  0  0  0  0
  9 22  1  0  0  0  0
  7  8  1  0  0  0  0
  7  9  1  0  0  0  0
 26 27  1  0  0  0  0
 26 28  1  0  0  0  0
 26 29  1  0  0  0  0
 24 25  1  0  0  0  0
 24 26  1  0  0  0  0
M  END
$$$$
default_name
  -OEChem-02102213163D

 29 29  0     1  0  0  0  0  0999 V2000
   -2.9561   -3.9186    1.3887 H   0  0  0  0  0  0  0  0  0  0  0  0
   -3.1191   -2.9346    0.9517 C   0  0  0  0  0  0  0  0  0  0  0  0
   -3.7811   -2.3546    1.5917 H   0  0  0  0  0  0  0  0  0  0  0  0
   -3.5591   -3.0406   -0.0383 H   0  0  0  0  0  0  0  0  0  0  0  0
   -1.7921   -2.2226    0.8327 C   0  0  0  0  0  0  0  0  0  0  0  0
   -0.7611   -2.7766    1.1927 O   0  0  0  0  0  0  0  0  0  0  0  0
   -1.8201   -0.9926    0.3247 N   0  0  0  0  0  0  0  0  0  0  0  0
   -2.7141   -0.5816    0.0927 H   0  0  0  0  0  0  0  0  0  0  0  0
   -0.6481   -0.1156    0.2017 C   0  0  1  0  0  0  0  0  0  0  0  0
    0.1344   -0.4988    0.8596 H   0  0  0  0  0  0  0  0  0  0  0  0
   -0.1211   -0.1520   -1.2460 C   0  0  0  0  0  0  0  0  0  0  0  0
    0.7456    0.5040   -1.3400 H   0  0  0  0  0  0  0  0  0  0  0  0
    0.2040   -1.1630   -1.4951 H   0  0  0  0  0  0  0  0  0  0  0  0
   -1.1446    0.3096   -2.2547 C   0  0  0  0  0  0  0  0  0  0  0  0
   -1.3270    1.6220   -2.6924 N   0  0  0  0  0  0  0  0  0  0  0  0
   -2.2988    1.5719   -3.6151 C   0  0  0  0  0  0  0  0  0  0  0  0
   -2.6867    2.4336   -4.1436 H   0  0  0  0  0  0  0  0  0  0  0  0
   -2.7115    0.3058   -3.7938 N   0  0  0  0  0  0  0  0  0  0  0  0
   -3.4207    0.0074   -4.4493 H   0  0  0  0  0  0  0  0  0  0  0  0
   -1.9914   -0.5065   -2.9463 C   0  0  0  0  0  0  0  0  0  0  0  0
   -2.0550   -1.5830   -2.8496 H   0  0  0  0  0  0  0  0  0  0  0  0
   -0.9851    1.3114    0.6698 C   0  0  0  0  0  0  0  0  0  0  0  0
   -2.0377    1.8431    0.3168 O   0  0  0  0  0  0  0  0  0  0  0  0
   -0.1052    1.9265    1.4663 N   0  0  0  0  0  0  0  0  0  0  0  0
    0.7810    1.4586    1.6201 H   0  0  0  0  0  0  0  0  0  0  0  0
   -0.2724    3.2715    2.0119 C   0  0  0  0  0  0  0  0  0  0  0  0
   -1.3249    3.4549    2.2426 H   0  0  0  0  0  0  0  0  0  0  0  0
    0.3167    3.3776    2.9239 H   0  0  0  0  0  0  0  0  0  0  0  0
    0.0609    4.0073    1.2782 H   0  0  0  0  0  0  0  0  0  0  0  0
  5  6  2  0  0  0  0
  5  7  1  0  0  0  0
  2  3  1  0  0  0  0
  2  4  1  0  0  0  0
  2  5  1  0  0  0  0
  1  2  1  0  0  0  0
 22 23  2  0  0  0  0
 22 24  1  0  0  0  0
 20 21  1  0  0  0  0
 18 19  1  0  0  0  0
 18 20  1  0  0  0  0
 16 17  1  0  0  0  0
 16 18  1  0  0  0  0
 15 16  2  0  0  0  0
 14 15  1  0  0  0  0
 14 20  2  0  0  0  0
 11 12  1  0  0  0  0
 11 13  1  0  0  0  0
 11 14  1  0  0  0  0
  9 10  1  0  0  0  0
  9 11  1  0  0  0  0
  9 22  1  0  0  0  0
  7  8  1  0  0  0  0
  7  9  1  0  0  0  0
 26 27  1  0  0  0  0
 26 28  1  0  0  0  0
 26 29  1  0  0  0  0
 24 25  1  0  0  0  0
 24 26  1  0  0  0  0
M  END
$$$$
default_name
  -OEChem-02102213163D

 29 29  0     1  0  0  0  0  0999 V2000
   -2.9561   -3.9186    1.3887 H   0  0  0  0  0  0  0  0  0  0  0  0
   -3.1191   -2.9346    0.9517 C   0  0  0  0  0  0  0  0  0  0  0  0
   -3.7811   -2.3546    1.5917 H   0  0  0  0  0  0  0  0  0  0  0  0
   -3.5591   -3.0406   -0.0383 H   0  0  0  0  0  0  0  0  0  0  0  0
   -1.7921   -2.2226    0.8327 C   0  0  0  0  0  0  0  0  0  0  0  0
   -0.7611   -2.7766    1.1927 O   0  0  0  0  0  0  0  0  0  0  0  0
   -1.8201   -0.9926    0.3247 N   0  0  0  0  0  0  0  0  0  0  0  0
   -2.7141   -0.5816    0.0927 H   0  0  0  0  0  0  0  0  0  0  0  0
   -0.6481   -0.1156    0.2017 C   0  0  1  0  0  0  0  0  0  0  0  0
    0.1344   -0.4988    0.8596 H   0  0  0  0  0  0  0  0  0  0  0  0
   -0.1211   -0.1520   -1.2460 C   0  0  0  0  0  0  0  0  0  0  0  0
    0.7456    0.5040   -1.3400 H   0  0  0  0  0  0  0  0  0  0  0  0
    0.2040   -1.1630   -1.4951 H   0  0  0  0  0  0  0  0  0  0  0  0
   -1.1446    0.3096   -2.2547 C   0  0  0  0  0  0  0  0  0  0  0  0
   -1.1472    1.5406   -2.9120 N   0  0  0  0  0  0  0  0  0  0  0  0
   -2.1968    1.5115   -3.7462 C   0  0  0  0  0  0  0  0  0  0  0  0
   -2.4846    2.3273   -4.3973 H   0  0  0  0  0  0  0  0  0  0  0  0
   -2.8288    0.3287   -3.6643 N   0  0  0  0  0  0  0  0  0  0  0  0
   -3.6365    0.0567   -4.2078 H   0  0  0  0  0  0  0  0  0  0  0  0
   -2.1766   -0.4453   -2.7304 C   0  0  0  0  0  0  0  0  0  0  0  0
   -2.4086   -1.4609   -2.4350 H   0  0  0  0  0  0  0  0  0  0  0  0
   -0.9851    1.3114    0.6698 C   0  0  0  0  0  0  0  0  0  0  0  0
   -2.0377    1.8431    0.3168 O   0  0  0  0  0  0  0  0  0  0  0  0
   -0.1052    1.9265    1.4663 N   0  0  0  0  0  0  0  0  0  0  0  0
    0.7810    1.4586    1.6201 H   0  0  0  0  0  0  0  0  0  0  0  0
   -0.2724    3.2715    2.0119 C   0  0  0  0  0  0  0  0  0  0  0  0
   -1.3249    3.4549    2.2426 H   0  0  0  0  0  0  0  0  0  0  0  0
    0.3167    3.3776    2.9239 H   0  0  0  0  0  0  0  0  0  0  0  0
    0.0609    4.0073    1.2782 H   0  0  0  0  0  0  0  0  0  0  0  0
  5  6  2  0  0  0  0
  5  7  1  0  0  0  0
  2  3  1  0  0  0  0
  2  4  1  0  0  0  0
  2  5  1  0  0  0  0
  1  2  1  0  0  0  0
 22 23  2  0  0  0  0
 22 24  1  0  0  0  0
 20 21  1  0  0  0  0
 18 19  1  0  0  0  0
 18 20  1  0  0  0  0
 16 17  1  0  0  0  0
 16 18  1  0  0  0  0
 15 16  2  0  0  0  0
 14 15  1  0  0  0  0
 14 20  2  0  0  0  0
 11 12  1  0  0  0  0
 11 13  1  0  0  0  0
 11 14  1  0  0  0  0
  9 10  1  0  0  0  0
  9 11  1  0  0  0  0
  9 22  1  0  0  0  0
  7  8  1  0  0  0  0
  7  9  1  0  0  0  0
 26 27  1  0  0  0  0
 26 28  1  0  0  0  0
 26 29  1  0  0  0  0
 24 25  1  0  0  0  0
 24 26  1  0  0  0  0
M  END
$$$$
default_name
  -OEChem-02102213163D

 29 29  0     1  0  0  0  0  0999 V2000
   -2.9561   -3.9186    1.3887 H   0  0  0  0  0  0  0  0  0  0  0  0
   -3.1191   -2.9346    0.9517 C   0  0  0  0  0  0  0  0  0  0  0  0
   -3.7811   -2.3546    1.5917 H   0  0  0  0  0  0  0  0  0  0  0  0
   -3.5591   -3.0406   -0.0383 H   0  0  0  0  0  0  0  0  0  0  0  0
   -1.7921   -2.2226    0.8327 C   0  0  0  0  0  0  0  0  0  0  0  0
   -0.7611   -2.7766    1.1927 O   0  0  0  0  0  0  0  0  0  0  0  0
   -1.8201   -0.9926    0.3247 N   0  0  0  0  0  0  0  0  0  0  0  0
   -2.7141   -0.5816    0.0927 H   0  0  0  0  0  0  0  0  0  0  0  0
   -0.6481   -0.1156    0.2017 C   0  0  1  0  0  0  0  0  0  0  0  0
    0.1344   -0.4988    0.8596 H   0  0  0  0  0  0  0  0  0  0  0  0
   -0.1211   -0.1520   -1.2460 C   0  0  0  0  0  0  0  0  0  0  0  0
    0.7456    0.5040   -1.3400 H   0  0  0  0  0  0  0  0  0  0  0  0
    0.2040   -1.1630   -1.4951 H   0  0  0  0  0  0  0  0  0  0  0  0
   -1.1446    0.3096   -2.2547 C   0  0  0  0  0  0  0  0  0  0  0  0
   -1.0051    1.3922   -3.1241 N   0  0  0  0  0  0  0  0  0  0  0  0
   -2.1191    1.4124   -3.8704 C   0  0  0  0  0  0  0  0  0  0  0  0
   -2.3278    2.1451   -4.6397 H   0  0  0  0  0  0  0  0  0  0  0  0
   -2.9280    0.3938   -3.5339 N   0  0  0  0  0  0  0  0  0  0  0  0
   -3.8174    0.1840   -3.9661 H   0  0  0  0  0  0  0  0  0  0  0  0
   -2.3278   -0.3164   -2.5180 C   0  0  0  0  0  0  0  0  0  0  0  0
   -2.6961   -1.2090   -2.0281 H   0  0  0  0  0  0  0  0  0  0  0  0
   -0.9851    1.3114    0.6698 C   0  0  0  0  0  0  0  0  0  0  0  0
   -2.0377    1.8431    0.3168 O   0  0  0  0  0  0  0  0  0  0  0  0
   -0.1052    1.9265    1.4663 N   0  0  0  0  0  0  0  0  0  0  0  0
    0.7810    1.4586    1.6201 H   0  0  0  0  0  0  0  0  0  0  0  0
   -0.2724    3.2715    2.0119 C   0  0  0  0  0  0  0  0  0  0  0  0
   -1.3249    3.4549    2.2426 H   0  0  0  0  0  0  0  0  0  0  0  0
    0.3167    3.3776    2.9239 H   0  0  0  0  0  0  0  0  0  0  0  0
    0.0609    4.0073    1.2782 H   0  0  0  0  0  0  0  0  0  0  0  0
  5  6  2  0  0  0  0
  5  7  1  0  0  0  0
  2  3  1  0  0  0  0
  2  4  1  0  0  0  0
  2  5  1  0  0  0  0
  1  2  1  0  0  0  0
 22 23  2  0  0  0  0
 22 24  1  0  0  0  0
 20 21  1  0  0  0  0
 18 19  1  0  0  0  0
 18 20  1  0  0  0  0
 16 17  1  0  0  0  0
 16 18  1  0  0  0  0
 15 16  2  0  0  0  0
 14 15  1  0  0  0  0
 14 20  2  0  0  0  0
 11 12  1  0  0  0  0
 11 13  1  0  0  0  0
 11 14  1  0  0  0  0
  9 10  1  0  0  0  0
  9 11  1  0  0  0  0
  9 22  1  0  0  0  0
  7  8  1  0  0  0  0
  7  9  1  0  0  0  0
 26 27  1  0  0  0  0
 26 28  1  0  0  0  0
 26 29  1  0  0  0  0
 24 25  1  0  0  0  0
 24 26  1  0  0  0  0
M  END
$$$$
default_name
  -OEChem-02102213163D

 29 29  0     1  0  0  0  0  0999 V2000
   -2.9561   -3.9186    1.3887 H   0  0  0  0  0  0  0  0  0  0  0  0
   -3.1191   -2.9346    0.9517 C   0  0  0  0  0  0  0  0  0  0  0  0
   -3.7811   -2.3546    1.5917 H   0  0  0  0  0  0  0  0  0  0  0  0
   -3.5591   -3.0406   -0.0383 H   0  0  0  0  0  0  0  0  0  0  0  0
   -1.7921   -2.2226    0.8327 C   0  0  0  0  0  0  0  0  0  0  0  0
   -0.7611   -2.7766    1.1927 O   0  0  0  0  0  0  0  0  0  0  0  0
   -1.8201   -0.9926    0.3247 N   0  0  0  0  0  0  0  0  0  0  0  0
   -2.7141   -0.5816    0.0927 H   0  0  0  0  0  0  0  0  0  0  0  0
   -0.6481   -0.1156    0.2017 C   0  0  1  0  0  0  0  0  0  0  0  0
    0.1344   -0.4988    0.8596 H   0  0  0  0  0  0  0  0  0  0  0  0
   -0.1211   -0.1520   -1.2460 C   0  0  0  0  0  0  0  0  0  0  0  0
    0.7456    0.5040   -1.3400 H   0  0  0  0  0  0  0  0  0  0  0  0
    0.2040   -1.1630   -1.4951 H   0  0  0  0  0  0  0  0  0  0  0  0
   -1.1446    0.3096   -2.2547 C   0  0  0  0  0  0  0  0  0  0  0  0
   -0.9103    1.1872   -3.3141 N   0  0  0  0  0  0  0  0  0  0  0  0
   -2.0710    1.2815   -3.9791 C   0  0  0  0  0  0  0  0  0  0  0  0
   -2.2270    1.8995   -4.8543 H   0  0  0  0  0  0  0  0  0  0  0  0
   -3.0022    0.4967   -3.4115 N   0  0  0  0  0  0  0  0  0  0  0  0
   -3.9509    0.3806   -3.7407 H   0  0  0  0  0  0  0  0  0  0  0  0
   -2.4348   -0.1284   -2.3234 C   0  0  0  0  0  0  0  0  0  0  0  0
   -2.8980   -0.8445   -1.6564 H   0  0  0  0  0  0  0  0  0  0  0  0
   -0.9851    1.3114    0.6698 C   0  0  0  0  0  0  0  0  0  0  0  0
   -2.0377    1.8431    0.3168 O   0  0  0  0  0  0  0  0  0  0  0  0
   -0.1052    1.9265    1.4663 N   0  0  0  0  0  0  0  0  0  0  0  0
    0.7810    1.4586    1.6201 H   0  0  0  0  0  0  0  0  0  0  0  0
   -0.2724    3.2715    2.0119 C   0  0  0  0  0  0  0  0  0  0  0  0
   -1.3249    3.4549    2.2426 H   0  0  0  0  0  0  0  0  0  0  0  0
    0.3167    3.3776    2.9239 H   0  0  0  0  0  0  0  0  0  0  0  0
    0.0609    4.0073    1.2782 H   0  0  0  0  0  0  0  0  0  0  0  0
  5  6  2  0  0  0  0
  5  7  1  0  0  0  0
  2  3  1  0  0  0  0
  2  4  1  0  0  0  0
  2  5  1  0  0  0  0
  1  2  1  0  0  0  0
 22 23  2  0  0  0  0
 22 24  1  0  0  0  0
 20 21  1  0  0  0  0
 18 19  1  0  0  0  0
 18 20  1  0  0  0  0
 16 17  1  0  0  0  0
 16 18  1  0  0  0  0
 15 16  2  0  0  0  0
 14 15  1  0  0  0  0
 14 20  2  0  0  0  0
 11 12  1  0  0  0  0
 11 13  1  0  0  0  0
 11 14  1  0  0  0  0
  9 10  1  0  0  0  0
  9 11  1  0  0  0  0
  9 22  1  0  0  0  0
  7  8  1  0  0  0  0
  7  9  1  0  0  0  0
 26 27  1  0  0  0  0
 26 28  1  0  0  0  0
 26 29  1  0  0  0  0
 24 25  1  0  0  0  0
 24 26  1  0  0  0  0
M  END
$$$$
default_name
  -OEChem-02102213163D

 29 29  0     1  0  0  0  0  0999 V2000
   -2.9561   -3.9186    1.3887 H   0  0  0  0  0  0  0  0  0  0  0  0
   -3.1191   -2.9346    0.9517 C   0  0  0  0  0  0  0  0  0  0  0  0
   -3.7811   -2.3546    1.5917 H   0  0  0  0  0  0  0  0  0  0  0  0
   -3.5591   -3.0406   -0.0383 H   0  0  0  0  0  0  0  0  0  0  0  0
   -1.7921   -2.2226    0.8327 C   0  0  0  0  0  0  0  0  0  0  0  0
   -0.7611   -2.7766    1.1927 O   0  0  0  0  0  0  0  0  0  0  0  0
   -1.8201   -0.9926    0.3247 N   0  0  0  0  0  0  0  0  0  0  0  0
   -2.7141   -0.5816    0.0927 H   0  0  0  0  0  0  0  0  0  0  0  0
   -0.6481   -0.1156    0.2017 C   0  0  1  0  0  0  0  0  0  0  0  0
    0.1344   -0.4988    0.8596 H   0  0  0  0  0  0  0  0  0  0  0  0
   -0.1211   -0.1520   -1.2460 C   0  0  0  0  0  0  0  0  0  0  0  0
    0.7456    0.5040   -1.3400 H   0  0  0  0  0  0  0  0  0  0  0  0
    0.2040   -1.1630   -1.4951 H   0  0  0  0  0  0  0  0  0  0  0  0
   -1.1446    0.3096   -2.2547 C   0  0  0  0  0  0  0  0  0  0  0  0
   -0.8692    0.9393   -3.4692 N   0  0  0  0  0  0  0  0  0  0  0  0
   -2.0557    1.1277   -4.0649 C   0  0  0  0  0  0  0  0  0  0  0  0
   -2.1892    1.6072   -5.0264 H   0  0  0  0  0  0  0  0  0  0  0  0
   -3.0464    0.6304   -3.3055 N   0  0  0  0  0  0  0  0  0  0  0  0
   -4.0280    0.6332   -3.5469 H   0  0  0  0  0  0  0  0  0  0  0  0
   -2.4902    0.1059   -2.1600 C   0  0  0  0  0  0  0  0  0  0  0  0
   -3.0007   -0.3923   -1.3454 H   0  0  0  0  0  0  0  0  0  0  0  0
   -0.9851    1.3114    0.6698 C   0  0  0  0  0  0  0  0  0  0  0  0
   -2.0377    1.8431    0.3168 O   0  0  0  0  0  0  0  0  0  0  0  0
   -0.1052    1.9265    1.4663 N   0  0  0  0  0  0  0  0  0  0  0  0
    0.7810    1.4586    1.6201 H   0  0  0  0  0  0  0  0  0  0  0  0
   -0.2724    3.2715    2.0119 C   0  0  0  0  0  0  0  0  0  0  0  0
   -1.3249    3.4549    2.2426 H   0  0  0  0  0  0  0  0  0  0  0  0
    0.3167    3.3776    2.9239 H   0  0  0  0  0  0  0  0  0  0  0  0
    0.0609    4.0073    1.2782 H   0  0  0  0  0  0  0  0  0  0  0  0
  5  6  2  0  0  0  0
  5  7  1  0  0  0  0
  2  3  1  0  0  0  0
  2  4  1  0  0  0  0
  2  5  1  0  0  0  0
  1  2  1  0  0  0  0
 22 23  2  0  0  0  0
 22 24  1  0  0  0  0
 20 21  1  0  0  0  0
 18 19  1  0  0  0  0
 18 20  1  0  0  0  0
 16 17  1  0  0  0  0
 16 18  1  0  0  0  0
 15 16  2  0  0  0  0
 14 15  1  0  0  0  0
 14 20  2  0  0  0  0
 11 12  1  0  0  0  0
 11 13  1  0  0  0  0
 11 14  1  0  0  0  0
  9 10  1  0  0  0  0
  9 11  1  0  0  0  0
  9 22  1  0  0  0  0
  7  8  1  0  0  0  0
  7  9  1  0  0  0  0
 26 27  1  0  0  0  0
 26 28  1  0  0  0  0
 26 29  1  0  0  0  0
 24 25  1  0  0  0  0
 24 26  1  0  0  0  0
M  END
$$$$
default_name
  -OEChem-02102213163D

 29 29  0     1  0  0  0  0  0999 V2000
   -2.9561   -3.9186    1.3887 H   0  0  0  0  0  0  0  0  0  0  0  0
   -3.1191   -2.9346    0.9517 C   0  0  0  0  0  0  0  0  0  0  0  0
   -3.7811   -2.3546    1.5917 H   0  0  0  0  0  0  0  0  0  0  0  0
   -3.5591   -3.0406   -0.0383 H   0  0  0  0  0  0  0  0  0  0  0  0
   -1.7921   -2.2226    0.8327 C   0  0  0  0  0  0  0  0  0  0  0  0
   -0.7611   -2.7766    1.1927 O   0  0  0  0  0  0  0  0  0  0  0  0
   -1.8201   -0.9926    0.3247 N   0  0  0  0  0  0  0  0  0  0  0  0
   -2.7141   -0.5816    0.0927 H   0  0  0  0  0  0  0  0  0  0  0  0
   -0.6481   -0.1156    0.2017 C   0  0  1  0  0  0  0  0  0  0  0  0
    0.1344   -0.4988    0.8596 H   0  0  0  0  0  0  0  0  0  0  0  0
   -0.1211   -0.1520   -1.2460 C   0  0  0  0  0  0  0  0  0  0  0  0
    0.7456    0.5040   -1.3400 H   0  0  0  0  0  0  0  0  0  0  0  0
    0.2040   -1.1630   -1.4951 H   0  0  0  0  0  0  0  0  0  0  0  0
   -1.1446    0.3096   -2.2547 C   0  0  0  0  0  0  0  0  0  0  0  0
   -0.8846    0.6656   -3.5787 N   0  0  0  0  0  0  0  0  0  0  0  0
   -2.0744    0.9614   -4.1220 C   0  0  0  0  0  0  0  0  0  0  0  0
   -2.2168    1.2880   -5.1444 H   0  0  0  0  0  0  0  0  0  0  0  0
   -3.0575    0.7858   -3.2231 N   0  0  0  0  0  0  0  0  0  0  0  0
   -4.0434    0.9246   -3.3979 H   0  0  0  0  0  0  0  0  0  0  0  0
   -2.4903    0.3704   -2.0389 C   0  0  0  0  0  0  0  0  0  0  0  0
   -2.9969    0.1168   -1.1163 H   0  0  0  0  0  0  0  0  0  0  0  0
   -0.9851    1.3114    0.6698 C   0  0  0  0  0  0  0  0  0  0  0  0
   -2.0377    1.8431    0.3168 O   0  0  0  0  0  0  0  0  0  0  0  0
   -0.1052    1.9265    1.4663 N   0  0  0  0  0  0  0  0  0  0  0  0
    0.7810    1.4586    1.6201 H   0  0  0  0  0  0  0  0  0  0  0  0
   -0.2724    3.2715    2.0119 C   0  0  0  0  0  0  0  0  0  0  0  0
   -1.3249    3.4549    2.2426 H   0  0  0  0  0  0  0  0  0  0  0  0
    0.3167    3.3776    2.9239 H   0  0  0  0  0  0  0  0  0  0  0  0
    0.0609    4.0073    1.2782 H   0  0  0  0  0  0  0  0  0  0  0  0
  5  6  2  0  0  0  0
  5  7  1  0  0  0  0
  2  3  1  0  0  0  0
  2  4  1  0  0  0  0
  2  5  1  0  0  0  0
  1  2  1  0  0  0  0
 22 23  2  0  0  0  0
 22 24  1  0  0  0  0
 20 21  1  0  0  0  0
 18 19  1  0  0  0  0
 18 20  1  0  0  0  0
 16 17  1  0  0  0  0
 16 18  1  0  0  0  0
 15 16  2  0  0  0  0
 14 15  1  0  0  0  0
 14 20  2  0  0  0  0
 11 12  1  0  0  0  0
 11 13  1  0  0  0  0
 11 14  1  0  0  0  0
  9 10  1  0  0  0  0
  9 11  1  0  0  0  0
  9 22  1  0  0  0  0
  7  8  1  0  0  0  0
  7  9  1  0  0  0  0
 26 27  1  0  0  0  0
 26 28  1  0  0  0  0
 26 29  1  0  0  0  0
 24 25  1  0  0  0  0
 24 26  1  0  0  0  0
M  END
$$$$
default_name
  -OEChem-02102213163D

 29 29  0     1  0  0  0  0  0999 V2000
   -2.9561   -3.9186    1.3887 H   0  0  0  0  0  0  0  0  0  0  0  0
   -3.1191   -2.9346    0.9517 C   0  0  0  0  0  0  0  0  0  0  0  0
   -3.7811   -2.3546    1.5917 H   0  0  0  0  0  0  0  0  0  0  0  0
   -3.5591   -3.0406   -0.0383 H   0  0  0  0  0  0  0  0  0  0  0  0
   -1.7921   -2.2226    0.8327 C   0  0  0  0  0  0  0  0  0  0  0  0
   -0.7611   -2.7766    1.1927 O   0  0  0  0  0  0  0  0  0  0  0  0
   -1.8201   -0.9926    0.3247 N   0  0  0  0  0  0  0  0  0  0  0  0
   -2.7141   -0.5816    0.0927 H   0  0  0  0  0  0  0  0  0  0  0  0
   -0.6481   -0.1156    0.2017 C   0  0  1  0  0  0  0  0  0  0  0  0
    0.1344   -0.4988    0.8596 H   0  0  0  0  0  0  0  0  0  0  0  0
   -0.1211   -0.1520   -1.2460 C   0  0  0  0  0  0  0  0  0  0  0  0
    0.8804    0.2790   -1.2852 H   0  0  0  0  0  0  0  0  0  0  0  0
   -0.0471   -1.1859   -1.5859 H   0  0  0  0  0  0  0  0  0  0  0  0
   -0.9845    0.6315   -2.2045 C   0  0  0  0  0  0  0  0  0  0  0  0
   -0.7594    0.7792   -3.5738 N   0  0  0  0  0  0  0  0  0  0  0  0
   -1.7863    1.5042   -4.0408 C   0  0  0  0  0  0  0  0  0  0  0  0
   -1.9039    1.8052   -5.0741 H   0  0  0  0  0  0  0  0  0  0  0  0
   -2.6462    1.7928   -3.0495 N   0  0  0  0  0  0  0  0  0  0  0  0
   -3.5076    2.3115   -3.1531 H   0  0  0  0  0  0  0  0  0  0  0  0
   -2.1590    1.2466   -1.8829 C   0  0  0  0  0  0  0  0  0  0  0  0
   -2.6141    1.2712   -0.9008 H   0  0  0  0  0  0  0  0  0  0  0  0
   -0.9851    1.3114    0.6698 C   0  0  0  0  0  0  0  0  0  0  0  0
   -2.0377    1.8431    0.3168 O   0  0  0  0  0  0  0  0  0  0  0  0
   -0.1052    1.9265    1.4663 N   0  0  0  0  0  0  0  0  0  0  0  0
    0.7810    1.4586    1.6201 H   0  0  0  0  0  0  0  0  0  0  0  0
   -0.2724    3.2715    2.0119 C   0  0  0  0  0  0  0  0  0  0  0  0
   -1.3249    3.4549    2.2426 H   0  0  0  0  0  0  0  0  0  0  0  0
    0.3167    3.3776    2.9239 H   0  0  0  0  0  0  0  0  0  0  0  0
    0.0609    4.0073    1.2782 H   0  0  0  0  0  0  0  0  0  0  0  0
  5  6  2  0  0  0  0
  5  7  1  0  0  0  0
  2  3  1  0  0  0  0
  2  4  1  0  0  0  0
  2  5  1  0  0  0  0
  1  2  1  0  0  0  0
 22 23  2  0  0  0  0
 22 24  1  0  0  0  0
 20 21  1  0  0  0  0
 18 19  1  0  0  0  0
 18 20  1  0  0  0  0
 16 17  1  0  0  0  0
 16 18  1  0  0  0  0
 15 16  2  0  0  0  0
 14 15  1  0  0  0  0
 14 20  2  0  0  0  0
 11 12  1  0  0  0  0
 11 13  1  0  0  0  0
 11 14  1  0  0  0  0
  9 10  1  0  0  0  0
  9 11  1  0  0  0  0
  9 22  1  0  0  0  0
  7  8  1  0  0  0  0
  7  9  1  0  0  0  0
 26 27  1  0  0  0  0
 26 28  1  0  0  0  0
 26 29  1  0  0  0  0
 24 25  1  0  0  0  0
 24 26  1  0  0  0  0
M  END
$$$$
default_name
  -OEChem-02102213163D

 29 29  0     1  0  0  0  0  0999 V2000
   -2.9561   -3.9186    1.3887 H   0  0  0  0  0  0  0  0  0  0  0  0
   -3.1191   -2.9346    0.9517 C   0  0  0  0  0  0  0  0  0  0  0  0
   -3.7811   -2.3546    1.5917 H   0  0  0  0  0  0  0  0  0  0  0  0
   -3.5591   -3.0406   -0.0383 H   0  0  0  0  0  0  0  0  0  0  0  0
   -1.7921   -2.2226    0.8327 C   0  0  0  0  0  0  0  0  0  0  0  0
   -0.7611   -2.7766    1.1927 O   0  0  0  0  0  0  0  0  0  0  0  0
   -1.8201   -0.9926    0.3247 N   0  0  0  0  0  0  0  0  0  0  0  0
   -2.7141   -0.5816    0.0927 H   0  0  0  0  0  0  0  0  0  0  0  0
   -0.6481   -0.1156    0.2017 C   0  0  1  0  0  0  0  0  0  0  0  0
    0.1344   -0.4988    0.8596 H   0  0  0  0  0  0  0  0  0  0  0  0
   -0.1211   -0.1520   -1.2460 C   0  0  0  0  0  0  0  0  0  0  0  0
    0.8804    0.2790   -1.2852 H   0  0  0  0  0  0  0  0  0  0  0  0
   -0.0471   -1.1859   -1.5859 H   0  0  0  0  0  0  0  0  0  0  0  0
   -0.9845    0.6315   -2.2045 C   0  0  0  0  0  0  0  0  0  0  0  0
   -0.9427    0.5489   -3.5969 N   0  0  0  0  0  0  0  0  0  0  0  0
   -1.9027    1.3712   -4.0447 C   0  0  0  0  0  0  0  0  0  0  0  0
   -2.1228    1.5438   -5.0906 H   0  0  0  0  0  0  0  0  0  0  0  0
   -2.5530    1.9382   -3.0146 N   0  0  0  0  0  0  0  0  0  0  0  0
   -3.3298    2.5801   -3.0937 H   0  0  0  0  0  0  0  0  0  0  0  0
   -1.9900    1.4802   -1.8442 C   0  0  0  0  0  0  0  0  0  0  0  0
   -2.2867    1.7180   -0.8304 H   0  0  0  0  0  0  0  0  0  0  0  0
   -0.9851    1.3114    0.6698 C   0  0  0  0  0  0  0  0  0  0  0  0
   -2.0377    1.8431    0.3168 O   0  0  0  0  0  0  0  0  0  0  0  0
   -0.1052    1.9265    1.4663 N   0  0  0  0  0  0  0  0  0  0  0  0
    0.7810    1.4586    1.6201 H   0  0  0  0  0  0  0  0  0  0  0  0
   -0.2724    3.2715    2.0119 C   0  0  0  0  0  0  0  0  0  0  0  0
   -1.3249    3.4549    2.2426 H   0  0  0  0  0  0  0  0  0  0  0  0
    0.3167    3.3776    2.9239 H   0  0  0  0  0  0  0  0  0  0  0  0
    0.0609    4.0073    1.2782 H   0  0  0  0  0  0  0  0  0  0  0  0
  5  6  2  0  0  0  0
  5  7  1  0  0  0  0
  2  3  1  0  0  0  0
  2  4  1  0  0  0  0
  2  5  1  0  0  0  0
  1  2  1  0  0  0  0
 22 23  2  0  0  0  0
 22 24  1  0  0  0  0
 20 21  1  0  0  0  0
 18 19  1  0  0  0  0
 18 20  1  0  0  0  0
 16 17  1  0  0  0  0
 16 18  1  0  0  0  0
 15 16  2  0  0  0  0
 14 15  1  0  0  0  0
 14 20  2  0  0  0  0
 11 12  1  0  0  0  0
 11 13  1  0  0  0  0
 11 14  1  0  0  0  0
  9 10  1  0  0  0  0
  9 11  1  0  0  0  0
  9 22  1  0  0  0  0
  7  8  1  0  0  0  0
  7  9  1  0  0  0  0
 26 27  1  0  0  0  0
 26 28  1  0  0  0  0
 26 29  1  0  0  0  0
 24 25  1  0  0  0  0
 24 26  1  0  0  0  0
M  END
$$$$
default_name
  -OEChem-02102213163D

 29 29  0     1  0  0  0  0  0999 V2000
   -2.9561   -3.9186    1.3887 H   0  0  0  0  0  0  0  0  0  0  0  0
   -3.1191   -2.9346    0.9517 C   0  0  0  0  0  0  0  0  0  0  0  0
   -3.7811   -2.3546    1.5917 H   0  0  0  0  0  0  0  0  0  0  0  0
   -3.5591   -3.0406   -0.0383 H   0  0  0  0  0  0  0  0  0  0  0  0
   -1.7921   -2.2226    0.8327 C   0  0  0  0  0  0  0  0  0  0  0  0
   -0.7611   -2.7766    1.1927 O   0  0  0  0  0  0  0  0  0  0  0  0
   -1.8201   -0.9926    0.3247 N   0  0  0  0  0  0  0  0  0  0  0  0
   -2.7141   -0.5816    0.0927 H   0  0  0  0  0  0  0  0  0  0  0  0
   -0.6481   -0.1156    0.2017 C   0  0  1  0  0  0  0  0  0  0  0  0
    0.1344   -0.4988    0.8596 H   0  0  0  0  0  0  0  0  0  0  0  0
   -0.1211   -0.1520   -1.2460 C   0  0  0  0  0  0  0  0  0  0  0  0
    0.8804    0.2790   -1.2852 H   0  0  0  0  0  0  0  0  0  0  0  0
   -0.0471   -1.1859   -1.5859 H   0  0  0  0  0  0  0  0  0  0  0  0
   -0.9845    0.6315   -2.2045 C   0  0  0  0  0  0  0  0  0  0  0  0
   -1.1607    0.3532   -3.5606 N   0  0  0  0  0  0  0  0  0  0  0  0
   -2.0376    1.2612   -4.0131 C   0  0  0  0  0  0  0  0  0  0  0  0
   -2.3794    1.3248   -5.0384 H   0  0  0  0  0  0  0  0  0  0  0  0
   -2.4343    2.0685   -3.0150 N   0  0  0  0  0  0  0  0  0  0  0  0
   -3.1060    2.8192   -3.0999 H   0  0  0  0  0  0  0  0  0  0  0  0
   -1.7832    1.6839   -1.8641 C   0  0  0  0  0  0  0  0  0  0  0  0
   -1.8877    2.1062   -0.8726 H   0  0  0  0  0  0  0  0  0  0  0  0
   -0.9851    1.3114    0.6698 C   0  0  0  0  0  0  0  0  0  0  0  0
   -2.0377    1.8431    0.3168 O   0  0  0  0  0  0  0  0  0  0  0  0
   -0.1052    1.9265    1.4663 N   0  0  0  0  0  0  0  0  0  0  0  0
    0.7810    1.4586    1.6201 H   0  0  0  0  0  0  0  0  0  0  0  0
   -0.2724    3.2715    2.0119 C   0  0  0  0  0  0  0  0  0  0  0  0
   -1.3249    3.4549    2.2426 H   0  0  0  0  0  0  0  0  0  0  0  0
    0.3167    3.3776    2.9239 H   0  0  0  0  0  0  0  0  0  0  0  0
    0.0609    4.0073    1.2782 H   0  0  0  0  0  0  0  0  0  0  0  0
  5  6  2  0  0  0  0
  5  7  1  0  0  0  0
  2  3  1  0  0  0  0
  2  4  1  0  0  0  0
  2  5  1  0  0  0  0
  1  2  1  0  0  0  0
 22 23  2  0  0  0  0
 22 24  1  0  0  0  0
 20 21  1  0  0  0  0
 18 19  1  0  0  0  0
 18 20  1  0  0  0  0
 16 17  1  0  0  0  0
 16 18  1  0  0  0  0
 15 16  2  0  0  0  0
 14 15  1  0  0  0  0
 14 20  2  0  0  0  0
 11 12  1  0  0  0  0
 11 13  1  0  0  0  0
 11 14  1  0  0  0  0
  9 10  1  0  0  0  0
  9 11  1  0  0  0  0
  9 22  1  0  0  0  0
  7  8  1  0  0  0  0
  7  9  1  0  0  0  0
 26 27  1  0  0  0  0
 26 28  1  0  0  0  0
 26 29  1  0  0  0  0
 24 25  1  0  0  0  0
 24 26  1  0  0  0  0
M  END
$$$$
default_name
  -OEChem-02102213163D

 29 29  0     1  0  0  0  0  0999 V2000
   -2.9561   -3.9186    1.3887 H   0  0  0  0  0  0  0  0  0  0  0  0
   -3.1191   -2.9346    0.9517 C   0  0  0  0  0  0  0  0  0  0  0  0
   -3.7811   -2.3546    1.5917 H   0  0  0  0  0  0  0  0  0  0  0  0
   -3.5591   -3.0406   -0.0383 H   0  0  0  0  0  0  0  0  0  0  0  0
   -1.7921   -2.2226    0.8327 C   0  0  0  0  0  0  0  0  0  0  0  0
   -0.7611   -2.7766    1.1927 O   0  0  0  0  0  0  0  0  0  0  0  0
   -1.8201   -0.9926    0.3247 N   0  0  0  0  0  0  0  0  0  0  0  0
   -2.7141   -0.5816    0.0927 H   0  0  0  0  0  0  0  0  0  0  0  0
   -0.6481   -0.1156    0.2017 C   0  0  1  0  0  0  0  0  0  0  0  0
    0.1344   -0.4988    0.8596 H   0  0  0  0  0  0  0  0  0  0  0  0
   -0.1211   -0.1520   -1.2460 C   0  0  0  0  0  0  0  0  0  0  0  0
    0.8804    0.2790   -1.2852 H   0  0  0  0  0  0  0  0  0  0  0  0
   -0.0471   -1.1859   -1.5859 H   0  0  0  0  0  0  0  0  0  0  0  0
   -0.9845    0.6315   -2.2045 C   0  0  0  0  0  0  0  0  0  0  0  0
   -1.3985    0.2053   -3.4672 N   0  0  0  0  0  0  0  0  0  0  0  0
   -2.1816    1.1819   -3.9482 C   0  0  0  0  0  0  0  0  0  0  0  0
   -2.6563    1.1632   -4.9211 H   0  0  0  0  0  0  0  0  0  0  0  0
   -2.2983    2.1748   -3.0506 N   0  0  0  0  0  0  0  0  0  0  0  0
   -2.8512    3.0124   -3.1715 H   0  0  0  0  0  0  0  0  0  0  0  0
   -1.5526    1.8436   -1.9412 C   0  0  0  0  0  0  0  0  0  0  0  0
   -1.4441    2.4093   -1.0244 H   0  0  0  0  0  0  0  0  0  0  0  0
   -0.9851    1.3114    0.6698 C   0  0  0  0  0  0  0  0  0  0  0  0
   -2.0377    1.8431    0.3168 O   0  0  0  0  0  0  0  0  0  0  0  0
   -0.1052    1.9265    1.4663 N   0  0  0  0  0  0  0  0  0  0  0  0
    0.7810    1.4586    1.6201 H   0  0  0  0  0  0  0  0  0  0  0  0
   -0.2724    3.2715    2.0119 C   0  0  0  0  0  0  0  0  0  0  0  0
   -1.3249    3.4549    2.2426 H   0  0  0  0  0  0  0  0  0  0  0  0
    0.3167    3.3776    2.9239 H   0  0  0  0  0  0  0  0  0  0  0  0
    0.0609    4.0073    1.2782 H   0  0  0  0  0  0  0  0  0  0  0  0
  5  6  2  0  0  0  0
  5  7  1  0  0  0  0
  2  3  1  0  0  0  0
  2  4  1  0  0  0  0
  2  5  1  0  0  0  0
  1  2  1  0  0  0  0
 22 23  2  0  0  0  0
 22 24  1  0  0  0  0
 20 21  1  0  0  0  0
 18 19  1  0  0  0  0
 18 20  1  0  0  0  0
 16 17  1  0  0  0  0
 16 18  1  0  0  0  0
 15 16  2  0  0  0  0
 14 15  1  0  0  0  0
 14 20  2  0  0  0  0
 11 12  1  0  0  0  0
 11 13  1  0  0  0  0
 11 14  1  0  0  0  0
  9 10  1  0  0  0  0
  9 11  1  0  0  0  0
  9 22  1  0  0  0  0
  7  8  1  0  0  0  0
  7  9  1  0  0  0  0
 26 27  1  0  0  0  0
 26 28  1  0  0  0  0
 26 29  1  0  0  0  0
 24 25  1  0  0  0  0
 24 26  1  0  0  0  0
M  END
$$$$
default_name
  -OEChem-02102213163D

 29 29  0     1  0  0  0  0  0999 V2000
   -2.9561   -3.9186    1.3887 H   0  0  0  0  0  0  0  0  0  0  0  0
   -3.1191   -2.9346    0.9517 C   0  0  0  0  0  0  0  0  0  0  0  0
   -3.7811   -2.3546    1.5917 H   0  0  0  0  0  0  0  0  0  0  0  0
   -3.5591   -3.0406   -0.0383 H   0  0  0  0  0  0  0  0  0  0  0  0
   -1.7921   -2.2226    0.8327 C   0  0  0  0  0  0  0  0  0  0  0  0
   -0.7611   -2.7766    1.1927 O   0  0  0  0  0  0  0  0  0  0  0  0
   -1.8201   -0.9926    0.3247 N   0  0  0  0  0  0  0  0  0  0  0  0
   -2.7141   -0.5816    0.0927 H   0  0  0  0  0  0  0  0  0  0  0  0
   -0.6481   -0.1156    0.2017 C   0  0  1  0  0  0  0  0  0  0  0  0
    0.1344   -0.4988    0.8596 H   0  0  0  0  0  0  0  0  0  0  0  0
   -0.1211   -0.1520   -1.2460 C   0  0  0  0  0  0  0  0  0  0  0  0
    0.8804    0.2790   -1.2852 H   0  0  0  0  0  0  0  0  0  0  0  0
   -0.0471   -1.1859   -1.5859 H   0  0  0  0  0  0  0  0  0  0  0  0
   -0.9845    0.6315   -2.2045 C   0  0  0  0  0  0  0  0  0  0  0  0
   -1.6400    0.1154   -3.3231 N   0  0  0  0  0  0  0  0  0  0  0  0
   -2.3251    1.1385   -3.8544 C   0  0  0  0  0  0  0  0  0  0  0  0
   -2.9345    1.0700   -4.7467 H   0  0  0  0  0  0  0  0  0  0  0  0
   -2.1543    2.2499   -3.1189 N   0  0  0  0  0  0  0  0  0  0  0  0
   -2.5830    3.1466   -3.3034 H   0  0  0  0  0  0  0  0  0  0  0  0
   -1.3139    1.9486   -2.0703 C   0  0  0  0  0  0  0  0  0  0  0  0
   -0.9861    2.6067   -1.2755 H   0  0  0  0  0  0  0  0  0  0  0  0
   -0.9851    1.3114    0.6698 C   0  0  0  0  0  0  0  0  0  0  0  0
   -2.0377    1.8431    0.3168 O   0  0  0  0  0  0  0  0  0  0  0  0
   -0.1052    1.9265    1.4663 N   0  0  0  0  0  0  0  0  0  0  0  0
    0.7810    1.4586    1.6201 H   0  0  0  0  0  0  0  0  0  0  0  0
   -0.2724    3.2715    2.0119 C   0  0  0  0  0  0  0  0  0  0  0  0
   -1.3249    3.4549    2.2426 H   0  0  0  0  0  0  0  0  0  0  0  0
    0.3167    3.3776    2.9239 H   0  0  0  0  0  0  0  0  0  0  0  0
    0.0609    4.0073    1.2782 H   0  0  0  0  0  0  0  0  0  0  0  0
  5  6  2  0  0  0  0
  5  7  1  0  0  0  0
  2  3  1  0  0  0  0
  2  4  1  0  0  0  0
  2  5  1  0  0  0  0
  1  2  1  0  0  0  0
 22 23  2  0  0  0  0
 22 24  1  0  0  0  0
 20 21  1  0  0  0  0
 18 19  1  0  0  0  0
 18 20  1  0  0  0  0
 16 17  1  0  0  0  0
 16 18  1  0  0  0  0
 15 16  2  0  0  0  0
 14 15  1  0  0  0  0
 14 20  2  0  0  0  0
 11 12  1  0  0  0  0
 11 13  1  0  0  0  0
 11 14  1  0  0  0  0
  9 10  1  0  0  0  0
  9 11  1  0  0  0  0
  9 22  1  0  0  0  0
  7  8  1  0  0  0  0
  7  9  1  0  0  0  0
 26 27  1  0  0  0  0
 26 28  1  0  0  0  0
 26 29  1  0  0  0  0
 24 25  1  0  0  0  0
 24 26  1  0  0  0  0
M  END
$$$$
default_name
  -OEChem-02102213163D

 29 29  0     1  0  0  0  0  0999 V2000
   -2.9561   -3.9186    1.3887 H   0  0  0  0  0  0  0  0  0  0  0  0
   -3.1191   -2.9346    0.9517 C   0  0  0  0  0  0  0  0  0  0  0  0
   -3.7811   -2.3546    1.5917 H   0  0  0  0  0  0  0  0  0  0  0  0
   -3.5591   -3.0406   -0.0383 H   0  0  0  0  0  0  0  0  0  0  0  0
   -1.7921   -2.2226    0.8327 C   0  0  0  0  0  0  0  0  0  0  0  0
   -0.7611   -2.7766    1.1927 O   0  0  0  0  0  0  0  0  0  0  0  0
   -1.8201   -0.9926    0.3247 N   0  0  0  0  0  0  0  0  0  0  0  0
   -2.7141   -0.5816    0.0927 H   0  0  0  0  0  0  0  0  0  0  0  0
   -0.6481   -0.1156    0.2017 C   0  0  1  0  0  0  0  0  0  0  0  0
    0.1344   -0.4988    0.8596 H   0  0  0  0  0  0  0  0  0  0  0  0
   -0.1211   -0.1520   -1.2460 C   0  0  0  0  0  0  0  0  0  0  0  0
    0.8804    0.2790   -1.2852 H   0  0  0  0  0  0  0  0  0  0  0  0
   -0.0471   -1.1859   -1.5859 H   0  0  0  0  0  0  0  0  0  0  0  0
   -0.9845    0.6315   -2.2045 C   0  0  0  0  0  0  0  0  0  0  0  0
   -1.8687    0.0896   -3.1382 N   0  0  0  0  0  0  0  0  0  0  0  0
   -2.4583    1.1341   -3.7381 C   0  0  0  0  0  0  0  0  0  0  0  0
   -3.1952    1.0516   -4.5270 H   0  0  0  0  0  0  0  0  0  0  0  0
   -2.0120    2.2887   -3.2155 N   0  0  0  0  0  0  0  0  0  0  0  0
   -2.3197    3.2126   -3.4867 H   0  0  0  0  0  0  0  0  0  0  0  0
   -1.0835    1.9916   -2.2427 C   0  0  0  0  0  0  0  0  0  0  0  0
   -0.5451    2.6850   -1.6088 H   0  0  0  0  0  0  0  0  0  0  0  0
   -0.9851    1.3114    0.6698 C   0  0  0  0  0  0  0  0  0  0  0  0
   -2.0377    1.8431    0.3168 O   0  0  0  0  0  0  0  0  0  0  0  0
   -0.1052    1.9265    1.4663 N   0  0  0  0  0  0  0  0  0  0  0  0
    0.7810    1.4586    1.6201 H   0  0  0  0  0  0  0  0  0  0  0  0
   -0.2724    3.2715    2.0119 C   0  0  0  0  0  0  0  0  0  0  0  0
   -1.3249    3.4549    2.2426 H   0  0  0  0  0  0  0  0  0  0  0  0
    0.3167    3.3776    2.9239 H   0  0  0  0  0  0  0  0  0  0  0  0
    0.0609    4.0073    1.2782 H   0  0  0  0  0  0  0  0  0  0  0  0
  5  6  2  0  0  0  0
  5  7  1  0  0  0  0
  2  3  1  0  0  0  0
  2  4  1  0  0  0  0
  2  5  1  0  0  0  0
  1  2  1  0  0  0  0
 22 23  2  0  0  0  0
 22 24  1  0  0  0  0
 20 21  1  0  0  0  0
 18 19  1  0  0  0  0
 18 20  1  0  0  0  0
 16 17  1  0  0  0  0
 16 18  1  0  0  0  0
 15 16  2  0  0  0  0
 14 15  1  0  0  0  0
 14 20  2  0  0  0  0
 11 12  1  0  0  0  0
 11 13  1  0  0  0  0
 11 14  1  0  0  0  0
  9 10  1  0  0  0  0
  9 11  1  0  0  0  0
  9 22  1  0  0  0  0
  7  8  1  0  0  0  0
  7  9  1  0  0  0  0
 26 27  1  0  0  0  0
 26 28  1  0  0  0  0
 26 29  1  0  0  0  0
 24 25  1  0  0  0  0
 24 26  1  0  0  0  0
M  END
$$$$
default_name
  -OEChem-02102213163D

 29 29  0     1  0  0  0  0  0999 V2000
   -2.9561   -3.9186    1.3887 H   0  0  0  0  0  0  0  0  0  0  0  0
   -3.1191   -2.9346    0.9517 C   0  0  0  0  0  0  0  0  0  0  0  0
   -3.7811   -2.3546    1.5917 H   0  0  0  0  0  0  0  0  0  0  0  0
   -3.5591   -3.0406   -0.0383 H   0  0  0  0  0  0  0  0  0  0  0  0
   -1.7921   -2.2226    0.8327 C   0  0  0  0  0  0  0  0  0  0  0  0
   -0.7611   -2.7766    1.1927 O   0  0  0  0  0  0  0  0  0  0  0  0
   -1.8201   -0.9926    0.3247 N   0  0  0  0  0  0  0  0  0  0  0  0
   -2.7141   -0.5816    0.0927 H   0  0  0  0  0  0  0  0  0  0  0  0
   -0.6481   -0.1156    0.2017 C   0  0  1  0  0  0  0  0  0  0  0  0
    0.1344   -0.4988    0.8596 H   0  0  0  0  0  0  0  0  0  0  0  0
   -0.1211   -0.1520   -1.2460 C   0  0  0  0  0  0  0  0  0  0  0  0
    0.8804    0.2790   -1.2852 H   0  0  0  0  0  0  0  0  0  0  0  0
   -0.0471   -1.1859   -1.5859 H   0  0  0  0  0  0  0  0  0  0  0  0
   -0.9845    0.6315   -2.2045 C   0  0  0  0  0  0  0  0  0  0  0  0
   -2.0691    0.1296   -2.9251 N   0  0  0  0  0  0  0  0  0  0  0  0
   -2.5720    1.1689   -3.6072 C   0  0  0  0  0  0  0  0  0  0  0  0
   -3.4205    1.1091   -4.2770 H   0  0  0  0  0  0  0  0  0  0  0  0
   -1.8811    2.2884   -3.3336 N   0  0  0  0  0  0  0  0  0  0  0  0
   -2.0790    3.2059   -3.7089 H   0  0  0  0  0  0  0  0  0  0  0  0
   -0.8770    1.9698   -2.4465 C   0  0  0  0  0  0  0  0  0  0  0  0
   -0.1510    2.6387   -2.0016 H   0  0  0  0  0  0  0  0  0  0  0  0
   -0.9851    1.3114    0.6698 C   0  0  0  0  0  0  0  0  0  0  0  0
   -2.0377    1.8431    0.3168 O   0  0  0  0  0  0  0  0  0  0  0  0
   -0.1052    1.9265    1.4663 N   0  0  0  0  0  0  0  0  0  0  0  0
    0.7810    1.4586    1.6201 H   0  0  0  0  0  0  0  0  0  0  0  0
   -0.2724    3.2715    2.0119 C   0  0  0  0  0  0  0  0  0  0  0  0
   -1.3249    3.4549    2.2426 H   0  0  0  0  0  0  0  0  0  0  0  0
    0.3167    3.3776    2.9239 H   0  0  0  0  0  0  0  0  0  0  0  0
    0.0609    4.0073    1.2782 H   0  0  0  0  0  0  0  0  0  0  0  0
  5  6  2  0  0  0  0
  5  7  1  0  0  0  0
  2  3  1  0  0  0  0
  2  4  1  0  0  0  0
  2  5  1  0  0  0  0
  1  2  1  0  0  0  0
 22 23  2  0  0  0  0
 22 24  1  0  0  0  0
 20 21  1  0  0  0  0
 18 19  1  0  0  0  0
 18 20  1  0  0  0  0
 16 17  1  0  0  0  0
 16 18  1  0  0  0  0
 15 16  2  0  0  0  0
 14 15  1  0  0  0  0
 14 20  2  0  0  0  0
 11 12  1  0  0  0  0
 11 13  1  0  0  0  0
 11 14  1  0  0  0  0
  9 10  1  0  0  0  0
  9 11  1  0  0  0  0
  9 22  1  0  0  0  0
  7  8  1  0  0  0  0
  7  9  1  0  0  0  0
 26 27  1  0  0  0  0
 26 28  1  0  0  0  0
 26 29  1  0  0  0  0
 24 25  1  0  0  0  0
 24 26  1  0  0  0  0
M  END
$$$$
default_name
  -OEChem-02102213163D

 29 29  0     1  0  0  0  0  0999 V2000
   -2.9561   -3.9186    1.3887 H   0  0  0  0  0  0  0  0  0  0  0  0
   -3.1191   -2.9346    0.9517 C   0  0  0  0  0  0  0  0  0  0  0  0
   -3.7811   -2.3546    1.5917 H   0  0  0  0  0  0  0  0  0  0  0  0
   -3.5591   -3.0406   -0.0383 H   0  0  0  0  0  0  0  0  0  0  0  0
   -1.7921   -2.2226    0.8327 C   0  0  0  0  0  0  0  0  0  0  0  0
   -0.7611   -2.7766    1.1927 O   0  0  0  0  0  0  0  0  0  0  0  0
   -1.8201   -0.9926    0.3247 N   0  0  0  0  0  0  0  0  0  0  0  0
   -2.7141   -0.5816    0.0927 H   0  0  0  0  0  0  0  0  0  0  0  0
   -0.6481   -0.1156    0.2017 C   0  0  1  0  0  0  0  0  0  0  0  0
    0.1344   -0.4988    0.8596 H   0  0  0  0  0  0  0  0  0  0  0  0
   -0.1211   -0.1520   -1.2460 C   0  0  0  0  0  0  0  0  0  0  0  0
    0.8804    0.2790   -1.2852 H   0  0  0  0  0  0  0  0  0  0  0  0
   -0.0471   -1.1859   -1.5859 H   0  0  0  0  0  0  0  0  0  0  0  0
   -0.9845    0.6315   -2.2045 C   0  0  0  0  0  0  0  0  0  0  0  0
   -2.2273    0.2328   -2.6982 N   0  0  0  0  0  0  0  0  0  0  0  0
   -2.6585    1.2406   -3.4706 C   0  0  0  0  0  0  0  0  0  0  0  0
   -3.5950    1.2387   -4.0139 H   0  0  0  0  0  0  0  0  0  0  0  0
   -1.7706    2.2491   -3.4652 N   0  0  0  0  0  0  0  0  0  0  0  0
   -1.8776    3.1270   -3.9549 H   0  0  0  0  0  0  0  0  0  0  0  0
   -0.7086    1.8847   -2.6678 C   0  0  0  0  0  0  0  0  0  0  0  0
    0.1693    2.4710   -2.4271 H   0  0  0  0  0  0  0  0  0  0  0  0
   -0.9851    1.3114    0.6698 C   0  0  0  0  0  0  0  0  0  0  0  0
   -2.0377    1.8431    0.3168 O   0  0  0  0  0  0  0  0  0  0  0  0
   -0.1052    1.9265    1.4663 N   0  0  0  0  0  0  0  0  0  0  0  0
    0.7810    1.4586    1.6201 H   0  0  0  0  0  0  0  0  0  0  0  0
   -0.2724    3.2715    2.0119 C   0  0  0  0  0  0  0  0  0  0  0  0
   -1.3249    3.4549    2.2426 H   0  0  0  0  0  0  0  0  0  0  0  0
    0.3167    3.3776    2.9239 H   0  0  0  0  0  0  0  0  0  0  0  0
    0.0609    4.0073    1.2782 H   0  0  0  0  0  0  0  0  0  0  0  0
  5  6  2  0  0  0  0
  5  7  1  0  0  0  0
  2  3  1  0  0  0  0
  2  4  1  0  0  0  0
  2  5  1  0  0  0  0
  1  2  1  0  0  0  0
 22 23  2  0  0  0  0
 22 24  1  0  0  0  0
 20 21  1  0  0  0  0
 18 19  1  0  0  0  0
 18 20  1  0  0  0  0
 16 17  1  0  0  0  0
 16 18  1  0  0  0  0
 15 16  2  0  0  0  0
 14 15  1  0  0  0  0
 14 20  2  0  0  0  0
 11 12  1  0  0  0  0
 11 13  1  0  0  0  0
 11 14  1  0  0  0  0
  9 10  1  0  0  0  0
  9 11  1  0  0  0  0
  9 22  1  0  0  0  0
  7  8  1  0  0  0  0
  7  9  1  0  0  0  0
 26 27  1  0  0  0  0
 26 28  1  0  0  0  0
 26 29  1  0  0  0  0
 24 25  1  0  0  0  0
 24 26  1  0  0  0  0
M  END
$$$$
default_name
  -OEChem-02102213163D

 29 29  0     1  0  0  0  0  0999 V2000
   -2.9561   -3.9186    1.3887 H   0  0  0  0  0  0  0  0  0  0  0  0
   -3.1191   -2.9346    0.9517 C   0  0  0  0  0  0  0  0  0  0  0  0
   -3.7811   -2.3546    1.5917 H   0  0  0  0  0  0  0  0  0  0  0  0
   -3.5591   -3.0406   -0.0383 H   0  0  0  0  0  0  0  0  0  0  0  0
   -1.7921   -2.2226    0.8327 C   0  0  0  0  0  0  0  0  0  0  0  0
   -0.7611   -2.7766    1.1927 O   0  0  0  0  0  0  0  0  0  0  0  0
   -1.8201   -0.9926    0.3247 N   0  0  0  0  0  0  0  0  0  0  0  0
   -2.7141   -0.5816    0.0927 H   0  0  0  0  0  0  0  0  0  0  0  0
   -0.6481   -0.1156    0.2017 C   0  0  1  0  0  0  0  0  0  0  0  0
    0.1344   -0.4988    0.8596 H   0  0  0  0  0  0  0  0  0  0  0  0
   -0.1211   -0.1520   -1.2460 C   0  0  0  0  0  0  0  0  0  0  0  0
    0.8804    0.2790   -1.2852 H   0  0  0  0  0  0  0  0  0  0  0  0
   -0.0471   -1.1859   -1.5859 H   0  0  0  0  0  0  0  0  0  0  0  0
   -0.9845    0.6315   -2.2045 C   0  0  0  0  0  0  0  0  0  0  0  0
   -2.3328    0.3920   -2.4731 N   0  0  0  0  0  0  0  0  0  0  0  0
   -2.7119    1.3443   -3.3378 C   0  0  0  0  0  0  0  0  0  0  0  0
   -3.7070    1.4316   -3.7554 H   0  0  0  0  0  0  0  0  0  0  0  0
   -1.6881    2.1735   -3.6013 N   0  0  0  0  0  0  0  0  0  0  0  0
   -1.7290    2.9812   -4.2078 H   0  0  0  0  0  0  0  0  0  0  0  0
   -0.5896    1.7419   -2.8917 C   0  0  0  0  0  0  0  0  0  0  0  0
    0.3939    2.1935   -2.8563 H   0  0  0  0  0  0  0  0  0  0  0  0
   -0.9851    1.3114    0.6698 C   0  0  0  0  0  0  0  0  0  0  0  0
   -2.0377    1.8431    0.3168 O   0  0  0  0  0  0  0  0  0  0  0  0
   -0.1052    1.9265    1.4663 N   0  0  0  0  0  0  0  0  0  0  0  0
    0.7810    1.4586    1.6201 H   0  0  0  0  0  0  0  0  0  0  0  0
   -0.2724    3.2715    2.0119 C   0  0  0  0  0  0  0  0  0  0  0  0
   -1.3249    3.4549    2.2426 H   0  0  0  0  0  0  0  0  0  0  0  0
    0.3167    3.3776    2.9239 H   0  0  0  0  0  0  0  0  0  0  0  0
    0.0609    4.0073    1.2782 H   0  0  0  0  0  0  0  0  0  0  0  0
  5  6  2  0  0  0  0
  5  7  1  0  0  0  0
  2  3  1  0  0  0  0
  2  4  1  0  0  0  0
  2  5  1  0  0  0  0
  1  2  1  0  0  0  0
 22 23  2  0  0  0  0
 22 24  1  0  0  0  0
 20 21  1  0  0  0  0
 18 19  1  0  0  0  0
 18 20  1  0  0  0  0
 16 17  1  0  0  0  0
 16 18  1  0  0  0  0
 15 16  2  0  0  0  0
 14 15  1  0  0  0  0
 14 20  2  0  0  0  0
 11 12  1  0  0  0  0
 11 13  1  0  0  0  0
 11 14  1  0  0  0  0
  9 10  1  0  0  0  0
  9 11  1  0  0  0  0
  9 22  1  0  0  0  0
  7  8  1  0  0  0  0
  7  9  1  0  0  0  0
 26 27  1  0  0  0  0
 26 28  1  0  0  0  0
 26 29  1  0  0  0  0
 24 25  1  0  0  0  0
 24 26  1  0  0  0  0
M  END
$$$$
default_name
  -OEChem-02102213163D

 29 29  0     1  0  0  0  0  0999 V2000
   -2.9561   -3.9186    1.3887 H   0  0  0  0  0  0  0  0  0  0  0  0
   -3.1191   -2.9346    0.9517 C   0  0  0  0  0  0  0  0  0  0  0  0
   -3.7811   -2.3546    1.5917 H   0  0  0  0  0  0  0  0  0  0  0  0
   -3.5591   -3.0406   -0.0383 H   0  0  0  0  0  0  0  0  0  0  0  0
   -1.7921   -2.2226    0.8327 C   0  0  0  0  0  0  0  0  0  0  0  0
   -0.7611   -2.7766    1.1927 O   0  0  0  0  0  0  0  0  0  0  0  0
   -1.8201   -0.9926    0.3247 N   0  0  0  0  0  0  0  0  0  0  0  0
   -2.7141   -0.5816    0.0927 H   0  0  0  0  0  0  0  0  0  0  0  0
   -0.6481   -0.1156    0.2017 C   0  0  1  0  0  0  0  0  0  0  0  0
    0.1344   -0.4988    0.8596 H   0  0  0  0  0  0  0  0  0  0  0  0
   -0.1211   -0.1520   -1.2460 C   0  0  0  0  0  0  0  0  0  0  0  0
    0.8804    0.2790   -1.2852 H   0  0  0  0  0  0  0  0  0  0  0  0
   -0.0471   -1.1859   -1.5859 H   0  0  0  0  0  0  0  0  0  0  0  0
   -0.9845    0.6315   -2.2045 C   0  0  0  0  0  0  0  0  0  0  0  0
   -2.3782    0.5965   -2.2650 N   0  0  0  0  0  0  0  0  0  0  0  0
   -2.7286    1.4730   -3.2176 C   0  0  0  0  0  0  0  0  0  0  0  0
   -3.7487    1.6745   -3.5192 H   0  0  0  0  0  0  0  0  0  0  0  0
   -1.6390    2.0668   -3.7327 N   0  0  0  0  0  0  0  0  0  0  0  0
   -1.6434    2.7785   -4.4506 H   0  0  0  0  0  0  0  0  0  0  0  0
   -0.5281    1.5514   -3.1028 C   0  0  0  0  0  0  0  0  0  0  0  0
    0.5076    1.8249   -3.2600 H   0  0  0  0  0  0  0  0  0  0  0  0
   -0.9851    1.3114    0.6698 C   0  0  0  0  0  0  0  0  0  0  0  0
   -2.0377    1.8431    0.3168 O   0  0  0  0  0  0  0  0  0  0  0  0
   -0.1052    1.9265    1.4663 N   0  0  0  0  0  0  0  0  0  0  0  0
    0.7810    1.4586    1.6201 H   0  0  0  0  0  0  0  0  0  0  0  0
   -0.2724    3.2715    2.0119 C   0  0  0  0  0  0  0  0  0  0  0  0
   -1.3249    3.4549    2.2426 H   0  0  0  0  0  0  0  0  0  0  0  0
    0.3167    3.3776    2.9239 H   0  0  0  0  0  0  0  0  0  0  0  0
    0.0609    4.0073    1.2782 H   0  0  0  0  0  0  0  0  0  0  0  0
  5  6  2  0  0  0  0
  5  7  1  0  0  0  0
  2  3  1  0  0  0  0
  2  4  1  0  0  0  0
  2  5  1  0  0  0  0
  1  2  1  0  0  0  0
 22 23  2  0  0  0  0
 22 24  1  0  0  0  0
 20 21  1  0  0  0  0
 18 19  1  0  0  0  0
 18 20  1  0  0  0  0
 16 17  1  0  0  0  0
 16 18  1  0  0  0  0
 15 16  2  0  0  0  0
 14 15  1  0  0  0  0
 14 20  2  0  0  0  0
 11 12  1  0  0  0  0
 11 13  1  0  0  0  0
 11 14  1  0  0  0  0
  9 10  1  0  0  0  0
  9 11  1  0  0  0  0
  9 22  1  0  0  0  0
  7  8  1  0  0  0  0
  7  9  1  0  0  0  0
 26 27  1  0  0  0  0
 26 28  1  0  0  0  0
 26 29  1  0  0  0  0
 24 25  1  0  0  0  0
 24 26  1  0  0  0  0
M  END
$$$$
default_name
  -OEChem-02102213163D

 29 29  0     1  0  0  0  0  0999 V2000
   -2.9561   -3.9186    1.3887 H   0  0  0  0  0  0  0  0  0  0  0  0
   -3.1191   -2.9346    0.9517 C   0  0  0  0  0  0  0  0  0  0  0  0
   -3.7811   -2.3546    1.5917 H   0  0  0  0  0  0  0  0  0  0  0  0
   -3.5591   -3.0406   -0.0383 H   0  0  0  0  0  0  0  0  0  0  0  0
   -1.7921   -2.2226    0.8327 C   0  0  0  0  0  0  0  0  0  0  0  0
   -0.7611   -2.7766    1.1927 O   0  0  0  0  0  0  0  0  0  0  0  0
   -1.8201   -0.9926    0.3247 N   0  0  0  0  0  0  0  0  0  0  0  0
   -2.7141   -0.5816    0.0927 H   0  0  0  0  0  0  0  0  0  0  0  0
   -0.6481   -0.1156    0.2017 C   0  0  1  0  0  0  0  0  0  0  0  0
    0.1344   -0.4988    0.8596 H   0  0  0  0  0  0  0  0  0  0  0  0
   -0.1211   -0.1520   -1.2460 C   0  0  0  0  0  0  0  0  0  0  0  0
    0.8804    0.2790   -1.2852 H   0  0  0  0  0  0  0  0  0  0  0  0
   -0.0471   -1.1859   -1.5859 H   0  0  0  0  0  0  0  0  0  0  0  0
   -0.9845    0.6315   -2.2045 C   0  0  0  0  0  0  0  0  0  0  0  0
   -2.3605    0.8323   -2.0882 N   0  0  0  0  0  0  0  0  0  0  0  0
   -2.7075    1.6177   -3.1183 C   0  0  0  0  0  0  0  0  0  0  0  0
   -3.7174    1.9510   -3.3215 H   0  0  0  0  0  0  0  0  0  0  0  0
   -1.6268    1.9362   -3.8504 N   0  0  0  0  0  0  0  0  0  0  0  0
   -1.6266    2.5327   -4.6665 H   0  0  0  0  0  0  0  0  0  0  0  0
   -0.5285    1.3260   -3.2867 C   0  0  0  0  0  0  0  0  0  0  0  0
    0.5026    1.3904   -3.6106 H   0  0  0  0  0  0  0  0  0  0  0  0
   -0.9851    1.3114    0.6698 C   0  0  0  0  0  0  0  0  0  0  0  0
   -2.0377    1.8431    0.3168 O   0  0  0  0  0  0  0  0  0  0  0  0
   -0.1052    1.9265    1.4663 N   0  0  0  0  0  0  0  0  0  0  0  0
    0.7810    1.4586    1.6201 H   0  0  0  0  0  0  0  0  0  0  0  0
   -0.2724    3.2715    2.0119 C   0  0  0  0  0  0  0  0  0  0  0  0
   -1.3249    3.4549    2.2426 H   0  0  0  0  0  0  0  0  0  0  0  0
    0.3167    3.3776    2.9239 H   0  0  0  0  0  0  0  0  0  0  0  0
    0.0609    4.0073    1.2782 H   0  0  0  0  0  0  0  0  0  0  0  0
  5  6  2  0  0  0  0
  5  7  1  0  0  0  0
  2  3  1  0  0  0  0
  2  4  1  0  0  0  0
  2  5  1  0  0  0  0
  1  2  1  0  0  0  0
 22 23  2  0  0  0  0
 22 24  1  0  0  0  0
 20 21  1  0  0  0  0
 18 19  1  0  0  0  0
 18 20  1  0  0  0  0
 16 17  1  0  0  0  0
 16 18  1  0  0  0  0
 15 16  2  0  0  0  0
 14 15  1  0  0  0  0
 14 20  2  0  0  0  0
 11 12  1  0  0  0  0
 11 13  1  0  0  0  0
 11 14  1  0  0  0  0
  9 10  1  0  0  0  0
  9 11  1  0  0  0  0
  9 22  1  0  0  0  0
  7  8  1  0  0  0  0
  7  9  1  0  0  0  0
 26 27  1  0  0  0  0
 26 28  1  0  0  0  0
 26 29  1  0  0  0  0
 24 25  1  0  0  0  0
 24 26  1  0  0  0  0
M  END
$$$$
default_name
  -OEChem-02102213163D

 29 29  0     1  0  0  0  0  0999 V2000
   -2.9561   -3.9186    1.3887 H   0  0  0  0  0  0  0  0  0  0  0  0
   -3.1191   -2.9346    0.9517 C   0  0  0  0  0  0  0  0  0  0  0  0
   -3.7811   -2.3546    1.5917 H   0  0  0  0  0  0  0  0  0  0  0  0
   -3.5591   -3.0406   -0.0383 H   0  0  0  0  0  0  0  0  0  0  0  0
   -1.7921   -2.2226    0.8327 C   0  0  0  0  0  0  0  0  0  0  0  0
   -0.7611   -2.7766    1.1927 O   0  0  0  0  0  0  0  0  0  0  0  0
   -1.8201   -0.9926    0.3247 N   0  0  0  0  0  0  0  0  0  0  0  0
   -2.7141   -0.5816    0.0927 H   0  0  0  0  0  0  0  0  0  0  0  0
   -0.6481   -0.1156    0.2017 C   0  0  1  0  0  0  0  0  0  0  0  0
    0.1344   -0.4988    0.8596 H   0  0  0  0  0  0  0  0  0  0  0  0
   -0.1211   -0.1520   -1.2460 C   0  0  0  0  0  0  0  0  0  0  0  0
    0.8804    0.2790   -1.2852 H   0  0  0  0  0  0  0  0  0  0  0  0
   -0.0471   -1.1859   -1.5859 H   0  0  0  0  0  0  0  0  0  0  0  0
   -0.9845    0.6315   -2.2045 C   0  0  0  0  0  0  0  0  0  0  0  0
   -2.2809    1.0833   -1.9547 N   0  0  0  0  0  0  0  0  0  0  0  0
   -2.6499    1.7688   -3.0466 C   0  0  0  0  0  0  0  0  0  0  0  0
   -3.6151    2.2422   -3.1756 H   0  0  0  0  0  0  0  0  0  0  0  0
   -1.6523    1.7906   -3.9465 N   0  0  0  0  0  0  0  0  0  0  0  0
   -1.6799    2.2606   -4.8410 H   0  0  0  0  0  0  0  0  0  0  0  0
   -0.5906    1.0810   -3.4309 C   0  0  0  0  0  0  0  0  0  0  0  0
    0.3793    0.9197   -3.8843 H   0  0  0  0  0  0  0  0  0  0  0  0
   -0.9851    1.3114    0.6698 C   0  0  0  0  0  0  0  0  0  0  0  0
   -2.0377    1.8431    0.3168 O   0  0  0  0  0  0  0  0  0  0  0  0
   -0.1052    1.9265    1.4663 N   0  0  0  0  0  0  0  0  0  0  0  0
    0.7810    1.4586    1.6201 H   0  0  0  0  0  0  0  0  0  0  0  0
   -0.2724    3.2715    2.0119 C   0  0  0  0  0  0  0  0  0  0  0  0
   -1.3249    3.4549    2.2426 H   0  0  0  0  0  0  0  0  0  0  0  0
    0.3167    3.3776    2.9239 H   0  0  0  0  0  0  0  0  0  0  0  0
    0.0609    4.0073    1.2782 H   0  0  0  0  0  0  0  0  0  0  0  0
  5  6  2  0  0  0  0
  5  7  1  0  0  0  0
  2  3  1  0  0  0  0
  2  4  1  0  0  0  0
  2  5  1  0  0  0  0
  1  2  1  0  0  0  0
 22 23  2  0  0  0  0
 22 24  1  0  0  0  0
 20 21  1  0  0  0  0
 18 19  1  0  0  0  0
 18 20  1  0  0  0  0
 16 17  1  0  0  0  0
 16 18  1  0  0  0  0
 15 16  2  0  0  0  0
 14 15  1  0  0  0  0
 14 20  2  0  0  0  0
 11 12  1  0  0  0  0
 11 13  1  0  0  0  0
 11 14  1  0  0  0  0
  9 10  1  0  0  0  0
  9 11  1  0  0  0  0
  9 22  1  0  0  0  0
  7  8  1  0  0  0  0
  7  9  1  0  0  0  0
 26 27  1  0  0  0  0
 26 28  1  0  0  0  0
 26 29  1  0  0  0  0
 24 25  1  0  0  0  0
 24 26  1  0  0  0  0
M  END
$$$$
default_name
  -OEChem-02102213163D

 29 29  0     1  0  0  0  0  0999 V2000
   -2.9561   -3.9186    1.3887 H   0  0  0  0  0  0  0  0  0  0  0  0
   -3.1191   -2.9346    0.9517 C   0  0  0  0  0  0  0  0  0  0  0  0
   -3.7811   -2.3546    1.5917 H   0  0  0  0  0  0  0  0  0  0  0  0
   -3.5591   -3.0406   -0.0383 H   0  0  0  0  0  0  0  0  0  0  0  0
   -1.7921   -2.2226    0.8327 C   0  0  0  0  0  0  0  0  0  0  0  0
   -0.7611   -2.7766    1.1927 O   0  0  0  0  0  0  0  0  0  0  0  0
   -1.8201   -0.9926    0.3247 N   0  0  0  0  0  0  0  0  0  0  0  0
   -2.7141   -0.5816    0.0927 H   0  0  0  0  0  0  0  0  0  0  0  0
   -0.6481   -0.1156    0.2017 C   0  0  1  0  0  0  0  0  0  0  0  0
    0.1344   -0.4988    0.8596 H   0  0  0  0  0  0  0  0  0  0  0  0
   -0.1211   -0.1520   -1.2460 C   0  0  0  0  0  0  0  0  0  0  0  0
    0.8804    0.2790   -1.2852 H   0  0  0  0  0  0  0  0  0  0  0  0
   -0.0471   -1.1859   -1.5859 H   0  0  0  0  0  0  0  0  0  0  0  0
   -0.9845    0.6315   -2.2045 C   0  0  0  0  0  0  0  0  0  0  0  0
   -2.1449    1.3325   -1.8737 N   0  0  0  0  0  0  0  0  0  0  0  0
   -2.5599    1.9159   -3.0076 C   0  0  0  0  0  0  0  0  0  0  0  0
   -3.4488    2.5283   -3.0916 H   0  0  0  0  0  0  0  0  0  0  0  0
   -1.7138    1.6400   -4.0142 N   0  0  0  0  0  0  0  0  0  0  0  0
   -1.7995    1.9807   -4.9621 H   0  0  0  0  0  0  0  0  0  0  0  0
   -0.7102    0.8333   -3.5256 C   0  0  0  0  0  0  0  0  0  0  0  0
    0.1460    0.4447   -4.0624 H   0  0  0  0  0  0  0  0  0  0  0  0
   -0.9851    1.3114    0.6698 C   0  0  0  0  0  0  0  0  0  0  0  0
   -2.0377    1.8431    0.3168 O   0  0  0  0  0  0  0  0  0  0  0  0
   -0.1052    1.9265    1.4663 N   0  0  0  0  0  0  0  0  0  0  0  0
    0.7810    1.4586    1.6201 H   0  0  0  0  0  0  0  0  0  0  0  0
   -0.2724    3.2715    2.0119 C   0  0  0  0  0  0  0  0  0  0  0  0
   -1.3249    3.4549    2.2426 H   0  0  0  0  0  0  0  0  0  0  0  0
    0.3167    3.3776    2.9239 H   0  0  0  0  0  0  0  0  0  0  0  0
    0.0609    4.0073    1.2782 H   0  0  0  0  0  0  0  0  0  0  0  0
  5  6  2  0  0  0  0
  5  7  1  0  0  0  0
  2  3  1  0  0  0  0
  2  4  1  0  0  0  0
  2  5  1  0  0  0  0
  1  2  1  0  0  0  0
 22 23  2  0  0  0  0
 22 24  1  0  0  0  0
 20 21  1  0  0  0  0
 18 19  1  0  0  0  0
 18 20  1  0  0  0  0
 16 17  1  0  0  0  0
 16 18  1  0  0  0  0
 15 16  2  0  0  0  0
 14 15  1  0  0  0  0
 14 20  2  0  0  0  0
 11 12  1  0  0  0  0
 11 13  1  0  0  0  0
 11 14  1  0  0  0  0
  9 10  1  0  0  0  0
  9 11  1  0  0  0  0
  9 22  1  0  0  0  0
  7  8  1  0  0  0  0
  7  9  1  0  0  0  0
 26 27  1  0  0  0  0
 26 28  1  0  0  0  0
 26 29  1  0  0  0  0
 24 25  1  0  0  0  0
 24 26  1  0  0  0  0
M  END
$$$$
default_name
  -OEChem-02102213163D

 29 29  0     1  0  0  0  0  0999 V2000
   -2.9561   -3.9186    1.3887 H   0  0  0  0  0  0  0  0  0  0  0  0
   -3.1191   -2.9346    0.9517 C   0  0  0  0  0  0  0  0  0  0  0  0
   -3.7811   -2.3546    1.5917 H   0  0  0  0  0  0  0  0  0  0  0  0
   -3.5591   -3.0406   -0.0383 H   0  0  0  0  0  0  0  0  0  0  0  0
   -1.7921   -2.2226    0.8327 C   0  0  0  0  0  0  0  0  0  0  0  0
   -0.7611   -2.7766    1.1927 O   0  0  0  0  0  0  0  0  0  0  0  0
   -1.8201   -0.9926    0.3247 N   0  0  0  0  0  0  0  0  0  0  0  0
   -2.7141   -0.5816    0.0927 H   0  0  0  0  0  0  0  0  0  0  0  0
   -0.6481   -0.1156    0.2017 C   0  0  1  0  0  0  0  0  0  0  0  0
    0.1344   -0.4988    0.8596 H   0  0  0  0  0  0  0  0  0  0  0  0
   -0.1211   -0.1520   -1.2460 C   0  0  0  0  0  0  0  0  0  0  0  0
    0.8804    0.2790   -1.2852 H   0  0  0  0  0  0  0  0  0  0  0  0
   -0.0471   -1.1859   -1.5859 H   0  0  0  0  0  0  0  0  0  0  0  0
   -0.9845    0.6315   -2.2045 C   0  0  0  0  0  0  0  0  0  0  0  0
   -1.9616    1.5628   -1.8505 N   0  0  0  0  0  0  0  0  0  0  0  0
   -2.4434    2.0489   -3.0037 C   0  0  0  0  0  0  0  0  0  0  0  0
   -3.2299    2.7897   -3.0751 H   0  0  0  0  0  0  0  0  0  0  0  0
   -1.8070    1.4945   -4.0491 N   0  0  0  0  0  0  0  0  0  0  0  0
   -1.9773    1.7120   -5.0215 H   0  0  0  0  0  0  0  0  0  0  0  0
   -0.8792    0.5997   -3.5644 C   0  0  0  0  0  0  0  0  0  0  0  0
   -0.1813   -0.0021   -4.1328 H   0  0  0  0  0  0  0  0  0  0  0  0
   -0.9851    1.3114    0.6698 C   0  0  0  0  0  0  0  0  0  0  0  0
   -2.0377    1.8431    0.3168 O   0  0  0  0  0  0  0  0  0  0  0  0
   -0.1052    1.9265    1.4663 N   0  0  0  0  0  0  0  0  0  0  0  0
    0.7810    1.4586    1.6201 H   0  0  0  0  0  0  0  0  0  0  0  0
   -0.2724    3.2715    2.0119 C   0  0  0  0  0  0  0  0  0  0  0  0
   -1.3249    3.4549    2.2426 H   0  0  0  0  0  0  0  0  0  0  0  0
    0.3167    3.3776    2.9239 H   0  0  0  0  0  0  0  0  0  0  0  0
    0.0609    4.0073    1.2782 H   0  0  0  0  0  0  0  0  0  0  0  0
  5  6  2  0  0  0  0
  5  7  1  0  0  0  0
  2  3  1  0  0  0  0
  2  4  1  0  0  0  0
  2  5  1  0  0  0  0
  1  2  1  0  0  0  0
 22 23  2  0  0  0  0
 22 24  1  0  0  0  0
 20 21  1  0  0  0  0
 18 19  1  0  0  0  0
 18 20  1  0  0  0  0
 16 17  1  0  0  0  0
 16 18  1  0  0  0  0
 15 16  2  0  0  0  0
 14 15  1  0  0  0  0
 14 20  2  0  0  0  0
 11 12  1  0  0  0  0
 11 13  1  0  0  0  0
 11 14  1  0  0  0  0
  9 10  1  0  0  0  0
  9 11  1  0  0  0  0
  9 22  1  0  0  0  0
  7  8  1  0  0  0  0
  7  9  1  0  0  0  0
 26 27  1  0  0  0  0
 26 28  1  0  0  0  0
 26 29  1  0  0  0  0
 24 25  1  0  0  0  0
 24 26  1  0  0  0  0
M  END
$$$$
default_name
  -OEChem-02102213163D

 29 29  0     1  0  0  0  0  0999 V2000
   -2.9561   -3.9186    1.3887 H   0  0  0  0  0  0  0  0  0  0  0  0
   -3.1191   -2.9346    0.9517 C   0  0  0  0  0  0  0  0  0  0  0  0
   -3.7811   -2.3546    1.5917 H   0  0  0  0  0  0  0  0  0  0  0  0
   -3.5591   -3.0406   -0.0383 H   0  0  0  0  0  0  0  0  0  0  0  0
   -1.7921   -2.2226    0.8327 C   0  0  0  0  0  0  0  0  0  0  0  0
   -0.7611   -2.7766    1.1927 O   0  0  0  0  0  0  0  0  0  0  0  0
   -1.8201   -0.9926    0.3247 N   0  0  0  0  0  0  0  0  0  0  0  0
   -2.7141   -0.5816    0.0927 H   0  0  0  0  0  0  0  0  0  0  0  0
   -0.6481   -0.1156    0.2017 C   0  0  1  0  0  0  0  0  0  0  0  0
    0.1344   -0.4988    0.8596 H   0  0  0  0  0  0  0  0  0  0  0  0
   -0.1211   -0.1520   -1.2460 C   0  0  0  0  0  0  0  0  0  0  0  0
    0.8804    0.2790   -1.2852 H   0  0  0  0  0  0  0  0  0  0  0  0
   -0.0471   -1.1859   -1.5859 H   0  0  0  0  0  0  0  0  0  0  0  0
   -0.9845    0.6315   -2.2045 C   0  0  0  0  0  0  0  0  0  0  0  0
   -1.7436    1.7585   -1.8869 N   0  0  0  0  0  0  0  0  0  0  0  0
   -2.3086    2.1589   -3.0352 C   0  0  0  0  0  0  0  0  0  0  0  0
   -2.9732    3.0086   -3.1273 H   0  0  0  0  0  0  0  0  0  0  0  0
   -1.9257    1.3642   -4.0487 N   0  0  0  0  0  0  0  0  0  0  0  0
   -2.2012    1.4729   -5.0153 H   0  0  0  0  0  0  0  0  0  0  0  0
   -1.0861    0.3961   -3.5445 C   0  0  0  0  0  0  0  0  0  0  0  0
   -0.5804   -0.3903   -4.0906 H   0  0  0  0  0  0  0  0  0  0  0  0
   -0.9851    1.3114    0.6698 C   0  0  0  0  0  0  0  0  0  0  0  0
   -2.0377    1.8431    0.3168 O   0  0  0  0  0  0  0  0  0  0  0  0
   -0.1052    1.9265    1.4663 N   0  0  0  0  0  0  0  0  0  0  0  0
    0.7810    1.4586    1.6201 H   0  0  0  0  0  0  0  0  0  0  0  0
   -0.2724    3.2715    2.0119 C   0  0  0  0  0  0  0  0  0  0  0  0
   -1.3249    3.4549    2.2426 H   0  0  0  0  0  0  0  0  0  0  0  0
    0.3167    3.3776    2.9239 H   0  0  0  0  0  0  0  0  0  0  0  0
    0.0609    4.0073    1.2782 H   0  0  0  0  0  0  0  0  0  0  0  0
  5  6  2  0  0  0  0
  5  7  1  0  0  0  0
  2  3  1  0  0  0  0
  2  4  1  0  0  0  0
  2  5  1  0  0  0  0
  1  2  1  0  0  0  0
 22 23  2  0  0  0  0
 22 24  1  0  0  0  0
 20 21  1  0  0  0  0
 18 19  1  0  0  0  0
 18 20  1  0  0  0  0
 16 17  1  0  0  0  0
 16 18  1  0  0  0  0
 15 16  2  0  0  0  0
 14 15  1  0  0  0  0
 14 20  2  0  0  0  0
 11 12  1  0  0  0  0
 11 13  1  0  0  0  0
 11 14  1  0  0  0  0
  9 10  1  0  0  0  0
  9 11  1  0  0  0  0
  9 22  1  0  0  0  0
  7  8  1  0  0  0  0
  7  9  1  0  0  0  0
 26 27  1  0  0  0  0
 26 28  1  0  0  0  0
 26 29  1  0  0  0  0
 24 25  1  0  0  0  0
 24 26  1  0  0  0  0
M  END
$$$$
default_name
  -OEChem-02102213163D

 29 29  0     1  0  0  0  0  0999 V2000
   -2.9561   -3.9186    1.3887 H   0  0  0  0  0  0  0  0  0  0  0  0
   -3.1191   -2.9346    0.9517 C   0  0  0  0  0  0  0  0  0  0  0  0
   -3.7811   -2.3546    1.5917 H   0  0  0  0  0  0  0  0  0  0  0  0
   -3.5591   -3.0406   -0.0383 H   0  0  0  0  0  0  0  0  0  0  0  0
   -1.7921   -2.2226    0.8327 C   0  0  0  0  0  0  0  0  0  0  0  0
   -0.7611   -2.7766    1.1927 O   0  0  0  0  0  0  0  0  0  0  0  0
   -1.8201   -0.9926    0.3247 N   0  0  0  0  0  0  0  0  0  0  0  0
   -2.7141   -0.5816    0.0927 H   0  0  0  0  0  0  0  0  0  0  0  0
   -0.6481   -0.1156    0.2017 C   0  0  1  0  0  0  0  0  0  0  0  0
    0.1344   -0.4988    0.8596 H   0  0  0  0  0  0  0  0  0  0  0  0
   -0.1211   -0.1520   -1.2460 C   0  0  0  0  0  0  0  0  0  0  0  0
    0.8804    0.2790   -1.2852 H   0  0  0  0  0  0  0  0  0  0  0  0
   -0.0471   -1.1859   -1.5859 H   0  0  0  0  0  0  0  0  0  0  0  0
   -0.9845    0.6315   -2.2045 C   0  0  0  0  0  0  0  0  0  0  0  0
   -1.5057    1.9064   -1.9803 N   0  0  0  0  0  0  0  0  0  0  0  0
   -2.1645    2.2383   -3.1002 C   0  0  0  0  0  0  0  0  0  0  0  0
   -2.6963    3.1702   -3.2447 H   0  0  0  0  0  0  0  0  0  0  0  0
   -2.0617    1.2579   -4.0132 N   0  0  0  0  0  0  0  0  0  0  0  0
   -2.4559    1.2797   -4.9437 H   0  0  0  0  0  0  0  0  0  0  0  0
   -1.3167    0.2363   -3.4674 C   0  0  0  0  0  0  0  0  0  0  0  0
   -1.0240   -0.6934   -3.9388 H   0  0  0  0  0  0  0  0  0  0  0  0
   -0.9851    1.3114    0.6698 C   0  0  0  0  0  0  0  0  0  0  0  0
   -2.0377    1.8431    0.3168 O   0  0  0  0  0  0  0  0  0  0  0  0
   -0.1052    1.9265    1.4663 N   0  0  0  0  0  0  0  0  0  0  0  0
    0.7810    1.4586    1.6201 H   0  0  0  0  0  0  0  0  0  0  0  0
   -0.2724    3.2715    2.0119 C   0  0  0  0  0  0  0  0  0  0  0  0
   -1.3249    3.4549    2.2426 H   0  0  0  0  0  0  0  0  0  0  0  0
    0.3167    3.3776    2.9239 H   0  0  0  0  0  0  0  0  0  0  0  0
    0.0609    4.0073    1.2782 H   0  0  0  0  0  0  0  0  0  0  0  0
  5  6  2  0  0  0  0
  5  7  1  0  0  0  0
  2  3  1  0  0  0  0
  2  4  1  0  0  0  0
  2  5  1  0  0  0  0
  1  2  1  0  0  0  0
 22 23  2  0  0  0  0
 22 24  1  0  0  0  0
 20 21  1  0  0  0  0
 18 19  1  0  0  0  0
 18 20  1  0  0  0  0
 16 17  1  0  0  0  0
 16 18  1  0  0  0  0
 15 16  2  0  0  0  0
 14 15  1  0  0  0  0
 14 20  2  0  0  0  0
 11 12  1  0  0  0  0
 11 13  1  0  0  0  0
 11 14  1  0  0  0  0
  9 10  1  0  0  0  0
  9 11  1  0  0  0  0
  9 22  1  0  0  0  0
  7  8  1  0  0  0  0
  7  9  1  0  0  0  0
 26 27  1  0  0  0  0
 26 28  1  0  0  0  0
 26 29  1  0  0  0  0
 24 25  1  0  0  0  0
 24 26  1  0  0  0  0
M  END
$$$$
default_name
  -OEChem-02102213163D

 29 29  0     1  0  0  0  0  0999 V2000
   -2.9561   -3.9186    1.3887 H   0  0  0  0  0  0  0  0  0  0  0  0
   -3.1191   -2.9346    0.9517 C   0  0  0  0  0  0  0  0  0  0  0  0
   -3.7811   -2.3546    1.5917 H   0  0  0  0  0  0  0  0  0  0  0  0
   -3.5591   -3.0406   -0.0383 H   0  0  0  0  0  0  0  0  0  0  0  0
   -1.7921   -2.2226    0.8327 C   0  0  0  0  0  0  0  0  0  0  0  0
   -0.7611   -2.7766    1.1927 O   0  0  0  0  0  0  0  0  0  0  0  0
   -1.8201   -0.9926    0.3247 N   0  0  0  0  0  0  0  0  0  0  0  0
   -2.7141   -0.5816    0.0927 H   0  0  0  0  0  0  0  0  0  0  0  0
   -0.6481   -0.1156    0.2017 C   0  0  1  0  0  0  0  0  0  0  0  0
    0.1344   -0.4988    0.8596 H   0  0  0  0  0  0  0  0  0  0  0  0
   -0.1211   -0.1520   -1.2460 C   0  0  0  0  0  0  0  0  0  0  0  0
    0.8804    0.2790   -1.2852 H   0  0  0  0  0  0  0  0  0  0  0  0
   -0.0471   -1.1859   -1.5859 H   0  0  0  0  0  0  0  0  0  0  0  0
   -0.9845    0.6315   -2.2045 C   0  0  0  0  0  0  0  0  0  0  0  0
   -1.2642    1.9963   -2.1243 N   0  0  0  0  0  0  0  0  0  0  0  0
   -2.0210    2.2816   -3.1940 C   0  0  0  0  0  0  0  0  0  0  0  0
   -2.4181    3.2634   -3.4191 H   0  0  0  0  0  0  0  0  0  0  0  0
   -2.2058    1.1828   -3.9448 N   0  0  0  0  0  0  0  0  0  0  0  0
   -2.7241    1.1456   -4.8118 H   0  0  0  0  0  0  0  0  0  0  0  0
   -1.5553    0.1314   -3.3382 C   0  0  0  0  0  0  0  0  0  0  0  0
   -1.4819   -0.8908   -3.6876 H   0  0  0  0  0  0  0  0  0  0  0  0
   -0.9851    1.3114    0.6698 C   0  0  0  0  0  0  0  0  0  0  0  0
   -2.0377    1.8431    0.3168 O   0  0  0  0  0  0  0  0  0  0  0  0
   -0.1052    1.9265    1.4663 N   0  0  0  0  0  0  0  0  0  0  0  0
    0.7810    1.4586    1.6201 H   0  0  0  0  0  0  0  0  0  0  0  0
   -0.2724    3.2715    2.0119 C   0  0  0  0  0  0  0  0  0  0  0  0
   -1.3249    3.4549    2.2426 H   0  0  0  0  0  0  0  0  0  0  0  0
    0.3167    3.3776    2.9239 H   0  0  0  0  0  0  0  0  0  0  0  0
    0.0609    4.0073    1.2782 H   0  0  0  0  0  0  0  0  0  0  0  0
  5  6  2  0  0  0  0
  5  7  1  0  0  0  0
  2  3  1  0  0  0  0
  2  4  1  0  0  0  0
  2  5  1  0  0  0  0
  1  2  1  0  0  0  0
 22 23  2  0  0  0  0
 22 24  1  0  0  0  0
 20 21  1  0  0  0  0
 18 19  1  0  0  0  0
 18 20  1  0  0  0  0
 16 17  1  0  0  0  0
 16 18  1  0  0  0  0
 15 16  2  0  0  0  0
 14 15  1  0  0  0  0
 14 20  2  0  0  0  0
 11 12  1  0  0  0  0
 11 13  1  0  0  0  0
 11 14  1  0  0  0  0
  9 10  1  0  0  0  0
  9 11  1  0  0  0  0
  9 22  1  0  0  0  0
  7  8  1  0  0  0  0
  7  9  1  0  0  0  0
 26 27  1  0  0  0  0
 26 28  1  0  0  0  0
 26 29  1  0  0  0  0
 24 25  1  0  0  0  0
 24 26  1  0  0  0  0
M  END
$$$$
default_name
  -OEChem-02102213163D

 29 29  0     1  0  0  0  0  0999 V2000
   -2.9561   -3.9186    1.3887 H   0  0  0  0  0  0  0  0  0  0  0  0
   -3.1191   -2.9346    0.9517 C   0  0  0  0  0  0  0  0  0  0  0  0
   -3.7811   -2.3546    1.5917 H   0  0  0  0  0  0  0  0  0  0  0  0
   -3.5591   -3.0406   -0.0383 H   0  0  0  0  0  0  0  0  0  0  0  0
   -1.7921   -2.2226    0.8327 C   0  0  0  0  0  0  0  0  0  0  0  0
   -0.7611   -2.7766    1.1927 O   0  0  0  0  0  0  0  0  0  0  0  0
   -1.8201   -0.9926    0.3247 N   0  0  0  0  0  0  0  0  0  0  0  0
   -2.7141   -0.5816    0.0927 H   0  0  0  0  0  0  0  0  0  0  0  0
   -0.6481   -0.1156    0.2017 C   0  0  1  0  0  0  0  0  0  0  0  0
    0.1344   -0.4988    0.8596 H   0  0  0  0  0  0  0  0  0  0  0  0
   -0.1211   -0.1520   -1.2460 C   0  0  0  0  0  0  0  0  0  0  0  0
    0.8804    0.2790   -1.2852 H   0  0  0  0  0  0  0  0  0  0  0  0
   -0.0471   -1.1859   -1.5859 H   0  0  0  0  0  0  0  0  0  0  0  0
   -0.9845    0.6315   -2.2045 C   0  0  0  0  0  0  0  0  0  0  0  0
   -1.0355    2.0221   -2.3092 N   0  0  0  0  0  0  0  0  0  0  0  0
   -1.8879    2.2861   -3.3103 C   0  0  0  0  0  0  0  0  0  0  0  0
   -2.1575    3.2819   -3.6388 H   0  0  0  0  0  0  0  0  0  0  0  0
   -2.3481    1.1441   -3.8483 N   0  0  0  0  0  0  0  0  0  0  0  0
   -2.9875    1.0796   -4.6285 H   0  0  0  0  0  0  0  0  0  0  0  0
   -1.7857    0.0883   -3.1659 C   0  0  0  0  0  0  0  0  0  0  0  0
   -1.9230   -0.9691   -3.3543 H   0  0  0  0  0  0  0  0  0  0  0  0
   -0.9851    1.3114    0.6698 C   0  0  0  0  0  0  0  0  0  0  0  0
   -2.0377    1.8431    0.3168 O   0  0  0  0  0  0  0  0  0  0  0  0
   -0.1052    1.9265    1.4663 N   0  0  0  0  0  0  0  0  0  0  0  0
    0.7810    1.4586    1.6201 H   0  0  0  0  0  0  0  0  0  0  0  0
   -0.2724    3.2715    2.0119 C   0  0  0  0  0  0  0  0  0  0  0  0
   -1.3249    3.4549    2.2426 H   0  0  0  0  0  0  0  0  0  0  0  0
    0.3167    3.3776    2.9239 H   0  0  0  0  0  0  0  0  0  0  0  0
    0.0609    4.0073    1.2782 H   0  0  0  0  0  0  0  0  0  0  0  0
  5  6  2  0  0  0  0
  5  7  1  0  0  0  0
  2  3  1  0  0  0  0
  2  4  1  0  0  0  0
  2  5  1  0  0  0  0
  1  2  1  0  0  0  0
 22 23  2  0  0  0  0
 22 24  1  0  0  0  0
 20 21  1  0  0  0  0
 18 19  1  0  0  0  0
 18 20  1  0  0  0  0
 16 17  1  0  0  0  0
 16 18  1  0  0  0  0
 15 16  2  0  0  0  0
 14 15  1  0  0  0  0
 14 20  2  0  0  0  0
 11 12  1  0  0  0  0
 11 13  1  0  0  0  0
 11 14  1  0  0  0  0
  9 10  1  0  0  0  0
  9 11  1  0  0  0  0
  9 22  1  0  0  0  0
  7  8  1  0  0  0  0
  7  9  1  0  0  0  0
 26 27  1  0  0  0  0
 26 28  1  0  0  0  0
 26 29  1  0  0  0  0
 24 25  1  0  0  0  0
 24 26  1  0  0  0  0
M  END
$$$$
default_name
  -OEChem-02102213163D

 29 29  0     1  0  0  0  0  0999 V2000
   -2.9561   -3.9186    1.3887 H   0  0  0  0  0  0  0  0  0  0  0  0
   -3.1191   -2.9346    0.9517 C   0  0  0  0  0  0  0  0  0  0  0  0
   -3.7811   -2.3546    1.5917 H   0  0  0  0  0  0  0  0  0  0  0  0
   -3.5591   -3.0406   -0.0383 H   0  0  0  0  0  0  0  0  0  0  0  0
   -1.7921   -2.2226    0.8327 C   0  0  0  0  0  0  0  0  0  0  0  0
   -0.7611   -2.7766    1.1927 O   0  0  0  0  0  0  0  0  0  0  0  0
   -1.8201   -0.9926    0.3247 N   0  0  0  0  0  0  0  0  0  0  0  0
   -2.7141   -0.5816    0.0927 H   0  0  0  0  0  0  0  0  0  0  0  0
   -0.6481   -0.1156    0.2017 C   0  0  1  0  0  0  0  0  0  0  0  0
    0.1344   -0.4988    0.8596 H   0  0  0  0  0  0  0  0  0  0  0  0
   -0.1211   -0.1520   -1.2460 C   0  0  0  0  0  0  0  0  0  0  0  0
    0.8804    0.2790   -1.2852 H   0  0  0  0  0  0  0  0  0  0  0  0
   -0.0471   -1.1859   -1.5859 H   0  0  0  0  0  0  0  0  0  0  0  0
   -0.9845    0.6315   -2.2045 C   0  0  0  0  0  0  0  0  0  0  0  0
   -0.8352    1.9821   -2.5224 N   0  0  0  0  0  0  0  0  0  0  0  0
   -1.7742    2.2512   -3.4411 C   0  0  0  0  0  0  0  0  0  0  0  0
   -1.9322    3.2244   -3.8887 H   0  0  0  0  0  0  0  0  0  0  0  0
   -2.4789    1.1444   -3.7302 N   0  0  0  0  0  0  0  0  0  0  0  0
   -3.2281    1.0863   -4.4063 H   0  0  0  0  0  0  0  0  0  0  0  0
   -1.9922    0.1101   -2.9621 C   0  0  0  0  0  0  0  0  0  0  0  0
   -2.3170   -0.9228   -2.9615 H   0  0  0  0  0  0  0  0  0  0  0  0
   -0.9851    1.3114    0.6698 C   0  0  0  0  0  0  0  0  0  0  0  0
   -2.0377    1.8431    0.3168 O   0  0  0  0  0  0  0  0  0  0  0  0
   -0.1052    1.9265    1.4663 N   0  0  0  0  0  0  0  0  0  0  0  0
    0.7810    1.4586    1.6201 H   0  0  0  0  0  0  0  0  0  0  0  0
   -0.2724    3.2715    2.0119 C   0  0  0  0  0  0  0  0  0  0  0  0
   -1.3249    3.4549    2.2426 H   0  0  0  0  0  0  0  0  0  0  0  0
    0.3167    3.3776    2.9239 H   0  0  0  0  0  0  0  0  0  0  0  0
    0.0609    4.0073    1.2782 H   0  0  0  0  0  0  0  0  0  0  0  0
  5  6  2  0  0  0  0
  5  7  1  0  0  0  0
  2  3  1  0  0  0  0
  2  4  1  0  0  0  0
  2  5  1  0  0  0  0
  1  2  1  0  0  0  0
 22 23  2  0  0  0  0
 22 24  1  0  0  0  0
 20 21  1  0  0  0  0
 18 19  1  0  0  0  0
 18 20  1  0  0  0  0
 16 17  1  0  0  0  0
 16 18  1  0  0  0  0
 15 16  2  0  0  0  0
 14 15  1  0  0  0  0
 14 20  2  0  0  0  0
 11 12  1  0  0  0  0
 11 13  1  0  0  0  0
 11 14  1  0  0  0  0
  9 10  1  0  0  0  0
  9 11  1  0  0  0  0
  9 22  1  0  0  0  0
  7  8  1  0  0  0  0
  7  9  1  0  0  0  0
 26 27  1  0  0  0  0
 26 28  1  0  0  0  0
 26 29  1  0  0  0  0
 24 25  1  0  0  0  0
 24 26  1  0  0  0  0
M  END
$$$$
default_name
  -OEChem-02102213163D

 29 29  0     1  0  0  0  0  0999 V2000
   -2.9561   -3.9186    1.3887 H   0  0  0  0  0  0  0  0  0  0  0  0
   -3.1191   -2.9346    0.9517 C   0  0  0  0  0  0  0  0  0  0  0  0
   -3.7811   -2.3546    1.5917 H   0  0  0  0  0  0  0  0  0  0  0  0
   -3.5591   -3.0406   -0.0383 H   0  0  0  0  0  0  0  0  0  0  0  0
   -1.7921   -2.2226    0.8327 C   0  0  0  0  0  0  0  0  0  0  0  0
   -0.7611   -2.7766    1.1927 O   0  0  0  0  0  0  0  0  0  0  0  0
   -1.8201   -0.9926    0.3247 N   0  0  0  0  0  0  0  0  0  0  0  0
   -2.7141   -0.5816    0.0927 H   0  0  0  0  0  0  0  0  0  0  0  0
   -0.6481   -0.1156    0.2017 C   0  0  1  0  0  0  0  0  0  0  0  0
    0.1344   -0.4988    0.8596 H   0  0  0  0  0  0  0  0  0  0  0  0
   -0.1211   -0.1520   -1.2460 C   0  0  0  0  0  0  0  0  0  0  0  0
    0.8804    0.2790   -1.2852 H   0  0  0  0  0  0  0  0  0  0  0  0
   -0.0471   -1.1859   -1.5859 H   0  0  0  0  0  0  0  0  0  0  0  0
   -0.9845    0.6315   -2.2045 C   0  0  0  0  0  0  0  0  0  0  0  0
   -0.6769    1.8789   -2.7493 N   0  0  0  0  0  0  0  0  0  0  0  0
   -1.6877    2.1795   -3.5777 C   0  0  0  0  0  0  0  0  0  0  0  0
   -1.7576    3.0947   -4.1519 H   0  0  0  0  0  0  0  0  0  0  0  0
   -2.5894    1.1836   -3.5986 N   0  0  0  0  0  0  0  0  0  0  0  0
   -3.4296    1.1652   -4.1604 H   0  0  0  0  0  0  0  0  0  0  0  0
   -2.1607    0.1953   -2.7407 C   0  0  0  0  0  0  0  0  0  0  0  0
   -2.6373   -0.7551   -2.5360 H   0  0  0  0  0  0  0  0  0  0  0  0
   -0.9851    1.3114    0.6698 C   0  0  0  0  0  0  0  0  0  0  0  0
   -2.0377    1.8431    0.3168 O   0  0  0  0  0  0  0  0  0  0  0  0
   -0.1052    1.9265    1.4663 N   0  0  0  0  0  0  0  0  0  0  0  0
    0.7810    1.4586    1.6201 H   0  0  0  0  0  0  0  0  0  0  0  0
   -0.2724    3.2715    2.0119 C   0  0  0  0  0  0  0  0  0  0  0  0
   -1.3249    3.4549    2.2426 H   0  0  0  0  0  0  0  0  0  0  0  0
    0.3167    3.3776    2.9239 H   0  0  0  0  0  0  0  0  0  0  0  0
    0.0609    4.0073    1.2782 H   0  0  0  0  0  0  0  0  0  0  0  0
  5  6  2  0  0  0  0
  5  7  1  0  0  0  0
  2  3  1  0  0  0  0
  2  4  1  0  0  0  0
  2  5  1  0  0  0  0
  1  2  1  0  0  0  0
 22 23  2  0  0  0  0
 22 24  1  0  0  0  0
 20 21  1  0  0  0  0
 18 19  1  0  0  0  0
 18 20  1  0  0  0  0
 16 17  1  0  0  0  0
 16 18  1  0  0  0  0
 15 16  2  0  0  0  0
 14 15  1  0  0  0  0
 14 20  2  0  0  0  0
 11 12  1  0  0  0  0
 11 13  1  0  0  0  0
 11 14  1  0  0  0  0
  9 10  1  0  0  0  0
  9 11  1  0  0  0  0
  9 22  1  0  0  0  0
  7  8  1  0  0  0  0
  7  9  1  0  0  0  0
 26 27  1  0  0  0  0
 26 28  1  0  0  0  0
 26 29  1  0  0  0  0
 24 25  1  0  0  0  0
 24 26  1  0  0  0  0
M  END
$$$$
default_name
  -OEChem-02102213163D

 29 29  0     1  0  0  0  0  0999 V2000
   -2.9561   -3.9186    1.3887 H   0  0  0  0  0  0  0  0  0  0  0  0
   -3.1191   -2.9346    0.9517 C   0  0  0  0  0  0  0  0  0  0  0  0
   -3.7811   -2.3546    1.5917 H   0  0  0  0  0  0  0  0  0  0  0  0
   -3.5591   -3.0406   -0.0383 H   0  0  0  0  0  0  0  0  0  0  0  0
   -1.7921   -2.2226    0.8327 C   0  0  0  0  0  0  0  0  0  0  0  0
   -0.7611   -2.7766    1.1927 O   0  0  0  0  0  0  0  0  0  0  0  0
   -1.8201   -0.9926    0.3247 N   0  0  0  0  0  0  0  0  0  0  0  0
   -2.7141   -0.5816    0.0927 H   0  0  0  0  0  0  0  0  0  0  0  0
   -0.6481   -0.1156    0.2017 C   0  0  1  0  0  0  0  0  0  0  0  0
    0.1344   -0.4988    0.8596 H   0  0  0  0  0  0  0  0  0  0  0  0
   -0.1211   -0.1520   -1.2460 C   0  0  0  0  0  0  0  0  0  0  0  0
    0.8804    0.2790   -1.2852 H   0  0  0  0  0  0  0  0  0  0  0  0
   -0.0471   -1.1859   -1.5859 H   0  0  0  0  0  0  0  0  0  0  0  0
   -0.9845    0.6315   -2.2045 C   0  0  0  0  0  0  0  0  0  0  0  0
   -0.5715    1.7197   -2.9744 N   0  0  0  0  0  0  0  0  0  0  0  0
   -1.6342    2.0758   -3.7106 C   0  0  0  0  0  0  0  0  0  0  0  0
   -1.6456    2.9019   -4.4104 H   0  0  0  0  0  0  0  0  0  0  0  0
   -2.6720    1.2592   -3.4624 N   0  0  0  0  0  0  0  0  0  0  0  0
   -3.5782    1.3110   -3.9074 H   0  0  0  0  0  0  0  0  0  0  0  0
   -2.2797    0.3380   -2.5169 C   0  0  0  0  0  0  0  0  0  0  0  0
   -2.8620   -0.4776   -2.1068 H   0  0  0  0  0  0  0  0  0  0  0  0
   -0.9851    1.3114    0.6698 C   0  0  0  0  0  0  0  0  0  0  0  0
   -2.0377    1.8431    0.3168 O   0  0  0  0  0  0  0  0  0  0  0  0
   -0.1052    1.9265    1.4663 N   0  0  0  0  0  0  0  0  0  0  0  0
    0.7810    1.4586    1.6201 H   0  0  0  0  0  0  0  0  0  0  0  0
   -0.2724    3.2715    2.0119 C   0  0  0  0  0  0  0  0  0  0  0  0
   -1.3249    3.4549    2.2426 H   0  0  0  0  0  0  0  0  0  0  0  0
    0.3167    3.3776    2.9239 H   0  0  0  0  0  0  0  0  0  0  0  0
    0.0609    4.0073    1.2782 H   0  0  0  0  0  0  0  0  0  0  0  0
  5  6  2  0  0  0  0
  5  7  1  0  0  0  0
  2  3  1  0  0  0  0
  2  4  1  0  0  0  0
  2  5  1  0  0  0  0
  1  2  1  0  0  0  0
 22 23  2  0  0  0  0
 22 24  1  0  0  0  0
 20 21  1  0  0  0  0
 18 19  1  0  0  0  0
 18 20  1  0  0  0  0
 16 17  1  0  0  0  0
 16 18  1  0  0  0  0
 15 16  2  0  0  0  0
 14 15  1  0  0  0  0
 14 20  2  0  0  0  0
 11 12  1  0  0  0  0
 11 13  1  0  0  0  0
 11 14  1  0  0  0  0
  9 10  1  0  0  0  0
  9 11  1  0  0  0  0
  9 22  1  0  0  0  0
  7  8  1  0  0  0  0
  7  9  1  0  0  0  0
 26 27  1  0  0  0  0
 26 28  1  0  0  0  0
 26 29  1  0  0  0  0
 24 25  1  0  0  0  0
 24 26  1  0  0  0  0
M  END
$$$$
default_name
  -OEChem-02102213163D

 29 29  0     1  0  0  0  0  0999 V2000
   -2.9561   -3.9186    1.3887 H   0  0  0  0  0  0  0  0  0  0  0  0
   -3.1191   -2.9346    0.9517 C   0  0  0  0  0  0  0  0  0  0  0  0
   -3.7811   -2.3546    1.5917 H   0  0  0  0  0  0  0  0  0  0  0  0
   -3.5591   -3.0406   -0.0383 H   0  0  0  0  0  0  0  0  0  0  0  0
   -1.7921   -2.2226    0.8327 C   0  0  0  0  0  0  0  0  0  0  0  0
   -0.7611   -2.7766    1.1927 O   0  0  0  0  0  0  0  0  0  0  0  0
   -1.8201   -0.9926    0.3247 N   0  0  0  0  0  0  0  0  0  0  0  0
   -2.7141   -0.5816    0.0927 H   0  0  0  0  0  0  0  0  0  0  0  0
   -0.6481   -0.1156    0.2017 C   0  0  1  0  0  0  0  0  0  0  0  0
    0.1344   -0.4988    0.8596 H   0  0  0  0  0  0  0  0  0  0  0  0
   -0.1211   -0.1520   -1.2460 C   0  0  0  0  0  0  0  0  0  0  0  0
    0.8804    0.2790   -1.2852 H   0  0  0  0  0  0  0  0  0  0  0  0
   -0.0471   -1.1859   -1.5859 H   0  0  0  0  0  0  0  0  0  0  0  0
   -0.9845    0.6315   -2.2045 C   0  0  0  0  0  0  0  0  0  0  0  0
   -0.5260    1.5152   -3.1824 N   0  0  0  0  0  0  0  0  0  0  0  0
   -1.6175    1.9472   -3.8307 C   0  0  0  0  0  0  0  0  0  0  0  0
   -1.6039    2.6589   -4.6465 H   0  0  0  0  0  0  0  0  0  0  0  0
   -2.7210    1.3659   -3.3310 N   0  0  0  0  0  0  0  0  0  0  0  0
   -3.6637    1.5136   -3.6646 H   0  0  0  0  0  0  0  0  0  0  0  0
   -2.3411    0.5286   -2.3058 C   0  0  0  0  0  0  0  0  0  0  0  0
   -2.9757   -0.1090   -1.7032 H   0  0  0  0  0  0  0  0  0  0  0  0
   -0.9851    1.3114    0.6698 C   0  0  0  0  0  0  0  0  0  0  0  0
   -2.0377    1.8431    0.3168 O   0  0  0  0  0  0  0  0  0  0  0  0
   -0.1052    1.9265    1.4663 N   0  0  0  0  0  0  0  0  0  0  0  0
    0.7810    1.4586    1.6201 H   0  0  0  0  0  0  0  0  0  0  0  0
   -0.2724    3.2715    2.0119 C   0  0  0  0  0  0  0  0  0  0  0  0
   -1.3249    3.4549    2.2426 H   0  0  0  0  0  0  0  0  0  0  0  0
    0.3167    3.3776    2.9239 H   0  0  0  0  0  0  0  0  0  0  0  0
    0.0609    4.0073    1.2782 H   0  0  0  0  0  0  0  0  0  0  0  0
  5  6  2  0  0  0  0
  5  7  1  0  0  0  0
  2  3  1  0  0  0  0
  2  4  1  0  0  0  0
  2  5  1  0  0  0  0
  1  2  1  0  0  0  0
 22 23  2  0  0  0  0
 22 24  1  0  0  0  0
 20 21  1  0  0  0  0
 18 19  1  0  0  0  0
 18 20  1  0  0  0  0
 16 17  1  0  0  0  0
 16 18  1  0  0  0  0
 15 16  2  0  0  0  0
 14 15  1  0  0  0  0
 14 20  2  0  0  0  0
 11 12  1  0  0  0  0
 11 13  1  0  0  0  0
 11 14  1  0  0  0  0
  9 10  1  0  0  0  0
  9 11  1  0  0  0  0
  9 22  1  0  0  0  0
  7  8  1  0  0  0  0
  7  9  1  0  0  0  0
 26 27  1  0  0  0  0
 26 28  1  0  0  0  0
 26 29  1  0  0  0  0
 24 25  1  0  0  0  0
 24 26  1  0  0  0  0
M  END
$$$$
default_name
  -OEChem-02102213163D

 29 29  0     1  0  0  0  0  0999 V2000
   -2.9561   -3.9186    1.3887 H   0  0  0  0  0  0  0  0  0  0  0  0
   -3.1191   -2.9346    0.9517 C   0  0  0  0  0  0  0  0  0  0  0  0
   -3.7811   -2.3546    1.5917 H   0  0  0  0  0  0  0  0  0  0  0  0
   -3.5591   -3.0406   -0.0383 H   0  0  0  0  0  0  0  0  0  0  0  0
   -1.7921   -2.2226    0.8327 C   0  0  0  0  0  0  0  0  0  0  0  0
   -0.7611   -2.7766    1.1927 O   0  0  0  0  0  0  0  0  0  0  0  0
   -1.8201   -0.9926    0.3247 N   0  0  0  0  0  0  0  0  0  0  0  0
   -2.7141   -0.5816    0.0927 H   0  0  0  0  0  0  0  0  0  0  0  0
   -0.6481   -0.1156    0.2017 C   0  0  1  0  0  0  0  0  0  0  0  0
    0.1344   -0.4988    0.8596 H   0  0  0  0  0  0  0  0  0  0  0  0
   -0.1211   -0.1520   -1.2460 C   0  0  0  0  0  0  0  0  0  0  0  0
    0.8804    0.2790   -1.2852 H   0  0  0  0  0  0  0  0  0  0  0  0
   -0.0471   -1.1859   -1.5859 H   0  0  0  0  0  0  0  0  0  0  0  0
   -0.9845    0.6315   -2.2045 C   0  0  0  0  0  0  0  0  0  0  0  0
   -0.5437    1.2794   -3.3592 N   0  0  0  0  0  0  0  0  0  0  0  0
   -1.6387    1.8024   -3.9300 C   0  0  0  0  0  0  0  0  0  0  0  0
   -1.6353    2.3824   -4.8443 H   0  0  0  0  0  0  0  0  0  0  0  0
   -2.7332    1.4965   -3.2133 N   0  0  0  0  0  0  0  0  0  0  0  0
   -3.6805    1.7594   -3.4487 H   0  0  0  0  0  0  0  0  0  0  0  0
   -2.3407    0.7540   -2.1219 C   0  0  0  0  0  0  0  0  0  0  0  0
   -2.9707    0.3255   -1.3525 H   0  0  0  0  0  0  0  0  0  0  0  0
   -0.9851    1.3114    0.6698 C   0  0  0  0  0  0  0  0  0  0  0  0
   -2.0377    1.8431    0.3168 O   0  0  0  0  0  0  0  0  0  0  0  0
   -0.1052    1.9265    1.4663 N   0  0  0  0  0  0  0  0  0  0  0  0
    0.7810    1.4586    1.6201 H   0  0  0  0  0  0  0  0  0  0  0  0
   -0.2724    3.2715    2.0119 C   0  0  0  0  0  0  0  0  0  0  0  0
   -1.3249    3.4549    2.2426 H   0  0  0  0  0  0  0  0  0  0  0  0
    0.3167    3.3776    2.9239 H   0  0  0  0  0  0  0  0  0  0  0  0
    0.0609    4.0073    1.2782 H   0  0  0  0  0  0  0  0  0  0  0  0
  5  6  2  0  0  0  0
  5  7  1  0  0  0  0
  2  3  1  0  0  0  0
  2  4  1  0  0  0  0
  2  5  1  0  0  0  0
  1  2  1  0  0  0  0
 22 23  2  0  0  0  0
 22 24  1  0  0  0  0
 20 21  1  0  0  0  0
 18 19  1  0  0  0  0
 18 20  1  0  0  0  0
 16 17  1  0  0  0  0
 16 18  1  0  0  0  0
 15 16  2  0  0  0  0
 14 15  1  0  0  0  0
 14 20  2  0  0  0  0
 11 12  1  0  0  0  0
 11 13  1  0  0  0  0
 11 14  1  0  0  0  0
  9 10  1  0  0  0  0
  9 11  1  0  0  0  0
  9 22  1  0  0  0  0
  7  8  1  0  0  0  0
  7  9  1  0  0  0  0
 26 27  1  0  0  0  0
 26 28  1  0  0  0  0
 26 29  1  0  0  0  0
 24 25  1  0  0  0  0
 24 26  1  0  0  0  0
M  END
$$$$
default_name
  -OEChem-02102213163D

 29 29  0     1  0  0  0  0  0999 V2000
   -2.9561   -3.9186    1.3887 H   0  0  0  0  0  0  0  0  0  0  0  0
   -3.1191   -2.9346    0.9517 C   0  0  0  0  0  0  0  0  0  0  0  0
   -3.7811   -2.3546    1.5917 H   0  0  0  0  0  0  0  0  0  0  0  0
   -3.5591   -3.0406   -0.0383 H   0  0  0  0  0  0  0  0  0  0  0  0
   -1.7921   -2.2226    0.8327 C   0  0  0  0  0  0  0  0  0  0  0  0
   -0.7611   -2.7766    1.1927 O   0  0  0  0  0  0  0  0  0  0  0  0
   -1.8201   -0.9926    0.3247 N   0  0  0  0  0  0  0  0  0  0  0  0
   -2.7141   -0.5816    0.0927 H   0  0  0  0  0  0  0  0  0  0  0  0
   -0.6481   -0.1156    0.2017 C   0  0  1  0  0  0  0  0  0  0  0  0
    0.1344   -0.4988    0.8596 H   0  0  0  0  0  0  0  0  0  0  0  0
   -0.1211   -0.1520   -1.2460 C   0  0  0  0  0  0  0  0  0  0  0  0
    0.8804    0.2790   -1.2852 H   0  0  0  0  0  0  0  0  0  0  0  0
   -0.0471   -1.1859   -1.5859 H   0  0  0  0  0  0  0  0  0  0  0  0
   -0.9845    0.6315   -2.2045 C   0  0  0  0  0  0  0  0  0  0  0  0
   -0.6233    1.0284   -3.4927 N   0  0  0  0  0  0  0  0  0  0  0  0
   -1.6962    1.6513   -4.0017 C   0  0  0  0  0  0  0  0  0  0  0  0
   -1.7376    2.0912   -4.9901 H   0  0  0  0  0  0  0  0  0  0  0  0
   -2.7077    1.6421   -3.1173 N   0  0  0  0  0  0  0  0  0  0  0  0
   -3.6272    2.0315   -3.2742 H   0  0  0  0  0  0  0  0  0  0  0  0
   -2.2786    0.9989   -1.9777 C   0  0  0  0  0  0  0  0  0  0  0  0
   -2.8474    0.7962   -1.0789 H   0  0  0  0  0  0  0  0  0  0  0  0
   -0.9851    1.3114    0.6698 C   0  0  0  0  0  0  0  0  0  0  0  0
   -2.0377    1.8431    0.3168 O   0  0  0  0  0  0  0  0  0  0  0  0
   -0.1052    1.9265    1.4663 N   0  0  0  0  0  0  0  0  0  0  0  0
    0.7810    1.4586    1.6201 H   0  0  0  0  0  0  0  0  0  0  0  0
   -0.2724    3.2715    2.0119 C   0  0  0  0  0  0  0  0  0  0  0  0
   -1.3249    3.4549    2.2426 H   0  0  0  0  0  0  0  0  0  0  0  0
    0.3167    3.3776    2.9239 H   0  0  0  0  0  0  0  0  0  0  0  0
    0.0609    4.0073    1.2782 H   0  0  0  0  0  0  0  0  0  0  0  0
  5  6  2  0  0  0  0
  5  7  1  0  0  0  0
  2  3  1  0  0  0  0
  2  4  1  0  0  0  0
  2  5  1  0  0  0  0
  1  2  1  0  0  0  0
 22 23  2  0  0  0  0
 22 24  1  0  0  0  0
 20 21  1  0  0  0  0
 18 19  1  0  0  0  0
 18 20  1  0  0  0  0
 16 17  1  0  0  0  0
 16 18  1  0  0  0  0
 15 16  2  0  0  0  0
 14 15  1  0  0  0  0
 14 20  2  0  0  0  0
 11 12  1  0  0  0  0
 11 13  1  0  0  0  0
 11 14  1  0  0  0  0
  9 10  1  0  0  0  0
  9 11  1  0  0  0  0
  9 22  1  0  0  0  0
  7  8  1  0  0  0  0
  7  9  1  0  0  0  0
 26 27  1  0  0  0  0
 26 28  1  0  0  0  0
 26 29  1  0  0  0  0
 24 25  1  0  0  0  0
 24 26  1  0  0  0  0
M  END
$$$$
default_name
  -OEChem-02102213163D

 29 29  0     1  0  0  0  0  0999 V2000
   -2.9561   -3.9186    1.3887 H   0  0  0  0  0  0  0  0  0  0  0  0
   -3.1191   -2.9346    0.9517 C   0  0  0  0  0  0  0  0  0  0  0  0
   -3.7811   -2.3546    1.5917 H   0  0  0  0  0  0  0  0  0  0  0  0
   -3.5591   -3.0406   -0.0383 H   0  0  0  0  0  0  0  0  0  0  0  0
   -1.7921   -2.2226    0.8327 C   0  0  0  0  0  0  0  0  0  0  0  0
   -0.7611   -2.7766    1.1927 O   0  0  0  0  0  0  0  0  0  0  0  0
   -1.8201   -0.9926    0.3247 N   0  0  0  0  0  0  0  0  0  0  0  0
   -2.7141   -0.5816    0.0927 H   0  0  0  0  0  0  0  0  0  0  0  0
   -0.6481   -0.1156    0.2017 C   0  0  1  0  0  0  0  0  0  0  0  0
    0.1344   -0.4988    0.8596 H   0  0  0  0  0  0  0  0  0  0  0  0
   -0.1211   -0.1520   -1.2460 C   0  0  0  0  0  0  0  0  0  0  0  0
    0.9556    0.0239   -1.2514 H   0  0  0  0  0  0  0  0  0  0  0  0
   -0.2946   -1.1388   -1.6772 H   0  0  0  0  0  0  0  0  0  0  0  0
   -0.7519    0.8991   -2.1266 C   0  0  0  0  0  0  0  0  0  0  0  0
   -0.4743    1.1072   -3.4783 N   0  0  0  0  0  0  0  0  0  0  0  0
   -1.2863    2.0984   -3.8737 C   0  0  0  0  0  0  0  0  0  0  0  0
   -1.3096    2.5085   -4.8755 H   0  0  0  0  0  0  0  0  0  0  0  0
   -2.0672    2.4995   -2.8565 N   0  0  0  0  0  0  0  0  0  0  0  0
   -2.7750    3.2193   -2.9092 H   0  0  0  0  0  0  0  0  0  0  0  0
   -1.7472    1.7509   -1.7457 C   0  0  0  0  0  0  0  0  0  0  0  0
   -2.1993    1.7993   -0.7631 H   0  0  0  0  0  0  0  0  0  0  0  0
   -0.9851    1.3114    0.6698 C   0  0  0  0  0  0  0  0  0  0  0  0
   -2.0377    1.8431    0.3168 O   0  0  0  0  0  0  0  0  0  0  0  0
   -0.1052    1.9265    1.4663 N   0  0  0  0  0  0  0  0  0  0  0  0
    0.7810    1.4586    1.6201 H   0  0  0  0  0  0  0  0  0  0  0  0
   -0.2724    3.2715    2.0119 C   0  0  0  0  0  0  0  0  0  0  0  0
   -1.3249    3.4549    2.2426 H   0  0  0  0  0  0  0  0  0  0  0  0
    0.3167    3.3776    2.9239 H   0  0  0  0  0  0  0  0  0  0  0  0
    0.0609    4.0073    1.2782 H   0  0  0  0  0  0  0  0  0  0  0  0
  5  6  2  0  0  0  0
  5  7  1  0  0  0  0
  2  3  1  0  0  0  0
  2  4  1  0  0  0  0
  2  5  1  0  0  0  0
  1  2  1  0  0  0  0
 22 23  2  0  0  0  0
 22 24  1  0  0  0  0
 20 21  1  0  0  0  0
 18 19  1  0  0  0  0
 18 20  1  0  0  0  0
 16 17  1  0  0  0  0
 16 18  1  0  0  0  0
 15 16  2  0  0  0  0
 14 15  1  0  0  0  0
 14 20  2  0  0  0  0
 11 12  1  0  0  0  0
 11 13  1  0  0  0  0
 11 14  1  0  0  0  0
  9 10  1  0  0  0  0
  9 11  1  0  0  0  0
  9 22  1  0  0  0  0
  7  8  1  0  0  0  0
  7  9  1  0  0  0  0
 26 27  1  0  0  0  0
 26 28  1  0  0  0  0
 26 29  1  0  0  0  0
 24 25  1  0  0  0  0
 24 26  1  0  0  0  0
M  END
$$$$
default_name
  -OEChem-02102213163D

 29 29  0     1  0  0  0  0  0999 V2000
   -2.9561   -3.9186    1.3887 H   0  0  0  0  0  0  0  0  0  0  0  0
   -3.1191   -2.9346    0.9517 C   0  0  0  0  0  0  0  0  0  0  0  0
   -3.7811   -2.3546    1.5917 H   0  0  0  0  0  0  0  0  0  0  0  0
   -3.5591   -3.0406   -0.0383 H   0  0  0  0  0  0  0  0  0  0  0  0
   -1.7921   -2.2226    0.8327 C   0  0  0  0  0  0  0  0  0  0  0  0
   -0.7611   -2.7766    1.1927 O   0  0  0  0  0  0  0  0  0  0  0  0
   -1.8201   -0.9926    0.3247 N   0  0  0  0  0  0  0  0  0  0  0  0
   -2.7141   -0.5816    0.0927 H   0  0  0  0  0  0  0  0  0  0  0  0
   -0.6481   -0.1156    0.2017 C   0  0  1  0  0  0  0  0  0  0  0  0
    0.1344   -0.4988    0.8596 H   0  0  0  0  0  0  0  0  0  0  0  0
   -0.1211   -0.1520   -1.2460 C   0  0  0  0  0  0  0  0  0  0  0  0
    0.9556    0.0239   -1.2514 H   0  0  0  0  0  0  0  0  0  0  0  0
   -0.2946   -1.1388   -1.6772 H   0  0  0  0  0  0  0  0  0  0  0  0
   -0.7519    0.8991   -2.1266 C   0  0  0  0  0  0  0  0  0  0  0  0
   -0.7076    0.9313   -3.5210 N   0  0  0  0  0  0  0  0  0  0  0  0
   -1.4315    1.9986   -3.8888 C   0  0  0  0  0  0  0  0  0  0  0  0
   -1.5851    2.3107   -4.9142 H   0  0  0  0  0  0  0  0  0  0  0  0
   -1.9420    2.6142   -2.8092 N   0  0  0  0  0  0  0  0  0  0  0  0
   -2.5383    3.4303   -2.8269 H   0  0  0  0  0  0  0  0  0  0  0  0
   -1.5272    1.9321   -1.6871 C   0  0  0  0  0  0  0  0  0  0  0  0
   -1.7745    2.1450   -0.6547 H   0  0  0  0  0  0  0  0  0  0  0  0
   -0.9851    1.3114    0.6698 C   0  0  0  0  0  0  0  0  0  0  0  0
   -2.0377    1.8431    0.3168 O   0  0  0  0  0  0  0  0  0  0  0  0
   -0.1052    1.9265    1.4663 N   0  0  0  0  0  0  0  0  0  0  0  0
    0.7810    1.4586    1.6201 H   0  0  0  0  0  0  0  0  0  0  0  0
   -0.2724    3.2715    2.0119 C   0  0  0  0  0  0  0  0  0  0  0  0
   -1.3249    3.4549    2.2426 H   0  0  0  0  0  0  0  0  0  0  0  0
    0.3167    3.3776    2.9239 H   0  0  0  0  0  0  0  0  0  0  0  0
    0.0609    4.0073    1.2782 H   0  0  0  0  0  0  0  0  0  0  0  0
  5  6  2  0  0  0  0
  5  7  1  0  0  0  0
  2  3  1  0  0  0  0
  2  4  1  0  0  0  0
  2  5  1  0  0  0  0
  1  2  1  0  0  0  0
 22 23  2  0  0  0  0
 22 24  1  0  0  0  0
 20 21  1  0  0  0  0
 18 19  1  0  0  0  0
 18 20  1  0  0  0  0
 16 17  1  0  0  0  0
 16 18  1  0  0  0  0
 15 16  2  0  0  0  0
 14 15  1  0  0  0  0
 14 20  2  0  0  0  0
 11 12  1  0  0  0  0
 11 13  1  0  0  0  0
 11 14  1  0  0  0  0
  9 10  1  0  0  0  0
  9 11  1  0  0  0  0
  9 22  1  0  0  0  0
  7  8  1  0  0  0  0
  7  9  1  0  0  0  0
 26 27  1  0  0  0  0
 26 28  1  0  0  0  0
 26 29  1  0  0  0  0
 24 25  1  0  0  0  0
 24 26  1  0  0  0  0
M  END
$$$$
default_name
  -OEChem-02102213163D

 29 29  0     1  0  0  0  0  0999 V2000
   -2.9561   -3.9186    1.3887 H   0  0  0  0  0  0  0  0  0  0  0  0
   -3.1191   -2.9346    0.9517 C   0  0  0  0  0  0  0  0  0  0  0  0
   -3.7811   -2.3546    1.5917 H   0  0  0  0  0  0  0  0  0  0  0  0
   -3.5591   -3.0406   -0.0383 H   0  0  0  0  0  0  0  0  0  0  0  0
   -1.7921   -2.2226    0.8327 C   0  0  0  0  0  0  0  0  0  0  0  0
   -0.7611   -2.7766    1.1927 O   0  0  0  0  0  0  0  0  0  0  0  0
   -1.8201   -0.9926    0.3247 N   0  0  0  0  0  0  0  0  0  0  0  0
   -2.7141   -0.5816    0.0927 H   0  0  0  0  0  0  0  0  0  0  0  0
   -0.6481   -0.1156    0.2017 C   0  0  1  0  0  0  0  0  0  0  0  0
    0.1344   -0.4988    0.8596 H   0  0  0  0  0  0  0  0  0  0  0  0
   -0.1211   -0.1520   -1.2460 C   0  0  0  0  0  0  0  0  0  0  0  0
    0.9556    0.0239   -1.2514 H   0  0  0  0  0  0  0  0  0  0  0  0
   -0.2946   -1.1388   -1.6772 H   0  0  0  0  0  0  0  0  0  0  0  0
   -0.7519    0.8991   -2.1266 C   0  0  0  0  0  0  0  0  0  0  0  0
   -0.9672    0.7921   -3.5012 N   0  0  0  0  0  0  0  0  0  0  0  0
   -1.5895    1.9224   -3.8666 C   0  0  0  0  0  0  0  0  0  0  0  0
   -1.8881    2.1571   -4.8805 H   0  0  0  0  0  0  0  0  0  0  0  0
   -1.7953    2.7112   -2.7985 N   0  0  0  0  0  0  0  0  0  0  0  0
   -2.2629    3.6073   -2.8128 H   0  0  0  0  0  0  0  0  0  0  0  0
   -1.2768    2.0801   -1.6897 C   0  0  0  0  0  0  0  0  0  0  0  0
   -1.2925    2.4265   -0.6639 H   0  0  0  0  0  0  0  0  0  0  0  0
   -0.9851    1.3114    0.6698 C   0  0  0  0  0  0  0  0  0  0  0  0
   -2.0377    1.8431    0.3168 O   0  0  0  0  0  0  0  0  0  0  0  0
   -0.1052    1.9265    1.4663 N   0  0  0  0  0  0  0  0  0  0  0  0
    0.7810    1.4586    1.6201 H   0  0  0  0  0  0  0  0  0  0  0  0
   -0.2724    3.2715    2.0119 C   0  0  0  0  0  0  0  0  0  0  0  0
   -1.3249    3.4549    2.2426 H   0  0  0  0  0  0  0  0  0  0  0  0
    0.3167    3.3776    2.9239 H   0  0  0  0  0  0  0  0  0  0  0  0
    0.0609    4.0073    1.2782 H   0  0  0  0  0  0  0  0  0  0  0  0
  5  6  2  0  0  0  0
  5  7  1  0  0  0  0
  2  3  1  0  0  0  0
  2  4  1  0  0  0  0
  2  5  1  0  0  0  0
  1  2  1  0  0  0  0
 22 23  2  0  0  0  0
 22 24  1  0  0  0  0
 20 21  1  0  0  0  0
 18 19  1  0  0  0  0
 18 20  1  0  0  0  0
 16 17  1  0  0  0  0
 16 18  1  0  0  0  0
 15 16  2  0  0  0  0
 14 15  1  0  0  0  0
 14 20  2  0  0  0  0
 11 12  1  0  0  0  0
 11 13  1  0  0  0  0
 11 14  1  0  0  0  0
  9 10  1  0  0  0  0
  9 11  1  0  0  0  0
  9 22  1  0  0  0  0
  7  8  1  0  0  0  0
  7  9  1  0  0  0  0
 26 27  1  0  0  0  0
 26 28  1  0  0  0  0
 26 29  1  0  0  0  0
 24 25  1  0  0  0  0
 24 26  1  0  0  0  0
M  END
$$$$
default_name
  -OEChem-02102213163D

 29 29  0     1  0  0  0  0  0999 V2000
   -2.9561   -3.9186    1.3887 H   0  0  0  0  0  0  0  0  0  0  0  0
   -3.1191   -2.9346    0.9517 C   0  0  0  0  0  0  0  0  0  0  0  0
   -3.7811   -2.3546    1.5917 H   0  0  0  0  0  0  0  0  0  0  0  0
   -3.5591   -3.0406   -0.0383 H   0  0  0  0  0  0  0  0  0  0  0  0
   -1.7921   -2.2226    0.8327 C   0  0  0  0  0  0  0  0  0  0  0  0
   -0.7611   -2.7766    1.1927 O   0  0  0  0  0  0  0  0  0  0  0  0
   -1.8201   -0.9926    0.3247 N   0  0  0  0  0  0  0  0  0  0  0  0
   -2.7141   -0.5816    0.0927 H   0  0  0  0  0  0  0  0  0  0  0  0
   -0.6481   -0.1156    0.2017 C   0  0  1  0  0  0  0  0  0  0  0  0
    0.1344   -0.4988    0.8596 H   0  0  0  0  0  0  0  0  0  0  0  0
   -0.1211   -0.1520   -1.2460 C   0  0  0  0  0  0  0  0  0  0  0  0
    0.9556    0.0239   -1.2514 H   0  0  0  0  0  0  0  0  0  0  0  0
   -0.2946   -1.1388   -1.6772 H   0  0  0  0  0  0  0  0  0  0  0  0
   -0.7519    0.8991   -2.1266 C   0  0  0  0  0  0  0  0  0  0  0  0
   -1.2354    0.6990   -3.4202 N   0  0  0  0  0  0  0  0  0  0  0  0
   -1.7496    1.8752   -3.8083 C   0  0  0  0  0  0  0  0  0  0  0  0
   -2.1979    2.0581   -4.7767 H   0  0  0  0  0  0  0  0  0  0  0  0
   -1.6370    2.7839   -2.8251 N   0  0  0  0  0  0  0  0  0  0  0  0
   -1.9677    3.7382   -2.8680 H   0  0  0  0  0  0  0  0  0  0  0  0
   -1.0130    2.1851   -1.7534 C   0  0  0  0  0  0  0  0  0  0  0  0
   -0.7860    2.6247   -0.7902 H   0  0  0  0  0  0  0  0  0  0  0  0
   -0.9851    1.3114    0.6698 C   0  0  0  0  0  0  0  0  0  0  0  0
   -2.0377    1.8431    0.3168 O   0  0  0  0  0  0  0  0  0  0  0  0
   -0.1052    1.9265    1.4663 N   0  0  0  0  0  0  0  0  0  0  0  0
    0.7810    1.4586    1.6201 H   0  0  0  0  0  0  0  0  0  0  0  0
   -0.2724    3.2715    2.0119 C   0  0  0  0  0  0  0  0  0  0  0  0
   -1.3249    3.4549    2.2426 H   0  0  0  0  0  0  0  0  0  0  0  0
    0.3167    3.3776    2.9239 H   0  0  0  0  0  0  0  0  0  0  0  0
    0.0609    4.0073    1.2782 H   0  0  0  0  0  0  0  0  0  0  0  0
  5  6  2  0  0  0  0
  5  7  1  0  0  0  0
  2  3  1  0  0  0  0
  2  4  1  0  0  0  0
  2  5  1  0  0  0  0
  1  2  1  0  0  0  0
 22 23  2  0  0  0  0
 22 24  1  0  0  0  0
 20 21  1  0  0  0  0
 18 19  1  0  0  0  0
 18 20  1  0  0  0  0
 16 17  1  0  0  0  0
 16 18  1  0  0  0  0
 15 16  2  0  0  0  0
 14 15  1  0  0  0  0
 14 20  2  0  0  0  0
 11 12  1  0  0  0  0
 11 13  1  0  0  0  0
 11 14  1  0  0  0  0
  9 10  1  0  0  0  0
  9 11  1  0  0  0  0
  9 22  1  0  0  0  0
  7  8  1  0  0  0  0
  7  9  1  0  0  0  0
 26 27  1  0  0  0  0
 26 28  1  0  0  0  0
 26 29  1  0  0  0  0
 24 25  1  0  0  0  0
 24 26  1  0  0  0  0
M  END
$$$$
default_name
  -OEChem-02102213163D

 29 29  0     1  0  0  0  0  0999 V2000
   -2.9561   -3.9186    1.3887 H   0  0  0  0  0  0  0  0  0  0  0  0
   -3.1191   -2.9346    0.9517 C   0  0  0  0  0  0  0  0  0  0  0  0
   -3.7811   -2.3546    1.5917 H   0  0  0  0  0  0  0  0  0  0  0  0
   -3.5591   -3.0406   -0.0383 H   0  0  0  0  0  0  0  0  0  0  0  0
   -1.7921   -2.2226    0.8327 C   0  0  0  0  0  0  0  0  0  0  0  0
   -0.7611   -2.7766    1.1927 O   0  0  0  0  0  0  0  0  0  0  0  0
   -1.8201   -0.9926    0.3247 N   0  0  0  0  0  0  0  0  0  0  0  0
   -2.7141   -0.5816    0.0927 H   0  0  0  0  0  0  0  0  0  0  0  0
   -0.6481   -0.1156    0.2017 C   0  0  1  0  0  0  0  0  0  0  0  0
    0.1344   -0.4988    0.8596 H   0  0  0  0  0  0  0  0  0  0  0  0
   -0.1211   -0.1520   -1.2460 C   0  0  0  0  0  0  0  0  0  0  0  0
    0.9556    0.0239   -1.2514 H   0  0  0  0  0  0  0  0  0  0  0  0
   -0.2946   -1.1388   -1.6772 H   0  0  0  0  0  0  0  0  0  0  0  0
   -0.7519    0.8991   -2.1266 C   0  0  0  0  0  0  0  0  0  0  0  0
   -1.4940    0.6583   -3.2836 N   0  0  0  0  0  0  0  0  0  0  0  0
   -1.9009    1.8600   -3.7181 C   0  0  0  0  0  0  0  0  0  0  0  0
   -2.4934    2.0205   -4.6099 H   0  0  0  0  0  0  0  0  0  0  0  0
   -1.4778    2.8274   -2.8872 N   0  0  0  0  0  0  0  0  0  0  0  0
   -1.6728    3.8141   -2.9887 H   0  0  0  0  0  0  0  0  0  0  0  0
   -0.7538    2.2397   -1.8738 C   0  0  0  0  0  0  0  0  0  0  0  0
   -0.2896    2.7259   -1.0250 H   0  0  0  0  0  0  0  0  0  0  0  0
   -0.9851    1.3114    0.6698 C   0  0  0  0  0  0  0  0  0  0  0  0
   -2.0377    1.8431    0.3168 O   0  0  0  0  0  0  0  0  0  0  0  0
   -0.1052    1.9265    1.4663 N   0  0  0  0  0  0  0  0  0  0  0  0
    0.7810    1.4586    1.6201 H   0  0  0  0  0  0  0  0  0  0  0  0
   -0.2724    3.2715    2.0119 C   0  0  0  0  0  0  0  0  0  0  0  0
   -1.3249    3.4549    2.2426 H   0  0  0  0  0  0  0  0  0  0  0  0
    0.3167    3.3776    2.9239 H   0  0  0  0  0  0  0  0  0  0  0  0
    0.0609    4.0073    1.2782 H   0  0  0  0  0  0  0  0  0  0  0  0
  5  6  2  0  0  0  0
  5  7  1  0  0  0  0
  2  3  1  0  0  0  0
  2  4  1  0  0  0  0
  2  5  1  0  0  0  0
  1  2  1  0  0  0  0
 22 23  2  0  0  0  0
 22 24  1  0  0  0  0
 20 21  1  0  0  0  0
 18 19  1  0  0  0  0
 18 20  1  0  0  0  0
 16 17  1  0  0  0  0
 16 18  1  0  0  0  0
 15 16  2  0  0  0  0
 14 15  1  0  0  0  0
 14 20  2  0  0  0  0
 11 12  1  0  0  0  0
 11 13  1  0  0  0  0
 11 14  1  0  0  0  0
  9 10  1  0  0  0  0
  9 11  1  0  0  0  0
  9 22  1  0  0  0  0
  7  8  1  0  0  0  0
  7  9  1  0  0  0  0
 26 27  1  0  0  0  0
 26 28  1  0  0  0  0
 26 29  1  0  0  0  0
 24 25  1  0  0  0  0
 24 26  1  0  0  0  0
M  END
$$$$
default_name
  -OEChem-02102213163D

 29 29  0     1  0  0  0  0  0999 V2000
   -2.9561   -3.9186    1.3887 H   0  0  0  0  0  0  0  0  0  0  0  0
   -3.1191   -2.9346    0.9517 C   0  0  0  0  0  0  0  0  0  0  0  0
   -3.7811   -2.3546    1.5917 H   0  0  0  0  0  0  0  0  0  0  0  0
   -3.5591   -3.0406   -0.0383 H   0  0  0  0  0  0  0  0  0  0  0  0
   -1.7921   -2.2226    0.8327 C   0  0  0  0  0  0  0  0  0  0  0  0
   -0.7611   -2.7766    1.1927 O   0  0  0  0  0  0  0  0  0  0  0  0
   -1.8201   -0.9926    0.3247 N   0  0  0  0  0  0  0  0  0  0  0  0
   -2.7141   -0.5816    0.0927 H   0  0  0  0  0  0  0  0  0  0  0  0
   -0.6481   -0.1156    0.2017 C   0  0  1  0  0  0  0  0  0  0  0  0
    0.1344   -0.4988    0.8596 H   0  0  0  0  0  0  0  0  0  0  0  0
   -0.1211   -0.1520   -1.2460 C   0  0  0  0  0  0  0  0  0  0  0  0
    0.9556    0.0239   -1.2514 H   0  0  0  0  0  0  0  0  0  0  0  0
   -0.2946   -1.1388   -1.6772 H   0  0  0  0  0  0  0  0  0  0  0  0
   -0.7519    0.8991   -2.1266 C   0  0  0  0  0  0  0  0  0  0  0  0
   -1.7252    0.6728   -3.1006 N   0  0  0  0  0  0  0  0  0  0  0  0
   -2.0331    1.8779   -3.6020 C   0  0  0  0  0  0  0  0  0  0  0  0
   -2.7544    2.0468   -4.3915 H   0  0  0  0  0  0  0  0  0  0  0  0
   -1.3288    2.8386   -2.9806 N   0  0  0  0  0  0  0  0  0  0  0  0
   -1.3982    3.8298   -3.1667 H   0  0  0  0  0  0  0  0  0  0  0  0
   -0.5170    2.2404   -2.0427 C   0  0  0  0  0  0  0  0  0  0  0  0
    0.1628    2.7234   -1.3521 H   0  0  0  0  0  0  0  0  0  0  0  0
   -0.9851    1.3114    0.6698 C   0  0  0  0  0  0  0  0  0  0  0  0
   -2.0377    1.8431    0.3168 O   0  0  0  0  0  0  0  0  0  0  0  0
   -0.1052    1.9265    1.4663 N   0  0  0  0  0  0  0  0  0  0  0  0
    0.7810    1.4586    1.6201 H   0  0  0  0  0  0  0  0  0  0  0  0
   -0.2724    3.2715    2.0119 C   0  0  0  0  0  0  0  0  0  0  0  0
   -1.3249    3.4549    2.2426 H   0  0  0  0  0  0  0  0  0  0  0  0
    0.3167    3.3776    2.9239 H   0  0  0  0  0  0  0  0  0  0  0  0
    0.0609    4.0073    1.2782 H   0  0  0  0  0  0  0  0  0  0  0  0
  5  6  2  0  0  0  0
  5  7  1  0  0  0  0
  2  3  1  0  0  0  0
  2  4  1  0  0  0  0
  2  5  1  0  0  0  0
  1  2  1  0  0  0  0
 22 23  2  0  0  0  0
 22 24  1  0  0  0  0
 20 21  1  0  0  0  0
 18 19  1  0  0  0  0
 18 20  1  0  0  0  0
 16 17  1  0  0  0  0
 16 18  1  0  0  0  0
 15 16  2  0  0  0  0
 14 15  1  0  0  0  0
 14 20  2  0  0  0  0
 11 12  1  0  0  0  0
 11 13  1  0  0  0  0
 11 14  1  0  0  0  0
  9 10  1  0  0  0  0
  9 11  1  0  0  0  0
  9 22  1  0  0  0  0
  7  8  1  0  0  0  0
  7  9  1  0  0  0  0
 26 27  1  0  0  0  0
 26 28  1  0  0  0  0
 26 29  1  0  0  0  0
 24 25  1  0  0  0  0
 24 26  1  0  0  0  0
M  END
$$$$
default_name
  -OEChem-02102213163D

 29 29  0     1  0  0  0  0  0999 V2000
   -2.9561   -3.9186    1.3887 H   0  0  0  0  0  0  0  0  0  0  0  0
   -3.1191   -2.9346    0.9517 C   0  0  0  0  0  0  0  0  0  0  0  0
   -3.7811   -2.3546    1.5917 H   0  0  0  0  0  0  0  0  0  0  0  0
   -3.5591   -3.0406   -0.0383 H   0  0  0  0  0  0  0  0  0  0  0  0
   -1.7921   -2.2226    0.8327 C   0  0  0  0  0  0  0  0  0  0  0  0
   -0.7611   -2.7766    1.1927 O   0  0  0  0  0  0  0  0  0  0  0  0
   -1.8201   -0.9926    0.3247 N   0  0  0  0  0  0  0  0  0  0  0  0
   -2.7141   -0.5816    0.0927 H   0  0  0  0  0  0  0  0  0  0  0  0
   -0.6481   -0.1156    0.2017 C   0  0  1  0  0  0  0  0  0  0  0  0
    0.1344   -0.4988    0.8596 H   0  0  0  0  0  0  0  0  0  0  0  0
   -0.1211   -0.1520   -1.2460 C   0  0  0  0  0  0  0  0  0  0  0  0
    0.9556    0.0239   -1.2514 H   0  0  0  0  0  0  0  0  0  0  0  0
   -0.2946   -1.1388   -1.6772 H   0  0  0  0  0  0  0  0  0  0  0  0
   -0.7519    0.8991   -2.1266 C   0  0  0  0  0  0  0  0  0  0  0  0
   -1.9134    0.7416   -2.8838 N   0  0  0  0  0  0  0  0  0  0  0  0
   -2.1372    1.9277   -3.4680 C   0  0  0  0  0  0  0  0  0  0  0  0
   -2.9632    2.1353   -4.1364 H   0  0  0  0  0  0  0  0  0  0  0  0
   -1.1999    2.8169   -3.0988 N   0  0  0  0  0  0  0  0  0  0  0  0
   -1.1626    3.7843   -3.3898 H   0  0  0  0  0  0  0  0  0  0  0  0
   -0.3185    2.1870   -2.2486 C   0  0  0  0  0  0  0  0  0  0  0  0
    0.5405    2.6172   -1.7493 H   0  0  0  0  0  0  0  0  0  0  0  0
   -0.9851    1.3114    0.6698 C   0  0  0  0  0  0  0  0  0  0  0  0
   -2.0377    1.8431    0.3168 O   0  0  0  0  0  0  0  0  0  0  0  0
   -0.1052    1.9265    1.4663 N   0  0  0  0  0  0  0  0  0  0  0  0
    0.7810    1.4586    1.6201 H   0  0  0  0  0  0  0  0  0  0  0  0
   -0.2724    3.2715    2.0119 C   0  0  0  0  0  0  0  0  0  0  0  0
   -1.3249    3.4549    2.2426 H   0  0  0  0  0  0  0  0  0  0  0  0
    0.3167    3.3776    2.9239 H   0  0  0  0  0  0  0  0  0  0  0  0
    0.0609    4.0073    1.2782 H   0  0  0  0  0  0  0  0  0  0  0  0
  5  6  2  0  0  0  0
  5  7  1  0  0  0  0
  2  3  1  0  0  0  0
  2  4  1  0  0  0  0
  2  5  1  0  0  0  0
  1  2  1  0  0  0  0
 22 23  2  0  0  0  0
 22 24  1  0  0  0  0
 20 21  1  0  0  0  0
 18 19  1  0  0  0  0
 18 20  1  0  0  0  0
 16 17  1  0  0  0  0
 16 18  1  0  0  0  0
 15 16  2  0  0  0  0
 14 15  1  0  0  0  0
 14 20  2  0  0  0  0
 11 12  1  0  0  0  0
 11 13  1  0  0  0  0
 11 14  1  0  0  0  0
  9 10  1  0  0  0  0
  9 11  1  0  0  0  0
  9 22  1  0  0  0  0
  7  8  1  0  0  0  0
  7  9  1  0  0  0  0
 26 27  1  0  0  0  0
 26 28  1  0  0  0  0
 26 29  1  0  0  0  0
 24 25  1  0  0  0  0
 24 26  1  0  0  0  0
M  END
$$$$
default_name
  -OEChem-02102213163D

 29 29  0     1  0  0  0  0  0999 V2000
   -2.9561   -3.9186    1.3887 H   0  0  0  0  0  0  0  0  0  0  0  0
   -3.1191   -2.9346    0.9517 C   0  0  0  0  0  0  0  0  0  0  0  0
   -3.7811   -2.3546    1.5917 H   0  0  0  0  0  0  0  0  0  0  0  0
   -3.5591   -3.0406   -0.0383 H   0  0  0  0  0  0  0  0  0  0  0  0
   -1.7921   -2.2226    0.8327 C   0  0  0  0  0  0  0  0  0  0  0  0
   -0.7611   -2.7766    1.1927 O   0  0  0  0  0  0  0  0  0  0  0  0
   -1.8201   -0.9926    0.3247 N   0  0  0  0  0  0  0  0  0  0  0  0
   -2.7141   -0.5816    0.0927 H   0  0  0  0  0  0  0  0  0  0  0  0
   -0.6481   -0.1156    0.2017 C   0  0  1  0  0  0  0  0  0  0  0  0
    0.1344   -0.4988    0.8596 H   0  0  0  0  0  0  0  0  0  0  0  0
   -0.1211   -0.1520   -1.2460 C   0  0  0  0  0  0  0  0  0  0  0  0
    0.9556    0.0239   -1.2514 H   0  0  0  0  0  0  0  0  0  0  0  0
   -0.2946   -1.1388   -1.6772 H   0  0  0  0  0  0  0  0  0  0  0  0
   -0.7519    0.8991   -2.1266 C   0  0  0  0  0  0  0  0  0  0  0  0
   -2.0458    0.8598   -2.6478 N   0  0  0  0  0  0  0  0  0  0  0  0
   -2.2060    2.0061   -3.3251 C   0  0  0  0  0  0  0  0  0  0  0  0
   -3.1056    2.2799   -3.8618 H   0  0  0  0  0  0  0  0  0  0  0  0
   -1.1000    2.7636   -3.2339 N   0  0  0  0  0  0  0  0  0  0  0  0
   -0.9822    3.6806   -3.6428 H   0  0  0  0  0  0  0  0  0  0  0  0
   -0.1720    2.0831   -2.4775 C   0  0  0  0  0  0  0  0  0  0  0  0
    0.8177    2.4147   -2.1896 H   0  0  0  0  0  0  0  0  0  0  0  0
   -0.9851    1.3114    0.6698 C   0  0  0  0  0  0  0  0  0  0  0  0
   -2.0377    1.8431    0.3168 O   0  0  0  0  0  0  0  0  0  0  0  0
   -0.1052    1.9265    1.4663 N   0  0  0  0  0  0  0  0  0  0  0  0
    0.7810    1.4586    1.6201 H   0  0  0  0  0  0  0  0  0  0  0  0
   -0.2724    3.2715    2.0119 C   0  0  0  0  0  0  0  0  0  0  0  0
   -1.3249    3.4549    2.2426 H   0  0  0  0  0  0  0  0  0  0  0  0
    0.3167    3.3776    2.9239 H   0  0  0  0  0  0  0  0  0  0  0  0
    0.0609    4.0073    1.2782 H   0  0  0  0  0  0  0  0  0  0  0  0
  5  6  2  0  0  0  0
  5  7  1  0  0  0  0
  2  3  1  0  0  0  0
  2  4  1  0  0  0  0
  2  5  1  0  0  0  0
  1  2  1  0  0  0  0
 22 23  2  0  0  0  0
 22 24  1  0  0  0  0
 20 21  1  0  0  0  0
 18 19  1  0  0  0  0
 18 20  1  0  0  0  0
 16 17  1  0  0  0  0
 16 18  1  0  0  0  0
 15 16  2  0  0  0  0
 14 15  1  0  0  0  0
 14 20  2  0  0  0  0
 11 12  1  0  0  0  0
 11 13  1  0  0  0  0
 11 14  1  0  0  0  0
  9 10  1  0  0  0  0
  9 11  1  0  0  0  0
  9 22  1  0  0  0  0
  7  8  1  0  0  0  0
  7  9  1  0  0  0  0
 26 27  1  0  0  0  0
 26 28  1  0  0  0  0
 26 29  1  0  0  0  0
 24 25  1  0  0  0  0
 24 26  1  0  0  0  0
M  END
$$$$
default_name
  -OEChem-02102213163D

 29 29  0     1  0  0  0  0  0999 V2000
   -2.9561   -3.9186    1.3887 H   0  0  0  0  0  0  0  0  0  0  0  0
   -3.1191   -2.9346    0.9517 C   0  0  0  0  0  0  0  0  0  0  0  0
   -3.7811   -2.3546    1.5917 H   0  0  0  0  0  0  0  0  0  0  0  0
   -3.5591   -3.0406   -0.0383 H   0  0  0  0  0  0  0  0  0  0  0  0
   -1.7921   -2.2226    0.8327 C   0  0  0  0  0  0  0  0  0  0  0  0
   -0.7611   -2.7766    1.1927 O   0  0  0  0  0  0  0  0  0  0  0  0
   -1.8201   -0.9926    0.3247 N   0  0  0  0  0  0  0  0  0  0  0  0
   -2.7141   -0.5816    0.0927 H   0  0  0  0  0  0  0  0  0  0  0  0
   -0.6481   -0.1156    0.2017 C   0  0  1  0  0  0  0  0  0  0  0  0
    0.1344   -0.4988    0.8596 H   0  0  0  0  0  0  0  0  0  0  0  0
   -0.1211   -0.1520   -1.2460 C   0  0  0  0  0  0  0  0  0  0  0  0
    0.9556    0.0239   -1.2514 H   0  0  0  0  0  0  0  0  0  0  0  0
   -0.2946   -1.1388   -1.6772 H   0  0  0  0  0  0  0  0  0  0  0  0
   -0.7519    0.8991   -2.1266 C   0  0  0  0  0  0  0  0  0  0  0  0
   -2.1132    1.0196   -2.4089 N   0  0  0  0  0  0  0  0  0  0  0  0
   -2.2349    2.1076   -3.1833 C   0  0  0  0  0  0  0  0  0  0  0  0
   -3.1717    2.4707   -3.5866 H   0  0  0  0  0  0  0  0  0  0  0  0
   -1.0360    2.6825   -3.3767 N   0  0  0  0  0  0  0  0  0  0  0  0
   -0.8691    3.5258   -3.9085 H   0  0  0  0  0  0  0  0  0  0  0  0
   -0.0874    1.9359   -2.7138 C   0  0  0  0  0  0  0  0  0  0  0  0
    0.9755    2.1296   -2.6430 H   0  0  0  0  0  0  0  0  0  0  0  0
   -0.9851    1.3114    0.6698 C   0  0  0  0  0  0  0  0  0  0  0  0
   -2.0377    1.8431    0.3168 O   0  0  0  0  0  0  0  0  0  0  0  0
   -0.1052    1.9265    1.4663 N   0  0  0  0  0  0  0  0  0  0  0  0
    0.7810    1.4586    1.6201 H   0  0  0  0  0  0  0  0  0  0  0  0
   -0.2724    3.2715    2.0119 C   0  0  0  0  0  0  0  0  0  0  0  0
   -1.3249    3.4549    2.2426 H   0  0  0  0  0  0  0  0  0  0  0  0
    0.3167    3.3776    2.9239 H   0  0  0  0  0  0  0  0  0  0  0  0
    0.0609    4.0073    1.2782 H   0  0  0  0  0  0  0  0  0  0  0  0
  5  6  2  0  0  0  0
  5  7  1  0  0  0  0
  2  3  1  0  0  0  0
  2  4  1  0  0  0  0
  2  5  1  0  0  0  0
  1  2  1  0  0  0  0
 22 23  2  0  0  0  0
 22 24  1  0  0  0  0
 20 21  1  0  0  0  0
 18 19  1  0  0  0  0
 18 20  1  0  0  0  0
 16 17  1  0  0  0  0
 16 18  1  0  0  0  0
 15 16  2  0  0  0  0
 14 15  1  0  0  0  0
 14 20  2  0  0  0  0
 11 12  1  0  0  0  0
 11 13  1  0  0  0  0
 11 14  1  0  0  0  0
  9 10  1  0  0  0  0
  9 11  1  0  0  0  0
  9 22  1  0  0  0  0
  7  8  1  0  0  0  0
  7  9  1  0  0  0  0
 26 27  1  0  0  0  0
 26 28  1  0  0  0  0
 26 29  1  0  0  0  0
 24 25  1  0  0  0  0
 24 26  1  0  0  0  0
M  END
$$$$
default_name
  -OEChem-02102213163D

 29 29  0     1  0  0  0  0  0999 V2000
   -2.9561   -3.9186    1.3887 H   0  0  0  0  0  0  0  0  0  0  0  0
   -3.1191   -2.9346    0.9517 C   0  0  0  0  0  0  0  0  0  0  0  0
   -3.7811   -2.3546    1.5917 H   0  0  0  0  0  0  0  0  0  0  0  0
   -3.5591   -3.0406   -0.0383 H   0  0  0  0  0  0  0  0  0  0  0  0
   -1.7921   -2.2226    0.8327 C   0  0  0  0  0  0  0  0  0  0  0  0
   -0.7611   -2.7766    1.1927 O   0  0  0  0  0  0  0  0  0  0  0  0
   -1.8201   -0.9926    0.3247 N   0  0  0  0  0  0  0  0  0  0  0  0
   -2.7141   -0.5816    0.0927 H   0  0  0  0  0  0  0  0  0  0  0  0
   -0.6481   -0.1156    0.2017 C   0  0  1  0  0  0  0  0  0  0  0  0
    0.1344   -0.4988    0.8596 H   0  0  0  0  0  0  0  0  0  0  0  0
   -0.1211   -0.1520   -1.2460 C   0  0  0  0  0  0  0  0  0  0  0  0
    0.9556    0.0239   -1.2514 H   0  0  0  0  0  0  0  0  0  0  0  0
   -0.2946   -1.1388   -1.6772 H   0  0  0  0  0  0  0  0  0  0  0  0
   -0.7519    0.8991   -2.1266 C   0  0  0  0  0  0  0  0  0  0  0  0
   -2.1111    1.2099   -2.1832 N   0  0  0  0  0  0  0  0  0  0  0  0
   -2.2219    2.2254   -3.0520 C   0  0  0  0  0  0  0  0  0  0  0  0
   -3.1572    2.6948   -3.3295 H   0  0  0  0  0  0  0  0  0  0  0  0
   -1.0121    2.5790   -3.5173 N   0  0  0  0  0  0  0  0  0  0  0  0
   -0.8312    3.3305   -4.1688 H   0  0  0  0  0  0  0  0  0  0  0  0
   -0.0705    1.7554   -2.9413 C   0  0  0  0  0  0  0  0  0  0  0  0
    1.0032    1.7813   -3.0785 H   0  0  0  0  0  0  0  0  0  0  0  0
   -0.9851    1.3114    0.6698 C   0  0  0  0  0  0  0  0  0  0  0  0
   -2.0377    1.8431    0.3168 O   0  0  0  0  0  0  0  0  0  0  0  0
   -0.1052    1.9265    1.4663 N   0  0  0  0  0  0  0  0  0  0  0  0
    0.7810    1.4586    1.6201 H   0  0  0  0  0  0  0  0  0  0  0  0
   -0.2724    3.2715    2.0119 C   0  0  0  0  0  0  0  0  0  0  0  0
   -1.3249    3.4549    2.2426 H   0  0  0  0  0  0  0  0  0  0  0  0
    0.3167    3.3776    2.9239 H   0  0  0  0  0  0  0  0  0  0  0  0
    0.0609    4.0073    1.2782 H   0  0  0  0  0  0  0  0  0  0  0  0
  5  6  2  0  0  0  0
  5  7  1  0  0  0  0
  2  3  1  0  0  0  0
  2  4  1  0  0  0  0
  2  5  1  0  0  0  0
  1  2  1  0  0  0  0
 22 23  2  0  0  0  0
 22 24  1  0  0  0  0
 20 21  1  0  0  0  0
 18 19  1  0  0  0  0
 18 20  1  0  0  0  0
 16 17  1  0  0  0  0
 16 18  1  0  0  0  0
 15 16  2  0  0  0  0
 14 15  1  0  0  0  0
 14 20  2  0  0  0  0
 11 12  1  0  0  0  0
 11 13  1  0  0  0  0
 11 14  1  0  0  0  0
  9 10  1  0  0  0  0
  9 11  1  0  0  0  0
  9 22  1  0  0  0  0
  7  8  1  0  0  0  0
  7  9  1  0  0  0  0
 26 27  1  0  0  0  0
 26 28  1  0  0  0  0
 26 29  1  0  0  0  0
 24 25  1  0  0  0  0
 24 26  1  0  0  0  0
M  END
$$$$
default_name
  -OEChem-02102213163D

 29 29  0     1  0  0  0  0  0999 V2000
   -2.9561   -3.9186    1.3887 H   0  0  0  0  0  0  0  0  0  0  0  0
   -3.1191   -2.9346    0.9517 C   0  0  0  0  0  0  0  0  0  0  0  0
   -3.7811   -2.3546    1.5917 H   0  0  0  0  0  0  0  0  0  0  0  0
   -3.5591   -3.0406   -0.0383 H   0  0  0  0  0  0  0  0  0  0  0  0
   -1.7921   -2.2226    0.8327 C   0  0  0  0  0  0  0  0  0  0  0  0
   -0.7611   -2.7766    1.1927 O   0  0  0  0  0  0  0  0  0  0  0  0
   -1.8201   -0.9926    0.3247 N   0  0  0  0  0  0  0  0  0  0  0  0
   -2.7141   -0.5816    0.0927 H   0  0  0  0  0  0  0  0  0  0  0  0
   -0.6481   -0.1156    0.2017 C   0  0  1  0  0  0  0  0  0  0  0  0
    0.1344   -0.4988    0.8596 H   0  0  0  0  0  0  0  0  0  0  0  0
   -0.1211   -0.1520   -1.2460 C   0  0  0  0  0  0  0  0  0  0  0  0
    0.9556    0.0239   -1.2514 H   0  0  0  0  0  0  0  0  0  0  0  0
   -0.2946   -1.1388   -1.6772 H   0  0  0  0  0  0  0  0  0  0  0  0
   -0.7519    0.8991   -2.1266 C   0  0  0  0  0  0  0  0  0  0  0  0
   -2.0397    1.4178   -1.9861 N   0  0  0  0  0  0  0  0  0  0  0  0
   -2.1679    2.3514   -2.9403 C   0  0  0  0  0  0  0  0  0  0  0  0
   -3.0630    2.9369   -3.1080 H   0  0  0  0  0  0  0  0  0  0  0  0
   -1.0300    2.4602   -3.6463 N   0  0  0  0  0  0  0  0  0  0  0  0
   -0.8710    3.1080   -4.4059 H   0  0  0  0  0  0  0  0  0  0  0  0
   -0.1225    1.5539   -3.1446 C   0  0  0  0  0  0  0  0  0  0  0  0
    0.8988    1.3936   -3.4665 H   0  0  0  0  0  0  0  0  0  0  0  0
   -0.9851    1.3114    0.6698 C   0  0  0  0  0  0  0  0  0  0  0  0
   -2.0377    1.8431    0.3168 O   0  0  0  0  0  0  0  0  0  0  0  0
   -0.1052    1.9265    1.4663 N   0  0  0  0  0  0  0  0  0  0  0  0
    0.7810    1.4586    1.6201 H   0  0  0  0  0  0  0  0  0  0  0  0
   -0.2724    3.2715    2.0119 C   0  0  0  0  0  0  0  0  0  0  0  0
   -1.3249    3.4549    2.2426 H   0  0  0  0  0  0  0  0  0  0  0  0
    0.3167    3.3776    2.9239 H   0  0  0  0  0  0  0  0  0  0  0  0
    0.0609    4.0073    1.2782 H   0  0  0  0  0  0  0  0  0  0  0  0
  5  6  2  0  0  0  0
  5  7  1  0  0  0  0
  2  3  1  0  0  0  0
  2  4  1  0  0  0  0
  2  5  1  0  0  0  0
  1  2  1  0  0  0  0
 22 23  2  0  0  0  0
 22 24  1  0  0  0  0
 20 21  1  0  0  0  0
 18 19  1  0  0  0  0
 18 20  1  0  0  0  0
 16 17  1  0  0  0  0
 16 18  1  0  0  0  0
 15 16  2  0  0  0  0
 14 15  1  0  0  0  0
 14 20  2  0  0  0  0
 11 12  1  0  0  0  0
 11 13  1  0  0  0  0
 11 14  1  0  0  0  0
  9 10  1  0  0  0  0
  9 11  1  0  0  0  0
  9 22  1  0  0  0  0
  7  8  1  0  0  0  0
  7  9  1  0  0  0  0
 26 27  1  0  0  0  0
 26 28  1  0  0  0  0
 26 29  1  0  0  0  0
 24 25  1  0  0  0  0
 24 26  1  0  0  0  0
M  END
$$$$
default_name
  -OEChem-02102213163D

 29 29  0     1  0  0  0  0  0999 V2000
   -2.9561   -3.9186    1.3887 H   0  0  0  0  0  0  0  0  0  0  0  0
   -3.1191   -2.9346    0.9517 C   0  0  0  0  0  0  0  0  0  0  0  0
   -3.7811   -2.3546    1.5917 H   0  0  0  0  0  0  0  0  0  0  0  0
   -3.5591   -3.0406   -0.0383 H   0  0  0  0  0  0  0  0  0  0  0  0
   -1.7921   -2.2226    0.8327 C   0  0  0  0  0  0  0  0  0  0  0  0
   -0.7611   -2.7766    1.1927 O   0  0  0  0  0  0  0  0  0  0  0  0
   -1.8201   -0.9926    0.3247 N   0  0  0  0  0  0  0  0  0  0  0  0
   -2.7141   -0.5816    0.0927 H   0  0  0  0  0  0  0  0  0  0  0  0
   -0.6481   -0.1156    0.2017 C   0  0  1  0  0  0  0  0  0  0  0  0
    0.1344   -0.4988    0.8596 H   0  0  0  0  0  0  0  0  0  0  0  0
   -0.1211   -0.1520   -1.2460 C   0  0  0  0  0  0  0  0  0  0  0  0
    0.9556    0.0239   -1.2514 H   0  0  0  0  0  0  0  0  0  0  0  0
   -0.2946   -1.1388   -1.6772 H   0  0  0  0  0  0  0  0  0  0  0  0
   -0.7519    0.8991   -2.1266 C   0  0  0  0  0  0  0  0  0  0  0  0
   -1.9039    1.6292   -1.8312 N   0  0  0  0  0  0  0  0  0  0  0  0
   -2.0766    2.4770   -2.8557 C   0  0  0  0  0  0  0  0  0  0  0  0
   -2.8956    3.1805   -2.9373 H   0  0  0  0  0  0  0  0  0  0  0  0
   -1.0884    2.3342   -3.7548 N   0  0  0  0  0  0  0  0  0  0  0  0
   -0.9857    2.8734   -4.6037 H   0  0  0  0  0  0  0  0  0  0  0  0
   -0.2398    1.3451   -3.3098 C   0  0  0  0  0  0  0  0  0  0  0  0
    0.6695    0.9929   -3.7805 H   0  0  0  0  0  0  0  0  0  0  0  0
   -0.9851    1.3114    0.6698 C   0  0  0  0  0  0  0  0  0  0  0  0
   -2.0377    1.8431    0.3168 O   0  0  0  0  0  0  0  0  0  0  0  0
   -0.1052    1.9265    1.4663 N   0  0  0  0  0  0  0  0  0  0  0  0
    0.7810    1.4586    1.6201 H   0  0  0  0  0  0  0  0  0  0  0  0
   -0.2724    3.2715    2.0119 C   0  0  0  0  0  0  0  0  0  0  0  0
   -1.3249    3.4549    2.2426 H   0  0  0  0  0  0  0  0  0  0  0  0
    0.3167    3.3776    2.9239 H   0  0  0  0  0  0  0  0  0  0  0  0
    0.0609    4.0073    1.2782 H   0  0  0  0  0  0  0  0  0  0  0  0
  5  6  2  0  0  0  0
  5  7  1  0  0  0  0
  2  3  1  0  0  0  0
  2  4  1  0  0  0  0
  2  5  1  0  0  0  0
  1  2  1  0  0  0  0
 22 23  2  0  0  0  0
 22 24  1  0  0  0  0
 20 21  1  0  0  0  0
 18 19  1  0  0  0  0
 18 20  1  0  0  0  0
 16 17  1  0  0  0  0
 16 18  1  0  0  0  0
 15 16  2  0  0  0  0
 14 15  1  0  0  0  0
 14 20  2  0  0  0  0
 11 12  1  0  0  0  0
 11 13  1  0  0  0  0
 11 14  1  0  0  0  0
  9 10  1  0  0  0  0
  9 11  1  0  0  0  0
  9 22  1  0  0  0  0
  7  8  1  0  0  0  0
  7  9  1  0  0  0  0
 26 27  1  0  0  0  0
 26 28  1  0  0  0  0
 26 29  1  0  0  0  0
 24 25  1  0  0  0  0
 24 26  1  0  0  0  0
M  END
$$$$
default_name
  -OEChem-02102213163D

 29 29  0     1  0  0  0  0  0999 V2000
   -2.9561   -3.9186    1.3887 H   0  0  0  0  0  0  0  0  0  0  0  0
   -3.1191   -2.9346    0.9517 C   0  0  0  0  0  0  0  0  0  0  0  0
   -3.7811   -2.3546    1.5917 H   0  0  0  0  0  0  0  0  0  0  0  0
   -3.5591   -3.0406   -0.0383 H   0  0  0  0  0  0  0  0  0  0  0  0
   -1.7921   -2.2226    0.8327 C   0  0  0  0  0  0  0  0  0  0  0  0
   -0.7611   -2.7766    1.1927 O   0  0  0  0  0  0  0  0  0  0  0  0
   -1.8201   -0.9926    0.3247 N   0  0  0  0  0  0  0  0  0  0  0  0
   -2.7141   -0.5816    0.0927 H   0  0  0  0  0  0  0  0  0  0  0  0
   -0.6481   -0.1156    0.2017 C   0  0  1  0  0  0  0  0  0  0  0  0
    0.1344   -0.4988    0.8596 H   0  0  0  0  0  0  0  0  0  0  0  0
   -0.1211   -0.1520   -1.2460 C   0  0  0  0  0  0  0  0  0  0  0  0
    0.9556    0.0239   -1.2514 H   0  0  0  0  0  0  0  0  0  0  0  0
   -0.2946   -1.1388   -1.6772 H   0  0  0  0  0  0  0  0  0  0  0  0
   -0.7519    0.8991   -2.1266 C   0  0  0  0  0  0  0  0  0  0  0  0
   -1.7128    1.8296   -1.7288 N   0  0  0  0  0  0  0  0  0  0  0  0
   -1.9542    2.5937   -2.8041 C   0  0  0  0  0  0  0  0  0  0  0  0
   -2.6663    3.4090   -2.8288 H   0  0  0  0  0  0  0  0  0  0  0  0
   -1.1835    2.2096   -3.8354 N   0  0  0  0  0  0  0  0  0  0  0  0
   -1.1677    2.6427   -4.7487 H   0  0  0  0  0  0  0  0  0  0  0  0
   -0.4143    1.1433   -3.4257 C   0  0  0  0  0  0  0  0  0  0  0  0
    0.3309    0.6065   -3.9991 H   0  0  0  0  0  0  0  0  0  0  0  0
   -0.9851    1.3114    0.6698 C   0  0  0  0  0  0  0  0  0  0  0  0
   -2.0377    1.8431    0.3168 O   0  0  0  0  0  0  0  0  0  0  0  0
   -0.1052    1.9265    1.4663 N   0  0  0  0  0  0  0  0  0  0  0  0
    0.7810    1.4586    1.6201 H   0  0  0  0  0  0  0  0  0  0  0  0
   -0.2724    3.2715    2.0119 C   0  0  0  0  0  0  0  0  0  0  0  0
   -1.3249    3.4549    2.2426 H   0  0  0  0  0  0  0  0  0  0  0  0
    0.3167    3.3776    2.9239 H   0  0  0  0  0  0  0  0  0  0  0  0
    0.0609    4.0073    1.2782 H   0  0  0  0  0  0  0  0  0  0  0  0
  5  6  2  0  0  0  0
  5  7  1  0  0  0  0
  2  3  1  0  0  0  0
  2  4  1  0  0  0  0
  2  5  1  0  0  0  0
  1  2  1  0  0  0  0
 22 23  2  0  0  0  0
 22 24  1  0  0  0  0
 20 21  1  0  0  0  0
 18 19  1  0  0  0  0
 18 20  1  0  0  0  0
 16 17  1  0  0  0  0
 16 18  1  0  0  0  0
 15 16  2  0  0  0  0
 14 15  1  0  0  0  0
 14 20  2  0  0  0  0
 11 12  1  0  0  0  0
 11 13  1  0  0  0  0
 11 14  1  0  0  0  0
  9 10  1  0  0  0  0
  9 11  1  0  0  0  0
  9 22  1  0  0  0  0
  7  8  1  0  0  0  0
  7  9  1  0  0  0  0
 26 27  1  0  0  0  0
 26 28  1  0  0  0  0
 26 29  1  0  0  0  0
 24 25  1  0  0  0  0
 24 26  1  0  0  0  0
M  END
$$$$
default_name
  -OEChem-02102213163D

 29 29  0     1  0  0  0  0  0999 V2000
   -2.9561   -3.9186    1.3887 H   0  0  0  0  0  0  0  0  0  0  0  0
   -3.1191   -2.9346    0.9517 C   0  0  0  0  0  0  0  0  0  0  0  0
   -3.7811   -2.3546    1.5917 H   0  0  0  0  0  0  0  0  0  0  0  0
   -3.5591   -3.0406   -0.0383 H   0  0  0  0  0  0  0  0  0  0  0  0
   -1.7921   -2.2226    0.8327 C   0  0  0  0  0  0  0  0  0  0  0  0
   -0.7611   -2.7766    1.1927 O   0  0  0  0  0  0  0  0  0  0  0  0
   -1.8201   -0.9926    0.3247 N   0  0  0  0  0  0  0  0  0  0  0  0
   -2.7141   -0.5816    0.0927 H   0  0  0  0  0  0  0  0  0  0  0  0
   -0.6481   -0.1156    0.2017 C   0  0  1  0  0  0  0  0  0  0  0  0
    0.1344   -0.4988    0.8596 H   0  0  0  0  0  0  0  0  0  0  0  0
   -0.1211   -0.1520   -1.2460 C   0  0  0  0  0  0  0  0  0  0  0  0
    0.9556    0.0239   -1.2514 H   0  0  0  0  0  0  0  0  0  0  0  0
   -0.2946   -1.1388   -1.6772 H   0  0  0  0  0  0  0  0  0  0  0  0
   -0.7519    0.8991   -2.1266 C   0  0  0  0  0  0  0  0  0  0  0  0
   -1.4794    2.0054   -1.6861 N   0  0  0  0  0  0  0  0  0  0  0  0
   -1.8091    2.6935   -2.7889 C   0  0  0  0  0  0  0  0  0  0  0  0
   -2.3907    3.6067   -2.7902 H   0  0  0  0  0  0  0  0  0  0  0  0
   -1.3086    2.0949   -3.8827 N   0  0  0  0  0  0  0  0  0  0  0  0
   -1.4043    2.4317   -4.8310 H   0  0  0  0  0  0  0  0  0  0  0  0
   -0.6343    0.9621   -3.4843 C   0  0  0  0  0  0  0  0  0  0  0  0
   -0.0939    0.2608   -4.1075 H   0  0  0  0  0  0  0  0  0  0  0  0
   -0.9851    1.3114    0.6698 C   0  0  0  0  0  0  0  0  0  0  0  0
   -2.0377    1.8431    0.3168 O   0  0  0  0  0  0  0  0  0  0  0  0
   -0.1052    1.9265    1.4663 N   0  0  0  0  0  0  0  0  0  0  0  0
    0.7810    1.4586    1.6201 H   0  0  0  0  0  0  0  0  0  0  0  0
   -0.2724    3.2715    2.0119 C   0  0  0  0  0  0  0  0  0  0  0  0
   -1.3249    3.4549    2.2426 H   0  0  0  0  0  0  0  0  0  0  0  0
    0.3167    3.3776    2.9239 H   0  0  0  0  0  0  0  0  0  0  0  0
    0.0609    4.0073    1.2782 H   0  0  0  0  0  0  0  0  0  0  0  0
  5  6  2  0  0  0  0
  5  7  1  0  0  0  0
  2  3  1  0  0  0  0
  2  4  1  0  0  0  0
  2  5  1  0  0  0  0
  1  2  1  0  0  0  0
 22 23  2  0  0  0  0
 22 24  1  0  0  0  0
 20 21  1  0  0  0  0
 18 19  1  0  0  0  0
 18 20  1  0  0  0  0
 16 17  1  0  0  0  0
 16 18  1  0  0  0  0
 15 16  2  0  0  0  0
 14 15  1  0  0  0  0
 14 20  2  0  0  0  0
 11 12  1  0  0  0  0
 11 13  1  0  0  0  0
 11 14  1  0  0  0  0
  9 10  1  0  0  0  0
  9 11  1  0  0  0  0
  9 22  1  0  0  0  0
  7  8  1  0  0  0  0
  7  9  1  0  0  0  0
 26 27  1  0  0  0  0
 26 28  1  0  0  0  0
 26 29  1  0  0  0  0
 24 25  1  0  0  0  0
 24 26  1  0  0  0  0
M  END
$$$$
default_name
  -OEChem-02102213163D

 29 29  0     1  0  0  0  0  0999 V2000
   -2.9561   -3.9186    1.3887 H   0  0  0  0  0  0  0  0  0  0  0  0
   -3.1191   -2.9346    0.9517 C   0  0  0  0  0  0  0  0  0  0  0  0
   -3.7811   -2.3546    1.5917 H   0  0  0  0  0  0  0  0  0  0  0  0
   -3.5591   -3.0406   -0.0383 H   0  0  0  0  0  0  0  0  0  0  0  0
   -1.7921   -2.2226    0.8327 C   0  0  0  0  0  0  0  0  0  0  0  0
   -0.7611   -2.7766    1.1927 O   0  0  0  0  0  0  0  0  0  0  0  0
   -1.8201   -0.9926    0.3247 N   0  0  0  0  0  0  0  0  0  0  0  0
   -2.7141   -0.5816    0.0927 H   0  0  0  0  0  0  0  0  0  0  0  0
   -0.6481   -0.1156    0.2017 C   0  0  1  0  0  0  0  0  0  0  0  0
    0.1344   -0.4988    0.8596 H   0  0  0  0  0  0  0  0  0  0  0  0
   -0.1211   -0.1520   -1.2460 C   0  0  0  0  0  0  0  0  0  0  0  0
    0.9556    0.0239   -1.2514 H   0  0  0  0  0  0  0  0  0  0  0  0
   -0.2946   -1.1388   -1.6772 H   0  0  0  0  0  0  0  0  0  0  0  0
   -0.7519    0.8991   -2.1266 C   0  0  0  0  0  0  0  0  0  0  0  0
   -1.2198    2.1447   -1.7059 N   0  0  0  0  0  0  0  0  0  0  0  0
   -1.6510    2.7697   -2.8112 C   0  0  0  0  0  0  0  0  0  0  0  0
   -2.0877    3.7604   -2.8238 H   0  0  0  0  0  0  0  0  0  0  0  0
   -1.4554    1.9978   -3.8934 N   0  0  0  0  0  0  0  0  0  0  0  0
   -1.6797    2.2547   -4.8450 H   0  0  0  0  0  0  0  0  0  0  0  0
   -0.8847    0.8140   -3.4817 C   0  0  0  0  0  0  0  0  0  0  0  0
   -0.5759   -0.0208   -4.0982 H   0  0  0  0  0  0  0  0  0  0  0  0
   -0.9851    1.3114    0.6698 C   0  0  0  0  0  0  0  0  0  0  0  0
   -2.0377    1.8431    0.3168 O   0  0  0  0  0  0  0  0  0  0  0  0
   -0.1052    1.9265    1.4663 N   0  0  0  0  0  0  0  0  0  0  0  0
    0.7810    1.4586    1.6201 H   0  0  0  0  0  0  0  0  0  0  0  0
   -0.2724    3.2715    2.0119 C   0  0  0  0  0  0  0  0  0  0  0  0
   -1.3249    3.4549    2.2426 H   0  0  0  0  0  0  0  0  0  0  0  0
    0.3167    3.3776    2.9239 H   0  0  0  0  0  0  0  0  0  0  0  0
    0.0609    4.0073    1.2782 H   0  0  0  0  0  0  0  0  0  0  0  0
  5  6  2  0  0  0  0
  5  7  1  0  0  0  0
  2  3  1  0  0  0  0
  2  4  1  0  0  0  0
  2  5  1  0  0  0  0
  1  2  1  0  0  0  0
 22 23  2  0  0  0  0
 22 24  1  0  0  0  0
 20 21  1  0  0  0  0
 18 19  1  0  0  0  0
 18 20  1  0  0  0  0
 16 17  1  0  0  0  0
 16 18  1  0  0  0  0
 15 16  2  0  0  0  0
 14 15  1  0  0  0  0
 14 20  2  0  0  0  0
 11 12  1  0  0  0  0
 11 13  1  0  0  0  0
 11 14  1  0  0  0  0
  9 10  1  0  0  0  0
  9 11  1  0  0  0  0
  9 22  1  0  0  0  0
  7  8  1  0  0  0  0
  7  9  1  0  0  0  0
 26 27  1  0  0  0  0
 26 28  1  0  0  0  0
 26 29  1  0  0  0  0
 24 25  1  0  0  0  0
 24 26  1  0  0  0  0
M  END
$$$$
default_name
  -OEChem-02102213163D

 29 29  0     1  0  0  0  0  0999 V2000
   -2.9561   -3.9186    1.3887 H   0  0  0  0  0  0  0  0  0  0  0  0
   -3.1191   -2.9346    0.9517 C   0  0  0  0  0  0  0  0  0  0  0  0
   -3.7811   -2.3546    1.5917 H   0  0  0  0  0  0  0  0  0  0  0  0
   -3.5591   -3.0406   -0.0383 H   0  0  0  0  0  0  0  0  0  0  0  0
   -1.7921   -2.2226    0.8327 C   0  0  0  0  0  0  0  0  0  0  0  0
   -0.7611   -2.7766    1.1927 O   0  0  0  0  0  0  0  0  0  0  0  0
   -1.8201   -0.9926    0.3247 N   0  0  0  0  0  0  0  0  0  0  0  0
   -2.7141   -0.5816    0.0927 H   0  0  0  0  0  0  0  0  0  0  0  0
   -0.6481   -0.1156    0.2017 C   0  0  1  0  0  0  0  0  0  0  0  0
    0.1344   -0.4988    0.8596 H   0  0  0  0  0  0  0  0  0  0  0  0
   -0.1211   -0.1520   -1.2460 C   0  0  0  0  0  0  0  0  0  0  0  0
    0.9556    0.0239   -1.2514 H   0  0  0  0  0  0  0  0  0  0  0  0
   -0.2946   -1.1388   -1.6772 H   0  0  0  0  0  0  0  0  0  0  0  0
   -0.7519    0.8991   -2.1266 C   0  0  0  0  0  0  0  0  0  0  0  0
   -0.9516    2.2378   -1.7869 N   0  0  0  0  0  0  0  0  0  0  0  0
   -1.4909    2.8170   -2.8695 C   0  0  0  0  0  0  0  0  0  0  0  0
   -1.7779    3.8593   -2.9276 H   0  0  0  0  0  0  0  0  0  0  0  0
   -1.6137    1.9251   -3.8668 N   0  0  0  0  0  0  0  0  0  0  0  0
   -1.9749    2.1238   -4.7898 H   0  0  0  0  0  0  0  0  0  0  0  0
   -1.1485    0.7091   -3.4180 C   0  0  0  0  0  0  0  0  0  0  0  0
   -1.0824   -0.2189   -3.9720 H   0  0  0  0  0  0  0  0  0  0  0  0
   -0.9851    1.3114    0.6698 C   0  0  0  0  0  0  0  0  0  0  0  0
   -2.0377    1.8431    0.3168 O   0  0  0  0  0  0  0  0  0  0  0  0
   -0.1052    1.9265    1.4663 N   0  0  0  0  0  0  0  0  0  0  0  0
    0.7810    1.4586    1.6201 H   0  0  0  0  0  0  0  0  0  0  0  0
   -0.2724    3.2715    2.0119 C   0  0  0  0  0  0  0  0  0  0  0  0
   -1.3249    3.4549    2.2426 H   0  0  0  0  0  0  0  0  0  0  0  0
    0.3167    3.3776    2.9239 H   0  0  0  0  0  0  0  0  0  0  0  0
    0.0609    4.0073    1.2782 H   0  0  0  0  0  0  0  0  0  0  0  0
  5  6  2  0  0  0  0
  5  7  1  0  0  0  0
  2  3  1  0  0  0  0
  2  4  1  0  0  0  0
  2  5  1  0  0  0  0
  1  2  1  0  0  0  0
 22 23  2  0  0  0  0
 22 24  1  0  0  0  0
 20 21  1  0  0  0  0
 18 19  1  0  0  0  0
 18 20  1  0  0  0  0
 16 17  1  0  0  0  0
 16 18  1  0  0  0  0
 15 16  2  0  0  0  0
 14 15  1  0  0  0  0
 14 20  2  0  0  0  0
 11 12  1  0  0  0  0
 11 13  1  0  0  0  0
 11 14  1  0  0  0  0
  9 10  1  0  0  0  0
  9 11  1  0  0  0  0
  9 22  1  0  0  0  0
  7  8  1  0  0  0  0
  7  9  1  0  0  0  0
 26 27  1  0  0  0  0
 26 28  1  0  0  0  0
 26 29  1  0  0  0  0
 24 25  1  0  0  0  0
 24 26  1  0  0  0  0
M  END
$$$$
default_name
  -OEChem-02102213163D

 29 29  0     1  0  0  0  0  0999 V2000
   -2.9561   -3.9186    1.3887 H   0  0  0  0  0  0  0  0  0  0  0  0
   -3.1191   -2.9346    0.9517 C   0  0  0  0  0  0  0  0  0  0  0  0
   -3.7811   -2.3546    1.5917 H   0  0  0  0  0  0  0  0  0  0  0  0
   -3.5591   -3.0406   -0.0383 H   0  0  0  0  0  0  0  0  0  0  0  0
   -1.7921   -2.2226    0.8327 C   0  0  0  0  0  0  0  0  0  0  0  0
   -0.7611   -2.7766    1.1927 O   0  0  0  0  0  0  0  0  0  0  0  0
   -1.8201   -0.9926    0.3247 N   0  0  0  0  0  0  0  0  0  0  0  0
   -2.7141   -0.5816    0.0927 H   0  0  0  0  0  0  0  0  0  0  0  0
   -0.6481   -0.1156    0.2017 C   0  0  1  0  0  0  0  0  0  0  0  0
    0.1344   -0.4988    0.8596 H   0  0  0  0  0  0  0  0  0  0  0  0
   -0.1211   -0.1520   -1.2460 C   0  0  0  0  0  0  0  0  0  0  0  0
    0.9556    0.0239   -1.2514 H   0  0  0  0  0  0  0  0  0  0  0  0
   -0.2946   -1.1388   -1.6772 H   0  0  0  0  0  0  0  0  0  0  0  0
   -0.7519    0.8991   -2.1266 C   0  0  0  0  0  0  0  0  0  0  0  0
   -0.6931    2.2785   -1.9235 N   0  0  0  0  0  0  0  0  0  0  0  0
   -1.3396    2.8322   -2.9597 C   0  0  0  0  0  0  0  0  0  0  0  0
   -1.4825    3.8969   -3.0944 H   0  0  0  0  0  0  0  0  0  0  0  0
   -1.7728    1.8816   -3.8047 N   0  0  0  0  0  0  0  0  0  0  0  0
   -2.2698    2.0479   -4.6691 H   0  0  0  0  0  0  0  0  0  0  0  0
   -1.4076    0.6544   -3.2976 C   0  0  0  0  0  0  0  0  0  0  0  0
   -1.5788   -0.3201   -3.7372 H   0  0  0  0  0  0  0  0  0  0  0  0
   -0.9851    1.3114    0.6698 C   0  0  0  0  0  0  0  0  0  0  0  0
   -2.0377    1.8431    0.3168 O   0  0  0  0  0  0  0  0  0  0  0  0
   -0.1052    1.9265    1.4663 N   0  0  0  0  0  0  0  0  0  0  0  0
    0.7810    1.4586    1.6201 H   0  0  0  0  0  0  0  0  0  0  0  0
   -0.2724    3.2715    2.0119 C   0  0  0  0  0  0  0  0  0  0  0  0
   -1.3249    3.4549    2.2426 H   0  0  0  0  0  0  0  0  0  0  0  0
    0.3167    3.3776    2.9239 H   0  0  0  0  0  0  0  0  0  0  0  0
    0.0609    4.0073    1.2782 H   0  0  0  0  0  0  0  0  0  0  0  0
  5  6  2  0  0  0  0
  5  7  1  0  0  0  0
  2  3  1  0  0  0  0
  2  4  1  0  0  0  0
  2  5  1  0  0  0  0
  1  2  1  0  0  0  0
 22 23  2  0  0  0  0
 22 24  1  0  0  0  0
 20 21  1  0  0  0  0
 18 19  1  0  0  0  0
 18 20  1  0  0  0  0
 16 17  1  0  0  0  0
 16 18  1  0  0  0  0
 15 16  2  0  0  0  0
 14 15  1  0  0  0  0
 14 20  2  0  0  0  0
 11 12  1  0  0  0  0
 11 13  1  0  0  0  0
 11 14  1  0  0  0  0
  9 10  1  0  0  0  0
  9 11  1  0  0  0  0
  9 22  1  0  0  0  0
  7  8  1  0  0  0  0
  7  9  1  0  0  0  0
 26 27  1  0  0  0  0
 26 28  1  0  0  0  0
 26 29  1  0  0  0  0
 24 25  1  0  0  0  0
 24 26  1  0  0  0  0
M  END
$$$$
default_name
  -OEChem-02102213163D

 29 29  0     1  0  0  0  0  0999 V2000
   -2.9561   -3.9186    1.3887 H   0  0  0  0  0  0  0  0  0  0  0  0
   -3.1191   -2.9346    0.9517 C   0  0  0  0  0  0  0  0  0  0  0  0
   -3.7811   -2.3546    1.5917 H   0  0  0  0  0  0  0  0  0  0  0  0
   -3.5591   -3.0406   -0.0383 H   0  0  0  0  0  0  0  0  0  0  0  0
   -1.7921   -2.2226    0.8327 C   0  0  0  0  0  0  0  0  0  0  0  0
   -0.7611   -2.7766    1.1927 O   0  0  0  0  0  0  0  0  0  0  0  0
   -1.8201   -0.9926    0.3247 N   0  0  0  0  0  0  0  0  0  0  0  0
   -2.7141   -0.5816    0.0927 H   0  0  0  0  0  0  0  0  0  0  0  0
   -0.6481   -0.1156    0.2017 C   0  0  1  0  0  0  0  0  0  0  0  0
    0.1344   -0.4988    0.8596 H   0  0  0  0  0  0  0  0  0  0  0  0
   -0.1211   -0.1520   -1.2460 C   0  0  0  0  0  0  0  0  0  0  0  0
    0.9556    0.0239   -1.2514 H   0  0  0  0  0  0  0  0  0  0  0  0
   -0.2946   -1.1388   -1.6772 H   0  0  0  0  0  0  0  0  0  0  0  0
   -0.7519    0.8991   -2.1266 C   0  0  0  0  0  0  0  0  0  0  0  0
   -0.4618    2.2640   -2.1065 N   0  0  0  0  0  0  0  0  0  0  0  0
   -1.2074    2.8143   -3.0758 C   0  0  0  0  0  0  0  0  0  0  0  0
   -1.2214    3.8706   -3.3128 H   0  0  0  0  0  0  0  0  0  0  0  0
   -1.9219    1.8704   -3.7114 N   0  0  0  0  0  0  0  0  0  0  0  0
   -2.5444    2.0322   -4.4912 H   0  0  0  0  0  0  0  0  0  0  0  0
   -1.6445    0.6538   -3.1287 C   0  0  0  0  0  0  0  0  0  0  0  0
   -2.0312   -0.3176   -3.4101 H   0  0  0  0  0  0  0  0  0  0  0  0
   -0.9851    1.3114    0.6698 C   0  0  0  0  0  0  0  0  0  0  0  0
   -2.0377    1.8431    0.3168 O   0  0  0  0  0  0  0  0  0  0  0  0
   -0.1052    1.9265    1.4663 N   0  0  0  0  0  0  0  0  0  0  0  0
    0.7810    1.4586    1.6201 H   0  0  0  0  0  0  0  0  0  0  0  0
   -0.2724    3.2715    2.0119 C   0  0  0  0  0  0  0  0  0  0  0  0
   -1.3249    3.4549    2.2426 H   0  0  0  0  0  0  0  0  0  0  0  0
    0.3167    3.3776    2.9239 H   0  0  0  0  0  0  0  0  0  0  0  0
    0.0609    4.0073    1.2782 H   0  0  0  0  0  0  0  0  0  0  0  0
  5  6  2  0  0  0  0
  5  7  1  0  0  0  0
  2  3  1  0  0  0  0
  2  4  1  0  0  0  0
  2  5  1  0  0  0  0
  1  2  1  0  0  0  0
 22 23  2  0  0  0  0
 22 24  1  0  0  0  0
 20 21  1  0  0  0  0
 18 19  1  0  0  0  0
 18 20  1  0  0  0  0
 16 17  1  0  0  0  0
 16 18  1  0  0  0  0
 15 16  2  0  0  0  0
 14 15  1  0  0  0  0
 14 20  2  0  0  0  0
 11 12  1  0  0  0  0
 11 13  1  0  0  0  0
 11 14  1  0  0  0  0
  9 10  1  0  0  0  0
  9 11  1  0  0  0  0
  9 22  1  0  0  0  0
  7  8  1  0  0  0  0
  7  9  1  0  0  0  0
 26 27  1  0  0  0  0
 26 28  1  0  0  0  0
 26 29  1  0  0  0  0
 24 25  1  0  0  0  0
 24 26  1  0  0  0  0
M  END
$$$$
default_name
  -OEChem-02102213163D

 29 29  0     1  0  0  0  0  0999 V2000
   -2.9561   -3.9186    1.3887 H   0  0  0  0  0  0  0  0  0  0  0  0
   -3.1191   -2.9346    0.9517 C   0  0  0  0  0  0  0  0  0  0  0  0
   -3.7811   -2.3546    1.5917 H   0  0  0  0  0  0  0  0  0  0  0  0
   -3.5591   -3.0406   -0.0383 H   0  0  0  0  0  0  0  0  0  0  0  0
   -1.7921   -2.2226    0.8327 C   0  0  0  0  0  0  0  0  0  0  0  0
   -0.7611   -2.7766    1.1927 O   0  0  0  0  0  0  0  0  0  0  0  0
   -1.8201   -0.9926    0.3247 N   0  0  0  0  0  0  0  0  0  0  0  0
   -2.7141   -0.5816    0.0927 H   0  0  0  0  0  0  0  0  0  0  0  0
   -0.6481   -0.1156    0.2017 C   0  0  1  0  0  0  0  0  0  0  0  0
    0.1344   -0.4988    0.8596 H   0  0  0  0  0  0  0  0  0  0  0  0
   -0.1211   -0.1520   -1.2460 C   0  0  0  0  0  0  0  0  0  0  0  0
    0.9556    0.0239   -1.2514 H   0  0  0  0  0  0  0  0  0  0  0  0
   -0.2946   -1.1388   -1.6772 H   0  0  0  0  0  0  0  0  0  0  0  0
   -0.7519    0.8991   -2.1266 C   0  0  0  0  0  0  0  0  0  0  0  0
   -0.2736    2.1952   -2.3233 N   0  0  0  0  0  0  0  0  0  0  0  0
   -1.1034    2.7644   -3.2098 C   0  0  0  0  0  0  0  0  0  0  0  0
   -1.0126    3.7821   -3.5680 H   0  0  0  0  0  0  0  0  0  0  0  0
   -2.0508    1.8921   -3.5931 N   0  0  0  0  0  0  0  0  0  0  0  0
   -2.7800    2.0777   -4.2681 H   0  0  0  0  0  0  0  0  0  0  0  0
   -1.8430    0.7072   -2.9228 C   0  0  0  0  0  0  0  0  0  0  0  0
   -2.4089   -0.2114   -3.0129 H   0  0  0  0  0  0  0  0  0  0  0  0
   -0.9851    1.3114    0.6698 C   0  0  0  0  0  0  0  0  0  0  0  0
   -2.0377    1.8431    0.3168 O   0  0  0  0  0  0  0  0  0  0  0  0
   -0.1052    1.9265    1.4663 N   0  0  0  0  0  0  0  0  0  0  0  0
    0.7810    1.4586    1.6201 H   0  0  0  0  0  0  0  0  0  0  0  0
   -0.2724    3.2715    2.0119 C   0  0  0  0  0  0  0  0  0  0  0  0
   -1.3249    3.4549    2.2426 H   0  0  0  0  0  0  0  0  0  0  0  0
    0.3167    3.3776    2.9239 H   0  0  0  0  0  0  0  0  0  0  0  0
    0.0609    4.0073    1.2782 H   0  0  0  0  0  0  0  0  0  0  0  0
  5  6  2  0  0  0  0
  5  7  1  0  0  0  0
  2  3  1  0  0  0  0
  2  4  1  0  0  0  0
  2  5  1  0  0  0  0
  1  2  1  0  0  0  0
 22 23  2  0  0  0  0
 22 24  1  0  0  0  0
 20 21  1  0  0  0  0
 18 19  1  0  0  0  0
 18 20  1  0  0  0  0
 16 17  1  0  0  0  0
 16 18  1  0  0  0  0
 15 16  2  0  0  0  0
 14 15  1  0  0  0  0
 14 20  2  0  0  0  0
 11 12  1  0  0  0  0
 11 13  1  0  0  0  0
 11 14  1  0  0  0  0
  9 10  1  0  0  0  0
  9 11  1  0  0  0  0
  9 22  1  0  0  0  0
  7  8  1  0  0  0  0
  7  9  1  0  0  0  0
 26 27  1  0  0  0  0
 26 28  1  0  0  0  0
 26 29  1  0  0  0  0
 24 25  1  0  0  0  0
 24 26  1  0  0  0  0
M  END
$$$$
default_name
  -OEChem-02102213163D

 29 29  0     1  0  0  0  0  0999 V2000
   -2.9561   -3.9186    1.3887 H   0  0  0  0  0  0  0  0  0  0  0  0
   -3.1191   -2.9346    0.9517 C   0  0  0  0  0  0  0  0  0  0  0  0
   -3.7811   -2.3546    1.5917 H   0  0  0  0  0  0  0  0  0  0  0  0
   -3.5591   -3.0406   -0.0383 H   0  0  0  0  0  0  0  0  0  0  0  0
   -1.7921   -2.2226    0.8327 C   0  0  0  0  0  0  0  0  0  0  0  0
   -0.7611   -2.7766    1.1927 O   0  0  0  0  0  0  0  0  0  0  0  0
   -1.8201   -0.9926    0.3247 N   0  0  0  0  0  0  0  0  0  0  0  0
   -2.7141   -0.5816    0.0927 H   0  0  0  0  0  0  0  0  0  0  0  0
   -0.6481   -0.1156    0.2017 C   0  0  1  0  0  0  0  0  0  0  0  0
    0.1344   -0.4988    0.8596 H   0  0  0  0  0  0  0  0  0  0  0  0
   -0.1211   -0.1520   -1.2460 C   0  0  0  0  0  0  0  0  0  0  0  0
    0.9556    0.0239   -1.2514 H   0  0  0  0  0  0  0  0  0  0  0  0
   -0.2946   -1.1388   -1.6772 H   0  0  0  0  0  0  0  0  0  0  0  0
   -0.7519    0.8991   -2.1266 C   0  0  0  0  0  0  0  0  0  0  0  0
   -0.1413    2.0770   -2.5592 N   0  0  0  0  0  0  0  0  0  0  0  0
   -1.0346    2.6861   -3.3526 C   0  0  0  0  0  0  0  0  0  0  0  0
   -0.8703    3.6375   -3.8425 H   0  0  0  0  0  0  0  0  0  0  0  0
   -2.1506    1.9454   -3.4580 N   0  0  0  0  0  0  0  0  0  0  0  0
   -2.9604    2.1814   -4.0151 H   0  0  0  0  0  0  0  0  0  0  0  0
   -1.9895    0.8111   -2.6939 C   0  0  0  0  0  0  0  0  0  0  0  0
   -2.6861   -0.0089   -2.5726 H   0  0  0  0  0  0  0  0  0  0  0  0
   -0.9851    1.3114    0.6698 C   0  0  0  0  0  0  0  0  0  0  0  0
   -2.0377    1.8431    0.3168 O   0  0  0  0  0  0  0  0  0  0  0  0
   -0.1052    1.9265    1.4663 N   0  0  0  0  0  0  0  0  0  0  0  0
    0.7810    1.4586    1.6201 H   0  0  0  0  0  0  0  0  0  0  0  0
   -0.2724    3.2715    2.0119 C   0  0  0  0  0  0  0  0  0  0  0  0
   -1.3249    3.4549    2.2426 H   0  0  0  0  0  0  0  0  0  0  0  0
    0.3167    3.3776    2.9239 H   0  0  0  0  0  0  0  0  0  0  0  0
    0.0609    4.0073    1.2782 H   0  0  0  0  0  0  0  0  0  0  0  0
  5  6  2  0  0  0  0
  5  7  1  0  0  0  0
  2  3  1  0  0  0  0
  2  4  1  0  0  0  0
  2  5  1  0  0  0  0
  1  2  1  0  0  0  0
 22 23  2  0  0  0  0
 22 24  1  0  0  0  0
 20 21  1  0  0  0  0
 18 19  1  0  0  0  0
 18 20  1  0  0  0  0
 16 17  1  0  0  0  0
 16 18  1  0  0  0  0
 15 16  2  0  0  0  0
 14 15  1  0  0  0  0
 14 20  2  0  0  0  0
 11 12  1  0  0  0  0
 11 13  1  0  0  0  0
 11 14  1  0  0  0  0
  9 10  1  0  0  0  0
  9 11  1  0  0  0  0
  9 22  1  0  0  0  0
  7  8  1  0  0  0  0
  7  9  1  0  0  0  0
 26 27  1  0  0  0  0
 26 28  1  0  0  0  0
 26 29  1  0  0  0  0
 24 25  1  0  0  0  0
 24 26  1  0  0  0  0
M  END
$$$$
default_name
  -OEChem-02102213163D

 29 29  0     1  0  0  0  0  0999 V2000
   -2.9561   -3.9186    1.3887 H   0  0  0  0  0  0  0  0  0  0  0  0
   -3.1191   -2.9346    0.9517 C   0  0  0  0  0  0  0  0  0  0  0  0
   -3.7811   -2.3546    1.5917 H   0  0  0  0  0  0  0  0  0  0  0  0
   -3.5591   -3.0406   -0.0383 H   0  0  0  0  0  0  0  0  0  0  0  0
   -1.7921   -2.2226    0.8327 C   0  0  0  0  0  0  0  0  0  0  0  0
   -0.7611   -2.7766    1.1927 O   0  0  0  0  0  0  0  0  0  0  0  0
   -1.8201   -0.9926    0.3247 N   0  0  0  0  0  0  0  0  0  0  0  0
   -2.7141   -0.5816    0.0927 H   0  0  0  0  0  0  0  0  0  0  0  0
   -0.6481   -0.1156    0.2017 C   0  0  1  0  0  0  0  0  0  0  0  0
    0.1344   -0.4988    0.8596 H   0  0  0  0  0  0  0  0  0  0  0  0
   -0.1211   -0.1520   -1.2460 C   0  0  0  0  0  0  0  0  0  0  0  0
    0.9556    0.0239   -1.2514 H   0  0  0  0  0  0  0  0  0  0  0  0
   -0.2946   -1.1388   -1.6772 H   0  0  0  0  0  0  0  0  0  0  0  0
   -0.7519    0.8991   -2.1266 C   0  0  0  0  0  0  0  0  0  0  0  0
   -0.0739    1.9172   -2.7982 N   0  0  0  0  0  0  0  0  0  0  0  0
   -1.0056    2.5846   -3.4945 C   0  0  0  0  0  0  0  0  0  0  0  0
   -0.8041    3.4467   -4.1177 H   0  0  0  0  0  0  0  0  0  0  0  0
   -2.2147    2.0266   -3.3152 N   0  0  0  0  0  0  0  0  0  0  0  0
   -3.0735    2.3362   -3.7494 H   0  0  0  0  0  0  0  0  0  0  0  0
   -2.0741    0.9583   -2.4576 C   0  0  0  0  0  0  0  0  0  0  0  0
   -2.8439    0.2762   -2.1192 H   0  0  0  0  0  0  0  0  0  0  0  0
   -0.9851    1.3114    0.6698 C   0  0  0  0  0  0  0  0  0  0  0  0
   -2.0377    1.8431    0.3168 O   0  0  0  0  0  0  0  0  0  0  0  0
   -0.1052    1.9265    1.4663 N   0  0  0  0  0  0  0  0  0  0  0  0
    0.7810    1.4586    1.6201 H   0  0  0  0  0  0  0  0  0  0  0  0
   -0.2724    3.2715    2.0119 C   0  0  0  0  0  0  0  0  0  0  0  0
   -1.3249    3.4549    2.2426 H   0  0  0  0  0  0  0  0  0  0  0  0
    0.3167    3.3776    2.9239 H   0  0  0  0  0  0  0  0  0  0  0  0
    0.0609    4.0073    1.2782 H   0  0  0  0  0  0  0  0  0  0  0  0
  5  6  2  0  0  0  0
  5  7  1  0  0  0  0
  2  3  1  0  0  0  0
  2  4  1  0  0  0  0
  2  5  1  0  0  0  0
  1  2  1  0  0  0  0
 22 23  2  0  0  0  0
 22 24  1  0  0  0  0
 20 21  1  0  0  0  0
 18 19  1  0  0  0  0
 18 20  1  0  0  0  0
 16 17  1  0  0  0  0
 16 18  1  0  0  0  0
 15 16  2  0  0  0  0
 14 15  1  0  0  0  0
 14 20  2  0  0  0  0
 11 12  1  0  0  0  0
 11 13  1  0  0  0  0
 11 14  1  0  0  0  0
  9 10  1  0  0  0  0
  9 11  1  0  0  0  0
  9 22  1  0  0  0  0
  7  8  1  0  0  0  0
  7  9  1  0  0  0  0
 26 27  1  0  0  0  0
 26 28  1  0  0  0  0
 26 29  1  0  0  0  0
 24 25  1  0  0  0  0
 24 26  1  0  0  0  0
M  END
$$$$
default_name
  -OEChem-02102213163D

 29 29  0     1  0  0  0  0  0999 V2000
   -2.9561   -3.9186    1.3887 H   0  0  0  0  0  0  0  0  0  0  0  0
   -3.1191   -2.9346    0.9517 C   0  0  0  0  0  0  0  0  0  0  0  0
   -3.7811   -2.3546    1.5917 H   0  0  0  0  0  0  0  0  0  0  0  0
   -3.5591   -3.0406   -0.0383 H   0  0  0  0  0  0  0  0  0  0  0  0
   -1.7921   -2.2226    0.8327 C   0  0  0  0  0  0  0  0  0  0  0  0
   -0.7611   -2.7766    1.1927 O   0  0  0  0  0  0  0  0  0  0  0  0
   -1.8201   -0.9926    0.3247 N   0  0  0  0  0  0  0  0  0  0  0  0
   -2.7141   -0.5816    0.0927 H   0  0  0  0  0  0  0  0  0  0  0  0
   -0.6481   -0.1156    0.2017 C   0  0  1  0  0  0  0  0  0  0  0  0
    0.1344   -0.4988    0.8596 H   0  0  0  0  0  0  0  0  0  0  0  0
   -0.1211   -0.1520   -1.2460 C   0  0  0  0  0  0  0  0  0  0  0  0
    0.9556    0.0239   -1.2514 H   0  0  0  0  0  0  0  0  0  0  0  0
   -0.2946   -1.1388   -1.6772 H   0  0  0  0  0  0  0  0  0  0  0  0
   -0.7519    0.8991   -2.1266 C   0  0  0  0  0  0  0  0  0  0  0  0
   -0.0759    1.7269   -3.0239 N   0  0  0  0  0  0  0  0  0  0  0  0
   -1.0186    2.4668   -3.6258 C   0  0  0  0  0  0  0  0  0  0  0  0
   -0.8186    3.2226   -4.3748 H   0  0  0  0  0  0  0  0  0  0  0  0
   -2.2386    2.1301   -3.1746 N   0  0  0  0  0  0  0  0  0  0  0  0
   -3.1114    2.5315   -3.4891 H   0  0  0  0  0  0  0  0  0  0  0  0
   -2.0909    1.1388   -2.2301 C   0  0  0  0  0  0  0  0  0  0  0  0
   -2.8716    0.6245   -1.6837 H   0  0  0  0  0  0  0  0  0  0  0  0
   -0.9851    1.3114    0.6698 C   0  0  0  0  0  0  0  0  0  0  0  0
   -2.0377    1.8431    0.3168 O   0  0  0  0  0  0  0  0  0  0  0  0
   -0.1052    1.9265    1.4663 N   0  0  0  0  0  0  0  0  0  0  0  0
    0.7810    1.4586    1.6201 H   0  0  0  0  0  0  0  0  0  0  0  0
   -0.2724    3.2715    2.0119 C   0  0  0  0  0  0  0  0  0  0  0  0
   -1.3249    3.4549    2.2426 H   0  0  0  0  0  0  0  0  0  0  0  0
    0.3167    3.3776    2.9239 H   0  0  0  0  0  0  0  0  0  0  0  0
    0.0609    4.0073    1.2782 H   0  0  0  0  0  0  0  0  0  0  0  0
  5  6  2  0  0  0  0
  5  7  1  0  0  0  0
  2  3  1  0  0  0  0
  2  4  1  0  0  0  0
  2  5  1  0  0  0  0
  1  2  1  0  0  0  0
 22 23  2  0  0  0  0
 22 24  1  0  0  0  0
 20 21  1  0  0  0  0
 18 19  1  0  0  0  0
 18 20  1  0  0  0  0
 16 17  1  0  0  0  0
 16 18  1  0  0  0  0
 15 16  2  0  0  0  0
 14 15  1  0  0  0  0
 14 20  2  0  0  0  0
 11 12  1  0  0  0  0
 11 13  1  0  0  0  0
 11 14  1  0  0  0  0
  9 10  1  0  0  0  0
  9 11  1  0  0  0  0
  9 22  1  0  0  0  0
  7  8  1  0  0  0  0
  7  9  1  0  0  0  0
 26 27  1  0  0  0  0
 26 28  1  0  0  0  0
 26 29  1  0  0  0  0
 24 25  1  0  0  0  0
 24 26  1  0  0  0  0
M  END
$$$$
default_name
  -OEChem-02102213163D

 29 29  0     1  0  0  0  0  0999 V2000
   -2.9561   -3.9186    1.3887 H   0  0  0  0  0  0  0  0  0  0  0  0
   -3.1191   -2.9346    0.9517 C   0  0  0  0  0  0  0  0  0  0  0  0
   -3.7811   -2.3546    1.5917 H   0  0  0  0  0  0  0  0  0  0  0  0
   -3.5591   -3.0406   -0.0383 H   0  0  0  0  0  0  0  0  0  0  0  0
   -1.7921   -2.2226    0.8327 C   0  0  0  0  0  0  0  0  0  0  0  0
   -0.7611   -2.7766    1.1927 O   0  0  0  0  0  0  0  0  0  0  0  0
   -1.8201   -0.9926    0.3247 N   0  0  0  0  0  0  0  0  0  0  0  0
   -2.7141   -0.5816    0.0927 H   0  0  0  0  0  0  0  0  0  0  0  0
   -0.6481   -0.1156    0.2017 C   0  0  1  0  0  0  0  0  0  0  0  0
    0.1344   -0.4988    0.8596 H   0  0  0  0  0  0  0  0  0  0  0  0
   -0.1211   -0.1520   -1.2460 C   0  0  0  0  0  0  0  0  0  0  0  0
    0.9556    0.0239   -1.2514 H   0  0  0  0  0  0  0  0  0  0  0  0
   -0.2946   -1.1388   -1.6772 H   0  0  0  0  0  0  0  0  0  0  0  0
   -0.7519    0.8991   -2.1266 C   0  0  0  0  0  0  0  0  0  0  0  0
   -0.1473    1.5190   -3.2209 N   0  0  0  0  0  0  0  0  0  0  0  0
   -1.0726    2.3408   -3.7375 C   0  0  0  0  0  0  0  0  0  0  0  0
   -0.9128    2.9805   -4.5963 H   0  0  0  0  0  0  0  0  0  0  0  0
   -2.2207    2.2488   -3.0456 N   0  0  0  0  0  0  0  0  0  0  0  0
   -3.0716    2.7540   -3.2520 H   0  0  0  0  0  0  0  0  0  0  0  0
   -2.0390    1.3403   -2.0268 C   0  0  0  0  0  0  0  0  0  0  0  0
   -2.7672    1.0122   -1.2957 H   0  0  0  0  0  0  0  0  0  0  0  0
   -0.9851    1.3114    0.6698 C   0  0  0  0  0  0  0  0  0  0  0  0
   -2.0377    1.8431    0.3168 O   0  0  0  0  0  0  0  0  0  0  0  0
   -0.1052    1.9265    1.4663 N   0  0  0  0  0  0  0  0  0  0  0  0
    0.7810    1.4586    1.6201 H   0  0  0  0  0  0  0  0  0  0  0  0
   -0.2724    3.2715    2.0119 C   0  0  0  0  0  0  0  0  0  0  0  0
   -1.3249    3.4549    2.2426 H   0  0  0  0  0  0  0  0  0  0  0  0
    0.3167    3.3776    2.9239 H   0  0  0  0  0  0  0  0  0  0  0  0
    0.0609    4.0073    1.2782 H   0  0  0  0  0  0  0  0  0  0  0  0
  5  6  2  0  0  0  0
  5  7  1  0  0  0  0
  2  3  1  0  0  0  0
  2  4  1  0  0  0  0
  2  5  1  0  0  0  0
  1  2  1  0  0  0  0
 22 23  2  0  0  0  0
 22 24  1  0  0  0  0
 20 21  1  0  0  0  0
 18 19  1  0  0  0  0
 18 20  1  0  0  0  0
 16 17  1  0  0  0  0
 16 18  1  0  0  0  0
 15 16  2  0  0  0  0
 14 15  1  0  0  0  0
 14 20  2  0  0  0  0
 11 12  1  0  0  0  0
 11 13  1  0  0  0  0
 11 14  1  0  0  0  0
  9 10  1  0  0  0  0
  9 11  1  0  0  0  0
  9 22  1  0  0  0  0
  7  8  1  0  0  0  0
  7  9  1  0  0  0  0
 26 27  1  0  0  0  0
 26 28  1  0  0  0  0
 26 29  1  0  0  0  0
 24 25  1  0  0  0  0
 24 26  1  0  0  0  0
M  END
$$$$
default_name
  -OEChem-02102213163D

 29 29  0     1  0  0  0  0  0999 V2000
   -2.9561   -3.9186    1.3887 H   0  0  0  0  0  0  0  0  0  0  0  0
   -3.1191   -2.9346    0.9517 C   0  0  0  0  0  0  0  0  0  0  0  0
   -3.7811   -2.3546    1.5917 H   0  0  0  0  0  0  0  0  0  0  0  0
   -3.5591   -3.0406   -0.0383 H   0  0  0  0  0  0  0  0  0  0  0  0
   -1.7921   -2.2226    0.8327 C   0  0  0  0  0  0  0  0  0  0  0  0
   -0.7611   -2.7766    1.1927 O   0  0  0  0  0  0  0  0  0  0  0  0
   -1.8201   -0.9926    0.3247 N   0  0  0  0  0  0  0  0  0  0  0  0
   -2.7141   -0.5816    0.0927 H   0  0  0  0  0  0  0  0  0  0  0  0
   -0.6481   -0.1156    0.2017 C   0  0  1  0  0  0  0  0  0  0  0  0
    0.1344   -0.4988    0.8596 H   0  0  0  0  0  0  0  0  0  0  0  0
   -0.1211   -0.1520   -1.2460 C   0  0  0  0  0  0  0  0  0  0  0  0
    0.9556    0.0239   -1.2514 H   0  0  0  0  0  0  0  0  0  0  0  0
   -0.2946   -1.1388   -1.6772 H   0  0  0  0  0  0  0  0  0  0  0  0
   -0.7519    0.8991   -2.1266 C   0  0  0  0  0  0  0  0  0  0  0  0
   -0.2832    1.3076   -3.3759 N   0  0  0  0  0  0  0  0  0  0  0  0
   -1.1639    2.2152   -3.8220 C   0  0  0  0  0  0  0  0  0  0  0  0
   -1.0803    2.7369   -4.7670 H   0  0  0  0  0  0  0  0  0  0  0  0
   -2.1623    2.3748   -2.9371 N   0  0  0  0  0  0  0  0  0  0  0  0
   -2.9569    2.9886   -3.0542 H   0  0  0  0  0  0  0  0  0  0  0  0
   -1.9217    1.5491   -1.8615 C   0  0  0  0  0  0  0  0  0  0  0  0
   -2.5379    1.4129   -0.9817 H   0  0  0  0  0  0  0  0  0  0  0  0
   -0.9851    1.3114    0.6698 C   0  0  0  0  0  0  0  0  0  0  0  0
   -2.0377    1.8431    0.3168 O   0  0  0  0  0  0  0  0  0  0  0  0
   -0.1052    1.9265    1.4663 N   0  0  0  0  0  0  0  0  0  0  0  0
    0.7810    1.4586    1.6201 H   0  0  0  0  0  0  0  0  0  0  0  0
   -0.2724    3.2715    2.0119 C   0  0  0  0  0  0  0  0  0  0  0  0
   -1.3249    3.4549    2.2426 H   0  0  0  0  0  0  0  0  0  0  0  0
    0.3167    3.3776    2.9239 H   0  0  0  0  0  0  0  0  0  0  0  0
    0.0609    4.0073    1.2782 H   0  0  0  0  0  0  0  0  0  0  0  0
  5  6  2  0  0  0  0
  5  7  1  0  0  0  0
  2  3  1  0  0  0  0
  2  4  1  0  0  0  0
  2  5  1  0  0  0  0
  1  2  1  0  0  0  0
 22 23  2  0  0  0  0
 22 24  1  0  0  0  0
 20 21  1  0  0  0  0
 18 19  1  0  0  0  0
 18 20  1  0  0  0  0
 16 17  1  0  0  0  0
 16 18  1  0  0  0  0
 15 16  2  0  0  0  0
 14 15  1  0  0  0  0
 14 20  2  0  0  0  0
 11 12  1  0  0  0  0
 11 13  1  0  0  0  0
 11 14  1  0  0  0  0
  9 10  1  0  0  0  0
  9 11  1  0  0  0  0
  9 22  1  0  0  0  0
  7  8  1  0  0  0  0
  7  9  1  0  0  0  0
 26 27  1  0  0  0  0
 26 28  1  0  0  0  0
 26 29  1  0  0  0  0
 24 25  1  0  0  0  0
 24 26  1  0  0  0  0
M  END
$$$$
default_name
  -OEChem-02102213163D

 29 29  0     1  0  0  0  0  0999 V2000
   -2.9561   -3.9186    1.3887 H   0  0  0  0  0  0  0  0  0  0  0  0
   -3.1191   -2.9346    0.9517 C   0  0  0  0  0  0  0  0  0  0  0  0
   -3.7811   -2.3546    1.5917 H   0  0  0  0  0  0  0  0  0  0  0  0
   -3.5591   -3.0406   -0.0383 H   0  0  0  0  0  0  0  0  0  0  0  0
   -1.7921   -2.2226    0.8327 C   0  0  0  0  0  0  0  0  0  0  0  0
   -0.7611   -2.7766    1.1927 O   0  0  0  0  0  0  0  0  0  0  0  0
   -1.8201   -0.9926    0.3247 N   0  0  0  0  0  0  0  0  0  0  0  0
   -2.7141   -0.5816    0.0927 H   0  0  0  0  0  0  0  0  0  0  0  0
   -0.6481   -0.1156    0.2017 C   0  0  1  0  0  0  0  0  0  0  0  0
    0.1344   -0.4988    0.8596 H   0  0  0  0  0  0  0  0  0  0  0  0
   -0.1211   -0.1520   -1.2460 C   0  0  0  0  0  0  0  0  0  0  0  0
    0.9660   -0.2436   -1.2409 H   0  0  0  0  0  0  0  0  0  0  0  0
   -0.5217   -1.0251   -1.7627 H   0  0  0  0  0  0  0  0  0  0  0  0
   -0.4626    1.0941   -2.0262 C   0  0  0  0  0  0  0  0  0  0  0  0
   -0.1198    1.3462   -3.3552 N   0  0  0  0  0  0  0  0  0  0  0  0
   -0.6599    2.5360   -3.6566 C   0  0  0  0  0  0  0  0  0  0  0  0
   -0.5658    3.0257   -4.6177 H   0  0  0  0  0  0  0  0  0  0  0  0
   -1.3373    3.0242   -2.6039 N   0  0  0  0  0  0  0  0  0  0  0  0
   -1.8480    3.8964   -2.5887 H   0  0  0  0  0  0  0  0  0  0  0  0
   -1.2276    2.1258   -1.5659 C   0  0  0  0  0  0  0  0  0  0  0  0
   -1.6712    2.1963   -0.5807 H   0  0  0  0  0  0  0  0  0  0  0  0
   -0.9851    1.3114    0.6698 C   0  0  0  0  0  0  0  0  0  0  0  0
   -2.0377    1.8431    0.3168 O   0  0  0  0  0  0  0  0  0  0  0  0
   -0.1052    1.9265    1.4663 N   0  0  0  0  0  0  0  0  0  0  0  0
    0.7810    1.4586    1.6201 H   0  0  0  0  0  0  0  0  0  0  0  0
   -0.2724    3.2715    2.0119 C   0  0  0  0  0  0  0  0  0  0  0  0
   -1.3249    3.4549    2.2426 H   0  0  0  0  0  0  0  0  0  0  0  0
    0.3167    3.3776    2.9239 H   0  0  0  0  0  0  0  0  0  0  0  0
    0.0609    4.0073    1.2782 H   0  0  0  0  0  0  0  0  0  0  0  0
  5  6  2  0  0  0  0
  5  7  1  0  0  0  0
  2  3  1  0  0  0  0
  2  4  1  0  0  0  0
  2  5  1  0  0  0  0
  1  2  1  0  0  0  0
 22 23  2  0  0  0  0
 22 24  1  0  0  0  0
 20 21  1  0  0  0  0
 18 19  1  0  0  0  0
 18 20  1  0  0  0  0
 16 17  1  0  0  0  0
 16 18  1  0  0  0  0
 15 16  2  0  0  0  0
 14 15  1  0  0  0  0
 14 20  2  0  0  0  0
 11 12  1  0  0  0  0
 11 13  1  0  0  0  0
 11 14  1  0  0  0  0
  9 10  1  0  0  0  0
  9 11  1  0  0  0  0
  9 22  1  0  0  0  0
  7  8  1  0  0  0  0
  7  9  1  0  0  0  0
 26 27  1  0  0  0  0
 26 28  1  0  0  0  0
 26 29  1  0  0  0  0
 24 25  1  0  0  0  0
 24 26  1  0  0  0  0
M  END
$$$$
default_name
  -OEChem-02102213163D

 29 29  0     1  0  0  0  0  0999 V2000
   -2.9561   -3.9186    1.3887 H   0  0  0  0  0  0  0  0  0  0  0  0
   -3.1191   -2.9346    0.9517 C   0  0  0  0  0  0  0  0  0  0  0  0
   -3.7811   -2.3546    1.5917 H   0  0  0  0  0  0  0  0  0  0  0  0
   -3.5591   -3.0406   -0.0383 H   0  0  0  0  0  0  0  0  0  0  0  0
   -1.7921   -2.2226    0.8327 C   0  0  0  0  0  0  0  0  0  0  0  0
   -0.7611   -2.7766    1.1927 O   0  0  0  0  0  0  0  0  0  0  0  0
   -1.8201   -0.9926    0.3247 N   0  0  0  0  0  0  0  0  0  0  0  0
   -2.7141   -0.5816    0.0927 H   0  0  0  0  0  0  0  0  0  0  0  0
   -0.6481   -0.1156    0.2017 C   0  0  1  0  0  0  0  0  0  0  0  0
    0.1344   -0.4988    0.8596 H   0  0  0  0  0  0  0  0  0  0  0  0
   -0.1211   -0.1520   -1.2460 C   0  0  0  0  0  0  0  0  0  0  0  0
    0.9660   -0.2436   -1.2409 H   0  0  0  0  0  0  0  0  0  0  0  0
   -0.5217   -1.0251   -1.7627 H   0  0  0  0  0  0  0  0  0  0  0  0
   -0.4626    1.0941   -2.0262 C   0  0  0  0  0  0  0  0  0  0  0  0
   -0.3881    1.2369   -3.4123 N   0  0  0  0  0  0  0  0  0  0  0  0
   -0.8247    2.4763   -3.6799 C   0  0  0  0  0  0  0  0  0  0  0  0
   -0.8805    2.9051   -4.6725 H   0  0  0  0  0  0  0  0  0  0  0  0
   -1.1888    3.1004   -2.5472 N   0  0  0  0  0  0  0  0  0  0  0  0
   -1.5686    4.0354   -2.4890 H   0  0  0  0  0  0  0  0  0  0  0  0
   -0.9712    2.2420   -1.4924 C   0  0  0  0  0  0  0  0  0  0  0  0
   -1.1770    2.4174   -0.4440 H   0  0  0  0  0  0  0  0  0  0  0  0
   -0.9851    1.3114    0.6698 C   0  0  0  0  0  0  0  0  0  0  0  0
   -2.0377    1.8431    0.3168 O   0  0  0  0  0  0  0  0  0  0  0  0
   -0.1052    1.9265    1.4663 N   0  0  0  0  0  0  0  0  0  0  0  0
    0.7810    1.4586    1.6201 H   0  0  0  0  0  0  0  0  0  0  0  0
   -0.2724    3.2715    2.0119 C   0  0  0  0  0  0  0  0  0  0  0  0
   -1.3249    3.4549    2.2426 H   0  0  0  0  0  0  0  0  0  0  0  0
    0.3167    3.3776    2.9239 H   0  0  0  0  0  0  0  0  0  0  0  0
    0.0609    4.0073    1.2782 H   0  0  0  0  0  0  0  0  0  0  0  0
  5  6  2  0  0  0  0
  5  7  1  0  0  0  0
  2  3  1  0  0  0  0
  2  4  1  0  0  0  0
  2  5  1  0  0  0  0
  1  2  1  0  0  0  0
 22 23  2  0  0  0  0
 22 24  1  0  0  0  0
 20 21  1  0  0  0  0
 18 19  1  0  0  0  0
 18 20  1  0  0  0  0
 16 17  1  0  0  0  0
 16 18  1  0  0  0  0
 15 16  2  0  0  0  0
 14 15  1  0  0  0  0
 14 20  2  0  0  0  0
 11 12  1  0  0  0  0
 11 13  1  0  0  0  0
 11 14  1  0  0  0  0
  9 10  1  0  0  0  0
  9 11  1  0  0  0  0
  9 22  1  0  0  0  0
  7  8  1  0  0  0  0
  7  9  1  0  0  0  0
 26 27  1  0  0  0  0
 26 28  1  0  0  0  0
 26 29  1  0  0  0  0
 24 25  1  0  0  0  0
 24 26  1  0  0  0  0
M  END
$$$$
default_name
  -OEChem-02102213163D

 29 29  0     1  0  0  0  0  0999 V2000
   -2.9561   -3.9186    1.3887 H   0  0  0  0  0  0  0  0  0  0  0  0
   -3.1191   -2.9346    0.9517 C   0  0  0  0  0  0  0  0  0  0  0  0
   -3.7811   -2.3546    1.5917 H   0  0  0  0  0  0  0  0  0  0  0  0
   -3.5591   -3.0406   -0.0383 H   0  0  0  0  0  0  0  0  0  0  0  0
   -1.7921   -2.2226    0.8327 C   0  0  0  0  0  0  0  0  0  0  0  0
   -0.7611   -2.7766    1.1927 O   0  0  0  0  0  0  0  0  0  0  0  0
   -1.8201   -0.9926    0.3247 N   0  0  0  0  0  0  0  0  0  0  0  0
   -2.7141   -0.5816    0.0927 H   0  0  0  0  0  0  0  0  0  0  0  0
   -0.6481   -0.1156    0.2017 C   0  0  1  0  0  0  0  0  0  0  0  0
    0.1344   -0.4988    0.8596 H   0  0  0  0  0  0  0  0  0  0  0  0
   -0.1211   -0.1520   -1.2460 C   0  0  0  0  0  0  0  0  0  0  0  0
    0.9660   -0.2436   -1.2409 H   0  0  0  0  0  0  0  0  0  0  0  0
   -0.5217   -1.0251   -1.7627 H   0  0  0  0  0  0  0  0  0  0  0  0
   -0.4626    1.0941   -2.0262 C   0  0  0  0  0  0  0  0  0  0  0  0
   -0.6740    1.1639   -3.4038 N   0  0  0  0  0  0  0  0  0  0  0  0
   -0.9968    2.4392   -3.6638 C   0  0  0  0  0  0  0  0  0  0  0  0
   -1.2122    2.8275   -4.6512 H   0  0  0  0  0  0  0  0  0  0  0  0
   -1.0231    3.1575   -2.5285 N   0  0  0  0  0  0  0  0  0  0  0  0
   -1.2588    4.1381   -2.4606 H   0  0  0  0  0  0  0  0  0  0  0  0
   -0.6923    2.3244   -1.4830 C   0  0  0  0  0  0  0  0  0  0  0  0
   -0.6409    2.5728   -0.4304 H   0  0  0  0  0  0  0  0  0  0  0  0
   -0.9851    1.3114    0.6698 C   0  0  0  0  0  0  0  0  0  0  0  0
   -2.0377    1.8431    0.3168 O   0  0  0  0  0  0  0  0  0  0  0  0
   -0.1052    1.9265    1.4663 N   0  0  0  0  0  0  0  0  0  0  0  0
    0.7810    1.4586    1.6201 H   0  0  0  0  0  0  0  0  0  0  0  0
   -0.2724    3.2715    2.0119 C   0  0  0  0  0  0  0  0  0  0  0  0
   -1.3249    3.4549    2.2426 H   0  0  0  0  0  0  0  0  0  0  0  0
    0.3167    3.3776    2.9239 H   0  0  0  0  0  0  0  0  0  0  0  0
    0.0609    4.0073    1.2782 H   0  0  0  0  0  0  0  0  0  0  0  0
  5  6  2  0  0  0  0
  5  7  1  0  0  0  0
  2  3  1  0  0  0  0
  2  4  1  0  0  0  0
  2  5  1  0  0  0  0
  1  2  1  0  0  0  0
 22 23  2  0  0  0  0
 22 24  1  0  0  0  0
 20 21  1  0  0  0  0
 18 19  1  0  0  0  0
 18 20  1  0  0  0  0
 16 17  1  0  0  0  0
 16 18  1  0  0  0  0
 15 16  2  0  0  0  0
 14 15  1  0  0  0  0
 14 20  2  0  0  0  0
 11 12  1  0  0  0  0
 11 13  1  0  0  0  0
 11 14  1  0  0  0  0
  9 10  1  0  0  0  0
  9 11  1  0  0  0  0
  9 22  1  0  0  0  0
  7  8  1  0  0  0  0
  7  9  1  0  0  0  0
 26 27  1  0  0  0  0
 26 28  1  0  0  0  0
 26 29  1  0  0  0  0
 24 25  1  0  0  0  0
 24 26  1  0  0  0  0
M  END
$$$$
default_name
  -OEChem-02102213163D

 29 29  0     1  0  0  0  0  0999 V2000
   -2.9561   -3.9186    1.3887 H   0  0  0  0  0  0  0  0  0  0  0  0
   -3.1191   -2.9346    0.9517 C   0  0  0  0  0  0  0  0  0  0  0  0
   -3.7811   -2.3546    1.5917 H   0  0  0  0  0  0  0  0  0  0  0  0
   -3.5591   -3.0406   -0.0383 H   0  0  0  0  0  0  0  0  0  0  0  0
   -1.7921   -2.2226    0.8327 C   0  0  0  0  0  0  0  0  0  0  0  0
   -0.7611   -2.7766    1.1927 O   0  0  0  0  0  0  0  0  0  0  0  0
   -1.8201   -0.9926    0.3247 N   0  0  0  0  0  0  0  0  0  0  0  0
   -2.7141   -0.5816    0.0927 H   0  0  0  0  0  0  0  0  0  0  0  0
   -0.6481   -0.1156    0.2017 C   0  0  1  0  0  0  0  0  0  0  0  0
    0.1344   -0.4988    0.8596 H   0  0  0  0  0  0  0  0  0  0  0  0
   -0.1211   -0.1520   -1.2460 C   0  0  0  0  0  0  0  0  0  0  0  0
    0.9660   -0.2436   -1.2409 H   0  0  0  0  0  0  0  0  0  0  0  0
   -0.5217   -1.0251   -1.7627 H   0  0  0  0  0  0  0  0  0  0  0  0
   -0.4626    1.0941   -2.0262 C   0  0  0  0  0  0  0  0  0  0  0  0
   -0.9582    1.1321   -3.3301 N   0  0  0  0  0  0  0  0  0  0  0  0
   -1.1646    2.4274   -3.6092 C   0  0  0  0  0  0  0  0  0  0  0  0
   -1.5385    2.7982   -4.5552 H   0  0  0  0  0  0  0  0  0  0  0  0
   -0.8514    3.1915   -2.5493 N   0  0  0  0  0  0  0  0  0  0  0  0
   -0.9398    4.1976   -2.5053 H   0  0  0  0  0  0  0  0  0  0  0  0
   -0.4099    2.3671   -1.5384 C   0  0  0  0  0  0  0  0  0  0  0  0
   -0.0994    2.6520   -0.5410 H   0  0  0  0  0  0  0  0  0  0  0  0
   -0.9851    1.3114    0.6698 C   0  0  0  0  0  0  0  0  0  0  0  0
   -2.0377    1.8431    0.3168 O   0  0  0  0  0  0  0  0  0  0  0  0
   -0.1052    1.9265    1.4663 N   0  0  0  0  0  0  0  0  0  0  0  0
    0.7810    1.4586    1.6201 H   0  0  0  0  0  0  0  0  0  0  0  0
   -0.2724    3.2715    2.0119 C   0  0  0  0  0  0  0  0  0  0  0  0
   -1.3249    3.4549    2.2426 H   0  0  0  0  0  0  0  0  0  0  0  0
    0.3167    3.3776    2.9239 H   0  0  0  0  0  0  0  0  0  0  0  0
    0.0609    4.0073    1.2782 H   0  0  0  0  0  0  0  0  0  0  0  0
  5  6  2  0  0  0  0
  5  7  1  0  0  0  0
  2  3  1  0  0  0  0
  2  4  1  0  0  0  0
  2  5  1  0  0  0  0
  1  2  1  0  0  0  0
 22 23  2  0  0  0  0
 22 24  1  0  0  0  0
 20 21  1  0  0  0  0
 18 19  1  0  0  0  0
 18 20  1  0  0  0  0
 16 17  1  0  0  0  0
 16 18  1  0  0  0  0
 15 16  2  0  0  0  0
 14 15  1  0  0  0  0
 14 20  2  0  0  0  0
 11 12  1  0  0  0  0
 11 13  1  0  0  0  0
 11 14  1  0  0  0  0
  9 10  1  0  0  0  0
  9 11  1  0  0  0  0
  9 22  1  0  0  0  0
  7  8  1  0  0  0  0
  7  9  1  0  0  0  0
 26 27  1  0  0  0  0
 26 28  1  0  0  0  0
 26 29  1  0  0  0  0
 24 25  1  0  0  0  0
 24 26  1  0  0  0  0
M  END
$$$$
default_name
  -OEChem-02102213163D

 29 29  0     1  0  0  0  0  0999 V2000
   -2.9561   -3.9186    1.3887 H   0  0  0  0  0  0  0  0  0  0  0  0
   -3.1191   -2.9346    0.9517 C   0  0  0  0  0  0  0  0  0  0  0  0
   -3.7811   -2.3546    1.5917 H   0  0  0  0  0  0  0  0  0  0  0  0
   -3.5591   -3.0406   -0.0383 H   0  0  0  0  0  0  0  0  0  0  0  0
   -1.7921   -2.2226    0.8327 C   0  0  0  0  0  0  0  0  0  0  0  0
   -0.7611   -2.7766    1.1927 O   0  0  0  0  0  0  0  0  0  0  0  0
   -1.8201   -0.9926    0.3247 N   0  0  0  0  0  0  0  0  0  0  0  0
   -2.7141   -0.5816    0.0927 H   0  0  0  0  0  0  0  0  0  0  0  0
   -0.6481   -0.1156    0.2017 C   0  0  1  0  0  0  0  0  0  0  0  0
    0.1344   -0.4988    0.8596 H   0  0  0  0  0  0  0  0  0  0  0  0
   -0.1211   -0.1520   -1.2460 C   0  0  0  0  0  0  0  0  0  0  0  0
    0.9660   -0.2436   -1.2409 H   0  0  0  0  0  0  0  0  0  0  0  0
   -0.5217   -1.0251   -1.7627 H   0  0  0  0  0  0  0  0  0  0  0  0
   -0.4626    1.0941   -2.0262 C   0  0  0  0  0  0  0  0  0  0  0  0
   -1.2211    1.1437   -3.1965 N   0  0  0  0  0  0  0  0  0  0  0  0
   -1.3166    2.4416   -3.5199 C   0  0  0  0  0  0  0  0  0  0  0  0
   -1.8371    2.8192   -4.3910 H   0  0  0  0  0  0  0  0  0  0  0  0
   -0.6854    3.2002   -2.6081 N   0  0  0  0  0  0  0  0  0  0  0  0
   -0.6332    4.2097   -2.6202 H   0  0  0  0  0  0  0  0  0  0  0  0
   -0.1432    2.3674   -1.6547 C   0  0  0  0  0  0  0  0  0  0  0  0
    0.4106    2.6496   -0.7681 H   0  0  0  0  0  0  0  0  0  0  0  0
   -0.9851    1.3114    0.6698 C   0  0  0  0  0  0  0  0  0  0  0  0
   -2.0377    1.8431    0.3168 O   0  0  0  0  0  0  0  0  0  0  0  0
   -0.1052    1.9265    1.4663 N   0  0  0  0  0  0  0  0  0  0  0  0
    0.7810    1.4586    1.6201 H   0  0  0  0  0  0  0  0  0  0  0  0
   -0.2724    3.2715    2.0119 C   0  0  0  0  0  0  0  0  0  0  0  0
   -1.3249    3.4549    2.2426 H   0  0  0  0  0  0  0  0  0  0  0  0
    0.3167    3.3776    2.9239 H   0  0  0  0  0  0  0  0  0  0  0  0
    0.0609    4.0073    1.2782 H   0  0  0  0  0  0  0  0  0  0  0  0
  5  6  2  0  0  0  0
  5  7  1  0  0  0  0
  2  3  1  0  0  0  0
  2  4  1  0  0  0  0
  2  5  1  0  0  0  0
  1  2  1  0  0  0  0
 22 23  2  0  0  0  0
 22 24  1  0  0  0  0
 20 21  1  0  0  0  0
 18 19  1  0  0  0  0
 18 20  1  0  0  0  0
 16 17  1  0  0  0  0
 16 18  1  0  0  0  0
 15 16  2  0  0  0  0
 14 15  1  0  0  0  0
 14 20  2  0  0  0  0
 11 12  1  0  0  0  0
 11 13  1  0  0  0  0
 11 14  1  0  0  0  0
  9 10  1  0  0  0  0
  9 11  1  0  0  0  0
  9 22  1  0  0  0  0
  7  8  1  0  0  0  0
  7  9  1  0  0  0  0
 26 27  1  0  0  0  0
 26 28  1  0  0  0  0
 26 29  1  0  0  0  0
 24 25  1  0  0  0  0
 24 26  1  0  0  0  0
M  END
$$$$
default_name
  -OEChem-02102213163D

 29 29  0     1  0  0  0  0  0999 V2000
   -2.9561   -3.9186    1.3887 H   0  0  0  0  0  0  0  0  0  0  0  0
   -3.1191   -2.9346    0.9517 C   0  0  0  0  0  0  0  0  0  0  0  0
   -3.7811   -2.3546    1.5917 H   0  0  0  0  0  0  0  0  0  0  0  0
   -3.5591   -3.0406   -0.0383 H   0  0  0  0  0  0  0  0  0  0  0  0
   -1.7921   -2.2226    0.8327 C   0  0  0  0  0  0  0  0  0  0  0  0
   -0.7611   -2.7766    1.1927 O   0  0  0  0  0  0  0  0  0  0  0  0
   -1.8201   -0.9926    0.3247 N   0  0  0  0  0  0  0  0  0  0  0  0
   -2.7141   -0.5816    0.0927 H   0  0  0  0  0  0  0  0  0  0  0  0
   -0.6481   -0.1156    0.2017 C   0  0  1  0  0  0  0  0  0  0  0  0
    0.1344   -0.4988    0.8596 H   0  0  0  0  0  0  0  0  0  0  0  0
   -0.1211   -0.1520   -1.2460 C   0  0  0  0  0  0  0  0  0  0  0  0
    0.9660   -0.2436   -1.2409 H   0  0  0  0  0  0  0  0  0  0  0  0
   -0.5217   -1.0251   -1.7627 H   0  0  0  0  0  0  0  0  0  0  0  0
   -0.4626    1.0941   -2.0262 C   0  0  0  0  0  0  0  0  0  0  0  0
   -1.4450    1.1980   -3.0118 N   0  0  0  0  0  0  0  0  0  0  0  0
   -1.4424    2.4809   -3.4021 C   0  0  0  0  0  0  0  0  0  0  0  0
   -2.0876    2.8890   -4.1699 H   0  0  0  0  0  0  0  0  0  0  0  0
   -0.5365    3.1830   -2.7008 N   0  0  0  0  0  0  0  0  0  0  0  0
   -0.3600    4.1736   -2.7974 H   0  0  0  0  0  0  0  0  0  0  0  0
    0.0895    2.3252   -1.8240 C   0  0  0  0  0  0  0  0  0  0  0  0
    0.8544    2.5657   -1.0963 H   0  0  0  0  0  0  0  0  0  0  0  0
   -0.9851    1.3114    0.6698 C   0  0  0  0  0  0  0  0  0  0  0  0
   -2.0377    1.8431    0.3168 O   0  0  0  0  0  0  0  0  0  0  0  0
   -0.1052    1.9265    1.4663 N   0  0  0  0  0  0  0  0  0  0  0  0
    0.7810    1.4586    1.6201 H   0  0  0  0  0  0  0  0  0  0  0  0
   -0.2724    3.2715    2.0119 C   0  0  0  0  0  0  0  0  0  0  0  0
   -1.3249    3.4549    2.2426 H   0  0  0  0  0  0  0  0  0  0  0  0
    0.3167    3.3776    2.9239 H   0  0  0  0  0  0  0  0  0  0  0  0
    0.0609    4.0073    1.2782 H   0  0  0  0  0  0  0  0  0  0  0  0
  5  6  2  0  0  0  0
  5  7  1  0  0  0  0
  2  3  1  0  0  0  0
  2  4  1  0  0  0  0
  2  5  1  0  0  0  0
  1  2  1  0  0  0  0
 22 23  2  0  0  0  0
 22 24  1  0  0  0  0
 20 21  1  0  0  0  0
 18 19  1  0  0  0  0
 18 20  1  0  0  0  0
 16 17  1  0  0  0  0
 16 18  1  0  0  0  0
 15 16  2  0  0  0  0
 14 15  1  0  0  0  0
 14 20  2  0  0  0  0
 11 12  1  0  0  0  0
 11 13  1  0  0  0  0
 11 14  1  0  0  0  0
  9 10  1  0  0  0  0
  9 11  1  0  0  0  0
  9 22  1  0  0  0  0
  7  8  1  0  0  0  0
  7  9  1  0  0  0  0
 26 27  1  0  0  0  0
 26 28  1  0  0  0  0
 26 29  1  0  0  0  0
 24 25  1  0  0  0  0
 24 26  1  0  0  0  0
M  END
$$$$
default_name
  -OEChem-02102213163D

 29 29  0     1  0  0  0  0  0999 V2000
   -2.9561   -3.9186    1.3887 H   0  0  0  0  0  0  0  0  0  0  0  0
   -3.1191   -2.9346    0.9517 C   0  0  0  0  0  0  0  0  0  0  0  0
   -3.7811   -2.3546    1.5917 H   0  0  0  0  0  0  0  0  0  0  0  0
   -3.5591   -3.0406   -0.0383 H   0  0  0  0  0  0  0  0  0  0  0  0
   -1.7921   -2.2226    0.8327 C   0  0  0  0  0  0  0  0  0  0  0  0
   -0.7611   -2.7766    1.1927 O   0  0  0  0  0  0  0  0  0  0  0  0
   -1.8201   -0.9926    0.3247 N   0  0  0  0  0  0  0  0  0  0  0  0
   -2.7141   -0.5816    0.0927 H   0  0  0  0  0  0  0  0  0  0  0  0
   -0.6481   -0.1156    0.2017 C   0  0  1  0  0  0  0  0  0  0  0  0
    0.1344   -0.4988    0.8596 H   0  0  0  0  0  0  0  0  0  0  0  0
   -0.1211   -0.1520   -1.2460 C   0  0  0  0  0  0  0  0  0  0  0  0
    0.9660   -0.2436   -1.2409 H   0  0  0  0  0  0  0  0  0  0  0  0
   -0.5217   -1.0251   -1.7627 H   0  0  0  0  0  0  0  0  0  0  0  0
   -0.4626    1.0941   -2.0262 C   0  0  0  0  0  0  0  0  0  0  0  0
   -1.6146    1.2911   -2.7888 N   0  0  0  0  0  0  0  0  0  0  0  0
   -1.5335    2.5426   -3.2636 C   0  0  0  0  0  0  0  0  0  0  0  0
   -2.2729    3.0029   -3.9068 H   0  0  0  0  0  0  0  0  0  0  0  0
   -0.4148    3.1410   -2.8211 N   0  0  0  0  0  0  0  0  0  0  0  0
   -0.1388    4.0919   -3.0248 H   0  0  0  0  0  0  0  0  0  0  0  0
    0.2725    2.2434   -2.0348 C   0  0  0  0  0  0  0  0  0  0  0  0
    1.2017    2.4061   -1.5033 H   0  0  0  0  0  0  0  0  0  0  0  0
   -0.9851    1.3114    0.6698 C   0  0  0  0  0  0  0  0  0  0  0  0
   -2.0377    1.8431    0.3168 O   0  0  0  0  0  0  0  0  0  0  0  0
   -0.1052    1.9265    1.4663 N   0  0  0  0  0  0  0  0  0  0  0  0
    0.7810    1.4586    1.6201 H   0  0  0  0  0  0  0  0  0  0  0  0
   -0.2724    3.2715    2.0119 C   0  0  0  0  0  0  0  0  0  0  0  0
   -1.3249    3.4549    2.2426 H   0  0  0  0  0  0  0  0  0  0  0  0
    0.3167    3.3776    2.9239 H   0  0  0  0  0  0  0  0  0  0  0  0
    0.0609    4.0073    1.2782 H   0  0  0  0  0  0  0  0  0  0  0  0
  5  6  2  0  0  0  0
  5  7  1  0  0  0  0
  2  3  1  0  0  0  0
  2  4  1  0  0  0  0
  2  5  1  0  0  0  0
  1  2  1  0  0  0  0
 22 23  2  0  0  0  0
 22 24  1  0  0  0  0
 20 21  1  0  0  0  0
 18 19  1  0  0  0  0
 18 20  1  0  0  0  0
 16 17  1  0  0  0  0
 16 18  1  0  0  0  0
 15 16  2  0  0  0  0
 14 15  1  0  0  0  0
 14 20  2  0  0  0  0
 11 12  1  0  0  0  0
 11 13  1  0  0  0  0
 11 14  1  0  0  0  0
  9 10  1  0  0  0  0
  9 11  1  0  0  0  0
  9 22  1  0  0  0  0
  7  8  1  0  0  0  0
  7  9  1  0  0  0  0
 26 27  1  0  0  0  0
 26 28  1  0  0  0  0
 26 29  1  0  0  0  0
 24 25  1  0  0  0  0
 24 26  1  0  0  0  0
M  END
$$$$
default_name
  -OEChem-02102213163D

 29 29  0     1  0  0  0  0  0999 V2000
   -2.9561   -3.9186    1.3887 H   0  0  0  0  0  0  0  0  0  0  0  0
   -3.1191   -2.9346    0.9517 C   0  0  0  0  0  0  0  0  0  0  0  0
   -3.7811   -2.3546    1.5917 H   0  0  0  0  0  0  0  0  0  0  0  0
   -3.5591   -3.0406   -0.0383 H   0  0  0  0  0  0  0  0  0  0  0  0
   -1.7921   -2.2226    0.8327 C   0  0  0  0  0  0  0  0  0  0  0  0
   -0.7611   -2.7766    1.1927 O   0  0  0  0  0  0  0  0  0  0  0  0
   -1.8201   -0.9926    0.3247 N   0  0  0  0  0  0  0  0  0  0  0  0
   -2.7141   -0.5816    0.0927 H   0  0  0  0  0  0  0  0  0  0  0  0
   -0.6481   -0.1156    0.2017 C   0  0  1  0  0  0  0  0  0  0  0  0
    0.1344   -0.4988    0.8596 H   0  0  0  0  0  0  0  0  0  0  0  0
   -0.1211   -0.1520   -1.2460 C   0  0  0  0  0  0  0  0  0  0  0  0
    0.9660   -0.2436   -1.2409 H   0  0  0  0  0  0  0  0  0  0  0  0
   -0.5217   -1.0251   -1.7627 H   0  0  0  0  0  0  0  0  0  0  0  0
   -0.4626    1.0941   -2.0262 C   0  0  0  0  0  0  0  0  0  0  0  0
   -1.7182    1.4169   -2.5426 N   0  0  0  0  0  0  0  0  0  0  0  0
   -1.5837    2.6225   -3.1141 C   0  0  0  0  0  0  0  0  0  0  0  0
   -2.3806    3.1531   -3.6198 H   0  0  0  0  0  0  0  0  0  0  0  0
   -0.3286    3.0771   -2.9610 N   0  0  0  0  0  0  0  0  0  0  0  0
    0.0154    3.9700   -3.2869 H   0  0  0  0  0  0  0  0  0  0  0  0
    0.3933    2.1275   -2.2728 C   0  0  0  0  0  0  0  0  0  0  0  0
    1.4289    2.1816   -1.9613 H   0  0  0  0  0  0  0  0  0  0  0  0
   -0.9851    1.3114    0.6698 C   0  0  0  0  0  0  0  0  0  0  0  0
   -2.0377    1.8431    0.3168 O   0  0  0  0  0  0  0  0  0  0  0  0
   -0.1052    1.9265    1.4663 N   0  0  0  0  0  0  0  0  0  0  0  0
    0.7810    1.4586    1.6201 H   0  0  0  0  0  0  0  0  0  0  0  0
   -0.2724    3.2715    2.0119 C   0  0  0  0  0  0  0  0  0  0  0  0
   -1.3249    3.4549    2.2426 H   0  0  0  0  0  0  0  0  0  0  0  0
    0.3167    3.3776    2.9239 H   0  0  0  0  0  0  0  0  0  0  0  0
    0.0609    4.0073    1.2782 H   0  0  0  0  0  0  0  0  0  0  0  0
  5  6  2  0  0  0  0
  5  7  1  0  0  0  0
  2  3  1  0  0  0  0
  2  4  1  0  0  0  0
  2  5  1  0  0  0  0
  1  2  1  0  0  0  0
 22 23  2  0  0  0  0
 22 24  1  0  0  0  0
 20 21  1  0  0  0  0
 18 19  1  0  0  0  0
 18 20  1  0  0  0  0
 16 17  1  0  0  0  0
 16 18  1  0  0  0  0
 15 16  2  0  0  0  0
 14 15  1  0  0  0  0
 14 20  2  0  0  0  0
 11 12  1  0  0  0  0
 11 13  1  0  0  0  0
 11 14  1  0  0  0  0
  9 10  1  0  0  0  0
  9 11  1  0  0  0  0
  9 22  1  0  0  0  0
  7  8  1  0  0  0  0
  7  9  1  0  0  0  0
 26 27  1  0  0  0  0
 26 28  1  0  0  0  0
 26 29  1  0  0  0  0
 24 25  1  0  0  0  0
 24 26  1  0  0  0  0
M  END
$$$$
default_name
  -OEChem-02102213163D

 29 29  0     1  0  0  0  0  0999 V2000
   -2.9561   -3.9186    1.3887 H   0  0  0  0  0  0  0  0  0  0  0  0
   -3.1191   -2.9346    0.9517 C   0  0  0  0  0  0  0  0  0  0  0  0
   -3.7811   -2.3546    1.5917 H   0  0  0  0  0  0  0  0  0  0  0  0
   -3.5591   -3.0406   -0.0383 H   0  0  0  0  0  0  0  0  0  0  0  0
   -1.7921   -2.2226    0.8327 C   0  0  0  0  0  0  0  0  0  0  0  0
   -0.7611   -2.7766    1.1927 O   0  0  0  0  0  0  0  0  0  0  0  0
   -1.8201   -0.9926    0.3247 N   0  0  0  0  0  0  0  0  0  0  0  0
   -2.7141   -0.5816    0.0927 H   0  0  0  0  0  0  0  0  0  0  0  0
   -0.6481   -0.1156    0.2017 C   0  0  1  0  0  0  0  0  0  0  0  0
    0.1344   -0.4988    0.8596 H   0  0  0  0  0  0  0  0  0  0  0  0
   -0.1211   -0.1520   -1.2460 C   0  0  0  0  0  0  0  0  0  0  0  0
    0.9660   -0.2436   -1.2409 H   0  0  0  0  0  0  0  0  0  0  0  0
   -0.5217   -1.0251   -1.7627 H   0  0  0  0  0  0  0  0  0  0  0  0
   -0.4626    1.0941   -2.0262 C   0  0  0  0  0  0  0  0  0  0  0  0
   -1.7489    1.5666   -2.2900 N   0  0  0  0  0  0  0  0  0  0  0  0
   -1.5895    2.7152   -2.9636 C   0  0  0  0  0  0  0  0  0  0  0  0
   -2.4031    3.3294   -3.3284 H   0  0  0  0  0  0  0  0  0  0  0  0
   -0.2837    2.9956   -3.1107 N   0  0  0  0  0  0  0  0  0  0  0  0
    0.0920    3.8163   -3.5659 H   0  0  0  0  0  0  0  0  0  0  0  0
    0.4436    1.9854   -2.5216 C   0  0  0  0  0  0  0  0  0  0  0  0
    1.5204    1.9076   -2.4390 H   0  0  0  0  0  0  0  0  0  0  0  0
   -0.9851    1.3114    0.6698 C   0  0  0  0  0  0  0  0  0  0  0  0
   -2.0377    1.8431    0.3168 O   0  0  0  0  0  0  0  0  0  0  0  0
   -0.1052    1.9265    1.4663 N   0  0  0  0  0  0  0  0  0  0  0  0
    0.7810    1.4586    1.6201 H   0  0  0  0  0  0  0  0  0  0  0  0
   -0.2724    3.2715    2.0119 C   0  0  0  0  0  0  0  0  0  0  0  0
   -1.3249    3.4549    2.2426 H   0  0  0  0  0  0  0  0  0  0  0  0
    0.3167    3.3776    2.9239 H   0  0  0  0  0  0  0  0  0  0  0  0
    0.0609    4.0073    1.2782 H   0  0  0  0  0  0  0  0  0  0  0  0
  5  6  2  0  0  0  0
  5  7  1  0  0  0  0
  2  3  1  0  0  0  0
  2  4  1  0  0  0  0
  2  5  1  0  0  0  0
  1  2  1  0  0  0  0
 22 23  2  0  0  0  0
 22 24  1  0  0  0  0
 20 21  1  0  0  0  0
 18 19  1  0  0  0  0
 18 20  1  0  0  0  0
 16 17  1  0  0  0  0
 16 18  1  0  0  0  0
 15 16  2  0  0  0  0
 14 15  1  0  0  0  0
 14 20  2  0  0  0  0
 11 12  1  0  0  0  0
 11 13  1  0  0  0  0
 11 14  1  0  0  0  0
  9 10  1  0  0  0  0
  9 11  1  0  0  0  0
  9 22  1  0  0  0  0
  7  8  1  0  0  0  0
  7  9  1  0  0  0  0
 26 27  1  0  0  0  0
 26 28  1  0  0  0  0
 26 29  1  0  0  0  0
 24 25  1  0  0  0  0
 24 26  1  0  0  0  0
M  END
$$$$
default_name
  -OEChem-02102213163D

 29 29  0     1  0  0  0  0  0999 V2000
   -2.9561   -3.9186    1.3887 H   0  0  0  0  0  0  0  0  0  0  0  0
   -3.1191   -2.9346    0.9517 C   0  0  0  0  0  0  0  0  0  0  0  0
   -3.7811   -2.3546    1.5917 H   0  0  0  0  0  0  0  0  0  0  0  0
   -3.5591   -3.0406   -0.0383 H   0  0  0  0  0  0  0  0  0  0  0  0
   -1.7921   -2.2226    0.8327 C   0  0  0  0  0  0  0  0  0  0  0  0
   -0.7611   -2.7766    1.1927 O   0  0  0  0  0  0  0  0  0  0  0  0
   -1.8201   -0.9926    0.3247 N   0  0  0  0  0  0  0  0  0  0  0  0
   -2.7141   -0.5816    0.0927 H   0  0  0  0  0  0  0  0  0  0  0  0
   -0.6481   -0.1156    0.2017 C   0  0  1  0  0  0  0  0  0  0  0  0
    0.1344   -0.4988    0.8596 H   0  0  0  0  0  0  0  0  0  0  0  0
   -0.1211   -0.1520   -1.2460 C   0  0  0  0  0  0  0  0  0  0  0  0
    0.9660   -0.2436   -1.2409 H   0  0  0  0  0  0  0  0  0  0  0  0
   -0.5217   -1.0251   -1.7627 H   0  0  0  0  0  0  0  0  0  0  0  0
   -0.4626    1.0941   -2.0262 C   0  0  0  0  0  0  0  0  0  0  0  0
   -1.7045    1.7301   -2.0482 N   0  0  0  0  0  0  0  0  0  0  0  0
   -1.5505    2.8143   -2.8224 C   0  0  0  0  0  0  0  0  0  0  0  0
   -2.3390    3.5198   -3.0523 H   0  0  0  0  0  0  0  0  0  0  0  0
   -0.2833    2.9022   -3.2601 N   0  0  0  0  0  0  0  0  0  0  0  0
    0.0858    3.6413   -3.8427 H   0  0  0  0  0  0  0  0  0  0  0  0
    0.4201    1.8269   -2.7645 C   0  0  0  0  0  0  0  0  0  0  0  0
    1.4701    1.6026   -2.9040 H   0  0  0  0  0  0  0  0  0  0  0  0
   -0.9851    1.3114    0.6698 C   0  0  0  0  0  0  0  0  0  0  0  0
   -2.0377    1.8431    0.3168 O   0  0  0  0  0  0  0  0  0  0  0  0
   -0.1052    1.9265    1.4663 N   0  0  0  0  0  0  0  0  0  0  0  0
    0.7810    1.4586    1.6201 H   0  0  0  0  0  0  0  0  0  0  0  0
   -0.2724    3.2715    2.0119 C   0  0  0  0  0  0  0  0  0  0  0  0
   -1.3249    3.4549    2.2426 H   0  0  0  0  0  0  0  0  0  0  0  0
    0.3167    3.3776    2.9239 H   0  0  0  0  0  0  0  0  0  0  0  0
    0.0609    4.0073    1.2782 H   0  0  0  0  0  0  0  0  0  0  0  0
  5  6  2  0  0  0  0
  5  7  1  0  0  0  0
  2  3  1  0  0  0  0
  2  4  1  0  0  0  0
  2  5  1  0  0  0  0
  1  2  1  0  0  0  0
 22 23  2  0  0  0  0
 22 24  1  0  0  0  0
 20 21  1  0  0  0  0
 18 19  1  0  0  0  0
 18 20  1  0  0  0  0
 16 17  1  0  0  0  0
 16 18  1  0  0  0  0
 15 16  2  0  0  0  0
 14 15  1  0  0  0  0
 14 20  2  0  0  0  0
 11 12  1  0  0  0  0
 11 13  1  0  0  0  0
 11 14  1  0  0  0  0
  9 10  1  0  0  0  0
  9 11  1  0  0  0  0
  9 22  1  0  0  0  0
  7  8  1  0  0  0  0
  7  9  1  0  0  0  0
 26 27  1  0  0  0  0
 26 28  1  0  0  0  0
 26 29  1  0  0  0  0
 24 25  1  0  0  0  0
 24 26  1  0  0  0  0
M  END
$$$$
default_name
  -OEChem-02102213163D

 29 29  0     1  0  0  0  0  0999 V2000
   -2.9561   -3.9186    1.3887 H   0  0  0  0  0  0  0  0  0  0  0  0
   -3.1191   -2.9346    0.9517 C   0  0  0  0  0  0  0  0  0  0  0  0
   -3.7811   -2.3546    1.5917 H   0  0  0  0  0  0  0  0  0  0  0  0
   -3.5591   -3.0406   -0.0383 H   0  0  0  0  0  0  0  0  0  0  0  0
   -1.7921   -2.2226    0.8327 C   0  0  0  0  0  0  0  0  0  0  0  0
   -0.7611   -2.7766    1.1927 O   0  0  0  0  0  0  0  0  0  0  0  0
   -1.8201   -0.9926    0.3247 N   0  0  0  0  0  0  0  0  0  0  0  0
   -2.7141   -0.5816    0.0927 H   0  0  0  0  0  0  0  0  0  0  0  0
   -0.6481   -0.1156    0.2017 C   0  0  1  0  0  0  0  0  0  0  0  0
    0.1344   -0.4988    0.8596 H   0  0  0  0  0  0  0  0  0  0  0  0
   -0.1211   -0.1520   -1.2460 C   0  0  0  0  0  0  0  0  0  0  0  0
    0.9660   -0.2436   -1.2409 H   0  0  0  0  0  0  0  0  0  0  0  0
   -0.5217   -1.0251   -1.7627 H   0  0  0  0  0  0  0  0  0  0  0  0
   -0.4626    1.0941   -2.0262 C   0  0  0  0  0  0  0  0  0  0  0  0
   -1.5882    1.8963   -1.8337 N   0  0  0  0  0  0  0  0  0  0  0  0
   -1.4695    2.9130   -2.7001 C   0  0  0  0  0  0  0  0  0  0  0  0
   -2.1926    3.7113   -2.8106 H   0  0  0  0  0  0  0  0  0  0  0  0
   -0.3273    2.8031   -3.3991 N   0  0  0  0  0  0  0  0  0  0  0  0
   -0.0028    3.4568   -4.0986 H   0  0  0  0  0  0  0  0  0  0  0  0
    0.3242    1.6628   -2.9847 C   0  0  0  0  0  0  0  0  0  0  0  0
    1.2813    1.2876   -3.3246 H   0  0  0  0  0  0  0  0  0  0  0  0
   -0.9851    1.3114    0.6698 C   0  0  0  0  0  0  0  0  0  0  0  0
   -2.0377    1.8431    0.3168 O   0  0  0  0  0  0  0  0  0  0  0  0
   -0.1052    1.9265    1.4663 N   0  0  0  0  0  0  0  0  0  0  0  0
    0.7810    1.4586    1.6201 H   0  0  0  0  0  0  0  0  0  0  0  0
   -0.2724    3.2715    2.0119 C   0  0  0  0  0  0  0  0  0  0  0  0
   -1.3249    3.4549    2.2426 H   0  0  0  0  0  0  0  0  0  0  0  0
    0.3167    3.3776    2.9239 H   0  0  0  0  0  0  0  0  0  0  0  0
    0.0609    4.0073    1.2782 H   0  0  0  0  0  0  0  0  0  0  0  0
  5  6  2  0  0  0  0
  5  7  1  0  0  0  0
  2  3  1  0  0  0  0
  2  4  1  0  0  0  0
  2  5  1  0  0  0  0
  1  2  1  0  0  0  0
 22 23  2  0  0  0  0
 22 24  1  0  0  0  0
 20 21  1  0  0  0  0
 18 19  1  0  0  0  0
 18 20  1  0  0  0  0
 16 17  1  0  0  0  0
 16 18  1  0  0  0  0
 15 16  2  0  0  0  0
 14 15  1  0  0  0  0
 14 20  2  0  0  0  0
 11 12  1  0  0  0  0
 11 13  1  0  0  0  0
 11 14  1  0  0  0  0
  9 10  1  0  0  0  0
  9 11  1  0  0  0  0
  9 22  1  0  0  0  0
  7  8  1  0  0  0  0
  7  9  1  0  0  0  0
 26 27  1  0  0  0  0
 26 28  1  0  0  0  0
 26 29  1  0  0  0  0
 24 25  1  0  0  0  0
 24 26  1  0  0  0  0
M  END
$$$$
default_name
  -OEChem-02102213163D

 29 29  0     1  0  0  0  0  0999 V2000
   -2.9561   -3.9186    1.3887 H   0  0  0  0  0  0  0  0  0  0  0  0
   -3.1191   -2.9346    0.9517 C   0  0  0  0  0  0  0  0  0  0  0  0
   -3.7811   -2.3546    1.5917 H   0  0  0  0  0  0  0  0  0  0  0  0
   -3.5591   -3.0406   -0.0383 H   0  0  0  0  0  0  0  0  0  0  0  0
   -1.7921   -2.2226    0.8327 C   0  0  0  0  0  0  0  0  0  0  0  0
   -0.7611   -2.7766    1.1927 O   0  0  0  0  0  0  0  0  0  0  0  0
   -1.8201   -0.9926    0.3247 N   0  0  0  0  0  0  0  0  0  0  0  0
   -2.7141   -0.5816    0.0927 H   0  0  0  0  0  0  0  0  0  0  0  0
   -0.6481   -0.1156    0.2017 C   0  0  1  0  0  0  0  0  0  0  0  0
    0.1344   -0.4988    0.8596 H   0  0  0  0  0  0  0  0  0  0  0  0
   -0.1211   -0.1520   -1.2460 C   0  0  0  0  0  0  0  0  0  0  0  0
    0.9660   -0.2436   -1.2409 H   0  0  0  0  0  0  0  0  0  0  0  0
   -0.5217   -1.0251   -1.7627 H   0  0  0  0  0  0  0  0  0  0  0  0
   -0.4626    1.0941   -2.0262 C   0  0  0  0  0  0  0  0  0  0  0  0
   -1.4077    2.0539   -1.6612 N   0  0  0  0  0  0  0  0  0  0  0  0
   -1.3519    3.0047   -2.6051 C   0  0  0  0  0  0  0  0  0  0  0  0
   -1.9739    3.8908   -2.6196 H   0  0  0  0  0  0  0  0  0  0  0  0
   -0.4127    2.7052   -3.5181 N   0  0  0  0  0  0  0  0  0  0  0  0
   -0.1677    3.2755   -4.3160 H   0  0  0  0  0  0  0  0  0  0  0  0
    0.1626    1.5041   -3.1673 C   0  0  0  0  0  0  0  0  0  0  0  0
    0.9670    0.9839   -3.6720 H   0  0  0  0  0  0  0  0  0  0  0  0
   -0.9851    1.3114    0.6698 C   0  0  0  0  0  0  0  0  0  0  0  0
   -2.0377    1.8431    0.3168 O   0  0  0  0  0  0  0  0  0  0  0  0
   -0.1052    1.9265    1.4663 N   0  0  0  0  0  0  0  0  0  0  0  0
    0.7810    1.4586    1.6201 H   0  0  0  0  0  0  0  0  0  0  0  0
   -0.2724    3.2715    2.0119 C   0  0  0  0  0  0  0  0  0  0  0  0
   -1.3249    3.4549    2.2426 H   0  0  0  0  0  0  0  0  0  0  0  0
    0.3167    3.3776    2.9239 H   0  0  0  0  0  0  0  0  0  0  0  0
    0.0609    4.0073    1.2782 H   0  0  0  0  0  0  0  0  0  0  0  0
  5  6  2  0  0  0  0
  5  7  1  0  0  0  0
  2  3  1  0  0  0  0
  2  4  1  0  0  0  0
  2  5  1  0  0  0  0
  1  2  1  0  0  0  0
 22 23  2  0  0  0  0
 22 24  1  0  0  0  0
 20 21  1  0  0  0  0
 18 19  1  0  0  0  0
 18 20  1  0  0  0  0
 16 17  1  0  0  0  0
 16 18  1  0  0  0  0
 15 16  2  0  0  0  0
 14 15  1  0  0  0  0
 14 20  2  0  0  0  0
 11 12  1  0  0  0  0
 11 13  1  0  0  0  0
 11 14  1  0  0  0  0
  9 10  1  0  0  0  0
  9 11  1  0  0  0  0
  9 22  1  0  0  0  0
  7  8  1  0  0  0  0
  7  9  1  0  0  0  0
 26 27  1  0  0  0  0
 26 28  1  0  0  0  0
 26 29  1  0  0  0  0
 24 25  1  0  0  0  0
 24 26  1  0  0  0  0
M  END
$$$$
default_name
  -OEChem-02102213163D

 29 29  0     1  0  0  0  0  0999 V2000
   -2.9561   -3.9186    1.3887 H   0  0  0  0  0  0  0  0  0  0  0  0
   -3.1191   -2.9346    0.9517 C   0  0  0  0  0  0  0  0  0  0  0  0
   -3.7811   -2.3546    1.5917 H   0  0  0  0  0  0  0  0  0  0  0  0
   -3.5591   -3.0406   -0.0383 H   0  0  0  0  0  0  0  0  0  0  0  0
   -1.7921   -2.2226    0.8327 C   0  0  0  0  0  0  0  0  0  0  0  0
   -0.7611   -2.7766    1.1927 O   0  0  0  0  0  0  0  0  0  0  0  0
   -1.8201   -0.9926    0.3247 N   0  0  0  0  0  0  0  0  0  0  0  0
   -2.7141   -0.5816    0.0927 H   0  0  0  0  0  0  0  0  0  0  0  0
   -0.6481   -0.1156    0.2017 C   0  0  1  0  0  0  0  0  0  0  0  0
    0.1344   -0.4988    0.8596 H   0  0  0  0  0  0  0  0  0  0  0  0
   -0.1211   -0.1520   -1.2460 C   0  0  0  0  0  0  0  0  0  0  0  0
    0.9660   -0.2436   -1.2409 H   0  0  0  0  0  0  0  0  0  0  0  0
   -0.5217   -1.0251   -1.7627 H   0  0  0  0  0  0  0  0  0  0  0  0
   -0.4626    1.0941   -2.0262 C   0  0  0  0  0  0  0  0  0  0  0  0
   -1.1754    2.1920   -1.5423 N   0  0  0  0  0  0  0  0  0  0  0  0
   -1.2057    3.0831   -2.5439 C   0  0  0  0  0  0  0  0  0  0  0  0
   -1.6979    4.0461   -2.4923 H   0  0  0  0  0  0  0  0  0  0  0  0
   -0.5338    2.6150   -3.6091 N   0  0  0  0  0  0  0  0  0  0  0  0
   -0.3977    3.1097   -4.4801 H   0  0  0  0  0  0  0  0  0  0  0  0
   -0.0538    1.3618   -3.2999 C   0  0  0  0  0  0  0  0  0  0  0  0
    0.5485    0.7123   -3.9226 H   0  0  0  0  0  0  0  0  0  0  0  0
   -0.9851    1.3114    0.6698 C   0  0  0  0  0  0  0  0  0  0  0  0
   -2.0377    1.8431    0.3168 O   0  0  0  0  0  0  0  0  0  0  0  0
   -0.1052    1.9265    1.4663 N   0  0  0  0  0  0  0  0  0  0  0  0
    0.7810    1.4586    1.6201 H   0  0  0  0  0  0  0  0  0  0  0  0
   -0.2724    3.2715    2.0119 C   0  0  0  0  0  0  0  0  0  0  0  0
   -1.3249    3.4549    2.2426 H   0  0  0  0  0  0  0  0  0  0  0  0
    0.3167    3.3776    2.9239 H   0  0  0  0  0  0  0  0  0  0  0  0
    0.0609    4.0073    1.2782 H   0  0  0  0  0  0  0  0  0  0  0  0
  5  6  2  0  0  0  0
  5  7  1  0  0  0  0
  2  3  1  0  0  0  0
  2  4  1  0  0  0  0
  2  5  1  0  0  0  0
  1  2  1  0  0  0  0
 22 23  2  0  0  0  0
 22 24  1  0  0  0  0
 20 21  1  0  0  0  0
 18 19  1  0  0  0  0
 18 20  1  0  0  0  0
 16 17  1  0  0  0  0
 16 18  1  0  0  0  0
 15 16  2  0  0  0  0
 14 15  1  0  0  0  0
 14 20  2  0  0  0  0
 11 12  1  0  0  0  0
 11 13  1  0  0  0  0
 11 14  1  0  0  0  0
  9 10  1  0  0  0  0
  9 11  1  0  0  0  0
  9 22  1  0  0  0  0
  7  8  1  0  0  0  0
  7  9  1  0  0  0  0
 26 27  1  0  0  0  0
 26 28  1  0  0  0  0
 26 29  1  0  0  0  0
 24 25  1  0  0  0  0
 24 26  1  0  0  0  0
M  END
$$$$
default_name
  -OEChem-02102213163D

 29 29  0     1  0  0  0  0  0999 V2000
   -2.9561   -3.9186    1.3887 H   0  0  0  0  0  0  0  0  0  0  0  0
   -3.1191   -2.9346    0.9517 C   0  0  0  0  0  0  0  0  0  0  0  0
   -3.7811   -2.3546    1.5917 H   0  0  0  0  0  0  0  0  0  0  0  0
   -3.5591   -3.0406   -0.0383 H   0  0  0  0  0  0  0  0  0  0  0  0
   -1.7921   -2.2226    0.8327 C   0  0  0  0  0  0  0  0  0  0  0  0
   -0.7611   -2.7766    1.1927 O   0  0  0  0  0  0  0  0  0  0  0  0
   -1.8201   -0.9926    0.3247 N   0  0  0  0  0  0  0  0  0  0  0  0
   -2.7141   -0.5816    0.0927 H   0  0  0  0  0  0  0  0  0  0  0  0
   -0.6481   -0.1156    0.2017 C   0  0  1  0  0  0  0  0  0  0  0  0
    0.1344   -0.4988    0.8596 H   0  0  0  0  0  0  0  0  0  0  0  0
   -0.1211   -0.1520   -1.2460 C   0  0  0  0  0  0  0  0  0  0  0  0
    0.9660   -0.2436   -1.2409 H   0  0  0  0  0  0  0  0  0  0  0  0
   -0.5217   -1.0251   -1.7627 H   0  0  0  0  0  0  0  0  0  0  0  0
   -0.4626    1.0941   -2.0262 C   0  0  0  0  0  0  0  0  0  0  0  0
   -0.9071    2.3012   -1.4852 N   0  0  0  0  0  0  0  0  0  0  0  0
   -1.0409    3.1429   -2.5205 C   0  0  0  0  0  0  0  0  0  0  0  0
   -1.3833    4.1667   -2.4374 H   0  0  0  0  0  0  0  0  0  0  0  0
   -0.6823    2.5388   -3.6658 N   0  0  0  0  0  0  0  0  0  0  0  0
   -0.6771    2.9707   -4.5798 H   0  0  0  0  0  0  0  0  0  0  0  0
   -0.3101    1.2455   -3.3734 C   0  0  0  0  0  0  0  0  0  0  0  0
    0.0544    0.4912   -4.0593 H   0  0  0  0  0  0  0  0  0  0  0  0
   -0.9851    1.3114    0.6698 C   0  0  0  0  0  0  0  0  0  0  0  0
   -2.0377    1.8431    0.3168 O   0  0  0  0  0  0  0  0  0  0  0  0
   -0.1052    1.9265    1.4663 N   0  0  0  0  0  0  0  0  0  0  0  0
    0.7810    1.4586    1.6201 H   0  0  0  0  0  0  0  0  0  0  0  0
   -0.2724    3.2715    2.0119 C   0  0  0  0  0  0  0  0  0  0  0  0
   -1.3249    3.4549    2.2426 H   0  0  0  0  0  0  0  0  0  0  0  0
    0.3167    3.3776    2.9239 H   0  0  0  0  0  0  0  0  0  0  0  0
    0.0609    4.0073    1.2782 H   0  0  0  0  0  0  0  0  0  0  0  0
  5  6  2  0  0  0  0
  5  7  1  0  0  0  0
  2  3  1  0  0  0  0
  2  4  1  0  0  0  0
  2  5  1  0  0  0  0
  1  2  1  0  0  0  0
 22 23  2  0  0  0  0
 22 24  1  0  0  0  0
 20 21  1  0  0  0  0
 18 19  1  0  0  0  0
 18 20  1  0  0  0  0
 16 17  1  0  0  0  0
 16 18  1  0  0  0  0
 15 16  2  0  0  0  0
 14 15  1  0  0  0  0
 14 20  2  0  0  0  0
 11 12  1  0  0  0  0
 11 13  1  0  0  0  0
 11 14  1  0  0  0  0
  9 10  1  0  0  0  0
  9 11  1  0  0  0  0
  9 22  1  0  0  0  0
  7  8  1  0  0  0  0
  7  9  1  0  0  0  0
 26 27  1  0  0  0  0
 26 28  1  0  0  0  0
 26 29  1  0  0  0  0
 24 25  1  0  0  0  0
 24 26  1  0  0  0  0
M  END
$$$$
default_name
  -OEChem-02102213163D

 29 29  0     1  0  0  0  0  0999 V2000
   -2.9561   -3.9186    1.3887 H   0  0  0  0  0  0  0  0  0  0  0  0
   -3.1191   -2.9346    0.9517 C   0  0  0  0  0  0  0  0  0  0  0  0
   -3.7811   -2.3546    1.5917 H   0  0  0  0  0  0  0  0  0  0  0  0
   -3.5591   -3.0406   -0.0383 H   0  0  0  0  0  0  0  0  0  0  0  0
   -1.7921   -2.2226    0.8327 C   0  0  0  0  0  0  0  0  0  0  0  0
   -0.7611   -2.7766    1.1927 O   0  0  0  0  0  0  0  0  0  0  0  0
   -1.8201   -0.9926    0.3247 N   0  0  0  0  0  0  0  0  0  0  0  0
   -2.7141   -0.5816    0.0927 H   0  0  0  0  0  0  0  0  0  0  0  0
   -0.6481   -0.1156    0.2017 C   0  0  1  0  0  0  0  0  0  0  0  0
    0.1344   -0.4988    0.8596 H   0  0  0  0  0  0  0  0  0  0  0  0
   -0.1211   -0.1520   -1.2460 C   0  0  0  0  0  0  0  0  0  0  0  0
    0.9660   -0.2436   -1.2409 H   0  0  0  0  0  0  0  0  0  0  0  0
   -0.5217   -1.0251   -1.7627 H   0  0  0  0  0  0  0  0  0  0  0  0
   -0.4626    1.0941   -2.0262 C   0  0  0  0  0  0  0  0  0  0  0  0
   -0.6212    2.3743   -1.4937 N   0  0  0  0  0  0  0  0  0  0  0  0
   -0.8688    3.1800   -2.5367 C   0  0  0  0  0  0  0  0  0  0  0  0
   -1.0515    4.2443   -2.4587 H   0  0  0  0  0  0  0  0  0  0  0  0
   -0.8480    2.4817   -3.6845 N   0  0  0  0  0  0  0  0  0  0  0  0
   -0.9869    2.8680   -4.6082 H   0  0  0  0  0  0  0  0  0  0  0  0
   -0.5890    1.1632   -3.3828 C   0  0  0  0  0  0  0  0  0  0  0  0
   -0.4817    0.3358   -4.0729 H   0  0  0  0  0  0  0  0  0  0  0  0
   -0.9851    1.3114    0.6698 C   0  0  0  0  0  0  0  0  0  0  0  0
   -2.0377    1.8431    0.3168 O   0  0  0  0  0  0  0  0  0  0  0  0
   -0.1052    1.9265    1.4663 N   0  0  0  0  0  0  0  0  0  0  0  0
    0.7810    1.4586    1.6201 H   0  0  0  0  0  0  0  0  0  0  0  0
   -0.2724    3.2715    2.0119 C   0  0  0  0  0  0  0  0  0  0  0  0
   -1.3249    3.4549    2.2426 H   0  0  0  0  0  0  0  0  0  0  0  0
    0.3167    3.3776    2.9239 H   0  0  0  0  0  0  0  0  0  0  0  0
    0.0609    4.0073    1.2782 H   0  0  0  0  0  0  0  0  0  0  0  0
  5  6  2  0  0  0  0
  5  7  1  0  0  0  0
  2  3  1  0  0  0  0
  2  4  1  0  0  0  0
  2  5  1  0  0  0  0
  1  2  1  0  0  0  0
 22 23  2  0  0  0  0
 22 24  1  0  0  0  0
 20 21  1  0  0  0  0
 18 19  1  0  0  0  0
 18 20  1  0  0  0  0
 16 17  1  0  0  0  0
 16 18  1  0  0  0  0
 15 16  2  0  0  0  0
 14 15  1  0  0  0  0
 14 20  2  0  0  0  0
 11 12  1  0  0  0  0
 11 13  1  0  0  0  0
 11 14  1  0  0  0  0
  9 10  1  0  0  0  0
  9 11  1  0  0  0  0
  9 22  1  0  0  0  0
  7  8  1  0  0  0  0
  7  9  1  0  0  0  0
 26 27  1  0  0  0  0
 26 28  1  0  0  0  0
 26 29  1  0  0  0  0
 24 25  1  0  0  0  0
 24 26  1  0  0  0  0
M  END
$$$$
default_name
  -OEChem-02102213163D

 29 29  0     1  0  0  0  0  0999 V2000
   -2.9561   -3.9186    1.3887 H   0  0  0  0  0  0  0  0  0  0  0  0
   -3.1191   -2.9346    0.9517 C   0  0  0  0  0  0  0  0  0  0  0  0
   -3.7811   -2.3546    1.5917 H   0  0  0  0  0  0  0  0  0  0  0  0
   -3.5591   -3.0406   -0.0383 H   0  0  0  0  0  0  0  0  0  0  0  0
   -1.7921   -2.2226    0.8327 C   0  0  0  0  0  0  0  0  0  0  0  0
   -0.7611   -2.7766    1.1927 O   0  0  0  0  0  0  0  0  0  0  0  0
   -1.8201   -0.9926    0.3247 N   0  0  0  0  0  0  0  0  0  0  0  0
   -2.7141   -0.5816    0.0927 H   0  0  0  0  0  0  0  0  0  0  0  0
   -0.6481   -0.1156    0.2017 C   0  0  1  0  0  0  0  0  0  0  0  0
    0.1344   -0.4988    0.8596 H   0  0  0  0  0  0  0  0  0  0  0  0
   -0.1211   -0.1520   -1.2460 C   0  0  0  0  0  0  0  0  0  0  0  0
    0.9660   -0.2436   -1.2409 H   0  0  0  0  0  0  0  0  0  0  0  0
   -0.5217   -1.0251   -1.7627 H   0  0  0  0  0  0  0  0  0  0  0  0
   -0.4626    1.0941   -2.0262 C   0  0  0  0  0  0  0  0  0  0  0  0
   -0.3370    2.4060   -1.5673 N   0  0  0  0  0  0  0  0  0  0  0  0
   -0.7010    3.1918   -2.5913 C   0  0  0  0  0  0  0  0  0  0  0  0
   -0.7252    4.2736   -2.5548 H   0  0  0  0  0  0  0  0  0  0  0  0
   -1.0197    2.4477   -3.6637 N   0  0  0  0  0  0  0  0  0  0  0  0
   -1.3060    2.8085   -4.5635 H   0  0  0  0  0  0  0  0  0  0  0  0
   -0.8714    1.1205   -3.3275 C   0  0  0  0  0  0  0  0  0  0  0  0
   -1.0232    0.2566   -3.9624 H   0  0  0  0  0  0  0  0  0  0  0  0
   -0.9851    1.3114    0.6698 C   0  0  0  0  0  0  0  0  0  0  0  0
   -2.0377    1.8431    0.3168 O   0  0  0  0  0  0  0  0  0  0  0  0
   -0.1052    1.9265    1.4663 N   0  0  0  0  0  0  0  0  0  0  0  0
    0.7810    1.4586    1.6201 H   0  0  0  0  0  0  0  0  0  0  0  0
   -0.2724    3.2715    2.0119 C   0  0  0  0  0  0  0  0  0  0  0  0
   -1.3249    3.4549    2.2426 H   0  0  0  0  0  0  0  0  0  0  0  0
    0.3167    3.3776    2.9239 H   0  0  0  0  0  0  0  0  0  0  0  0
    0.0609    4.0073    1.2782 H   0  0  0  0  0  0  0  0  0  0  0  0
  5  6  2  0  0  0  0
  5  7  1  0  0  0  0
  2  3  1  0  0  0  0
  2  4  1  0  0  0  0
  2  5  1  0  0  0  0
  1  2  1  0  0  0  0
 22 23  2  0  0  0  0
 22 24  1  0  0  0  0
 20 21  1  0  0  0  0
 18 19  1  0  0  0  0
 18 20  1  0  0  0  0
 16 17  1  0  0  0  0
 16 18  1  0  0  0  0
 15 16  2  0  0  0  0
 14 15  1  0  0  0  0
 14 20  2  0  0  0  0
 11 12  1  0  0  0  0
 11 13  1  0  0  0  0
 11 14  1  0  0  0  0
  9 10  1  0  0  0  0
  9 11  1  0  0  0  0
  9 22  1  0  0  0  0
  7  8  1  0  0  0  0
  7  9  1  0  0  0  0
 26 27  1  0  0  0  0
 26 28  1  0  0  0  0
 26 29  1  0  0  0  0
 24 25  1  0  0  0  0
 24 26  1  0  0  0  0
M  END
$$$$
default_name
  -OEChem-02102213163D

 29 29  0     1  0  0  0  0  0999 V2000
   -2.9561   -3.9186    1.3887 H   0  0  0  0  0  0  0  0  0  0  0  0
   -3.1191   -2.9346    0.9517 C   0  0  0  0  0  0  0  0  0  0  0  0
   -3.7811   -2.3546    1.5917 H   0  0  0  0  0  0  0  0  0  0  0  0
   -3.5591   -3.0406   -0.0383 H   0  0  0  0  0  0  0  0  0  0  0  0
   -1.7921   -2.2226    0.8327 C   0  0  0  0  0  0  0  0  0  0  0  0
   -0.7611   -2.7766    1.1927 O   0  0  0  0  0  0  0  0  0  0  0  0
   -1.8201   -0.9926    0.3247 N   0  0  0  0  0  0  0  0  0  0  0  0
   -2.7141   -0.5816    0.0927 H   0  0  0  0  0  0  0  0  0  0  0  0
   -0.6481   -0.1156    0.2017 C   0  0  1  0  0  0  0  0  0  0  0  0
    0.1344   -0.4988    0.8596 H   0  0  0  0  0  0  0  0  0  0  0  0
   -0.1211   -0.1520   -1.2460 C   0  0  0  0  0  0  0  0  0  0  0  0
    0.9660   -0.2436   -1.2409 H   0  0  0  0  0  0  0  0  0  0  0  0
   -0.5217   -1.0251   -1.7627 H   0  0  0  0  0  0  0  0  0  0  0  0
   -0.4626    1.0941   -2.0262 C   0  0  0  0  0  0  0  0  0  0  0  0
   -0.0741    2.3944   -1.7010 N   0  0  0  0  0  0  0  0  0  0  0  0
   -0.5490    3.1776   -2.6805 C   0  0  0  0  0  0  0  0  0  0  0  0
   -0.4267    4.2527   -2.7189 H   0  0  0  0  0  0  0  0  0  0  0  0
   -1.1856    2.4390   -3.6049 N   0  0  0  0  0  0  0  0  0  0  0  0
   -1.6125    2.7964   -4.4486 H   0  0  0  0  0  0  0  0  0  0  0  0
   -1.1381    1.1202   -3.2112 C   0  0  0  0  0  0  0  0  0  0  0  0
   -1.5333    0.2590   -3.7352 H   0  0  0  0  0  0  0  0  0  0  0  0
   -0.9851    1.3114    0.6698 C   0  0  0  0  0  0  0  0  0  0  0  0
   -2.0377    1.8431    0.3168 O   0  0  0  0  0  0  0  0  0  0  0  0
   -0.1052    1.9265    1.4663 N   0  0  0  0  0  0  0  0  0  0  0  0
    0.7810    1.4586    1.6201 H   0  0  0  0  0  0  0  0  0  0  0  0
   -0.2724    3.2715    2.0119 C   0  0  0  0  0  0  0  0  0  0  0  0
   -1.3249    3.4549    2.2426 H   0  0  0  0  0  0  0  0  0  0  0  0
    0.3167    3.3776    2.9239 H   0  0  0  0  0  0  0  0  0  0  0  0
    0.0609    4.0073    1.2782 H   0  0  0  0  0  0  0  0  0  0  0  0
  5  6  2  0  0  0  0
  5  7  1  0  0  0  0
  2  3  1  0  0  0  0
  2  4  1  0  0  0  0
  2  5  1  0  0  0  0
  1  2  1  0  0  0  0
 22 23  2  0  0  0  0
 22 24  1  0  0  0  0
 20 21  1  0  0  0  0
 18 19  1  0  0  0  0
 18 20  1  0  0  0  0
 16 17  1  0  0  0  0
 16 18  1  0  0  0  0
 15 16  2  0  0  0  0
 14 15  1  0  0  0  0
 14 20  2  0  0  0  0
 11 12  1  0  0  0  0
 11 13  1  0  0  0  0
 11 14  1  0  0  0  0
  9 10  1  0  0  0  0
  9 11  1  0  0  0  0
  9 22  1  0  0  0  0
  7  8  1  0  0  0  0
  7  9  1  0  0  0  0
 26 27  1  0  0  0  0
 26 28  1  0  0  0  0
 26 29  1  0  0  0  0
 24 25  1  0  0  0  0
 24 26  1  0  0  0  0
M  END
$$$$
default_name
  -OEChem-02102213163D

 29 29  0     1  0  0  0  0  0999 V2000
   -2.9561   -3.9186    1.3887 H   0  0  0  0  0  0  0  0  0  0  0  0
   -3.1191   -2.9346    0.9517 C   0  0  0  0  0  0  0  0  0  0  0  0
   -3.7811   -2.3546    1.5917 H   0  0  0  0  0  0  0  0  0  0  0  0
   -3.5591   -3.0406   -0.0383 H   0  0  0  0  0  0  0  0  0  0  0  0
   -1.7921   -2.2226    0.8327 C   0  0  0  0  0  0  0  0  0  0  0  0
   -0.7611   -2.7766    1.1927 O   0  0  0  0  0  0  0  0  0  0  0  0
   -1.8201   -0.9926    0.3247 N   0  0  0  0  0  0  0  0  0  0  0  0
   -2.7141   -0.5816    0.0927 H   0  0  0  0  0  0  0  0  0  0  0  0
   -0.6481   -0.1156    0.2017 C   0  0  1  0  0  0  0  0  0  0  0  0
    0.1344   -0.4988    0.8596 H   0  0  0  0  0  0  0  0  0  0  0  0
   -0.1211   -0.1520   -1.2460 C   0  0  0  0  0  0  0  0  0  0  0  0
    0.9660   -0.2436   -1.2409 H   0  0  0  0  0  0  0  0  0  0  0  0
   -0.5217   -1.0251   -1.7627 H   0  0  0  0  0  0  0  0  0  0  0  0
   -0.4626    1.0941   -2.0262 C   0  0  0  0  0  0  0  0  0  0  0  0
    0.1498    2.3402   -1.8857 N   0  0  0  0  0  0  0  0  0  0  0  0
   -0.4232    3.1383   -2.7984 C   0  0  0  0  0  0  0  0  0  0  0  0
   -0.1762    4.1829   -2.9401 H   0  0  0  0  0  0  0  0  0  0  0  0
   -1.3345    2.4562   -3.5122 N   0  0  0  0  0  0  0  0  0  0  0  0
   -1.8857    2.8325   -4.2715 H   0  0  0  0  0  0  0  0  0  0  0  0
   -1.3709    1.1624   -3.0419 C   0  0  0  0  0  0  0  0  0  0  0  0
   -1.9771    0.3429   -3.4070 H   0  0  0  0  0  0  0  0  0  0  0  0
   -0.9851    1.3114    0.6698 C   0  0  0  0  0  0  0  0  0  0  0  0
   -2.0377    1.8431    0.3168 O   0  0  0  0  0  0  0  0  0  0  0  0
   -0.1052    1.9265    1.4663 N   0  0  0  0  0  0  0  0  0  0  0  0
    0.7810    1.4586    1.6201 H   0  0  0  0  0  0  0  0  0  0  0  0
   -0.2724    3.2715    2.0119 C   0  0  0  0  0  0  0  0  0  0  0  0
   -1.3249    3.4549    2.2426 H   0  0  0  0  0  0  0  0  0  0  0  0
    0.3167    3.3776    2.9239 H   0  0  0  0  0  0  0  0  0  0  0  0
    0.0609    4.0073    1.2782 H   0  0  0  0  0  0  0  0  0  0  0  0
  5  6  2  0  0  0  0
  5  7  1  0  0  0  0
  2  3  1  0  0  0  0
  2  4  1  0  0  0  0
  2  5  1  0  0  0  0
  1  2  1  0  0  0  0
 22 23  2  0  0  0  0
 22 24  1  0  0  0  0
 20 21  1  0  0  0  0
 18 19  1  0  0  0  0
 18 20  1  0  0  0  0
 16 17  1  0  0  0  0
 16 18  1  0  0  0  0
 15 16  2  0  0  0  0
 14 15  1  0  0  0  0
 14 20  2  0  0  0  0
 11 12  1  0  0  0  0
 11 13  1  0  0  0  0
 11 14  1  0  0  0  0
  9 10  1  0  0  0  0
  9 11  1  0  0  0  0
  9 22  1  0  0  0  0
  7  8  1  0  0  0  0
  7  9  1  0  0  0  0
 26 27  1  0  0  0  0
 26 28  1  0  0  0  0
 26 29  1  0  0  0  0
 24 25  1  0  0  0  0
 24 26  1  0  0  0  0
M  END
$$$$
default_name
  -OEChem-02102213163D

 29 29  0     1  0  0  0  0  0999 V2000
   -2.9561   -3.9186    1.3887 H   0  0  0  0  0  0  0  0  0  0  0  0
   -3.1191   -2.9346    0.9517 C   0  0  0  0  0  0  0  0  0  0  0  0
   -3.7811   -2.3546    1.5917 H   0  0  0  0  0  0  0  0  0  0  0  0
   -3.5591   -3.0406   -0.0383 H   0  0  0  0  0  0  0  0  0  0  0  0
   -1.7921   -2.2226    0.8327 C   0  0  0  0  0  0  0  0  0  0  0  0
   -0.7611   -2.7766    1.1927 O   0  0  0  0  0  0  0  0  0  0  0  0
   -1.8201   -0.9926    0.3247 N   0  0  0  0  0  0  0  0  0  0  0  0
   -2.7141   -0.5816    0.0927 H   0  0  0  0  0  0  0  0  0  0  0  0
   -0.6481   -0.1156    0.2017 C   0  0  1  0  0  0  0  0  0  0  0  0
    0.1344   -0.4988    0.8596 H   0  0  0  0  0  0  0  0  0  0  0  0
   -0.1211   -0.1520   -1.2460 C   0  0  0  0  0  0  0  0  0  0  0  0
    0.9660   -0.2436   -1.2409 H   0  0  0  0  0  0  0  0  0  0  0  0
   -0.5217   -1.0251   -1.7627 H   0  0  0  0  0  0  0  0  0  0  0  0
   -0.4626    1.0941   -2.0262 C   0  0  0  0  0  0  0  0  0  0  0  0
    0.3194    2.2470   -2.1087 N   0  0  0  0  0  0  0  0  0  0  0  0
   -0.3321    3.0766   -2.9368 C   0  0  0  0  0  0  0  0  0  0  0  0
    0.0092    4.0690   -3.2031 H   0  0  0  0  0  0  0  0  0  0  0  0
   -1.4562    2.4982   -3.3919 N   0  0  0  0  0  0  0  0  0  0  0  0
   -2.1069    2.9142   -4.0441 H   0  0  0  0  0  0  0  0  0  0  0  0
   -1.5539    1.2442   -2.8310 C   0  0  0  0  0  0  0  0  0  0  0  0
   -2.3244    0.5025   -3.0000 H   0  0  0  0  0  0  0  0  0  0  0  0
   -0.9851    1.3114    0.6698 C   0  0  0  0  0  0  0  0  0  0  0  0
   -2.0377    1.8431    0.3168 O   0  0  0  0  0  0  0  0  0  0  0  0
   -0.1052    1.9265    1.4663 N   0  0  0  0  0  0  0  0  0  0  0  0
    0.7810    1.4586    1.6201 H   0  0  0  0  0  0  0  0  0  0  0  0
   -0.2724    3.2715    2.0119 C   0  0  0  0  0  0  0  0  0  0  0  0
   -1.3249    3.4549    2.2426 H   0  0  0  0  0  0  0  0  0  0  0  0
    0.3167    3.3776    2.9239 H   0  0  0  0  0  0  0  0  0  0  0  0
    0.0609    4.0073    1.2782 H   0  0  0  0  0  0  0  0  0  0  0  0
  5  6  2  0  0  0  0
  5  7  1  0  0  0  0
  2  3  1  0  0  0  0
  2  4  1  0  0  0  0
  2  5  1  0  0  0  0
  1  2  1  0  0  0  0
 22 23  2  0  0  0  0
 22 24  1  0  0  0  0
 20 21  1  0  0  0  0
 18 19  1  0  0  0  0
 18 20  1  0  0  0  0
 16 17  1  0  0  0  0
 16 18  1  0  0  0  0
 15 16  2  0  0  0  0
 14 15  1  0  0  0  0
 14 20  2  0  0  0  0
 11 12  1  0  0  0  0
 11 13  1  0  0  0  0
 11 14  1  0  0  0  0
  9 10  1  0  0  0  0
  9 11  1  0  0  0  0
  9 22  1  0  0  0  0
  7  8  1  0  0  0  0
  7  9  1  0  0  0  0
 26 27  1  0  0  0  0
 26 28  1  0  0  0  0
 26 29  1  0  0  0  0
 24 25  1  0  0  0  0
 24 26  1  0  0  0  0
M  END
$$$$
default_name
  -OEChem-02102213163D

 29 29  0     1  0  0  0  0  0999 V2000
   -2.9561   -3.9186    1.3887 H   0  0  0  0  0  0  0  0  0  0  0  0
   -3.1191   -2.9346    0.9517 C   0  0  0  0  0  0  0  0  0  0  0  0
   -3.7811   -2.3546    1.5917 H   0  0  0  0  0  0  0  0  0  0  0  0
   -3.5591   -3.0406   -0.0383 H   0  0  0  0  0  0  0  0  0  0  0  0
   -1.7921   -2.2226    0.8327 C   0  0  0  0  0  0  0  0  0  0  0  0
   -0.7611   -2.7766    1.1927 O   0  0  0  0  0  0  0  0  0  0  0  0
   -1.8201   -0.9926    0.3247 N   0  0  0  0  0  0  0  0  0  0  0  0
   -2.7141   -0.5816    0.0927 H   0  0  0  0  0  0  0  0  0  0  0  0
   -0.6481   -0.1156    0.2017 C   0  0  1  0  0  0  0  0  0  0  0  0
    0.1344   -0.4988    0.8596 H   0  0  0  0  0  0  0  0  0  0  0  0
   -0.1211   -0.1520   -1.2460 C   0  0  0  0  0  0  0  0  0  0  0  0
    0.9660   -0.2436   -1.2409 H   0  0  0  0  0  0  0  0  0  0  0  0
   -0.5217   -1.0251   -1.7627 H   0  0  0  0  0  0  0  0  0  0  0  0
   -0.4626    1.0941   -2.0262 C   0  0  0  0  0  0  0  0  0  0  0  0
    0.4230    2.1213   -2.3549 N   0  0  0  0  0  0  0  0  0  0  0  0
   -0.2819    2.9967   -3.0864 C   0  0  0  0  0  0  0  0  0  0  0  0
    0.1168    3.9187   -3.4902 H   0  0  0  0  0  0  0  0  0  0  0  0
   -1.5425    2.5621   -3.2521 N   0  0  0  0  0  0  0  0  0  0  0  0
   -2.2611    3.0361   -3.7819 H   0  0  0  0  0  0  0  0  0  0  0  0
   -1.6747    1.3601   -2.5931 C   0  0  0  0  0  0  0  0  0  0  0  0
   -2.5516    0.7270   -2.5421 H   0  0  0  0  0  0  0  0  0  0  0  0
   -0.9851    1.3114    0.6698 C   0  0  0  0  0  0  0  0  0  0  0  0
   -2.0377    1.8431    0.3168 O   0  0  0  0  0  0  0  0  0  0  0  0
   -0.1052    1.9265    1.4663 N   0  0  0  0  0  0  0  0  0  0  0  0
    0.7810    1.4586    1.6201 H   0  0  0  0  0  0  0  0  0  0  0  0
   -0.2724    3.2715    2.0119 C   0  0  0  0  0  0  0  0  0  0  0  0
   -1.3249    3.4549    2.2426 H   0  0  0  0  0  0  0  0  0  0  0  0
    0.3167    3.3776    2.9239 H   0  0  0  0  0  0  0  0  0  0  0  0
    0.0609    4.0073    1.2782 H   0  0  0  0  0  0  0  0  0  0  0  0
  5  6  2  0  0  0  0
  5  7  1  0  0  0  0
  2  3  1  0  0  0  0
  2  4  1  0  0  0  0
  2  5  1  0  0  0  0
  1  2  1  0  0  0  0
 22 23  2  0  0  0  0
 22 24  1  0  0  0  0
 20 21  1  0  0  0  0
 18 19  1  0  0  0  0
 18 20  1  0  0  0  0
 16 17  1  0  0  0  0
 16 18  1  0  0  0  0
 15 16  2  0  0  0  0
 14 15  1  0  0  0  0
 14 20  2  0  0  0  0
 11 12  1  0  0  0  0
 11 13  1  0  0  0  0
 11 14  1  0  0  0  0
  9 10  1  0  0  0  0
  9 11  1  0  0  0  0
  9 22  1  0  0  0  0
  7  8  1  0  0  0  0
  7  9  1  0  0  0  0
 26 27  1  0  0  0  0
 26 28  1  0  0  0  0
 26 29  1  0  0  0  0
 24 25  1  0  0  0  0
 24 26  1  0  0  0  0
M  END
$$$$
default_name
  -OEChem-02102213163D

 29 29  0     1  0  0  0  0  0999 V2000
   -2.9561   -3.9186    1.3887 H   0  0  0  0  0  0  0  0  0  0  0  0
   -3.1191   -2.9346    0.9517 C   0  0  0  0  0  0  0  0  0  0  0  0
   -3.7811   -2.3546    1.5917 H   0  0  0  0  0  0  0  0  0  0  0  0
   -3.5591   -3.0406   -0.0383 H   0  0  0  0  0  0  0  0  0  0  0  0
   -1.7921   -2.2226    0.8327 C   0  0  0  0  0  0  0  0  0  0  0  0
   -0.7611   -2.7766    1.1927 O   0  0  0  0  0  0  0  0  0  0  0  0
   -1.8201   -0.9926    0.3247 N   0  0  0  0  0  0  0  0  0  0  0  0
   -2.7141   -0.5816    0.0927 H   0  0  0  0  0  0  0  0  0  0  0  0
   -0.6481   -0.1156    0.2017 C   0  0  1  0  0  0  0  0  0  0  0  0
    0.1344   -0.4988    0.8596 H   0  0  0  0  0  0  0  0  0  0  0  0
   -0.1211   -0.1520   -1.2460 C   0  0  0  0  0  0  0  0  0  0  0  0
    0.9660   -0.2436   -1.2409 H   0  0  0  0  0  0  0  0  0  0  0  0
   -0.5217   -1.0251   -1.7627 H   0  0  0  0  0  0  0  0  0  0  0  0
   -0.4626    1.0941   -2.0262 C   0  0  0  0  0  0  0  0  0  0  0  0
    0.4537    1.9715   -2.6075 N   0  0  0  0  0  0  0  0  0  0  0  0
   -0.2761    2.9040   -3.2369 C   0  0  0  0  0  0  0  0  0  0  0  0
    0.1394    3.7424   -3.7816 H   0  0  0  0  0  0  0  0  0  0  0  0
   -1.5873    2.6436   -3.1023 N   0  0  0  0  0  0  0  0  0  0  0  0
   -2.3377    3.1898   -3.5030 H   0  0  0  0  0  0  0  0  0  0  0  0
   -1.7250    1.5022   -2.3442 C   0  0  0  0  0  0  0  0  0  0  0  0
   -2.6431    1.0010   -2.0643 H   0  0  0  0  0  0  0  0  0  0  0  0
   -0.9851    1.3114    0.6698 C   0  0  0  0  0  0  0  0  0  0  0  0
   -2.0377    1.8431    0.3168 O   0  0  0  0  0  0  0  0  0  0  0  0
   -0.1052    1.9265    1.4663 N   0  0  0  0  0  0  0  0  0  0  0  0
    0.7810    1.4586    1.6201 H   0  0  0  0  0  0  0  0  0  0  0  0
   -0.2724    3.2715    2.0119 C   0  0  0  0  0  0  0  0  0  0  0  0
   -1.3249    3.4549    2.2426 H   0  0  0  0  0  0  0  0  0  0  0  0
    0.3167    3.3776    2.9239 H   0  0  0  0  0  0  0  0  0  0  0  0
    0.0609    4.0073    1.2782 H   0  0  0  0  0  0  0  0  0  0  0  0
  5  6  2  0  0  0  0
  5  7  1  0  0  0  0
  2  3  1  0  0  0  0
  2  4  1  0  0  0  0
  2  5  1  0  0  0  0
  1  2  1  0  0  0  0
 22 23  2  0  0  0  0
 22 24  1  0  0  0  0
 20 21  1  0  0  0  0
 18 19  1  0  0  0  0
 18 20  1  0  0  0  0
 16 17  1  0  0  0  0
 16 18  1  0  0  0  0
 15 16  2  0  0  0  0
 14 15  1  0  0  0  0
 14 20  2  0  0  0  0
 11 12  1  0  0  0  0
 11 13  1  0  0  0  0
 11 14  1  0  0  0  0
  9 10  1  0  0  0  0
  9 11  1  0  0  0  0
  9 22  1  0  0  0  0
  7  8  1  0  0  0  0
  7  9  1  0  0  0  0
 26 27  1  0  0  0  0
 26 28  1  0  0  0  0
 26 29  1  0  0  0  0
 24 25  1  0  0  0  0
 24 26  1  0  0  0  0
M  END
$$$$
default_name
  -OEChem-02102213163D

 29 29  0     1  0  0  0  0  0999 V2000
   -2.9561   -3.9186    1.3887 H   0  0  0  0  0  0  0  0  0  0  0  0
   -3.1191   -2.9346    0.9517 C   0  0  0  0  0  0  0  0  0  0  0  0
   -3.7811   -2.3546    1.5917 H   0  0  0  0  0  0  0  0  0  0  0  0
   -3.5591   -3.0406   -0.0383 H   0  0  0  0  0  0  0  0  0  0  0  0
   -1.7921   -2.2226    0.8327 C   0  0  0  0  0  0  0  0  0  0  0  0
   -0.7611   -2.7766    1.1927 O   0  0  0  0  0  0  0  0  0  0  0  0
   -1.8201   -0.9926    0.3247 N   0  0  0  0  0  0  0  0  0  0  0  0
   -2.7141   -0.5816    0.0927 H   0  0  0  0  0  0  0  0  0  0  0  0
   -0.6481   -0.1156    0.2017 C   0  0  1  0  0  0  0  0  0  0  0  0
    0.1344   -0.4988    0.8596 H   0  0  0  0  0  0  0  0  0  0  0  0
   -0.1211   -0.1520   -1.2460 C   0  0  0  0  0  0  0  0  0  0  0  0
    0.9660   -0.2436   -1.2409 H   0  0  0  0  0  0  0  0  0  0  0  0
   -0.5217   -1.0251   -1.7627 H   0  0  0  0  0  0  0  0  0  0  0  0
   -0.4626    1.0941   -2.0262 C   0  0  0  0  0  0  0  0  0  0  0  0
    0.4093    1.8080   -2.8493 N   0  0  0  0  0  0  0  0  0  0  0  0
   -0.3150    2.8049   -3.3781 C   0  0  0  0  0  0  0  0  0  0  0  0
    0.0753    3.5520   -4.0576 H   0  0  0  0  0  0  0  0  0  0  0  0
   -1.5878    2.7370   -2.9529 N   0  0  0  0  0  0  0  0  0  0  0  0
   -2.3315    3.3648   -3.2261 H   0  0  0  0  0  0  0  0  0  0  0  0
   -1.7014    1.6607   -2.1014 C   0  0  0  0  0  0  0  0  0  0  0  0
   -2.5928    1.3060   -1.5993 H   0  0  0  0  0  0  0  0  0  0  0  0
   -0.9851    1.3114    0.6698 C   0  0  0  0  0  0  0  0  0  0  0  0
   -2.0377    1.8431    0.3168 O   0  0  0  0  0  0  0  0  0  0  0  0
   -0.1052    1.9265    1.4663 N   0  0  0  0  0  0  0  0  0  0  0  0
    0.7810    1.4586    1.6201 H   0  0  0  0  0  0  0  0  0  0  0  0
   -0.2724    3.2715    2.0119 C   0  0  0  0  0  0  0  0  0  0  0  0
   -1.3249    3.4549    2.2426 H   0  0  0  0  0  0  0  0  0  0  0  0
    0.3167    3.3776    2.9239 H   0  0  0  0  0  0  0  0  0  0  0  0
    0.0609    4.0073    1.2782 H   0  0  0  0  0  0  0  0  0  0  0  0
  5  6  2  0  0  0  0
  5  7  1  0  0  0  0
  2  3  1  0  0  0  0
  2  4  1  0  0  0  0
  2  5  1  0  0  0  0
  1  2  1  0  0  0  0
 22 23  2  0  0  0  0
 22 24  1  0  0  0  0
 20 21  1  0  0  0  0
 18 19  1  0  0  0  0
 18 20  1  0  0  0  0
 16 17  1  0  0  0  0
 16 18  1  0  0  0  0
 15 16  2  0  0  0  0
 14 15  1  0  0  0  0
 14 20  2  0  0  0  0
 11 12  1  0  0  0  0
 11 13  1  0  0  0  0
 11 14  1  0  0  0  0
  9 10  1  0  0  0  0
  9 11  1  0  0  0  0
  9 22  1  0  0  0  0
  7  8  1  0  0  0  0
  7  9  1  0  0  0  0
 26 27  1  0  0  0  0
 26 28  1  0  0  0  0
 26 29  1  0  0  0  0
 24 25  1  0  0  0  0
 24 26  1  0  0  0  0
M  END
$$$$
default_name
  -OEChem-02102213163D

 29 29  0     1  0  0  0  0  0999 V2000
   -2.9561   -3.9186    1.3887 H   0  0  0  0  0  0  0  0  0  0  0  0
   -3.1191   -2.9346    0.9517 C   0  0  0  0  0  0  0  0  0  0  0  0
   -3.7811   -2.3546    1.5917 H   0  0  0  0  0  0  0  0  0  0  0  0
   -3.5591   -3.0406   -0.0383 H   0  0  0  0  0  0  0  0  0  0  0  0
   -1.7921   -2.2226    0.8327 C   0  0  0  0  0  0  0  0  0  0  0  0
   -0.7611   -2.7766    1.1927 O   0  0  0  0  0  0  0  0  0  0  0  0
   -1.8201   -0.9926    0.3247 N   0  0  0  0  0  0  0  0  0  0  0  0
   -2.7141   -0.5816    0.0927 H   0  0  0  0  0  0  0  0  0  0  0  0
   -0.6481   -0.1156    0.2017 C   0  0  1  0  0  0  0  0  0  0  0  0
    0.1344   -0.4988    0.8596 H   0  0  0  0  0  0  0  0  0  0  0  0
   -0.1211   -0.1520   -1.2460 C   0  0  0  0  0  0  0  0  0  0  0  0
    0.9660   -0.2436   -1.2409 H   0  0  0  0  0  0  0  0  0  0  0  0
   -0.5217   -1.0251   -1.7627 H   0  0  0  0  0  0  0  0  0  0  0  0
   -0.4626    1.0941   -2.0262 C   0  0  0  0  0  0  0  0  0  0  0  0
    0.2929    1.6418   -3.0637 N   0  0  0  0  0  0  0  0  0  0  0  0
   -0.3961    2.7062   -3.5004 C   0  0  0  0  0  0  0  0  0  0  0  0
   -0.0711    3.3606   -4.2994 H   0  0  0  0  0  0  0  0  0  0  0  0
   -1.5438    2.8361   -2.8139 N   0  0  0  0  0  0  0  0  0  0  0  0
   -2.2429    3.5493   -2.9703 H   0  0  0  0  0  0  0  0  0  0  0  0
   -1.6056    1.8248   -1.8811 C   0  0  0  0  0  0  0  0  0  0  0  0
   -2.4040    1.6210   -1.1788 H   0  0  0  0  0  0  0  0  0  0  0  0
   -0.9851    1.3114    0.6698 C   0  0  0  0  0  0  0  0  0  0  0  0
   -2.0377    1.8431    0.3168 O   0  0  0  0  0  0  0  0  0  0  0  0
   -0.1052    1.9265    1.4663 N   0  0  0  0  0  0  0  0  0  0  0  0
    0.7810    1.4586    1.6201 H   0  0  0  0  0  0  0  0  0  0  0  0
   -0.2724    3.2715    2.0119 C   0  0  0  0  0  0  0  0  0  0  0  0
   -1.3249    3.4549    2.2426 H   0  0  0  0  0  0  0  0  0  0  0  0
    0.3167    3.3776    2.9239 H   0  0  0  0  0  0  0  0  0  0  0  0
    0.0609    4.0073    1.2782 H   0  0  0  0  0  0  0  0  0  0  0  0
  5  6  2  0  0  0  0
  5  7  1  0  0  0  0
  2  3  1  0  0  0  0
  2  4  1  0  0  0  0
  2  5  1  0  0  0  0
  1  2  1  0  0  0  0
 22 23  2  0  0  0  0
 22 24  1  0  0  0  0
 20 21  1  0  0  0  0
 18 19  1  0  0  0  0
 18 20  1  0  0  0  0
 16 17  1  0  0  0  0
 16 18  1  0  0  0  0
 15 16  2  0  0  0  0
 14 15  1  0  0  0  0
 14 20  2  0  0  0  0
 11 12  1  0  0  0  0
 11 13  1  0  0  0  0
 11 14  1  0  0  0  0
  9 10  1  0  0  0  0
  9 11  1  0  0  0  0
  9 22  1  0  0  0  0
  7  8  1  0  0  0  0
  7  9  1  0  0  0  0
 26 27  1  0  0  0  0
 26 28  1  0  0  0  0
 26 29  1  0  0  0  0
 24 25  1  0  0  0  0
 24 26  1  0  0  0  0
M  END
$$$$
default_name
  -OEChem-02102213163D

 29 29  0     1  0  0  0  0  0999 V2000
   -2.9561   -3.9186    1.3887 H   0  0  0  0  0  0  0  0  0  0  0  0
   -3.1191   -2.9346    0.9517 C   0  0  0  0  0  0  0  0  0  0  0  0
   -3.7811   -2.3546    1.5917 H   0  0  0  0  0  0  0  0  0  0  0  0
   -3.5591   -3.0406   -0.0383 H   0  0  0  0  0  0  0  0  0  0  0  0
   -1.7921   -2.2226    0.8327 C   0  0  0  0  0  0  0  0  0  0  0  0
   -0.7611   -2.7766    1.1927 O   0  0  0  0  0  0  0  0  0  0  0  0
   -1.8201   -0.9926    0.3247 N   0  0  0  0  0  0  0  0  0  0  0  0
   -2.7141   -0.5816    0.0927 H   0  0  0  0  0  0  0  0  0  0  0  0
   -0.6481   -0.1156    0.2017 C   0  0  1  0  0  0  0  0  0  0  0  0
    0.1344   -0.4988    0.8596 H   0  0  0  0  0  0  0  0  0  0  0  0
   -0.1211   -0.1520   -1.2460 C   0  0  0  0  0  0  0  0  0  0  0  0
    0.9660   -0.2436   -1.2409 H   0  0  0  0  0  0  0  0  0  0  0  0
   -0.5217   -1.0251   -1.7627 H   0  0  0  0  0  0  0  0  0  0  0  0
   -0.4626    1.0941   -2.0262 C   0  0  0  0  0  0  0  0  0  0  0  0
    0.1125    1.4843   -3.2363 N   0  0  0  0  0  0  0  0  0  0  0  0
   -0.5137    2.6145   -3.5953 C   0  0  0  0  0  0  0  0  0  0  0  0
   -0.2898    3.1810   -4.4904 H   0  0  0  0  0  0  0  0  0  0  0  0
   -1.4583    2.9340   -2.6949 N   0  0  0  0  0  0  0  0  0  0  0  0
   -2.0780    3.7306   -2.7529 H   0  0  0  0  0  0  0  0  0  0  0  0
   -1.4439    1.9835   -1.6985 C   0  0  0  0  0  0  0  0  0  0  0  0
   -2.0896    1.9247   -0.8314 H   0  0  0  0  0  0  0  0  0  0  0  0
   -0.9851    1.3114    0.6698 C   0  0  0  0  0  0  0  0  0  0  0  0
   -2.0377    1.8431    0.3168 O   0  0  0  0  0  0  0  0  0  0  0  0
   -0.1052    1.9265    1.4663 N   0  0  0  0  0  0  0  0  0  0  0  0
    0.7810    1.4586    1.6201 H   0  0  0  0  0  0  0  0  0  0  0  0
   -0.2724    3.2715    2.0119 C   0  0  0  0  0  0  0  0  0  0  0  0
   -1.3249    3.4549    2.2426 H   0  0  0  0  0  0  0  0  0  0  0  0
    0.3167    3.3776    2.9239 H   0  0  0  0  0  0  0  0  0  0  0  0
    0.0609    4.0073    1.2782 H   0  0  0  0  0  0  0  0  0  0  0  0
  5  6  2  0  0  0  0
  5  7  1  0  0  0  0
  2  3  1  0  0  0  0
  2  4  1  0  0  0  0
  2  5  1  0  0  0  0
  1  2  1  0  0  0  0
 22 23  2  0  0  0  0
 22 24  1  0  0  0  0
 20 21  1  0  0  0  0
 18 19  1  0  0  0  0
 18 20  1  0  0  0  0
 16 17  1  0  0  0  0
 16 18  1  0  0  0  0
 15 16  2  0  0  0  0
 14 15  1  0  0  0  0
 14 20  2  0  0  0  0
 11 12  1  0  0  0  0
 11 13  1  0  0  0  0
 11 14  1  0  0  0  0
  9 10  1  0  0  0  0
  9 11  1  0  0  0  0
  9 22  1  0  0  0  0
  7  8  1  0  0  0  0
  7  9  1  0  0  0  0
 26 27  1  0  0  0  0
 26 28  1  0  0  0  0
 26 29  1  0  0  0  0
 24 25  1  0  0  0  0
 24 26  1  0  0  0  0
M  END
$$$$
default_name
  -OEChem-02102213163D

 29 29  0     1  0  0  0  0  0999 V2000
   -2.9561   -3.9186    1.3887 H   0  0  0  0  0  0  0  0  0  0  0  0
   -3.1191   -2.9346    0.9517 C   0  0  0  0  0  0  0  0  0  0  0  0
   -3.7811   -2.3546    1.5917 H   0  0  0  0  0  0  0  0  0  0  0  0
   -3.5591   -3.0406   -0.0383 H   0  0  0  0  0  0  0  0  0  0  0  0
   -1.7921   -2.2226    0.8327 C   0  0  0  0  0  0  0  0  0  0  0  0
   -0.7611   -2.7766    1.1927 O   0  0  0  0  0  0  0  0  0  0  0  0
   -1.8201   -0.9926    0.3247 N   0  0  0  0  0  0  0  0  0  0  0  0
   -2.7141   -0.5816    0.0927 H   0  0  0  0  0  0  0  0  0  0  0  0
   -0.6481   -0.1156    0.2017 C   0  0  1  0  0  0  0  0  0  0  0  0
    0.1344   -0.4988    0.8596 H   0  0  0  0  0  0  0  0  0  0  0  0
   -0.1211   -0.1520   -1.2460 C   0  0  0  0  0  0  0  0  0  0  0  0
    0.9110   -0.5056   -1.2544 H   0  0  0  0  0  0  0  0  0  0  0  0
   -0.7129   -0.8525   -1.8367 H   0  0  0  0  0  0  0  0  0  0  0  0
   -0.1364    1.2033   -1.9101 C   0  0  0  0  0  0  0  0  0  0  0  0
    0.2799    1.4800   -3.2130 N   0  0  0  0  0  0  0  0  0  0  0  0
    0.0502    2.7872   -3.4044 C   0  0  0  0  0  0  0  0  0  0  0  0
    0.2768    3.3216   -4.3183 H   0  0  0  0  0  0  0  0  0  0  0  0
   -0.5061    3.3312   -2.3090 N   0  0  0  0  0  0  0  0  0  0  0  0
   -0.7899    4.2967   -2.2136 H   0  0  0  0  0  0  0  0  0  0  0  0
   -0.6357    2.3456   -1.3560 C   0  0  0  0  0  0  0  0  0  0  0  0
   -1.0656    2.4353   -0.3663 H   0  0  0  0  0  0  0  0  0  0  0  0
   -0.9851    1.3114    0.6698 C   0  0  0  0  0  0  0  0  0  0  0  0
   -2.0377    1.8431    0.3168 O   0  0  0  0  0  0  0  0  0  0  0  0
   -0.1052    1.9265    1.4663 N   0  0  0  0  0  0  0  0  0  0  0  0
    0.7810    1.4586    1.6201 H   0  0  0  0  0  0  0  0  0  0  0  0
   -0.2724    3.2715    2.0119 C   0  0  0  0  0  0  0  0  0  0  0  0
   -1.3249    3.4549    2.2426 H   0  0  0  0  0  0  0  0  0  0  0  0
    0.3167    3.3776    2.9239 H   0  0  0  0  0  0  0  0  0  0  0  0
    0.0609    4.0073    1.2782 H   0  0  0  0  0  0  0  0  0  0  0  0
  5  6  2  0  0  0  0
  5  7  1  0  0  0  0
  2  3  1  0  0  0  0
  2  4  1  0  0  0  0
  2  5  1  0  0  0  0
  1  2  1  0  0  0  0
 22 23  2  0  0  0  0
 22 24  1  0  0  0  0
 20 21  1  0  0  0  0
 18 19  1  0  0  0  0
 18 20  1  0  0  0  0
 16 17  1  0  0  0  0
 16 18  1  0  0  0  0
 15 16  2  0  0  0  0
 14 15  1  0  0  0  0
 14 20  2  0  0  0  0
 11 12  1  0  0  0  0
 11 13  1  0  0  0  0
 11 14  1  0  0  0  0
  9 10  1  0  0  0  0
  9 11  1  0  0  0  0
  9 22  1  0  0  0  0
  7  8  1  0  0  0  0
  7  9  1  0  0  0  0
 26 27  1  0  0  0  0
 26 28  1  0  0  0  0
 26 29  1  0  0  0  0
 24 25  1  0  0  0  0
 24 26  1  0  0  0  0
M  END
$$$$
default_name
  -OEChem-02102213163D

 29 29  0     1  0  0  0  0  0999 V2000
   -2.9561   -3.9186    1.3887 H   0  0  0  0  0  0  0  0  0  0  0  0
   -3.1191   -2.9346    0.9517 C   0  0  0  0  0  0  0  0  0  0  0  0
   -3.7811   -2.3546    1.5917 H   0  0  0  0  0  0  0  0  0  0  0  0
   -3.5591   -3.0406   -0.0383 H   0  0  0  0  0  0  0  0  0  0  0  0
   -1.7921   -2.2226    0.8327 C   0  0  0  0  0  0  0  0  0  0  0  0
   -0.7611   -2.7766    1.1927 O   0  0  0  0  0  0  0  0  0  0  0  0
   -1.8201   -0.9926    0.3247 N   0  0  0  0  0  0  0  0  0  0  0  0
   -2.7141   -0.5816    0.0927 H   0  0  0  0  0  0  0  0  0  0  0  0
   -0.6481   -0.1156    0.2017 C   0  0  1  0  0  0  0  0  0  0  0  0
    0.1344   -0.4988    0.8596 H   0  0  0  0  0  0  0  0  0  0  0  0
   -0.1211   -0.1520   -1.2460 C   0  0  0  0  0  0  0  0  0  0  0  0
    0.9110   -0.5056   -1.2544 H   0  0  0  0  0  0  0  0  0  0  0  0
   -0.7129   -0.8525   -1.8367 H   0  0  0  0  0  0  0  0  0  0  0  0
   -0.1364    1.2033   -1.9101 C   0  0  0  0  0  0  0  0  0  0  0  0
   -0.0058    1.4447   -3.2784 N   0  0  0  0  0  0  0  0  0  0  0  0
   -0.1237    2.7716   -3.4321 C   0  0  0  0  0  0  0  0  0  0  0  0
   -0.0567    3.2866   -4.3822 H   0  0  0  0  0  0  0  0  0  0  0  0
   -0.3446    3.3637   -2.2464 N   0  0  0  0  0  0  0  0  0  0  0  0
   -0.4869    4.3542   -2.1032 H   0  0  0  0  0  0  0  0  0  0  0  0
   -0.3600    2.3891   -1.2736 C   0  0  0  0  0  0  0  0  0  0  0  0
   -0.5349    2.5165   -0.2127 H   0  0  0  0  0  0  0  0  0  0  0  0
   -0.9851    1.3114    0.6698 C   0  0  0  0  0  0  0  0  0  0  0  0
   -2.0377    1.8431    0.3168 O   0  0  0  0  0  0  0  0  0  0  0  0
   -0.1052    1.9265    1.4663 N   0  0  0  0  0  0  0  0  0  0  0  0
    0.7810    1.4586    1.6201 H   0  0  0  0  0  0  0  0  0  0  0  0
   -0.2724    3.2715    2.0119 C   0  0  0  0  0  0  0  0  0  0  0  0
   -1.3249    3.4549    2.2426 H   0  0  0  0  0  0  0  0  0  0  0  0
    0.3167    3.3776    2.9239 H   0  0  0  0  0  0  0  0  0  0  0  0
    0.0609    4.0073    1.2782 H   0  0  0  0  0  0  0  0  0  0  0  0
  5  6  2  0  0  0  0
  5  7  1  0  0  0  0
  2  3  1  0  0  0  0
  2  4  1  0  0  0  0
  2  5  1  0  0  0  0
  1  2  1  0  0  0  0
 22 23  2  0  0  0  0
 22 24  1  0  0  0  0
 20 21  1  0  0  0  0
 18 19  1  0  0  0  0
 18 20  1  0  0  0  0
 16 17  1  0  0  0  0
 16 18  1  0  0  0  0
 15 16  2  0  0  0  0
 14 15  1  0  0  0  0
 14 20  2  0  0  0  0
 11 12  1  0  0  0  0
 11 13  1  0  0  0  0
 11 14  1  0  0  0  0
  9 10  1  0  0  0  0
  9 11  1  0  0  0  0
  9 22  1  0  0  0  0
  7  8  1  0  0  0  0
  7  9  1  0  0  0  0
 26 27  1  0  0  0  0
 26 28  1  0  0  0  0
 26 29  1  0  0  0  0
 24 25  1  0  0  0  0
 24 26  1  0  0  0  0
M  END
$$$$
default_name
  -OEChem-02102213163D

 29 29  0     1  0  0  0  0  0999 V2000
   -2.9561   -3.9186    1.3887 H   0  0  0  0  0  0  0  0  0  0  0  0
   -3.1191   -2.9346    0.9517 C   0  0  0  0  0  0  0  0  0  0  0  0
   -3.7811   -2.3546    1.5917 H   0  0  0  0  0  0  0  0  0  0  0  0
   -3.5591   -3.0406   -0.0383 H   0  0  0  0  0  0  0  0  0  0  0  0
   -1.7921   -2.2226    0.8327 C   0  0  0  0  0  0  0  0  0  0  0  0
   -0.7611   -2.7766    1.1927 O   0  0  0  0  0  0  0  0  0  0  0  0
   -1.8201   -0.9926    0.3247 N   0  0  0  0  0  0  0  0  0  0  0  0
   -2.7141   -0.5816    0.0927 H   0  0  0  0  0  0  0  0  0  0  0  0
   -0.6481   -0.1156    0.2017 C   0  0  1  0  0  0  0  0  0  0  0  0
    0.1344   -0.4988    0.8596 H   0  0  0  0  0  0  0  0  0  0  0  0
   -0.1211   -0.1520   -1.2460 C   0  0  0  0  0  0  0  0  0  0  0  0
    0.9110   -0.5056   -1.2544 H   0  0  0  0  0  0  0  0  0  0  0  0
   -0.7129   -0.8525   -1.8367 H   0  0  0  0  0  0  0  0  0  0  0  0
   -0.1364    1.2033   -1.9101 C   0  0  0  0  0  0  0  0  0  0  0  0
   -0.3010    1.4430   -3.2750 N   0  0  0  0  0  0  0  0  0  0  0  0
   -0.2999    2.7763   -3.4185 C   0  0  0  0  0  0  0  0  0  0  0  0
   -0.3977    3.2905   -4.3663 H   0  0  0  0  0  0  0  0  0  0  0  0
   -0.1703    3.3769   -2.2236 N   0  0  0  0  0  0  0  0  0  0  0  0
   -0.1620    4.3756   -2.0672 H   0  0  0  0  0  0  0  0  0  0  0  0
   -0.0697    2.3999   -1.2583 C   0  0  0  0  0  0  0  0  0  0  0  0
    0.0225    2.5350   -0.1879 H   0  0  0  0  0  0  0  0  0  0  0  0
   -0.9851    1.3114    0.6698 C   0  0  0  0  0  0  0  0  0  0  0  0
   -2.0377    1.8431    0.3168 O   0  0  0  0  0  0  0  0  0  0  0  0
   -0.1052    1.9265    1.4663 N   0  0  0  0  0  0  0  0  0  0  0  0
    0.7810    1.4586    1.6201 H   0  0  0  0  0  0  0  0  0  0  0  0
   -0.2724    3.2715    2.0119 C   0  0  0  0  0  0  0  0  0  0  0  0
   -1.3249    3.4549    2.2426 H   0  0  0  0  0  0  0  0  0  0  0  0
    0.3167    3.3776    2.9239 H   0  0  0  0  0  0  0  0  0  0  0  0
    0.0609    4.0073    1.2782 H   0  0  0  0  0  0  0  0  0  0  0  0
  5  6  2  0  0  0  0
  5  7  1  0  0  0  0
  2  3  1  0  0  0  0
  2  4  1  0  0  0  0
  2  5  1  0  0  0  0
  1  2  1  0  0  0  0
 22 23  2  0  0  0  0
 22 24  1  0  0  0  0
 20 21  1  0  0  0  0
 18 19  1  0  0  0  0
 18 20  1  0  0  0  0
 16 17  1  0  0  0  0
 16 18  1  0  0  0  0
 15 16  2  0  0  0  0
 14 15  1  0  0  0  0
 14 20  2  0  0  0  0
 11 12  1  0  0  0  0
 11 13  1  0  0  0  0
 11 14  1  0  0  0  0
  9 10  1  0  0  0  0
  9 11  1  0  0  0  0
  9 22  1  0  0  0  0
  7  8  1  0  0  0  0
  7  9  1  0  0  0  0
 26 27  1  0  0  0  0
 26 28  1  0  0  0  0
 26 29  1  0  0  0  0
 24 25  1  0  0  0  0
 24 26  1  0  0  0  0
M  END
$$$$
default_name
  -OEChem-02102213163D

 29 29  0     1  0  0  0  0  0999 V2000
   -2.9561   -3.9186    1.3887 H   0  0  0  0  0  0  0  0  0  0  0  0
   -3.1191   -2.9346    0.9517 C   0  0  0  0  0  0  0  0  0  0  0  0
   -3.7811   -2.3546    1.5917 H   0  0  0  0  0  0  0  0  0  0  0  0
   -3.5591   -3.0406   -0.0383 H   0  0  0  0  0  0  0  0  0  0  0  0
   -1.7921   -2.2226    0.8327 C   0  0  0  0  0  0  0  0  0  0  0  0
   -0.7611   -2.7766    1.1927 O   0  0  0  0  0  0  0  0  0  0  0  0
   -1.8201   -0.9926    0.3247 N   0  0  0  0  0  0  0  0  0  0  0  0
   -2.7141   -0.5816    0.0927 H   0  0  0  0  0  0  0  0  0  0  0  0
   -0.6481   -0.1156    0.2017 C   0  0  1  0  0  0  0  0  0  0  0  0
    0.1344   -0.4988    0.8596 H   0  0  0  0  0  0  0  0  0  0  0  0
   -0.1211   -0.1520   -1.2460 C   0  0  0  0  0  0  0  0  0  0  0  0
    0.9110   -0.5056   -1.2544 H   0  0  0  0  0  0  0  0  0  0  0  0
   -0.7129   -0.8525   -1.8367 H   0  0  0  0  0  0  0  0  0  0  0  0
   -0.1364    1.2033   -1.9101 C   0  0  0  0  0  0  0  0  0  0  0  0
   -0.5856    1.4750   -3.2031 N   0  0  0  0  0  0  0  0  0  0  0  0
   -0.4665    2.8010   -3.3644 C   0  0  0  0  0  0  0  0  0  0  0  0
   -0.7229    3.3332   -4.2717 H   0  0  0  0  0  0  0  0  0  0  0  0
    0.0048    3.3698   -2.2421 N   0  0  0  0  0  0  0  0  0  0  0  0
    0.1627    4.3592   -2.1080 H   0  0  0  0  0  0  0  0  0  0  0  0
    0.2155    2.3773   -1.3109 C   0  0  0  0  0  0  0  0  0  0  0  0
    0.5689    2.4893   -0.2936 H   0  0  0  0  0  0  0  0  0  0  0  0
   -0.9851    1.3114    0.6698 C   0  0  0  0  0  0  0  0  0  0  0  0
   -2.0377    1.8431    0.3168 O   0  0  0  0  0  0  0  0  0  0  0  0
   -0.1052    1.9265    1.4663 N   0  0  0  0  0  0  0  0  0  0  0  0
    0.7810    1.4586    1.6201 H   0  0  0  0  0  0  0  0  0  0  0  0
   -0.2724    3.2715    2.0119 C   0  0  0  0  0  0  0  0  0  0  0  0
   -1.3249    3.4549    2.2426 H   0  0  0  0  0  0  0  0  0  0  0  0
    0.3167    3.3776    2.9239 H   0  0  0  0  0  0  0  0  0  0  0  0
    0.0609    4.0073    1.2782 H   0  0  0  0  0  0  0  0  0  0  0  0
  5  6  2  0  0  0  0
  5  7  1  0  0  0  0
  2  3  1  0  0  0  0
  2  4  1  0  0  0  0
  2  5  1  0  0  0  0
  1  2  1  0  0  0  0
 22 23  2  0  0  0  0
 22 24  1  0  0  0  0
 20 21  1  0  0  0  0
 18 19  1  0  0  0  0
 18 20  1  0  0  0  0
 16 17  1  0  0  0  0
 16 18  1  0  0  0  0
 15 16  2  0  0  0  0
 14 15  1  0  0  0  0
 14 20  2  0  0  0  0
 11 12  1  0  0  0  0
 11 13  1  0  0  0  0
 11 14  1  0  0  0  0
  9 10  1  0  0  0  0
  9 11  1  0  0  0  0
  9 22  1  0  0  0  0
  7  8  1  0  0  0  0
  7  9  1  0  0  0  0
 26 27  1  0  0  0  0
 26 28  1  0  0  0  0
 26 29  1  0  0  0  0
 24 25  1  0  0  0  0
 24 26  1  0  0  0  0
M  END
$$$$
default_name
  -OEChem-02102213163D

 29 29  0     1  0  0  0  0  0999 V2000
   -2.9561   -3.9186    1.3887 H   0  0  0  0  0  0  0  0  0  0  0  0
   -3.1191   -2.9346    0.9517 C   0  0  0  0  0  0  0  0  0  0  0  0
   -3.7811   -2.3546    1.5917 H   0  0  0  0  0  0  0  0  0  0  0  0
   -3.5591   -3.0406   -0.0383 H   0  0  0  0  0  0  0  0  0  0  0  0
   -1.7921   -2.2226    0.8327 C   0  0  0  0  0  0  0  0  0  0  0  0
   -0.7611   -2.7766    1.1927 O   0  0  0  0  0  0  0  0  0  0  0  0
   -1.8201   -0.9926    0.3247 N   0  0  0  0  0  0  0  0  0  0  0  0
   -2.7141   -0.5816    0.0927 H   0  0  0  0  0  0  0  0  0  0  0  0
   -0.6481   -0.1156    0.2017 C   0  0  1  0  0  0  0  0  0  0  0  0
    0.1344   -0.4988    0.8596 H   0  0  0  0  0  0  0  0  0  0  0  0
   -0.1211   -0.1520   -1.2460 C   0  0  0  0  0  0  0  0  0  0  0  0
    0.9110   -0.5056   -1.2544 H   0  0  0  0  0  0  0  0  0  0  0  0
   -0.7129   -0.8525   -1.8367 H   0  0  0  0  0  0  0  0  0  0  0  0
   -0.1364    1.2033   -1.9101 C   0  0  0  0  0  0  0  0  0  0  0  0
   -0.8401    1.5385   -3.0676 N   0  0  0  0  0  0  0  0  0  0  0  0
   -0.6120    2.8439   -3.2735 C   0  0  0  0  0  0  0  0  0  0  0  0
   -1.0102    3.4117   -4.1049 H   0  0  0  0  0  0  0  0  0  0  0  0
    0.1689    3.3430   -2.3006 N   0  0  0  0  0  0  0  0  0  0  0  0
    0.4649    4.3064   -2.2228 H   0  0  0  0  0  0  0  0  0  0  0  0
    0.4762    2.3229   -1.4280 C   0  0  0  0  0  0  0  0  0  0  0  0
    1.0668    2.3828   -0.5225 H   0  0  0  0  0  0  0  0  0  0  0  0
   -0.9851    1.3114    0.6698 C   0  0  0  0  0  0  0  0  0  0  0  0
   -2.0377    1.8431    0.3168 O   0  0  0  0  0  0  0  0  0  0  0  0
   -0.1052    1.9265    1.4663 N   0  0  0  0  0  0  0  0  0  0  0  0
    0.7810    1.4586    1.6201 H   0  0  0  0  0  0  0  0  0  0  0  0
   -0.2724    3.2715    2.0119 C   0  0  0  0  0  0  0  0  0  0  0  0
   -1.3249    3.4549    2.2426 H   0  0  0  0  0  0  0  0  0  0  0  0
    0.3167    3.3776    2.9239 H   0  0  0  0  0  0  0  0  0  0  0  0
    0.0609    4.0073    1.2782 H   0  0  0  0  0  0  0  0  0  0  0  0
  5  6  2  0  0  0  0
  5  7  1  0  0  0  0
  2  3  1  0  0  0  0
  2  4  1  0  0  0  0
  2  5  1  0  0  0  0
  1  2  1  0  0  0  0
 22 23  2  0  0  0  0
 22 24  1  0  0  0  0
 20 21  1  0  0  0  0
 18 19  1  0  0  0  0
 18 20  1  0  0  0  0
 16 17  1  0  0  0  0
 16 18  1  0  0  0  0
 15 16  2  0  0  0  0
 14 15  1  0  0  0  0
 14 20  2  0  0  0  0
 11 12  1  0  0  0  0
 11 13  1  0  0  0  0
 11 14  1  0  0  0  0
  9 10  1  0  0  0  0
  9 11  1  0  0  0  0
  9 22  1  0  0  0  0
  7  8  1  0  0  0  0
  7  9  1  0  0  0  0
 26 27  1  0  0  0  0
 26 28  1  0  0  0  0
 26 29  1  0  0  0  0
 24 25  1  0  0  0  0
 24 26  1  0  0  0  0
M  END
$$$$
default_name
  -OEChem-02102213163D

 29 29  0     1  0  0  0  0  0999 V2000
   -2.9561   -3.9186    1.3887 H   0  0  0  0  0  0  0  0  0  0  0  0
   -3.1191   -2.9346    0.9517 C   0  0  0  0  0  0  0  0  0  0  0  0
   -3.7811   -2.3546    1.5917 H   0  0  0  0  0  0  0  0  0  0  0  0
   -3.5591   -3.0406   -0.0383 H   0  0  0  0  0  0  0  0  0  0  0  0
   -1.7921   -2.2226    0.8327 C   0  0  0  0  0  0  0  0  0  0  0  0
   -0.7611   -2.7766    1.1927 O   0  0  0  0  0  0  0  0  0  0  0  0
   -1.8201   -0.9926    0.3247 N   0  0  0  0  0  0  0  0  0  0  0  0
   -2.7141   -0.5816    0.0927 H   0  0  0  0  0  0  0  0  0  0  0  0
   -0.6481   -0.1156    0.2017 C   0  0  1  0  0  0  0  0  0  0  0  0
    0.1344   -0.4988    0.8596 H   0  0  0  0  0  0  0  0  0  0  0  0
   -0.1211   -0.1520   -1.2460 C   0  0  0  0  0  0  0  0  0  0  0  0
    0.9110   -0.5056   -1.2544 H   0  0  0  0  0  0  0  0  0  0  0  0
   -0.7129   -0.8525   -1.8367 H   0  0  0  0  0  0  0  0  0  0  0  0
   -0.1364    1.2033   -1.9101 C   0  0  0  0  0  0  0  0  0  0  0  0
   -1.0472    1.6292   -2.8778 N   0  0  0  0  0  0  0  0  0  0  0  0
   -0.7265    2.9021   -3.1520 C   0  0  0  0  0  0  0  0  0  0  0  0
   -1.2400    3.5207   -3.8772 H   0  0  0  0  0  0  0  0  0  0  0  0
    0.3107    3.2982   -2.3952 N   0  0  0  0  0  0  0  0  0  0  0  0
    0.7242    4.2206   -2.4038 H   0  0  0  0  0  0  0  0  0  0  0  0
    0.6947    2.2403   -1.6015 C   0  0  0  0  0  0  0  0  0  0  0  0
    1.4825    2.2226   -0.8590 H   0  0  0  0  0  0  0  0  0  0  0  0
   -0.9851    1.3114    0.6698 C   0  0  0  0  0  0  0  0  0  0  0  0
   -2.0377    1.8431    0.3168 O   0  0  0  0  0  0  0  0  0  0  0  0
   -0.1052    1.9265    1.4663 N   0  0  0  0  0  0  0  0  0  0  0  0
    0.7810    1.4586    1.6201 H   0  0  0  0  0  0  0  0  0  0  0  0
   -0.2724    3.2715    2.0119 C   0  0  0  0  0  0  0  0  0  0  0  0
   -1.3249    3.4549    2.2426 H   0  0  0  0  0  0  0  0  0  0  0  0
    0.3167    3.3776    2.9239 H   0  0  0  0  0  0  0  0  0  0  0  0
    0.0609    4.0073    1.2782 H   0  0  0  0  0  0  0  0  0  0  0  0
  5  6  2  0  0  0  0
  5  7  1  0  0  0  0
  2  3  1  0  0  0  0
  2  4  1  0  0  0  0
  2  5  1  0  0  0  0
  1  2  1  0  0  0  0
 22 23  2  0  0  0  0
 22 24  1  0  0  0  0
 20 21  1  0  0  0  0
 18 19  1  0  0  0  0
 18 20  1  0  0  0  0
 16 17  1  0  0  0  0
 16 18  1  0  0  0  0
 15 16  2  0  0  0  0
 14 15  1  0  0  0  0
 14 20  2  0  0  0  0
 11 12  1  0  0  0  0
 11 13  1  0  0  0  0
 11 14  1  0  0  0  0
  9 10  1  0  0  0  0
  9 11  1  0  0  0  0
  9 22  1  0  0  0  0
  7  8  1  0  0  0  0
  7  9  1  0  0  0  0
 26 27  1  0  0  0  0
 26 28  1  0  0  0  0
 26 29  1  0  0  0  0
 24 25  1  0  0  0  0
 24 26  1  0  0  0  0
M  END
$$$$
default_name
  -OEChem-02102213163D

 29 29  0     1  0  0  0  0  0999 V2000
   -2.9561   -3.9186    1.3887 H   0  0  0  0  0  0  0  0  0  0  0  0
   -3.1191   -2.9346    0.9517 C   0  0  0  0  0  0  0  0  0  0  0  0
   -3.7811   -2.3546    1.5917 H   0  0  0  0  0  0  0  0  0  0  0  0
   -3.5591   -3.0406   -0.0383 H   0  0  0  0  0  0  0  0  0  0  0  0
   -1.7921   -2.2226    0.8327 C   0  0  0  0  0  0  0  0  0  0  0  0
   -0.7611   -2.7766    1.1927 O   0  0  0  0  0  0  0  0  0  0  0  0
   -1.8201   -0.9926    0.3247 N   0  0  0  0  0  0  0  0  0  0  0  0
   -2.7141   -0.5816    0.0927 H   0  0  0  0  0  0  0  0  0  0  0  0
   -0.6481   -0.1156    0.2017 C   0  0  1  0  0  0  0  0  0  0  0  0
    0.1344   -0.4988    0.8596 H   0  0  0  0  0  0  0  0  0  0  0  0
   -0.1211   -0.1520   -1.2460 C   0  0  0  0  0  0  0  0  0  0  0  0
    0.9110   -0.5056   -1.2544 H   0  0  0  0  0  0  0  0  0  0  0  0
   -0.7129   -0.8525   -1.8367 H   0  0  0  0  0  0  0  0  0  0  0  0
   -0.1364    1.2033   -1.9101 C   0  0  0  0  0  0  0  0  0  0  0  0
   -1.1928    1.7409   -2.6465 N   0  0  0  0  0  0  0  0  0  0  0  0
   -0.8022    2.9717   -3.0082 C   0  0  0  0  0  0  0  0  0  0  0  0
   -1.3966    3.6527   -3.6041 H   0  0  0  0  0  0  0  0  0  0  0  0
    0.4206    3.2386   -2.5194 N   0  0  0  0  0  0  0  0  0  0  0  0
    0.9228    4.1078   -2.6387 H   0  0  0  0  0  0  0  0  0  0  0  0
    0.8559    2.1352   -1.8197 C   0  0  0  0  0  0  0  0  0  0  0  0
    1.7876    2.0196   -1.2803 H   0  0  0  0  0  0  0  0  0  0  0  0
   -0.9851    1.3114    0.6698 C   0  0  0  0  0  0  0  0  0  0  0  0
   -2.0377    1.8431    0.3168 O   0  0  0  0  0  0  0  0  0  0  0  0
   -0.1052    1.9265    1.4663 N   0  0  0  0  0  0  0  0  0  0  0  0
    0.7810    1.4586    1.6201 H   0  0  0  0  0  0  0  0  0  0  0  0
   -0.2724    3.2715    2.0119 C   0  0  0  0  0  0  0  0  0  0  0  0
   -1.3249    3.4549    2.2426 H   0  0  0  0  0  0  0  0  0  0  0  0
    0.3167    3.3776    2.9239 H   0  0  0  0  0  0  0  0  0  0  0  0
    0.0609    4.0073    1.2782 H   0  0  0  0  0  0  0  0  0  0  0  0
  5  6  2  0  0  0  0
  5  7  1  0  0  0  0
  2  3  1  0  0  0  0
  2  4  1  0  0  0  0
  2  5  1  0  0  0  0
  1  2  1  0  0  0  0
 22 23  2  0  0  0  0
 22 24  1  0  0  0  0
 20 21  1  0  0  0  0
 18 19  1  0  0  0  0
 18 20  1  0  0  0  0
 16 17  1  0  0  0  0
 16 18  1  0  0  0  0
 15 16  2  0  0  0  0
 14 15  1  0  0  0  0
 14 20  2  0  0  0  0
 11 12  1  0  0  0  0
 11 13  1  0  0  0  0
 11 14  1  0  0  0  0
  9 10  1  0  0  0  0
  9 11  1  0  0  0  0
  9 22  1  0  0  0  0
  7  8  1  0  0  0  0
  7  9  1  0  0  0  0
 26 27  1  0  0  0  0
 26 28  1  0  0  0  0
 26 29  1  0  0  0  0
 24 25  1  0  0  0  0
 24 26  1  0  0  0  0
M  END
$$$$
default_name
  -OEChem-02102213163D

 29 29  0     1  0  0  0  0  0999 V2000
   -2.9561   -3.9186    1.3887 H   0  0  0  0  0  0  0  0  0  0  0  0
   -3.1191   -2.9346    0.9517 C   0  0  0  0  0  0  0  0  0  0  0  0
   -3.7811   -2.3546    1.5917 H   0  0  0  0  0  0  0  0  0  0  0  0
   -3.5591   -3.0406   -0.0383 H   0  0  0  0  0  0  0  0  0  0  0  0
   -1.7921   -2.2226    0.8327 C   0  0  0  0  0  0  0  0  0  0  0  0
   -0.7611   -2.7766    1.1927 O   0  0  0  0  0  0  0  0  0  0  0  0
   -1.8201   -0.9926    0.3247 N   0  0  0  0  0  0  0  0  0  0  0  0
   -2.7141   -0.5816    0.0927 H   0  0  0  0  0  0  0  0  0  0  0  0
   -0.6481   -0.1156    0.2017 C   0  0  1  0  0  0  0  0  0  0  0  0
    0.1344   -0.4988    0.8596 H   0  0  0  0  0  0  0  0  0  0  0  0
   -0.1211   -0.1520   -1.2460 C   0  0  0  0  0  0  0  0  0  0  0  0
    0.9110   -0.5056   -1.2544 H   0  0  0  0  0  0  0  0  0  0  0  0
   -0.7129   -0.8525   -1.8367 H   0  0  0  0  0  0  0  0  0  0  0  0
   -0.1364    1.2033   -1.9101 C   0  0  0  0  0  0  0  0  0  0  0  0
   -1.2670    1.8660   -2.3896 N   0  0  0  0  0  0  0  0  0  0  0  0
   -0.8340    3.0480   -2.8518 C   0  0  0  0  0  0  0  0  0  0  0  0
   -1.4694    3.7988   -3.3043 H   0  0  0  0  0  0  0  0  0  0  0  0
    0.4911    3.1681   -2.6648 N   0  0  0  0  0  0  0  0  0  0  0  0
    1.0471    3.9755   -2.9114 H   0  0  0  0  0  0  0  0  0  0  0  0
    0.9489    2.0147   -2.0677 C   0  0  0  0  0  0  0  0  0  0  0  0
    1.9612    1.7876   -1.7576 H   0  0  0  0  0  0  0  0  0  0  0  0
   -0.9851    1.3114    0.6698 C   0  0  0  0  0  0  0  0  0  0  0  0
   -2.0377    1.8431    0.3168 O   0  0  0  0  0  0  0  0  0  0  0  0
   -0.1052    1.9265    1.4663 N   0  0  0  0  0  0  0  0  0  0  0  0
    0.7810    1.4586    1.6201 H   0  0  0  0  0  0  0  0  0  0  0  0
   -0.2724    3.2715    2.0119 C   0  0  0  0  0  0  0  0  0  0  0  0
   -1.3249    3.4549    2.2426 H   0  0  0  0  0  0  0  0  0  0  0  0
    0.3167    3.3776    2.9239 H   0  0  0  0  0  0  0  0  0  0  0  0
    0.0609    4.0073    1.2782 H   0  0  0  0  0  0  0  0  0  0  0  0
  5  6  2  0  0  0  0
  5  7  1  0  0  0  0
  2  3  1  0  0  0  0
  2  4  1  0  0  0  0
  2  5  1  0  0  0  0
  1  2  1  0  0  0  0
 22 23  2  0  0  0  0
 22 24  1  0  0  0  0
 20 21  1  0  0  0  0
 18 19  1  0  0  0  0
 18 20  1  0  0  0  0
 16 17  1  0  0  0  0
 16 18  1  0  0  0  0
 15 16  2  0  0  0  0
 14 15  1  0  0  0  0
 14 20  2  0  0  0  0
 11 12  1  0  0  0  0
 11 13  1  0  0  0  0
 11 14  1  0  0  0  0
  9 10  1  0  0  0  0
  9 11  1  0  0  0  0
  9 22  1  0  0  0  0
  7  8  1  0  0  0  0
  7  9  1  0  0  0  0
 26 27  1  0  0  0  0
 26 28  1  0  0  0  0
 26 29  1  0  0  0  0
 24 25  1  0  0  0  0
 24 26  1  0  0  0  0
M  END
$$$$
default_name
  -OEChem-02102213163D

 29 29  0     1  0  0  0  0  0999 V2000
   -2.9561   -3.9186    1.3887 H   0  0  0  0  0  0  0  0  0  0  0  0
   -3.1191   -2.9346    0.9517 C   0  0  0  0  0  0  0  0  0  0  0  0
   -3.7811   -2.3546    1.5917 H   0  0  0  0  0  0  0  0  0  0  0  0
   -3.5591   -3.0406   -0.0383 H   0  0  0  0  0  0  0  0  0  0  0  0
   -1.7921   -2.2226    0.8327 C   0  0  0  0  0  0  0  0  0  0  0  0
   -0.7611   -2.7766    1.1927 O   0  0  0  0  0  0  0  0  0  0  0  0
   -1.8201   -0.9926    0.3247 N   0  0  0  0  0  0  0  0  0  0  0  0
   -2.7141   -0.5816    0.0927 H   0  0  0  0  0  0  0  0  0  0  0  0
   -0.6481   -0.1156    0.2017 C   0  0  1  0  0  0  0  0  0  0  0  0
    0.1344   -0.4988    0.8596 H   0  0  0  0  0  0  0  0  0  0  0  0
   -0.1211   -0.1520   -1.2460 C   0  0  0  0  0  0  0  0  0  0  0  0
    0.9110   -0.5056   -1.2544 H   0  0  0  0  0  0  0  0  0  0  0  0
   -0.7129   -0.8525   -1.8367 H   0  0  0  0  0  0  0  0  0  0  0  0
   -0.1364    1.2033   -1.9101 C   0  0  0  0  0  0  0  0  0  0  0  0
   -1.2647    1.9959   -2.1245 N   0  0  0  0  0  0  0  0  0  0  0  0
   -0.8197    3.1257   -2.6936 C   0  0  0  0  0  0  0  0  0  0  0  0
   -1.4534    3.9490   -2.9982 H   0  0  0  0  0  0  0  0  0  0  0  0
    0.5174    3.0917   -2.8214 N   0  0  0  0  0  0  0  0  0  0  0  0
    1.0888    3.8329   -3.2034 H   0  0  0  0  0  0  0  0  0  0  0  0
    0.9675    1.8871   -2.3285 C   0  0  0  0  0  0  0  0  0  0  0  0
    1.9916    1.5426   -2.2583 H   0  0  0  0  0  0  0  0  0  0  0  0
   -0.9851    1.3114    0.6698 C   0  0  0  0  0  0  0  0  0  0  0  0
   -2.0377    1.8431    0.3168 O   0  0  0  0  0  0  0  0  0  0  0  0
   -0.1052    1.9265    1.4663 N   0  0  0  0  0  0  0  0  0  0  0  0
    0.7810    1.4586    1.6201 H   0  0  0  0  0  0  0  0  0  0  0  0
   -0.2724    3.2715    2.0119 C   0  0  0  0  0  0  0  0  0  0  0  0
   -1.3249    3.4549    2.2426 H   0  0  0  0  0  0  0  0  0  0  0  0
    0.3167    3.3776    2.9239 H   0  0  0  0  0  0  0  0  0  0  0  0
    0.0609    4.0073    1.2782 H   0  0  0  0  0  0  0  0  0  0  0  0
  5  6  2  0  0  0  0
  5  7  1  0  0  0  0
  2  3  1  0  0  0  0
  2  4  1  0  0  0  0
  2  5  1  0  0  0  0
  1  2  1  0  0  0  0
 22 23  2  0  0  0  0
 22 24  1  0  0  0  0
 20 21  1  0  0  0  0
 18 19  1  0  0  0  0
 18 20  1  0  0  0  0
 16 17  1  0  0  0  0
 16 18  1  0  0  0  0
 15 16  2  0  0  0  0
 14 15  1  0  0  0  0
 14 20  2  0  0  0  0
 11 12  1  0  0  0  0
 11 13  1  0  0  0  0
 11 14  1  0  0  0  0
  9 10  1  0  0  0  0
  9 11  1  0  0  0  0
  9 22  1  0  0  0  0
  7  8  1  0  0  0  0
  7  9  1  0  0  0  0
 26 27  1  0  0  0  0
 26 28  1  0  0  0  0
 26 29  1  0  0  0  0
 24 25  1  0  0  0  0
 24 26  1  0  0  0  0
M  END
$$$$
default_name
  -OEChem-02102213163D

 29 29  0     1  0  0  0  0  0999 V2000
   -2.9561   -3.9186    1.3887 H   0  0  0  0  0  0  0  0  0  0  0  0
   -3.1191   -2.9346    0.9517 C   0  0  0  0  0  0  0  0  0  0  0  0
   -3.7811   -2.3546    1.5917 H   0  0  0  0  0  0  0  0  0  0  0  0
   -3.5591   -3.0406   -0.0383 H   0  0  0  0  0  0  0  0  0  0  0  0
   -1.7921   -2.2226    0.8327 C   0  0  0  0  0  0  0  0  0  0  0  0
   -0.7611   -2.7766    1.1927 O   0  0  0  0  0  0  0  0  0  0  0  0
   -1.8201   -0.9926    0.3247 N   0  0  0  0  0  0  0  0  0  0  0  0
   -2.7141   -0.5816    0.0927 H   0  0  0  0  0  0  0  0  0  0  0  0
   -0.6481   -0.1156    0.2017 C   0  0  1  0  0  0  0  0  0  0  0  0
    0.1344   -0.4988    0.8596 H   0  0  0  0  0  0  0  0  0  0  0  0
   -0.1211   -0.1520   -1.2460 C   0  0  0  0  0  0  0  0  0  0  0  0
    0.9110   -0.5056   -1.2544 H   0  0  0  0  0  0  0  0  0  0  0  0
   -0.7129   -0.8525   -1.8367 H   0  0  0  0  0  0  0  0  0  0  0  0
   -0.1364    1.2033   -1.9101 C   0  0  0  0  0  0  0  0  0  0  0  0
   -1.1861    2.1219   -1.8693 N   0  0  0  0  0  0  0  0  0  0  0  0
   -0.7603    3.1995   -2.5443 C   0  0  0  0  0  0  0  0  0  0  0  0
   -1.3497    4.0931   -2.7066 H   0  0  0  0  0  0  0  0  0  0  0  0
    0.4977    3.0144   -2.9786 N   0  0  0  0  0  0  0  0  0  0  0  0
    1.0450    3.6896   -3.4947 H   0  0  0  0  0  0  0  0  0  0  0  0
    0.9103    1.7611   -2.5843 C   0  0  0  0  0  0  0  0  0  0  0  0
    1.8766    1.3011   -2.7484 H   0  0  0  0  0  0  0  0  0  0  0  0
   -0.9851    1.3114    0.6698 C   0  0  0  0  0  0  0  0  0  0  0  0
   -2.0377    1.8431    0.3168 O   0  0  0  0  0  0  0  0  0  0  0  0
   -0.1052    1.9265    1.4663 N   0  0  0  0  0  0  0  0  0  0  0  0
    0.7810    1.4586    1.6201 H   0  0  0  0  0  0  0  0  0  0  0  0
   -0.2724    3.2715    2.0119 C   0  0  0  0  0  0  0  0  0  0  0  0
   -1.3249    3.4549    2.2426 H   0  0  0  0  0  0  0  0  0  0  0  0
    0.3167    3.3776    2.9239 H   0  0  0  0  0  0  0  0  0  0  0  0
    0.0609    4.0073    1.2782 H   0  0  0  0  0  0  0  0  0  0  0  0
  5  6  2  0  0  0  0
  5  7  1  0  0  0  0
  2  3  1  0  0  0  0
  2  4  1  0  0  0  0
  2  5  1  0  0  0  0
  1  2  1  0  0  0  0
 22 23  2  0  0  0  0
 22 24  1  0  0  0  0
 20 21  1  0  0  0  0
 18 19  1  0  0  0  0
 18 20  1  0  0  0  0
 16 17  1  0  0  0  0
 16 18  1  0  0  0  0
 15 16  2  0  0  0  0
 14 15  1  0  0  0  0
 14 20  2  0  0  0  0
 11 12  1  0  0  0  0
 11 13  1  0  0  0  0
 11 14  1  0  0  0  0
  9 10  1  0  0  0  0
  9 11  1  0  0  0  0
  9 22  1  0  0  0  0
  7  8  1  0  0  0  0
  7  9  1  0  0  0  0
 26 27  1  0  0  0  0
 26 28  1  0  0  0  0
 26 29  1  0  0  0  0
 24 25  1  0  0  0  0
 24 26  1  0  0  0  0
M  END
$$$$
default_name
  -OEChem-02102213163D

 29 29  0     1  0  0  0  0  0999 V2000
   -2.9561   -3.9186    1.3887 H   0  0  0  0  0  0  0  0  0  0  0  0
   -3.1191   -2.9346    0.9517 C   0  0  0  0  0  0  0  0  0  0  0  0
   -3.7811   -2.3546    1.5917 H   0  0  0  0  0  0  0  0  0  0  0  0
   -3.5591   -3.0406   -0.0383 H   0  0  0  0  0  0  0  0  0  0  0  0
   -1.7921   -2.2226    0.8327 C   0  0  0  0  0  0  0  0  0  0  0  0
   -0.7611   -2.7766    1.1927 O   0  0  0  0  0  0  0  0  0  0  0  0
   -1.8201   -0.9926    0.3247 N   0  0  0  0  0  0  0  0  0  0  0  0
   -2.7141   -0.5816    0.0927 H   0  0  0  0  0  0  0  0  0  0  0  0
   -0.6481   -0.1156    0.2017 C   0  0  1  0  0  0  0  0  0  0  0  0
    0.1344   -0.4988    0.8596 H   0  0  0  0  0  0  0  0  0  0  0  0
   -0.1211   -0.1520   -1.2460 C   0  0  0  0  0  0  0  0  0  0  0  0
    0.9110   -0.5056   -1.2544 H   0  0  0  0  0  0  0  0  0  0  0  0
   -0.7129   -0.8525   -1.8367 H   0  0  0  0  0  0  0  0  0  0  0  0
   -0.1364    1.2033   -1.9101 C   0  0  0  0  0  0  0  0  0  0  0  0
   -1.0365    2.2353   -1.6414 N   0  0  0  0  0  0  0  0  0  0  0  0
   -0.6598    3.2645   -2.4141 C   0  0  0  0  0  0  0  0  0  0  0  0
   -1.1654    4.2212   -2.4494 H   0  0  0  0  0  0  0  0  0  0  0  0
    0.4333    2.9416   -3.1257 N   0  0  0  0  0  0  0  0  0  0  0  0
    0.9187    3.5555   -3.7656 H   0  0  0  0  0  0  0  0  0  0  0  0
    0.7812    1.6452   -2.8179 C   0  0  0  0  0  0  0  0  0  0  0  0
    1.6242    1.0796   -3.1945 H   0  0  0  0  0  0  0  0  0  0  0  0
   -0.9851    1.3114    0.6698 C   0  0  0  0  0  0  0  0  0  0  0  0
   -2.0377    1.8431    0.3168 O   0  0  0  0  0  0  0  0  0  0  0  0
   -0.1052    1.9265    1.4663 N   0  0  0  0  0  0  0  0  0  0  0  0
    0.7810    1.4586    1.6201 H   0  0  0  0  0  0  0  0  0  0  0  0
   -0.2724    3.2715    2.0119 C   0  0  0  0  0  0  0  0  0  0  0  0
   -1.3249    3.4549    2.2426 H   0  0  0  0  0  0  0  0  0  0  0  0
    0.3167    3.3776    2.9239 H   0  0  0  0  0  0  0  0  0  0  0  0
    0.0609    4.0073    1.2782 H   0  0  0  0  0  0  0  0  0  0  0  0
  5  6  2  0  0  0  0
  5  7  1  0  0  0  0
  2  3  1  0  0  0  0
  2  4  1  0  0  0  0
  2  5  1  0  0  0  0
  1  2  1  0  0  0  0
 22 23  2  0  0  0  0
 22 24  1  0  0  0  0
 20 21  1  0  0  0  0
 18 19  1  0  0  0  0
 18 20  1  0  0  0  0
 16 17  1  0  0  0  0
 16 18  1  0  0  0  0
 15 16  2  0  0  0  0
 14 15  1  0  0  0  0
 14 20  2  0  0  0  0
 11 12  1  0  0  0  0
 11 13  1  0  0  0  0
 11 14  1  0  0  0  0
  9 10  1  0  0  0  0
  9 11  1  0  0  0  0
  9 22  1  0  0  0  0
  7  8  1  0  0  0  0
  7  9  1  0  0  0  0
 26 27  1  0  0  0  0
 26 28  1  0  0  0  0
 26 29  1  0  0  0  0
 24 25  1  0  0  0  0
 24 26  1  0  0  0  0
M  END
$$$$
default_name
  -OEChem-02102213163D

 29 29  0     1  0  0  0  0  0999 V2000
   -2.9561   -3.9186    1.3887 H   0  0  0  0  0  0  0  0  0  0  0  0
   -3.1191   -2.9346    0.9517 C   0  0  0  0  0  0  0  0  0  0  0  0
   -3.7811   -2.3546    1.5917 H   0  0  0  0  0  0  0  0  0  0  0  0
   -3.5591   -3.0406   -0.0383 H   0  0  0  0  0  0  0  0  0  0  0  0
   -1.7921   -2.2226    0.8327 C   0  0  0  0  0  0  0  0  0  0  0  0
   -0.7611   -2.7766    1.1927 O   0  0  0  0  0  0  0  0  0  0  0  0
   -1.8201   -0.9926    0.3247 N   0  0  0  0  0  0  0  0  0  0  0  0
   -2.7141   -0.5816    0.0927 H   0  0  0  0  0  0  0  0  0  0  0  0
   -0.6481   -0.1156    0.2017 C   0  0  1  0  0  0  0  0  0  0  0  0
    0.1344   -0.4988    0.8596 H   0  0  0  0  0  0  0  0  0  0  0  0
   -0.1211   -0.1520   -1.2460 C   0  0  0  0  0  0  0  0  0  0  0  0
    0.9110   -0.5056   -1.2544 H   0  0  0  0  0  0  0  0  0  0  0  0
   -0.7129   -0.8525   -1.8367 H   0  0  0  0  0  0  0  0  0  0  0  0
   -0.1364    1.2033   -1.9101 C   0  0  0  0  0  0  0  0  0  0  0  0
   -0.8262    2.3283   -1.4564 N   0  0  0  0  0  0  0  0  0  0  0  0
   -0.5250    3.3161   -2.3119 C   0  0  0  0  0  0  0  0  0  0  0  0
   -0.9129    4.3247   -2.2442 H   0  0  0  0  0  0  0  0  0  0  0  0
    0.3287    2.8783   -3.2526 N   0  0  0  0  0  0  0  0  0  0  0  0
    0.7184    3.4396   -3.9975 H   0  0  0  0  0  0  0  0  0  0  0  0
    0.5890    1.5473   -3.0132 C   0  0  0  0  0  0  0  0  0  0  0  0
    1.2515    0.8933   -3.5661 H   0  0  0  0  0  0  0  0  0  0  0  0
   -0.9851    1.3114    0.6698 C   0  0  0  0  0  0  0  0  0  0  0  0
   -2.0377    1.8431    0.3168 O   0  0  0  0  0  0  0  0  0  0  0  0
   -0.1052    1.9265    1.4663 N   0  0  0  0  0  0  0  0  0  0  0  0
    0.7810    1.4586    1.6201 H   0  0  0  0  0  0  0  0  0  0  0  0
   -0.2724    3.2715    2.0119 C   0  0  0  0  0  0  0  0  0  0  0  0
   -1.3249    3.4549    2.2426 H   0  0  0  0  0  0  0  0  0  0  0  0
    0.3167    3.3776    2.9239 H   0  0  0  0  0  0  0  0  0  0  0  0
    0.0609    4.0073    1.2782 H   0  0  0  0  0  0  0  0  0  0  0  0
  5  6  2  0  0  0  0
  5  7  1  0  0  0  0
  2  3  1  0  0  0  0
  2  4  1  0  0  0  0
  2  5  1  0  0  0  0
  1  2  1  0  0  0  0
 22 23  2  0  0  0  0
 22 24  1  0  0  0  0
 20 21  1  0  0  0  0
 18 19  1  0  0  0  0
 18 20  1  0  0  0  0
 16 17  1  0  0  0  0
 16 18  1  0  0  0  0
 15 16  2  0  0  0  0
 14 15  1  0  0  0  0
 14 20  2  0  0  0  0
 11 12  1  0  0  0  0
 11 13  1  0  0  0  0
 11 14  1  0  0  0  0
  9 10  1  0  0  0  0
  9 11  1  0  0  0  0
  9 22  1  0  0  0  0
  7  8  1  0  0  0  0
  7  9  1  0  0  0  0
 26 27  1  0  0  0  0
 26 28  1  0  0  0  0
 26 29  1  0  0  0  0
 24 25  1  0  0  0  0
 24 26  1  0  0  0  0
M  END
$$$$
default_name
  -OEChem-02102213163D

 29 29  0     1  0  0  0  0  0999 V2000
   -2.9561   -3.9186    1.3887 H   0  0  0  0  0  0  0  0  0  0  0  0
   -3.1191   -2.9346    0.9517 C   0  0  0  0  0  0  0  0  0  0  0  0
   -3.7811   -2.3546    1.5917 H   0  0  0  0  0  0  0  0  0  0  0  0
   -3.5591   -3.0406   -0.0383 H   0  0  0  0  0  0  0  0  0  0  0  0
   -1.7921   -2.2226    0.8327 C   0  0  0  0  0  0  0  0  0  0  0  0
   -0.7611   -2.7766    1.1927 O   0  0  0  0  0  0  0  0  0  0  0  0
   -1.8201   -0.9926    0.3247 N   0  0  0  0  0  0  0  0  0  0  0  0
   -2.7141   -0.5816    0.0927 H   0  0  0  0  0  0  0  0  0  0  0  0
   -0.6481   -0.1156    0.2017 C   0  0  1  0  0  0  0  0  0  0  0  0
    0.1344   -0.4988    0.8596 H   0  0  0  0  0  0  0  0  0  0  0  0
   -0.1211   -0.1520   -1.2460 C   0  0  0  0  0  0  0  0  0  0  0  0
    0.9110   -0.5056   -1.2544 H   0  0  0  0  0  0  0  0  0  0  0  0
   -0.7129   -0.8525   -1.8367 H   0  0  0  0  0  0  0  0  0  0  0  0
   -0.1364    1.2033   -1.9101 C   0  0  0  0  0  0  0  0  0  0  0  0
   -0.5694    2.3948   -1.3267 N   0  0  0  0  0  0  0  0  0  0  0  0
   -0.3652    3.3509   -2.2446 C   0  0  0  0  0  0  0  0  0  0  0  0
   -0.6096    4.3964   -2.1049 H   0  0  0  0  0  0  0  0  0  0  0  0
    0.1909    2.8286   -3.3506 N   0  0  0  0  0  0  0  0  0  0  0  0
    0.4579    3.3498   -4.1746 H   0  0  0  0  0  0  0  0  0  0  0  0
    0.3469    1.4741   -3.1569 C   0  0  0  0  0  0  0  0  0  0  0  0
    0.7839    0.7548   -3.8380 H   0  0  0  0  0  0  0  0  0  0  0  0
   -0.9851    1.3114    0.6698 C   0  0  0  0  0  0  0  0  0  0  0  0
   -2.0377    1.8431    0.3168 O   0  0  0  0  0  0  0  0  0  0  0  0
   -0.1052    1.9265    1.4663 N   0  0  0  0  0  0  0  0  0  0  0  0
    0.7810    1.4586    1.6201 H   0  0  0  0  0  0  0  0  0  0  0  0
   -0.2724    3.2715    2.0119 C   0  0  0  0  0  0  0  0  0  0  0  0
   -1.3249    3.4549    2.2426 H   0  0  0  0  0  0  0  0  0  0  0  0
    0.3167    3.3776    2.9239 H   0  0  0  0  0  0  0  0  0  0  0  0
    0.0609    4.0073    1.2782 H   0  0  0  0  0  0  0  0  0  0  0  0
  5  6  2  0  0  0  0
  5  7  1  0  0  0  0
  2  3  1  0  0  0  0
  2  4  1  0  0  0  0
  2  5  1  0  0  0  0
  1  2  1  0  0  0  0
 22 23  2  0  0  0  0
 22 24  1  0  0  0  0
 20 21  1  0  0  0  0
 18 19  1  0  0  0  0
 18 20  1  0  0  0  0
 16 17  1  0  0  0  0
 16 18  1  0  0  0  0
 15 16  2  0  0  0  0
 14 15  1  0  0  0  0
 14 20  2  0  0  0  0
 11 12  1  0  0  0  0
 11 13  1  0  0  0  0
 11 14  1  0  0  0  0
  9 10  1  0  0  0  0
  9 11  1  0  0  0  0
  9 22  1  0  0  0  0
  7  8  1  0  0  0  0
  7  9  1  0  0  0  0
 26 27  1  0  0  0  0
 26 28  1  0  0  0  0
 26 29  1  0  0  0  0
 24 25  1  0  0  0  0
 24 26  1  0  0  0  0
M  END
$$$$
default_name
  -OEChem-02102213163D

 29 29  0     1  0  0  0  0  0999 V2000
   -2.9561   -3.9186    1.3887 H   0  0  0  0  0  0  0  0  0  0  0  0
   -3.1191   -2.9346    0.9517 C   0  0  0  0  0  0  0  0  0  0  0  0
   -3.7811   -2.3546    1.5917 H   0  0  0  0  0  0  0  0  0  0  0  0
   -3.5591   -3.0406   -0.0383 H   0  0  0  0  0  0  0  0  0  0  0  0
   -1.7921   -2.2226    0.8327 C   0  0  0  0  0  0  0  0  0  0  0  0
   -0.7611   -2.7766    1.1927 O   0  0  0  0  0  0  0  0  0  0  0  0
   -1.8201   -0.9926    0.3247 N   0  0  0  0  0  0  0  0  0  0  0  0
   -2.7141   -0.5816    0.0927 H   0  0  0  0  0  0  0  0  0  0  0  0
   -0.6481   -0.1156    0.2017 C   0  0  1  0  0  0  0  0  0  0  0  0
    0.1344   -0.4988    0.8596 H   0  0  0  0  0  0  0  0  0  0  0  0
   -0.1211   -0.1520   -1.2460 C   0  0  0  0  0  0  0  0  0  0  0  0
    0.9110   -0.5056   -1.2544 H   0  0  0  0  0  0  0  0  0  0  0  0
   -0.7129   -0.8525   -1.8367 H   0  0  0  0  0  0  0  0  0  0  0  0
   -0.1364    1.2033   -1.9101 C   0  0  0  0  0  0  0  0  0  0  0  0
   -0.2836    2.4300   -1.2614 N   0  0  0  0  0  0  0  0  0  0  0  0
   -0.1913    3.3665   -2.2168 C   0  0  0  0  0  0  0  0  0  0  0  0
   -0.2761    4.4314   -2.0410 H   0  0  0  0  0  0  0  0  0  0  0  0
    0.0294    2.7962   -3.4132 N   0  0  0  0  0  0  0  0  0  0  0  0
    0.1548    3.2923   -4.2850 H   0  0  0  0  0  0  0  0  0  0  0  0
    0.0712    1.4307   -3.2392 C   0  0  0  0  0  0  0  0  0  0  0  0
    0.2533    0.6735   -3.9915 H   0  0  0  0  0  0  0  0  0  0  0  0
   -0.9851    1.3114    0.6698 C   0  0  0  0  0  0  0  0  0  0  0  0
   -2.0377    1.8431    0.3168 O   0  0  0  0  0  0  0  0  0  0  0  0
   -0.1052    1.9265    1.4663 N   0  0  0  0  0  0  0  0  0  0  0  0
    0.7810    1.4586    1.6201 H   0  0  0  0  0  0  0  0  0  0  0  0
   -0.2724    3.2715    2.0119 C   0  0  0  0  0  0  0  0  0  0  0  0
   -1.3249    3.4549    2.2426 H   0  0  0  0  0  0  0  0  0  0  0  0
    0.3167    3.3776    2.9239 H   0  0  0  0  0  0  0  0  0  0  0  0
    0.0609    4.0073    1.2782 H   0  0  0  0  0  0  0  0  0  0  0  0
  5  6  2  0  0  0  0
  5  7  1  0  0  0  0
  2  3  1  0  0  0  0
  2  4  1  0  0  0  0
  2  5  1  0  0  0  0
  1  2  1  0  0  0  0
 22 23  2  0  0  0  0
 22 24  1  0  0  0  0
 20 21  1  0  0  0  0
 18 19  1  0  0  0  0
 18 20  1  0  0  0  0
 16 17  1  0  0  0  0
 16 18  1  0  0  0  0
 15 16  2  0  0  0  0
 14 15  1  0  0  0  0
 14 20  2  0  0  0  0
 11 12  1  0  0  0  0
 11 13  1  0  0  0  0
 11 14  1  0  0  0  0
  9 10  1  0  0  0  0
  9 11  1  0  0  0  0
  9 22  1  0  0  0  0
  7  8  1  0  0  0  0
  7  9  1  0  0  0  0
 26 27  1  0  0  0  0
 26 28  1  0  0  0  0
 26 29  1  0  0  0  0
 24 25  1  0  0  0  0
 24 26  1  0  0  0  0
M  END
$$$$
default_name
  -OEChem-02102213163D

 29 29  0     1  0  0  0  0  0999 V2000
   -2.9561   -3.9186    1.3887 H   0  0  0  0  0  0  0  0  0  0  0  0
   -3.1191   -2.9346    0.9517 C   0  0  0  0  0  0  0  0  0  0  0  0
   -3.7811   -2.3546    1.5917 H   0  0  0  0  0  0  0  0  0  0  0  0
   -3.5591   -3.0406   -0.0383 H   0  0  0  0  0  0  0  0  0  0  0  0
   -1.7921   -2.2226    0.8327 C   0  0  0  0  0  0  0  0  0  0  0  0
   -0.7611   -2.7766    1.1927 O   0  0  0  0  0  0  0  0  0  0  0  0
   -1.8201   -0.9926    0.3247 N   0  0  0  0  0  0  0  0  0  0  0  0
   -2.7141   -0.5816    0.0927 H   0  0  0  0  0  0  0  0  0  0  0  0
   -0.6481   -0.1156    0.2017 C   0  0  1  0  0  0  0  0  0  0  0  0
    0.1344   -0.4988    0.8596 H   0  0  0  0  0  0  0  0  0  0  0  0
   -0.1211   -0.1520   -1.2460 C   0  0  0  0  0  0  0  0  0  0  0  0
    0.9110   -0.5056   -1.2544 H   0  0  0  0  0  0  0  0  0  0  0  0
   -0.7129   -0.8525   -1.8367 H   0  0  0  0  0  0  0  0  0  0  0  0
   -0.1364    1.2033   -1.9101 C   0  0  0  0  0  0  0  0  0  0  0  0
    0.0116    2.4317   -1.2648 N   0  0  0  0  0  0  0  0  0  0  0  0
   -0.0151    3.3618   -2.2305 C   0  0  0  0  0  0  0  0  0  0  0  0
    0.0648    4.4275   -2.0569 H   0  0  0  0  0  0  0  0  0  0  0  0
   -0.1449    2.7830   -3.4361 N   0  0  0  0  0  0  0  0  0  0  0  0
   -0.1701    3.2710   -4.3210 H   0  0  0  0  0  0  0  0  0  0  0  0
   -0.2191    1.4199   -3.2546 C   0  0  0  0  0  0  0  0  0  0  0  0
   -0.3042    0.6551   -4.0163 H   0  0  0  0  0  0  0  0  0  0  0  0
   -0.9851    1.3114    0.6698 C   0  0  0  0  0  0  0  0  0  0  0  0
   -2.0377    1.8431    0.3168 O   0  0  0  0  0  0  0  0  0  0  0  0
   -0.1052    1.9265    1.4663 N   0  0  0  0  0  0  0  0  0  0  0  0
    0.7810    1.4586    1.6201 H   0  0  0  0  0  0  0  0  0  0  0  0
   -0.2724    3.2715    2.0119 C   0  0  0  0  0  0  0  0  0  0  0  0
   -1.3249    3.4549    2.2426 H   0  0  0  0  0  0  0  0  0  0  0  0
    0.3167    3.3776    2.9239 H   0  0  0  0  0  0  0  0  0  0  0  0
    0.0609    4.0073    1.2782 H   0  0  0  0  0  0  0  0  0  0  0  0
  5  6  2  0  0  0  0
  5  7  1  0  0  0  0
  2  3  1  0  0  0  0
  2  4  1  0  0  0  0
  2  5  1  0  0  0  0
  1  2  1  0  0  0  0
 22 23  2  0  0  0  0
 22 24  1  0  0  0  0
 20 21  1  0  0  0  0
 18 19  1  0  0  0  0
 18 20  1  0  0  0  0
 16 17  1  0  0  0  0
 16 18  1  0  0  0  0
 15 16  2  0  0  0  0
 14 15  1  0  0  0  0
 14 20  2  0  0  0  0
 11 12  1  0  0  0  0
 11 13  1  0  0  0  0
 11 14  1  0  0  0  0
  9 10  1  0  0  0  0
  9 11  1  0  0  0  0
  9 22  1  0  0  0  0
  7  8  1  0  0  0  0
  7  9  1  0  0  0  0
 26 27  1  0  0  0  0
 26 28  1  0  0  0  0
 26 29  1  0  0  0  0
 24 25  1  0  0  0  0
 24 26  1  0  0  0  0
M  END
$$$$
default_name
  -OEChem-02102213163D

 29 29  0     1  0  0  0  0  0999 V2000
   -2.9561   -3.9186    1.3887 H   0  0  0  0  0  0  0  0  0  0  0  0
   -3.1191   -2.9346    0.9517 C   0  0  0  0  0  0  0  0  0  0  0  0
   -3.7811   -2.3546    1.5917 H   0  0  0  0  0  0  0  0  0  0  0  0
   -3.5591   -3.0406   -0.0383 H   0  0  0  0  0  0  0  0  0  0  0  0
   -1.7921   -2.2226    0.8327 C   0  0  0  0  0  0  0  0  0  0  0  0
   -0.7611   -2.7766    1.1927 O   0  0  0  0  0  0  0  0  0  0  0  0
   -1.8201   -0.9926    0.3247 N   0  0  0  0  0  0  0  0  0  0  0  0
   -2.7141   -0.5816    0.0927 H   0  0  0  0  0  0  0  0  0  0  0  0
   -0.6481   -0.1156    0.2017 C   0  0  1  0  0  0  0  0  0  0  0  0
    0.1344   -0.4988    0.8596 H   0  0  0  0  0  0  0  0  0  0  0  0
   -0.1211   -0.1520   -1.2460 C   0  0  0  0  0  0  0  0  0  0  0  0
    0.9110   -0.5056   -1.2544 H   0  0  0  0  0  0  0  0  0  0  0  0
   -0.7129   -0.8525   -1.8367 H   0  0  0  0  0  0  0  0  0  0  0  0
   -0.1364    1.2033   -1.9101 C   0  0  0  0  0  0  0  0  0  0  0  0
    0.2962    2.3997   -1.3366 N   0  0  0  0  0  0  0  0  0  0  0  0
    0.1515    3.3371   -2.2846 C   0  0  0  0  0  0  0  0  0  0  0  0
    0.3901    4.3848   -2.1515 H   0  0  0  0  0  0  0  0  0  0  0  0
   -0.3200    2.7901   -3.4176 N   0  0  0  0  0  0  0  0  0  0  0  0
   -0.4947    3.2873   -4.2802 H   0  0  0  0  0  0  0  0  0  0  0  0
   -0.5043    1.4424   -3.2019 C   0  0  0  0  0  0  0  0  0  0  0  0
   -0.8505    0.7007   -3.9106 H   0  0  0  0  0  0  0  0  0  0  0  0
   -0.9851    1.3114    0.6698 C   0  0  0  0  0  0  0  0  0  0  0  0
   -2.0377    1.8431    0.3168 O   0  0  0  0  0  0  0  0  0  0  0  0
   -0.1052    1.9265    1.4663 N   0  0  0  0  0  0  0  0  0  0  0  0
    0.7810    1.4586    1.6201 H   0  0  0  0  0  0  0  0  0  0  0  0
   -0.2724    3.2715    2.0119 C   0  0  0  0  0  0  0  0  0  0  0  0
   -1.3249    3.4549    2.2426 H   0  0  0  0  0  0  0  0  0  0  0  0
    0.3167    3.3776    2.9239 H   0  0  0  0  0  0  0  0  0  0  0  0
    0.0609    4.0073    1.2782 H   0  0  0  0  0  0  0  0  0  0  0  0
  5  6  2  0  0  0  0
  5  7  1  0  0  0  0
  2  3  1  0  0  0  0
  2  4  1  0  0  0  0
  2  5  1  0  0  0  0
  1  2  1  0  0  0  0
 22 23  2  0  0  0  0
 22 24  1  0  0  0  0
 20 21  1  0  0  0  0
 18 19  1  0  0  0  0
 18 20  1  0  0  0  0
 16 17  1  0  0  0  0
 16 18  1  0  0  0  0
 15 16  2  0  0  0  0
 14 15  1  0  0  0  0
 14 20  2  0  0  0  0
 11 12  1  0  0  0  0
 11 13  1  0  0  0  0
 11 14  1  0  0  0  0
  9 10  1  0  0  0  0
  9 11  1  0  0  0  0
  9 22  1  0  0  0  0
  7  8  1  0  0  0  0
  7  9  1  0  0  0  0
 26 27  1  0  0  0  0
 26 28  1  0  0  0  0
 26 29  1  0  0  0  0
 24 25  1  0  0  0  0
 24 26  1  0  0  0  0
M  END
$$$$
default_name
  -OEChem-02102213163D

 29 29  0     1  0  0  0  0  0999 V2000
   -2.9561   -3.9186    1.3887 H   0  0  0  0  0  0  0  0  0  0  0  0
   -3.1191   -2.9346    0.9517 C   0  0  0  0  0  0  0  0  0  0  0  0
   -3.7811   -2.3546    1.5917 H   0  0  0  0  0  0  0  0  0  0  0  0
   -3.5591   -3.0406   -0.0383 H   0  0  0  0  0  0  0  0  0  0  0  0
   -1.7921   -2.2226    0.8327 C   0  0  0  0  0  0  0  0  0  0  0  0
   -0.7611   -2.7766    1.1927 O   0  0  0  0  0  0  0  0  0  0  0  0
   -1.8201   -0.9926    0.3247 N   0  0  0  0  0  0  0  0  0  0  0  0
   -2.7141   -0.5816    0.0927 H   0  0  0  0  0  0  0  0  0  0  0  0
   -0.6481   -0.1156    0.2017 C   0  0  1  0  0  0  0  0  0  0  0  0
    0.1344   -0.4988    0.8596 H   0  0  0  0  0  0  0  0  0  0  0  0
   -0.1211   -0.1520   -1.2460 C   0  0  0  0  0  0  0  0  0  0  0  0
    0.9110   -0.5056   -1.2544 H   0  0  0  0  0  0  0  0  0  0  0  0
   -0.7129   -0.8525   -1.8367 H   0  0  0  0  0  0  0  0  0  0  0  0
   -0.1364    1.2033   -1.9101 C   0  0  0  0  0  0  0  0  0  0  0  0
    0.5507    2.3362   -1.4721 N   0  0  0  0  0  0  0  0  0  0  0  0
    0.2970    3.2942   -2.3755 C   0  0  0  0  0  0  0  0  0  0  0  0
    0.6774    4.3063   -2.3183 H   0  0  0  0  0  0  0  0  0  0  0  0
   -0.4841    2.8169   -3.3590 N   0  0  0  0  0  0  0  0  0  0  0  0
   -0.7970    3.3401   -4.1654 H   0  0  0  0  0  0  0  0  0  0  0  0
   -0.7650    1.4969   -3.0848 C   0  0  0  0  0  0  0  0  0  0  0  0
   -1.3485    0.8072   -3.6817 H   0  0  0  0  0  0  0  0  0  0  0  0
   -0.9851    1.3114    0.6698 C   0  0  0  0  0  0  0  0  0  0  0  0
   -2.0377    1.8431    0.3168 O   0  0  0  0  0  0  0  0  0  0  0  0
   -0.1052    1.9265    1.4663 N   0  0  0  0  0  0  0  0  0  0  0  0
    0.7810    1.4586    1.6201 H   0  0  0  0  0  0  0  0  0  0  0  0
   -0.2724    3.2715    2.0119 C   0  0  0  0  0  0  0  0  0  0  0  0
   -1.3249    3.4549    2.2426 H   0  0  0  0  0  0  0  0  0  0  0  0
    0.3167    3.3776    2.9239 H   0  0  0  0  0  0  0  0  0  0  0  0
    0.0609    4.0073    1.2782 H   0  0  0  0  0  0  0  0  0  0  0  0
  5  6  2  0  0  0  0
  5  7  1  0  0  0  0
  2  3  1  0  0  0  0
  2  4  1  0  0  0  0
  2  5  1  0  0  0  0
  1  2  1  0  0  0  0
 22 23  2  0  0  0  0
 22 24  1  0  0  0  0
 20 21  1  0  0  0  0
 18 19  1  0  0  0  0
 18 20  1  0  0  0  0
 16 17  1  0  0  0  0
 16 18  1  0  0  0  0
 15 16  2  0  0  0  0
 14 15  1  0  0  0  0
 14 20  2  0  0  0  0
 11 12  1  0  0  0  0
 11 13  1  0  0  0  0
 11 14  1  0  0  0  0
  9 10  1  0  0  0  0
  9 11  1  0  0  0  0
  9 22  1  0  0  0  0
  7  8  1  0  0  0  0
  7  9  1  0  0  0  0
 26 27  1  0  0  0  0
 26 28  1  0  0  0  0
 26 29  1  0  0  0  0
 24 25  1  0  0  0  0
 24 26  1  0  0  0  0
M  END
$$$$
default_name
  -OEChem-02102213163D

 29 29  0     1  0  0  0  0  0999 V2000
   -2.9561   -3.9186    1.3887 H   0  0  0  0  0  0  0  0  0  0  0  0
   -3.1191   -2.9346    0.9517 C   0  0  0  0  0  0  0  0  0  0  0  0
   -3.7811   -2.3546    1.5917 H   0  0  0  0  0  0  0  0  0  0  0  0
   -3.5591   -3.0406   -0.0383 H   0  0  0  0  0  0  0  0  0  0  0  0
   -1.7921   -2.2226    0.8327 C   0  0  0  0  0  0  0  0  0  0  0  0
   -0.7611   -2.7766    1.1927 O   0  0  0  0  0  0  0  0  0  0  0  0
   -1.8201   -0.9926    0.3247 N   0  0  0  0  0  0  0  0  0  0  0  0
   -2.7141   -0.5816    0.0927 H   0  0  0  0  0  0  0  0  0  0  0  0
   -0.6481   -0.1156    0.2017 C   0  0  1  0  0  0  0  0  0  0  0  0
    0.1344   -0.4988    0.8596 H   0  0  0  0  0  0  0  0  0  0  0  0
   -0.1211   -0.1520   -1.2460 C   0  0  0  0  0  0  0  0  0  0  0  0
    0.9110   -0.5056   -1.2544 H   0  0  0  0  0  0  0  0  0  0  0  0
   -0.7129   -0.8525   -1.8367 H   0  0  0  0  0  0  0  0  0  0  0  0
   -0.1364    1.2033   -1.9101 C   0  0  0  0  0  0  0  0  0  0  0  0
    0.7578    2.2455   -1.6620 N   0  0  0  0  0  0  0  0  0  0  0  0
    0.4115    3.2360   -2.4970 C   0  0  0  0  0  0  0  0  0  0  0  0
    0.9072    4.1973   -2.5460 H   0  0  0  0  0  0  0  0  0  0  0  0
   -0.6259    2.8617   -3.2644 N   0  0  0  0  0  0  0  0  0  0  0  0
   -1.0562    3.4259   -3.9844 H   0  0  0  0  0  0  0  0  0  0  0  0
   -0.9834    1.5795   -2.9113 C   0  0  0  0  0  0  0  0  0  0  0  0
   -1.7642    0.9675   -3.3452 H   0  0  0  0  0  0  0  0  0  0  0  0
   -0.9851    1.3114    0.6698 C   0  0  0  0  0  0  0  0  0  0  0  0
   -2.0377    1.8431    0.3168 O   0  0  0  0  0  0  0  0  0  0  0  0
   -0.1052    1.9265    1.4663 N   0  0  0  0  0  0  0  0  0  0  0  0
    0.7810    1.4586    1.6201 H   0  0  0  0  0  0  0  0  0  0  0  0
   -0.2724    3.2715    2.0119 C   0  0  0  0  0  0  0  0  0  0  0  0
   -1.3249    3.4549    2.2426 H   0  0  0  0  0  0  0  0  0  0  0  0
    0.3167    3.3776    2.9239 H   0  0  0  0  0  0  0  0  0  0  0  0
    0.0609    4.0073    1.2782 H   0  0  0  0  0  0  0  0  0  0  0  0
  5  6  2  0  0  0  0
  5  7  1  0  0  0  0
  2  3  1  0  0  0  0
  2  4  1  0  0  0  0
  2  5  1  0  0  0  0
  1  2  1  0  0  0  0
 22 23  2  0  0  0  0
 22 24  1  0  0  0  0
 20 21  1  0  0  0  0
 18 19  1  0  0  0  0
 18 20  1  0  0  0  0
 16 17  1  0  0  0  0
 16 18  1  0  0  0  0
 15 16  2  0  0  0  0
 14 15  1  0  0  0  0
 14 20  2  0  0  0  0
 11 12  1  0  0  0  0
 11 13  1  0  0  0  0
 11 14  1  0  0  0  0
  9 10  1  0  0  0  0
  9 11  1  0  0  0  0
  9 22  1  0  0  0  0
  7  8  1  0  0  0  0
  7  9  1  0  0  0  0
 26 27  1  0  0  0  0
 26 28  1  0  0  0  0
 26 29  1  0  0  0  0
 24 25  1  0  0  0  0
 24 26  1  0  0  0  0
M  END
$$$$
default_name
  -OEChem-02102213163D

 29 29  0     1  0  0  0  0  0999 V2000
   -2.9561   -3.9186    1.3887 H   0  0  0  0  0  0  0  0  0  0  0  0
   -3.1191   -2.9346    0.9517 C   0  0  0  0  0  0  0  0  0  0  0  0
   -3.7811   -2.3546    1.5917 H   0  0  0  0  0  0  0  0  0  0  0  0
   -3.5591   -3.0406   -0.0383 H   0  0  0  0  0  0  0  0  0  0  0  0
   -1.7921   -2.2226    0.8327 C   0  0  0  0  0  0  0  0  0  0  0  0
   -0.7611   -2.7766    1.1927 O   0  0  0  0  0  0  0  0  0  0  0  0
   -1.8201   -0.9926    0.3247 N   0  0  0  0  0  0  0  0  0  0  0  0
   -2.7141   -0.5816    0.0927 H   0  0  0  0  0  0  0  0  0  0  0  0
   -0.6481   -0.1156    0.2017 C   0  0  1  0  0  0  0  0  0  0  0  0
    0.1344   -0.4988    0.8596 H   0  0  0  0  0  0  0  0  0  0  0  0
   -0.1211   -0.1520   -1.2460 C   0  0  0  0  0  0  0  0  0  0  0  0
    0.9110   -0.5056   -1.2544 H   0  0  0  0  0  0  0  0  0  0  0  0
   -0.7129   -0.8525   -1.8367 H   0  0  0  0  0  0  0  0  0  0  0  0
   -0.1364    1.2033   -1.9101 C   0  0  0  0  0  0  0  0  0  0  0  0
    0.9034    2.1338   -1.8932 N   0  0  0  0  0  0  0  0  0  0  0  0
    0.4872    3.1664   -2.6408 C   0  0  0  0  0  0  0  0  0  0  0  0
    1.0638    4.0653   -2.8191 H   0  0  0  0  0  0  0  0  0  0  0  0
   -0.7358    2.9213   -3.1402 N   0  0  0  0  0  0  0  0  0  0  0  0
   -1.2548    3.5388   -3.7495 H   0  0  0  0  0  0  0  0  0  0  0  0
   -1.1447    1.6846   -2.6931 C   0  0  0  0  0  0  0  0  0  0  0  0
   -2.0692    1.1705   -2.9239 H   0  0  0  0  0  0  0  0  0  0  0  0
   -0.9851    1.3114    0.6698 C   0  0  0  0  0  0  0  0  0  0  0  0
   -2.0377    1.8431    0.3168 O   0  0  0  0  0  0  0  0  0  0  0  0
   -0.1052    1.9265    1.4663 N   0  0  0  0  0  0  0  0  0  0  0  0
    0.7810    1.4586    1.6201 H   0  0  0  0  0  0  0  0  0  0  0  0
   -0.2724    3.2715    2.0119 C   0  0  0  0  0  0  0  0  0  0  0  0
   -1.3249    3.4549    2.2426 H   0  0  0  0  0  0  0  0  0  0  0  0
    0.3167    3.3776    2.9239 H   0  0  0  0  0  0  0  0  0  0  0  0
    0.0609    4.0073    1.2782 H   0  0  0  0  0  0  0  0  0  0  0  0
  5  6  2  0  0  0  0
  5  7  1  0  0  0  0
  2  3  1  0  0  0  0
  2  4  1  0  0  0  0
  2  5  1  0  0  0  0
  1  2  1  0  0  0  0
 22 23  2  0  0  0  0
 22 24  1  0  0  0  0
 20 21  1  0  0  0  0
 18 19  1  0  0  0  0
 18 20  1  0  0  0  0
 16 17  1  0  0  0  0
 16 18  1  0  0  0  0
 15 16  2  0  0  0  0
 14 15  1  0  0  0  0
 14 20  2  0  0  0  0
 11 12  1  0  0  0  0
 11 13  1  0  0  0  0
 11 14  1  0  0  0  0
  9 10  1  0  0  0  0
  9 11  1  0  0  0  0
  9 22  1  0  0  0  0
  7  8  1  0  0  0  0
  7  9  1  0  0  0  0
 26 27  1  0  0  0  0
 26 28  1  0  0  0  0
 26 29  1  0  0  0  0
 24 25  1  0  0  0  0
 24 26  1  0  0  0  0
M  END
$$$$
default_name
  -OEChem-02102213163D

 29 29  0     1  0  0  0  0  0999 V2000
   -2.9561   -3.9186    1.3887 H   0  0  0  0  0  0  0  0  0  0  0  0
   -3.1191   -2.9346    0.9517 C   0  0  0  0  0  0  0  0  0  0  0  0
   -3.7811   -2.3546    1.5917 H   0  0  0  0  0  0  0  0  0  0  0  0
   -3.5591   -3.0406   -0.0383 H   0  0  0  0  0  0  0  0  0  0  0  0
   -1.7921   -2.2226    0.8327 C   0  0  0  0  0  0  0  0  0  0  0  0
   -0.7611   -2.7766    1.1927 O   0  0  0  0  0  0  0  0  0  0  0  0
   -1.8201   -0.9926    0.3247 N   0  0  0  0  0  0  0  0  0  0  0  0
   -2.7141   -0.5816    0.0927 H   0  0  0  0  0  0  0  0  0  0  0  0
   -0.6481   -0.1156    0.2017 C   0  0  1  0  0  0  0  0  0  0  0  0
    0.1344   -0.4988    0.8596 H   0  0  0  0  0  0  0  0  0  0  0  0
   -0.1211   -0.1520   -1.2460 C   0  0  0  0  0  0  0  0  0  0  0  0
    0.9110   -0.5056   -1.2544 H   0  0  0  0  0  0  0  0  0  0  0  0
   -0.7129   -0.8525   -1.8367 H   0  0  0  0  0  0  0  0  0  0  0  0
   -0.1364    1.2033   -1.9101 C   0  0  0  0  0  0  0  0  0  0  0  0
    0.9776    2.0087   -2.1502 N   0  0  0  0  0  0  0  0  0  0  0  0
    0.5190    3.0901   -2.7972 C   0  0  0  0  0  0  0  0  0  0  0  0
    1.1366    3.9192   -3.1189 H   0  0  0  0  0  0  0  0  0  0  0  0
   -0.8063    2.9917   -2.9948 N   0  0  0  0  0  0  0  0  0  0  0  0
   -1.3792    3.6710   -3.4768 H   0  0  0  0  0  0  0  0  0  0  0  0
   -1.2377    1.8050   -2.4452 C   0  0  0  0  0  0  0  0  0  0  0  0
   -2.2429    1.4024   -2.4466 H   0  0  0  0  0  0  0  0  0  0  0  0
   -0.9851    1.3114    0.6698 C   0  0  0  0  0  0  0  0  0  0  0  0
   -2.0377    1.8431    0.3168 O   0  0  0  0  0  0  0  0  0  0  0  0
   -0.1052    1.9265    1.4663 N   0  0  0  0  0  0  0  0  0  0  0  0
    0.7810    1.4586    1.6201 H   0  0  0  0  0  0  0  0  0  0  0  0
   -0.2724    3.2715    2.0119 C   0  0  0  0  0  0  0  0  0  0  0  0
   -1.3249    3.4549    2.2426 H   0  0  0  0  0  0  0  0  0  0  0  0
    0.3167    3.3776    2.9239 H   0  0  0  0  0  0  0  0  0  0  0  0
    0.0609    4.0073    1.2782 H   0  0  0  0  0  0  0  0  0  0  0  0
  5  6  2  0  0  0  0
  5  7  1  0  0  0  0
  2  3  1  0  0  0  0
  2  4  1  0  0  0  0
  2  5  1  0  0  0  0
  1  2  1  0  0  0  0
 22 23  2  0  0  0  0
 22 24  1  0  0  0  0
 20 21  1  0  0  0  0
 18 19  1  0  0  0  0
 18 20  1  0  0  0  0
 16 17  1  0  0  0  0
 16 18  1  0  0  0  0
 15 16  2  0  0  0  0
 14 15  1  0  0  0  0
 14 20  2  0  0  0  0
 11 12  1  0  0  0  0
 11 13  1  0  0  0  0
 11 14  1  0  0  0  0
  9 10  1  0  0  0  0
  9 11  1  0  0  0  0
  9 22  1  0  0  0  0
  7  8  1  0  0  0  0
  7  9  1  0  0  0  0
 26 27  1  0  0  0  0
 26 28  1  0  0  0  0
 26 29  1  0  0  0  0
 24 25  1  0  0  0  0
 24 26  1  0  0  0  0
M  END
$$$$
default_name
  -OEChem-02102213163D

 29 29  0     1  0  0  0  0  0999 V2000
   -2.9561   -3.9186    1.3887 H   0  0  0  0  0  0  0  0  0  0  0  0
   -3.1191   -2.9346    0.9517 C   0  0  0  0  0  0  0  0  0  0  0  0
   -3.7811   -2.3546    1.5917 H   0  0  0  0  0  0  0  0  0  0  0  0
   -3.5591   -3.0406   -0.0383 H   0  0  0  0  0  0  0  0  0  0  0  0
   -1.7921   -2.2226    0.8327 C   0  0  0  0  0  0  0  0  0  0  0  0
   -0.7611   -2.7766    1.1927 O   0  0  0  0  0  0  0  0  0  0  0  0
   -1.8201   -0.9926    0.3247 N   0  0  0  0  0  0  0  0  0  0  0  0
   -2.7141   -0.5816    0.0927 H   0  0  0  0  0  0  0  0  0  0  0  0
   -0.6481   -0.1156    0.2017 C   0  0  1  0  0  0  0  0  0  0  0  0
    0.1344   -0.4988    0.8596 H   0  0  0  0  0  0  0  0  0  0  0  0
   -0.1211   -0.1520   -1.2460 C   0  0  0  0  0  0  0  0  0  0  0  0
    0.9110   -0.5056   -1.2544 H   0  0  0  0  0  0  0  0  0  0  0  0
   -0.7129   -0.8525   -1.8367 H   0  0  0  0  0  0  0  0  0  0  0  0
   -0.1364    1.2033   -1.9101 C   0  0  0  0  0  0  0  0  0  0  0  0
    0.9753    1.8788   -2.4153 N   0  0  0  0  0  0  0  0  0  0  0  0
    0.5047    3.0124   -2.9554 C   0  0  0  0  0  0  0  0  0  0  0  0
    1.1206    3.7689   -3.4251 H   0  0  0  0  0  0  0  0  0  0  0  0
   -0.8326    3.0682   -2.8382 N   0  0  0  0  0  0  0  0  0  0  0  0
   -1.4209    3.8136   -3.1849 H   0  0  0  0  0  0  0  0  0  0  0  0
   -1.2563    1.9326   -2.1844 C   0  0  0  0  0  0  0  0  0  0  0  0
   -2.2732    1.6475   -1.9459 H   0  0  0  0  0  0  0  0  0  0  0  0
   -0.9851    1.3114    0.6698 C   0  0  0  0  0  0  0  0  0  0  0  0
   -2.0377    1.8431    0.3168 O   0  0  0  0  0  0  0  0  0  0  0  0
   -0.1052    1.9265    1.4663 N   0  0  0  0  0  0  0  0  0  0  0  0
    0.7810    1.4586    1.6201 H   0  0  0  0  0  0  0  0  0  0  0  0
   -0.2724    3.2715    2.0119 C   0  0  0  0  0  0  0  0  0  0  0  0
   -1.3249    3.4549    2.2426 H   0  0  0  0  0  0  0  0  0  0  0  0
    0.3167    3.3776    2.9239 H   0  0  0  0  0  0  0  0  0  0  0  0
    0.0609    4.0073    1.2782 H   0  0  0  0  0  0  0  0  0  0  0  0
  5  6  2  0  0  0  0
  5  7  1  0  0  0  0
  2  3  1  0  0  0  0
  2  4  1  0  0  0  0
  2  5  1  0  0  0  0
  1  2  1  0  0  0  0
 22 23  2  0  0  0  0
 22 24  1  0  0  0  0
 20 21  1  0  0  0  0
 18 19  1  0  0  0  0
 18 20  1  0  0  0  0
 16 17  1  0  0  0  0
 16 18  1  0  0  0  0
 15 16  2  0  0  0  0
 14 15  1  0  0  0  0
 14 20  2  0  0  0  0
 11 12  1  0  0  0  0
 11 13  1  0  0  0  0
 11 14  1  0  0  0  0
  9 10  1  0  0  0  0
  9 11  1  0  0  0  0
  9 22  1  0  0  0  0
  7  8  1  0  0  0  0
  7  9  1  0  0  0  0
 26 27  1  0  0  0  0
 26 28  1  0  0  0  0
 26 29  1  0  0  0  0
 24 25  1  0  0  0  0
 24 26  1  0  0  0  0
M  END
$$$$
default_name
  -OEChem-02102213163D

 29 29  0     1  0  0  0  0  0999 V2000
   -2.9561   -3.9186    1.3887 H   0  0  0  0  0  0  0  0  0  0  0  0
   -3.1191   -2.9346    0.9517 C   0  0  0  0  0  0  0  0  0  0  0  0
   -3.7811   -2.3546    1.5917 H   0  0  0  0  0  0  0  0  0  0  0  0
   -3.5591   -3.0406   -0.0383 H   0  0  0  0  0  0  0  0  0  0  0  0
   -1.7921   -2.2226    0.8327 C   0  0  0  0  0  0  0  0  0  0  0  0
   -0.7611   -2.7766    1.1927 O   0  0  0  0  0  0  0  0  0  0  0  0
   -1.8201   -0.9926    0.3247 N   0  0  0  0  0  0  0  0  0  0  0  0
   -2.7141   -0.5816    0.0927 H   0  0  0  0  0  0  0  0  0  0  0  0
   -0.6481   -0.1156    0.2017 C   0  0  1  0  0  0  0  0  0  0  0  0
    0.1344   -0.4988    0.8596 H   0  0  0  0  0  0  0  0  0  0  0  0
   -0.1211   -0.1520   -1.2460 C   0  0  0  0  0  0  0  0  0  0  0  0
    0.9110   -0.5056   -1.2544 H   0  0  0  0  0  0  0  0  0  0  0  0
   -0.7129   -0.8525   -1.8367 H   0  0  0  0  0  0  0  0  0  0  0  0
   -0.1364    1.2033   -1.9101 C   0  0  0  0  0  0  0  0  0  0  0  0
    0.8967    1.7528   -2.6704 N   0  0  0  0  0  0  0  0  0  0  0  0
    0.4453    2.9386   -3.1046 C   0  0  0  0  0  0  0  0  0  0  0  0
    1.0169    3.6249   -3.7166 H   0  0  0  0  0  0  0  0  0  0  0  0
   -0.8129    3.1455   -2.6810 N   0  0  0  0  0  0  0  0  0  0  0  0
   -1.3771    3.9569   -2.8935 H   0  0  0  0  0  0  0  0  0  0  0  0
   -1.1991    2.0587   -1.9285 C   0  0  0  0  0  0  0  0  0  0  0  0
   -2.1583    1.8890   -1.4558 H   0  0  0  0  0  0  0  0  0  0  0  0
   -0.9851    1.3114    0.6698 C   0  0  0  0  0  0  0  0  0  0  0  0
   -2.0377    1.8431    0.3168 O   0  0  0  0  0  0  0  0  0  0  0  0
   -0.1052    1.9265    1.4663 N   0  0  0  0  0  0  0  0  0  0  0  0
    0.7810    1.4586    1.6201 H   0  0  0  0  0  0  0  0  0  0  0  0
   -0.2724    3.2715    2.0119 C   0  0  0  0  0  0  0  0  0  0  0  0
   -1.3249    3.4549    2.2426 H   0  0  0  0  0  0  0  0  0  0  0  0
    0.3167    3.3776    2.9239 H   0  0  0  0  0  0  0  0  0  0  0  0
    0.0609    4.0073    1.2782 H   0  0  0  0  0  0  0  0  0  0  0  0
  5  6  2  0  0  0  0
  5  7  1  0  0  0  0
  2  3  1  0  0  0  0
  2  4  1  0  0  0  0
  2  5  1  0  0  0  0
  1  2  1  0  0  0  0
 22 23  2  0  0  0  0
 22 24  1  0  0  0  0
 20 21  1  0  0  0  0
 18 19  1  0  0  0  0
 18 20  1  0  0  0  0
 16 17  1  0  0  0  0
 16 18  1  0  0  0  0
 15 16  2  0  0  0  0
 14 15  1  0  0  0  0
 14 20  2  0  0  0  0
 11 12  1  0  0  0  0
 11 13  1  0  0  0  0
 11 14  1  0  0  0  0
  9 10  1  0  0  0  0
  9 11  1  0  0  0  0
  9 22  1  0  0  0  0
  7  8  1  0  0  0  0
  7  9  1  0  0  0  0
 26 27  1  0  0  0  0
 26 28  1  0  0  0  0
 26 29  1  0  0  0  0
 24 25  1  0  0  0  0
 24 26  1  0  0  0  0
M  END
$$$$
default_name
  -OEChem-02102213163D

 29 29  0     1  0  0  0  0  0999 V2000
   -2.9561   -3.9186    1.3887 H   0  0  0  0  0  0  0  0  0  0  0  0
   -3.1191   -2.9346    0.9517 C   0  0  0  0  0  0  0  0  0  0  0  0
   -3.7811   -2.3546    1.5917 H   0  0  0  0  0  0  0  0  0  0  0  0
   -3.5591   -3.0406   -0.0383 H   0  0  0  0  0  0  0  0  0  0  0  0
   -1.7921   -2.2226    0.8327 C   0  0  0  0  0  0  0  0  0  0  0  0
   -0.7611   -2.7766    1.1927 O   0  0  0  0  0  0  0  0  0  0  0  0
   -1.8201   -0.9926    0.3247 N   0  0  0  0  0  0  0  0  0  0  0  0
   -2.7141   -0.5816    0.0927 H   0  0  0  0  0  0  0  0  0  0  0  0
   -0.6481   -0.1156    0.2017 C   0  0  1  0  0  0  0  0  0  0  0  0
    0.1344   -0.4988    0.8596 H   0  0  0  0  0  0  0  0  0  0  0  0
   -0.1211   -0.1520   -1.2460 C   0  0  0  0  0  0  0  0  0  0  0  0
    0.9110   -0.5056   -1.2544 H   0  0  0  0  0  0  0  0  0  0  0  0
   -0.7129   -0.8525   -1.8367 H   0  0  0  0  0  0  0  0  0  0  0  0
   -0.1364    1.2033   -1.9101 C   0  0  0  0  0  0  0  0  0  0  0  0
    0.7471    1.6395   -2.8983 N   0  0  0  0  0  0  0  0  0  0  0  0
    0.3448    2.8736   -3.2348 C   0  0  0  0  0  0  0  0  0  0  0  0
    0.8325    3.4968   -3.9738 H   0  0  0  0  0  0  0  0  0  0  0  0
   -0.7486    3.2182   -2.5340 N   0  0  0  0  0  0  0  0  0  0  0  0
   -1.2507    4.0911   -2.6227 H   0  0  0  0  0  0  0  0  0  0  0  0
   -1.0700    2.1746   -1.6949 C   0  0  0  0  0  0  0  0  0  0  0  0
   -1.9059    2.1104   -1.0097 H   0  0  0  0  0  0  0  0  0  0  0  0
   -0.9851    1.3114    0.6698 C   0  0  0  0  0  0  0  0  0  0  0  0
   -2.0377    1.8431    0.3168 O   0  0  0  0  0  0  0  0  0  0  0  0
   -0.1052    1.9265    1.4663 N   0  0  0  0  0  0  0  0  0  0  0  0
    0.7810    1.4586    1.6201 H   0  0  0  0  0  0  0  0  0  0  0  0
   -0.2724    3.2715    2.0119 C   0  0  0  0  0  0  0  0  0  0  0  0
   -1.3249    3.4549    2.2426 H   0  0  0  0  0  0  0  0  0  0  0  0
    0.3167    3.3776    2.9239 H   0  0  0  0  0  0  0  0  0  0  0  0
    0.0609    4.0073    1.2782 H   0  0  0  0  0  0  0  0  0  0  0  0
  5  6  2  0  0  0  0
  5  7  1  0  0  0  0
  2  3  1  0  0  0  0
  2  4  1  0  0  0  0
  2  5  1  0  0  0  0
  1  2  1  0  0  0  0
 22 23  2  0  0  0  0
 22 24  1  0  0  0  0
 20 21  1  0  0  0  0
 18 19  1  0  0  0  0
 18 20  1  0  0  0  0
 16 17  1  0  0  0  0
 16 18  1  0  0  0  0
 15 16  2  0  0  0  0
 14 15  1  0  0  0  0
 14 20  2  0  0  0  0
 11 12  1  0  0  0  0
 11 13  1  0  0  0  0
 11 14  1  0  0  0  0
  9 10  1  0  0  0  0
  9 11  1  0  0  0  0
  9 22  1  0  0  0  0
  7  8  1  0  0  0  0
  7  9  1  0  0  0  0
 26 27  1  0  0  0  0
 26 28  1  0  0  0  0
 26 29  1  0  0  0  0
 24 25  1  0  0  0  0
 24 26  1  0  0  0  0
M  END
$$$$
default_name
  -OEChem-02102213163D

 29 29  0     1  0  0  0  0  0999 V2000
   -2.9561   -3.9186    1.3887 H   0  0  0  0  0  0  0  0  0  0  0  0
   -3.1191   -2.9346    0.9517 C   0  0  0  0  0  0  0  0  0  0  0  0
   -3.7811   -2.3546    1.5917 H   0  0  0  0  0  0  0  0  0  0  0  0
   -3.5591   -3.0406   -0.0383 H   0  0  0  0  0  0  0  0  0  0  0  0
   -1.7921   -2.2226    0.8327 C   0  0  0  0  0  0  0  0  0  0  0  0
   -0.7611   -2.7766    1.1927 O   0  0  0  0  0  0  0  0  0  0  0  0
   -1.8201   -0.9926    0.3247 N   0  0  0  0  0  0  0  0  0  0  0  0
   -2.7141   -0.5816    0.0927 H   0  0  0  0  0  0  0  0  0  0  0  0
   -0.6481   -0.1156    0.2017 C   0  0  1  0  0  0  0  0  0  0  0  0
    0.1344   -0.4988    0.8596 H   0  0  0  0  0  0  0  0  0  0  0  0
   -0.1211   -0.1520   -1.2460 C   0  0  0  0  0  0  0  0  0  0  0  0
    0.9110   -0.5056   -1.2544 H   0  0  0  0  0  0  0  0  0  0  0  0
   -0.7129   -0.8525   -1.8367 H   0  0  0  0  0  0  0  0  0  0  0  0
   -0.1364    1.2033   -1.9101 C   0  0  0  0  0  0  0  0  0  0  0  0
    0.5368    1.5464   -3.0834 N   0  0  0  0  0  0  0  0  0  0  0  0
    0.2100    2.8220   -3.3371 C   0  0  0  0  0  0  0  0  0  0  0  0
    0.5801    3.3933   -4.1790 H   0  0  0  0  0  0  0  0  0  0  0  0
   -0.6439    3.2816   -2.4071 N   0  0  0  0  0  0  0  0  0  0  0  0
   -1.0505    4.2070   -2.3907 H   0  0  0  0  0  0  0  0  0  0  0  0
   -0.8778    2.2724   -1.4997 C   0  0  0  0  0  0  0  0  0  0  0  0
   -1.5332    2.2967   -0.6381 H   0  0  0  0  0  0  0  0  0  0  0  0
   -0.9851    1.3114    0.6698 C   0  0  0  0  0  0  0  0  0  0  0  0
   -2.0377    1.8431    0.3168 O   0  0  0  0  0  0  0  0  0  0  0  0
   -0.1052    1.9265    1.4663 N   0  0  0  0  0  0  0  0  0  0  0  0
    0.7810    1.4586    1.6201 H   0  0  0  0  0  0  0  0  0  0  0  0
   -0.2724    3.2715    2.0119 C   0  0  0  0  0  0  0  0  0  0  0  0
   -1.3249    3.4549    2.2426 H   0  0  0  0  0  0  0  0  0  0  0  0
    0.3167    3.3776    2.9239 H   0  0  0  0  0  0  0  0  0  0  0  0
    0.0609    4.0073    1.2782 H   0  0  0  0  0  0  0  0  0  0  0  0
  5  6  2  0  0  0  0
  5  7  1  0  0  0  0
  2  3  1  0  0  0  0
  2  4  1  0  0  0  0
  2  5  1  0  0  0  0
  1  2  1  0  0  0  0
 22 23  2  0  0  0  0
 22 24  1  0  0  0  0
 20 21  1  0  0  0  0
 18 19  1  0  0  0  0
 18 20  1  0  0  0  0
 16 17  1  0  0  0  0
 16 18  1  0  0  0  0
 15 16  2  0  0  0  0
 14 15  1  0  0  0  0
 14 20  2  0  0  0  0
 11 12  1  0  0  0  0
 11 13  1  0  0  0  0
 11 14  1  0  0  0  0
  9 10  1  0  0  0  0
  9 11  1  0  0  0  0
  9 22  1  0  0  0  0
  7  8  1  0  0  0  0
  7  9  1  0  0  0  0
 26 27  1  0  0  0  0
 26 28  1  0  0  0  0
 26 29  1  0  0  0  0
 24 25  1  0  0  0  0
 24 26  1  0  0  0  0
M  END
$$$$
default_name
  -OEChem-02102213163D

 29 29  0     1  0  0  0  0  0999 V2000
   -2.9561   -3.9186    1.3887 H   0  0  0  0  0  0  0  0  0  0  0  0
   -3.1191   -2.9346    0.9517 C   0  0  0  0  0  0  0  0  0  0  0  0
   -3.7811   -2.3546    1.5917 H   0  0  0  0  0  0  0  0  0  0  0  0
   -3.5591   -3.0406   -0.0383 H   0  0  0  0  0  0  0  0  0  0  0  0
   -1.7921   -2.2226    0.8327 C   0  0  0  0  0  0  0  0  0  0  0  0
   -0.7611   -2.7766    1.1927 O   0  0  0  0  0  0  0  0  0  0  0  0
   -1.8201   -0.9926    0.3247 N   0  0  0  0  0  0  0  0  0  0  0  0
   -2.7141   -0.5816    0.0927 H   0  0  0  0  0  0  0  0  0  0  0  0
   -0.6481   -0.1156    0.2017 C   0  0  1  0  0  0  0  0  0  0  0  0
    0.1344   -0.4988    0.8596 H   0  0  0  0  0  0  0  0  0  0  0  0
   -0.1211   -0.1520   -1.2460 C   0  0  0  0  0  0  0  0  0  0  0  0
    0.7942   -0.7440   -1.2909 H   0  0  0  0  0  0  0  0  0  0  0  0
   -0.8552   -0.6328   -1.8940 H   0  0  0  0  0  0  0  0  0  0  0  0
    0.2045    1.2192   -1.7864 C   0  0  0  0  0  0  0  0  0  0  0  0
    0.6978    1.4994   -3.0614 N   0  0  0  0  0  0  0  0  0  0  0  0
    0.7957    2.8348   -3.1342 C   0  0  0  0  0  0  0  0  0  0  0  0
    1.1608    3.3761   -3.9979 H   0  0  0  0  0  0  0  0  0  0  0  0
    0.3695    3.3996   -1.9919 N   0  0  0  0  0  0  0  0  0  0  0  0
    0.3271    4.3930   -1.8093 H   0  0  0  0  0  0  0  0  0  0  0  0
   -0.0117    2.3955   -1.1301 C   0  0  0  0  0  0  0  0  0  0  0  0
   -0.4238    2.4998   -0.1342 H   0  0  0  0  0  0  0  0  0  0  0  0
   -0.9851    1.3114    0.6698 C   0  0  0  0  0  0  0  0  0  0  0  0
   -2.0377    1.8431    0.3168 O   0  0  0  0  0  0  0  0  0  0  0  0
   -0.1052    1.9265    1.4663 N   0  0  0  0  0  0  0  0  0  0  0  0
    0.7810    1.4586    1.6201 H   0  0  0  0  0  0  0  0  0  0  0  0
   -0.2724    3.2715    2.0119 C   0  0  0  0  0  0  0  0  0  0  0  0
   -1.3249    3.4549    2.2426 H   0  0  0  0  0  0  0  0  0  0  0  0
    0.3167    3.3776    2.9239 H   0  0  0  0  0  0  0  0  0  0  0  0
    0.0609    4.0073    1.2782 H   0  0  0  0  0  0  0  0  0  0  0  0
  5  6  2  0  0  0  0
  5  7  1  0  0  0  0
  2  3  1  0  0  0  0
  2  4  1  0  0  0  0
  2  5  1  0  0  0  0
  1  2  1  0  0  0  0
 22 23  2  0  0  0  0
 22 24  1  0  0  0  0
 20 21  1  0  0  0  0
 18 19  1  0  0  0  0
 18 20  1  0  0  0  0
 16 17  1  0  0  0  0
 16 18  1  0  0  0  0
 15 16  2  0  0  0  0
 14 15  1  0  0  0  0
 14 20  2  0  0  0  0
 11 12  1  0  0  0  0
 11 13  1  0  0  0  0
 11 14  1  0  0  0  0
  9 10  1  0  0  0  0
  9 11  1  0  0  0  0
  9 22  1  0  0  0  0
  7  8  1  0  0  0  0
  7  9  1  0  0  0  0
 26 27  1  0  0  0  0
 26 28  1  0  0  0  0
 26 29  1  0  0  0  0
 24 25  1  0  0  0  0
 24 26  1  0  0  0  0
M  END
$$$$
default_name
  -OEChem-02102213163D

 29 29  0     1  0  0  0  0  0999 V2000
   -2.9561   -3.9186    1.3887 H   0  0  0  0  0  0  0  0  0  0  0  0
   -3.1191   -2.9346    0.9517 C   0  0  0  0  0  0  0  0  0  0  0  0
   -3.7811   -2.3546    1.5917 H   0  0  0  0  0  0  0  0  0  0  0  0
   -3.5591   -3.0406   -0.0383 H   0  0  0  0  0  0  0  0  0  0  0  0
   -1.7921   -2.2226    0.8327 C   0  0  0  0  0  0  0  0  0  0  0  0
   -0.7611   -2.7766    1.1927 O   0  0  0  0  0  0  0  0  0  0  0  0
   -1.8201   -0.9926    0.3247 N   0  0  0  0  0  0  0  0  0  0  0  0
   -2.7141   -0.5816    0.0927 H   0  0  0  0  0  0  0  0  0  0  0  0
   -0.6481   -0.1156    0.2017 C   0  0  1  0  0  0  0  0  0  0  0  0
    0.1344   -0.4988    0.8596 H   0  0  0  0  0  0  0  0  0  0  0  0
   -0.1211   -0.1520   -1.2460 C   0  0  0  0  0  0  0  0  0  0  0  0
    0.7942   -0.7440   -1.2909 H   0  0  0  0  0  0  0  0  0  0  0  0
   -0.8552   -0.6328   -1.8940 H   0  0  0  0  0  0  0  0  0  0  0  0
    0.2045    1.2192   -1.7864 C   0  0  0  0  0  0  0  0  0  0  0  0
    0.4132    1.5406   -3.1282 N   0  0  0  0  0  0  0  0  0  0  0  0
    0.6237    2.8646   -3.1624 C   0  0  0  0  0  0  0  0  0  0  0  0
    0.8299    3.4290   -4.0630 H   0  0  0  0  0  0  0  0  0  0  0  0
    0.5330    3.3862   -1.9275 N   0  0  0  0  0  0  0  0  0  0  0  0
    0.6331    4.3651   -1.6957 H   0  0  0  0  0  0  0  0  0  0  0  0
    0.2648    2.3631   -1.0455 C   0  0  0  0  0  0  0  0  0  0  0  0
    0.1079    2.4357    0.0234 H   0  0  0  0  0  0  0  0  0  0  0  0
   -0.9851    1.3114    0.6698 C   0  0  0  0  0  0  0  0  0  0  0  0
   -2.0377    1.8431    0.3168 O   0  0  0  0  0  0  0  0  0  0  0  0
   -0.1052    1.9265    1.4663 N   0  0  0  0  0  0  0  0  0  0  0  0
    0.7810    1.4586    1.6201 H   0  0  0  0  0  0  0  0  0  0  0  0
   -0.2724    3.2715    2.0119 C   0  0  0  0  0  0  0  0  0  0  0  0
   -1.3249    3.4549    2.2426 H   0  0  0  0  0  0  0  0  0  0  0  0
    0.3167    3.3776    2.9239 H   0  0  0  0  0  0  0  0  0  0  0  0
    0.0609    4.0073    1.2782 H   0  0  0  0  0  0  0  0  0  0  0  0
  5  6  2  0  0  0  0
  5  7  1  0  0  0  0
  2  3  1  0  0  0  0
  2  4  1  0  0  0  0
  2  5  1  0  0  0  0
  1  2  1  0  0  0  0
 22 23  2  0  0  0  0
 22 24  1  0  0  0  0
 20 21  1  0  0  0  0
 18 19  1  0  0  0  0
 18 20  1  0  0  0  0
 16 17  1  0  0  0  0
 16 18  1  0  0  0  0
 15 16  2  0  0  0  0
 14 15  1  0  0  0  0
 14 20  2  0  0  0  0
 11 12  1  0  0  0  0
 11 13  1  0  0  0  0
 11 14  1  0  0  0  0
  9 10  1  0  0  0  0
  9 11  1  0  0  0  0
  9 22  1  0  0  0  0
  7  8  1  0  0  0  0
  7  9  1  0  0  0  0
 26 27  1  0  0  0  0
 26 28  1  0  0  0  0
 26 29  1  0  0  0  0
 24 25  1  0  0  0  0
 24 26  1  0  0  0  0
M  END
$$$$
default_name
  -OEChem-02102213163D

 29 29  0     1  0  0  0  0  0999 V2000
   -2.9561   -3.9186    1.3887 H   0  0  0  0  0  0  0  0  0  0  0  0
   -3.1191   -2.9346    0.9517 C   0  0  0  0  0  0  0  0  0  0  0  0
   -3.7811   -2.3546    1.5917 H   0  0  0  0  0  0  0  0  0  0  0  0
   -3.5591   -3.0406   -0.0383 H   0  0  0  0  0  0  0  0  0  0  0  0
   -1.7921   -2.2226    0.8327 C   0  0  0  0  0  0  0  0  0  0  0  0
   -0.7611   -2.7766    1.1927 O   0  0  0  0  0  0  0  0  0  0  0  0
   -1.8201   -0.9926    0.3247 N   0  0  0  0  0  0  0  0  0  0  0  0
   -2.7141   -0.5816    0.0927 H   0  0  0  0  0  0  0  0  0  0  0  0
   -0.6481   -0.1156    0.2017 C   0  0  1  0  0  0  0  0  0  0  0  0
    0.1344   -0.4988    0.8596 H   0  0  0  0  0  0  0  0  0  0  0  0
   -0.1211   -0.1520   -1.2460 C   0  0  0  0  0  0  0  0  0  0  0  0
    0.7942   -0.7440   -1.2909 H   0  0  0  0  0  0  0  0  0  0  0  0
   -0.8552   -0.6328   -1.8940 H   0  0  0  0  0  0  0  0  0  0  0  0
    0.2045    1.2192   -1.7864 C   0  0  0  0  0  0  0  0  0  0  0  0
    0.1264    1.6106   -3.1236 N   0  0  0  0  0  0  0  0  0  0  0  0
    0.4537    2.9108   -3.1475 C   0  0  0  0  0  0  0  0  0  0  0  0
    0.4999    3.5144   -4.0452 H   0  0  0  0  0  0  0  0  0  0  0  0
    0.7048    3.3545   -1.9044 N   0  0  0  0  0  0  0  0  0  0  0  0
    0.9528    4.3034   -1.6596 H   0  0  0  0  0  0  0  0  0  0  0  0
    0.5487    2.3016   -1.0306 C   0  0  0  0  0  0  0  0  0  0  0  0
    0.6527    2.3156    0.0470 H   0  0  0  0  0  0  0  0  0  0  0  0
   -0.9851    1.3114    0.6698 C   0  0  0  0  0  0  0  0  0  0  0  0
   -2.0377    1.8431    0.3168 O   0  0  0  0  0  0  0  0  0  0  0  0
   -0.1052    1.9265    1.4663 N   0  0  0  0  0  0  0  0  0  0  0  0
    0.7810    1.4586    1.6201 H   0  0  0  0  0  0  0  0  0  0  0  0
   -0.2724    3.2715    2.0119 C   0  0  0  0  0  0  0  0  0  0  0  0
   -1.3249    3.4549    2.2426 H   0  0  0  0  0  0  0  0  0  0  0  0
    0.3167    3.3776    2.9239 H   0  0  0  0  0  0  0  0  0  0  0  0
    0.0609    4.0073    1.2782 H   0  0  0  0  0  0  0  0  0  0  0  0
  5  6  2  0  0  0  0
  5  7  1  0  0  0  0
  2  3  1  0  0  0  0
  2  4  1  0  0  0  0
  2  5  1  0  0  0  0
  1  2  1  0  0  0  0
 22 23  2  0  0  0  0
 22 24  1  0  0  0  0
 20 21  1  0  0  0  0
 18 19  1  0  0  0  0
 18 20  1  0  0  0  0
 16 17  1  0  0  0  0
 16 18  1  0  0  0  0
 15 16  2  0  0  0  0
 14 15  1  0  0  0  0
 14 20  2  0  0  0  0
 11 12  1  0  0  0  0
 11 13  1  0  0  0  0
 11 14  1  0  0  0  0
  9 10  1  0  0  0  0
  9 11  1  0  0  0  0
  9 22  1  0  0  0  0
  7  8  1  0  0  0  0
  7  9  1  0  0  0  0
 26 27  1  0  0  0  0
 26 28  1  0  0  0  0
 26 29  1  0  0  0  0
 24 25  1  0  0  0  0
 24 26  1  0  0  0  0
M  END
$$$$
default_name
  -OEChem-02102213163D

 29 29  0     1  0  0  0  0  0999 V2000
   -2.9561   -3.9186    1.3887 H   0  0  0  0  0  0  0  0  0  0  0  0
   -3.1191   -2.9346    0.9517 C   0  0  0  0  0  0  0  0  0  0  0  0
   -3.7811   -2.3546    1.5917 H   0  0  0  0  0  0  0  0  0  0  0  0
   -3.5591   -3.0406   -0.0383 H   0  0  0  0  0  0  0  0  0  0  0  0
   -1.7921   -2.2226    0.8327 C   0  0  0  0  0  0  0  0  0  0  0  0
   -0.7611   -2.7766    1.1927 O   0  0  0  0  0  0  0  0  0  0  0  0
   -1.8201   -0.9926    0.3247 N   0  0  0  0  0  0  0  0  0  0  0  0
   -2.7141   -0.5816    0.0927 H   0  0  0  0  0  0  0  0  0  0  0  0
   -0.6481   -0.1156    0.2017 C   0  0  1  0  0  0  0  0  0  0  0  0
    0.1344   -0.4988    0.8596 H   0  0  0  0  0  0  0  0  0  0  0  0
   -0.1211   -0.1520   -1.2460 C   0  0  0  0  0  0  0  0  0  0  0  0
    0.7942   -0.7440   -1.2909 H   0  0  0  0  0  0  0  0  0  0  0  0
   -0.8552   -0.6328   -1.8940 H   0  0  0  0  0  0  0  0  0  0  0  0
    0.2045    1.2192   -1.7864 C   0  0  0  0  0  0  0  0  0  0  0  0
   -0.1431    1.7044   -3.0478 N   0  0  0  0  0  0  0  0  0  0  0  0
    0.2972    2.9704   -3.0906 C   0  0  0  0  0  0  0  0  0  0  0  0
    0.1932    3.6265   -3.9456 H   0  0  0  0  0  0  0  0  0  0  0  0
    0.8733    3.3067   -1.9243 N   0  0  0  0  0  0  0  0  0  0  0  0
    1.2644    4.2122   -1.7032 H   0  0  0  0  0  0  0  0  0  0  0  0
    0.8208    2.2149   -1.0865 C   0  0  0  0  0  0  0  0  0  0  0  0
    1.1733    2.1479   -0.0649 H   0  0  0  0  0  0  0  0  0  0  0  0
   -0.9851    1.3114    0.6698 C   0  0  0  0  0  0  0  0  0  0  0  0
   -2.0377    1.8431    0.3168 O   0  0  0  0  0  0  0  0  0  0  0  0
   -0.1052    1.9265    1.4663 N   0  0  0  0  0  0  0  0  0  0  0  0
    0.7810    1.4586    1.6201 H   0  0  0  0  0  0  0  0  0  0  0  0
   -0.2724    3.2715    2.0119 C   0  0  0  0  0  0  0  0  0  0  0  0
   -1.3249    3.4549    2.2426 H   0  0  0  0  0  0  0  0  0  0  0  0
    0.3167    3.3776    2.9239 H   0  0  0  0  0  0  0  0  0  0  0  0
    0.0609    4.0073    1.2782 H   0  0  0  0  0  0  0  0  0  0  0  0
  5  6  2  0  0  0  0
  5  7  1  0  0  0  0
  2  3  1  0  0  0  0
  2  4  1  0  0  0  0
  2  5  1  0  0  0  0
  1  2  1  0  0  0  0
 22 23  2  0  0  0  0
 22 24  1  0  0  0  0
 20 21  1  0  0  0  0
 18 19  1  0  0  0  0
 18 20  1  0  0  0  0
 16 17  1  0  0  0  0
 16 18  1  0  0  0  0
 15 16  2  0  0  0  0
 14 15  1  0  0  0  0
 14 20  2  0  0  0  0
 11 12  1  0  0  0  0
 11 13  1  0  0  0  0
 11 14  1  0  0  0  0
  9 10  1  0  0  0  0
  9 11  1  0  0  0  0
  9 22  1  0  0  0  0
  7  8  1  0  0  0  0
  7  9  1  0  0  0  0
 26 27  1  0  0  0  0
 26 28  1  0  0  0  0
 26 29  1  0  0  0  0
 24 25  1  0  0  0  0
 24 26  1  0  0  0  0
M  END
$$$$
default_name
  -OEChem-02102213163D

 29 29  0     1  0  0  0  0  0999 V2000
   -2.9561   -3.9186    1.3887 H   0  0  0  0  0  0  0  0  0  0  0  0
   -3.1191   -2.9346    0.9517 C   0  0  0  0  0  0  0  0  0  0  0  0
   -3.7811   -2.3546    1.5917 H   0  0  0  0  0  0  0  0  0  0  0  0
   -3.5591   -3.0406   -0.0383 H   0  0  0  0  0  0  0  0  0  0  0  0
   -1.7921   -2.2226    0.8327 C   0  0  0  0  0  0  0  0  0  0  0  0
   -0.7611   -2.7766    1.1927 O   0  0  0  0  0  0  0  0  0  0  0  0
   -1.8201   -0.9926    0.3247 N   0  0  0  0  0  0  0  0  0  0  0  0
   -2.7141   -0.5816    0.0927 H   0  0  0  0  0  0  0  0  0  0  0  0
   -0.6481   -0.1156    0.2017 C   0  0  1  0  0  0  0  0  0  0  0  0
    0.1344   -0.4988    0.8596 H   0  0  0  0  0  0  0  0  0  0  0  0
   -0.1211   -0.1520   -1.2460 C   0  0  0  0  0  0  0  0  0  0  0  0
    0.7942   -0.7440   -1.2909 H   0  0  0  0  0  0  0  0  0  0  0  0
   -0.8552   -0.6328   -1.8940 H   0  0  0  0  0  0  0  0  0  0  0  0
    0.2045    1.2192   -1.7864 C   0  0  0  0  0  0  0  0  0  0  0  0
   -0.3768    1.8159   -2.9060 N   0  0  0  0  0  0  0  0  0  0  0  0
    0.1650    3.0393   -2.9956 C   0  0  0  0  0  0  0  0  0  0  0  0
   -0.0692    3.7577   -3.7710 H   0  0  0  0  0  0  0  0  0  0  0  0
    1.0269    3.2459   -1.9858 N   0  0  0  0  0  0  0  0  0  0  0  0
    1.5467    4.0977   -1.8237 H   0  0  0  0  0  0  0  0  0  0  0  0
    1.0624    2.1092   -1.2092 C   0  0  0  0  0  0  0  0  0  0  0  0
    1.6343    1.9438   -0.3048 H   0  0  0  0  0  0  0  0  0  0  0  0
   -0.9851    1.3114    0.6698 C   0  0  0  0  0  0  0  0  0  0  0  0
   -2.0377    1.8431    0.3168 O   0  0  0  0  0  0  0  0  0  0  0  0
   -0.1052    1.9265    1.4663 N   0  0  0  0  0  0  0  0  0  0  0  0
    0.7810    1.4586    1.6201 H   0  0  0  0  0  0  0  0  0  0  0  0
   -0.2724    3.2715    2.0119 C   0  0  0  0  0  0  0  0  0  0  0  0
   -1.3249    3.4549    2.2426 H   0  0  0  0  0  0  0  0  0  0  0  0
    0.3167    3.3776    2.9239 H   0  0  0  0  0  0  0  0  0  0  0  0
    0.0609    4.0073    1.2782 H   0  0  0  0  0  0  0  0  0  0  0  0
  5  6  2  0  0  0  0
  5  7  1  0  0  0  0
  2  3  1  0  0  0  0
  2  4  1  0  0  0  0
  2  5  1  0  0  0  0
  1  2  1  0  0  0  0
 22 23  2  0  0  0  0
 22 24  1  0  0  0  0
 20 21  1  0  0  0  0
 18 19  1  0  0  0  0
 18 20  1  0  0  0  0
 16 17  1  0  0  0  0
 16 18  1  0  0  0  0
 15 16  2  0  0  0  0
 14 15  1  0  0  0  0
 14 20  2  0  0  0  0
 11 12  1  0  0  0  0
 11 13  1  0  0  0  0
 11 14  1  0  0  0  0
  9 10  1  0  0  0  0
  9 11  1  0  0  0  0
  9 22  1  0  0  0  0
  7  8  1  0  0  0  0
  7  9  1  0  0  0  0
 26 27  1  0  0  0  0
 26 28  1  0  0  0  0
 26 29  1  0  0  0  0
 24 25  1  0  0  0  0
 24 26  1  0  0  0  0
M  END
$$$$
default_name
  -OEChem-02102213163D

 29 29  0     1  0  0  0  0  0999 V2000
   -2.9561   -3.9186    1.3887 H   0  0  0  0  0  0  0  0  0  0  0  0
   -3.1191   -2.9346    0.9517 C   0  0  0  0  0  0  0  0  0  0  0  0
   -3.7811   -2.3546    1.5917 H   0  0  0  0  0  0  0  0  0  0  0  0
   -3.5591   -3.0406   -0.0383 H   0  0  0  0  0  0  0  0  0  0  0  0
   -1.7921   -2.2226    0.8327 C   0  0  0  0  0  0  0  0  0  0  0  0
   -0.7611   -2.7766    1.1927 O   0  0  0  0  0  0  0  0  0  0  0  0
   -1.8201   -0.9926    0.3247 N   0  0  0  0  0  0  0  0  0  0  0  0
   -2.7141   -0.5816    0.0927 H   0  0  0  0  0  0  0  0  0  0  0  0
   -0.6481   -0.1156    0.2017 C   0  0  1  0  0  0  0  0  0  0  0  0
    0.1344   -0.4988    0.8596 H   0  0  0  0  0  0  0  0  0  0  0  0
   -0.1211   -0.1520   -1.2460 C   0  0  0  0  0  0  0  0  0  0  0  0
    0.7942   -0.7440   -1.2909 H   0  0  0  0  0  0  0  0  0  0  0  0
   -0.8552   -0.6328   -1.8940 H   0  0  0  0  0  0  0  0  0  0  0  0
    0.2045    1.2192   -1.7864 C   0  0  0  0  0  0  0  0  0  0  0  0
   -0.5589    1.9372   -2.7078 N   0  0  0  0  0  0  0  0  0  0  0  0
    0.0660    3.1127   -2.8688 C   0  0  0  0  0  0  0  0  0  0  0  0
   -0.2695    3.8989   -3.5334 H   0  0  0  0  0  0  0  0  0  0  0  0
    1.1552    3.1765   -2.0847 N   0  0  0  0  0  0  0  0  0  0  0  0
    1.7804    3.9676   -2.0129 H   0  0  0  0  0  0  0  0  0  0  0  0
    1.2572    1.9915   -1.3905 C   0  0  0  0  0  0  0  0  0  0  0  0
    2.0043    1.7174   -0.6564 H   0  0  0  0  0  0  0  0  0  0  0  0
   -0.9851    1.3114    0.6698 C   0  0  0  0  0  0  0  0  0  0  0  0
   -2.0377    1.8431    0.3168 O   0  0  0  0  0  0  0  0  0  0  0  0
   -0.1052    1.9265    1.4663 N   0  0  0  0  0  0  0  0  0  0  0  0
    0.7810    1.4586    1.6201 H   0  0  0  0  0  0  0  0  0  0  0  0
   -0.2724    3.2715    2.0119 C   0  0  0  0  0  0  0  0  0  0  0  0
   -1.3249    3.4549    2.2426 H   0  0  0  0  0  0  0  0  0  0  0  0
    0.3167    3.3776    2.9239 H   0  0  0  0  0  0  0  0  0  0  0  0
    0.0609    4.0073    1.2782 H   0  0  0  0  0  0  0  0  0  0  0  0
  5  6  2  0  0  0  0
  5  7  1  0  0  0  0
  2  3  1  0  0  0  0
  2  4  1  0  0  0  0
  2  5  1  0  0  0  0
  1  2  1  0  0  0  0
 22 23  2  0  0  0  0
 22 24  1  0  0  0  0
 20 21  1  0  0  0  0
 18 19  1  0  0  0  0
 18 20  1  0  0  0  0
 16 17  1  0  0  0  0
 16 18  1  0  0  0  0
 15 16  2  0  0  0  0
 14 15  1  0  0  0  0
 14 20  2  0  0  0  0
 11 12  1  0  0  0  0
 11 13  1  0  0  0  0
 11 14  1  0  0  0  0
  9 10  1  0  0  0  0
  9 11  1  0  0  0  0
  9 22  1  0  0  0  0
  7  8  1  0  0  0  0
  7  9  1  0  0  0  0
 26 27  1  0  0  0  0
 26 28  1  0  0  0  0
 26 29  1  0  0  0  0
 24 25  1  0  0  0  0
 24 26  1  0  0  0  0
M  END
$$$$
default_name
  -OEChem-02102213163D

 29 29  0     1  0  0  0  0  0999 V2000
   -2.9561   -3.9186    1.3887 H   0  0  0  0  0  0  0  0  0  0  0  0
   -3.1191   -2.9346    0.9517 C   0  0  0  0  0  0  0  0  0  0  0  0
   -3.7811   -2.3546    1.5917 H   0  0  0  0  0  0  0  0  0  0  0  0
   -3.5591   -3.0406   -0.0383 H   0  0  0  0  0  0  0  0  0  0  0  0
   -1.7921   -2.2226    0.8327 C   0  0  0  0  0  0  0  0  0  0  0  0
   -0.7611   -2.7766    1.1927 O   0  0  0  0  0  0  0  0  0  0  0  0
   -1.8201   -0.9926    0.3247 N   0  0  0  0  0  0  0  0  0  0  0  0
   -2.7141   -0.5816    0.0927 H   0  0  0  0  0  0  0  0  0  0  0  0
   -0.6481   -0.1156    0.2017 C   0  0  1  0  0  0  0  0  0  0  0  0
    0.1344   -0.4988    0.8596 H   0  0  0  0  0  0  0  0  0  0  0  0
   -0.1211   -0.1520   -1.2460 C   0  0  0  0  0  0  0  0  0  0  0  0
    0.7942   -0.7440   -1.2909 H   0  0  0  0  0  0  0  0  0  0  0  0
   -0.8552   -0.6328   -1.8940 H   0  0  0  0  0  0  0  0  0  0  0  0
    0.2045    1.2192   -1.7864 C   0  0  0  0  0  0  0  0  0  0  0  0
   -0.6770    2.0603   -2.4668 N   0  0  0  0  0  0  0  0  0  0  0  0
    0.0070    3.1858   -2.7189 C   0  0  0  0  0  0  0  0  0  0  0  0
   -0.3940    4.0406   -3.2489 H   0  0  0  0  0  0  0  0  0  0  0  0
    1.2494    3.1030   -2.2143 N   0  0  0  0  0  0  0  0  0  0  0  0
    1.9496    3.8308   -2.2579 H   0  0  0  0  0  0  0  0  0  0  0  0
    1.3917    1.8699   -1.6180 C   0  0  0  0  0  0  0  0  0  0  0  0
    2.2581    1.4840   -1.0955 H   0  0  0  0  0  0  0  0  0  0  0  0
   -0.9851    1.3114    0.6698 C   0  0  0  0  0  0  0  0  0  0  0  0
   -2.0377    1.8431    0.3168 O   0  0  0  0  0  0  0  0  0  0  0  0
   -0.1052    1.9265    1.4663 N   0  0  0  0  0  0  0  0  0  0  0  0
    0.7810    1.4586    1.6201 H   0  0  0  0  0  0  0  0  0  0  0  0
   -0.2724    3.2715    2.0119 C   0  0  0  0  0  0  0  0  0  0  0  0
   -1.3249    3.4549    2.2426 H   0  0  0  0  0  0  0  0  0  0  0  0
    0.3167    3.3776    2.9239 H   0  0  0  0  0  0  0  0  0  0  0  0
    0.0609    4.0073    1.2782 H   0  0  0  0  0  0  0  0  0  0  0  0
  5  6  2  0  0  0  0
  5  7  1  0  0  0  0
  2  3  1  0  0  0  0
  2  4  1  0  0  0  0
  2  5  1  0  0  0  0
  1  2  1  0  0  0  0
 22 23  2  0  0  0  0
 22 24  1  0  0  0  0
 20 21  1  0  0  0  0
 18 19  1  0  0  0  0
 18 20  1  0  0  0  0
 16 17  1  0  0  0  0
 16 18  1  0  0  0  0
 15 16  2  0  0  0  0
 14 15  1  0  0  0  0
 14 20  2  0  0  0  0
 11 12  1  0  0  0  0
 11 13  1  0  0  0  0
 11 14  1  0  0  0  0
  9 10  1  0  0  0  0
  9 11  1  0  0  0  0
  9 22  1  0  0  0  0
  7  8  1  0  0  0  0
  7  9  1  0  0  0  0
 26 27  1  0  0  0  0
 26 28  1  0  0  0  0
 26 29  1  0  0  0  0
 24 25  1  0  0  0  0
 24 26  1  0  0  0  0
M  END
$$$$
default_name
  -OEChem-02102213163D

 29 29  0     1  0  0  0  0  0999 V2000
   -2.9561   -3.9186    1.3887 H   0  0  0  0  0  0  0  0  0  0  0  0
   -3.1191   -2.9346    0.9517 C   0  0  0  0  0  0  0  0  0  0  0  0
   -3.7811   -2.3546    1.5917 H   0  0  0  0  0  0  0  0  0  0  0  0
   -3.5591   -3.0406   -0.0383 H   0  0  0  0  0  0  0  0  0  0  0  0
   -1.7921   -2.2226    0.8327 C   0  0  0  0  0  0  0  0  0  0  0  0
   -0.7611   -2.7766    1.1927 O   0  0  0  0  0  0  0  0  0  0  0  0
   -1.8201   -0.9926    0.3247 N   0  0  0  0  0  0  0  0  0  0  0  0
   -2.7141   -0.5816    0.0927 H   0  0  0  0  0  0  0  0  0  0  0  0
   -0.6481   -0.1156    0.2017 C   0  0  1  0  0  0  0  0  0  0  0  0
    0.1344   -0.4988    0.8596 H   0  0  0  0  0  0  0  0  0  0  0  0
   -0.1211   -0.1520   -1.2460 C   0  0  0  0  0  0  0  0  0  0  0  0
    0.7942   -0.7440   -1.2909 H   0  0  0  0  0  0  0  0  0  0  0  0
   -0.8552   -0.6328   -1.8940 H   0  0  0  0  0  0  0  0  0  0  0  0
    0.2045    1.2192   -1.7864 C   0  0  0  0  0  0  0  0  0  0  0  0
   -0.7230    2.1766   -2.1993 N   0  0  0  0  0  0  0  0  0  0  0  0
   -0.0080    3.2535   -2.5563 C   0  0  0  0  0  0  0  0  0  0  0  0
   -0.4343    4.1731   -2.9368 H   0  0  0  0  0  0  0  0  0  0  0  0
    1.3032    3.0306   -2.3657 N   0  0  0  0  0  0  0  0  0  0  0  0
    2.0428    3.6968   -2.5419 H   0  0  0  0  0  0  0  0  0  0  0  0
    1.4570    1.7526   -1.8761 C   0  0  0  0  0  0  0  0  0  0  0  0
    2.3783    1.2596   -1.5925 H   0  0  0  0  0  0  0  0  0  0  0  0
   -0.9851    1.3114    0.6698 C   0  0  0  0  0  0  0  0  0  0  0  0
   -2.0377    1.8431    0.3168 O   0  0  0  0  0  0  0  0  0  0  0  0
   -0.1052    1.9265    1.4663 N   0  0  0  0  0  0  0  0  0  0  0  0
    0.7810    1.4586    1.6201 H   0  0  0  0  0  0  0  0  0  0  0  0
   -0.2724    3.2715    2.0119 C   0  0  0  0  0  0  0  0  0  0  0  0
   -1.3249    3.4549    2.2426 H   0  0  0  0  0  0  0  0  0  0  0  0
    0.3167    3.3776    2.9239 H   0  0  0  0  0  0  0  0  0  0  0  0
    0.0609    4.0073    1.2782 H   0  0  0  0  0  0  0  0  0  0  0  0
  5  6  2  0  0  0  0
  5  7  1  0  0  0  0
  2  3  1  0  0  0  0
  2  4  1  0  0  0  0
  2  5  1  0  0  0  0
  1  2  1  0  0  0  0
 22 23  2  0  0  0  0
 22 24  1  0  0  0  0
 20 21  1  0  0  0  0
 18 19  1  0  0  0  0
 18 20  1  0  0  0  0
 16 17  1  0  0  0  0
 16 18  1  0  0  0  0
 15 16  2  0  0  0  0
 14 15  1  0  0  0  0
 14 20  2  0  0  0  0
 11 12  1  0  0  0  0
 11 13  1  0  0  0  0
 11 14  1  0  0  0  0
  9 10  1  0  0  0  0
  9 11  1  0  0  0  0
  9 22  1  0  0  0  0
  7  8  1  0  0  0  0
  7  9  1  0  0  0  0
 26 27  1  0  0  0  0
 26 28  1  0  0  0  0
 26 29  1  0  0  0  0
 24 25  1  0  0  0  0
 24 26  1  0  0  0  0
M  END
$$$$
default_name
  -OEChem-02102213163D

 29 29  0     1  0  0  0  0  0999 V2000
   -2.9561   -3.9186    1.3887 H   0  0  0  0  0  0  0  0  0  0  0  0
   -3.1191   -2.9346    0.9517 C   0  0  0  0  0  0  0  0  0  0  0  0
   -3.7811   -2.3546    1.5917 H   0  0  0  0  0  0  0  0  0  0  0  0
   -3.5591   -3.0406   -0.0383 H   0  0  0  0  0  0  0  0  0  0  0  0
   -1.7921   -2.2226    0.8327 C   0  0  0  0  0  0  0  0  0  0  0  0
   -0.7611   -2.7766    1.1927 O   0  0  0  0  0  0  0  0  0  0  0  0
   -1.8201   -0.9926    0.3247 N   0  0  0  0  0  0  0  0  0  0  0  0
   -2.7141   -0.5816    0.0927 H   0  0  0  0  0  0  0  0  0  0  0  0
   -0.6481   -0.1156    0.2017 C   0  0  1  0  0  0  0  0  0  0  0  0
    0.1344   -0.4988    0.8596 H   0  0  0  0  0  0  0  0  0  0  0  0
   -0.1211   -0.1520   -1.2460 C   0  0  0  0  0  0  0  0  0  0  0  0
    0.7942   -0.7440   -1.2909 H   0  0  0  0  0  0  0  0  0  0  0  0
   -0.8552   -0.6328   -1.8940 H   0  0  0  0  0  0  0  0  0  0  0  0
    0.2045    1.2192   -1.7864 C   0  0  0  0  0  0  0  0  0  0  0  0
   -0.6937    2.2783   -1.9237 N   0  0  0  0  0  0  0  0  0  0  0  0
    0.0220    3.3112   -2.3918 C   0  0  0  0  0  0  0  0  0  0  0  0
   -0.3875    4.2875   -2.6186 H   0  0  0  0  0  0  0  0  0  0  0  0
    1.3128    2.9641   -2.5286 N   0  0  0  0  0  0  0  0  0  0  0  0
    2.0536    3.5745   -2.8456 H   0  0  0  0  0  0  0  0  0  0  0  0
    1.4484    1.6477   -2.1474 C   0  0  0  0  0  0  0  0  0  0  0  0
    2.3568    1.0595   -2.1132 H   0  0  0  0  0  0  0  0  0  0  0  0
   -0.9851    1.3114    0.6698 C   0  0  0  0  0  0  0  0  0  0  0  0
   -2.0377    1.8431    0.3168 O   0  0  0  0  0  0  0  0  0  0  0  0
   -0.1052    1.9265    1.4663 N   0  0  0  0  0  0  0  0  0  0  0  0
    0.7810    1.4586    1.6201 H   0  0  0  0  0  0  0  0  0  0  0  0
   -0.2724    3.2715    2.0119 C   0  0  0  0  0  0  0  0  0  0  0  0
   -1.3249    3.4549    2.2426 H   0  0  0  0  0  0  0  0  0  0  0  0
    0.3167    3.3776    2.9239 H   0  0  0  0  0  0  0  0  0  0  0  0
    0.0609    4.0073    1.2782 H   0  0  0  0  0  0  0  0  0  0  0  0
  5  6  2  0  0  0  0
  5  7  1  0  0  0  0
  2  3  1  0  0  0  0
  2  4  1  0  0  0  0
  2  5  1  0  0  0  0
  1  2  1  0  0  0  0
 22 23  2  0  0  0  0
 22 24  1  0  0  0  0
 20 21  1  0  0  0  0
 18 19  1  0  0  0  0
 18 20  1  0  0  0  0
 16 17  1  0  0  0  0
 16 18  1  0  0  0  0
 15 16  2  0  0  0  0
 14 15  1  0  0  0  0
 14 20  2  0  0  0  0
 11 12  1  0  0  0  0
 11 13  1  0  0  0  0
 11 14  1  0  0  0  0
  9 10  1  0  0  0  0
  9 11  1  0  0  0  0
  9 22  1  0  0  0  0
  7  8  1  0  0  0  0
  7  9  1  0  0  0  0
 26 27  1  0  0  0  0
 26 28  1  0  0  0  0
 26 29  1  0  0  0  0
 24 25  1  0  0  0  0
 24 26  1  0  0  0  0
M  END
$$$$
default_name
  -OEChem-02102213163D

 29 29  0     1  0  0  0  0  0999 V2000
   -2.9561   -3.9186    1.3887 H   0  0  0  0  0  0  0  0  0  0  0  0
   -3.1191   -2.9346    0.9517 C   0  0  0  0  0  0  0  0  0  0  0  0
   -3.7811   -2.3546    1.5917 H   0  0  0  0  0  0  0  0  0  0  0  0
   -3.5591   -3.0406   -0.0383 H   0  0  0  0  0  0  0  0  0  0  0  0
   -1.7921   -2.2226    0.8327 C   0  0  0  0  0  0  0  0  0  0  0  0
   -0.7611   -2.7766    1.1927 O   0  0  0  0  0  0  0  0  0  0  0  0
   -1.8201   -0.9926    0.3247 N   0  0  0  0  0  0  0  0  0  0  0  0
   -2.7141   -0.5816    0.0927 H   0  0  0  0  0  0  0  0  0  0  0  0
   -0.6481   -0.1156    0.2017 C   0  0  1  0  0  0  0  0  0  0  0  0
    0.1344   -0.4988    0.8596 H   0  0  0  0  0  0  0  0  0  0  0  0
   -0.1211   -0.1520   -1.2460 C   0  0  0  0  0  0  0  0  0  0  0  0
    0.7942   -0.7440   -1.2909 H   0  0  0  0  0  0  0  0  0  0  0  0
   -0.8552   -0.6328   -1.8940 H   0  0  0  0  0  0  0  0  0  0  0  0
    0.2045    1.2192   -1.7864 C   0  0  0  0  0  0  0  0  0  0  0  0
   -0.5912    2.3584   -1.6587 N   0  0  0  0  0  0  0  0  0  0  0  0
    0.0950    3.3549   -2.2368 C   0  0  0  0  0  0  0  0  0  0  0  0
   -0.2569    4.3758   -2.3158 H   0  0  0  0  0  0  0  0  0  0  0  0
    1.2776    2.9080   -2.6920 N   0  0  0  0  0  0  0  0  0  0  0  0
    1.9813    3.4723   -3.1484 H   0  0  0  0  0  0  0  0  0  0  0  0
    1.3667    1.5624   -2.4132 C   0  0  0  0  0  0  0  0  0  0  0  0
    2.1950    0.8972   -2.6224 H   0  0  0  0  0  0  0  0  0  0  0  0
   -0.9851    1.3114    0.6698 C   0  0  0  0  0  0  0  0  0  0  0  0
   -2.0377    1.8431    0.3168 O   0  0  0  0  0  0  0  0  0  0  0  0
   -0.1052    1.9265    1.4663 N   0  0  0  0  0  0  0  0  0  0  0  0
    0.7810    1.4586    1.6201 H   0  0  0  0  0  0  0  0  0  0  0  0
   -0.2724    3.2715    2.0119 C   0  0  0  0  0  0  0  0  0  0  0  0
   -1.3249    3.4549    2.2426 H   0  0  0  0  0  0  0  0  0  0  0  0
    0.3167    3.3776    2.9239 H   0  0  0  0  0  0  0  0  0  0  0  0
    0.0609    4.0073    1.2782 H   0  0  0  0  0  0  0  0  0  0  0  0
  5  6  2  0  0  0  0
  5  7  1  0  0  0  0
  2  3  1  0  0  0  0
  2  4  1  0  0  0  0
  2  5  1  0  0  0  0
  1  2  1  0  0  0  0
 22 23  2  0  0  0  0
 22 24  1  0  0  0  0
 20 21  1  0  0  0  0
 18 19  1  0  0  0  0
 18 20  1  0  0  0  0
 16 17  1  0  0  0  0
 16 18  1  0  0  0  0
 15 16  2  0  0  0  0
 14 15  1  0  0  0  0
 14 20  2  0  0  0  0
 11 12  1  0  0  0  0
 11 13  1  0  0  0  0
 11 14  1  0  0  0  0
  9 10  1  0  0  0  0
  9 11  1  0  0  0  0
  9 22  1  0  0  0  0
  7  8  1  0  0  0  0
  7  9  1  0  0  0  0
 26 27  1  0  0  0  0
 26 28  1  0  0  0  0
 26 29  1  0  0  0  0
 24 25  1  0  0  0  0
 24 26  1  0  0  0  0
M  END
$$$$
default_name
  -OEChem-02102213163D

 29 29  0     1  0  0  0  0  0999 V2000
   -2.9561   -3.9186    1.3887 H   0  0  0  0  0  0  0  0  0  0  0  0
   -3.1191   -2.9346    0.9517 C   0  0  0  0  0  0  0  0  0  0  0  0
   -3.7811   -2.3546    1.5917 H   0  0  0  0  0  0  0  0  0  0  0  0
   -3.5591   -3.0406   -0.0383 H   0  0  0  0  0  0  0  0  0  0  0  0
   -1.7921   -2.2226    0.8327 C   0  0  0  0  0  0  0  0  0  0  0  0
   -0.7611   -2.7766    1.1927 O   0  0  0  0  0  0  0  0  0  0  0  0
   -1.8201   -0.9926    0.3247 N   0  0  0  0  0  0  0  0  0  0  0  0
   -2.7141   -0.5816    0.0927 H   0  0  0  0  0  0  0  0  0  0  0  0
   -0.6481   -0.1156    0.2017 C   0  0  1  0  0  0  0  0  0  0  0  0
    0.1344   -0.4988    0.8596 H   0  0  0  0  0  0  0  0  0  0  0  0
   -0.1211   -0.1520   -1.2460 C   0  0  0  0  0  0  0  0  0  0  0  0
    0.7942   -0.7440   -1.2909 H   0  0  0  0  0  0  0  0  0  0  0  0
   -0.8552   -0.6328   -1.8940 H   0  0  0  0  0  0  0  0  0  0  0  0
    0.2045    1.2192   -1.7864 C   0  0  0  0  0  0  0  0  0  0  0  0
   -0.4225    2.4115   -1.4223 N   0  0  0  0  0  0  0  0  0  0  0  0
    0.2061    3.3818   -2.1019 C   0  0  0  0  0  0  0  0  0  0  0  0
   -0.0513    4.4321   -2.0491 H   0  0  0  0  0  0  0  0  0  0  0  0
    1.2000    2.8663   -2.8446 N   0  0  0  0  0  0  0  0  0  0  0  0
    1.8308    3.3973   -3.4295 H   0  0  0  0  0  0  0  0  0  0  0  0
    1.2173    1.5023   -2.6555 C   0  0  0  0  0  0  0  0  0  0  0  0
    1.9040    0.7839   -3.0852 H   0  0  0  0  0  0  0  0  0  0  0  0
   -0.9851    1.3114    0.6698 C   0  0  0  0  0  0  0  0  0  0  0  0
   -2.0377    1.8431    0.3168 O   0  0  0  0  0  0  0  0  0  0  0  0
   -0.1052    1.9265    1.4663 N   0  0  0  0  0  0  0  0  0  0  0  0
    0.7810    1.4586    1.6201 H   0  0  0  0  0  0  0  0  0  0  0  0
   -0.2724    3.2715    2.0119 C   0  0  0  0  0  0  0  0  0  0  0  0
   -1.3249    3.4549    2.2426 H   0  0  0  0  0  0  0  0  0  0  0  0
    0.3167    3.3776    2.9239 H   0  0  0  0  0  0  0  0  0  0  0  0
    0.0609    4.0073    1.2782 H   0  0  0  0  0  0  0  0  0  0  0  0
  5  6  2  0  0  0  0
  5  7  1  0  0  0  0
  2  3  1  0  0  0  0
  2  4  1  0  0  0  0
  2  5  1  0  0  0  0
  1  2  1  0  0  0  0
 22 23  2  0  0  0  0
 22 24  1  0  0  0  0
 20 21  1  0  0  0  0
 18 19  1  0  0  0  0
 18 20  1  0  0  0  0
 16 17  1  0  0  0  0
 16 18  1  0  0  0  0
 15 16  2  0  0  0  0
 14 15  1  0  0  0  0
 14 20  2  0  0  0  0
 11 12  1  0  0  0  0
 11 13  1  0  0  0  0
 11 14  1  0  0  0  0
  9 10  1  0  0  0  0
  9 11  1  0  0  0  0
  9 22  1  0  0  0  0
  7  8  1  0  0  0  0
  7  9  1  0  0  0  0
 26 27  1  0  0  0  0
 26 28  1  0  0  0  0
 26 29  1  0  0  0  0
 24 25  1  0  0  0  0
 24 26  1  0  0  0  0
M  END
$$$$
default_name
  -OEChem-02102213163D

 29 29  0     1  0  0  0  0  0999 V2000
   -2.9561   -3.9186    1.3887 H   0  0  0  0  0  0  0  0  0  0  0  0
   -3.1191   -2.9346    0.9517 C   0  0  0  0  0  0  0  0  0  0  0  0
   -3.7811   -2.3546    1.5917 H   0  0  0  0  0  0  0  0  0  0  0  0
   -3.5591   -3.0406   -0.0383 H   0  0  0  0  0  0  0  0  0  0  0  0
   -1.7921   -2.2226    0.8327 C   0  0  0  0  0  0  0  0  0  0  0  0
   -0.7611   -2.7766    1.1927 O   0  0  0  0  0  0  0  0  0  0  0  0
   -1.8201   -0.9926    0.3247 N   0  0  0  0  0  0  0  0  0  0  0  0
   -2.7141   -0.5816    0.0927 H   0  0  0  0  0  0  0  0  0  0  0  0
   -0.6481   -0.1156    0.2017 C   0  0  1  0  0  0  0  0  0  0  0  0
    0.1344   -0.4988    0.8596 H   0  0  0  0  0  0  0  0  0  0  0  0
   -0.1211   -0.1520   -1.2460 C   0  0  0  0  0  0  0  0  0  0  0  0
    0.7942   -0.7440   -1.2909 H   0  0  0  0  0  0  0  0  0  0  0  0
   -0.8552   -0.6328   -1.8940 H   0  0  0  0  0  0  0  0  0  0  0  0
    0.2045    1.2192   -1.7864 C   0  0  0  0  0  0  0  0  0  0  0  0
   -0.1990    2.4340   -1.2307 N   0  0  0  0  0  0  0  0  0  0  0  0
    0.3476    3.3899   -1.9961 C   0  0  0  0  0  0  0  0  0  0  0  0
    0.2151    4.4526   -1.8367 H   0  0  0  0  0  0  0  0  0  0  0  0
    1.0853    2.8417   -2.9762 N   0  0  0  0  0  0  0  0  0  0  0  0
    1.6123    3.3544   -3.6699 H   0  0  0  0  0  0  0  0  0  0  0  0
    1.0105    1.4717   -2.8578 C   0  0  0  0  0  0  0  0  0  0  0  0
    1.5036    0.7272   -3.4701 H   0  0  0  0  0  0  0  0  0  0  0  0
   -0.9851    1.3114    0.6698 C   0  0  0  0  0  0  0  0  0  0  0  0
   -2.0377    1.8431    0.3168 O   0  0  0  0  0  0  0  0  0  0  0  0
   -0.1052    1.9265    1.4663 N   0  0  0  0  0  0  0  0  0  0  0  0
    0.7810    1.4586    1.6201 H   0  0  0  0  0  0  0  0  0  0  0  0
   -0.2724    3.2715    2.0119 C   0  0  0  0  0  0  0  0  0  0  0  0
   -1.3249    3.4549    2.2426 H   0  0  0  0  0  0  0  0  0  0  0  0
    0.3167    3.3776    2.9239 H   0  0  0  0  0  0  0  0  0  0  0  0
    0.0609    4.0073    1.2782 H   0  0  0  0  0  0  0  0  0  0  0  0
  5  6  2  0  0  0  0
  5  7  1  0  0  0  0
  2  3  1  0  0  0  0
  2  4  1  0  0  0  0
  2  5  1  0  0  0  0
  1  2  1  0  0  0  0
 22 23  2  0  0  0  0
 22 24  1  0  0  0  0
 20 21  1  0  0  0  0
 18 19  1  0  0  0  0
 18 20  1  0  0  0  0
 16 17  1  0  0  0  0
 16 18  1  0  0  0  0
 15 16  2  0  0  0  0
 14 15  1  0  0  0  0
 14 20  2  0  0  0  0
 11 12  1  0  0  0  0
 11 13  1  0  0  0  0
 11 14  1  0  0  0  0
  9 10  1  0  0  0  0
  9 11  1  0  0  0  0
  9 22  1  0  0  0  0
  7  8  1  0  0  0  0
  7  9  1  0  0  0  0
 26 27  1  0  0  0  0
 26 28  1  0  0  0  0
 26 29  1  0  0  0  0
 24 25  1  0  0  0  0
 24 26  1  0  0  0  0
M  END
$$$$
default_name
  -OEChem-02102213163D

 29 29  0     1  0  0  0  0  0999 V2000
   -2.9561   -3.9186    1.3887 H   0  0  0  0  0  0  0  0  0  0  0  0
   -3.1191   -2.9346    0.9517 C   0  0  0  0  0  0  0  0  0  0  0  0
   -3.7811   -2.3546    1.5917 H   0  0  0  0  0  0  0  0  0  0  0  0
   -3.5591   -3.0406   -0.0383 H   0  0  0  0  0  0  0  0  0  0  0  0
   -1.7921   -2.2226    0.8327 C   0  0  0  0  0  0  0  0  0  0  0  0
   -0.7611   -2.7766    1.1927 O   0  0  0  0  0  0  0  0  0  0  0  0
   -1.8201   -0.9926    0.3247 N   0  0  0  0  0  0  0  0  0  0  0  0
   -2.7141   -0.5816    0.0927 H   0  0  0  0  0  0  0  0  0  0  0  0
   -0.6481   -0.1156    0.2017 C   0  0  1  0  0  0  0  0  0  0  0  0
    0.1344   -0.4988    0.8596 H   0  0  0  0  0  0  0  0  0  0  0  0
   -0.1211   -0.1520   -1.2460 C   0  0  0  0  0  0  0  0  0  0  0  0
    0.7942   -0.7440   -1.2909 H   0  0  0  0  0  0  0  0  0  0  0  0
   -0.8552   -0.6328   -1.8940 H   0  0  0  0  0  0  0  0  0  0  0  0
    0.2045    1.2192   -1.7864 C   0  0  0  0  0  0  0  0  0  0  0  0
    0.0640    2.4242   -1.0969 N   0  0  0  0  0  0  0  0  0  0  0  0
    0.5098    3.3787   -1.9267 C   0  0  0  0  0  0  0  0  0  0  0  0
    0.5243    4.4358   -1.6930 H   0  0  0  0  0  0  0  0  0  0  0  0
    0.9413    2.8359   -3.0776 N   0  0  0  0  0  0  0  0  0  0  0  0
    1.3409    3.3466   -3.8531 H   0  0  0  0  0  0  0  0  0  0  0  0
    0.7603    1.4726   -3.0063 C   0  0  0  0  0  0  0  0  0  0  0  0
    1.0211    0.7311   -3.7510 H   0  0  0  0  0  0  0  0  0  0  0  0
   -0.9851    1.3114    0.6698 C   0  0  0  0  0  0  0  0  0  0  0  0
   -2.0377    1.8431    0.3168 O   0  0  0  0  0  0  0  0  0  0  0  0
   -0.1052    1.9265    1.4663 N   0  0  0  0  0  0  0  0  0  0  0  0
    0.7810    1.4586    1.6201 H   0  0  0  0  0  0  0  0  0  0  0  0
   -0.2724    3.2715    2.0119 C   0  0  0  0  0  0  0  0  0  0  0  0
   -1.3249    3.4549    2.2426 H   0  0  0  0  0  0  0  0  0  0  0  0
    0.3167    3.3776    2.9239 H   0  0  0  0  0  0  0  0  0  0  0  0
    0.0609    4.0073    1.2782 H   0  0  0  0  0  0  0  0  0  0  0  0
  5  6  2  0  0  0  0
  5  7  1  0  0  0  0
  2  3  1  0  0  0  0
  2  4  1  0  0  0  0
  2  5  1  0  0  0  0
  1  2  1  0  0  0  0
 22 23  2  0  0  0  0
 22 24  1  0  0  0  0
 20 21  1  0  0  0  0
 18 19  1  0  0  0  0
 18 20  1  0  0  0  0
 16 17  1  0  0  0  0
 16 18  1  0  0  0  0
 15 16  2  0  0  0  0
 14 15  1  0  0  0  0
 14 20  2  0  0  0  0
 11 12  1  0  0  0  0
 11 13  1  0  0  0  0
 11 14  1  0  0  0  0
  9 10  1  0  0  0  0
  9 11  1  0  0  0  0
  9 22  1  0  0  0  0
  7  8  1  0  0  0  0
  7  9  1  0  0  0  0
 26 27  1  0  0  0  0
 26 28  1  0  0  0  0
 26 29  1  0  0  0  0
 24 25  1  0  0  0  0
 24 26  1  0  0  0  0
M  END
$$$$
default_name
  -OEChem-02102213163D

 29 29  0     1  0  0  0  0  0999 V2000
   -2.9561   -3.9186    1.3887 H   0  0  0  0  0  0  0  0  0  0  0  0
   -3.1191   -2.9346    0.9517 C   0  0  0  0  0  0  0  0  0  0  0  0
   -3.7811   -2.3546    1.5917 H   0  0  0  0  0  0  0  0  0  0  0  0
   -3.5591   -3.0406   -0.0383 H   0  0  0  0  0  0  0  0  0  0  0  0
   -1.7921   -2.2226    0.8327 C   0  0  0  0  0  0  0  0  0  0  0  0
   -0.7611   -2.7766    1.1927 O   0  0  0  0  0  0  0  0  0  0  0  0
   -1.8201   -0.9926    0.3247 N   0  0  0  0  0  0  0  0  0  0  0  0
   -2.7141   -0.5816    0.0927 H   0  0  0  0  0  0  0  0  0  0  0  0
   -0.6481   -0.1156    0.2017 C   0  0  1  0  0  0  0  0  0  0  0  0
    0.1344   -0.4988    0.8596 H   0  0  0  0  0  0  0  0  0  0  0  0
   -0.1211   -0.1520   -1.2460 C   0  0  0  0  0  0  0  0  0  0  0  0
    0.7942   -0.7440   -1.2909 H   0  0  0  0  0  0  0  0  0  0  0  0
   -0.8552   -0.6328   -1.8940 H   0  0  0  0  0  0  0  0  0  0  0  0
    0.2045    1.2192   -1.7864 C   0  0  0  0  0  0  0  0  0  0  0  0
    0.3486    2.3830   -1.0300 N   0  0  0  0  0  0  0  0  0  0  0  0
    0.6819    3.3489   -1.8985 C   0  0  0  0  0  0  0  0  0  0  0  0
    0.8552    4.3829   -1.6279 H   0  0  0  0  0  0  0  0  0  0  0  0
    0.7778    2.8493   -3.1421 N   0  0  0  0  0  0  0  0  0  0  0  0
    1.0348    3.3745   -3.9667 H   0  0  0  0  0  0  0  0  0  0  0  0
    0.4838    1.5049   -3.0909 C   0  0  0  0  0  0  0  0  0  0  0  0
    0.4893    0.7953   -3.9086 H   0  0  0  0  0  0  0  0  0  0  0  0
   -0.9851    1.3114    0.6698 C   0  0  0  0  0  0  0  0  0  0  0  0
   -2.0377    1.8431    0.3168 O   0  0  0  0  0  0  0  0  0  0  0  0
   -0.1052    1.9265    1.4663 N   0  0  0  0  0  0  0  0  0  0  0  0
    0.7810    1.4586    1.6201 H   0  0  0  0  0  0  0  0  0  0  0  0
   -0.2724    3.2715    2.0119 C   0  0  0  0  0  0  0  0  0  0  0  0
   -1.3249    3.4549    2.2426 H   0  0  0  0  0  0  0  0  0  0  0  0
    0.3167    3.3776    2.9239 H   0  0  0  0  0  0  0  0  0  0  0  0
    0.0609    4.0073    1.2782 H   0  0  0  0  0  0  0  0  0  0  0  0
  5  6  2  0  0  0  0
  5  7  1  0  0  0  0
  2  3  1  0  0  0  0
  2  4  1  0  0  0  0
  2  5  1  0  0  0  0
  1  2  1  0  0  0  0
 22 23  2  0  0  0  0
 22 24  1  0  0  0  0
 20 21  1  0  0  0  0
 18 19  1  0  0  0  0
 18 20  1  0  0  0  0
 16 17  1  0  0  0  0
 16 18  1  0  0  0  0
 15 16  2  0  0  0  0
 14 15  1  0  0  0  0
 14 20  2  0  0  0  0
 11 12  1  0  0  0  0
 11 13  1  0  0  0  0
 11 14  1  0  0  0  0
  9 10  1  0  0  0  0
  9 11  1  0  0  0  0
  9 22  1  0  0  0  0
  7  8  1  0  0  0  0
  7  9  1  0  0  0  0
 26 27  1  0  0  0  0
 26 28  1  0  0  0  0
 26 29  1  0  0  0  0
 24 25  1  0  0  0  0
 24 26  1  0  0  0  0
M  END
$$$$
default_name
  -OEChem-02102213163D

 29 29  0     1  0  0  0  0  0999 V2000
   -2.9561   -3.9186    1.3887 H   0  0  0  0  0  0  0  0  0  0  0  0
   -3.1191   -2.9346    0.9517 C   0  0  0  0  0  0  0  0  0  0  0  0
   -3.7811   -2.3546    1.5917 H   0  0  0  0  0  0  0  0  0  0  0  0
   -3.5591   -3.0406   -0.0383 H   0  0  0  0  0  0  0  0  0  0  0  0
   -1.7921   -2.2226    0.8327 C   0  0  0  0  0  0  0  0  0  0  0  0
   -0.7611   -2.7766    1.1927 O   0  0  0  0  0  0  0  0  0  0  0  0
   -1.8201   -0.9926    0.3247 N   0  0  0  0  0  0  0  0  0  0  0  0
   -2.7141   -0.5816    0.0927 H   0  0  0  0  0  0  0  0  0  0  0  0
   -0.6481   -0.1156    0.2017 C   0  0  1  0  0  0  0  0  0  0  0  0
    0.1344   -0.4988    0.8596 H   0  0  0  0  0  0  0  0  0  0  0  0
   -0.1211   -0.1520   -1.2460 C   0  0  0  0  0  0  0  0  0  0  0  0
    0.7942   -0.7440   -1.2909 H   0  0  0  0  0  0  0  0  0  0  0  0
   -0.8552   -0.6328   -1.8940 H   0  0  0  0  0  0  0  0  0  0  0  0
    0.2045    1.2192   -1.7864 C   0  0  0  0  0  0  0  0  0  0  0  0
    0.6354    2.3131   -1.0347 N   0  0  0  0  0  0  0  0  0  0  0  0
    0.8519    3.3027   -1.9133 C   0  0  0  0  0  0  0  0  0  0  0  0
    1.1852    4.2975   -1.6457 H   0  0  0  0  0  0  0  0  0  0  0  0
    0.6059    2.8810   -3.1652 N   0  0  0  0  0  0  0  0  0  0  0  0
    0.7151    3.4362   -4.0029 H   0  0  0  0  0  0  0  0  0  0  0  0
    0.1998    1.5665   -3.1057 C   0  0  0  0  0  0  0  0  0  0  0  0
   -0.0554    0.9153   -3.9323 H   0  0  0  0  0  0  0  0  0  0  0  0
   -0.9851    1.3114    0.6698 C   0  0  0  0  0  0  0  0  0  0  0  0
   -2.0377    1.8431    0.3168 O   0  0  0  0  0  0  0  0  0  0  0  0
   -0.1052    1.9265    1.4663 N   0  0  0  0  0  0  0  0  0  0  0  0
    0.7810    1.4586    1.6201 H   0  0  0  0  0  0  0  0  0  0  0  0
   -0.2724    3.2715    2.0119 C   0  0  0  0  0  0  0  0  0  0  0  0
   -1.3249    3.4549    2.2426 H   0  0  0  0  0  0  0  0  0  0  0  0
    0.3167    3.3776    2.9239 H   0  0  0  0  0  0  0  0  0  0  0  0
    0.0609    4.0073    1.2782 H   0  0  0  0  0  0  0  0  0  0  0  0
  5  6  2  0  0  0  0
  5  7  1  0  0  0  0
  2  3  1  0  0  0  0
  2  4  1  0  0  0  0
  2  5  1  0  0  0  0
  1  2  1  0  0  0  0
 22 23  2  0  0  0  0
 22 24  1  0  0  0  0
 20 21  1  0  0  0  0
 18 19  1  0  0  0  0
 18 20  1  0  0  0  0
 16 17  1  0  0  0  0
 16 18  1  0  0  0  0
 15 16  2  0  0  0  0
 14 15  1  0  0  0  0
 14 20  2  0  0  0  0
 11 12  1  0  0  0  0
 11 13  1  0  0  0  0
 11 14  1  0  0  0  0
  9 10  1  0  0  0  0
  9 11  1  0  0  0  0
  9 22  1  0  0  0  0
  7  8  1  0  0  0  0
  7  9  1  0  0  0  0
 26 27  1  0  0  0  0
 26 28  1  0  0  0  0
 26 29  1  0  0  0  0
 24 25  1  0  0  0  0
 24 26  1  0  0  0  0
M  END
$$$$
default_name
  -OEChem-02102213163D

 29 29  0     1  0  0  0  0  0999 V2000
   -2.9561   -3.9186    1.3887 H   0  0  0  0  0  0  0  0  0  0  0  0
   -3.1191   -2.9346    0.9517 C   0  0  0  0  0  0  0  0  0  0  0  0
   -3.7811   -2.3546    1.5917 H   0  0  0  0  0  0  0  0  0  0  0  0
   -3.5591   -3.0406   -0.0383 H   0  0  0  0  0  0  0  0  0  0  0  0
   -1.7921   -2.2226    0.8327 C   0  0  0  0  0  0  0  0  0  0  0  0
   -0.7611   -2.7766    1.1927 O   0  0  0  0  0  0  0  0  0  0  0  0
   -1.8201   -0.9926    0.3247 N   0  0  0  0  0  0  0  0  0  0  0  0
   -2.7141   -0.5816    0.0927 H   0  0  0  0  0  0  0  0  0  0  0  0
   -0.6481   -0.1156    0.2017 C   0  0  1  0  0  0  0  0  0  0  0  0
    0.1344   -0.4988    0.8596 H   0  0  0  0  0  0  0  0  0  0  0  0
   -0.1211   -0.1520   -1.2460 C   0  0  0  0  0  0  0  0  0  0  0  0
    0.7942   -0.7440   -1.2909 H   0  0  0  0  0  0  0  0  0  0  0  0
   -0.8552   -0.6328   -1.8940 H   0  0  0  0  0  0  0  0  0  0  0  0
    0.2045    1.2192   -1.7864 C   0  0  0  0  0  0  0  0  0  0  0  0
    0.9049    2.2192   -1.1105 N   0  0  0  0  0  0  0  0  0  0  0  0
    1.0084    3.2431   -1.9702 C   0  0  0  0  0  0  0  0  0  0  0  0
    1.4919    4.1854   -1.7453 H   0  0  0  0  0  0  0  0  0  0  0  0
    0.4375    2.9289   -3.1453 N   0  0  0  0  0  0  0  0  0  0  0  0
    0.4035    3.5274   -3.9592 H   0  0  0  0  0  0  0  0  0  0  0  0
   -0.0722    1.6531   -3.0499 C   0  0  0  0  0  0  0  0  0  0  0  0
   -0.5761    1.0831   -3.8203 H   0  0  0  0  0  0  0  0  0  0  0  0
   -0.9851    1.3114    0.6698 C   0  0  0  0  0  0  0  0  0  0  0  0
   -2.0377    1.8431    0.3168 O   0  0  0  0  0  0  0  0  0  0  0  0
   -0.1052    1.9265    1.4663 N   0  0  0  0  0  0  0  0  0  0  0  0
    0.7810    1.4586    1.6201 H   0  0  0  0  0  0  0  0  0  0  0  0
   -0.2724    3.2715    2.0119 C   0  0  0  0  0  0  0  0  0  0  0  0
   -1.3249    3.4549    2.2426 H   0  0  0  0  0  0  0  0  0  0  0  0
    0.3167    3.3776    2.9239 H   0  0  0  0  0  0  0  0  0  0  0  0
    0.0609    4.0073    1.2782 H   0  0  0  0  0  0  0  0  0  0  0  0
  5  6  2  0  0  0  0
  5  7  1  0  0  0  0
  2  3  1  0  0  0  0
  2  4  1  0  0  0  0
  2  5  1  0  0  0  0
  1  2  1  0  0  0  0
 22 23  2  0  0  0  0
 22 24  1  0  0  0  0
 20 21  1  0  0  0  0
 18 19  1  0  0  0  0
 18 20  1  0  0  0  0
 16 17  1  0  0  0  0
 16 18  1  0  0  0  0
 15 16  2  0  0  0  0
 14 15  1  0  0  0  0
 14 20  2  0  0  0  0
 11 12  1  0  0  0  0
 11 13  1  0  0  0  0
 11 14  1  0  0  0  0
  9 10  1  0  0  0  0
  9 11  1  0  0  0  0
  9 22  1  0  0  0  0
  7  8  1  0  0  0  0
  7  9  1  0  0  0  0
 26 27  1  0  0  0  0
 26 28  1  0  0  0  0
 26 29  1  0  0  0  0
 24 25  1  0  0  0  0
 24 26  1  0  0  0  0
M  END
$$$$
default_name
  -OEChem-02102213163D

 29 29  0     1  0  0  0  0  0999 V2000
   -2.9561   -3.9186    1.3887 H   0  0  0  0  0  0  0  0  0  0  0  0
   -3.1191   -2.9346    0.9517 C   0  0  0  0  0  0  0  0  0  0  0  0
   -3.7811   -2.3546    1.5917 H   0  0  0  0  0  0  0  0  0  0  0  0
   -3.5591   -3.0406   -0.0383 H   0  0  0  0  0  0  0  0  0  0  0  0
   -1.7921   -2.2226    0.8327 C   0  0  0  0  0  0  0  0  0  0  0  0
   -0.7611   -2.7766    1.1927 O   0  0  0  0  0  0  0  0  0  0  0  0
   -1.8201   -0.9926    0.3247 N   0  0  0  0  0  0  0  0  0  0  0  0
   -2.7141   -0.5816    0.0927 H   0  0  0  0  0  0  0  0  0  0  0  0
   -0.6481   -0.1156    0.2017 C   0  0  1  0  0  0  0  0  0  0  0  0
    0.1344   -0.4988    0.8596 H   0  0  0  0  0  0  0  0  0  0  0  0
   -0.1211   -0.1520   -1.2460 C   0  0  0  0  0  0  0  0  0  0  0  0
    0.7942   -0.7440   -1.2909 H   0  0  0  0  0  0  0  0  0  0  0  0
   -0.8552   -0.6328   -1.8940 H   0  0  0  0  0  0  0  0  0  0  0  0
    0.2045    1.2192   -1.7864 C   0  0  0  0  0  0  0  0  0  0  0  0
    1.1386    2.1078   -1.2523 N   0  0  0  0  0  0  0  0  0  0  0  0
    1.1406    3.1742   -2.0653 C   0  0  0  0  0  0  0  0  0  0  0  0
    1.7544    4.0542   -1.9199 H   0  0  0  0  0  0  0  0  0  0  0  0
    0.2839    2.9896   -3.0838 N   0  0  0  0  0  0  0  0  0  0  0  0
    0.1212    3.6419   -3.8387 H   0  0  0  0  0  0  0  0  0  0  0  0
   -0.3139    1.7589   -2.9271 C   0  0  0  0  0  0  0  0  0  0  0  0
   -1.0371    1.2871   -3.5804 H   0  0  0  0  0  0  0  0  0  0  0  0
   -0.9851    1.3114    0.6698 C   0  0  0  0  0  0  0  0  0  0  0  0
   -2.0377    1.8431    0.3168 O   0  0  0  0  0  0  0  0  0  0  0  0
   -0.1052    1.9265    1.4663 N   0  0  0  0  0  0  0  0  0  0  0  0
    0.7810    1.4586    1.6201 H   0  0  0  0  0  0  0  0  0  0  0  0
   -0.2724    3.2715    2.0119 C   0  0  0  0  0  0  0  0  0  0  0  0
   -1.3249    3.4549    2.2426 H   0  0  0  0  0  0  0  0  0  0  0  0
    0.3167    3.3776    2.9239 H   0  0  0  0  0  0  0  0  0  0  0  0
    0.0609    4.0073    1.2782 H   0  0  0  0  0  0  0  0  0  0  0  0
  5  6  2  0  0  0  0
  5  7  1  0  0  0  0
  2  3  1  0  0  0  0
  2  4  1  0  0  0  0
  2  5  1  0  0  0  0
  1  2  1  0  0  0  0
 22 23  2  0  0  0  0
 22 24  1  0  0  0  0
 20 21  1  0  0  0  0
 18 19  1  0  0  0  0
 18 20  1  0  0  0  0
 16 17  1  0  0  0  0
 16 18  1  0  0  0  0
 15 16  2  0  0  0  0
 14 15  1  0  0  0  0
 14 20  2  0  0  0  0
 11 12  1  0  0  0  0
 11 13  1  0  0  0  0
 11 14  1  0  0  0  0
  9 10  1  0  0  0  0
  9 11  1  0  0  0  0
  9 22  1  0  0  0  0
  7  8  1  0  0  0  0
  7  9  1  0  0  0  0
 26 27  1  0  0  0  0
 26 28  1  0  0  0  0
 26 29  1  0  0  0  0
 24 25  1  0  0  0  0
 24 26  1  0  0  0  0
M  END
$$$$
default_name
  -OEChem-02102213163D

 29 29  0     1  0  0  0  0  0999 V2000
   -2.9561   -3.9186    1.3887 H   0  0  0  0  0  0  0  0  0  0  0  0
   -3.1191   -2.9346    0.9517 C   0  0  0  0  0  0  0  0  0  0  0  0
   -3.7811   -2.3546    1.5917 H   0  0  0  0  0  0  0  0  0  0  0  0
   -3.5591   -3.0406   -0.0383 H   0  0  0  0  0  0  0  0  0  0  0  0
   -1.7921   -2.2226    0.8327 C   0  0  0  0  0  0  0  0  0  0  0  0
   -0.7611   -2.7766    1.1927 O   0  0  0  0  0  0  0  0  0  0  0  0
   -1.8201   -0.9926    0.3247 N   0  0  0  0  0  0  0  0  0  0  0  0
   -2.7141   -0.5816    0.0927 H   0  0  0  0  0  0  0  0  0  0  0  0
   -0.6481   -0.1156    0.2017 C   0  0  1  0  0  0  0  0  0  0  0  0
    0.1344   -0.4988    0.8596 H   0  0  0  0  0  0  0  0  0  0  0  0
   -0.1211   -0.1520   -1.2460 C   0  0  0  0  0  0  0  0  0  0  0  0
    0.7942   -0.7440   -1.2909 H   0  0  0  0  0  0  0  0  0  0  0  0
   -0.8552   -0.6328   -1.8940 H   0  0  0  0  0  0  0  0  0  0  0  0
    0.2045    1.2192   -1.7864 C   0  0  0  0  0  0  0  0  0  0  0  0
    1.3207    1.9864   -1.4505 N   0  0  0  0  0  0  0  0  0  0  0  0
    1.2396    3.1008   -2.1921 C   0  0  0  0  0  0  0  0  0  0  0  0
    1.9547    3.9130   -2.1575 H   0  0  0  0  0  0  0  0  0  0  0  0
    0.1556    3.0591   -2.9849 N   0  0  0  0  0  0  0  0  0  0  0  0
   -0.1125    3.7720   -3.6495 H   0  0  0  0  0  0  0  0  0  0  0  0
   -0.5086    1.8766   -2.7459 C   0  0  0  0  0  0  0  0  0  0  0  0
   -1.4071    1.5135   -3.2289 H   0  0  0  0  0  0  0  0  0  0  0  0
   -0.9851    1.3114    0.6698 C   0  0  0  0  0  0  0  0  0  0  0  0
   -2.0377    1.8431    0.3168 O   0  0  0  0  0  0  0  0  0  0  0  0
   -0.1052    1.9265    1.4663 N   0  0  0  0  0  0  0  0  0  0  0  0
    0.7810    1.4586    1.6201 H   0  0  0  0  0  0  0  0  0  0  0  0
   -0.2724    3.2715    2.0119 C   0  0  0  0  0  0  0  0  0  0  0  0
   -1.3249    3.4549    2.2426 H   0  0  0  0  0  0  0  0  0  0  0  0
    0.3167    3.3776    2.9239 H   0  0  0  0  0  0  0  0  0  0  0  0
    0.0609    4.0073    1.2782 H   0  0  0  0  0  0  0  0  0  0  0  0
  5  6  2  0  0  0  0
  5  7  1  0  0  0  0
  2  3  1  0  0  0  0
  2  4  1  0  0  0  0
  2  5  1  0  0  0  0
  1  2  1  0  0  0  0
 22 23  2  0  0  0  0
 22 24  1  0  0  0  0
 20 21  1  0  0  0  0
 18 19  1  0  0  0  0
 18 20  1  0  0  0  0
 16 17  1  0  0  0  0
 16 18  1  0  0  0  0
 15 16  2  0  0  0  0
 14 15  1  0  0  0  0
 14 20  2  0  0  0  0
 11 12  1  0  0  0  0
 11 13  1  0  0  0  0
 11 14  1  0  0  0  0
  9 10  1  0  0  0  0
  9 11  1  0  0  0  0
  9 22  1  0  0  0  0
  7  8  1  0  0  0  0
  7  9  1  0  0  0  0
 26 27  1  0  0  0  0
 26 28  1  0  0  0  0
 26 29  1  0  0  0  0
 24 25  1  0  0  0  0
 24 26  1  0  0  0  0
M  END
$$$$
default_name
  -OEChem-02102213163D

 29 29  0     1  0  0  0  0  0999 V2000
   -2.9561   -3.9186    1.3887 H   0  0  0  0  0  0  0  0  0  0  0  0
   -3.1191   -2.9346    0.9517 C   0  0  0  0  0  0  0  0  0  0  0  0
   -3.7811   -2.3546    1.5917 H   0  0  0  0  0  0  0  0  0  0  0  0
   -3.5591   -3.0406   -0.0383 H   0  0  0  0  0  0  0  0  0  0  0  0
   -1.7921   -2.2226    0.8327 C   0  0  0  0  0  0  0  0  0  0  0  0
   -0.7611   -2.7766    1.1927 O   0  0  0  0  0  0  0  0  0  0  0  0
   -1.8201   -0.9926    0.3247 N   0  0  0  0  0  0  0  0  0  0  0  0
   -2.7141   -0.5816    0.0927 H   0  0  0  0  0  0  0  0  0  0  0  0
   -0.6481   -0.1156    0.2017 C   0  0  1  0  0  0  0  0  0  0  0  0
    0.1344   -0.4988    0.8596 H   0  0  0  0  0  0  0  0  0  0  0  0
   -0.1211   -0.1520   -1.2460 C   0  0  0  0  0  0  0  0  0  0  0  0
    0.7942   -0.7440   -1.2909 H   0  0  0  0  0  0  0  0  0  0  0  0
   -0.8552   -0.6328   -1.8940 H   0  0  0  0  0  0  0  0  0  0  0  0
    0.2045    1.2192   -1.7864 C   0  0  0  0  0  0  0  0  0  0  0  0
    1.4388    1.8634   -1.6915 N   0  0  0  0  0  0  0  0  0  0  0  0
    1.2986    3.0277   -2.3419 C   0  0  0  0  0  0  0  0  0  0  0  0
    2.0792    3.7713   -2.4421 H   0  0  0  0  0  0  0  0  0  0  0  0
    0.0613    3.1325   -2.8553 N   0  0  0  0  0  0  0  0  0  0  0  0
   -0.2817    3.9087   -3.4045 H   0  0  0  0  0  0  0  0  0  0  0  0
   -0.6432    1.9982   -2.5184 C   0  0  0  0  0  0  0  0  0  0  0  0
   -1.6608    1.7469   -2.7897 H   0  0  0  0  0  0  0  0  0  0  0  0
   -0.9851    1.3114    0.6698 C   0  0  0  0  0  0  0  0  0  0  0  0
   -2.0377    1.8431    0.3168 O   0  0  0  0  0  0  0  0  0  0  0  0
   -0.1052    1.9265    1.4663 N   0  0  0  0  0  0  0  0  0  0  0  0
    0.7810    1.4586    1.6201 H   0  0  0  0  0  0  0  0  0  0  0  0
   -0.2724    3.2715    2.0119 C   0  0  0  0  0  0  0  0  0  0  0  0
   -1.3249    3.4549    2.2426 H   0  0  0  0  0  0  0  0  0  0  0  0
    0.3167    3.3776    2.9239 H   0  0  0  0  0  0  0  0  0  0  0  0
    0.0609    4.0073    1.2782 H   0  0  0  0  0  0  0  0  0  0  0  0
  5  6  2  0  0  0  0
  5  7  1  0  0  0  0
  2  3  1  0  0  0  0
  2  4  1  0  0  0  0
  2  5  1  0  0  0  0
  1  2  1  0  0  0  0
 22 23  2  0  0  0  0
 22 24  1  0  0  0  0
 20 21  1  0  0  0  0
 18 19  1  0  0  0  0
 18 20  1  0  0  0  0
 16 17  1  0  0  0  0
 16 18  1  0  0  0  0
 15 16  2  0  0  0  0
 14 15  1  0  0  0  0
 14 20  2  0  0  0  0
 11 12  1  0  0  0  0
 11 13  1  0  0  0  0
 11 14  1  0  0  0  0
  9 10  1  0  0  0  0
  9 11  1  0  0  0  0
  9 22  1  0  0  0  0
  7  8  1  0  0  0  0
  7  9  1  0  0  0  0
 26 27  1  0  0  0  0
 26 28  1  0  0  0  0
 26 29  1  0  0  0  0
 24 25  1  0  0  0  0
 24 26  1  0  0  0  0
M  END
$$$$
default_name
  -OEChem-02102213163D

 29 29  0     1  0  0  0  0  0999 V2000
   -2.9561   -3.9186    1.3887 H   0  0  0  0  0  0  0  0  0  0  0  0
   -3.1191   -2.9346    0.9517 C   0  0  0  0  0  0  0  0  0  0  0  0
   -3.7811   -2.3546    1.5917 H   0  0  0  0  0  0  0  0  0  0  0  0
   -3.5591   -3.0406   -0.0383 H   0  0  0  0  0  0  0  0  0  0  0  0
   -1.7921   -2.2226    0.8327 C   0  0  0  0  0  0  0  0  0  0  0  0
   -0.7611   -2.7766    1.1927 O   0  0  0  0  0  0  0  0  0  0  0  0
   -1.8201   -0.9926    0.3247 N   0  0  0  0  0  0  0  0  0  0  0  0
   -2.7141   -0.5816    0.0927 H   0  0  0  0  0  0  0  0  0  0  0  0
   -0.6481   -0.1156    0.2017 C   0  0  1  0  0  0  0  0  0  0  0  0
    0.1344   -0.4988    0.8596 H   0  0  0  0  0  0  0  0  0  0  0  0
   -0.1211   -0.1520   -1.2460 C   0  0  0  0  0  0  0  0  0  0  0  0
    0.7942   -0.7440   -1.2909 H   0  0  0  0  0  0  0  0  0  0  0  0
   -0.8552   -0.6328   -1.8940 H   0  0  0  0  0  0  0  0  0  0  0  0
    0.2045    1.2192   -1.7864 C   0  0  0  0  0  0  0  0  0  0  0  0
    1.4847    1.7471   -1.9590 N   0  0  0  0  0  0  0  0  0  0  0  0
    1.3136    2.9600   -2.5046 C   0  0  0  0  0  0  0  0  0  0  0  0
    2.1194    3.6388   -2.7541 H   0  0  0  0  0  0  0  0  0  0  0  0
    0.0076    3.2050   -2.7039 N   0  0  0  0  0  0  0  0  0  0  0  0
   -0.3748    4.0428   -3.1205 H   0  0  0  0  0  0  0  0  0  0  0  0
   -0.7084    2.1154   -2.2603 C   0  0  0  0  0  0  0  0  0  0  0  0
   -1.7810    1.9713   -2.2928 H   0  0  0  0  0  0  0  0  0  0  0  0
   -0.9851    1.3114    0.6698 C   0  0  0  0  0  0  0  0  0  0  0  0
   -2.0377    1.8431    0.3168 O   0  0  0  0  0  0  0  0  0  0  0  0
   -0.1052    1.9265    1.4663 N   0  0  0  0  0  0  0  0  0  0  0  0
    0.7810    1.4586    1.6201 H   0  0  0  0  0  0  0  0  0  0  0  0
   -0.2724    3.2715    2.0119 C   0  0  0  0  0  0  0  0  0  0  0  0
   -1.3249    3.4549    2.2426 H   0  0  0  0  0  0  0  0  0  0  0  0
    0.3167    3.3776    2.9239 H   0  0  0  0  0  0  0  0  0  0  0  0
    0.0609    4.0073    1.2782 H   0  0  0  0  0  0  0  0  0  0  0  0
  5  6  2  0  0  0  0
  5  7  1  0  0  0  0
  2  3  1  0  0  0  0
  2  4  1  0  0  0  0
  2  5  1  0  0  0  0
  1  2  1  0  0  0  0
 22 23  2  0  0  0  0
 22 24  1  0  0  0  0
 20 21  1  0  0  0  0
 18 19  1  0  0  0  0
 18 20  1  0  0  0  0
 16 17  1  0  0  0  0
 16 18  1  0  0  0  0
 15 16  2  0  0  0  0
 14 15  1  0  0  0  0
 14 20  2  0  0  0  0
 11 12  1  0  0  0  0
 11 13  1  0  0  0  0
 11 14  1  0  0  0  0
  9 10  1  0  0  0  0
  9 11  1  0  0  0  0
  9 22  1  0  0  0  0
  7  8  1  0  0  0  0
  7  9  1  0  0  0  0
 26 27  1  0  0  0  0
 26 28  1  0  0  0  0
 26 29  1  0  0  0  0
 24 25  1  0  0  0  0
 24 26  1  0  0  0  0
M  END
$$$$
default_name
  -OEChem-02102213163D

 29 29  0     1  0  0  0  0  0999 V2000
   -2.9561   -3.9186    1.3887 H   0  0  0  0  0  0  0  0  0  0  0  0
   -3.1191   -2.9346    0.9517 C   0  0  0  0  0  0  0  0  0  0  0  0
   -3.7811   -2.3546    1.5917 H   0  0  0  0  0  0  0  0  0  0  0  0
   -3.5591   -3.0406   -0.0383 H   0  0  0  0  0  0  0  0  0  0  0  0
   -1.7921   -2.2226    0.8327 C   0  0  0  0  0  0  0  0  0  0  0  0
   -0.7611   -2.7766    1.1927 O   0  0  0  0  0  0  0  0  0  0  0  0
   -1.8201   -0.9926    0.3247 N   0  0  0  0  0  0  0  0  0  0  0  0
   -2.7141   -0.5816    0.0927 H   0  0  0  0  0  0  0  0  0  0  0  0
   -0.6481   -0.1156    0.2017 C   0  0  1  0  0  0  0  0  0  0  0  0
    0.1344   -0.4988    0.8596 H   0  0  0  0  0  0  0  0  0  0  0  0
   -0.1211   -0.1520   -1.2460 C   0  0  0  0  0  0  0  0  0  0  0  0
    0.7942   -0.7440   -1.2909 H   0  0  0  0  0  0  0  0  0  0  0  0
   -0.8552   -0.6328   -1.8940 H   0  0  0  0  0  0  0  0  0  0  0  0
    0.2045    1.2192   -1.7864 C   0  0  0  0  0  0  0  0  0  0  0  0
    1.4555    1.6454   -2.2346 N   0  0  0  0  0  0  0  0  0  0  0  0
    1.2835    2.9023   -2.6690 C   0  0  0  0  0  0  0  0  0  0  0  0
    2.0726    3.5244   -3.0723 H   0  0  0  0  0  0  0  0  0  0  0  0
   -0.0020    3.2715   -2.5409 N   0  0  0  0  0  0  0  0  0  0  0  0
   -0.3856    4.1651   -2.8168 H   0  0  0  0  0  0  0  0  0  0  0  0
   -0.6999    2.2203   -1.9890 C   0  0  0  0  0  0  0  0  0  0  0  0
   -1.7595    2.1715   -1.7720 H   0  0  0  0  0  0  0  0  0  0  0  0
   -0.9851    1.3114    0.6698 C   0  0  0  0  0  0  0  0  0  0  0  0
   -2.0377    1.8431    0.3168 O   0  0  0  0  0  0  0  0  0  0  0  0
   -0.1052    1.9265    1.4663 N   0  0  0  0  0  0  0  0  0  0  0  0
    0.7810    1.4586    1.6201 H   0  0  0  0  0  0  0  0  0  0  0  0
   -0.2724    3.2715    2.0119 C   0  0  0  0  0  0  0  0  0  0  0  0
   -1.3249    3.4549    2.2426 H   0  0  0  0  0  0  0  0  0  0  0  0
    0.3167    3.3776    2.9239 H   0  0  0  0  0  0  0  0  0  0  0  0
    0.0609    4.0073    1.2782 H   0  0  0  0  0  0  0  0  0  0  0  0
  5  6  2  0  0  0  0
  5  7  1  0  0  0  0
  2  3  1  0  0  0  0
  2  4  1  0  0  0  0
  2  5  1  0  0  0  0
  1  2  1  0  0  0  0
 22 23  2  0  0  0  0
 22 24  1  0  0  0  0
 20 21  1  0  0  0  0
 18 19  1  0  0  0  0
 18 20  1  0  0  0  0
 16 17  1  0  0  0  0
 16 18  1  0  0  0  0
 15 16  2  0  0  0  0
 14 15  1  0  0  0  0
 14 20  2  0  0  0  0
 11 12  1  0  0  0  0
 11 13  1  0  0  0  0
 11 14  1  0  0  0  0
  9 10  1  0  0  0  0
  9 11  1  0  0  0  0
  9 22  1  0  0  0  0
  7  8  1  0  0  0  0
  7  9  1  0  0  0  0
 26 27  1  0  0  0  0
 26 28  1  0  0  0  0
 26 29  1  0  0  0  0
 24 25  1  0  0  0  0
 24 26  1  0  0  0  0
M  END
$$$$
default_name
  -OEChem-02102213163D

 29 29  0     1  0  0  0  0  0999 V2000
   -2.9561   -3.9186    1.3887 H   0  0  0  0  0  0  0  0  0  0  0  0
   -3.1191   -2.9346    0.9517 C   0  0  0  0  0  0  0  0  0  0  0  0
   -3.7811   -2.3546    1.5917 H   0  0  0  0  0  0  0  0  0  0  0  0
   -3.5591   -3.0406   -0.0383 H   0  0  0  0  0  0  0  0  0  0  0  0
   -1.7921   -2.2226    0.8327 C   0  0  0  0  0  0  0  0  0  0  0  0
   -0.7611   -2.7766    1.1927 O   0  0  0  0  0  0  0  0  0  0  0  0
   -1.8201   -0.9926    0.3247 N   0  0  0  0  0  0  0  0  0  0  0  0
   -2.7141   -0.5816    0.0927 H   0  0  0  0  0  0  0  0  0  0  0  0
   -0.6481   -0.1156    0.2017 C   0  0  1  0  0  0  0  0  0  0  0  0
    0.1344   -0.4988    0.8596 H   0  0  0  0  0  0  0  0  0  0  0  0
   -0.1211   -0.1520   -1.2460 C   0  0  0  0  0  0  0  0  0  0  0  0
    0.7942   -0.7440   -1.2909 H   0  0  0  0  0  0  0  0  0  0  0  0
   -0.8552   -0.6328   -1.8940 H   0  0  0  0  0  0  0  0  0  0  0  0
    0.2045    1.2192   -1.7864 C   0  0  0  0  0  0  0  0  0  0  0  0
    1.3530    1.5652   -2.4996 N   0  0  0  0  0  0  0  0  0  0  0  0
    1.2105    2.8586   -2.8240 C   0  0  0  0  0  0  0  0  0  0  0  0
    1.9420    3.4361   -3.3751 H   0  0  0  0  0  0  0  0  0  0  0  0
    0.0332    3.3275   -2.3776 N   0  0  0  0  0  0  0  0  0  0  0  0
   -0.3133    4.2673   -2.5140 H   0  0  0  0  0  0  0  0  0  0  0  0
   -0.6181    2.3057   -1.7232 C   0  0  0  0  0  0  0  0  0  0  0  0
   -1.5978    2.3337   -1.2629 H   0  0  0  0  0  0  0  0  0  0  0  0
   -0.9851    1.3114    0.6698 C   0  0  0  0  0  0  0  0  0  0  0  0
   -2.0377    1.8431    0.3168 O   0  0  0  0  0  0  0  0  0  0  0  0
   -0.1052    1.9265    1.4663 N   0  0  0  0  0  0  0  0  0  0  0  0
    0.7810    1.4586    1.6201 H   0  0  0  0  0  0  0  0  0  0  0  0
   -0.2724    3.2715    2.0119 C   0  0  0  0  0  0  0  0  0  0  0  0
   -1.3249    3.4549    2.2426 H   0  0  0  0  0  0  0  0  0  0  0  0
    0.3167    3.3776    2.9239 H   0  0  0  0  0  0  0  0  0  0  0  0
    0.0609    4.0073    1.2782 H   0  0  0  0  0  0  0  0  0  0  0  0
  5  6  2  0  0  0  0
  5  7  1  0  0  0  0
  2  3  1  0  0  0  0
  2  4  1  0  0  0  0
  2  5  1  0  0  0  0
  1  2  1  0  0  0  0
 22 23  2  0  0  0  0
 22 24  1  0  0  0  0
 20 21  1  0  0  0  0
 18 19  1  0  0  0  0
 18 20  1  0  0  0  0
 16 17  1  0  0  0  0
 16 18  1  0  0  0  0
 15 16  2  0  0  0  0
 14 15  1  0  0  0  0
 14 20  2  0  0  0  0
 11 12  1  0  0  0  0
 11 13  1  0  0  0  0
 11 14  1  0  0  0  0
  9 10  1  0  0  0  0
  9 11  1  0  0  0  0
  9 22  1  0  0  0  0
  7  8  1  0  0  0  0
  7  9  1  0  0  0  0
 26 27  1  0  0  0  0
 26 28  1  0  0  0  0
 26 29  1  0  0  0  0
 24 25  1  0  0  0  0
 24 26  1  0  0  0  0
M  END
$$$$
default_name
  -OEChem-02102213163D

 29 29  0     1  0  0  0  0  0999 V2000
   -2.9561   -3.9186    1.3887 H   0  0  0  0  0  0  0  0  0  0  0  0
   -3.1191   -2.9346    0.9517 C   0  0  0  0  0  0  0  0  0  0  0  0
   -3.7811   -2.3546    1.5917 H   0  0  0  0  0  0  0  0  0  0  0  0
   -3.5591   -3.0406   -0.0383 H   0  0  0  0  0  0  0  0  0  0  0  0
   -1.7921   -2.2226    0.8327 C   0  0  0  0  0  0  0  0  0  0  0  0
   -0.7611   -2.7766    1.1927 O   0  0  0  0  0  0  0  0  0  0  0  0
   -1.8201   -0.9926    0.3247 N   0  0  0  0  0  0  0  0  0  0  0  0
   -2.7141   -0.5816    0.0927 H   0  0  0  0  0  0  0  0  0  0  0  0
   -0.6481   -0.1156    0.2017 C   0  0  1  0  0  0  0  0  0  0  0  0
    0.1344   -0.4988    0.8596 H   0  0  0  0  0  0  0  0  0  0  0  0
   -0.1211   -0.1520   -1.2460 C   0  0  0  0  0  0  0  0  0  0  0  0
    0.7942   -0.7440   -1.2909 H   0  0  0  0  0  0  0  0  0  0  0  0
   -0.8552   -0.6328   -1.8940 H   0  0  0  0  0  0  0  0  0  0  0  0
    0.2045    1.2192   -1.7864 C   0  0  0  0  0  0  0  0  0  0  0  0
    1.1842    1.5121   -2.7360 N   0  0  0  0  0  0  0  0  0  0  0  0
    1.0995    2.8317   -2.9590 C   0  0  0  0  0  0  0  0  0  0  0  0
    1.7365    3.3798   -3.6418 H   0  0  0  0  0  0  0  0  0  0  0  0
    0.1108    3.3692   -2.2249 N   0  0  0  0  0  0  0  0  0  0  0  0
   -0.1628    4.3423   -2.2329 H   0  0  0  0  0  0  0  0  0  0  0  0
   -0.4687    2.3657   -1.4809 C   0  0  0  0  0  0  0  0  0  0  0  0
   -1.3068    2.4471   -0.8001 H   0  0  0  0  0  0  0  0  0  0  0  0
   -0.9851    1.3114    0.6698 C   0  0  0  0  0  0  0  0  0  0  0  0
   -2.0377    1.8431    0.3168 O   0  0  0  0  0  0  0  0  0  0  0  0
   -0.1052    1.9265    1.4663 N   0  0  0  0  0  0  0  0  0  0  0  0
    0.7810    1.4586    1.6201 H   0  0  0  0  0  0  0  0  0  0  0  0
   -0.2724    3.2715    2.0119 C   0  0  0  0  0  0  0  0  0  0  0  0
   -1.3249    3.4549    2.2426 H   0  0  0  0  0  0  0  0  0  0  0  0
    0.3167    3.3776    2.9239 H   0  0  0  0  0  0  0  0  0  0  0  0
    0.0609    4.0073    1.2782 H   0  0  0  0  0  0  0  0  0  0  0  0
  5  6  2  0  0  0  0
  5  7  1  0  0  0  0
  2  3  1  0  0  0  0
  2  4  1  0  0  0  0
  2  5  1  0  0  0  0
  1  2  1  0  0  0  0
 22 23  2  0  0  0  0
 22 24  1  0  0  0  0
 20 21  1  0  0  0  0
 18 19  1  0  0  0  0
 18 20  1  0  0  0  0
 16 17  1  0  0  0  0
 16 18  1  0  0  0  0
 15 16  2  0  0  0  0
 14 15  1  0  0  0  0
 14 20  2  0  0  0  0
 11 12  1  0  0  0  0
 11 13  1  0  0  0  0
 11 14  1  0  0  0  0
  9 10  1  0  0  0  0
  9 11  1  0  0  0  0
  9 22  1  0  0  0  0
  7  8  1  0  0  0  0
  7  9  1  0  0  0  0
 26 27  1  0  0  0  0
 26 28  1  0  0  0  0
 26 29  1  0  0  0  0
 24 25  1  0  0  0  0
 24 26  1  0  0  0  0
M  END
$$$$
default_name
  -OEChem-02102213163D

 29 29  0     1  0  0  0  0  0999 V2000
   -2.9561   -3.9186    1.3887 H   0  0  0  0  0  0  0  0  0  0  0  0
   -3.1191   -2.9346    0.9517 C   0  0  0  0  0  0  0  0  0  0  0  0
   -3.7811   -2.3546    1.5917 H   0  0  0  0  0  0  0  0  0  0  0  0
   -3.5591   -3.0406   -0.0383 H   0  0  0  0  0  0  0  0  0  0  0  0
   -1.7921   -2.2226    0.8327 C   0  0  0  0  0  0  0  0  0  0  0  0
   -0.7611   -2.7766    1.1927 O   0  0  0  0  0  0  0  0  0  0  0  0
   -1.8201   -0.9926    0.3247 N   0  0  0  0  0  0  0  0  0  0  0  0
   -2.7141   -0.5816    0.0927 H   0  0  0  0  0  0  0  0  0  0  0  0
   -0.6481   -0.1156    0.2017 C   0  0  1  0  0  0  0  0  0  0  0  0
    0.1344   -0.4988    0.8596 H   0  0  0  0  0  0  0  0  0  0  0  0
   -0.1211   -0.1520   -1.2460 C   0  0  0  0  0  0  0  0  0  0  0  0
    0.7942   -0.7440   -1.2909 H   0  0  0  0  0  0  0  0  0  0  0  0
   -0.8552   -0.6328   -1.8940 H   0  0  0  0  0  0  0  0  0  0  0  0
    0.2045    1.2192   -1.7864 C   0  0  0  0  0  0  0  0  0  0  0  0
    0.9608    1.4897   -2.9276 N   0  0  0  0  0  0  0  0  0  0  0  0
    0.9580    2.8236   -3.0648 C   0  0  0  0  0  0  0  0  0  0  0  0
    1.4700    3.3593   -3.8542 H   0  0  0  0  0  0  0  0  0  0  0  0
    0.2255    3.3938   -2.0934 N   0  0  0  0  0  0  0  0  0  0  0  0
    0.0556    4.3852   -1.9925 H   0  0  0  0  0  0  0  0  0  0  0  0
   -0.2619    2.3963   -1.2785 C   0  0  0  0  0  0  0  0  0  0  0  0
   -0.9063    2.5037   -0.4151 H   0  0  0  0  0  0  0  0  0  0  0  0
   -0.9851    1.3114    0.6698 C   0  0  0  0  0  0  0  0  0  0  0  0
   -2.0377    1.8431    0.3168 O   0  0  0  0  0  0  0  0  0  0  0  0
   -0.1052    1.9265    1.4663 N   0  0  0  0  0  0  0  0  0  0  0  0
    0.7810    1.4586    1.6201 H   0  0  0  0  0  0  0  0  0  0  0  0
   -0.2724    3.2715    2.0119 C   0  0  0  0  0  0  0  0  0  0  0  0
   -1.3249    3.4549    2.2426 H   0  0  0  0  0  0  0  0  0  0  0  0
    0.3167    3.3776    2.9239 H   0  0  0  0  0  0  0  0  0  0  0  0
    0.0609    4.0073    1.2782 H   0  0  0  0  0  0  0  0  0  0  0  0
  5  6  2  0  0  0  0
  5  7  1  0  0  0  0
  2  3  1  0  0  0  0
  2  4  1  0  0  0  0
  2  5  1  0  0  0  0
  1  2  1  0  0  0  0
 22 23  2  0  0  0  0
 22 24  1  0  0  0  0
 20 21  1  0  0  0  0
 18 19  1  0  0  0  0
 18 20  1  0  0  0  0
 16 17  1  0  0  0  0
 16 18  1  0  0  0  0
 15 16  2  0  0  0  0
 14 15  1  0  0  0  0
 14 20  2  0  0  0  0
 11 12  1  0  0  0  0
 11 13  1  0  0  0  0
 11 14  1  0  0  0  0
  9 10  1  0  0  0  0
  9 11  1  0  0  0  0
  9 22  1  0  0  0  0
  7  8  1  0  0  0  0
  7  9  1  0  0  0  0
 26 27  1  0  0  0  0
 26 28  1  0  0  0  0
 26 29  1  0  0  0  0
 24 25  1  0  0  0  0
 24 26  1  0  0  0  0
M  END
$$$$
default_name
  -OEChem-02102213163D

 29 29  0     1  0  0  0  0  0999 V2000
   -2.9561   -3.9186    1.3887 H   0  0  0  0  0  0  0  0  0  0  0  0
   -3.1191   -2.9346    0.9517 C   0  0  0  0  0  0  0  0  0  0  0  0
   -3.7811   -2.3546    1.5917 H   0  0  0  0  0  0  0  0  0  0  0  0
   -3.5591   -3.0406   -0.0383 H   0  0  0  0  0  0  0  0  0  0  0  0
   -1.7921   -2.2226    0.8327 C   0  0  0  0  0  0  0  0  0  0  0  0
   -0.7611   -2.7766    1.1927 O   0  0  0  0  0  0  0  0  0  0  0  0
   -1.8201   -0.9926    0.3247 N   0  0  0  0  0  0  0  0  0  0  0  0
   -2.7141   -0.5816    0.0927 H   0  0  0  0  0  0  0  0  0  0  0  0
   -0.6481   -0.1156    0.2017 C   0  0  1  0  0  0  0  0  0  0  0  0
    0.1344   -0.4988    0.8596 H   0  0  0  0  0  0  0  0  0  0  0  0
   -0.1211   -0.1520   -1.2460 C   0  0  0  0  0  0  0  0  0  0  0  0
    0.6236   -0.9427   -1.3480 H   0  0  0  0  0  0  0  0  0  0  0  0
   -0.9388   -0.3808   -1.9308 H   0  0  0  0  0  0  0  0  0  0  0  0
    0.5369    1.1406   -1.6634 C   0  0  0  0  0  0  0  0  0  0  0  0
    1.1051    1.4032   -2.9107 N   0  0  0  0  0  0  0  0  0  0  0  0
    1.5257    2.6757   -2.8644 C   0  0  0  0  0  0  0  0  0  0  0  0
    2.0260    3.1855   -3.6781 H   0  0  0  0  0  0  0  0  0  0  0  0
    1.2300    3.2247   -1.6743 N   0  0  0  0  0  0  0  0  0  0  0  0
    1.4270    4.1785   -1.4035 H   0  0  0  0  0  0  0  0  0  0  0  0
    0.6017    2.2719   -0.9036 C   0  0  0  0  0  0  0  0  0  0  0  0
    0.2103    2.3856    0.0995 H   0  0  0  0  0  0  0  0  0  0  0  0
   -0.9851    1.3114    0.6698 C   0  0  0  0  0  0  0  0  0  0  0  0
   -2.0377    1.8431    0.3168 O   0  0  0  0  0  0  0  0  0  0  0  0
   -0.1052    1.9265    1.4663 N   0  0  0  0  0  0  0  0  0  0  0  0
    0.7810    1.4586    1.6201 H   0  0  0  0  0  0  0  0  0  0  0  0
   -0.2724    3.2715    2.0119 C   0  0  0  0  0  0  0  0  0  0  0  0
   -1.3249    3.4549    2.2426 H   0  0  0  0  0  0  0  0  0  0  0  0
    0.3167    3.3776    2.9239 H   0  0  0  0  0  0  0  0  0  0  0  0
    0.0609    4.0073    1.2782 H   0  0  0  0  0  0  0  0  0  0  0  0
  5  6  2  0  0  0  0
  5  7  1  0  0  0  0
  2  3  1  0  0  0  0
  2  4  1  0  0  0  0
  2  5  1  0  0  0  0
  1  2  1  0  0  0  0
 22 23  2  0  0  0  0
 22 24  1  0  0  0  0
 20 21  1  0  0  0  0
 18 19  1  0  0  0  0
 18 20  1  0  0  0  0
 16 17  1  0  0  0  0
 16 18  1  0  0  0  0
 15 16  2  0  0  0  0
 14 15  1  0  0  0  0
 14 20  2  0  0  0  0
 11 12  1  0  0  0  0
 11 13  1  0  0  0  0
 11 14  1  0  0  0  0
  9 10  1  0  0  0  0
  9 11  1  0  0  0  0
  9 22  1  0  0  0  0
  7  8  1  0  0  0  0
  7  9  1  0  0  0  0
 26 27  1  0  0  0  0
 26 28  1  0  0  0  0
 26 29  1  0  0  0  0
 24 25  1  0  0  0  0
 24 26  1  0  0  0  0
M  END
$$$$
default_name
  -OEChem-02102213163D

 29 29  0     1  0  0  0  0  0999 V2000
   -2.9561   -3.9186    1.3887 H   0  0  0  0  0  0  0  0  0  0  0  0
   -3.1191   -2.9346    0.9517 C   0  0  0  0  0  0  0  0  0  0  0  0
   -3.7811   -2.3546    1.5917 H   0  0  0  0  0  0  0  0  0  0  0  0
   -3.5591   -3.0406   -0.0383 H   0  0  0  0  0  0  0  0  0  0  0  0
   -1.7921   -2.2226    0.8327 C   0  0  0  0  0  0  0  0  0  0  0  0
   -0.7611   -2.7766    1.1927 O   0  0  0  0  0  0  0  0  0  0  0  0
   -1.8201   -0.9926    0.3247 N   0  0  0  0  0  0  0  0  0  0  0  0
   -2.7141   -0.5816    0.0927 H   0  0  0  0  0  0  0  0  0  0  0  0
   -0.6481   -0.1156    0.2017 C   0  0  1  0  0  0  0  0  0  0  0  0
    0.1344   -0.4988    0.8596 H   0  0  0  0  0  0  0  0  0  0  0  0
   -0.1211   -0.1520   -1.2460 C   0  0  0  0  0  0  0  0  0  0  0  0
    0.6236   -0.9427   -1.3480 H   0  0  0  0  0  0  0  0  0  0  0  0
   -0.9388   -0.3808   -1.9308 H   0  0  0  0  0  0  0  0  0  0  0  0
    0.5369    1.1406   -1.6634 C   0  0  0  0  0  0  0  0  0  0  0  0
    0.8403    1.5181   -2.9722 N   0  0  0  0  0  0  0  0  0  0  0  0
    1.3666    2.7487   -2.8890 C   0  0  0  0  0  0  0  0  0  0  0  0
    1.7190    3.3228   -3.7366 H   0  0  0  0  0  0  0  0  0  0  0  0
    1.3842    3.1663   -1.6121 N   0  0  0  0  0  0  0  0  0  0  0  0
    1.7151    4.0671   -1.2943 H   0  0  0  0  0  0  0  0  0  0  0  0
    0.8605    2.1660   -0.8236 C   0  0  0  0  0  0  0  0  0  0  0  0
    0.7078    2.1804    0.2482 H   0  0  0  0  0  0  0  0  0  0  0  0
   -0.9851    1.3114    0.6698 C   0  0  0  0  0  0  0  0  0  0  0  0
   -2.0377    1.8431    0.3168 O   0  0  0  0  0  0  0  0  0  0  0  0
   -0.1052    1.9265    1.4663 N   0  0  0  0  0  0  0  0  0  0  0  0
    0.7810    1.4586    1.6201 H   0  0  0  0  0  0  0  0  0  0  0  0
   -0.2724    3.2715    2.0119 C   0  0  0  0  0  0  0  0  0  0  0  0
   -1.3249    3.4549    2.2426 H   0  0  0  0  0  0  0  0  0  0  0  0
    0.3167    3.3776    2.9239 H   0  0  0  0  0  0  0  0  0  0  0  0
    0.0609    4.0073    1.2782 H   0  0  0  0  0  0  0  0  0  0  0  0
  5  6  2  0  0  0  0
  5  7  1  0  0  0  0
  2  3  1  0  0  0  0
  2  4  1  0  0  0  0
  2  5  1  0  0  0  0
  1  2  1  0  0  0  0
 22 23  2  0  0  0  0
 22 24  1  0  0  0  0
 20 21  1  0  0  0  0
 18 19  1  0  0  0  0
 18 20  1  0  0  0  0
 16 17  1  0  0  0  0
 16 18  1  0  0  0  0
 15 16  2  0  0  0  0
 14 15  1  0  0  0  0
 14 20  2  0  0  0  0
 11 12  1  0  0  0  0
 11 13  1  0  0  0  0
 11 14  1  0  0  0  0
  9 10  1  0  0  0  0
  9 11  1  0  0  0  0
  9 22  1  0  0  0  0
  7  8  1  0  0  0  0
  7  9  1  0  0  0  0
 26 27  1  0  0  0  0
 26 28  1  0  0  0  0
 26 29  1  0  0  0  0
 24 25  1  0  0  0  0
 24 26  1  0  0  0  0
M  END
$$$$
default_name
  -OEChem-02102213163D

 29 29  0     1  0  0  0  0  0999 V2000
   -2.9561   -3.9186    1.3887 H   0  0  0  0  0  0  0  0  0  0  0  0
   -3.1191   -2.9346    0.9517 C   0  0  0  0  0  0  0  0  0  0  0  0
   -3.7811   -2.3546    1.5917 H   0  0  0  0  0  0  0  0  0  0  0  0
   -3.5591   -3.0406   -0.0383 H   0  0  0  0  0  0  0  0  0  0  0  0
   -1.7921   -2.2226    0.8327 C   0  0  0  0  0  0  0  0  0  0  0  0
   -0.7611   -2.7766    1.1927 O   0  0  0  0  0  0  0  0  0  0  0  0
   -1.8201   -0.9926    0.3247 N   0  0  0  0  0  0  0  0  0  0  0  0
   -2.7141   -0.5816    0.0927 H   0  0  0  0  0  0  0  0  0  0  0  0
   -0.6481   -0.1156    0.2017 C   0  0  1  0  0  0  0  0  0  0  0  0
    0.1344   -0.4988    0.8596 H   0  0  0  0  0  0  0  0  0  0  0  0
   -0.1211   -0.1520   -1.2460 C   0  0  0  0  0  0  0  0  0  0  0  0
    0.6236   -0.9427   -1.3480 H   0  0  0  0  0  0  0  0  0  0  0  0
   -0.9388   -0.3808   -1.9308 H   0  0  0  0  0  0  0  0  0  0  0  0
    0.5369    1.1406   -1.6634 C   0  0  0  0  0  0  0  0  0  0  0  0
    0.5790    1.6551   -2.9599 N   0  0  0  0  0  0  0  0  0  0  0  0
    1.2126    2.8335   -2.8693 C   0  0  0  0  0  0  0  0  0  0  0  0
    1.4194    3.4841   -3.7096 H   0  0  0  0  0  0  0  0  0  0  0  0
    1.5428    3.0918   -1.5927 N   0  0  0  0  0  0  0  0  0  0  0  0
    2.0096    3.9266   -1.2654 H   0  0  0  0  0  0  0  0  0  0  0  0
    1.1207    2.0361   -0.8157 C   0  0  0  0  0  0  0  0  0  0  0  0
    1.2066    1.9298    0.2584 H   0  0  0  0  0  0  0  0  0  0  0  0
   -0.9851    1.3114    0.6698 C   0  0  0  0  0  0  0  0  0  0  0  0
   -2.0377    1.8431    0.3168 O   0  0  0  0  0  0  0  0  0  0  0  0
   -0.1052    1.9265    1.4663 N   0  0  0  0  0  0  0  0  0  0  0  0
    0.7810    1.4586    1.6201 H   0  0  0  0  0  0  0  0  0  0  0  0
   -0.2724    3.2715    2.0119 C   0  0  0  0  0  0  0  0  0  0  0  0
   -1.3249    3.4549    2.2426 H   0  0  0  0  0  0  0  0  0  0  0  0
    0.3167    3.3776    2.9239 H   0  0  0  0  0  0  0  0  0  0  0  0
    0.0609    4.0073    1.2782 H   0  0  0  0  0  0  0  0  0  0  0  0
  5  6  2  0  0  0  0
  5  7  1  0  0  0  0
  2  3  1  0  0  0  0
  2  4  1  0  0  0  0
  2  5  1  0  0  0  0
  1  2  1  0  0  0  0
 22 23  2  0  0  0  0
 22 24  1  0  0  0  0
 20 21  1  0  0  0  0
 18 19  1  0  0  0  0
 18 20  1  0  0  0  0
 16 17  1  0  0  0  0
 16 18  1  0  0  0  0
 15 16  2  0  0  0  0
 14 15  1  0  0  0  0
 14 20  2  0  0  0  0
 11 12  1  0  0  0  0
 11 13  1  0  0  0  0
 11 14  1  0  0  0  0
  9 10  1  0  0  0  0
  9 11  1  0  0  0  0
  9 22  1  0  0  0  0
  7  8  1  0  0  0  0
  7  9  1  0  0  0  0
 26 27  1  0  0  0  0
 26 28  1  0  0  0  0
 26 29  1  0  0  0  0
 24 25  1  0  0  0  0
 24 26  1  0  0  0  0
M  END
$$$$
default_name
  -OEChem-02102213163D

 29 29  0     1  0  0  0  0  0999 V2000
   -2.9561   -3.9186    1.3887 H   0  0  0  0  0  0  0  0  0  0  0  0
   -3.1191   -2.9346    0.9517 C   0  0  0  0  0  0  0  0  0  0  0  0
   -3.7811   -2.3546    1.5917 H   0  0  0  0  0  0  0  0  0  0  0  0
   -3.5591   -3.0406   -0.0383 H   0  0  0  0  0  0  0  0  0  0  0  0
   -1.7921   -2.2226    0.8327 C   0  0  0  0  0  0  0  0  0  0  0  0
   -0.7611   -2.7766    1.1927 O   0  0  0  0  0  0  0  0  0  0  0  0
   -1.8201   -0.9926    0.3247 N   0  0  0  0  0  0  0  0  0  0  0  0
   -2.7141   -0.5816    0.0927 H   0  0  0  0  0  0  0  0  0  0  0  0
   -0.6481   -0.1156    0.2017 C   0  0  1  0  0  0  0  0  0  0  0  0
    0.1344   -0.4988    0.8596 H   0  0  0  0  0  0  0  0  0  0  0  0
   -0.1211   -0.1520   -1.2460 C   0  0  0  0  0  0  0  0  0  0  0  0
    0.6236   -0.9427   -1.3480 H   0  0  0  0  0  0  0  0  0  0  0  0
   -0.9388   -0.3808   -1.9308 H   0  0  0  0  0  0  0  0  0  0  0  0
    0.5369    1.1406   -1.6634 C   0  0  0  0  0  0  0  0  0  0  0  0
    0.3391    1.8047   -2.8747 N   0  0  0  0  0  0  0  0  0  0  0  0
    1.0744    2.9241   -2.8065 C   0  0  0  0  0  0  0  0  0  0  0  0
    1.1474    3.6583   -3.5990 H   0  0  0  0  0  0  0  0  0  0  0  0
    1.6949    3.0064   -1.6176 N   0  0  0  0  0  0  0  0  0  0  0  0
    2.2904    3.7664   -1.3185 H   0  0  0  0  0  0  0  0  0  0  0  0
    1.3645    1.8911   -0.8804 C   0  0  0  0  0  0  0  0  0  0  0  0
    1.6728    1.6508    0.1294 H   0  0  0  0  0  0  0  0  0  0  0  0
   -0.9851    1.3114    0.6698 C   0  0  0  0  0  0  0  0  0  0  0  0
   -2.0377    1.8431    0.3168 O   0  0  0  0  0  0  0  0  0  0  0  0
   -0.1052    1.9265    1.4663 N   0  0  0  0  0  0  0  0  0  0  0  0
    0.7810    1.4586    1.6201 H   0  0  0  0  0  0  0  0  0  0  0  0
   -0.2724    3.2715    2.0119 C   0  0  0  0  0  0  0  0  0  0  0  0
   -1.3249    3.4549    2.2426 H   0  0  0  0  0  0  0  0  0  0  0  0
    0.3167    3.3776    2.9239 H   0  0  0  0  0  0  0  0  0  0  0  0
    0.0609    4.0073    1.2782 H   0  0  0  0  0  0  0  0  0  0  0  0
  5  6  2  0  0  0  0
  5  7  1  0  0  0  0
  2  3  1  0  0  0  0
  2  4  1  0  0  0  0
  2  5  1  0  0  0  0
  1  2  1  0  0  0  0
 22 23  2  0  0  0  0
 22 24  1  0  0  0  0
 20 21  1  0  0  0  0
 18 19  1  0  0  0  0
 18 20  1  0  0  0  0
 16 17  1  0  0  0  0
 16 18  1  0  0  0  0
 15 16  2  0  0  0  0
 14 15  1  0  0  0  0
 14 20  2  0  0  0  0
 11 12  1  0  0  0  0
 11 13  1  0  0  0  0
 11 14  1  0  0  0  0
  9 10  1  0  0  0  0
  9 11  1  0  0  0  0
  9 22  1  0  0  0  0
  7  8  1  0  0  0  0
  7  9  1  0  0  0  0
 26 27  1  0  0  0  0
 26 28  1  0  0  0  0
 26 29  1  0  0  0  0
 24 25  1  0  0  0  0
 24 26  1  0  0  0  0
M  END
$$$$
default_name
  -OEChem-02102213163D

 29 29  0     1  0  0  0  0  0999 V2000
   -2.9561   -3.9186    1.3887 H   0  0  0  0  0  0  0  0  0  0  0  0
   -3.1191   -2.9346    0.9517 C   0  0  0  0  0  0  0  0  0  0  0  0
   -3.7811   -2.3546    1.5917 H   0  0  0  0  0  0  0  0  0  0  0  0
   -3.5591   -3.0406   -0.0383 H   0  0  0  0  0  0  0  0  0  0  0  0
   -1.7921   -2.2226    0.8327 C   0  0  0  0  0  0  0  0  0  0  0  0
   -0.7611   -2.7766    1.1927 O   0  0  0  0  0  0  0  0  0  0  0  0
   -1.8201   -0.9926    0.3247 N   0  0  0  0  0  0  0  0  0  0  0  0
   -2.7141   -0.5816    0.0927 H   0  0  0  0  0  0  0  0  0  0  0  0
   -0.6481   -0.1156    0.2017 C   0  0  1  0  0  0  0  0  0  0  0  0
    0.1344   -0.4988    0.8596 H   0  0  0  0  0  0  0  0  0  0  0  0
   -0.1211   -0.1520   -1.2460 C   0  0  0  0  0  0  0  0  0  0  0  0
    0.6236   -0.9427   -1.3480 H   0  0  0  0  0  0  0  0  0  0  0  0
   -0.9388   -0.3808   -1.9308 H   0  0  0  0  0  0  0  0  0  0  0  0
    0.5369    1.1406   -1.6634 C   0  0  0  0  0  0  0  0  0  0  0  0
    0.1371    1.9568   -2.7224 N   0  0  0  0  0  0  0  0  0  0  0  0
    0.9612    3.0145   -2.7050 C   0  0  0  0  0  0  0  0  0  0  0  0
    0.9218    3.8335   -3.4121 H   0  0  0  0  0  0  0  0  0  0  0  0
    1.8302    2.9157   -1.6850 N   0  0  0  0  0  0  0  0  0  0  0  0
    2.5384    3.5977   -1.4501 H   0  0  0  0  0  0  0  0  0  0  0  0
    1.5753    1.7409   -1.0132 C   0  0  0  0  0  0  0  0  0  0  0  0
    2.0745    1.3626   -0.1300 H   0  0  0  0  0  0  0  0  0  0  0  0
   -0.9851    1.3114    0.6698 C   0  0  0  0  0  0  0  0  0  0  0  0
   -2.0377    1.8431    0.3168 O   0  0  0  0  0  0  0  0  0  0  0  0
   -0.1052    1.9265    1.4663 N   0  0  0  0  0  0  0  0  0  0  0  0
    0.7810    1.4586    1.6201 H   0  0  0  0  0  0  0  0  0  0  0  0
   -0.2724    3.2715    2.0119 C   0  0  0  0  0  0  0  0  0  0  0  0
   -1.3249    3.4549    2.2426 H   0  0  0  0  0  0  0  0  0  0  0  0
    0.3167    3.3776    2.9239 H   0  0  0  0  0  0  0  0  0  0  0  0
    0.0609    4.0073    1.2782 H   0  0  0  0  0  0  0  0  0  0  0  0
  5  6  2  0  0  0  0
  5  7  1  0  0  0  0
  2  3  1  0  0  0  0
  2  4  1  0  0  0  0
  2  5  1  0  0  0  0
  1  2  1  0  0  0  0
 22 23  2  0  0  0  0
 22 24  1  0  0  0  0
 20 21  1  0  0  0  0
 18 19  1  0  0  0  0
 18 20  1  0  0  0  0
 16 17  1  0  0  0  0
 16 18  1  0  0  0  0
 15 16  2  0  0  0  0
 14 15  1  0  0  0  0
 14 20  2  0  0  0  0
 11 12  1  0  0  0  0
 11 13  1  0  0  0  0
 11 14  1  0  0  0  0
  9 10  1  0  0  0  0
  9 11  1  0  0  0  0
  9 22  1  0  0  0  0
  7  8  1  0  0  0  0
  7  9  1  0  0  0  0
 26 27  1  0  0  0  0
 26 28  1  0  0  0  0
 26 29  1  0  0  0  0
 24 25  1  0  0  0  0
 24 26  1  0  0  0  0
M  END
$$$$
default_name
  -OEChem-02102213163D

 29 29  0     1  0  0  0  0  0999 V2000
   -2.9561   -3.9186    1.3887 H   0  0  0  0  0  0  0  0  0  0  0  0
   -3.1191   -2.9346    0.9517 C   0  0  0  0  0  0  0  0  0  0  0  0
   -3.7811   -2.3546    1.5917 H   0  0  0  0  0  0  0  0  0  0  0  0
   -3.5591   -3.0406   -0.0383 H   0  0  0  0  0  0  0  0  0  0  0  0
   -1.7921   -2.2226    0.8327 C   0  0  0  0  0  0  0  0  0  0  0  0
   -0.7611   -2.7766    1.1927 O   0  0  0  0  0  0  0  0  0  0  0  0
   -1.8201   -0.9926    0.3247 N   0  0  0  0  0  0  0  0  0  0  0  0
   -2.7141   -0.5816    0.0927 H   0  0  0  0  0  0  0  0  0  0  0  0
   -0.6481   -0.1156    0.2017 C   0  0  1  0  0  0  0  0  0  0  0  0
    0.1344   -0.4988    0.8596 H   0  0  0  0  0  0  0  0  0  0  0  0
   -0.1211   -0.1520   -1.2460 C   0  0  0  0  0  0  0  0  0  0  0  0
    0.6236   -0.9427   -1.3480 H   0  0  0  0  0  0  0  0  0  0  0  0
   -0.9388   -0.3808   -1.9308 H   0  0  0  0  0  0  0  0  0  0  0  0
    0.5369    1.1406   -1.6634 C   0  0  0  0  0  0  0  0  0  0  0  0
   -0.0135    2.1009   -2.5133 N   0  0  0  0  0  0  0  0  0  0  0  0
    0.8809    3.0985   -2.5717 C   0  0  0  0  0  0  0  0  0  0  0  0
    0.7577    3.9978   -3.1619 H   0  0  0  0  0  0  0  0  0  0  0  0
    1.9395    2.8261   -1.7904 N   0  0  0  0  0  0  0  0  0  0  0  0
    2.7368    3.4318   -1.6513 H   0  0  0  0  0  0  0  0  0  0  0  0
    1.7387    1.5957   -1.2052 C   0  0  0  0  0  0  0  0  0  0  0  0
    2.3843    1.0847   -0.5021 H   0  0  0  0  0  0  0  0  0  0  0  0
   -0.9851    1.3114    0.6698 C   0  0  0  0  0  0  0  0  0  0  0  0
   -2.0377    1.8431    0.3168 O   0  0  0  0  0  0  0  0  0  0  0  0
   -0.1052    1.9265    1.4663 N   0  0  0  0  0  0  0  0  0  0  0  0
    0.7810    1.4586    1.6201 H   0  0  0  0  0  0  0  0  0  0  0  0
   -0.2724    3.2715    2.0119 C   0  0  0  0  0  0  0  0  0  0  0  0
   -1.3249    3.4549    2.2426 H   0  0  0  0  0  0  0  0  0  0  0  0
    0.3167    3.3776    2.9239 H   0  0  0  0  0  0  0  0  0  0  0  0
    0.0609    4.0073    1.2782 H   0  0  0  0  0  0  0  0  0  0  0  0
  5  6  2  0  0  0  0
  5  7  1  0  0  0  0
  2  3  1  0  0  0  0
  2  4  1  0  0  0  0
  2  5  1  0  0  0  0
  1  2  1  0  0  0  0
 22 23  2  0  0  0  0
 22 24  1  0  0  0  0
 20 21  1  0  0  0  0
 18 19  1  0  0  0  0
 18 20  1  0  0  0  0
 16 17  1  0  0  0  0
 16 18  1  0  0  0  0
 15 16  2  0  0  0  0
 14 15  1  0  0  0  0
 14 20  2  0  0  0  0
 11 12  1  0  0  0  0
 11 13  1  0  0  0  0
 11 14  1  0  0  0  0
  9 10  1  0  0  0  0
  9 11  1  0  0  0  0
  9 22  1  0  0  0  0
  7  8  1  0  0  0  0
  7  9  1  0  0  0  0
 26 27  1  0  0  0  0
 26 28  1  0  0  0  0
 26 29  1  0  0  0  0
 24 25  1  0  0  0  0
 24 26  1  0  0  0  0
M  END
$$$$
default_name
  -OEChem-02102213163D

 29 29  0     1  0  0  0  0  0999 V2000
   -2.9561   -3.9186    1.3887 H   0  0  0  0  0  0  0  0  0  0  0  0
   -3.1191   -2.9346    0.9517 C   0  0  0  0  0  0  0  0  0  0  0  0
   -3.7811   -2.3546    1.5917 H   0  0  0  0  0  0  0  0  0  0  0  0
   -3.5591   -3.0406   -0.0383 H   0  0  0  0  0  0  0  0  0  0  0  0
   -1.7921   -2.2226    0.8327 C   0  0  0  0  0  0  0  0  0  0  0  0
   -0.7611   -2.7766    1.1927 O   0  0  0  0  0  0  0  0  0  0  0  0
   -1.8201   -0.9926    0.3247 N   0  0  0  0  0  0  0  0  0  0  0  0
   -2.7141   -0.5816    0.0927 H   0  0  0  0  0  0  0  0  0  0  0  0
   -0.6481   -0.1156    0.2017 C   0  0  1  0  0  0  0  0  0  0  0  0
    0.1344   -0.4988    0.8596 H   0  0  0  0  0  0  0  0  0  0  0  0
   -0.1211   -0.1520   -1.2460 C   0  0  0  0  0  0  0  0  0  0  0  0
    0.6236   -0.9427   -1.3480 H   0  0  0  0  0  0  0  0  0  0  0  0
   -0.9388   -0.3808   -1.9308 H   0  0  0  0  0  0  0  0  0  0  0  0
    0.5369    1.1406   -1.6634 C   0  0  0  0  0  0  0  0  0  0  0  0
   -0.1022    2.2274   -2.2617 N   0  0  0  0  0  0  0  0  0  0  0  0
    0.8389    3.1702   -2.4157 C   0  0  0  0  0  0  0  0  0  0  0  0
    0.6665    4.1400   -2.8652 H   0  0  0  0  0  0  0  0  0  0  0  0
    2.0152    2.7436   -1.9264 N   0  0  0  0  0  0  0  0  0  0  0  0
    2.8718    3.2800   -1.9083 H   0  0  0  0  0  0  0  0  0  0  0  0
    1.8436    1.4654   -1.4433 C   0  0  0  0  0  0  0  0  0  0  0  0
    2.5813    0.8360   -0.9616 H   0  0  0  0  0  0  0  0  0  0  0  0
   -0.9851    1.3114    0.6698 C   0  0  0  0  0  0  0  0  0  0  0  0
   -2.0377    1.8431    0.3168 O   0  0  0  0  0  0  0  0  0  0  0  0
   -0.1052    1.9265    1.4663 N   0  0  0  0  0  0  0  0  0  0  0  0
    0.7810    1.4586    1.6201 H   0  0  0  0  0  0  0  0  0  0  0  0
   -0.2724    3.2715    2.0119 C   0  0  0  0  0  0  0  0  0  0  0  0
   -1.3249    3.4549    2.2426 H   0  0  0  0  0  0  0  0  0  0  0  0
    0.3167    3.3776    2.9239 H   0  0  0  0  0  0  0  0  0  0  0  0
    0.0609    4.0073    1.2782 H   0  0  0  0  0  0  0  0  0  0  0  0
  5  6  2  0  0  0  0
  5  7  1  0  0  0  0
  2  3  1  0  0  0  0
  2  4  1  0  0  0  0
  2  5  1  0  0  0  0
  1  2  1  0  0  0  0
 22 23  2  0  0  0  0
 22 24  1  0  0  0  0
 20 21  1  0  0  0  0
 18 19  1  0  0  0  0
 18 20  1  0  0  0  0
 16 17  1  0  0  0  0
 16 18  1  0  0  0  0
 15 16  2  0  0  0  0
 14 15  1  0  0  0  0
 14 20  2  0  0  0  0
 11 12  1  0  0  0  0
 11 13  1  0  0  0  0
 11 14  1  0  0  0  0
  9 10  1  0  0  0  0
  9 11  1  0  0  0  0
  9 22  1  0  0  0  0
  7  8  1  0  0  0  0
  7  9  1  0  0  0  0
 26 27  1  0  0  0  0
 26 28  1  0  0  0  0
 26 29  1  0  0  0  0
 24 25  1  0  0  0  0
 24 26  1  0  0  0  0
M  END
$$$$
default_name
  -OEChem-02102213163D

 29 29  0     1  0  0  0  0  0999 V2000
   -2.9561   -3.9186    1.3887 H   0  0  0  0  0  0  0  0  0  0  0  0
   -3.1191   -2.9346    0.9517 C   0  0  0  0  0  0  0  0  0  0  0  0
   -3.7811   -2.3546    1.5917 H   0  0  0  0  0  0  0  0  0  0  0  0
   -3.5591   -3.0406   -0.0383 H   0  0  0  0  0  0  0  0  0  0  0  0
   -1.7921   -2.2226    0.8327 C   0  0  0  0  0  0  0  0  0  0  0  0
   -0.7611   -2.7766    1.1927 O   0  0  0  0  0  0  0  0  0  0  0  0
   -1.8201   -0.9926    0.3247 N   0  0  0  0  0  0  0  0  0  0  0  0
   -2.7141   -0.5816    0.0927 H   0  0  0  0  0  0  0  0  0  0  0  0
   -0.6481   -0.1156    0.2017 C   0  0  1  0  0  0  0  0  0  0  0  0
    0.1344   -0.4988    0.8596 H   0  0  0  0  0  0  0  0  0  0  0  0
   -0.1211   -0.1520   -1.2460 C   0  0  0  0  0  0  0  0  0  0  0  0
    0.6236   -0.9427   -1.3480 H   0  0  0  0  0  0  0  0  0  0  0  0
   -0.9388   -0.3808   -1.9308 H   0  0  0  0  0  0  0  0  0  0  0  0
    0.5369    1.1406   -1.6634 C   0  0  0  0  0  0  0  0  0  0  0  0
   -0.1231    2.3275   -1.9847 N   0  0  0  0  0  0  0  0  0  0  0  0
    0.8380    3.2250   -2.2476 C   0  0  0  0  0  0  0  0  0  0  0  0
    0.6544    4.2505   -2.5424 H   0  0  0  0  0  0  0  0  0  0  0  0
    2.0524    2.6738   -2.0840 N   0  0  0  0  0  0  0  0  0  0  0  0
    2.9345    3.1527   -2.2036 H   0  0  0  0  0  0  0  0  0  0  0  0
    1.8828    1.3589   -1.7112 C   0  0  0  0  0  0  0  0  0  0  0  0
    2.6518    0.6336   -1.4771 H   0  0  0  0  0  0  0  0  0  0  0  0
   -0.9851    1.3114    0.6698 C   0  0  0  0  0  0  0  0  0  0  0  0
   -2.0377    1.8431    0.3168 O   0  0  0  0  0  0  0  0  0  0  0  0
   -0.1052    1.9265    1.4663 N   0  0  0  0  0  0  0  0  0  0  0  0
    0.7810    1.4586    1.6201 H   0  0  0  0  0  0  0  0  0  0  0  0
   -0.2724    3.2715    2.0119 C   0  0  0  0  0  0  0  0  0  0  0  0
   -1.3249    3.4549    2.2426 H   0  0  0  0  0  0  0  0  0  0  0  0
    0.3167    3.3776    2.9239 H   0  0  0  0  0  0  0  0  0  0  0  0
    0.0609    4.0073    1.2782 H   0  0  0  0  0  0  0  0  0  0  0  0
  5  6  2  0  0  0  0
  5  7  1  0  0  0  0
  2  3  1  0  0  0  0
  2  4  1  0  0  0  0
  2  5  1  0  0  0  0
  1  2  1  0  0  0  0
 22 23  2  0  0  0  0
 22 24  1  0  0  0  0
 20 21  1  0  0  0  0
 18 19  1  0  0  0  0
 18 20  1  0  0  0  0
 16 17  1  0  0  0  0
 16 18  1  0  0  0  0
 15 16  2  0  0  0  0
 14 15  1  0  0  0  0
 14 20  2  0  0  0  0
 11 12  1  0  0  0  0
 11 13  1  0  0  0  0
 11 14  1  0  0  0  0
  9 10  1  0  0  0  0
  9 11  1  0  0  0  0
  9 22  1  0  0  0  0
  7  8  1  0  0  0  0
  7  9  1  0  0  0  0
 26 27  1  0  0  0  0
 26 28  1  0  0  0  0
 26 29  1  0  0  0  0
 24 25  1  0  0  0  0
 24 26  1  0  0  0  0
M  END
$$$$
default_name
  -OEChem-02102213163D

 29 29  0     1  0  0  0  0  0999 V2000
   -2.9561   -3.9186    1.3887 H   0  0  0  0  0  0  0  0  0  0  0  0
   -3.1191   -2.9346    0.9517 C   0  0  0  0  0  0  0  0  0  0  0  0
   -3.7811   -2.3546    1.5917 H   0  0  0  0  0  0  0  0  0  0  0  0
   -3.5591   -3.0406   -0.0383 H   0  0  0  0  0  0  0  0  0  0  0  0
   -1.7921   -2.2226    0.8327 C   0  0  0  0  0  0  0  0  0  0  0  0
   -0.7611   -2.7766    1.1927 O   0  0  0  0  0  0  0  0  0  0  0  0
   -1.8201   -0.9926    0.3247 N   0  0  0  0  0  0  0  0  0  0  0  0
   -2.7141   -0.5816    0.0927 H   0  0  0  0  0  0  0  0  0  0  0  0
   -0.6481   -0.1156    0.2017 C   0  0  1  0  0  0  0  0  0  0  0  0
    0.1344   -0.4988    0.8596 H   0  0  0  0  0  0  0  0  0  0  0  0
   -0.1211   -0.1520   -1.2460 C   0  0  0  0  0  0  0  0  0  0  0  0
    0.6236   -0.9427   -1.3480 H   0  0  0  0  0  0  0  0  0  0  0  0
   -0.9388   -0.3808   -1.9308 H   0  0  0  0  0  0  0  0  0  0  0  0
    0.5369    1.1406   -1.6634 C   0  0  0  0  0  0  0  0  0  0  0  0
   -0.0747    2.3944   -1.7013 N   0  0  0  0  0  0  0  0  0  0  0  0
    0.8783    3.2590   -2.0788 C   0  0  0  0  0  0  0  0  0  0  0  0
    0.7221    4.3216   -2.2155 H   0  0  0  0  0  0  0  0  0  0  0  0
    2.0483    2.6215   -2.2523 N   0  0  0  0  0  0  0  0  0  0  0  0
    2.9205    3.0586   -2.5171 H   0  0  0  0  0  0  0  0  0  0  0  0
    1.8536    1.2835   -1.9907 C   0  0  0  0  0  0  0  0  0  0  0  0
    2.5912    0.4912   -2.0136 H   0  0  0  0  0  0  0  0  0  0  0  0
   -0.9851    1.3114    0.6698 C   0  0  0  0  0  0  0  0  0  0  0  0
   -2.0377    1.8431    0.3168 O   0  0  0  0  0  0  0  0  0  0  0  0
   -0.1052    1.9265    1.4663 N   0  0  0  0  0  0  0  0  0  0  0  0
    0.7810    1.4586    1.6201 H   0  0  0  0  0  0  0  0  0  0  0  0
   -0.2724    3.2715    2.0119 C   0  0  0  0  0  0  0  0  0  0  0  0
   -1.3249    3.4549    2.2426 H   0  0  0  0  0  0  0  0  0  0  0  0
    0.3167    3.3776    2.9239 H   0  0  0  0  0  0  0  0  0  0  0  0
    0.0609    4.0073    1.2782 H   0  0  0  0  0  0  0  0  0  0  0  0
  5  6  2  0  0  0  0
  5  7  1  0  0  0  0
  2  3  1  0  0  0  0
  2  4  1  0  0  0  0
  2  5  1  0  0  0  0
  1  2  1  0  0  0  0
 22 23  2  0  0  0  0
 22 24  1  0  0  0  0
 20 21  1  0  0  0  0
 18 19  1  0  0  0  0
 18 20  1  0  0  0  0
 16 17  1  0  0  0  0
 16 18  1  0  0  0  0
 15 16  2  0  0  0  0
 14 15  1  0  0  0  0
 14 20  2  0  0  0  0
 11 12  1  0  0  0  0
 11 13  1  0  0  0  0
 11 14  1  0  0  0  0
  9 10  1  0  0  0  0
  9 11  1  0  0  0  0
  9 22  1  0  0  0  0
  7  8  1  0  0  0  0
  7  9  1  0  0  0  0
 26 27  1  0  0  0  0
 26 28  1  0  0  0  0
 26 29  1  0  0  0  0
 24 25  1  0  0  0  0
 24 26  1  0  0  0  0
M  END
$$$$
default_name
  -OEChem-02102213163D

 29 29  0     1  0  0  0  0  0999 V2000
   -2.9561   -3.9186    1.3887 H   0  0  0  0  0  0  0  0  0  0  0  0
   -3.1191   -2.9346    0.9517 C   0  0  0  0  0  0  0  0  0  0  0  0
   -3.7811   -2.3546    1.5917 H   0  0  0  0  0  0  0  0  0  0  0  0
   -3.5591   -3.0406   -0.0383 H   0  0  0  0  0  0  0  0  0  0  0  0
   -1.7921   -2.2226    0.8327 C   0  0  0  0  0  0  0  0  0  0  0  0
   -0.7611   -2.7766    1.1927 O   0  0  0  0  0  0  0  0  0  0  0  0
   -1.8201   -0.9926    0.3247 N   0  0  0  0  0  0  0  0  0  0  0  0
   -2.7141   -0.5816    0.0927 H   0  0  0  0  0  0  0  0  0  0  0  0
   -0.6481   -0.1156    0.2017 C   0  0  1  0  0  0  0  0  0  0  0  0
    0.1344   -0.4988    0.8596 H   0  0  0  0  0  0  0  0  0  0  0  0
   -0.1211   -0.1520   -1.2460 C   0  0  0  0  0  0  0  0  0  0  0  0
    0.6236   -0.9427   -1.3480 H   0  0  0  0  0  0  0  0  0  0  0  0
   -0.9388   -0.3808   -1.9308 H   0  0  0  0  0  0  0  0  0  0  0  0
    0.5369    1.1406   -1.6634 C   0  0  0  0  0  0  0  0  0  0  0  0
    0.0396    2.4236   -1.4306 N   0  0  0  0  0  0  0  0  0  0  0  0
    0.9571    3.2699   -1.9208 C   0  0  0  0  0  0  0  0  0  0  0  0
    0.8651    4.3485   -1.9067 H   0  0  0  0  0  0  0  0  0  0  0  0
    2.0033    2.5903   -2.4198 N   0  0  0  0  0  0  0  0  0  0  0  0
    2.8307    3.0041   -2.8274 H   0  0  0  0  0  0  0  0  0  0  0  0
    1.7582    1.2443   -2.2627 C   0  0  0  0  0  0  0  0  0  0  0  0
    2.4036    0.4185   -2.5344 H   0  0  0  0  0  0  0  0  0  0  0  0
   -0.9851    1.3114    0.6698 C   0  0  0  0  0  0  0  0  0  0  0  0
   -2.0377    1.8431    0.3168 O   0  0  0  0  0  0  0  0  0  0  0  0
   -0.1052    1.9265    1.4663 N   0  0  0  0  0  0  0  0  0  0  0  0
    0.7810    1.4586    1.6201 H   0  0  0  0  0  0  0  0  0  0  0  0
   -0.2724    3.2715    2.0119 C   0  0  0  0  0  0  0  0  0  0  0  0
   -1.3249    3.4549    2.2426 H   0  0  0  0  0  0  0  0  0  0  0  0
    0.3167    3.3776    2.9239 H   0  0  0  0  0  0  0  0  0  0  0  0
    0.0609    4.0073    1.2782 H   0  0  0  0  0  0  0  0  0  0  0  0
  5  6  2  0  0  0  0
  5  7  1  0  0  0  0
  2  3  1  0  0  0  0
  2  4  1  0  0  0  0
  2  5  1  0  0  0  0
  1  2  1  0  0  0  0
 22 23  2  0  0  0  0
 22 24  1  0  0  0  0
 20 21  1  0  0  0  0
 18 19  1  0  0  0  0
 18 20  1  0  0  0  0
 16 17  1  0  0  0  0
 16 18  1  0  0  0  0
 15 16  2  0  0  0  0
 14 15  1  0  0  0  0
 14 20  2  0  0  0  0
 11 12  1  0  0  0  0
 11 13  1  0  0  0  0
 11 14  1  0  0  0  0
  9 10  1  0  0  0  0
  9 11  1  0  0  0  0
  9 22  1  0  0  0  0
  7  8  1  0  0  0  0
  7  9  1  0  0  0  0
 26 27  1  0  0  0  0
 26 28  1  0  0  0  0
 26 29  1  0  0  0  0
 24 25  1  0  0  0  0
 24 26  1  0  0  0  0
M  END
$$$$
default_name
  -OEChem-02102213163D

 29 29  0     1  0  0  0  0  0999 V2000
   -2.9561   -3.9186    1.3887 H   0  0  0  0  0  0  0  0  0  0  0  0
   -3.1191   -2.9346    0.9517 C   0  0  0  0  0  0  0  0  0  0  0  0
   -3.7811   -2.3546    1.5917 H   0  0  0  0  0  0  0  0  0  0  0  0
   -3.5591   -3.0406   -0.0383 H   0  0  0  0  0  0  0  0  0  0  0  0
   -1.7921   -2.2226    0.8327 C   0  0  0  0  0  0  0  0  0  0  0  0
   -0.7611   -2.7766    1.1927 O   0  0  0  0  0  0  0  0  0  0  0  0
   -1.8201   -0.9926    0.3247 N   0  0  0  0  0  0  0  0  0  0  0  0
   -2.7141   -0.5816    0.0927 H   0  0  0  0  0  0  0  0  0  0  0  0
   -0.6481   -0.1156    0.2017 C   0  0  1  0  0  0  0  0  0  0  0  0
    0.1344   -0.4988    0.8596 H   0  0  0  0  0  0  0  0  0  0  0  0
   -0.1211   -0.1520   -1.2460 C   0  0  0  0  0  0  0  0  0  0  0  0
    0.6236   -0.9427   -1.3480 H   0  0  0  0  0  0  0  0  0  0  0  0
   -0.9388   -0.3808   -1.9308 H   0  0  0  0  0  0  0  0  0  0  0  0
    0.5369    1.1406   -1.6634 C   0  0  0  0  0  0  0  0  0  0  0  0
    0.2122    2.4130   -1.1913 N   0  0  0  0  0  0  0  0  0  0  0  0
    1.0690    3.2569   -1.7845 C   0  0  0  0  0  0  0  0  0  0  0  0
    1.0735    4.3295   -1.6370 H   0  0  0  0  0  0  0  0  0  0  0  0
    1.9205    2.5823   -2.5752 N   0  0  0  0  0  0  0  0  0  0  0  0
    2.6713    2.9929   -3.1134 H   0  0  0  0  0  0  0  0  0  0  0  0
    1.6028    1.2439   -2.5087 C   0  0  0  0  0  0  0  0  0  0  0  0
    2.1017    0.4205   -3.0041 H   0  0  0  0  0  0  0  0  0  0  0  0
   -0.9851    1.3114    0.6698 C   0  0  0  0  0  0  0  0  0  0  0  0
   -2.0377    1.8431    0.3168 O   0  0  0  0  0  0  0  0  0  0  0  0
   -0.1052    1.9265    1.4663 N   0  0  0  0  0  0  0  0  0  0  0  0
    0.7810    1.4586    1.6201 H   0  0  0  0  0  0  0  0  0  0  0  0
   -0.2724    3.2715    2.0119 C   0  0  0  0  0  0  0  0  0  0  0  0
   -1.3249    3.4549    2.2426 H   0  0  0  0  0  0  0  0  0  0  0  0
    0.3167    3.3776    2.9239 H   0  0  0  0  0  0  0  0  0  0  0  0
    0.0609    4.0073    1.2782 H   0  0  0  0  0  0  0  0  0  0  0  0
  5  6  2  0  0  0  0
  5  7  1  0  0  0  0
  2  3  1  0  0  0  0
  2  4  1  0  0  0  0
  2  5  1  0  0  0  0
  1  2  1  0  0  0  0
 22 23  2  0  0  0  0
 22 24  1  0  0  0  0
 20 21  1  0  0  0  0
 18 19  1  0  0  0  0
 18 20  1  0  0  0  0
 16 17  1  0  0  0  0
 16 18  1  0  0  0  0
 15 16  2  0  0  0  0
 14 15  1  0  0  0  0
 14 20  2  0  0  0  0
 11 12  1  0  0  0  0
 11 13  1  0  0  0  0
 11 14  1  0  0  0  0
  9 10  1  0  0  0  0
  9 11  1  0  0  0  0
  9 22  1  0  0  0  0
  7  8  1  0  0  0  0
  7  9  1  0  0  0  0
 26 27  1  0  0  0  0
 26 28  1  0  0  0  0
 26 29  1  0  0  0  0
 24 25  1  0  0  0  0
 24 26  1  0  0  0  0
M  END
$$$$
default_name
  -OEChem-02102213163D

 29 29  0     1  0  0  0  0  0999 V2000
   -2.9561   -3.9186    1.3887 H   0  0  0  0  0  0  0  0  0  0  0  0
   -3.1191   -2.9346    0.9517 C   0  0  0  0  0  0  0  0  0  0  0  0
   -3.7811   -2.3546    1.5917 H   0  0  0  0  0  0  0  0  0  0  0  0
   -3.5591   -3.0406   -0.0383 H   0  0  0  0  0  0  0  0  0  0  0  0
   -1.7921   -2.2226    0.8327 C   0  0  0  0  0  0  0  0  0  0  0  0
   -0.7611   -2.7766    1.1927 O   0  0  0  0  0  0  0  0  0  0  0  0
   -1.8201   -0.9926    0.3247 N   0  0  0  0  0  0  0  0  0  0  0  0
   -2.7141   -0.5816    0.0927 H   0  0  0  0  0  0  0  0  0  0  0  0
   -0.6481   -0.1156    0.2017 C   0  0  1  0  0  0  0  0  0  0  0  0
    0.1344   -0.4988    0.8596 H   0  0  0  0  0  0  0  0  0  0  0  0
   -0.1211   -0.1520   -1.2460 C   0  0  0  0  0  0  0  0  0  0  0  0
    0.6236   -0.9427   -1.3480 H   0  0  0  0  0  0  0  0  0  0  0  0
   -0.9388   -0.3808   -1.9308 H   0  0  0  0  0  0  0  0  0  0  0  0
    0.5369    1.1406   -1.6634 C   0  0  0  0  0  0  0  0  0  0  0  0
    0.4311    2.3635   -0.9995 N   0  0  0  0  0  0  0  0  0  0  0  0
    1.2064    3.2210   -1.6791 C   0  0  0  0  0  0  0  0  0  0  0  0
    1.3333    4.2658   -1.4249 H   0  0  0  0  0  0  0  0  0  0  0  0
    1.8055    2.5980   -2.7078 N   0  0  0  0  0  0  0  0  0  0  0  0
    2.4531    3.0258   -3.3555 H   0  0  0  0  0  0  0  0  0  0  0  0
    1.3982    1.2824   -2.7119 C   0  0  0  0  0  0  0  0  0  0  0  0
    1.7062    0.4970   -3.3906 H   0  0  0  0  0  0  0  0  0  0  0  0
   -0.9851    1.3114    0.6698 C   0  0  0  0  0  0  0  0  0  0  0  0
   -2.0377    1.8431    0.3168 O   0  0  0  0  0  0  0  0  0  0  0  0
   -0.1052    1.9265    1.4663 N   0  0  0  0  0  0  0  0  0  0  0  0
    0.7810    1.4586    1.6201 H   0  0  0  0  0  0  0  0  0  0  0  0
   -0.2724    3.2715    2.0119 C   0  0  0  0  0  0  0  0  0  0  0  0
   -1.3249    3.4549    2.2426 H   0  0  0  0  0  0  0  0  0  0  0  0
    0.3167    3.3776    2.9239 H   0  0  0  0  0  0  0  0  0  0  0  0
    0.0609    4.0073    1.2782 H   0  0  0  0  0  0  0  0  0  0  0  0
  5  6  2  0  0  0  0
  5  7  1  0  0  0  0
  2  3  1  0  0  0  0
  2  4  1  0  0  0  0
  2  5  1  0  0  0  0
  1  2  1  0  0  0  0
 22 23  2  0  0  0  0
 22 24  1  0  0  0  0
 20 21  1  0  0  0  0
 18 19  1  0  0  0  0
 18 20  1  0  0  0  0
 16 17  1  0  0  0  0
 16 18  1  0  0  0  0
 15 16  2  0  0  0  0
 14 15  1  0  0  0  0
 14 20  2  0  0  0  0
 11 12  1  0  0  0  0
 11 13  1  0  0  0  0
 11 14  1  0  0  0  0
  9 10  1  0  0  0  0
  9 11  1  0  0  0  0
  9 22  1  0  0  0  0
  7  8  1  0  0  0  0
  7  9  1  0  0  0  0
 26 27  1  0  0  0  0
 26 28  1  0  0  0  0
 26 29  1  0  0  0  0
 24 25  1  0  0  0  0
 24 26  1  0  0  0  0
M  END
$$$$
default_name
  -OEChem-02102213163D

 29 29  0     1  0  0  0  0  0999 V2000
   -2.9561   -3.9186    1.3887 H   0  0  0  0  0  0  0  0  0  0  0  0
   -3.1191   -2.9346    0.9517 C   0  0  0  0  0  0  0  0  0  0  0  0
   -3.7811   -2.3546    1.5917 H   0  0  0  0  0  0  0  0  0  0  0  0
   -3.5591   -3.0406   -0.0383 H   0  0  0  0  0  0  0  0  0  0  0  0
   -1.7921   -2.2226    0.8327 C   0  0  0  0  0  0  0  0  0  0  0  0
   -0.7611   -2.7766    1.1927 O   0  0  0  0  0  0  0  0  0  0  0  0
   -1.8201   -0.9926    0.3247 N   0  0  0  0  0  0  0  0  0  0  0  0
   -2.7141   -0.5816    0.0927 H   0  0  0  0  0  0  0  0  0  0  0  0
   -0.6481   -0.1156    0.2017 C   0  0  1  0  0  0  0  0  0  0  0  0
    0.1344   -0.4988    0.8596 H   0  0  0  0  0  0  0  0  0  0  0  0
   -0.1211   -0.1520   -1.2460 C   0  0  0  0  0  0  0  0  0  0  0  0
    0.6236   -0.9427   -1.3480 H   0  0  0  0  0  0  0  0  0  0  0  0
   -0.9388   -0.3808   -1.9308 H   0  0  0  0  0  0  0  0  0  0  0  0
    0.5369    1.1406   -1.6634 C   0  0  0  0  0  0  0  0  0  0  0  0
    0.6815    2.2784   -0.8684 N   0  0  0  0  0  0  0  0  0  0  0  0
    1.3599    3.1646   -1.6119 C   0  0  0  0  0  0  0  0  0  0  0  0
    1.6267    4.1617   -1.2848 H   0  0  0  0  0  0  0  0  0  0  0  0
    1.6662    2.6363   -2.8087 N   0  0  0  0  0  0  0  0  0  0  0  0
    2.1910    3.1004   -3.5374 H   0  0  0  0  0  0  0  0  0  0  0  0
    1.1583    1.3572   -2.8585 C   0  0  0  0  0  0  0  0  0  0  0  0
    1.2439    0.6429   -3.6677 H   0  0  0  0  0  0  0  0  0  0  0  0
   -0.9851    1.3114    0.6698 C   0  0  0  0  0  0  0  0  0  0  0  0
   -2.0377    1.8431    0.3168 O   0  0  0  0  0  0  0  0  0  0  0  0
   -0.1052    1.9265    1.4663 N   0  0  0  0  0  0  0  0  0  0  0  0
    0.7810    1.4586    1.6201 H   0  0  0  0  0  0  0  0  0  0  0  0
   -0.2724    3.2715    2.0119 C   0  0  0  0  0  0  0  0  0  0  0  0
   -1.3249    3.4549    2.2426 H   0  0  0  0  0  0  0  0  0  0  0  0
    0.3167    3.3776    2.9239 H   0  0  0  0  0  0  0  0  0  0  0  0
    0.0609    4.0073    1.2782 H   0  0  0  0  0  0  0  0  0  0  0  0
  5  6  2  0  0  0  0
  5  7  1  0  0  0  0
  2  3  1  0  0  0  0
  2  4  1  0  0  0  0
  2  5  1  0  0  0  0
  1  2  1  0  0  0  0
 22 23  2  0  0  0  0
 22 24  1  0  0  0  0
 20 21  1  0  0  0  0
 18 19  1  0  0  0  0
 18 20  1  0  0  0  0
 16 17  1  0  0  0  0
 16 18  1  0  0  0  0
 15 16  2  0  0  0  0
 14 15  1  0  0  0  0
 14 20  2  0  0  0  0
 11 12  1  0  0  0  0
 11 13  1  0  0  0  0
 11 14  1  0  0  0  0
  9 10  1  0  0  0  0
  9 11  1  0  0  0  0
  9 22  1  0  0  0  0
  7  8  1  0  0  0  0
  7  9  1  0  0  0  0
 26 27  1  0  0  0  0
 26 28  1  0  0  0  0
 26 29  1  0  0  0  0
 24 25  1  0  0  0  0
 24 26  1  0  0  0  0
M  END
$$$$
default_name
  -OEChem-02102213163D

 29 29  0     1  0  0  0  0  0999 V2000
   -2.9561   -3.9186    1.3887 H   0  0  0  0  0  0  0  0  0  0  0  0
   -3.1191   -2.9346    0.9517 C   0  0  0  0  0  0  0  0  0  0  0  0
   -3.7811   -2.3546    1.5917 H   0  0  0  0  0  0  0  0  0  0  0  0
   -3.5591   -3.0406   -0.0383 H   0  0  0  0  0  0  0  0  0  0  0  0
   -1.7921   -2.2226    0.8327 C   0  0  0  0  0  0  0  0  0  0  0  0
   -0.7611   -2.7766    1.1927 O   0  0  0  0  0  0  0  0  0  0  0  0
   -1.8201   -0.9926    0.3247 N   0  0  0  0  0  0  0  0  0  0  0  0
   -2.7141   -0.5816    0.0927 H   0  0  0  0  0  0  0  0  0  0  0  0
   -0.6481   -0.1156    0.2017 C   0  0  1  0  0  0  0  0  0  0  0  0
    0.1344   -0.4988    0.8596 H   0  0  0  0  0  0  0  0  0  0  0  0
   -0.1211   -0.1520   -1.2460 C   0  0  0  0  0  0  0  0  0  0  0  0
    0.6236   -0.9427   -1.3480 H   0  0  0  0  0  0  0  0  0  0  0  0
   -0.9388   -0.3808   -1.9308 H   0  0  0  0  0  0  0  0  0  0  0  0
    0.5369    1.1406   -1.6634 C   0  0  0  0  0  0  0  0  0  0  0  0
    0.9464    2.1634   -0.8069 N   0  0  0  0  0  0  0  0  0  0  0  0
    1.5191    3.0915   -1.5872 C   0  0  0  0  0  0  0  0  0  0  0  0
    1.9337    4.0243   -1.2263 H   0  0  0  0  0  0  0  0  0  0  0  0
    1.5120    2.6947   -2.8709 N   0  0  0  0  0  0  0  0  0  0  0  0
    1.9029    3.2119   -3.6465 H   0  0  0  0  0  0  0  0  0  0  0  0
    0.8995    1.4632   -2.9385 C   0  0  0  0  0  0  0  0  0  0  0  0
    0.7464    0.8481   -3.8164 H   0  0  0  0  0  0  0  0  0  0  0  0
   -0.9851    1.3114    0.6698 C   0  0  0  0  0  0  0  0  0  0  0  0
   -2.0377    1.8431    0.3168 O   0  0  0  0  0  0  0  0  0  0  0  0
   -0.1052    1.9265    1.4663 N   0  0  0  0  0  0  0  0  0  0  0  0
    0.7810    1.4586    1.6201 H   0  0  0  0  0  0  0  0  0  0  0  0
   -0.2724    3.2715    2.0119 C   0  0  0  0  0  0  0  0  0  0  0  0
   -1.3249    3.4549    2.2426 H   0  0  0  0  0  0  0  0  0  0  0  0
    0.3167    3.3776    2.9239 H   0  0  0  0  0  0  0  0  0  0  0  0
    0.0609    4.0073    1.2782 H   0  0  0  0  0  0  0  0  0  0  0  0
  5  6  2  0  0  0  0
  5  7  1  0  0  0  0
  2  3  1  0  0  0  0
  2  4  1  0  0  0  0
  2  5  1  0  0  0  0
  1  2  1  0  0  0  0
 22 23  2  0  0  0  0
 22 24  1  0  0  0  0
 20 21  1  0  0  0  0
 18 19  1  0  0  0  0
 18 20  1  0  0  0  0
 16 17  1  0  0  0  0
 16 18  1  0  0  0  0
 15 16  2  0  0  0  0
 14 15  1  0  0  0  0
 14 20  2  0  0  0  0
 11 12  1  0  0  0  0
 11 13  1  0  0  0  0
 11 14  1  0  0  0  0
  9 10  1  0  0  0  0
  9 11  1  0  0  0  0
  9 22  1  0  0  0  0
  7  8  1  0  0  0  0
  7  9  1  0  0  0  0
 26 27  1  0  0  0  0
 26 28  1  0  0  0  0
 26 29  1  0  0  0  0
 24 25  1  0  0  0  0
 24 26  1  0  0  0  0
M  END
$$$$
default_name
  -OEChem-02102213163D

 29 29  0     1  0  0  0  0  0999 V2000
   -2.9561   -3.9186    1.3887 H   0  0  0  0  0  0  0  0  0  0  0  0
   -3.1191   -2.9346    0.9517 C   0  0  0  0  0  0  0  0  0  0  0  0
   -3.7811   -2.3546    1.5917 H   0  0  0  0  0  0  0  0  0  0  0  0
   -3.5591   -3.0406   -0.0383 H   0  0  0  0  0  0  0  0  0  0  0  0
   -1.7921   -2.2226    0.8327 C   0  0  0  0  0  0  0  0  0  0  0  0
   -0.7611   -2.7766    1.1927 O   0  0  0  0  0  0  0  0  0  0  0  0
   -1.8201   -0.9926    0.3247 N   0  0  0  0  0  0  0  0  0  0  0  0
   -2.7141   -0.5816    0.0927 H   0  0  0  0  0  0  0  0  0  0  0  0
   -0.6481   -0.1156    0.2017 C   0  0  1  0  0  0  0  0  0  0  0  0
    0.1344   -0.4988    0.8596 H   0  0  0  0  0  0  0  0  0  0  0  0
   -0.1211   -0.1520   -1.2460 C   0  0  0  0  0  0  0  0  0  0  0  0
    0.6236   -0.9427   -1.3480 H   0  0  0  0  0  0  0  0  0  0  0  0
   -0.9388   -0.3808   -1.9308 H   0  0  0  0  0  0  0  0  0  0  0  0
    0.5369    1.1406   -1.6634 C   0  0  0  0  0  0  0  0  0  0  0  0
    1.2077    2.0264   -0.8191 N   0  0  0  0  0  0  0  0  0  0  0  0
    1.6730    3.0068   -1.6070 C   0  0  0  0  0  0  0  0  0  0  0  0
    2.2333    3.8630   -1.2532 H   0  0  0  0  0  0  0  0  0  0  0  0
    1.3534    2.7692   -2.8902 N   0  0  0  0  0  0  0  0  0  0  0  0
    1.6084    3.3524   -3.6755 H   0  0  0  0  0  0  0  0  0  0  0  0
    0.6393    1.5930   -2.9464 C   0  0  0  0  0  0  0  0  0  0  0  0
    0.2476    1.0987   -3.8266 H   0  0  0  0  0  0  0  0  0  0  0  0
   -0.9851    1.3114    0.6698 C   0  0  0  0  0  0  0  0  0  0  0  0
   -2.0377    1.8431    0.3168 O   0  0  0  0  0  0  0  0  0  0  0  0
   -0.1052    1.9265    1.4663 N   0  0  0  0  0  0  0  0  0  0  0  0
    0.7810    1.4586    1.6201 H   0  0  0  0  0  0  0  0  0  0  0  0
   -0.2724    3.2715    2.0119 C   0  0  0  0  0  0  0  0  0  0  0  0
   -1.3249    3.4549    2.2426 H   0  0  0  0  0  0  0  0  0  0  0  0
    0.3167    3.3776    2.9239 H   0  0  0  0  0  0  0  0  0  0  0  0
    0.0609    4.0073    1.2782 H   0  0  0  0  0  0  0  0  0  0  0  0
  5  6  2  0  0  0  0
  5  7  1  0  0  0  0
  2  3  1  0  0  0  0
  2  4  1  0  0  0  0
  2  5  1  0  0  0  0
  1  2  1  0  0  0  0
 22 23  2  0  0  0  0
 22 24  1  0  0  0  0
 20 21  1  0  0  0  0
 18 19  1  0  0  0  0
 18 20  1  0  0  0  0
 16 17  1  0  0  0  0
 16 18  1  0  0  0  0
 15 16  2  0  0  0  0
 14 15  1  0  0  0  0
 14 20  2  0  0  0  0
 11 12  1  0  0  0  0
 11 13  1  0  0  0  0
 11 14  1  0  0  0  0
  9 10  1  0  0  0  0
  9 11  1  0  0  0  0
  9 22  1  0  0  0  0
  7  8  1  0  0  0  0
  7  9  1  0  0  0  0
 26 27  1  0  0  0  0
 26 28  1  0  0  0  0
 26 29  1  0  0  0  0
 24 25  1  0  0  0  0
 24 26  1  0  0  0  0
M  END
$$$$
default_name
  -OEChem-02102213163D

 29 29  0     1  0  0  0  0  0999 V2000
   -2.9561   -3.9186    1.3887 H   0  0  0  0  0  0  0  0  0  0  0  0
   -3.1191   -2.9346    0.9517 C   0  0  0  0  0  0  0  0  0  0  0  0
   -3.7811   -2.3546    1.5917 H   0  0  0  0  0  0  0  0  0  0  0  0
   -3.5591   -3.0406   -0.0383 H   0  0  0  0  0  0  0  0  0  0  0  0
   -1.7921   -2.2226    0.8327 C   0  0  0  0  0  0  0  0  0  0  0  0
   -0.7611   -2.7766    1.1927 O   0  0  0  0  0  0  0  0  0  0  0  0
   -1.8201   -0.9926    0.3247 N   0  0  0  0  0  0  0  0  0  0  0  0
   -2.7141   -0.5816    0.0927 H   0  0  0  0  0  0  0  0  0  0  0  0
   -0.6481   -0.1156    0.2017 C   0  0  1  0  0  0  0  0  0  0  0  0
    0.1344   -0.4988    0.8596 H   0  0  0  0  0  0  0  0  0  0  0  0
   -0.1211   -0.1520   -1.2460 C   0  0  0  0  0  0  0  0  0  0  0  0
    0.6236   -0.9427   -1.3480 H   0  0  0  0  0  0  0  0  0  0  0  0
   -0.9388   -0.3808   -1.9308 H   0  0  0  0  0  0  0  0  0  0  0  0
    0.5369    1.1406   -1.6634 C   0  0  0  0  0  0  0  0  0  0  0  0
    1.4475    1.8768   -0.9043 N   0  0  0  0  0  0  0  0  0  0  0  0
    1.8113    2.9162   -1.6697 C   0  0  0  0  0  0  0  0  0  0  0  0
    2.5053    3.6889   -1.3639 H   0  0  0  0  0  0  0  0  0  0  0  0
    1.2013    2.8547   -2.8653 N   0  0  0  0  0  0  0  0  0  0  0  0
    1.3276    3.5125   -3.6224 H   0  0  0  0  0  0  0  0  0  0  0  0
    0.3955    1.7380   -2.8818 C   0  0  0  0  0  0  0  0  0  0  0  0
   -0.2185    1.3777   -3.6976 H   0  0  0  0  0  0  0  0  0  0  0  0
   -0.9851    1.3114    0.6698 C   0  0  0  0  0  0  0  0  0  0  0  0
   -2.0377    1.8431    0.3168 O   0  0  0  0  0  0  0  0  0  0  0  0
   -0.1052    1.9265    1.4663 N   0  0  0  0  0  0  0  0  0  0  0  0
    0.7810    1.4586    1.6201 H   0  0  0  0  0  0  0  0  0  0  0  0
   -0.2724    3.2715    2.0119 C   0  0  0  0  0  0  0  0  0  0  0  0
   -1.3249    3.4549    2.2426 H   0  0  0  0  0  0  0  0  0  0  0  0
    0.3167    3.3776    2.9239 H   0  0  0  0  0  0  0  0  0  0  0  0
    0.0609    4.0073    1.2782 H   0  0  0  0  0  0  0  0  0  0  0  0
  5  6  2  0  0  0  0
  5  7  1  0  0  0  0
  2  3  1  0  0  0  0
  2  4  1  0  0  0  0
  2  5  1  0  0  0  0
  1  2  1  0  0  0  0
 22 23  2  0  0  0  0
 22 24  1  0  0  0  0
 20 21  1  0  0  0  0
 18 19  1  0  0  0  0
 18 20  1  0  0  0  0
 16 17  1  0  0  0  0
 16 18  1  0  0  0  0
 15 16  2  0  0  0  0
 14 15  1  0  0  0  0
 14 20  2  0  0  0  0
 11 12  1  0  0  0  0
 11 13  1  0  0  0  0
 11 14  1  0  0  0  0
  9 10  1  0  0  0  0
  9 11  1  0  0  0  0
  9 22  1  0  0  0  0
  7  8  1  0  0  0  0
  7  9  1  0  0  0  0
 26 27  1  0  0  0  0
 26 28  1  0  0  0  0
 26 29  1  0  0  0  0
 24 25  1  0  0  0  0
 24 26  1  0  0  0  0
M  END
$$$$
default_name
  -OEChem-02102213163D

 29 29  0     1  0  0  0  0  0999 V2000
   -2.9561   -3.9186    1.3887 H   0  0  0  0  0  0  0  0  0  0  0  0
   -3.1191   -2.9346    0.9517 C   0  0  0  0  0  0  0  0  0  0  0  0
   -3.7811   -2.3546    1.5917 H   0  0  0  0  0  0  0  0  0  0  0  0
   -3.5591   -3.0406   -0.0383 H   0  0  0  0  0  0  0  0  0  0  0  0
   -1.7921   -2.2226    0.8327 C   0  0  0  0  0  0  0  0  0  0  0  0
   -0.7611   -2.7766    1.1927 O   0  0  0  0  0  0  0  0  0  0  0  0
   -1.8201   -0.9926    0.3247 N   0  0  0  0  0  0  0  0  0  0  0  0
   -2.7141   -0.5816    0.0927 H   0  0  0  0  0  0  0  0  0  0  0  0
   -0.6481   -0.1156    0.2017 C   0  0  1  0  0  0  0  0  0  0  0  0
    0.1344   -0.4988    0.8596 H   0  0  0  0  0  0  0  0  0  0  0  0
   -0.1211   -0.1520   -1.2460 C   0  0  0  0  0  0  0  0  0  0  0  0
    0.6236   -0.9427   -1.3480 H   0  0  0  0  0  0  0  0  0  0  0  0
   -0.9388   -0.3808   -1.9308 H   0  0  0  0  0  0  0  0  0  0  0  0
    0.5369    1.1406   -1.6634 C   0  0  0  0  0  0  0  0  0  0  0  0
    1.6496    1.7248   -1.0567 N   0  0  0  0  0  0  0  0  0  0  0  0
    1.9244    2.8258   -1.7712 C   0  0  0  0  0  0  0  0  0  0  0  0
    2.7309    3.5136   -1.5508 H   0  0  0  0  0  0  0  0  0  0  0  0
    1.0660    2.9453   -2.7979 N   0  0  0  0  0  0  0  0  0  0  0  0
    1.0796    3.6813   -3.4908 H   0  0  0  0  0  0  0  0  0  0  0  0
    0.1847    1.8882   -2.7489 C   0  0  0  0  0  0  0  0  0  0  0  0
   -0.6202    1.6659   -3.4382 H   0  0  0  0  0  0  0  0  0  0  0  0
   -0.9851    1.3114    0.6698 C   0  0  0  0  0  0  0  0  0  0  0  0
   -2.0377    1.8431    0.3168 O   0  0  0  0  0  0  0  0  0  0  0  0
   -0.1052    1.9265    1.4663 N   0  0  0  0  0  0  0  0  0  0  0  0
    0.7810    1.4586    1.6201 H   0  0  0  0  0  0  0  0  0  0  0  0
   -0.2724    3.2715    2.0119 C   0  0  0  0  0  0  0  0  0  0  0  0
   -1.3249    3.4549    2.2426 H   0  0  0  0  0  0  0  0  0  0  0  0
    0.3167    3.3776    2.9239 H   0  0  0  0  0  0  0  0  0  0  0  0
    0.0609    4.0073    1.2782 H   0  0  0  0  0  0  0  0  0  0  0  0
  5  6  2  0  0  0  0
  5  7  1  0  0  0  0
  2  3  1  0  0  0  0
  2  4  1  0  0  0  0
  2  5  1  0  0  0  0
  1  2  1  0  0  0  0
 22 23  2  0  0  0  0
 22 24  1  0  0  0  0
 20 21  1  0  0  0  0
 18 19  1  0  0  0  0
 18 20  1  0  0  0  0
 16 17  1  0  0  0  0
 16 18  1  0  0  0  0
 15 16  2  0  0  0  0
 14 15  1  0  0  0  0
 14 20  2  0  0  0  0
 11 12  1  0  0  0  0
 11 13  1  0  0  0  0
 11 14  1  0  0  0  0
  9 10  1  0  0  0  0
  9 11  1  0  0  0  0
  9 22  1  0  0  0  0
  7  8  1  0  0  0  0
  7  9  1  0  0  0  0
 26 27  1  0  0  0  0
 26 28  1  0  0  0  0
 26 29  1  0  0  0  0
 24 25  1  0  0  0  0
 24 26  1  0  0  0  0
M  END
$$$$
default_name
  -OEChem-02102213163D

 29 29  0     1  0  0  0  0  0999 V2000
   -2.9561   -3.9186    1.3887 H   0  0  0  0  0  0  0  0  0  0  0  0
   -3.1191   -2.9346    0.9517 C   0  0  0  0  0  0  0  0  0  0  0  0
   -3.7811   -2.3546    1.5917 H   0  0  0  0  0  0  0  0  0  0  0  0
   -3.5591   -3.0406   -0.0383 H   0  0  0  0  0  0  0  0  0  0  0  0
   -1.7921   -2.2226    0.8327 C   0  0  0  0  0  0  0  0  0  0  0  0
   -0.7611   -2.7766    1.1927 O   0  0  0  0  0  0  0  0  0  0  0  0
   -1.8201   -0.9926    0.3247 N   0  0  0  0  0  0  0  0  0  0  0  0
   -2.7141   -0.5816    0.0927 H   0  0  0  0  0  0  0  0  0  0  0  0
   -0.6481   -0.1156    0.2017 C   0  0  1  0  0  0  0  0  0  0  0  0
    0.1344   -0.4988    0.8596 H   0  0  0  0  0  0  0  0  0  0  0  0
   -0.1211   -0.1520   -1.2460 C   0  0  0  0  0  0  0  0  0  0  0  0
    0.6236   -0.9427   -1.3480 H   0  0  0  0  0  0  0  0  0  0  0  0
   -0.9388   -0.3808   -1.9308 H   0  0  0  0  0  0  0  0  0  0  0  0
    0.5369    1.1406   -1.6634 C   0  0  0  0  0  0  0  0  0  0  0  0
    1.8001    1.5806   -1.2658 N   0  0  0  0  0  0  0  0  0  0  0  0
    2.0047    2.7418   -1.9045 C   0  0  0  0  0  0  0  0  0  0  0  0
    2.8950    3.3493   -1.8010 H   0  0  0  0  0  0  0  0  0  0  0  0
    0.9567    3.0350   -2.6926 N   0  0  0  0  0  0  0  0  0  0  0  0
    0.8813    3.8472   -3.2896 H   0  0  0  0  0  0  0  0  0  0  0  0
    0.0213    2.0334   -2.5569 C   0  0  0  0  0  0  0  0  0  0  0  0
   -0.9301    1.9439   -3.0660 H   0  0  0  0  0  0  0  0  0  0  0  0
   -0.9851    1.3114    0.6698 C   0  0  0  0  0  0  0  0  0  0  0  0
   -2.0377    1.8431    0.3168 O   0  0  0  0  0  0  0  0  0  0  0  0
   -0.1052    1.9265    1.4663 N   0  0  0  0  0  0  0  0  0  0  0  0
    0.7810    1.4586    1.6201 H   0  0  0  0  0  0  0  0  0  0  0  0
   -0.2724    3.2715    2.0119 C   0  0  0  0  0  0  0  0  0  0  0  0
   -1.3249    3.4549    2.2426 H   0  0  0  0  0  0  0  0  0  0  0  0
    0.3167    3.3776    2.9239 H   0  0  0  0  0  0  0  0  0  0  0  0
    0.0609    4.0073    1.2782 H   0  0  0  0  0  0  0  0  0  0  0  0
  5  6  2  0  0  0  0
  5  7  1  0  0  0  0
  2  3  1  0  0  0  0
  2  4  1  0  0  0  0
  2  5  1  0  0  0  0
  1  2  1  0  0  0  0
 22 23  2  0  0  0  0
 22 24  1  0  0  0  0
 20 21  1  0  0  0  0
 18 19  1  0  0  0  0
 18 20  1  0  0  0  0
 16 17  1  0  0  0  0
 16 18  1  0  0  0  0
 15 16  2  0  0  0  0
 14 15  1  0  0  0  0
 14 20  2  0  0  0  0
 11 12  1  0  0  0  0
 11 13  1  0  0  0  0
 11 14  1  0  0  0  0
  9 10  1  0  0  0  0
  9 11  1  0  0  0  0
  9 22  1  0  0  0  0
  7  8  1  0  0  0  0
  7  9  1  0  0  0  0
 26 27  1  0  0  0  0
 26 28  1  0  0  0  0
 26 29  1  0  0  0  0
 24 25  1  0  0  0  0
 24 26  1  0  0  0  0
M  END
$$$$
default_name
  -OEChem-02102213163D

 29 29  0     1  0  0  0  0  0999 V2000
   -2.9561   -3.9186    1.3887 H   0  0  0  0  0  0  0  0  0  0  0  0
   -3.1191   -2.9346    0.9517 C   0  0  0  0  0  0  0  0  0  0  0  0
   -3.7811   -2.3546    1.5917 H   0  0  0  0  0  0  0  0  0  0  0  0
   -3.5591   -3.0406   -0.0383 H   0  0  0  0  0  0  0  0  0  0  0  0
   -1.7921   -2.2226    0.8327 C   0  0  0  0  0  0  0  0  0  0  0  0
   -0.7611   -2.7766    1.1927 O   0  0  0  0  0  0  0  0  0  0  0  0
   -1.8201   -0.9926    0.3247 N   0  0  0  0  0  0  0  0  0  0  0  0
   -2.7141   -0.5816    0.0927 H   0  0  0  0  0  0  0  0  0  0  0  0
   -0.6481   -0.1156    0.2017 C   0  0  1  0  0  0  0  0  0  0  0  0
    0.1344   -0.4988    0.8596 H   0  0  0  0  0  0  0  0  0  0  0  0
   -0.1211   -0.1520   -1.2460 C   0  0  0  0  0  0  0  0  0  0  0  0
    0.6236   -0.9427   -1.3480 H   0  0  0  0  0  0  0  0  0  0  0  0
   -0.9388   -0.3808   -1.9308 H   0  0  0  0  0  0  0  0  0  0  0  0
    0.5369    1.1406   -1.6634 C   0  0  0  0  0  0  0  0  0  0  0  0
    1.8889    1.4542   -1.5174 N   0  0  0  0  0  0  0  0  0  0  0  0
    2.0468    2.6700   -2.0606 C   0  0  0  0  0  0  0  0  0  0  0  0
    2.9862    3.2071   -2.0977 H   0  0  0  0  0  0  0  0  0  0  0  0
    0.8810    3.1175   -2.5565 N   0  0  0  0  0  0  0  0  0  0  0  0
    0.7462    3.9990   -3.0326 H   0  0  0  0  0  0  0  0  0  0  0  0
   -0.0836    2.1637   -2.3188 C   0  0  0  0  0  0  0  0  0  0  0  0
   -1.1270    2.1925   -2.6066 H   0  0  0  0  0  0  0  0  0  0  0  0
   -0.9851    1.3114    0.6698 C   0  0  0  0  0  0  0  0  0  0  0  0
   -2.0377    1.8431    0.3168 O   0  0  0  0  0  0  0  0  0  0  0  0
   -0.1052    1.9265    1.4663 N   0  0  0  0  0  0  0  0  0  0  0  0
    0.7810    1.4586    1.6201 H   0  0  0  0  0  0  0  0  0  0  0  0
   -0.2724    3.2715    2.0119 C   0  0  0  0  0  0  0  0  0  0  0  0
   -1.3249    3.4549    2.2426 H   0  0  0  0  0  0  0  0  0  0  0  0
    0.3167    3.3776    2.9239 H   0  0  0  0  0  0  0  0  0  0  0  0
    0.0609    4.0073    1.2782 H   0  0  0  0  0  0  0  0  0  0  0  0
  5  6  2  0  0  0  0
  5  7  1  0  0  0  0
  2  3  1  0  0  0  0
  2  4  1  0  0  0  0
  2  5  1  0  0  0  0
  1  2  1  0  0  0  0
 22 23  2  0  0  0  0
 22 24  1  0  0  0  0
 20 21  1  0  0  0  0
 18 19  1  0  0  0  0
 18 20  1  0  0  0  0
 16 17  1  0  0  0  0
 16 18  1  0  0  0  0
 15 16  2  0  0  0  0
 14 15  1  0  0  0  0
 14 20  2  0  0  0  0
 11 12  1  0  0  0  0
 11 13  1  0  0  0  0
 11 14  1  0  0  0  0
  9 10  1  0  0  0  0
  9 11  1  0  0  0  0
  9 22  1  0  0  0  0
  7  8  1  0  0  0  0
  7  9  1  0  0  0  0
 26 27  1  0  0  0  0
 26 28  1  0  0  0  0
 26 29  1  0  0  0  0
 24 25  1  0  0  0  0
 24 26  1  0  0  0  0
M  END
$$$$
default_name
  -OEChem-02102213163D

 29 29  0     1  0  0  0  0  0999 V2000
   -2.9561   -3.9186    1.3887 H   0  0  0  0  0  0  0  0  0  0  0  0
   -3.1191   -2.9346    0.9517 C   0  0  0  0  0  0  0  0  0  0  0  0
   -3.7811   -2.3546    1.5917 H   0  0  0  0  0  0  0  0  0  0  0  0
   -3.5591   -3.0406   -0.0383 H   0  0  0  0  0  0  0  0  0  0  0  0
   -1.7921   -2.2226    0.8327 C   0  0  0  0  0  0  0  0  0  0  0  0
   -0.7611   -2.7766    1.1927 O   0  0  0  0  0  0  0  0  0  0  0  0
   -1.8201   -0.9926    0.3247 N   0  0  0  0  0  0  0  0  0  0  0  0
   -2.7141   -0.5816    0.0927 H   0  0  0  0  0  0  0  0  0  0  0  0
   -0.6481   -0.1156    0.2017 C   0  0  1  0  0  0  0  0  0  0  0  0
    0.1344   -0.4988    0.8596 H   0  0  0  0  0  0  0  0  0  0  0  0
   -0.1211   -0.1520   -1.2460 C   0  0  0  0  0  0  0  0  0  0  0  0
    0.6236   -0.9427   -1.3480 H   0  0  0  0  0  0  0  0  0  0  0  0
   -0.9388   -0.3808   -1.9308 H   0  0  0  0  0  0  0  0  0  0  0  0
    0.5369    1.1406   -1.6634 C   0  0  0  0  0  0  0  0  0  0  0  0
    1.9098    1.3541   -1.7943 N   0  0  0  0  0  0  0  0  0  0  0  0
    2.0476    2.6153   -2.2287 C   0  0  0  0  0  0  0  0  0  0  0  0
    2.9983    3.0967   -2.4205 H   0  0  0  0  0  0  0  0  0  0  0  0
    0.8438    3.1873   -2.3990 N   0  0  0  0  0  0  0  0  0  0  0  0
    0.6835    4.1263   -2.7373 H   0  0  0  0  0  0  0  0  0  0  0  0
   -0.1228    2.2702   -2.0509 C   0  0  0  0  0  0  0  0  0  0  0  0
   -1.1976    2.3949   -2.0910 H   0  0  0  0  0  0  0  0  0  0  0  0
   -0.9851    1.3114    0.6698 C   0  0  0  0  0  0  0  0  0  0  0  0
   -2.0377    1.8431    0.3168 O   0  0  0  0  0  0  0  0  0  0  0  0
   -0.1052    1.9265    1.4663 N   0  0  0  0  0  0  0  0  0  0  0  0
    0.7810    1.4586    1.6201 H   0  0  0  0  0  0  0  0  0  0  0  0
   -0.2724    3.2715    2.0119 C   0  0  0  0  0  0  0  0  0  0  0  0
   -1.3249    3.4549    2.2426 H   0  0  0  0  0  0  0  0  0  0  0  0
    0.3167    3.3776    2.9239 H   0  0  0  0  0  0  0  0  0  0  0  0
    0.0609    4.0073    1.2782 H   0  0  0  0  0  0  0  0  0  0  0  0
  5  6  2  0  0  0  0
  5  7  1  0  0  0  0
  2  3  1  0  0  0  0
  2  4  1  0  0  0  0
  2  5  1  0  0  0  0
  1  2  1  0  0  0  0
 22 23  2  0  0  0  0
 22 24  1  0  0  0  0
 20 21  1  0  0  0  0
 18 19  1  0  0  0  0
 18 20  1  0  0  0  0
 16 17  1  0  0  0  0
 16 18  1  0  0  0  0
 15 16  2  0  0  0  0
 14 15  1  0  0  0  0
 14 20  2  0  0  0  0
 11 12  1  0  0  0  0
 11 13  1  0  0  0  0
 11 14  1  0  0  0  0
  9 10  1  0  0  0  0
  9 11  1  0  0  0  0
  9 22  1  0  0  0  0
  7  8  1  0  0  0  0
  7  9  1  0  0  0  0
 26 27  1  0  0  0  0
 26 28  1  0  0  0  0
 26 29  1  0  0  0  0
 24 25  1  0  0  0  0
 24 26  1  0  0  0  0
M  END
$$$$
default_name
  -OEChem-02102213163D

 29 29  0     1  0  0  0  0  0999 V2000
   -2.9561   -3.9186    1.3887 H   0  0  0  0  0  0  0  0  0  0  0  0
   -3.1191   -2.9346    0.9517 C   0  0  0  0  0  0  0  0  0  0  0  0
   -3.7811   -2.3546    1.5917 H   0  0  0  0  0  0  0  0  0  0  0  0
   -3.5591   -3.0406   -0.0383 H   0  0  0  0  0  0  0  0  0  0  0  0
   -1.7921   -2.2226    0.8327 C   0  0  0  0  0  0  0  0  0  0  0  0
   -0.7611   -2.7766    1.1927 O   0  0  0  0  0  0  0  0  0  0  0  0
   -1.8201   -0.9926    0.3247 N   0  0  0  0  0  0  0  0  0  0  0  0
   -2.7141   -0.5816    0.0927 H   0  0  0  0  0  0  0  0  0  0  0  0
   -0.6481   -0.1156    0.2017 C   0  0  1  0  0  0  0  0  0  0  0  0
    0.1344   -0.4988    0.8596 H   0  0  0  0  0  0  0  0  0  0  0  0
   -0.1211   -0.1520   -1.2460 C   0  0  0  0  0  0  0  0  0  0  0  0
    0.6236   -0.9427   -1.3480 H   0  0  0  0  0  0  0  0  0  0  0  0
   -0.9388   -0.3808   -1.9308 H   0  0  0  0  0  0  0  0  0  0  0  0
    0.5369    1.1406   -1.6634 C   0  0  0  0  0  0  0  0  0  0  0  0
    1.8614    1.2872   -2.0778 N   0  0  0  0  0  0  0  0  0  0  0  0
    2.0073    2.5813   -2.3975 C   0  0  0  0  0  0  0  0  0  0  0  0
    2.9306    3.0255   -2.7474 H   0  0  0  0  0  0  0  0  0  0  0  0
    0.8479    3.2396   -2.2307 N   0  0  0  0  0  0  0  0  0  0  0  0
    0.6976    4.2203   -2.4238 H   0  0  0  0  0  0  0  0  0  0  0  0
   -0.0937    2.3456   -1.7715 C   0  0  0  0  0  0  0  0  0  0  0  0
   -1.1370    2.5373   -1.5546 H   0  0  0  0  0  0  0  0  0  0  0  0
   -0.9851    1.3114    0.6698 C   0  0  0  0  0  0  0  0  0  0  0  0
   -2.0377    1.8431    0.3168 O   0  0  0  0  0  0  0  0  0  0  0  0
   -0.1052    1.9265    1.4663 N   0  0  0  0  0  0  0  0  0  0  0  0
    0.7810    1.4586    1.6201 H   0  0  0  0  0  0  0  0  0  0  0  0
   -0.2724    3.2715    2.0119 C   0  0  0  0  0  0  0  0  0  0  0  0
   -1.3249    3.4549    2.2426 H   0  0  0  0  0  0  0  0  0  0  0  0
    0.3167    3.3776    2.9239 H   0  0  0  0  0  0  0  0  0  0  0  0
    0.0609    4.0073    1.2782 H   0  0  0  0  0  0  0  0  0  0  0  0
  5  6  2  0  0  0  0
  5  7  1  0  0  0  0
  2  3  1  0  0  0  0
  2  4  1  0  0  0  0
  2  5  1  0  0  0  0
  1  2  1  0  0  0  0
 22 23  2  0  0  0  0
 22 24  1  0  0  0  0
 20 21  1  0  0  0  0
 18 19  1  0  0  0  0
 18 20  1  0  0  0  0
 16 17  1  0  0  0  0
 16 18  1  0  0  0  0
 15 16  2  0  0  0  0
 14 15  1  0  0  0  0
 14 20  2  0  0  0  0
 11 12  1  0  0  0  0
 11 13  1  0  0  0  0
 11 14  1  0  0  0  0
  9 10  1  0  0  0  0
  9 11  1  0  0  0  0
  9 22  1  0  0  0  0
  7  8  1  0  0  0  0
  7  9  1  0  0  0  0
 26 27  1  0  0  0  0
 26 28  1  0  0  0  0
 26 29  1  0  0  0  0
 24 25  1  0  0  0  0
 24 26  1  0  0  0  0
M  END
$$$$
default_name
  -OEChem-02102213163D

 29 29  0     1  0  0  0  0  0999 V2000
   -2.9561   -3.9186    1.3887 H   0  0  0  0  0  0  0  0  0  0  0  0
   -3.1191   -2.9346    0.9517 C   0  0  0  0  0  0  0  0  0  0  0  0
   -3.7811   -2.3546    1.5917 H   0  0  0  0  0  0  0  0  0  0  0  0
   -3.5591   -3.0406   -0.0383 H   0  0  0  0  0  0  0  0  0  0  0  0
   -1.7921   -2.2226    0.8327 C   0  0  0  0  0  0  0  0  0  0  0  0
   -0.7611   -2.7766    1.1927 O   0  0  0  0  0  0  0  0  0  0  0  0
   -1.8201   -0.9926    0.3247 N   0  0  0  0  0  0  0  0  0  0  0  0
   -2.7141   -0.5816    0.0927 H   0  0  0  0  0  0  0  0  0  0  0  0
   -0.6481   -0.1156    0.2017 C   0  0  1  0  0  0  0  0  0  0  0  0
    0.1344   -0.4988    0.8596 H   0  0  0  0  0  0  0  0  0  0  0  0
   -0.1211   -0.1520   -1.2460 C   0  0  0  0  0  0  0  0  0  0  0  0
    0.6236   -0.9427   -1.3480 H   0  0  0  0  0  0  0  0  0  0  0  0
   -0.9388   -0.3808   -1.9308 H   0  0  0  0  0  0  0  0  0  0  0  0
    0.5369    1.1406   -1.6634 C   0  0  0  0  0  0  0  0  0  0  0  0
    1.7470    1.2580   -2.3484 N   0  0  0  0  0  0  0  0  0  0  0  0
    1.9285    2.5704   -2.5554 C   0  0  0  0  0  0  0  0  0  0  0  0
    2.7876    2.9986   -3.0562 H   0  0  0  0  0  0  0  0  0  0  0  0
    0.8929    3.2708   -2.0632 N   0  0  0  0  0  0  0  0  0  0  0  0
    0.7873    4.2749   -2.1135 H   0  0  0  0  0  0  0  0  0  0  0  0
    0.0018    2.3848   -1.4995 C   0  0  0  0  0  0  0  0  0  0  0  0
   -0.9494    2.6100   -1.0338 H   0  0  0  0  0  0  0  0  0  0  0  0
   -0.9851    1.3114    0.6698 C   0  0  0  0  0  0  0  0  0  0  0  0
   -2.0377    1.8431    0.3168 O   0  0  0  0  0  0  0  0  0  0  0  0
   -0.1052    1.9265    1.4663 N   0  0  0  0  0  0  0  0  0  0  0  0
    0.7810    1.4586    1.6201 H   0  0  0  0  0  0  0  0  0  0  0  0
   -0.2724    3.2715    2.0119 C   0  0  0  0  0  0  0  0  0  0  0  0
   -1.3249    3.4549    2.2426 H   0  0  0  0  0  0  0  0  0  0  0  0
    0.3167    3.3776    2.9239 H   0  0  0  0  0  0  0  0  0  0  0  0
    0.0609    4.0073    1.2782 H   0  0  0  0  0  0  0  0  0  0  0  0
  5  6  2  0  0  0  0
  5  7  1  0  0  0  0
  2  3  1  0  0  0  0
  2  4  1  0  0  0  0
  2  5  1  0  0  0  0
  1  2  1  0  0  0  0
 22 23  2  0  0  0  0
 22 24  1  0  0  0  0
 20 21  1  0  0  0  0
 18 19  1  0  0  0  0
 18 20  1  0  0  0  0
 16 17  1  0  0  0  0
 16 18  1  0  0  0  0
 15 16  2  0  0  0  0
 14 15  1  0  0  0  0
 14 20  2  0  0  0  0
 11 12  1  0  0  0  0
 11 13  1  0  0  0  0
 11 14  1  0  0  0  0
  9 10  1  0  0  0  0
  9 11  1  0  0  0  0
  9 22  1  0  0  0  0
  7  8  1  0  0  0  0
  7  9  1  0  0  0  0
 26 27  1  0  0  0  0
 26 28  1  0  0  0  0
 26 29  1  0  0  0  0
 24 25  1  0  0  0  0
 24 26  1  0  0  0  0
M  END
$$$$
default_name
  -OEChem-02102213163D

 29 29  0     1  0  0  0  0  0999 V2000
   -2.9561   -3.9186    1.3887 H   0  0  0  0  0  0  0  0  0  0  0  0
   -3.1191   -2.9346    0.9517 C   0  0  0  0  0  0  0  0  0  0  0  0
   -3.7811   -2.3546    1.5917 H   0  0  0  0  0  0  0  0  0  0  0  0
   -3.5591   -3.0406   -0.0383 H   0  0  0  0  0  0  0  0  0  0  0  0
   -1.7921   -2.2226    0.8327 C   0  0  0  0  0  0  0  0  0  0  0  0
   -0.7611   -2.7766    1.1927 O   0  0  0  0  0  0  0  0  0  0  0  0
   -1.8201   -0.9926    0.3247 N   0  0  0  0  0  0  0  0  0  0  0  0
   -2.7141   -0.5816    0.0927 H   0  0  0  0  0  0  0  0  0  0  0  0
   -0.6481   -0.1156    0.2017 C   0  0  1  0  0  0  0  0  0  0  0  0
    0.1344   -0.4988    0.8596 H   0  0  0  0  0  0  0  0  0  0  0  0
   -0.1211   -0.1520   -1.2460 C   0  0  0  0  0  0  0  0  0  0  0  0
    0.6236   -0.9427   -1.3480 H   0  0  0  0  0  0  0  0  0  0  0  0
   -0.9388   -0.3808   -1.9308 H   0  0  0  0  0  0  0  0  0  0  0  0
    0.5369    1.1406   -1.6634 C   0  0  0  0  0  0  0  0  0  0  0  0
    1.5745    1.2685   -2.5878 N   0  0  0  0  0  0  0  0  0  0  0  0
    1.8166    2.5834   -2.6917 C   0  0  0  0  0  0  0  0  0  0  0  0
    2.5792    3.0176   -3.3259 H   0  0  0  0  0  0  0  0  0  0  0  0
    0.9757    3.2788   -1.9078 N   0  0  0  0  0  0  0  0  0  0  0  0
    0.9468    4.2861   -1.8275 H   0  0  0  0  0  0  0  0  0  0  0  0
    0.1572    2.3852   -1.2535 C   0  0  0  0  0  0  0  0  0  0  0  0
   -0.6475    2.6080   -0.5641 H   0  0  0  0  0  0  0  0  0  0  0  0
   -0.9851    1.3114    0.6698 C   0  0  0  0  0  0  0  0  0  0  0  0
   -2.0377    1.8431    0.3168 O   0  0  0  0  0  0  0  0  0  0  0  0
   -0.1052    1.9265    1.4663 N   0  0  0  0  0  0  0  0  0  0  0  0
    0.7810    1.4586    1.6201 H   0  0  0  0  0  0  0  0  0  0  0  0
   -0.2724    3.2715    2.0119 C   0  0  0  0  0  0  0  0  0  0  0  0
   -1.3249    3.4549    2.2426 H   0  0  0  0  0  0  0  0  0  0  0  0
    0.3167    3.3776    2.9239 H   0  0  0  0  0  0  0  0  0  0  0  0
    0.0609    4.0073    1.2782 H   0  0  0  0  0  0  0  0  0  0  0  0
  5  6  2  0  0  0  0
  5  7  1  0  0  0  0
  2  3  1  0  0  0  0
  2  4  1  0  0  0  0
  2  5  1  0  0  0  0
  1  2  1  0  0  0  0
 22 23  2  0  0  0  0
 22 24  1  0  0  0  0
 20 21  1  0  0  0  0
 18 19  1  0  0  0  0
 18 20  1  0  0  0  0
 16 17  1  0  0  0  0
 16 18  1  0  0  0  0
 15 16  2  0  0  0  0
 14 15  1  0  0  0  0
 14 20  2  0  0  0  0
 11 12  1  0  0  0  0
 11 13  1  0  0  0  0
 11 14  1  0  0  0  0
  9 10  1  0  0  0  0
  9 11  1  0  0  0  0
  9 22  1  0  0  0  0
  7  8  1  0  0  0  0
  7  9  1  0  0  0  0
 26 27  1  0  0  0  0
 26 28  1  0  0  0  0
 26 29  1  0  0  0  0
 24 25  1  0  0  0  0
 24 26  1  0  0  0  0
M  END
$$$$
default_name
  -OEChem-02102213163D

 29 29  0     1  0  0  0  0  0999 V2000
   -2.9561   -3.9186    1.3887 H   0  0  0  0  0  0  0  0  0  0  0  0
   -3.1191   -2.9346    0.9517 C   0  0  0  0  0  0  0  0  0  0  0  0
   -3.7811   -2.3546    1.5917 H   0  0  0  0  0  0  0  0  0  0  0  0
   -3.5591   -3.0406   -0.0383 H   0  0  0  0  0  0  0  0  0  0  0  0
   -1.7921   -2.2226    0.8327 C   0  0  0  0  0  0  0  0  0  0  0  0
   -0.7611   -2.7766    1.1927 O   0  0  0  0  0  0  0  0  0  0  0  0
   -1.8201   -0.9926    0.3247 N   0  0  0  0  0  0  0  0  0  0  0  0
   -2.7141   -0.5816    0.0927 H   0  0  0  0  0  0  0  0  0  0  0  0
   -0.6481   -0.1156    0.2017 C   0  0  1  0  0  0  0  0  0  0  0  0
    0.1344   -0.4988    0.8596 H   0  0  0  0  0  0  0  0  0  0  0  0
   -0.1211   -0.1520   -1.2460 C   0  0  0  0  0  0  0  0  0  0  0  0
    0.6236   -0.9427   -1.3480 H   0  0  0  0  0  0  0  0  0  0  0  0
   -0.9388   -0.3808   -1.9308 H   0  0  0  0  0  0  0  0  0  0  0  0
    0.5369    1.1406   -1.6634 C   0  0  0  0  0  0  0  0  0  0  0  0
    1.3556    1.3180   -2.7795 N   0  0  0  0  0  0  0  0  0  0  0  0
    1.6792    2.6193   -2.7971 C   0  0  0  0  0  0  0  0  0  0  0  0
    2.3194    3.0814   -3.5380 H   0  0  0  0  0  0  0  0  0  0  0  0
    1.0907    3.2631   -1.7751 N   0  0  0  0  0  0  0  0  0  0  0  0
    1.1649    4.2532   -1.5853 H   0  0  0  0  0  0  0  0  0  0  0  0
    0.3618    2.3467   -1.0502 C   0  0  0  0  0  0  0  0  0  0  0  0
   -0.2519    2.5315   -0.1776 H   0  0  0  0  0  0  0  0  0  0  0  0
   -0.9851    1.3114    0.6698 C   0  0  0  0  0  0  0  0  0  0  0  0
   -2.0377    1.8431    0.3168 O   0  0  0  0  0  0  0  0  0  0  0  0
   -0.1052    1.9265    1.4663 N   0  0  0  0  0  0  0  0  0  0  0  0
    0.7810    1.4586    1.6201 H   0  0  0  0  0  0  0  0  0  0  0  0
   -0.2724    3.2715    2.0119 C   0  0  0  0  0  0  0  0  0  0  0  0
   -1.3249    3.4549    2.2426 H   0  0  0  0  0  0  0  0  0  0  0  0
    0.3167    3.3776    2.9239 H   0  0  0  0  0  0  0  0  0  0  0  0
    0.0609    4.0073    1.2782 H   0  0  0  0  0  0  0  0  0  0  0  0
  5  6  2  0  0  0  0
  5  7  1  0  0  0  0
  2  3  1  0  0  0  0
  2  4  1  0  0  0  0
  2  5  1  0  0  0  0
  1  2  1  0  0  0  0
 22 23  2  0  0  0  0
 22 24  1  0  0  0  0
 20 21  1  0  0  0  0
 18 19  1  0  0  0  0
 18 20  1  0  0  0  0
 16 17  1  0  0  0  0
 16 18  1  0  0  0  0
 15 16  2  0  0  0  0
 14 15  1  0  0  0  0
 14 20  2  0  0  0  0
 11 12  1  0  0  0  0
 11 13  1  0  0  0  0
 11 14  1  0  0  0  0
  9 10  1  0  0  0  0
  9 11  1  0  0  0  0
  9 22  1  0  0  0  0
  7  8  1  0  0  0  0
  7  9  1  0  0  0  0
 26 27  1  0  0  0  0
 26 28  1  0  0  0  0
 26 29  1  0  0  0  0
 24 25  1  0  0  0  0
 24 26  1  0  0  0  0
M  END
$$$$
default_name
  -OEChem-02102213163D

 29 29  0     1  0  0  0  0  0999 V2000
   -2.9561   -3.9186    1.3887 H   0  0  0  0  0  0  0  0  0  0  0  0
   -3.1191   -2.9346    0.9517 C   0  0  0  0  0  0  0  0  0  0  0  0
   -3.7811   -2.3546    1.5917 H   0  0  0  0  0  0  0  0  0  0  0  0
   -3.5591   -3.0406   -0.0383 H   0  0  0  0  0  0  0  0  0  0  0  0
   -1.7921   -2.2226    0.8327 C   0  0  0  0  0  0  0  0  0  0  0  0
   -0.7611   -2.7766    1.1927 O   0  0  0  0  0  0  0  0  0  0  0  0
   -1.8201   -0.9926    0.3247 N   0  0  0  0  0  0  0  0  0  0  0  0
   -2.7141   -0.5816    0.0927 H   0  0  0  0  0  0  0  0  0  0  0  0
   -0.6481   -0.1156    0.2017 C   0  0  1  0  0  0  0  0  0  0  0  0
    0.1344   -0.4988    0.8596 H   0  0  0  0  0  0  0  0  0  0  0  0
   -0.1211   -0.1520   -1.2460 C   0  0  0  0  0  0  0  0  0  0  0  0
    0.4109   -1.0881   -1.4218 H   0  0  0  0  0  0  0  0  0  0  0  0
   -0.9581   -0.1139   -1.9445 H   0  0  0  0  0  0  0  0  0  0  0  0
    0.8382    0.9731   -1.5495 C   0  0  0  0  0  0  0  0  0  0  0  0
    1.4743    1.1978   -2.7711 N   0  0  0  0  0  0  0  0  0  0  0  0
    2.1905    2.3206   -2.6134 C   0  0  0  0  0  0  0  0  0  0  0  0
    2.8134    2.7626   -3.3808 H   0  0  0  0  0  0  0  0  0  0  0  0
    2.0167    2.8185   -1.3776 N   0  0  0  0  0  0  0  0  0  0  0  0
    2.4348    3.6681   -1.0237 H   0  0  0  0  0  0  0  0  0  0  0  0
    1.1627    1.9834   -0.6921 C   0  0  0  0  0  0  0  0  0  0  0  0
    0.7937    2.1005    0.3191 H   0  0  0  0  0  0  0  0  0  0  0  0
   -0.9851    1.3114    0.6698 C   0  0  0  0  0  0  0  0  0  0  0  0
   -2.0377    1.8431    0.3168 O   0  0  0  0  0  0  0  0  0  0  0  0
   -0.1052    1.9265    1.4663 N   0  0  0  0  0  0  0  0  0  0  0  0
    0.7810    1.4586    1.6201 H   0  0  0  0  0  0  0  0  0  0  0  0
   -0.2724    3.2715    2.0119 C   0  0  0  0  0  0  0  0  0  0  0  0
   -1.3249    3.4549    2.2426 H   0  0  0  0  0  0  0  0  0  0  0  0
    0.3167    3.3776    2.9239 H   0  0  0  0  0  0  0  0  0  0  0  0
    0.0609    4.0073    1.2782 H   0  0  0  0  0  0  0  0  0  0  0  0
  5  6  2  0  0  0  0
  5  7  1  0  0  0  0
  2  3  1  0  0  0  0
  2  4  1  0  0  0  0
  2  5  1  0  0  0  0
  1  2  1  0  0  0  0
 22 23  2  0  0  0  0
 22 24  1  0  0  0  0
 20 21  1  0  0  0  0
 18 19  1  0  0  0  0
 18 20  1  0  0  0  0
 16 17  1  0  0  0  0
 16 18  1  0  0  0  0
 15 16  2  0  0  0  0
 14 15  1  0  0  0  0
 14 20  2  0  0  0  0
 11 12  1  0  0  0  0
 11 13  1  0  0  0  0
 11 14  1  0  0  0  0
  9 10  1  0  0  0  0
  9 11  1  0  0  0  0
  9 22  1  0  0  0  0
  7  8  1  0  0  0  0
  7  9  1  0  0  0  0
 26 27  1  0  0  0  0
 26 28  1  0  0  0  0
 26 29  1  0  0  0  0
 24 25  1  0  0  0  0
 24 26  1  0  0  0  0
M  END
$$$$
default_name
  -OEChem-02102213163D

 29 29  0     1  0  0  0  0  0999 V2000
   -2.9561   -3.9186    1.3887 H   0  0  0  0  0  0  0  0  0  0  0  0
   -3.1191   -2.9346    0.9517 C   0  0  0  0  0  0  0  0  0  0  0  0
   -3.7811   -2.3546    1.5917 H   0  0  0  0  0  0  0  0  0  0  0  0
   -3.5591   -3.0406   -0.0383 H   0  0  0  0  0  0  0  0  0  0  0  0
   -1.7921   -2.2226    0.8327 C   0  0  0  0  0  0  0  0  0  0  0  0
   -0.7611   -2.7766    1.1927 O   0  0  0  0  0  0  0  0  0  0  0  0
   -1.8201   -0.9926    0.3247 N   0  0  0  0  0  0  0  0  0  0  0  0
   -2.7141   -0.5816    0.0927 H   0  0  0  0  0  0  0  0  0  0  0  0
   -0.6481   -0.1156    0.2017 C   0  0  1  0  0  0  0  0  0  0  0  0
    0.1344   -0.4988    0.8596 H   0  0  0  0  0  0  0  0  0  0  0  0
   -0.1211   -0.1520   -1.2460 C   0  0  0  0  0  0  0  0  0  0  0  0
    0.4109   -1.0881   -1.4218 H   0  0  0  0  0  0  0  0  0  0  0  0
   -0.9581   -0.1139   -1.9445 H   0  0  0  0  0  0  0  0  0  0  0  0
    0.8382    0.9731   -1.5495 C   0  0  0  0  0  0  0  0  0  0  0  0
    1.2464    1.3788   -2.8208 N   0  0  0  0  0  0  0  0  0  0  0  0
    2.0543    2.4321   -2.6307 C   0  0  0  0  0  0  0  0  0  0  0  0
    2.5500    2.9752   -3.4254 H   0  0  0  0  0  0  0  0  0  0  0  0
    2.1511    2.7190   -1.3216 N   0  0  0  0  0  0  0  0  0  0  0  0
    2.6853    3.4807   -0.9264 H   0  0  0  0  0  0  0  0  0  0  0  0
    1.3867    1.8110   -0.6231 C   0  0  0  0  0  0  0  0  0  0  0  0
    1.2238    1.7681    0.4464 H   0  0  0  0  0  0  0  0  0  0  0  0
   -0.9851    1.3114    0.6698 C   0  0  0  0  0  0  0  0  0  0  0  0
   -2.0377    1.8431    0.3168 O   0  0  0  0  0  0  0  0  0  0  0  0
   -0.1052    1.9265    1.4663 N   0  0  0  0  0  0  0  0  0  0  0  0
    0.7810    1.4586    1.6201 H   0  0  0  0  0  0  0  0  0  0  0  0
   -0.2724    3.2715    2.0119 C   0  0  0  0  0  0  0  0  0  0  0  0
   -1.3249    3.4549    2.2426 H   0  0  0  0  0  0  0  0  0  0  0  0
    0.3167    3.3776    2.9239 H   0  0  0  0  0  0  0  0  0  0  0  0
    0.0609    4.0073    1.2782 H   0  0  0  0  0  0  0  0  0  0  0  0
  5  6  2  0  0  0  0
  5  7  1  0  0  0  0
  2  3  1  0  0  0  0
  2  4  1  0  0  0  0
  2  5  1  0  0  0  0
  1  2  1  0  0  0  0
 22 23  2  0  0  0  0
 22 24  1  0  0  0  0
 20 21  1  0  0  0  0
 18 19  1  0  0  0  0
 18 20  1  0  0  0  0
 16 17  1  0  0  0  0
 16 18  1  0  0  0  0
 15 16  2  0  0  0  0
 14 15  1  0  0  0  0
 14 20  2  0  0  0  0
 11 12  1  0  0  0  0
 11 13  1  0  0  0  0
 11 14  1  0  0  0  0
  9 10  1  0  0  0  0
  9 11  1  0  0  0  0
  9 22  1  0  0  0  0
  7  8  1  0  0  0  0
  7  9  1  0  0  0  0
 26 27  1  0  0  0  0
 26 28  1  0  0  0  0
 26 29  1  0  0  0  0
 24 25  1  0  0  0  0
 24 26  1  0  0  0  0
M  END
$$$$
default_name
  -OEChem-02102213163D

 29 29  0     1  0  0  0  0  0999 V2000
   -2.9561   -3.9186    1.3887 H   0  0  0  0  0  0  0  0  0  0  0  0
   -3.1191   -2.9346    0.9517 C   0  0  0  0  0  0  0  0  0  0  0  0
   -3.7811   -2.3546    1.5917 H   0  0  0  0  0  0  0  0  0  0  0  0
   -3.5591   -3.0406   -0.0383 H   0  0  0  0  0  0  0  0  0  0  0  0
   -1.7921   -2.2226    0.8327 C   0  0  0  0  0  0  0  0  0  0  0  0
   -0.7611   -2.7766    1.1927 O   0  0  0  0  0  0  0  0  0  0  0  0
   -1.8201   -0.9926    0.3247 N   0  0  0  0  0  0  0  0  0  0  0  0
   -2.7141   -0.5816    0.0927 H   0  0  0  0  0  0  0  0  0  0  0  0
   -0.6481   -0.1156    0.2017 C   0  0  1  0  0  0  0  0  0  0  0  0
    0.1344   -0.4988    0.8596 H   0  0  0  0  0  0  0  0  0  0  0  0
   -0.1211   -0.1520   -1.2460 C   0  0  0  0  0  0  0  0  0  0  0  0
    0.4109   -1.0881   -1.4218 H   0  0  0  0  0  0  0  0  0  0  0  0
   -0.9581   -0.1139   -1.9445 H   0  0  0  0  0  0  0  0  0  0  0  0
    0.8382    0.9731   -1.5495 C   0  0  0  0  0  0  0  0  0  0  0  0
    1.0260    1.5736   -2.7951 N   0  0  0  0  0  0  0  0  0  0  0  0
    1.9252    2.5496   -2.6027 C   0  0  0  0  0  0  0  0  0  0  0  0
    2.2981    3.2015   -3.3826 H   0  0  0  0  0  0  0  0  0  0  0  0
    2.2864    2.6068   -1.3098 N   0  0  0  0  0  0  0  0  0  0  0  0
    2.9363    3.2707   -0.9115 H   0  0  0  0  0  0  0  0  0  0  0  0
    1.6074    1.6215   -0.6281 C   0  0  0  0  0  0  0  0  0  0  0  0
    1.6466    1.4037    0.4318 H   0  0  0  0  0  0  0  0  0  0  0  0
   -0.9851    1.3114    0.6698 C   0  0  0  0  0  0  0  0  0  0  0  0
   -2.0377    1.8431    0.3168 O   0  0  0  0  0  0  0  0  0  0  0  0
   -0.1052    1.9265    1.4663 N   0  0  0  0  0  0  0  0  0  0  0  0
    0.7810    1.4586    1.6201 H   0  0  0  0  0  0  0  0  0  0  0  0
   -0.2724    3.2715    2.0119 C   0  0  0  0  0  0  0  0  0  0  0  0
   -1.3249    3.4549    2.2426 H   0  0  0  0  0  0  0  0  0  0  0  0
    0.3167    3.3776    2.9239 H   0  0  0  0  0  0  0  0  0  0  0  0
    0.0609    4.0073    1.2782 H   0  0  0  0  0  0  0  0  0  0  0  0
  5  6  2  0  0  0  0
  5  7  1  0  0  0  0
  2  3  1  0  0  0  0
  2  4  1  0  0  0  0
  2  5  1  0  0  0  0
  1  2  1  0  0  0  0
 22 23  2  0  0  0  0
 22 24  1  0  0  0  0
 20 21  1  0  0  0  0
 18 19  1  0  0  0  0
 18 20  1  0  0  0  0
 16 17  1  0  0  0  0
 16 18  1  0  0  0  0
 15 16  2  0  0  0  0
 14 15  1  0  0  0  0
 14 20  2  0  0  0  0
 11 12  1  0  0  0  0
 11 13  1  0  0  0  0
 11 14  1  0  0  0  0
  9 10  1  0  0  0  0
  9 11  1  0  0  0  0
  9 22  1  0  0  0  0
  7  8  1  0  0  0  0
  7  9  1  0  0  0  0
 26 27  1  0  0  0  0
 26 28  1  0  0  0  0
 26 29  1  0  0  0  0
 24 25  1  0  0  0  0
 24 26  1  0  0  0  0
M  END
$$$$
default_name
  -OEChem-02102213163D

 29 29  0     1  0  0  0  0  0999 V2000
   -2.9561   -3.9186    1.3887 H   0  0  0  0  0  0  0  0  0  0  0  0
   -3.1191   -2.9346    0.9517 C   0  0  0  0  0  0  0  0  0  0  0  0
   -3.7811   -2.3546    1.5917 H   0  0  0  0  0  0  0  0  0  0  0  0
   -3.5591   -3.0406   -0.0383 H   0  0  0  0  0  0  0  0  0  0  0  0
   -1.7921   -2.2226    0.8327 C   0  0  0  0  0  0  0  0  0  0  0  0
   -0.7611   -2.7766    1.1927 O   0  0  0  0  0  0  0  0  0  0  0  0
   -1.8201   -0.9926    0.3247 N   0  0  0  0  0  0  0  0  0  0  0  0
   -2.7141   -0.5816    0.0927 H   0  0  0  0  0  0  0  0  0  0  0  0
   -0.6481   -0.1156    0.2017 C   0  0  1  0  0  0  0  0  0  0  0  0
    0.1344   -0.4988    0.8596 H   0  0  0  0  0  0  0  0  0  0  0  0
   -0.1211   -0.1520   -1.2460 C   0  0  0  0  0  0  0  0  0  0  0  0
    0.4109   -1.0881   -1.4218 H   0  0  0  0  0  0  0  0  0  0  0  0
   -0.9581   -0.1139   -1.9445 H   0  0  0  0  0  0  0  0  0  0  0  0
    0.8382    0.9731   -1.5495 C   0  0  0  0  0  0  0  0  0  0  0  0
    0.8283    1.7690   -2.6958 N   0  0  0  0  0  0  0  0  0  0  0  0
    1.8121    2.6654   -2.5314 C   0  0  0  0  0  0  0  0  0  0  0  0
    2.0747    3.4263   -3.2555 H   0  0  0  0  0  0  0  0  0  0  0  0
    2.4136    2.4894   -1.3430 N   0  0  0  0  0  0  0  0  0  0  0  0
    3.1707    3.0524   -0.9800 H   0  0  0  0  0  0  0  0  0  0  0  0
    1.8098    1.4278   -0.7066 C   0  0  0  0  0  0  0  0  0  0  0  0
    2.0332    1.0321    0.2761 H   0  0  0  0  0  0  0  0  0  0  0  0
   -0.9851    1.3114    0.6698 C   0  0  0  0  0  0  0  0  0  0  0  0
   -2.0377    1.8431    0.3168 O   0  0  0  0  0  0  0  0  0  0  0  0
   -0.1052    1.9265    1.4663 N   0  0  0  0  0  0  0  0  0  0  0  0
    0.7810    1.4586    1.6201 H   0  0  0  0  0  0  0  0  0  0  0  0
   -0.2724    3.2715    2.0119 C   0  0  0  0  0  0  0  0  0  0  0  0
   -1.3249    3.4549    2.2426 H   0  0  0  0  0  0  0  0  0  0  0  0
    0.3167    3.3776    2.9239 H   0  0  0  0  0  0  0  0  0  0  0  0
    0.0609    4.0073    1.2782 H   0  0  0  0  0  0  0  0  0  0  0  0
  5  6  2  0  0  0  0
  5  7  1  0  0  0  0
  2  3  1  0  0  0  0
  2  4  1  0  0  0  0
  2  5  1  0  0  0  0
  1  2  1  0  0  0  0
 22 23  2  0  0  0  0
 22 24  1  0  0  0  0
 20 21  1  0  0  0  0
 18 19  1  0  0  0  0
 18 20  1  0  0  0  0
 16 17  1  0  0  0  0
 16 18  1  0  0  0  0
 15 16  2  0  0  0  0
 14 15  1  0  0  0  0
 14 20  2  0  0  0  0
 11 12  1  0  0  0  0
 11 13  1  0  0  0  0
 11 14  1  0  0  0  0
  9 10  1  0  0  0  0
  9 11  1  0  0  0  0
  9 22  1  0  0  0  0
  7  8  1  0  0  0  0
  7  9  1  0  0  0  0
 26 27  1  0  0  0  0
 26 28  1  0  0  0  0
 26 29  1  0  0  0  0
 24 25  1  0  0  0  0
 24 26  1  0  0  0  0
M  END
$$$$
default_name
  -OEChem-02102213163D

 29 29  0     1  0  0  0  0  0999 V2000
   -2.9561   -3.9186    1.3887 H   0  0  0  0  0  0  0  0  0  0  0  0
   -3.1191   -2.9346    0.9517 C   0  0  0  0  0  0  0  0  0  0  0  0
   -3.7811   -2.3546    1.5917 H   0  0  0  0  0  0  0  0  0  0  0  0
   -3.5591   -3.0406   -0.0383 H   0  0  0  0  0  0  0  0  0  0  0  0
   -1.7921   -2.2226    0.8327 C   0  0  0  0  0  0  0  0  0  0  0  0
   -0.7611   -2.7766    1.1927 O   0  0  0  0  0  0  0  0  0  0  0  0
   -1.8201   -0.9926    0.3247 N   0  0  0  0  0  0  0  0  0  0  0  0
   -2.7141   -0.5816    0.0927 H   0  0  0  0  0  0  0  0  0  0  0  0
   -0.6481   -0.1156    0.2017 C   0  0  1  0  0  0  0  0  0  0  0  0
    0.1344   -0.4988    0.8596 H   0  0  0  0  0  0  0  0  0  0  0  0
   -0.1211   -0.1520   -1.2460 C   0  0  0  0  0  0  0  0  0  0  0  0
    0.4109   -1.0881   -1.4218 H   0  0  0  0  0  0  0  0  0  0  0  0
   -0.9581   -0.1139   -1.9445 H   0  0  0  0  0  0  0  0  0  0  0  0
    0.8382    0.9731   -1.5495 C   0  0  0  0  0  0  0  0  0  0  0  0
    0.6666    1.9517   -2.5295 N   0  0  0  0  0  0  0  0  0  0  0  0
    1.7225    2.7713   -2.4218 C   0  0  0  0  0  0  0  0  0  0  0  0
    1.8952    3.6340   -3.0527 H   0  0  0  0  0  0  0  0  0  0  0  0
    2.5240    2.3748   -1.4189 N   0  0  0  0  0  0  0  0  0  0  0  0
    3.3725    2.8405   -1.1274 H   0  0  0  0  0  0  0  0  0  0  0  0
    1.9800    1.2431   -0.8534 C   0  0  0  0  0  0  0  0  0  0  0  0
    2.3572    0.6786   -0.0099 H   0  0  0  0  0  0  0  0  0  0  0  0
   -0.9851    1.3114    0.6698 C   0  0  0  0  0  0  0  0  0  0  0  0
   -2.0377    1.8431    0.3168 O   0  0  0  0  0  0  0  0  0  0  0  0
   -0.1052    1.9265    1.4663 N   0  0  0  0  0  0  0  0  0  0  0  0
    0.7810    1.4586    1.6201 H   0  0  0  0  0  0  0  0  0  0  0  0
   -0.2724    3.2715    2.0119 C   0  0  0  0  0  0  0  0  0  0  0  0
   -1.3249    3.4549    2.2426 H   0  0  0  0  0  0  0  0  0  0  0  0
    0.3167    3.3776    2.9239 H   0  0  0  0  0  0  0  0  0  0  0  0
    0.0609    4.0073    1.2782 H   0  0  0  0  0  0  0  0  0  0  0  0
  5  6  2  0  0  0  0
  5  7  1  0  0  0  0
  2  3  1  0  0  0  0
  2  4  1  0  0  0  0
  2  5  1  0  0  0  0
  1  2  1  0  0  0  0
 22 23  2  0  0  0  0
 22 24  1  0  0  0  0
 20 21  1  0  0  0  0
 18 19  1  0  0  0  0
 18 20  1  0  0  0  0
 16 17  1  0  0  0  0
 16 18  1  0  0  0  0
 15 16  2  0  0  0  0
 14 15  1  0  0  0  0
 14 20  2  0  0  0  0
 11 12  1  0  0  0  0
 11 13  1  0  0  0  0
 11 14  1  0  0  0  0
  9 10  1  0  0  0  0
  9 11  1  0  0  0  0
  9 22  1  0  0  0  0
  7  8  1  0  0  0  0
  7  9  1  0  0  0  0
 26 27  1  0  0  0  0
 26 28  1  0  0  0  0
 26 29  1  0  0  0  0
 24 25  1  0  0  0  0
 24 26  1  0  0  0  0
M  END
$$$$
default_name
  -OEChem-02102213163D

 29 29  0     1  0  0  0  0  0999 V2000
   -2.9561   -3.9186    1.3887 H   0  0  0  0  0  0  0  0  0  0  0  0
   -3.1191   -2.9346    0.9517 C   0  0  0  0  0  0  0  0  0  0  0  0
   -3.7811   -2.3546    1.5917 H   0  0  0  0  0  0  0  0  0  0  0  0
   -3.5591   -3.0406   -0.0383 H   0  0  0  0  0  0  0  0  0  0  0  0
   -1.7921   -2.2226    0.8327 C   0  0  0  0  0  0  0  0  0  0  0  0
   -0.7611   -2.7766    1.1927 O   0  0  0  0  0  0  0  0  0  0  0  0
   -1.8201   -0.9926    0.3247 N   0  0  0  0  0  0  0  0  0  0  0  0
   -2.7141   -0.5816    0.0927 H   0  0  0  0  0  0  0  0  0  0  0  0
   -0.6481   -0.1156    0.2017 C   0  0  1  0  0  0  0  0  0  0  0  0
    0.1344   -0.4988    0.8596 H   0  0  0  0  0  0  0  0  0  0  0  0
   -0.1211   -0.1520   -1.2460 C   0  0  0  0  0  0  0  0  0  0  0  0
    0.4109   -1.0881   -1.4218 H   0  0  0  0  0  0  0  0  0  0  0  0
   -0.9581   -0.1139   -1.9445 H   0  0  0  0  0  0  0  0  0  0  0  0
    0.8382    0.9731   -1.5495 C   0  0  0  0  0  0  0  0  0  0  0  0
    0.5521    2.1092   -2.3076 N   0  0  0  0  0  0  0  0  0  0  0  0
    1.6627    2.8602   -2.2811 C   0  0  0  0  0  0  0  0  0  0  0  0
    1.7718    3.8107   -2.7880 H   0  0  0  0  0  0  0  0  0  0  0  0
    2.6100    2.2709   -1.5323 N   0  0  0  0  0  0  0  0  0  0  0  0
    3.5280    2.6497   -1.3436 H   0  0  0  0  0  0  0  0  0  0  0  0
    2.1065    1.0799   -1.0584 C   0  0  0  0  0  0  0  0  0  0  0  0
    2.5966    0.3674   -0.4068 H   0  0  0  0  0  0  0  0  0  0  0  0
   -0.9851    1.3114    0.6698 C   0  0  0  0  0  0  0  0  0  0  0  0
   -2.0377    1.8431    0.3168 O   0  0  0  0  0  0  0  0  0  0  0  0
   -0.1052    1.9265    1.4663 N   0  0  0  0  0  0  0  0  0  0  0  0
    0.7810    1.4586    1.6201 H   0  0  0  0  0  0  0  0  0  0  0  0
   -0.2724    3.2715    2.0119 C   0  0  0  0  0  0  0  0  0  0  0  0
   -1.3249    3.4549    2.2426 H   0  0  0  0  0  0  0  0  0  0  0  0
    0.3167    3.3776    2.9239 H   0  0  0  0  0  0  0  0  0  0  0  0
    0.0609    4.0073    1.2782 H   0  0  0  0  0  0  0  0  0  0  0  0
  5  6  2  0  0  0  0
  5  7  1  0  0  0  0
  2  3  1  0  0  0  0
  2  4  1  0  0  0  0
  2  5  1  0  0  0  0
  1  2  1  0  0  0  0
 22 23  2  0  0  0  0
 22 24  1  0  0  0  0
 20 21  1  0  0  0  0
 18 19  1  0  0  0  0
 18 20  1  0  0  0  0
 16 17  1  0  0  0  0
 16 18  1  0  0  0  0
 15 16  2  0  0  0  0
 14 15  1  0  0  0  0
 14 20  2  0  0  0  0
 11 12  1  0  0  0  0
 11 13  1  0  0  0  0
 11 14  1  0  0  0  0
  9 10  1  0  0  0  0
  9 11  1  0  0  0  0
  9 22  1  0  0  0  0
  7  8  1  0  0  0  0
  7  9  1  0  0  0  0
 26 27  1  0  0  0  0
 26 28  1  0  0  0  0
 26 29  1  0  0  0  0
 24 25  1  0  0  0  0
 24 26  1  0  0  0  0
M  END
$$$$
default_name
  -OEChem-02102213163D

 29 29  0     1  0  0  0  0  0999 V2000
   -2.9561   -3.9186    1.3887 H   0  0  0  0  0  0  0  0  0  0  0  0
   -3.1191   -2.9346    0.9517 C   0  0  0  0  0  0  0  0  0  0  0  0
   -3.7811   -2.3546    1.5917 H   0  0  0  0  0  0  0  0  0  0  0  0
   -3.5591   -3.0406   -0.0383 H   0  0  0  0  0  0  0  0  0  0  0  0
   -1.7921   -2.2226    0.8327 C   0  0  0  0  0  0  0  0  0  0  0  0
   -0.7611   -2.7766    1.1927 O   0  0  0  0  0  0  0  0  0  0  0  0
   -1.8201   -0.9926    0.3247 N   0  0  0  0  0  0  0  0  0  0  0  0
   -2.7141   -0.5816    0.0927 H   0  0  0  0  0  0  0  0  0  0  0  0
   -0.6481   -0.1156    0.2017 C   0  0  1  0  0  0  0  0  0  0  0  0
    0.1344   -0.4988    0.8596 H   0  0  0  0  0  0  0  0  0  0  0  0
   -0.1211   -0.1520   -1.2460 C   0  0  0  0  0  0  0  0  0  0  0  0
    0.4109   -1.0881   -1.4218 H   0  0  0  0  0  0  0  0  0  0  0  0
   -0.9581   -0.1139   -1.9445 H   0  0  0  0  0  0  0  0  0  0  0  0
    0.8382    0.9731   -1.5495 C   0  0  0  0  0  0  0  0  0  0  0  0
    0.4924    2.2309   -2.0453 N   0  0  0  0  0  0  0  0  0  0  0  0
    1.6367    2.9261   -2.1191 C   0  0  0  0  0  0  0  0  0  0  0  0
    1.7128    3.9443   -2.4794 H   0  0  0  0  0  0  0  0  0  0  0  0
    2.6658    2.1847   -1.6756 N   0  0  0  0  0  0  0  0  0  0  0  0
    3.6266    2.4927   -1.6137 H   0  0  0  0  0  0  0  0  0  0  0  0
    2.1806    0.9494   -1.3076 C   0  0  0  0  0  0  0  0  0  0  0  0
    2.7350    0.1196   -0.8876 H   0  0  0  0  0  0  0  0  0  0  0  0
   -0.9851    1.3114    0.6698 C   0  0  0  0  0  0  0  0  0  0  0  0
   -2.0377    1.8431    0.3168 O   0  0  0  0  0  0  0  0  0  0  0  0
   -0.1052    1.9265    1.4663 N   0  0  0  0  0  0  0  0  0  0  0  0
    0.7810    1.4586    1.6201 H   0  0  0  0  0  0  0  0  0  0  0  0
   -0.2724    3.2715    2.0119 C   0  0  0  0  0  0  0  0  0  0  0  0
   -1.3249    3.4549    2.2426 H   0  0  0  0  0  0  0  0  0  0  0  0
    0.3167    3.3776    2.9239 H   0  0  0  0  0  0  0  0  0  0  0  0
    0.0609    4.0073    1.2782 H   0  0  0  0  0  0  0  0  0  0  0  0
  5  6  2  0  0  0  0
  5  7  1  0  0  0  0
  2  3  1  0  0  0  0
  2  4  1  0  0  0  0
  2  5  1  0  0  0  0
  1  2  1  0  0  0  0
 22 23  2  0  0  0  0
 22 24  1  0  0  0  0
 20 21  1  0  0  0  0
 18 19  1  0  0  0  0
 18 20  1  0  0  0  0
 16 17  1  0  0  0  0
 16 18  1  0  0  0  0
 15 16  2  0  0  0  0
 14 15  1  0  0  0  0
 14 20  2  0  0  0  0
 11 12  1  0  0  0  0
 11 13  1  0  0  0  0
 11 14  1  0  0  0  0
  9 10  1  0  0  0  0
  9 11  1  0  0  0  0
  9 22  1  0  0  0  0
  7  8  1  0  0  0  0
  7  9  1  0  0  0  0
 26 27  1  0  0  0  0
 26 28  1  0  0  0  0
 26 29  1  0  0  0  0
 24 25  1  0  0  0  0
 24 26  1  0  0  0  0
M  END
$$$$
default_name
  -OEChem-02102213163D

 29 29  0     1  0  0  0  0  0999 V2000
   -2.9561   -3.9186    1.3887 H   0  0  0  0  0  0  0  0  0  0  0  0
   -3.1191   -2.9346    0.9517 C   0  0  0  0  0  0  0  0  0  0  0  0
   -3.7811   -2.3546    1.5917 H   0  0  0  0  0  0  0  0  0  0  0  0
   -3.5591   -3.0406   -0.0383 H   0  0  0  0  0  0  0  0  0  0  0  0
   -1.7921   -2.2226    0.8327 C   0  0  0  0  0  0  0  0  0  0  0  0
   -0.7611   -2.7766    1.1927 O   0  0  0  0  0  0  0  0  0  0  0  0
   -1.8201   -0.9926    0.3247 N   0  0  0  0  0  0  0  0  0  0  0  0
   -2.7141   -0.5816    0.0927 H   0  0  0  0  0  0  0  0  0  0  0  0
   -0.6481   -0.1156    0.2017 C   0  0  1  0  0  0  0  0  0  0  0  0
    0.1344   -0.4988    0.8596 H   0  0  0  0  0  0  0  0  0  0  0  0
   -0.1211   -0.1520   -1.2460 C   0  0  0  0  0  0  0  0  0  0  0  0
    0.4109   -1.0881   -1.4218 H   0  0  0  0  0  0  0  0  0  0  0  0
   -0.9581   -0.1139   -1.9445 H   0  0  0  0  0  0  0  0  0  0  0  0
    0.8382    0.9731   -1.5495 C   0  0  0  0  0  0  0  0  0  0  0  0
    0.4917    2.3083   -1.7604 N   0  0  0  0  0  0  0  0  0  0  0  0
    1.6463    2.9645   -1.9467 C   0  0  0  0  0  0  0  0  0  0  0  0
    1.7223    4.0256   -2.1480 H   0  0  0  0  0  0  0  0  0  0  0  0
    2.6875    2.1221   -1.8389 N   0  0  0  0  0  0  0  0  0  0  0  0
    3.6615    2.3805   -1.9195 H   0  0  0  0  0  0  0  0  0  0  0  0
    2.1974    0.8606   -1.5842 C   0  0  0  0  0  0  0  0  0  0  0  0
    2.7631   -0.0478   -1.4195 H   0  0  0  0  0  0  0  0  0  0  0  0
   -0.9851    1.3114    0.6698 C   0  0  0  0  0  0  0  0  0  0  0  0
   -2.0377    1.8431    0.3168 O   0  0  0  0  0  0  0  0  0  0  0  0
   -0.1052    1.9265    1.4663 N   0  0  0  0  0  0  0  0  0  0  0  0
    0.7810    1.4586    1.6201 H   0  0  0  0  0  0  0  0  0  0  0  0
   -0.2724    3.2715    2.0119 C   0  0  0  0  0  0  0  0  0  0  0  0
   -1.3249    3.4549    2.2426 H   0  0  0  0  0  0  0  0  0  0  0  0
    0.3167    3.3776    2.9239 H   0  0  0  0  0  0  0  0  0  0  0  0
    0.0609    4.0073    1.2782 H   0  0  0  0  0  0  0  0  0  0  0  0
  5  6  2  0  0  0  0
  5  7  1  0  0  0  0
  2  3  1  0  0  0  0
  2  4  1  0  0  0  0
  2  5  1  0  0  0  0
  1  2  1  0  0  0  0
 22 23  2  0  0  0  0
 22 24  1  0  0  0  0
 20 21  1  0  0  0  0
 18 19  1  0  0  0  0
 18 20  1  0  0  0  0
 16 17  1  0  0  0  0
 16 18  1  0  0  0  0
 15 16  2  0  0  0  0
 14 15  1  0  0  0  0
 14 20  2  0  0  0  0
 11 12  1  0  0  0  0
 11 13  1  0  0  0  0
 11 14  1  0  0  0  0
  9 10  1  0  0  0  0
  9 11  1  0  0  0  0
  9 22  1  0  0  0  0
  7  8  1  0  0  0  0
  7  9  1  0  0  0  0
 26 27  1  0  0  0  0
 26 28  1  0  0  0  0
 26 29  1  0  0  0  0
 24 25  1  0  0  0  0
 24 26  1  0  0  0  0
M  END
$$$$
default_name
  -OEChem-02102213163D

 29 29  0     1  0  0  0  0  0999 V2000
   -2.9561   -3.9186    1.3887 H   0  0  0  0  0  0  0  0  0  0  0  0
   -3.1191   -2.9346    0.9517 C   0  0  0  0  0  0  0  0  0  0  0  0
   -3.7811   -2.3546    1.5917 H   0  0  0  0  0  0  0  0  0  0  0  0
   -3.5591   -3.0406   -0.0383 H   0  0  0  0  0  0  0  0  0  0  0  0
   -1.7921   -2.2226    0.8327 C   0  0  0  0  0  0  0  0  0  0  0  0
   -0.7611   -2.7766    1.1927 O   0  0  0  0  0  0  0  0  0  0  0  0
   -1.8201   -0.9926    0.3247 N   0  0  0  0  0  0  0  0  0  0  0  0
   -2.7141   -0.5816    0.0927 H   0  0  0  0  0  0  0  0  0  0  0  0
   -0.6481   -0.1156    0.2017 C   0  0  1  0  0  0  0  0  0  0  0  0
    0.1344   -0.4988    0.8596 H   0  0  0  0  0  0  0  0  0  0  0  0
   -0.1211   -0.1520   -1.2460 C   0  0  0  0  0  0  0  0  0  0  0  0
    0.4109   -1.0881   -1.4218 H   0  0  0  0  0  0  0  0  0  0  0  0
   -0.9581   -0.1139   -1.9445 H   0  0  0  0  0  0  0  0  0  0  0  0
    0.8382    0.9731   -1.5495 C   0  0  0  0  0  0  0  0  0  0  0  0
    0.5501    2.3363   -1.4723 N   0  0  0  0  0  0  0  0  0  0  0  0
    1.6908    2.9726   -1.7758 C   0  0  0  0  0  0  0  0  0  0  0  0
    1.7997    4.0491   -1.8163 H   0  0  0  0  0  0  0  0  0  0  0  0
    2.6738    2.0873   -2.0111 N   0  0  0  0  0  0  0  0  0  0  0  0
    3.6303    2.3205   -2.2401 H   0  0  0  0  0  0  0  0  0  0  0  0
    2.1556    0.8193   -1.8691 C   0  0  0  0  0  0  0  0  0  0  0  0
    2.6789   -0.1236   -1.9662 H   0  0  0  0  0  0  0  0  0  0  0  0
   -0.9851    1.3114    0.6698 C   0  0  0  0  0  0  0  0  0  0  0  0
   -2.0377    1.8431    0.3168 O   0  0  0  0  0  0  0  0  0  0  0  0
   -0.1052    1.9265    1.4663 N   0  0  0  0  0  0  0  0  0  0  0  0
    0.7810    1.4586    1.6201 H   0  0  0  0  0  0  0  0  0  0  0  0
   -0.2724    3.2715    2.0119 C   0  0  0  0  0  0  0  0  0  0  0  0
   -1.3249    3.4549    2.2426 H   0  0  0  0  0  0  0  0  0  0  0  0
    0.3167    3.3776    2.9239 H   0  0  0  0  0  0  0  0  0  0  0  0
    0.0609    4.0073    1.2782 H   0  0  0  0  0  0  0  0  0  0  0  0
  5  6  2  0  0  0  0
  5  7  1  0  0  0  0
  2  3  1  0  0  0  0
  2  4  1  0  0  0  0
  2  5  1  0  0  0  0
  1  2  1  0  0  0  0
 22 23  2  0  0  0  0
 22 24  1  0  0  0  0
 20 21  1  0  0  0  0
 18 19  1  0  0  0  0
 18 20  1  0  0  0  0
 16 17  1  0  0  0  0
 16 18  1  0  0  0  0
 15 16  2  0  0  0  0
 14 15  1  0  0  0  0
 14 20  2  0  0  0  0
 11 12  1  0  0  0  0
 11 13  1  0  0  0  0
 11 14  1  0  0  0  0
  9 10  1  0  0  0  0
  9 11  1  0  0  0  0
  9 22  1  0  0  0  0
  7  8  1  0  0  0  0
  7  9  1  0  0  0  0
 26 27  1  0  0  0  0
 26 28  1  0  0  0  0
 26 29  1  0  0  0  0
 24 25  1  0  0  0  0
 24 26  1  0  0  0  0
M  END
$$$$
default_name
  -OEChem-02102213163D

 29 29  0     1  0  0  0  0  0999 V2000
   -2.9561   -3.9186    1.3887 H   0  0  0  0  0  0  0  0  0  0  0  0
   -3.1191   -2.9346    0.9517 C   0  0  0  0  0  0  0  0  0  0  0  0
   -3.7811   -2.3546    1.5917 H   0  0  0  0  0  0  0  0  0  0  0  0
   -3.5591   -3.0406   -0.0383 H   0  0  0  0  0  0  0  0  0  0  0  0
   -1.7921   -2.2226    0.8327 C   0  0  0  0  0  0  0  0  0  0  0  0
   -0.7611   -2.7766    1.1927 O   0  0  0  0  0  0  0  0  0  0  0  0
   -1.8201   -0.9926    0.3247 N   0  0  0  0  0  0  0  0  0  0  0  0
   -2.7141   -0.5816    0.0927 H   0  0  0  0  0  0  0  0  0  0  0  0
   -0.6481   -0.1156    0.2017 C   0  0  1  0  0  0  0  0  0  0  0  0
    0.1344   -0.4988    0.8596 H   0  0  0  0  0  0  0  0  0  0  0  0
   -0.1211   -0.1520   -1.2460 C   0  0  0  0  0  0  0  0  0  0  0  0
    0.4109   -1.0881   -1.4218 H   0  0  0  0  0  0  0  0  0  0  0  0
   -0.9581   -0.1139   -1.9445 H   0  0  0  0  0  0  0  0  0  0  0  0
    0.8382    0.9731   -1.5495 C   0  0  0  0  0  0  0  0  0  0  0  0
    0.6634    2.3129   -1.2008 N   0  0  0  0  0  0  0  0  0  0  0  0
    1.7672    2.9501   -1.6179 C   0  0  0  0  0  0  0  0  0  0  0  0
    1.9397    4.0132   -1.5070 H   0  0  0  0  0  0  0  0  0  0  0  0
    2.6254    2.0828   -2.1806 N   0  0  0  0  0  0  0  0  0  0  0  0
    3.5353    2.3169   -2.5536 H   0  0  0  0  0  0  0  0  0  0  0  0
    2.0580    0.8285   -2.1430 C   0  0  0  0  0  0  0  0  0  0  0  0
    2.4882   -0.1024   -2.4905 H   0  0  0  0  0  0  0  0  0  0  0  0
   -0.9851    1.3114    0.6698 C   0  0  0  0  0  0  0  0  0  0  0  0
   -2.0377    1.8431    0.3168 O   0  0  0  0  0  0  0  0  0  0  0  0
   -0.1052    1.9265    1.4663 N   0  0  0  0  0  0  0  0  0  0  0  0
    0.7810    1.4586    1.6201 H   0  0  0  0  0  0  0  0  0  0  0  0
   -0.2724    3.2715    2.0119 C   0  0  0  0  0  0  0  0  0  0  0  0
   -1.3249    3.4549    2.2426 H   0  0  0  0  0  0  0  0  0  0  0  0
    0.3167    3.3776    2.9239 H   0  0  0  0  0  0  0  0  0  0  0  0
    0.0609    4.0073    1.2782 H   0  0  0  0  0  0  0  0  0  0  0  0
  5  6  2  0  0  0  0
  5  7  1  0  0  0  0
  2  3  1  0  0  0  0
  2  4  1  0  0  0  0
  2  5  1  0  0  0  0
  1  2  1  0  0  0  0
 22 23  2  0  0  0  0
 22 24  1  0  0  0  0
 20 21  1  0  0  0  0
 18 19  1  0  0  0  0
 18 20  1  0  0  0  0
 16 17  1  0  0  0  0
 16 18  1  0  0  0  0
 15 16  2  0  0  0  0
 14 15  1  0  0  0  0
 14 20  2  0  0  0  0
 11 12  1  0  0  0  0
 11 13  1  0  0  0  0
 11 14  1  0  0  0  0
  9 10  1  0  0  0  0
  9 11  1  0  0  0  0
  9 22  1  0  0  0  0
  7  8  1  0  0  0  0
  7  9  1  0  0  0  0
 26 27  1  0  0  0  0
 26 28  1  0  0  0  0
 26 29  1  0  0  0  0
 24 25  1  0  0  0  0
 24 26  1  0  0  0  0
M  END
$$$$
default_name
  -OEChem-02102213163D

 29 29  0     1  0  0  0  0  0999 V2000
   -2.9561   -3.9186    1.3887 H   0  0  0  0  0  0  0  0  0  0  0  0
   -3.1191   -2.9346    0.9517 C   0  0  0  0  0  0  0  0  0  0  0  0
   -3.7811   -2.3546    1.5917 H   0  0  0  0  0  0  0  0  0  0  0  0
   -3.5591   -3.0406   -0.0383 H   0  0  0  0  0  0  0  0  0  0  0  0
   -1.7921   -2.2226    0.8327 C   0  0  0  0  0  0  0  0  0  0  0  0
   -0.7611   -2.7766    1.1927 O   0  0  0  0  0  0  0  0  0  0  0  0
   -1.8201   -0.9926    0.3247 N   0  0  0  0  0  0  0  0  0  0  0  0
   -2.7141   -0.5816    0.0927 H   0  0  0  0  0  0  0  0  0  0  0  0
   -0.6481   -0.1156    0.2017 C   0  0  1  0  0  0  0  0  0  0  0  0
    0.1344   -0.4988    0.8596 H   0  0  0  0  0  0  0  0  0  0  0  0
   -0.1211   -0.1520   -1.2460 C   0  0  0  0  0  0  0  0  0  0  0  0
    0.4109   -1.0881   -1.4218 H   0  0  0  0  0  0  0  0  0  0  0  0
   -0.9581   -0.1139   -1.9445 H   0  0  0  0  0  0  0  0  0  0  0  0
    0.8382    0.9731   -1.5495 C   0  0  0  0  0  0  0  0  0  0  0  0
    0.8241    2.2398   -0.9641 N   0  0  0  0  0  0  0  0  0  0  0  0
    1.8703    2.8984   -1.4838 C   0  0  0  0  0  0  0  0  0  0  0  0
    2.1326    3.9204   -1.2412 H   0  0  0  0  0  0  0  0  0  0  0  0
    2.5458    2.1088   -2.3356 N   0  0  0  0  0  0  0  0  0  0  0  0
    3.3828    2.3700   -2.8386 H   0  0  0  0  0  0  0  0  0  0  0  0
    1.9115    0.8876   -2.3873 C   0  0  0  0  0  0  0  0  0  0  0  0
    2.2039    0.0142   -2.9567 H   0  0  0  0  0  0  0  0  0  0  0  0
   -0.9851    1.3114    0.6698 C   0  0  0  0  0  0  0  0  0  0  0  0
   -2.0377    1.8431    0.3168 O   0  0  0  0  0  0  0  0  0  0  0  0
   -0.1052    1.9265    1.4663 N   0  0  0  0  0  0  0  0  0  0  0  0
    0.7810    1.4586    1.6201 H   0  0  0  0  0  0  0  0  0  0  0  0
   -0.2724    3.2715    2.0119 C   0  0  0  0  0  0  0  0  0  0  0  0
   -1.3249    3.4549    2.2426 H   0  0  0  0  0  0  0  0  0  0  0  0
    0.3167    3.3776    2.9239 H   0  0  0  0  0  0  0  0  0  0  0  0
    0.0609    4.0073    1.2782 H   0  0  0  0  0  0  0  0  0  0  0  0
  5  6  2  0  0  0  0
  5  7  1  0  0  0  0
  2  3  1  0  0  0  0
  2  4  1  0  0  0  0
  2  5  1  0  0  0  0
  1  2  1  0  0  0  0
 22 23  2  0  0  0  0
 22 24  1  0  0  0  0
 20 21  1  0  0  0  0
 18 19  1  0  0  0  0
 18 20  1  0  0  0  0
 16 17  1  0  0  0  0
 16 18  1  0  0  0  0
 15 16  2  0  0  0  0
 14 15  1  0  0  0  0
 14 20  2  0  0  0  0
 11 12  1  0  0  0  0
 11 13  1  0  0  0  0
 11 14  1  0  0  0  0
  9 10  1  0  0  0  0
  9 11  1  0  0  0  0
  9 22  1  0  0  0  0
  7  8  1  0  0  0  0
  7  9  1  0  0  0  0
 26 27  1  0  0  0  0
 26 28  1  0  0  0  0
 26 29  1  0  0  0  0
 24 25  1  0  0  0  0
 24 26  1  0  0  0  0
M  END
$$$$
default_name
  -OEChem-02102213163D

 29 29  0     1  0  0  0  0  0999 V2000
   -2.9561   -3.9186    1.3887 H   0  0  0  0  0  0  0  0  0  0  0  0
   -3.1191   -2.9346    0.9517 C   0  0  0  0  0  0  0  0  0  0  0  0
   -3.7811   -2.3546    1.5917 H   0  0  0  0  0  0  0  0  0  0  0  0
   -3.5591   -3.0406   -0.0383 H   0  0  0  0  0  0  0  0  0  0  0  0
   -1.7921   -2.2226    0.8327 C   0  0  0  0  0  0  0  0  0  0  0  0
   -0.7611   -2.7766    1.1927 O   0  0  0  0  0  0  0  0  0  0  0  0
   -1.8201   -0.9926    0.3247 N   0  0  0  0  0  0  0  0  0  0  0  0
   -2.7141   -0.5816    0.0927 H   0  0  0  0  0  0  0  0  0  0  0  0
   -0.6481   -0.1156    0.2017 C   0  0  1  0  0  0  0  0  0  0  0  0
    0.1344   -0.4988    0.8596 H   0  0  0  0  0  0  0  0  0  0  0  0
   -0.1211   -0.1520   -1.2460 C   0  0  0  0  0  0  0  0  0  0  0  0
    0.4109   -1.0881   -1.4218 H   0  0  0  0  0  0  0  0  0  0  0  0
   -0.9581   -0.1139   -1.9445 H   0  0  0  0  0  0  0  0  0  0  0  0
    0.8382    0.9731   -1.5495 C   0  0  0  0  0  0  0  0  0  0  0  0
    1.0212    2.1218   -0.7786 N   0  0  0  0  0  0  0  0  0  0  0  0
    1.9930    2.8210   -1.3827 C   0  0  0  0  0  0  0  0  0  0  0  0
    2.3655    3.7770   -1.0369 H   0  0  0  0  0  0  0  0  0  0  0  0
    2.4403    2.1636   -2.4658 N   0  0  0  0  0  0  0  0  0  0  0  0
    3.1833    2.4761   -3.0759 H   0  0  0  0  0  0  0  0  0  0  0  0
    1.7259    0.9924   -2.5853 C   0  0  0  0  0  0  0  0  0  0  0  0
    1.8454    0.2184   -3.3329 H   0  0  0  0  0  0  0  0  0  0  0  0
   -0.9851    1.3114    0.6698 C   0  0  0  0  0  0  0  0  0  0  0  0
   -2.0377    1.8431    0.3168 O   0  0  0  0  0  0  0  0  0  0  0  0
   -0.1052    1.9265    1.4663 N   0  0  0  0  0  0  0  0  0  0  0  0
    0.7810    1.4586    1.6201 H   0  0  0  0  0  0  0  0  0  0  0  0
   -0.2724    3.2715    2.0119 C   0  0  0  0  0  0  0  0  0  0  0  0
   -1.3249    3.4549    2.2426 H   0  0  0  0  0  0  0  0  0  0  0  0
    0.3167    3.3776    2.9239 H   0  0  0  0  0  0  0  0  0  0  0  0
    0.0609    4.0073    1.2782 H   0  0  0  0  0  0  0  0  0  0  0  0
  5  6  2  0  0  0  0
  5  7  1  0  0  0  0
  2  3  1  0  0  0  0
  2  4  1  0  0  0  0
  2  5  1  0  0  0  0
  1  2  1  0  0  0  0
 22 23  2  0  0  0  0
 22 24  1  0  0  0  0
 20 21  1  0  0  0  0
 18 19  1  0  0  0  0
 18 20  1  0  0  0  0
 16 17  1  0  0  0  0
 16 18  1  0  0  0  0
 15 16  2  0  0  0  0
 14 15  1  0  0  0  0
 14 20  2  0  0  0  0
 11 12  1  0  0  0  0
 11 13  1  0  0  0  0
 11 14  1  0  0  0  0
  9 10  1  0  0  0  0
  9 11  1  0  0  0  0
  9 22  1  0  0  0  0
  7  8  1  0  0  0  0
  7  9  1  0  0  0  0
 26 27  1  0  0  0  0
 26 28  1  0  0  0  0
 26 29  1  0  0  0  0
 24 25  1  0  0  0  0
 24 26  1  0  0  0  0
M  END
$$$$
default_name
  -OEChem-02102213163D

 29 29  0     1  0  0  0  0  0999 V2000
   -2.9561   -3.9186    1.3887 H   0  0  0  0  0  0  0  0  0  0  0  0
   -3.1191   -2.9346    0.9517 C   0  0  0  0  0  0  0  0  0  0  0  0
   -3.7811   -2.3546    1.5917 H   0  0  0  0  0  0  0  0  0  0  0  0
   -3.5591   -3.0406   -0.0383 H   0  0  0  0  0  0  0  0  0  0  0  0
   -1.7921   -2.2226    0.8327 C   0  0  0  0  0  0  0  0  0  0  0  0
   -0.7611   -2.7766    1.1927 O   0  0  0  0  0  0  0  0  0  0  0  0
   -1.8201   -0.9926    0.3247 N   0  0  0  0  0  0  0  0  0  0  0  0
   -2.7141   -0.5816    0.0927 H   0  0  0  0  0  0  0  0  0  0  0  0
   -0.6481   -0.1156    0.2017 C   0  0  1  0  0  0  0  0  0  0  0  0
    0.1344   -0.4988    0.8596 H   0  0  0  0  0  0  0  0  0  0  0  0
   -0.1211   -0.1520   -1.2460 C   0  0  0  0  0  0  0  0  0  0  0  0
    0.4109   -1.0881   -1.4218 H   0  0  0  0  0  0  0  0  0  0  0  0
   -0.9581   -0.1139   -1.9445 H   0  0  0  0  0  0  0  0  0  0  0  0
    0.8382    0.9731   -1.5495 C   0  0  0  0  0  0  0  0  0  0  0  0
    1.2412    1.9671   -0.6568 N   0  0  0  0  0  0  0  0  0  0  0  0
    2.1270    2.7233   -1.3215 C   0  0  0  0  0  0  0  0  0  0  0  0
    2.6224    3.5927   -0.9080 H   0  0  0  0  0  0  0  0  0  0  0  0
    2.3162    2.2435   -2.5622 N   0  0  0  0  0  0  0  0  0  0  0  0
    2.9504    2.6280   -3.2490 H   0  0  0  0  0  0  0  0  0  0  0  0
    1.5139    1.1359   -2.7235 C   0  0  0  0  0  0  0  0  0  0  0  0
    1.4372    0.4961   -3.5936 H   0  0  0  0  0  0  0  0  0  0  0  0
   -0.9851    1.3114    0.6698 C   0  0  0  0  0  0  0  0  0  0  0  0
   -2.0377    1.8431    0.3168 O   0  0  0  0  0  0  0  0  0  0  0  0
   -0.1052    1.9265    1.4663 N   0  0  0  0  0  0  0  0  0  0  0  0
    0.7810    1.4586    1.6201 H   0  0  0  0  0  0  0  0  0  0  0  0
   -0.2724    3.2715    2.0119 C   0  0  0  0  0  0  0  0  0  0  0  0
   -1.3249    3.4549    2.2426 H   0  0  0  0  0  0  0  0  0  0  0  0
    0.3167    3.3776    2.9239 H   0  0  0  0  0  0  0  0  0  0  0  0
    0.0609    4.0073    1.2782 H   0  0  0  0  0  0  0  0  0  0  0  0
  5  6  2  0  0  0  0
  5  7  1  0  0  0  0
  2  3  1  0  0  0  0
  2  4  1  0  0  0  0
  2  5  1  0  0  0  0
  1  2  1  0  0  0  0
 22 23  2  0  0  0  0
 22 24  1  0  0  0  0
 20 21  1  0  0  0  0
 18 19  1  0  0  0  0
 18 20  1  0  0  0  0
 16 17  1  0  0  0  0
 16 18  1  0  0  0  0
 15 16  2  0  0  0  0
 14 15  1  0  0  0  0
 14 20  2  0  0  0  0
 11 12  1  0  0  0  0
 11 13  1  0  0  0  0
 11 14  1  0  0  0  0
  9 10  1  0  0  0  0
  9 11  1  0  0  0  0
  9 22  1  0  0  0  0
  7  8  1  0  0  0  0
  7  9  1  0  0  0  0
 26 27  1  0  0  0  0
 26 28  1  0  0  0  0
 26 29  1  0  0  0  0
 24 25  1  0  0  0  0
 24 26  1  0  0  0  0
M  END
$$$$
default_name
  -OEChem-02102213163D

 29 29  0     1  0  0  0  0  0999 V2000
   -2.9561   -3.9186    1.3887 H   0  0  0  0  0  0  0  0  0  0  0  0
   -3.1191   -2.9346    0.9517 C   0  0  0  0  0  0  0  0  0  0  0  0
   -3.7811   -2.3546    1.5917 H   0  0  0  0  0  0  0  0  0  0  0  0
   -3.5591   -3.0406   -0.0383 H   0  0  0  0  0  0  0  0  0  0  0  0
   -1.7921   -2.2226    0.8327 C   0  0  0  0  0  0  0  0  0  0  0  0
   -0.7611   -2.7766    1.1927 O   0  0  0  0  0  0  0  0  0  0  0  0
   -1.8201   -0.9926    0.3247 N   0  0  0  0  0  0  0  0  0  0  0  0
   -2.7141   -0.5816    0.0927 H   0  0  0  0  0  0  0  0  0  0  0  0
   -0.6481   -0.1156    0.2017 C   0  0  1  0  0  0  0  0  0  0  0  0
    0.1344   -0.4988    0.8596 H   0  0  0  0  0  0  0  0  0  0  0  0
   -0.1211   -0.1520   -1.2460 C   0  0  0  0  0  0  0  0  0  0  0  0
    0.4109   -1.0881   -1.4218 H   0  0  0  0  0  0  0  0  0  0  0  0
   -0.9581   -0.1139   -1.9445 H   0  0  0  0  0  0  0  0  0  0  0  0
    0.8382    0.9731   -1.5495 C   0  0  0  0  0  0  0  0  0  0  0  0
    1.4691    1.7862   -0.6071 N   0  0  0  0  0  0  0  0  0  0  0  0
    2.2632    2.6118   -1.3042 C   0  0  0  0  0  0  0  0  0  0  0  0
    2.8858    3.3802   -0.8635 H   0  0  0  0  0  0  0  0  0  0  0  0
    2.1819    2.3429   -2.6182 N   0  0  0  0  0  0  0  0  0  0  0  0
    2.6999    2.8153   -3.3464 H   0  0  0  0  0  0  0  0  0  0  0  0
    1.2899    1.3083   -2.7925 C   0  0  0  0  0  0  0  0  0  0  0  0
    1.0070    0.8285   -3.7210 H   0  0  0  0  0  0  0  0  0  0  0  0
   -0.9851    1.3114    0.6698 C   0  0  0  0  0  0  0  0  0  0  0  0
   -2.0377    1.8431    0.3168 O   0  0  0  0  0  0  0  0  0  0  0  0
   -0.1052    1.9265    1.4663 N   0  0  0  0  0  0  0  0  0  0  0  0
    0.7810    1.4586    1.6201 H   0  0  0  0  0  0  0  0  0  0  0  0
   -0.2724    3.2715    2.0119 C   0  0  0  0  0  0  0  0  0  0  0  0
   -1.3249    3.4549    2.2426 H   0  0  0  0  0  0  0  0  0  0  0  0
    0.3167    3.3776    2.9239 H   0  0  0  0  0  0  0  0  0  0  0  0
    0.0609    4.0073    1.2782 H   0  0  0  0  0  0  0  0  0  0  0  0
  5  6  2  0  0  0  0
  5  7  1  0  0  0  0
  2  3  1  0  0  0  0
  2  4  1  0  0  0  0
  2  5  1  0  0  0  0
  1  2  1  0  0  0  0
 22 23  2  0  0  0  0
 22 24  1  0  0  0  0
 20 21  1  0  0  0  0
 18 19  1  0  0  0  0
 18 20  1  0  0  0  0
 16 17  1  0  0  0  0
 16 18  1  0  0  0  0
 15 16  2  0  0  0  0
 14 15  1  0  0  0  0
 14 20  2  0  0  0  0
 11 12  1  0  0  0  0
 11 13  1  0  0  0  0
 11 14  1  0  0  0  0
  9 10  1  0  0  0  0
  9 11  1  0  0  0  0
  9 22  1  0  0  0  0
  7  8  1  0  0  0  0
  7  9  1  0  0  0  0
 26 27  1  0  0  0  0
 26 28  1  0  0  0  0
 26 29  1  0  0  0  0
 24 25  1  0  0  0  0
 24 26  1  0  0  0  0
M  END
$$$$
default_name
  -OEChem-02102213163D

 29 29  0     1  0  0  0  0  0999 V2000
   -2.9561   -3.9186    1.3887 H   0  0  0  0  0  0  0  0  0  0  0  0
   -3.1191   -2.9346    0.9517 C   0  0  0  0  0  0  0  0  0  0  0  0
   -3.7811   -2.3546    1.5917 H   0  0  0  0  0  0  0  0  0  0  0  0
   -3.5591   -3.0406   -0.0383 H   0  0  0  0  0  0  0  0  0  0  0  0
   -1.7921   -2.2226    0.8327 C   0  0  0  0  0  0  0  0  0  0  0  0
   -0.7611   -2.7766    1.1927 O   0  0  0  0  0  0  0  0  0  0  0  0
   -1.8201   -0.9926    0.3247 N   0  0  0  0  0  0  0  0  0  0  0  0
   -2.7141   -0.5816    0.0927 H   0  0  0  0  0  0  0  0  0  0  0  0
   -0.6481   -0.1156    0.2017 C   0  0  1  0  0  0  0  0  0  0  0  0
    0.1344   -0.4988    0.8596 H   0  0  0  0  0  0  0  0  0  0  0  0
   -0.1211   -0.1520   -1.2460 C   0  0  0  0  0  0  0  0  0  0  0  0
    0.4109   -1.0881   -1.4218 H   0  0  0  0  0  0  0  0  0  0  0  0
   -0.9581   -0.1139   -1.9445 H   0  0  0  0  0  0  0  0  0  0  0  0
    0.8382    0.9731   -1.5495 C   0  0  0  0  0  0  0  0  0  0  0  0
    1.6895    1.5914   -0.6328 N   0  0  0  0  0  0  0  0  0  0  0  0
    2.3923    2.4942   -1.3322 C   0  0  0  0  0  0  0  0  0  0  0  0
    3.1377    3.1539   -0.9062 H   0  0  0  0  0  0  0  0  0  0  0  0
    2.0465    2.4551   -2.6300 N   0  0  0  0  0  0  0  0  0  0  0  0
    2.4489    3.0253   -3.3613 H   0  0  0  0  0  0  0  0  0  0  0  0
    1.0692    1.4978   -2.7875 C   0  0  0  0  0  0  0  0  0  0  0  0
    0.5843    1.1929   -3.7063 H   0  0  0  0  0  0  0  0  0  0  0  0
   -0.9851    1.3114    0.6698 C   0  0  0  0  0  0  0  0  0  0  0  0
   -2.0377    1.8431    0.3168 O   0  0  0  0  0  0  0  0  0  0  0  0
   -0.1052    1.9265    1.4663 N   0  0  0  0  0  0  0  0  0  0  0  0
    0.7810    1.4586    1.6201 H   0  0  0  0  0  0  0  0  0  0  0  0
   -0.2724    3.2715    2.0119 C   0  0  0  0  0  0  0  0  0  0  0  0
   -1.3249    3.4549    2.2426 H   0  0  0  0  0  0  0  0  0  0  0  0
    0.3167    3.3776    2.9239 H   0  0  0  0  0  0  0  0  0  0  0  0
    0.0609    4.0073    1.2782 H   0  0  0  0  0  0  0  0  0  0  0  0
  5  6  2  0  0  0  0
  5  7  1  0  0  0  0
  2  3  1  0  0  0  0
  2  4  1  0  0  0  0
  2  5  1  0  0  0  0
  1  2  1  0  0  0  0
 22 23  2  0  0  0  0
 22 24  1  0  0  0  0
 20 21  1  0  0  0  0
 18 19  1  0  0  0  0
 18 20  1  0  0  0  0
 16 17  1  0  0  0  0
 16 18  1  0  0  0  0
 15 16  2  0  0  0  0
 14 15  1  0  0  0  0
 14 20  2  0  0  0  0
 11 12  1  0  0  0  0
 11 13  1  0  0  0  0
 11 14  1  0  0  0  0
  9 10  1  0  0  0  0
  9 11  1  0  0  0  0
  9 22  1  0  0  0  0
  7  8  1  0  0  0  0
  7  9  1  0  0  0  0
 26 27  1  0  0  0  0
 26 28  1  0  0  0  0
 26 29  1  0  0  0  0
 24 25  1  0  0  0  0
 24 26  1  0  0  0  0
M  END
$$$$
default_name
  -OEChem-02102213163D

 29 29  0     1  0  0  0  0  0999 V2000
   -2.9561   -3.9186    1.3887 H   0  0  0  0  0  0  0  0  0  0  0  0
   -3.1191   -2.9346    0.9517 C   0  0  0  0  0  0  0  0  0  0  0  0
   -3.7811   -2.3546    1.5917 H   0  0  0  0  0  0  0  0  0  0  0  0
   -3.5591   -3.0406   -0.0383 H   0  0  0  0  0  0  0  0  0  0  0  0
   -1.7921   -2.2226    0.8327 C   0  0  0  0  0  0  0  0  0  0  0  0
   -0.7611   -2.7766    1.1927 O   0  0  0  0  0  0  0  0  0  0  0  0
   -1.8201   -0.9926    0.3247 N   0  0  0  0  0  0  0  0  0  0  0  0
   -2.7141   -0.5816    0.0927 H   0  0  0  0  0  0  0  0  0  0  0  0
   -0.6481   -0.1156    0.2017 C   0  0  1  0  0  0  0  0  0  0  0  0
    0.1344   -0.4988    0.8596 H   0  0  0  0  0  0  0  0  0  0  0  0
   -0.1211   -0.1520   -1.2460 C   0  0  0  0  0  0  0  0  0  0  0  0
    0.4109   -1.0881   -1.4218 H   0  0  0  0  0  0  0  0  0  0  0  0
   -0.9581   -0.1139   -1.9445 H   0  0  0  0  0  0  0  0  0  0  0  0
    0.8382    0.9731   -1.5495 C   0  0  0  0  0  0  0  0  0  0  0  0
    1.8872    1.3959   -0.7322 N   0  0  0  0  0  0  0  0  0  0  0  0
    2.5055    2.3785   -1.4035 C   0  0  0  0  0  0  0  0  0  0  0  0
    3.3610    2.9291   -1.0333 H   0  0  0  0  0  0  0  0  0  0  0  0
    1.9193    2.5725   -2.5968 N   0  0  0  0  0  0  0  0  0  0  0  0
    2.2145    3.2437   -3.2927 H   0  0  0  0  0  0  0  0  0  0  0  0
    0.8668    1.6915   -2.7090 C   0  0  0  0  0  0  0  0  0  0  0  0
    0.1977    1.5645   -3.5507 H   0  0  0  0  0  0  0  0  0  0  0  0
   -0.9851    1.3114    0.6698 C   0  0  0  0  0  0  0  0  0  0  0  0
   -2.0377    1.8431    0.3168 O   0  0  0  0  0  0  0  0  0  0  0  0
   -0.1052    1.9265    1.4663 N   0  0  0  0  0  0  0  0  0  0  0  0
    0.7810    1.4586    1.6201 H   0  0  0  0  0  0  0  0  0  0  0  0
   -0.2724    3.2715    2.0119 C   0  0  0  0  0  0  0  0  0  0  0  0
   -1.3249    3.4549    2.2426 H   0  0  0  0  0  0  0  0  0  0  0  0
    0.3167    3.3776    2.9239 H   0  0  0  0  0  0  0  0  0  0  0  0
    0.0609    4.0073    1.2782 H   0  0  0  0  0  0  0  0  0  0  0  0
  5  6  2  0  0  0  0
  5  7  1  0  0  0  0
  2  3  1  0  0  0  0
  2  4  1  0  0  0  0
  2  5  1  0  0  0  0
  1  2  1  0  0  0  0
 22 23  2  0  0  0  0
 22 24  1  0  0  0  0
 20 21  1  0  0  0  0
 18 19  1  0  0  0  0
 18 20  1  0  0  0  0
 16 17  1  0  0  0  0
 16 18  1  0  0  0  0
 15 16  2  0  0  0  0
 14 15  1  0  0  0  0
 14 20  2  0  0  0  0
 11 12  1  0  0  0  0
 11 13  1  0  0  0  0
 11 14  1  0  0  0  0
  9 10  1  0  0  0  0
  9 11  1  0  0  0  0
  9 22  1  0  0  0  0
  7  8  1  0  0  0  0
  7  9  1  0  0  0  0
 26 27  1  0  0  0  0
 26 28  1  0  0  0  0
 26 29  1  0  0  0  0
 24 25  1  0  0  0  0
 24 26  1  0  0  0  0
M  END
$$$$
default_name
  -OEChem-02102213163D

 29 29  0     1  0  0  0  0  0999 V2000
   -2.9561   -3.9186    1.3887 H   0  0  0  0  0  0  0  0  0  0  0  0
   -3.1191   -2.9346    0.9517 C   0  0  0  0  0  0  0  0  0  0  0  0
   -3.7811   -2.3546    1.5917 H   0  0  0  0  0  0  0  0  0  0  0  0
   -3.5591   -3.0406   -0.0383 H   0  0  0  0  0  0  0  0  0  0  0  0
   -1.7921   -2.2226    0.8327 C   0  0  0  0  0  0  0  0  0  0  0  0
   -0.7611   -2.7766    1.1927 O   0  0  0  0  0  0  0  0  0  0  0  0
   -1.8201   -0.9926    0.3247 N   0  0  0  0  0  0  0  0  0  0  0  0
   -2.7141   -0.5816    0.0927 H   0  0  0  0  0  0  0  0  0  0  0  0
   -0.6481   -0.1156    0.2017 C   0  0  1  0  0  0  0  0  0  0  0  0
    0.1344   -0.4988    0.8596 H   0  0  0  0  0  0  0  0  0  0  0  0
   -0.1211   -0.1520   -1.2460 C   0  0  0  0  0  0  0  0  0  0  0  0
    0.4109   -1.0881   -1.4218 H   0  0  0  0  0  0  0  0  0  0  0  0
   -0.9581   -0.1139   -1.9445 H   0  0  0  0  0  0  0  0  0  0  0  0
    0.8382    0.9731   -1.5495 C   0  0  0  0  0  0  0  0  0  0  0  0
    2.0489    1.2132   -0.8985 N   0  0  0  0  0  0  0  0  0  0  0  0
    2.5950    2.2726   -1.5132 C   0  0  0  0  0  0  0  0  0  0  0  0
    3.5406    2.7213   -1.2361 H   0  0  0  0  0  0  0  0  0  0  0  0
    1.8089    2.6871   -2.5209 N   0  0  0  0  0  0  0  0  0  0  0  0
    2.0127    3.4555   -3.1454 H   0  0  0  0  0  0  0  0  0  0  0  0
    0.6966    1.8762   -2.5622 C   0  0  0  0  0  0  0  0  0  0  0  0
   -0.1263    1.9179   -3.2647 H   0  0  0  0  0  0  0  0  0  0  0  0
   -0.9851    1.3114    0.6698 C   0  0  0  0  0  0  0  0  0  0  0  0
   -2.0377    1.8431    0.3168 O   0  0  0  0  0  0  0  0  0  0  0  0
   -0.1052    1.9265    1.4663 N   0  0  0  0  0  0  0  0  0  0  0  0
    0.7810    1.4586    1.6201 H   0  0  0  0  0  0  0  0  0  0  0  0
   -0.2724    3.2715    2.0119 C   0  0  0  0  0  0  0  0  0  0  0  0
   -1.3249    3.4549    2.2426 H   0  0  0  0  0  0  0  0  0  0  0  0
    0.3167    3.3776    2.9239 H   0  0  0  0  0  0  0  0  0  0  0  0
    0.0609    4.0073    1.2782 H   0  0  0  0  0  0  0  0  0  0  0  0
  5  6  2  0  0  0  0
  5  7  1  0  0  0  0
  2  3  1  0  0  0  0
  2  4  1  0  0  0  0
  2  5  1  0  0  0  0
  1  2  1  0  0  0  0
 22 23  2  0  0  0  0
 22 24  1  0  0  0  0
 20 21  1  0  0  0  0
 18 19  1  0  0  0  0
 18 20  1  0  0  0  0
 16 17  1  0  0  0  0
 16 18  1  0  0  0  0
 15 16  2  0  0  0  0
 14 15  1  0  0  0  0
 14 20  2  0  0  0  0
 11 12  1  0  0  0  0
 11 13  1  0  0  0  0
 11 14  1  0  0  0  0
  9 10  1  0  0  0  0
  9 11  1  0  0  0  0
  9 22  1  0  0  0  0
  7  8  1  0  0  0  0
  7  9  1  0  0  0  0
 26 27  1  0  0  0  0
 26 28  1  0  0  0  0
 26 29  1  0  0  0  0
 24 25  1  0  0  0  0
 24 26  1  0  0  0  0
M  END
$$$$
default_name
  -OEChem-02102213163D

 29 29  0     1  0  0  0  0  0999 V2000
   -2.9561   -3.9186    1.3887 H   0  0  0  0  0  0  0  0  0  0  0  0
   -3.1191   -2.9346    0.9517 C   0  0  0  0  0  0  0  0  0  0  0  0
   -3.7811   -2.3546    1.5917 H   0  0  0  0  0  0  0  0  0  0  0  0
   -3.5591   -3.0406   -0.0383 H   0  0  0  0  0  0  0  0  0  0  0  0
   -1.7921   -2.2226    0.8327 C   0  0  0  0  0  0  0  0  0  0  0  0
   -0.7611   -2.7766    1.1927 O   0  0  0  0  0  0  0  0  0  0  0  0
   -1.8201   -0.9926    0.3247 N   0  0  0  0  0  0  0  0  0  0  0  0
   -2.7141   -0.5816    0.0927 H   0  0  0  0  0  0  0  0  0  0  0  0
   -0.6481   -0.1156    0.2017 C   0  0  1  0  0  0  0  0  0  0  0  0
    0.1344   -0.4988    0.8596 H   0  0  0  0  0  0  0  0  0  0  0  0
   -0.1211   -0.1520   -1.2460 C   0  0  0  0  0  0  0  0  0  0  0  0
    0.4109   -1.0881   -1.4218 H   0  0  0  0  0  0  0  0  0  0  0  0
   -0.9581   -0.1139   -1.9445 H   0  0  0  0  0  0  0  0  0  0  0  0
    0.8382    0.9731   -1.5495 C   0  0  0  0  0  0  0  0  0  0  0  0
    2.1634    1.0557   -1.1203 N   0  0  0  0  0  0  0  0  0  0  0  0
    2.6548    2.1836   -1.6538 C   0  0  0  0  0  0  0  0  0  0  0  0
    3.6640    2.5447   -1.5008 H   0  0  0  0  0  0  0  0  0  0  0  0
    1.7230    2.7911   -2.4075 N   0  0  0  0  0  0  0  0  0  0  0  0
    1.8572    3.6464   -2.9292 H   0  0  0  0  0  0  0  0  0  0  0  0
    0.5701    2.0394   -2.3572 C   0  0  0  0  0  0  0  0  0  0  0  0
   -0.3657    2.2291   -2.8677 H   0  0  0  0  0  0  0  0  0  0  0  0
   -0.9851    1.3114    0.6698 C   0  0  0  0  0  0  0  0  0  0  0  0
   -2.0377    1.8431    0.3168 O   0  0  0  0  0  0  0  0  0  0  0  0
   -0.1052    1.9265    1.4663 N   0  0  0  0  0  0  0  0  0  0  0  0
    0.7810    1.4586    1.6201 H   0  0  0  0  0  0  0  0  0  0  0  0
   -0.2724    3.2715    2.0119 C   0  0  0  0  0  0  0  0  0  0  0  0
   -1.3249    3.4549    2.2426 H   0  0  0  0  0  0  0  0  0  0  0  0
    0.3167    3.3776    2.9239 H   0  0  0  0  0  0  0  0  0  0  0  0
    0.0609    4.0073    1.2782 H   0  0  0  0  0  0  0  0  0  0  0  0
  5  6  2  0  0  0  0
  5  7  1  0  0  0  0
  2  3  1  0  0  0  0
  2  4  1  0  0  0  0
  2  5  1  0  0  0  0
  1  2  1  0  0  0  0
 22 23  2  0  0  0  0
 22 24  1  0  0  0  0
 20 21  1  0  0  0  0
 18 19  1  0  0  0  0
 18 20  1  0  0  0  0
 16 17  1  0  0  0  0
 16 18  1  0  0  0  0
 15 16  2  0  0  0  0
 14 15  1  0  0  0  0
 14 20  2  0  0  0  0
 11 12  1  0  0  0  0
 11 13  1  0  0  0  0
 11 14  1  0  0  0  0
  9 10  1  0  0  0  0
  9 11  1  0  0  0  0
  9 22  1  0  0  0  0
  7  8  1  0  0  0  0
  7  9  1  0  0  0  0
 26 27  1  0  0  0  0
 26 28  1  0  0  0  0
 26 29  1  0  0  0  0
 24 25  1  0  0  0  0
 24 26  1  0  0  0  0
M  END
$$$$
default_name
  -OEChem-02102213163D

 29 29  0     1  0  0  0  0  0999 V2000
   -2.9561   -3.9186    1.3887 H   0  0  0  0  0  0  0  0  0  0  0  0
   -3.1191   -2.9346    0.9517 C   0  0  0  0  0  0  0  0  0  0  0  0
   -3.7811   -2.3546    1.5917 H   0  0  0  0  0  0  0  0  0  0  0  0
   -3.5591   -3.0406   -0.0383 H   0  0  0  0  0  0  0  0  0  0  0  0
   -1.7921   -2.2226    0.8327 C   0  0  0  0  0  0  0  0  0  0  0  0
   -0.7611   -2.7766    1.1927 O   0  0  0  0  0  0  0  0  0  0  0  0
   -1.8201   -0.9926    0.3247 N   0  0  0  0  0  0  0  0  0  0  0  0
   -2.7141   -0.5816    0.0927 H   0  0  0  0  0  0  0  0  0  0  0  0
   -0.6481   -0.1156    0.2017 C   0  0  1  0  0  0  0  0  0  0  0  0
    0.1344   -0.4988    0.8596 H   0  0  0  0  0  0  0  0  0  0  0  0
   -0.1211   -0.1520   -1.2460 C   0  0  0  0  0  0  0  0  0  0  0  0
    0.4109   -1.0881   -1.4218 H   0  0  0  0  0  0  0  0  0  0  0  0
   -0.9581   -0.1139   -1.9445 H   0  0  0  0  0  0  0  0  0  0  0  0
    0.8382    0.9731   -1.5495 C   0  0  0  0  0  0  0  0  0  0  0  0
    2.2231    0.9340   -1.3826 N   0  0  0  0  0  0  0  0  0  0  0  0
    2.6808    2.1177   -1.8158 C   0  0  0  0  0  0  0  0  0  0  0  0
    3.7230    2.4111   -1.8094 H   0  0  0  0  0  0  0  0  0  0  0  0
    1.6672    2.8773   -2.2642 N   0  0  0  0  0  0  0  0  0  0  0  0
    1.7586    3.8033   -2.6591 H   0  0  0  0  0  0  0  0  0  0  0  0
    0.4960    2.1699   -2.1080 C   0  0  0  0  0  0  0  0  0  0  0  0
   -0.5042    2.4769   -2.3869 H   0  0  0  0  0  0  0  0  0  0  0  0
   -0.9851    1.3114    0.6698 C   0  0  0  0  0  0  0  0  0  0  0  0
   -2.0377    1.8431    0.3168 O   0  0  0  0  0  0  0  0  0  0  0  0
   -0.1052    1.9265    1.4663 N   0  0  0  0  0  0  0  0  0  0  0  0
    0.7810    1.4586    1.6201 H   0  0  0  0  0  0  0  0  0  0  0  0
   -0.2724    3.2715    2.0119 C   0  0  0  0  0  0  0  0  0  0  0  0
   -1.3249    3.4549    2.2426 H   0  0  0  0  0  0  0  0  0  0  0  0
    0.3167    3.3776    2.9239 H   0  0  0  0  0  0  0  0  0  0  0  0
    0.0609    4.0073    1.2782 H   0  0  0  0  0  0  0  0  0  0  0  0
  5  6  2  0  0  0  0
  5  7  1  0  0  0  0
  2  3  1  0  0  0  0
  2  4  1  0  0  0  0
  2  5  1  0  0  0  0
  1  2  1  0  0  0  0
 22 23  2  0  0  0  0
 22 24  1  0  0  0  0
 20 21  1  0  0  0  0
 18 19  1  0  0  0  0
 18 20  1  0  0  0  0
 16 17  1  0  0  0  0
 16 18  1  0  0  0  0
 15 16  2  0  0  0  0
 14 15  1  0  0  0  0
 14 20  2  0  0  0  0
 11 12  1  0  0  0  0
 11 13  1  0  0  0  0
 11 14  1  0  0  0  0
  9 10  1  0  0  0  0
  9 11  1  0  0  0  0
  9 22  1  0  0  0  0
  7  8  1  0  0  0  0
  7  9  1  0  0  0  0
 26 27  1  0  0  0  0
 26 28  1  0  0  0  0
 26 29  1  0  0  0  0
 24 25  1  0  0  0  0
 24 26  1  0  0  0  0
M  END
$$$$
default_name
  -OEChem-02102213163D

 29 29  0     1  0  0  0  0  0999 V2000
   -2.9561   -3.9186    1.3887 H   0  0  0  0  0  0  0  0  0  0  0  0
   -3.1191   -2.9346    0.9517 C   0  0  0  0  0  0  0  0  0  0  0  0
   -3.7811   -2.3546    1.5917 H   0  0  0  0  0  0  0  0  0  0  0  0
   -3.5591   -3.0406   -0.0383 H   0  0  0  0  0  0  0  0  0  0  0  0
   -1.7921   -2.2226    0.8327 C   0  0  0  0  0  0  0  0  0  0  0  0
   -0.7611   -2.7766    1.1927 O   0  0  0  0  0  0  0  0  0  0  0  0
   -1.8201   -0.9926    0.3247 N   0  0  0  0  0  0  0  0  0  0  0  0
   -2.7141   -0.5816    0.0927 H   0  0  0  0  0  0  0  0  0  0  0  0
   -0.6481   -0.1156    0.2017 C   0  0  1  0  0  0  0  0  0  0  0  0
    0.1344   -0.4988    0.8596 H   0  0  0  0  0  0  0  0  0  0  0  0
   -0.1211   -0.1520   -1.2460 C   0  0  0  0  0  0  0  0  0  0  0  0
    0.4109   -1.0881   -1.4218 H   0  0  0  0  0  0  0  0  0  0  0  0
   -0.9581   -0.1139   -1.9445 H   0  0  0  0  0  0  0  0  0  0  0  0
    0.8382    0.9731   -1.5495 C   0  0  0  0  0  0  0  0  0  0  0  0
    2.2238    0.8566   -1.6675 N   0  0  0  0  0  0  0  0  0  0  0  0
    2.6712    2.0794   -1.9882 C   0  0  0  0  0  0  0  0  0  0  0  0
    3.7134    2.3298   -2.1408 H   0  0  0  0  0  0  0  0  0  0  0  0
    1.6454    2.9399   -2.1009 N   0  0  0  0  0  0  0  0  0  0  0  0
    1.7237    3.9156   -2.3533 H   0  0  0  0  0  0  0  0  0  0  0  0
    0.4792    2.2588   -1.8315 C   0  0  0  0  0  0  0  0  0  0  0  0
   -0.5322    2.6444   -1.8551 H   0  0  0  0  0  0  0  0  0  0  0  0
   -0.9851    1.3114    0.6698 C   0  0  0  0  0  0  0  0  0  0  0  0
   -2.0377    1.8431    0.3168 O   0  0  0  0  0  0  0  0  0  0  0  0
   -0.1052    1.9265    1.4663 N   0  0  0  0  0  0  0  0  0  0  0  0
    0.7810    1.4586    1.6201 H   0  0  0  0  0  0  0  0  0  0  0  0
   -0.2724    3.2715    2.0119 C   0  0  0  0  0  0  0  0  0  0  0  0
   -1.3249    3.4549    2.2426 H   0  0  0  0  0  0  0  0  0  0  0  0
    0.3167    3.3776    2.9239 H   0  0  0  0  0  0  0  0  0  0  0  0
    0.0609    4.0073    1.2782 H   0  0  0  0  0  0  0  0  0  0  0  0
  5  6  2  0  0  0  0
  5  7  1  0  0  0  0
  2  3  1  0  0  0  0
  2  4  1  0  0  0  0
  2  5  1  0  0  0  0
  1  2  1  0  0  0  0
 22 23  2  0  0  0  0
 22 24  1  0  0  0  0
 20 21  1  0  0  0  0
 18 19  1  0  0  0  0
 18 20  1  0  0  0  0
 16 17  1  0  0  0  0
 16 18  1  0  0  0  0
 15 16  2  0  0  0  0
 14 15  1  0  0  0  0
 14 20  2  0  0  0  0
 11 12  1  0  0  0  0
 11 13  1  0  0  0  0
 11 14  1  0  0  0  0
  9 10  1  0  0  0  0
  9 11  1  0  0  0  0
  9 22  1  0  0  0  0
  7  8  1  0  0  0  0
  7  9  1  0  0  0  0
 26 27  1  0  0  0  0
 26 28  1  0  0  0  0
 26 29  1  0  0  0  0
 24 25  1  0  0  0  0
 24 26  1  0  0  0  0
M  END
$$$$
default_name
  -OEChem-02102213163D

 29 29  0     1  0  0  0  0  0999 V2000
   -2.9561   -3.9186    1.3887 H   0  0  0  0  0  0  0  0  0  0  0  0
   -3.1191   -2.9346    0.9517 C   0  0  0  0  0  0  0  0  0  0  0  0
   -3.7811   -2.3546    1.5917 H   0  0  0  0  0  0  0  0  0  0  0  0
   -3.5591   -3.0406   -0.0383 H   0  0  0  0  0  0  0  0  0  0  0  0
   -1.7921   -2.2226    0.8327 C   0  0  0  0  0  0  0  0  0  0  0  0
   -0.7611   -2.7766    1.1927 O   0  0  0  0  0  0  0  0  0  0  0  0
   -1.8201   -0.9926    0.3247 N   0  0  0  0  0  0  0  0  0  0  0  0
   -2.7141   -0.5816    0.0927 H   0  0  0  0  0  0  0  0  0  0  0  0
   -0.6481   -0.1156    0.2017 C   0  0  1  0  0  0  0  0  0  0  0  0
    0.1344   -0.4988    0.8596 H   0  0  0  0  0  0  0  0  0  0  0  0
   -0.1211   -0.1520   -1.2460 C   0  0  0  0  0  0  0  0  0  0  0  0
    0.4109   -1.0881   -1.4218 H   0  0  0  0  0  0  0  0  0  0  0  0
   -0.9581   -0.1139   -1.9445 H   0  0  0  0  0  0  0  0  0  0  0  0
    0.8382    0.9731   -1.5495 C   0  0  0  0  0  0  0  0  0  0  0  0
    2.1654    0.8286   -1.9556 N   0  0  0  0  0  0  0  0  0  0  0  0
    2.6267    2.0712   -2.1592 C   0  0  0  0  0  0  0  0  0  0  0  0
    3.6361    2.3063   -2.4725 H   0  0  0  0  0  0  0  0  0  0  0  0
    1.6592    2.9746   -1.9287 N   0  0  0  0  0  0  0  0  0  0  0  0
    1.7549    3.9756   -2.0327 H   0  0  0  0  0  0  0  0  0  0  0  0
    0.5210    2.3000   -1.5465 C   0  0  0  0  0  0  0  0  0  0  0  0
   -0.4480    2.7201   -1.3083 H   0  0  0  0  0  0  0  0  0  0  0  0
   -0.9851    1.3114    0.6698 C   0  0  0  0  0  0  0  0  0  0  0  0
   -2.0377    1.8431    0.3168 O   0  0  0  0  0  0  0  0  0  0  0  0
   -0.1052    1.9265    1.4663 N   0  0  0  0  0  0  0  0  0  0  0  0
    0.7810    1.4586    1.6201 H   0  0  0  0  0  0  0  0  0  0  0  0
   -0.2724    3.2715    2.0119 C   0  0  0  0  0  0  0  0  0  0  0  0
   -1.3249    3.4549    2.2426 H   0  0  0  0  0  0  0  0  0  0  0  0
    0.3167    3.3776    2.9239 H   0  0  0  0  0  0  0  0  0  0  0  0
    0.0609    4.0073    1.2782 H   0  0  0  0  0  0  0  0  0  0  0  0
  5  6  2  0  0  0  0
  5  7  1  0  0  0  0
  2  3  1  0  0  0  0
  2  4  1  0  0  0  0
  2  5  1  0  0  0  0
  1  2  1  0  0  0  0
 22 23  2  0  0  0  0
 22 24  1  0  0  0  0
 20 21  1  0  0  0  0
 18 19  1  0  0  0  0
 18 20  1  0  0  0  0
 16 17  1  0  0  0  0
 16 18  1  0  0  0  0
 15 16  2  0  0  0  0
 14 15  1  0  0  0  0
 14 20  2  0  0  0  0
 11 12  1  0  0  0  0
 11 13  1  0  0  0  0
 11 14  1  0  0  0  0
  9 10  1  0  0  0  0
  9 11  1  0  0  0  0
  9 22  1  0  0  0  0
  7  8  1  0  0  0  0
  7  9  1  0  0  0  0
 26 27  1  0  0  0  0
 26 28  1  0  0  0  0
 26 29  1  0  0  0  0
 24 25  1  0  0  0  0
 24 26  1  0  0  0  0
M  END
$$$$
default_name
  -OEChem-02102213163D

 29 29  0     1  0  0  0  0  0999 V2000
   -2.9561   -3.9186    1.3887 H   0  0  0  0  0  0  0  0  0  0  0  0
   -3.1191   -2.9346    0.9517 C   0  0  0  0  0  0  0  0  0  0  0  0
   -3.7811   -2.3546    1.5917 H   0  0  0  0  0  0  0  0  0  0  0  0
   -3.5591   -3.0406   -0.0383 H   0  0  0  0  0  0  0  0  0  0  0  0
   -1.7921   -2.2226    0.8327 C   0  0  0  0  0  0  0  0  0  0  0  0
   -0.7611   -2.7766    1.1927 O   0  0  0  0  0  0  0  0  0  0  0  0
   -1.8201   -0.9926    0.3247 N   0  0  0  0  0  0  0  0  0  0  0  0
   -2.7141   -0.5816    0.0927 H   0  0  0  0  0  0  0  0  0  0  0  0
   -0.6481   -0.1156    0.2017 C   0  0  1  0  0  0  0  0  0  0  0  0
    0.1344   -0.4988    0.8596 H   0  0  0  0  0  0  0  0  0  0  0  0
   -0.1211   -0.1520   -1.2460 C   0  0  0  0  0  0  0  0  0  0  0  0
    0.4109   -1.0881   -1.4218 H   0  0  0  0  0  0  0  0  0  0  0  0
   -0.9581   -0.1139   -1.9445 H   0  0  0  0  0  0  0  0  0  0  0  0
    0.8382    0.9731   -1.5495 C   0  0  0  0  0  0  0  0  0  0  0  0
    2.0521    0.8520   -2.2272 N   0  0  0  0  0  0  0  0  0  0  0  0
    2.5503    2.0938   -2.3170 C   0  0  0  0  0  0  0  0  0  0  0  0
    3.4961    2.3422   -2.7818 H   0  0  0  0  0  0  0  0  0  0  0  0
    1.7075    2.9791   -1.7592 N   0  0  0  0  0  0  0  0  0  0  0  0
    1.8499    3.9791   -1.7192 H   0  0  0  0  0  0  0  0  0  0  0  0
    0.6185    2.2908   -1.2726 C   0  0  0  0  0  0  0  0  0  0  0  0
   -0.2573    2.6989   -0.7840 H   0  0  0  0  0  0  0  0  0  0  0  0
   -0.9851    1.3114    0.6698 C   0  0  0  0  0  0  0  0  0  0  0  0
   -2.0377    1.8431    0.3168 O   0  0  0  0  0  0  0  0  0  0  0  0
   -0.1052    1.9265    1.4663 N   0  0  0  0  0  0  0  0  0  0  0  0
    0.7810    1.4586    1.6201 H   0  0  0  0  0  0  0  0  0  0  0  0
   -0.2724    3.2715    2.0119 C   0  0  0  0  0  0  0  0  0  0  0  0
   -1.3249    3.4549    2.2426 H   0  0  0  0  0  0  0  0  0  0  0  0
    0.3167    3.3776    2.9239 H   0  0  0  0  0  0  0  0  0  0  0  0
    0.0609    4.0073    1.2782 H   0  0  0  0  0  0  0  0  0  0  0  0
  5  6  2  0  0  0  0
  5  7  1  0  0  0  0
  2  3  1  0  0  0  0
  2  4  1  0  0  0  0
  2  5  1  0  0  0  0
  1  2  1  0  0  0  0
 22 23  2  0  0  0  0
 22 24  1  0  0  0  0
 20 21  1  0  0  0  0
 18 19  1  0  0  0  0
 18 20  1  0  0  0  0
 16 17  1  0  0  0  0
 16 18  1  0  0  0  0
 15 16  2  0  0  0  0
 14 15  1  0  0  0  0
 14 20  2  0  0  0  0
 11 12  1  0  0  0  0
 11 13  1  0  0  0  0
 11 14  1  0  0  0  0
  9 10  1  0  0  0  0
  9 11  1  0  0  0  0
  9 22  1  0  0  0  0
  7  8  1  0  0  0  0
  7  9  1  0  0  0  0
 26 27  1  0  0  0  0
 26 28  1  0  0  0  0
 26 29  1  0  0  0  0
 24 25  1  0  0  0  0
 24 26  1  0  0  0  0
M  END
$$$$
default_name
  -OEChem-02102213163D

 29 29  0     1  0  0  0  0  0999 V2000
   -2.9561   -3.9186    1.3887 H   0  0  0  0  0  0  0  0  0  0  0  0
   -3.1191   -2.9346    0.9517 C   0  0  0  0  0  0  0  0  0  0  0  0
   -3.7811   -2.3546    1.5917 H   0  0  0  0  0  0  0  0  0  0  0  0
   -3.5591   -3.0406   -0.0383 H   0  0  0  0  0  0  0  0  0  0  0  0
   -1.7921   -2.2226    0.8327 C   0  0  0  0  0  0  0  0  0  0  0  0
   -0.7611   -2.7766    1.1927 O   0  0  0  0  0  0  0  0  0  0  0  0
   -1.8201   -0.9926    0.3247 N   0  0  0  0  0  0  0  0  0  0  0  0
   -2.7141   -0.5816    0.0927 H   0  0  0  0  0  0  0  0  0  0  0  0
   -0.6481   -0.1156    0.2017 C   0  0  1  0  0  0  0  0  0  0  0  0
    0.1344   -0.4988    0.8596 H   0  0  0  0  0  0  0  0  0  0  0  0
   -0.1211   -0.1520   -1.2460 C   0  0  0  0  0  0  0  0  0  0  0  0
    0.4109   -1.0881   -1.4218 H   0  0  0  0  0  0  0  0  0  0  0  0
   -0.9581   -0.1139   -1.9445 H   0  0  0  0  0  0  0  0  0  0  0  0
    0.8382    0.9731   -1.5495 C   0  0  0  0  0  0  0  0  0  0  0  0
    1.8914    0.9252   -2.4638 N   0  0  0  0  0  0  0  0  0  0  0  0
    2.4472    2.1455   -2.4511 C   0  0  0  0  0  0  0  0  0  0  0  0
    3.3032    2.4350   -3.0476 H   0  0  0  0  0  0  0  0  0  0  0  0
    1.7871    2.9531   -1.6042 N   0  0  0  0  0  0  0  0  0  0  0  0
    2.0024    3.9260   -1.4342 H   0  0  0  0  0  0  0  0  0  0  0  0
    0.7651    2.2317   -1.0283 C   0  0  0  0  0  0  0  0  0  0  0  0
    0.0270    2.5823   -0.3179 H   0  0  0  0  0  0  0  0  0  0  0  0
   -0.9851    1.3114    0.6698 C   0  0  0  0  0  0  0  0  0  0  0  0
   -2.0377    1.8431    0.3168 O   0  0  0  0  0  0  0  0  0  0  0  0
   -0.1052    1.9265    1.4663 N   0  0  0  0  0  0  0  0  0  0  0  0
    0.7810    1.4586    1.6201 H   0  0  0  0  0  0  0  0  0  0  0  0
   -0.2724    3.2715    2.0119 C   0  0  0  0  0  0  0  0  0  0  0  0
   -1.3249    3.4549    2.2426 H   0  0  0  0  0  0  0  0  0  0  0  0
    0.3167    3.3776    2.9239 H   0  0  0  0  0  0  0  0  0  0  0  0
    0.0609    4.0073    1.2782 H   0  0  0  0  0  0  0  0  0  0  0  0
  5  6  2  0  0  0  0
  5  7  1  0  0  0  0
  2  3  1  0  0  0  0
  2  4  1  0  0  0  0
  2  5  1  0  0  0  0
  1  2  1  0  0  0  0
 22 23  2  0  0  0  0
 22 24  1  0  0  0  0
 20 21  1  0  0  0  0
 18 19  1  0  0  0  0
 18 20  1  0  0  0  0
 16 17  1  0  0  0  0
 16 18  1  0  0  0  0
 15 16  2  0  0  0  0
 14 15  1  0  0  0  0
 14 20  2  0  0  0  0
 11 12  1  0  0  0  0
 11 13  1  0  0  0  0
 11 14  1  0  0  0  0
  9 10  1  0  0  0  0
  9 11  1  0  0  0  0
  9 22  1  0  0  0  0
  7  8  1  0  0  0  0
  7  9  1  0  0  0  0
 26 27  1  0  0  0  0
 26 28  1  0  0  0  0
 26 29  1  0  0  0  0
 24 25  1  0  0  0  0
 24 26  1  0  0  0  0
M  END
$$$$
default_name
  -OEChem-02102213163D

 29 29  0     1  0  0  0  0  0999 V2000
   -2.9561   -3.9186    1.3887 H   0  0  0  0  0  0  0  0  0  0  0  0
   -3.1191   -2.9346    0.9517 C   0  0  0  0  0  0  0  0  0  0  0  0
   -3.7811   -2.3546    1.5917 H   0  0  0  0  0  0  0  0  0  0  0  0
   -3.5591   -3.0406   -0.0383 H   0  0  0  0  0  0  0  0  0  0  0  0
   -1.7921   -2.2226    0.8327 C   0  0  0  0  0  0  0  0  0  0  0  0
   -0.7611   -2.7766    1.1927 O   0  0  0  0  0  0  0  0  0  0  0  0
   -1.8201   -0.9926    0.3247 N   0  0  0  0  0  0  0  0  0  0  0  0
   -2.7141   -0.5816    0.0927 H   0  0  0  0  0  0  0  0  0  0  0  0
   -0.6481   -0.1156    0.2017 C   0  0  1  0  0  0  0  0  0  0  0  0
    0.1344   -0.4988    0.8596 H   0  0  0  0  0  0  0  0  0  0  0  0
   -0.1211   -0.1520   -1.2460 C   0  0  0  0  0  0  0  0  0  0  0  0
    0.4109   -1.0881   -1.4218 H   0  0  0  0  0  0  0  0  0  0  0  0
   -0.9581   -0.1139   -1.9445 H   0  0  0  0  0  0  0  0  0  0  0  0
    0.8382    0.9731   -1.5495 C   0  0  0  0  0  0  0  0  0  0  0  0
    1.6943    1.0431   -2.6493 N   0  0  0  0  0  0  0  0  0  0  0  0
    2.3245    2.2228   -2.5522 C   0  0  0  0  0  0  0  0  0  0  0  0
    3.0703    2.5784   -3.2520 H   0  0  0  0  0  0  0  0  0  0  0  0
    1.8926    2.8983   -1.4740 N   0  0  0  0  0  0  0  0  0  0  0  0
    2.2019    3.8200   -1.1969 H   0  0  0  0  0  0  0  0  0  0  0  0
    0.9507    2.1269   -0.8303 C   0  0  0  0  0  0  0  0  0  0  0  0
    0.3855    2.3782    0.0584 H   0  0  0  0  0  0  0  0  0  0  0  0
   -0.9851    1.3114    0.6698 C   0  0  0  0  0  0  0  0  0  0  0  0
   -2.0377    1.8431    0.3168 O   0  0  0  0  0  0  0  0  0  0  0  0
   -0.1052    1.9265    1.4663 N   0  0  0  0  0  0  0  0  0  0  0  0
    0.7810    1.4586    1.6201 H   0  0  0  0  0  0  0  0  0  0  0  0
   -0.2724    3.2715    2.0119 C   0  0  0  0  0  0  0  0  0  0  0  0
   -1.3249    3.4549    2.2426 H   0  0  0  0  0  0  0  0  0  0  0  0
    0.3167    3.3776    2.9239 H   0  0  0  0  0  0  0  0  0  0  0  0
    0.0609    4.0073    1.2782 H   0  0  0  0  0  0  0  0  0  0  0  0
  5  6  2  0  0  0  0
  5  7  1  0  0  0  0
  2  3  1  0  0  0  0
  2  4  1  0  0  0  0
  2  5  1  0  0  0  0
  1  2  1  0  0  0  0
 22 23  2  0  0  0  0
 22 24  1  0  0  0  0
 20 21  1  0  0  0  0
 18 19  1  0  0  0  0
 18 20  1  0  0  0  0
 16 17  1  0  0  0  0
 16 18  1  0  0  0  0
 15 16  2  0  0  0  0
 14 15  1  0  0  0  0
 14 20  2  0  0  0  0
 11 12  1  0  0  0  0
 11 13  1  0  0  0  0
 11 14  1  0  0  0  0
  9 10  1  0  0  0  0
  9 11  1  0  0  0  0
  9 22  1  0  0  0  0
  7  8  1  0  0  0  0
  7  9  1  0  0  0  0
 26 27  1  0  0  0  0
 26 28  1  0  0  0  0
 26 29  1  0  0  0  0
 24 25  1  0  0  0  0
 24 26  1  0  0  0  0
M  END
$$$$
