
  -OEChem-04042215593D

 29 29  0     1  0  0  0  0  0999 V2000
   -2.6901   -4.4410    1.0934 H   0  0  0  0  0  0  0  0  0  0  0  0
   -2.8432   -3.4402    0.6802 C   0  0  0  0  0  0  0  0  0  0  0  0
   -3.5844   -2.9172    1.2892 H   0  0  0  0  0  0  0  0  0  0  0  0
   -3.2212   -3.5350   -0.3406 H   0  0  0  0  0  0  0  0  0  0  0  0
   -1.5361   -2.6699    0.6774 C   0  0  0  0  0  0  0  0  0  0  0  0
   -0.5232   -3.1808    1.1278 O   0  0  0  0  0  0  0  0  0  0  0  0
   -1.4996   -1.3844    0.1811 N   0  0  0  0  0  0  0  0  0  0  0  0
   -2.3820   -0.9610   -0.1021 H   0  0  0  0  0  0  0  0  0  0  0  0
   -0.3105   -0.5213    0.1725 C   0  0  1  0  0  0  0  0  0  0  0  0
    0.4703   -0.9064    0.8366 H   0  0  0  0  0  0  0  0  0  0  0  0
    0.1928   -0.5184   -1.2850 C   0  0  0  0  0  0  0  0  0  0  0  0
    0.4058   -1.5504   -1.5794 H   0  0  0  0  0  0  0  0  0  0  0  0
   -0.6094   -0.1513   -1.9328 H   0  0  0  0  0  0  0  0  0  0  0  0
    1.4230    0.2973   -1.5862 C   0  0  0  0  0  0  0  0  0  0  0  0
    1.9270    0.3439   -2.8799 N   0  0  0  0  0  0  0  0  0  0  0  0
    3.0102    1.0798   -2.8452 C   0  0  0  0  0  0  0  0  0  0  0  0
    3.6325    1.3114   -3.7050 H   0  0  0  0  0  0  0  0  0  0  0  0
    3.2429    1.5072   -1.5535 N   0  0  0  0  0  0  0  0  0  0  0  0
    4.0294    2.0832   -1.2595 H   0  0  0  0  0  0  0  0  0  0  0  0
    2.2468    1.0002   -0.7459 C   0  0  0  0  0  0  0  0  0  0  0  0
    2.1522    1.1193    0.3256 H   0  0  0  0  0  0  0  0  0  0  0  0
   -0.7329    0.8850    0.6546 C   0  0  0  0  0  0  0  0  0  0  0  0
   -1.7702    1.3852    0.2332 O   0  0  0  0  0  0  0  0  0  0  0  0
    0.0248    1.5827    1.5790 N   0  0  0  0  0  0  0  0  0  0  0  0
    0.7777    1.0771    2.0365 H   0  0  0  0  0  0  0  0  0  0  0  0
   -0.3805    2.8727    2.1244 C   0  0  0  0  0  0  0  0  0  0  0  0
   -1.3252    2.7781    2.6700 H   0  0  0  0  0  0  0  0  0  0  0  0
    0.3822    3.2488    2.8129 H   0  0  0  0  0  0  0  0  0  0  0  0
   -0.5092    3.6055    1.3207 H   0  0  0  0  0  0  0  0  0  0  0  0
  1  2  1  0  0  0  0
  2  3  1  0  0  0  0
  2  4  1  0  0  0  0
  2  5  1  0  0  0  0
  5  6  2  0  0  0  0
  5  7  1  0  0  0  0
  7  8  1  0  0  0  0
  7  9  1  0  0  0  0
  9 10  1  0  0  0  0
  9 11  1  0  0  0  0
  9 22  1  0  0  0  0
 11 12  1  0  0  0  0
 11 13  1  0  0  0  0
 11 14  1  0  0  0  0
 14 15  1  0  0  0  0
 14 20  2  0  0  0  0
 15 16  2  0  0  0  0
 16 17  1  0  0  0  0
 16 18  1  0  0  0  0
 18 19  1  0  0  0  0
 18 20  1  0  0  0  0
 20 21  1  0  0  0  0
 22 23  2  0  0  0  0
 22 24  1  0  0  0  0
 24 25  1  0  0  0  0
 24 26  1  0  0  0  0
 26 27  1  0  0  0  0
 26 28  1  0  0  0  0
 26 29  1  0  0  0  0
M  END
$$$$

  -OEChem-04042215593D

 29 29  0     1  0  0  0  0  0999 V2000
   -2.7098   -4.4411    1.1417 H   0  0  0  0  0  0  0  0  0  0  0  0
   -2.8650   -3.4428    0.7231 C   0  0  0  0  0  0  0  0  0  0  0  0
   -3.5855   -2.9074    1.3463 H   0  0  0  0  0  0  0  0  0  0  0  0
   -3.2704   -3.5436   -0.2866 H   0  0  0  0  0  0  0  0  0  0  0  0
   -1.5516   -2.6847    0.6796 C   0  0  0  0  0  0  0  0  0  0  0  0
   -0.5317   -3.2026    1.1061 O   0  0  0  0  0  0  0  0  0  0  0  0
   -1.5161   -1.4033    0.1727 N   0  0  0  0  0  0  0  0  0  0  0  0
   -2.4022   -0.9725   -0.0868 H   0  0  0  0  0  0  0  0  0  0  0  0
   -0.3237   -0.5465    0.1431 C   0  0  1  0  0  0  0  0  0  0  0  0
    0.4547   -0.9349    0.8076 H   0  0  0  0  0  0  0  0  0  0  0  0
    0.1840   -0.5447   -1.3111 C   0  0  0  0  0  0  0  0  0  0  0  0
    0.3949   -1.5726   -1.6209 H   0  0  0  0  0  0  0  0  0  0  0  0
   -0.6117   -0.1626   -1.9583 H   0  0  0  0  0  0  0  0  0  0  0  0
    1.4168    0.2803   -1.5682 C   0  0  0  0  0  0  0  0  0  0  0  0
    1.8001    0.6216   -2.8584 N   0  0  0  0  0  0  0  0  0  0  0  0
    2.9156    1.3018   -2.7576 C   0  0  0  0  0  0  0  0  0  0  0  0
    3.4692    1.7145   -3.5962 H   0  0  0  0  0  0  0  0  0  0  0  0
    3.2826    1.4072   -1.4302 N   0  0  0  0  0  0  0  0  0  0  0  0
    4.1199    1.8754   -1.0887 H   0  0  0  0  0  0  0  0  0  0  0  0
    2.3399    0.7482   -0.6699 C   0  0  0  0  0  0  0  0  0  0  0  0
    2.3390    0.6078    0.4046 H   0  0  0  0  0  0  0  0  0  0  0  0
   -0.7169    0.8709    0.6170 C   0  0  0  0  0  0  0  0  0  0  0  0
   -1.7671    1.3712    0.2289 O   0  0  0  0  0  0  0  0  0  0  0  0
    0.0674    1.5646    1.5217 N   0  0  0  0  0  0  0  0  0  0  0  0
    0.8539    1.0728    1.9339 H   0  0  0  0  0  0  0  0  0  0  0  0
   -0.2958    2.8740    2.0499 C   0  0  0  0  0  0  0  0  0  0  0  0
   -1.2423    2.8177    2.5978 H   0  0  0  0  0  0  0  0  0  0  0  0
    0.4792    3.2346    2.7327 H   0  0  0  0  0  0  0  0  0  0  0  0
   -0.4019    3.5989    1.2358 H   0  0  0  0  0  0  0  0  0  0  0  0
  1  2  1  0  0  0  0
  2  3  1  0  0  0  0
  2  4  1  0  0  0  0
  2  5  1  0  0  0  0
  5  6  2  0  0  0  0
  5  7  1  0  0  0  0
  7  8  1  0  0  0  0
  7  9  1  0  0  0  0
  9 10  1  0  0  0  0
  9 11  1  0  0  0  0
  9 22  1  0  0  0  0
 11 12  1  0  0  0  0
 11 13  1  0  0  0  0
 11 14  1  0  0  0  0
 14 15  1  0  0  0  0
 14 20  2  0  0  0  0
 15 16  2  0  0  0  0
 16 17  1  0  0  0  0
 16 18  1  0  0  0  0
 18 19  1  0  0  0  0
 18 20  1  0  0  0  0
 20 21  1  0  0  0  0
 22 23  2  0  0  0  0
 22 24  1  0  0  0  0
 24 25  1  0  0  0  0
 24 26  1  0  0  0  0
 26 27  1  0  0  0  0
 26 28  1  0  0  0  0
 26 29  1  0  0  0  0
M  END
$$$$

  -OEChem-04042215593D

 29 29  0     1  0  0  0  0  0999 V2000
   -2.7176   -4.4483    1.1726 H   0  0  0  0  0  0  0  0  0  0  0  0
   -2.8772   -3.4482    0.7601 C   0  0  0  0  0  0  0  0  0  0  0  0
   -3.5744   -2.9079    1.4049 H   0  0  0  0  0  0  0  0  0  0  0  0
   -3.3135   -3.5446   -0.2371 H   0  0  0  0  0  0  0  0  0  0  0  0
   -1.5602   -2.6999    0.6782 C   0  0  0  0  0  0  0  0  0  0  0  0
   -0.5315   -3.2265    1.0719 O   0  0  0  0  0  0  0  0  0  0  0  0
   -1.5297   -1.4212    0.1641 N   0  0  0  0  0  0  0  0  0  0  0  0
   -2.4211   -0.9815   -0.0605 H   0  0  0  0  0  0  0  0  0  0  0  0
   -0.3365   -0.5666    0.1145 C   0  0  1  0  0  0  0  0  0  0  0  0
    0.4399   -0.9557    0.7806 H   0  0  0  0  0  0  0  0  0  0  0  0
    0.1764   -0.5690   -1.3355 C   0  0  0  0  0  0  0  0  0  0  0  0
    0.3936   -1.5947   -1.6476 H   0  0  0  0  0  0  0  0  0  0  0  0
   -0.6139   -0.1843   -1.9880 H   0  0  0  0  0  0  0  0  0  0  0  0
    1.4080    0.2664   -1.5538 C   0  0  0  0  0  0  0  0  0  0  0  0
    1.6766    0.8897   -2.7642 N   0  0  0  0  0  0  0  0  0  0  0  0
    2.8237    1.5083   -2.6254 C   0  0  0  0  0  0  0  0  0  0  0  0
    3.3109    2.0938   -3.4000 H   0  0  0  0  0  0  0  0  0  0  0  0
    3.3198    1.2993   -1.3526 N   0  0  0  0  0  0  0  0  0  0  0  0
    4.2071    1.6570   -1.0037 H   0  0  0  0  0  0  0  0  0  0  0  0
    2.4273    0.5009   -0.6687 C   0  0  0  0  0  0  0  0  0  0  0  0
    2.5178    0.1151    0.3412 H   0  0  0  0  0  0  0  0  0  0  0  0
   -0.7060    0.8587    0.5834 C   0  0  0  0  0  0  0  0  0  0  0  0
   -1.7763    1.3508    0.2422 O   0  0  0  0  0  0  0  0  0  0  0  0
    0.1023    1.5487    1.4692 N   0  0  0  0  0  0  0  0  0  0  0  0
    0.9518    1.0932    1.7866 H   0  0  0  0  0  0  0  0  0  0  0  0
   -0.2230    2.8725    1.9849 C   0  0  0  0  0  0  0  0  0  0  0  0
   -1.1686    2.8477    2.5365 H   0  0  0  0  0  0  0  0  0  0  0  0
    0.5634    3.2177    2.6629 H   0  0  0  0  0  0  0  0  0  0  0  0
   -0.3117    3.5916    1.1638 H   0  0  0  0  0  0  0  0  0  0  0  0
  1  2  1  0  0  0  0
  2  3  1  0  0  0  0
  2  4  1  0  0  0  0
  2  5  1  0  0  0  0
  5  6  2  0  0  0  0
  5  7  1  0  0  0  0
  7  8  1  0  0  0  0
  7  9  1  0  0  0  0
  9 10  1  0  0  0  0
  9 11  1  0  0  0  0
  9 22  1  0  0  0  0
 11 12  1  0  0  0  0
 11 13  1  0  0  0  0
 11 14  1  0  0  0  0
 14 15  1  0  0  0  0
 14 20  2  0  0  0  0
 15 16  2  0  0  0  0
 16 17  1  0  0  0  0
 16 18  1  0  0  0  0
 18 19  1  0  0  0  0
 18 20  1  0  0  0  0
 20 21  1  0  0  0  0
 22 23  2  0  0  0  0
 22 24  1  0  0  0  0
 24 25  1  0  0  0  0
 24 26  1  0  0  0  0
 26 27  1  0  0  0  0
 26 28  1  0  0  0  0
 26 29  1  0  0  0  0
M  END
$$$$

  -OEChem-04042215593D

 29 29  0     1  0  0  0  0  0999 V2000
   -2.7132   -4.4511    1.2207 H   0  0  0  0  0  0  0  0  0  0  0  0
   -2.8804   -3.4547    0.8027 C   0  0  0  0  0  0  0  0  0  0  0  0
   -3.5503   -2.9021    1.4660 H   0  0  0  0  0  0  0  0  0  0  0  0
   -3.3525   -3.5589   -0.1773 H   0  0  0  0  0  0  0  0  0  0  0  0
   -1.5619   -2.7171    0.6660 C   0  0  0  0  0  0  0  0  0  0  0  0
   -0.5219   -3.2528    1.0159 O   0  0  0  0  0  0  0  0  0  0  0  0
   -1.5424   -1.4388    0.1507 N   0  0  0  0  0  0  0  0  0  0  0  0
   -2.4396   -0.9899   -0.0284 H   0  0  0  0  0  0  0  0  0  0  0  0
   -0.3501   -0.5845    0.0804 C   0  0  1  0  0  0  0  0  0  0  0  0
    0.4288   -0.9741    0.7433 H   0  0  0  0  0  0  0  0  0  0  0  0
    0.1643   -0.5825   -1.3671 C   0  0  0  0  0  0  0  0  0  0  0  0
    0.3949   -1.6049   -1.6802 H   0  0  0  0  0  0  0  0  0  0  0  0
   -0.6209   -0.2002   -2.0272 H   0  0  0  0  0  0  0  0  0  0  0  0
    1.3915    0.2670   -1.5418 C   0  0  0  0  0  0  0  0  0  0  0  0
    1.5609    1.1560   -2.5930 N   0  0  0  0  0  0  0  0  0  0  0  0
    2.7423    1.7023   -2.4377 C   0  0  0  0  0  0  0  0  0  0  0  0
    3.1746    2.4450   -3.1024 H   0  0  0  0  0  0  0  0  0  0  0  0
    3.3546    1.1882   -1.3099 N   0  0  0  0  0  0  0  0  0  0  0  0
    4.2917    1.4280   -0.9910 H   0  0  0  0  0  0  0  0  0  0  0  0
    2.5014    0.2669   -0.7395 C   0  0  0  0  0  0  0  0  0  0  0  0
    2.6713   -0.3514    0.1370 H   0  0  0  0  0  0  0  0  0  0  0  0
   -0.7019    0.8435    0.5533 C   0  0  0  0  0  0  0  0  0  0  0  0
   -1.7910    1.3270    0.2627 O   0  0  0  0  0  0  0  0  0  0  0  0
    0.1314    1.5256    1.4214 N   0  0  0  0  0  0  0  0  0  0  0  0
    1.0321    1.1077    1.6328 H   0  0  0  0  0  0  0  0  0  0  0  0
   -0.1556    2.8665    1.9147 C   0  0  0  0  0  0  0  0  0  0  0  0
   -1.1014    2.8787    2.4664 H   0  0  0  0  0  0  0  0  0  0  0  0
    0.6399    3.1994    2.5879 H   0  0  0  0  0  0  0  0  0  0  0  0
   -0.2236    3.5735    1.0814 H   0  0  0  0  0  0  0  0  0  0  0  0
  1  2  1  0  0  0  0
  2  3  1  0  0  0  0
  2  4  1  0  0  0  0
  2  5  1  0  0  0  0
  5  6  2  0  0  0  0
  5  7  1  0  0  0  0
  7  8  1  0  0  0  0
  7  9  1  0  0  0  0
  9 10  1  0  0  0  0
  9 11  1  0  0  0  0
  9 22  1  0  0  0  0
 11 12  1  0  0  0  0
 11 13  1  0  0  0  0
 11 14  1  0  0  0  0
 14 15  1  0  0  0  0
 14 20  2  0  0  0  0
 15 16  2  0  0  0  0
 16 17  1  0  0  0  0
 16 18  1  0  0  0  0
 18 19  1  0  0  0  0
 18 20  1  0  0  0  0
 20 21  1  0  0  0  0
 22 23  2  0  0  0  0
 22 24  1  0  0  0  0
 24 25  1  0  0  0  0
 24 26  1  0  0  0  0
 26 27  1  0  0  0  0
 26 28  1  0  0  0  0
 26 29  1  0  0  0  0
M  END
$$$$

  -OEChem-04042215593D

 29 29  0     1  0  0  0  0  0999 V2000
   -2.7016   -4.4472    1.2526 H   0  0  0  0  0  0  0  0  0  0  0  0
   -2.8760   -3.4538    0.8299 C   0  0  0  0  0  0  0  0  0  0  0  0
   -3.5248   -2.8922    1.5064 H   0  0  0  0  0  0  0  0  0  0  0  0
   -3.3758   -3.5646   -0.1355 H   0  0  0  0  0  0  0  0  0  0  0  0
   -1.5585   -2.7237    0.6497 C   0  0  0  0  0  0  0  0  0  0  0  0
   -0.5101   -3.2689    0.9581 O   0  0  0  0  0  0  0  0  0  0  0  0
   -1.5480   -1.4449    0.1356 N   0  0  0  0  0  0  0  0  0  0  0  0
   -2.4478   -0.9880   -0.0066 H   0  0  0  0  0  0  0  0  0  0  0  0
   -0.3561   -0.5914    0.0539 C   0  0  1  0  0  0  0  0  0  0  0  0
    0.4264   -0.9796    0.7136 H   0  0  0  0  0  0  0  0  0  0  0  0
    0.1584   -0.5949   -1.3918 C   0  0  0  0  0  0  0  0  0  0  0  0
    0.3983   -1.6181   -1.6947 H   0  0  0  0  0  0  0  0  0  0  0  0
   -0.6206   -0.2196   -2.0630 H   0  0  0  0  0  0  0  0  0  0  0  0
    1.3821    0.2611   -1.5386 C   0  0  0  0  0  0  0  0  0  0  0  0
    1.4665    1.3612   -2.3784 N   0  0  0  0  0  0  0  0  0  0  0  0
    2.6806    1.8384   -2.2485 C   0  0  0  0  0  0  0  0  0  0  0  0
    3.0668    2.7041   -2.7793 H   0  0  0  0  0  0  0  0  0  0  0  0
    3.3929    1.0754   -1.3415 N   0  0  0  0  0  0  0  0  0  0  0  0
    4.3667    1.2269   -1.0841 H   0  0  0  0  0  0  0  0  0  0  0  0
    2.5713    0.0634   -0.8919 C   0  0  0  0  0  0  0  0  0  0  0  0
    2.8052   -0.7352   -0.1931 H   0  0  0  0  0  0  0  0  0  0  0  0
   -0.6971    0.8377    0.5318 C   0  0  0  0  0  0  0  0  0  0  0  0
   -1.7974    1.3158    0.2753 O   0  0  0  0  0  0  0  0  0  0  0  0
    0.1515    1.5129    1.3905 N   0  0  0  0  0  0  0  0  0  0  0  0
    1.0685    1.1079    1.5524 H   0  0  0  0  0  0  0  0  0  0  0  0
   -0.1165    2.8602    1.8769 C   0  0  0  0  0  0  0  0  0  0  0  0
   -1.0611    2.8881    2.4304 H   0  0  0  0  0  0  0  0  0  0  0  0
    0.6844    3.1865    2.5472 H   0  0  0  0  0  0  0  0  0  0  0  0
   -0.1769    3.5631    1.0394 H   0  0  0  0  0  0  0  0  0  0  0  0
  1  2  1  0  0  0  0
  2  3  1  0  0  0  0
  2  4  1  0  0  0  0
  2  5  1  0  0  0  0
  5  6  2  0  0  0  0
  5  7  1  0  0  0  0
  7  8  1  0  0  0  0
  7  9  1  0  0  0  0
  9 10  1  0  0  0  0
  9 11  1  0  0  0  0
  9 22  1  0  0  0  0
 11 12  1  0  0  0  0
 11 13  1  0  0  0  0
 11 14  1  0  0  0  0
 14 15  1  0  0  0  0
 14 20  2  0  0  0  0
 15 16  2  0  0  0  0
 16 17  1  0  0  0  0
 16 18  1  0  0  0  0
 18 19  1  0  0  0  0
 18 20  1  0  0  0  0
 20 21  1  0  0  0  0
 22 23  2  0  0  0  0
 22 24  1  0  0  0  0
 24 25  1  0  0  0  0
 24 26  1  0  0  0  0
 26 27  1  0  0  0  0
 26 28  1  0  0  0  0
 26 29  1  0  0  0  0
M  END
$$$$

  -OEChem-04042215593D

 29 29  0     1  0  0  0  0  0999 V2000
   -2.7089   -4.4393    1.2648 H   0  0  0  0  0  0  0  0  0  0  0  0
   -2.8805   -3.4453    0.8427 C   0  0  0  0  0  0  0  0  0  0  0  0
   -3.5113   -2.8753    1.5290 H   0  0  0  0  0  0  0  0  0  0  0  0
   -3.3986   -3.5533   -0.1134 H   0  0  0  0  0  0  0  0  0  0  0  0
   -1.5591   -2.7287    0.6379 C   0  0  0  0  0  0  0  0  0  0  0  0
   -0.5101   -3.2847    0.9241 O   0  0  0  0  0  0  0  0  0  0  0  0
   -1.5467   -1.4493    0.1255 N   0  0  0  0  0  0  0  0  0  0  0  0
   -2.4455   -0.9832    0.0087 H   0  0  0  0  0  0  0  0  0  0  0  0
   -0.3537   -0.5972    0.0436 C   0  0  1  0  0  0  0  0  0  0  0  0
    0.4289   -0.9853    0.7038 H   0  0  0  0  0  0  0  0  0  0  0  0
    0.1653   -0.6021   -1.3994 C   0  0  0  0  0  0  0  0  0  0  0  0
    0.4117   -1.6268   -1.6923 H   0  0  0  0  0  0  0  0  0  0  0  0
   -0.6071   -0.2330   -2.0813 H   0  0  0  0  0  0  0  0  0  0  0  0
    1.3882    0.2560   -1.5266 C   0  0  0  0  0  0  0  0  0  0  0  0
    1.4064    1.5127   -2.1120 N   0  0  0  0  0  0  0  0  0  0  0  0
    2.6478    1.9311   -2.0607 C   0  0  0  0  0  0  0  0  0  0  0  0
    2.9968    2.8864   -2.4426 H   0  0  0  0  0  0  0  0  0  0  0  0
    3.4420    0.9761   -1.4529 N   0  0  0  0  0  0  0  0  0  0  0  0
    4.4488    1.0497   -1.3171 H   0  0  0  0  0  0  0  0  0  0  0  0
    2.6437   -0.0976   -1.1181 C   0  0  0  0  0  0  0  0  0  0  0  0
    2.9313   -1.0337   -0.6466 H   0  0  0  0  0  0  0  0  0  0  0  0
   -0.6962    0.8310    0.5240 C   0  0  0  0  0  0  0  0  0  0  0  0
   -1.8054    1.2994    0.2859 O   0  0  0  0  0  0  0  0  0  0  0  0
    0.1537    1.5038    1.3834 N   0  0  0  0  0  0  0  0  0  0  0  0
    1.0833    1.1154    1.5108 H   0  0  0  0  0  0  0  0  0  0  0  0
   -0.1124    2.8532    1.8644 C   0  0  0  0  0  0  0  0  0  0  0  0
   -1.0532    2.8829    2.4241 H   0  0  0  0  0  0  0  0  0  0  0  0
    0.6929    3.1832    2.5276 H   0  0  0  0  0  0  0  0  0  0  0  0
   -0.1795    3.5519    1.0237 H   0  0  0  0  0  0  0  0  0  0  0  0
  1  2  1  0  0  0  0
  2  3  1  0  0  0  0
  2  4  1  0  0  0  0
  2  5  1  0  0  0  0
  5  6  2  0  0  0  0
  5  7  1  0  0  0  0
  7  8  1  0  0  0  0
  7  9  1  0  0  0  0
  9 10  1  0  0  0  0
  9 11  1  0  0  0  0
  9 22  1  0  0  0  0
 11 12  1  0  0  0  0
 11 13  1  0  0  0  0
 11 14  1  0  0  0  0
 14 15  1  0  0  0  0
 14 20  2  0  0  0  0
 15 16  2  0  0  0  0
 16 17  1  0  0  0  0
 16 18  1  0  0  0  0
 18 19  1  0  0  0  0
 18 20  1  0  0  0  0
 20 21  1  0  0  0  0
 22 23  2  0  0  0  0
 22 24  1  0  0  0  0
 24 25  1  0  0  0  0
 24 26  1  0  0  0  0
 26 27  1  0  0  0  0
 26 28  1  0  0  0  0
 26 29  1  0  0  0  0
M  END
$$$$

  -OEChem-04042215593D

 29 29  0     1  0  0  0  0  0999 V2000
   -2.7163   -4.4308    1.2680 H   0  0  0  0  0  0  0  0  0  0  0  0
   -2.8855   -3.4365    0.8456 C   0  0  0  0  0  0  0  0  0  0  0  0
   -3.5068   -2.8613    1.5362 H   0  0  0  0  0  0  0  0  0  0  0  0
   -3.4121   -3.5424   -0.1060 H   0  0  0  0  0  0  0  0  0  0  0  0
   -1.5613   -2.7289    0.6287 C   0  0  0  0  0  0  0  0  0  0  0  0
   -0.5137   -3.2947    0.9007 O   0  0  0  0  0  0  0  0  0  0  0  0
   -1.5447   -1.4482    0.1203 N   0  0  0  0  0  0  0  0  0  0  0  0
   -2.4412   -0.9730    0.0215 H   0  0  0  0  0  0  0  0  0  0  0  0
   -0.3482   -0.6002    0.0460 C   0  0  1  0  0  0  0  0  0  0  0  0
    0.4315   -0.9901    0.7087 H   0  0  0  0  0  0  0  0  0  0  0  0
    0.1770   -0.6081   -1.3945 C   0  0  0  0  0  0  0  0  0  0  0  0
    0.4168   -1.6356   -1.6831 H   0  0  0  0  0  0  0  0  0  0  0  0
   -0.5901   -0.2355   -2.0804 H   0  0  0  0  0  0  0  0  0  0  0  0
    1.4047    0.2438   -1.5204 C   0  0  0  0  0  0  0  0  0  0  0  0
    1.3967    1.5963   -1.8281 N   0  0  0  0  0  0  0  0  0  0  0  0
    2.6508    1.9739   -1.8878 C   0  0  0  0  0  0  0  0  0  0  0  0
    2.9849    2.9826   -2.1137 H   0  0  0  0  0  0  0  0  0  0  0  0
    3.4791    0.8992   -1.6224 N   0  0  0  0  0  0  0  0  0  0  0  0
    4.4973    0.9259   -1.6293 H   0  0  0  0  0  0  0  0  0  0  0  0
    2.6884   -0.2077   -1.3963 C   0  0  0  0  0  0  0  0  0  0  0  0
    2.9976   -1.2264   -1.1785 H   0  0  0  0  0  0  0  0  0  0  0  0
   -0.6969    0.8252    0.5319 C   0  0  0  0  0  0  0  0  0  0  0  0
   -1.8134    1.2827    0.3042 O   0  0  0  0  0  0  0  0  0  0  0  0
    0.1460    1.4965    1.3993 N   0  0  0  0  0  0  0  0  0  0  0  0
    1.0884    1.1300    1.4937 H   0  0  0  0  0  0  0  0  0  0  0  0
   -0.1251    2.8482    1.8713 C   0  0  0  0  0  0  0  0  0  0  0  0
   -1.0802    2.8840    2.4059 H   0  0  0  0  0  0  0  0  0  0  0  0
    0.6640    3.1749    2.5550 H   0  0  0  0  0  0  0  0  0  0  0  0
   -0.1658    3.5459    1.0280 H   0  0  0  0  0  0  0  0  0  0  0  0
  1  2  1  0  0  0  0
  2  3  1  0  0  0  0
  2  4  1  0  0  0  0
  2  5  1  0  0  0  0
  5  6  2  0  0  0  0
  5  7  1  0  0  0  0
  7  8  1  0  0  0  0
  7  9  1  0  0  0  0
  9 10  1  0  0  0  0
  9 11  1  0  0  0  0
  9 22  1  0  0  0  0
 11 12  1  0  0  0  0
 11 13  1  0  0  0  0
 11 14  1  0  0  0  0
 14 15  1  0  0  0  0
 14 20  2  0  0  0  0
 15 16  2  0  0  0  0
 16 17  1  0  0  0  0
 16 18  1  0  0  0  0
 18 19  1  0  0  0  0
 18 20  1  0  0  0  0
 20 21  1  0  0  0  0
 22 23  2  0  0  0  0
 22 24  1  0  0  0  0
 24 25  1  0  0  0  0
 24 26  1  0  0  0  0
 26 27  1  0  0  0  0
 26 28  1  0  0  0  0
 26 29  1  0  0  0  0
M  END
$$$$

  -OEChem-04042215593D

 29 29  0     1  0  0  0  0  0999 V2000
   -2.7271   -4.4209    1.2629 H   0  0  0  0  0  0  0  0  0  0  0  0
   -2.8901   -3.4244    0.8429 C   0  0  0  0  0  0  0  0  0  0  0  0
   -3.5043   -2.8457    1.5371 H   0  0  0  0  0  0  0  0  0  0  0  0
   -3.4216   -3.5247   -0.1066 H   0  0  0  0  0  0  0  0  0  0  0  0
   -1.5614   -2.7265    0.6219 C   0  0  0  0  0  0  0  0  0  0  0  0
   -0.5170   -3.3022    0.8846 O   0  0  0  0  0  0  0  0  0  0  0  0
   -1.5378   -1.4439    0.1189 N   0  0  0  0  0  0  0  0  0  0  0  0
   -2.4316   -0.9615    0.0305 H   0  0  0  0  0  0  0  0  0  0  0  0
   -0.3384   -0.5983    0.0558 C   0  0  1  0  0  0  0  0  0  0  0  0
    0.4374   -0.9893    0.7227 H   0  0  0  0  0  0  0  0  0  0  0  0
    0.1931   -0.6118   -1.3841 C   0  0  0  0  0  0  0  0  0  0  0  0
    0.4193   -1.6430   -1.6714 H   0  0  0  0  0  0  0  0  0  0  0  0
   -0.5748   -0.2342   -2.0659 H   0  0  0  0  0  0  0  0  0  0  0  0
    1.4278    0.2301   -1.5333 C   0  0  0  0  0  0  0  0  0  0  0  0
    1.4487    1.6176   -1.5646 N   0  0  0  0  0  0  0  0  0  0  0  0
    2.6979    1.9723   -1.7465 C   0  0  0  0  0  0  0  0  0  0  0  0
    3.0480    2.9981   -1.8212 H   0  0  0  0  0  0  0  0  0  0  0  0
    3.4978    0.8481   -1.8264 N   0  0  0  0  0  0  0  0  0  0  0  0
    4.5047    0.8525   -1.9807 H   0  0  0  0  0  0  0  0  0  0  0  0
    2.6916   -0.2633   -1.6970 C   0  0  0  0  0  0  0  0  0  0  0  0
    2.9776   -1.3111   -1.7261 H   0  0  0  0  0  0  0  0  0  0  0  0
   -0.7008    0.8224    0.5476 C   0  0  0  0  0  0  0  0  0  0  0  0
   -1.8236    1.2681    0.3233 O   0  0  0  0  0  0  0  0  0  0  0  0
    0.1301    1.4931    1.4269 N   0  0  0  0  0  0  0  0  0  0  0  0
    1.0859    1.1551    1.4860 H   0  0  0  0  0  0  0  0  0  0  0  0
   -0.1557    2.8409    1.9005 C   0  0  0  0  0  0  0  0  0  0  0  0
   -1.1172    2.8689    2.4240 H   0  0  0  0  0  0  0  0  0  0  0  0
    0.6229    3.1697    2.5952 H   0  0  0  0  0  0  0  0  0  0  0  0
   -0.1910    3.5409    1.0591 H   0  0  0  0  0  0  0  0  0  0  0  0
  1  2  1  0  0  0  0
  2  3  1  0  0  0  0
  2  4  1  0  0  0  0
  2  5  1  0  0  0  0
  5  6  2  0  0  0  0
  5  7  1  0  0  0  0
  7  8  1  0  0  0  0
  7  9  1  0  0  0  0
  9 10  1  0  0  0  0
  9 11  1  0  0  0  0
  9 22  1  0  0  0  0
 11 12  1  0  0  0  0
 11 13  1  0  0  0  0
 11 14  1  0  0  0  0
 14 15  1  0  0  0  0
 14 20  2  0  0  0  0
 15 16  2  0  0  0  0
 16 17  1  0  0  0  0
 16 18  1  0  0  0  0
 18 19  1  0  0  0  0
 18 20  1  0  0  0  0
 20 21  1  0  0  0  0
 22 23  2  0  0  0  0
 22 24  1  0  0  0  0
 24 25  1  0  0  0  0
 24 26  1  0  0  0  0
 26 27  1  0  0  0  0
 26 28  1  0  0  0  0
 26 29  1  0  0  0  0
M  END
$$$$

  -OEChem-04042215593D

 29 29  0     1  0  0  0  0  0999 V2000
   -2.7263   -4.4117    1.2516 H   0  0  0  0  0  0  0  0  0  0  0  0
   -2.8860   -3.4125    0.8368 C   0  0  0  0  0  0  0  0  0  0  0  0
   -3.4949   -2.8339    1.5357 H   0  0  0  0  0  0  0  0  0  0  0  0
   -3.4208   -3.5052   -0.1115 H   0  0  0  0  0  0  0  0  0  0  0  0
   -1.5547   -2.7198    0.6147 C   0  0  0  0  0  0  0  0  0  0  0  0
   -0.5122   -3.3026    0.8688 O   0  0  0  0  0  0  0  0  0  0  0  0
   -1.5279   -1.4348    0.1179 N   0  0  0  0  0  0  0  0  0  0  0  0
   -2.4203   -0.9472    0.0422 H   0  0  0  0  0  0  0  0  0  0  0  0
   -0.3265   -0.5906    0.0660 C   0  0  1  0  0  0  0  0  0  0  0  0
    0.4468   -0.9817    0.7357 H   0  0  0  0  0  0  0  0  0  0  0  0
    0.2072   -0.6090   -1.3747 C   0  0  0  0  0  0  0  0  0  0  0  0
    0.4178   -1.6431   -1.6630 H   0  0  0  0  0  0  0  0  0  0  0  0
   -0.5639   -0.2243   -2.0488 H   0  0  0  0  0  0  0  0  0  0  0  0
    1.4482    0.2216   -1.5545 C   0  0  0  0  0  0  0  0  0  0  0  0
    1.5562    1.5867   -1.3209 N   0  0  0  0  0  0  0  0  0  0  0  0
    2.7854    1.9276   -1.6249 C   0  0  0  0  0  0  0  0  0  0  0  0
    3.1859    2.9352   -1.5565 H   0  0  0  0  0  0  0  0  0  0  0  0
    3.4915    0.8155   -2.0403 N   0  0  0  0  0  0  0  0  0  0  0  0
    4.4646    0.8147   -2.3412 H   0  0  0  0  0  0  0  0  0  0  0  0
    2.6438   -0.2709   -1.9989 C   0  0  0  0  0  0  0  0  0  0  0  0
    2.8587   -1.3017   -2.2660 H   0  0  0  0  0  0  0  0  0  0  0  0
   -0.7062    0.8241    0.5657 C   0  0  0  0  0  0  0  0  0  0  0  0
   -1.8340    1.2577    0.3395 O   0  0  0  0  0  0  0  0  0  0  0  0
    0.1095    1.4969    1.4575 N   0  0  0  0  0  0  0  0  0  0  0  0
    1.0799    1.1969    1.4764 H   0  0  0  0  0  0  0  0  0  0  0  0
   -0.2029    2.8345    1.9439 C   0  0  0  0  0  0  0  0  0  0  0  0
   -1.1669    2.8391    2.4634 H   0  0  0  0  0  0  0  0  0  0  0  0
    0.5664    3.1700    2.6457 H   0  0  0  0  0  0  0  0  0  0  0  0
   -0.2475    3.5431    1.1102 H   0  0  0  0  0  0  0  0  0  0  0  0
  1  2  1  0  0  0  0
  2  3  1  0  0  0  0
  2  4  1  0  0  0  0
  2  5  1  0  0  0  0
  5  6  2  0  0  0  0
  5  7  1  0  0  0  0
  7  8  1  0  0  0  0
  7  9  1  0  0  0  0
  9 10  1  0  0  0  0
  9 11  1  0  0  0  0
  9 22  1  0  0  0  0
 11 12  1  0  0  0  0
 11 13  1  0  0  0  0
 11 14  1  0  0  0  0
 14 15  1  0  0  0  0
 14 20  2  0  0  0  0
 15 16  2  0  0  0  0
 16 17  1  0  0  0  0
 16 18  1  0  0  0  0
 18 19  1  0  0  0  0
 18 20  1  0  0  0  0
 20 21  1  0  0  0  0
 22 23  2  0  0  0  0
 22 24  1  0  0  0  0
 24 25  1  0  0  0  0
 24 26  1  0  0  0  0
 26 27  1  0  0  0  0
 26 28  1  0  0  0  0
 26 29  1  0  0  0  0
M  END
$$$$

  -OEChem-04042215593D

 29 29  0     1  0  0  0  0  0999 V2000
   -2.7202   -4.4072    1.2434 H   0  0  0  0  0  0  0  0  0  0  0  0
   -2.8790   -3.4069    0.8311 C   0  0  0  0  0  0  0  0  0  0  0  0
   -3.4866   -2.8295    1.5321 H   0  0  0  0  0  0  0  0  0  0  0  0
   -3.4145   -3.4971   -0.1170 H   0  0  0  0  0  0  0  0  0  0  0  0
   -1.5474   -2.7150    0.6097 C   0  0  0  0  0  0  0  0  0  0  0  0
   -0.5056   -3.3009    0.8586 O   0  0  0  0  0  0  0  0  0  0  0  0
   -1.5194   -1.4283    0.1175 N   0  0  0  0  0  0  0  0  0  0  0  0
   -2.4110   -0.9380    0.0495 H   0  0  0  0  0  0  0  0  0  0  0  0
   -0.3168   -0.5847    0.0749 C   0  0  1  0  0  0  0  0  0  0  0  0
    0.4564   -0.9761    0.7449 H   0  0  0  0  0  0  0  0  0  0  0  0
    0.2150   -0.5984   -1.3679 C   0  0  0  0  0  0  0  0  0  0  0  0
    0.4128   -1.6326   -1.6652 H   0  0  0  0  0  0  0  0  0  0  0  0
   -0.5610   -0.2036   -2.0306 H   0  0  0  0  0  0  0  0  0  0  0  0
    1.4601    0.2235   -1.5720 C   0  0  0  0  0  0  0  0  0  0  0  0
    1.6992    1.5063   -1.0931 N   0  0  0  0  0  0  0  0  0  0  0  0
    2.8945    1.8515   -1.5083 C   0  0  0  0  0  0  0  0  0  0  0  0
    3.3723    2.8056   -1.3041 H   0  0  0  0  0  0  0  0  0  0  0  0
    3.4534    0.8203   -2.2369 N   0  0  0  0  0  0  0  0  0  0  0  0
    4.3749    0.8373   -2.6705 H   0  0  0  0  0  0  0  0  0  0  0  0
    2.5457   -0.2163   -2.2777 C   0  0  0  0  0  0  0  0  0  0  0  0
    2.6506   -1.1815   -2.7651 H   0  0  0  0  0  0  0  0  0  0  0  0
   -0.7120    0.8247    0.5803 C   0  0  0  0  0  0  0  0  0  0  0  0
   -1.8418    1.2508    0.3471 O   0  0  0  0  0  0  0  0  0  0  0  0
    0.0908    1.4985    1.4820 N   0  0  0  0  0  0  0  0  0  0  0  0
    1.0717    1.2318    1.4623 H   0  0  0  0  0  0  0  0  0  0  0  0
   -0.2404    2.8282    1.9766 C   0  0  0  0  0  0  0  0  0  0  0  0
   -1.2115    2.8196    2.4827 H   0  0  0  0  0  0  0  0  0  0  0  0
    0.5163    3.1633    2.6923 H   0  0  0  0  0  0  0  0  0  0  0  0
   -0.2793    3.5442    1.1492 H   0  0  0  0  0  0  0  0  0  0  0  0
  1  2  1  0  0  0  0
  2  3  1  0  0  0  0
  2  4  1  0  0  0  0
  2  5  1  0  0  0  0
  5  6  2  0  0  0  0
  5  7  1  0  0  0  0
  7  8  1  0  0  0  0
  7  9  1  0  0  0  0
  9 10  1  0  0  0  0
  9 11  1  0  0  0  0
  9 22  1  0  0  0  0
 11 12  1  0  0  0  0
 11 13  1  0  0  0  0
 11 14  1  0  0  0  0
 14 15  1  0  0  0  0
 14 20  2  0  0  0  0
 15 16  2  0  0  0  0
 16 17  1  0  0  0  0
 16 18  1  0  0  0  0
 18 19  1  0  0  0  0
 18 20  1  0  0  0  0
 20 21  1  0  0  0  0
 22 23  2  0  0  0  0
 22 24  1  0  0  0  0
 24 25  1  0  0  0  0
 24 26  1  0  0  0  0
 26 27  1  0  0  0  0
 26 28  1  0  0  0  0
 26 29  1  0  0  0  0
M  END
$$$$

  -OEChem-04042215593D

 29 29  0     1  0  0  0  0  0999 V2000
   -2.7255   -4.4017    1.2440 H   0  0  0  0  0  0  0  0  0  0  0  0
   -2.8801   -3.4022    0.8280 C   0  0  0  0  0  0  0  0  0  0  0  0
   -3.4876   -2.8207    1.5258 H   0  0  0  0  0  0  0  0  0  0  0  0
   -3.4142   -3.4936   -0.1208 H   0  0  0  0  0  0  0  0  0  0  0  0
   -1.5457   -2.7153    0.6072 C   0  0  0  0  0  0  0  0  0  0  0  0
   -0.5065   -3.3061    0.8551 O   0  0  0  0  0  0  0  0  0  0  0  0
   -1.5138   -1.4277    0.1175 N   0  0  0  0  0  0  0  0  0  0  0  0
   -2.4042   -0.9351    0.0504 H   0  0  0  0  0  0  0  0  0  0  0  0
   -0.3096   -0.5857    0.0797 C   0  0  1  0  0  0  0  0  0  0  0  0
    0.4640   -0.9781    0.7485 H   0  0  0  0  0  0  0  0  0  0  0  0
    0.2202   -0.5919   -1.3642 C   0  0  0  0  0  0  0  0  0  0  0  0
    0.4146   -1.6249   -1.6681 H   0  0  0  0  0  0  0  0  0  0  0  0
   -0.5592   -0.1918   -2.0195 H   0  0  0  0  0  0  0  0  0  0  0  0
    1.4673    0.2254   -1.5798 C   0  0  0  0  0  0  0  0  0  0  0  0
    1.8568    1.3686   -0.8896 N   0  0  0  0  0  0  0  0  0  0  0  0
    3.0034    1.7494   -1.4009 C   0  0  0  0  0  0  0  0  0  0  0  0
    3.5676    2.6209   -1.0810 H   0  0  0  0  0  0  0  0  0  0  0  0
    3.3857    0.8758   -2.3993 N   0  0  0  0  0  0  0  0  0  0  0  0
    4.2395    0.9477   -2.9502 H   0  0  0  0  0  0  0  0  0  0  0  0
    2.4142   -0.0953   -2.5128 C   0  0  0  0  0  0  0  0  0  0  0  0
    2.3880   -0.9412   -3.1938 H   0  0  0  0  0  0  0  0  0  0  0  0
   -0.7113    0.8212    0.5877 C   0  0  0  0  0  0  0  0  0  0  0  0
   -1.8389    1.2476    0.3442 O   0  0  0  0  0  0  0  0  0  0  0  0
    0.0839    1.4965    1.4945 N   0  0  0  0  0  0  0  0  0  0  0  0
    1.0705    1.2497    1.4504 H   0  0  0  0  0  0  0  0  0  0  0  0
   -0.2580    2.8225    1.9920 C   0  0  0  0  0  0  0  0  0  0  0  0
   -1.2352    2.8081    2.4861 H   0  0  0  0  0  0  0  0  0  0  0  0
    0.4884    3.1559    2.7191 H   0  0  0  0  0  0  0  0  0  0  0  0
   -0.2893    3.5429    1.1679 H   0  0  0  0  0  0  0  0  0  0  0  0
  1  2  1  0  0  0  0
  2  3  1  0  0  0  0
  2  4  1  0  0  0  0
  2  5  1  0  0  0  0
  5  6  2  0  0  0  0
  5  7  1  0  0  0  0
  7  8  1  0  0  0  0
  7  9  1  0  0  0  0
  9 10  1  0  0  0  0
  9 11  1  0  0  0  0
  9 22  1  0  0  0  0
 11 12  1  0  0  0  0
 11 13  1  0  0  0  0
 11 14  1  0  0  0  0
 14 15  1  0  0  0  0
 14 20  2  0  0  0  0
 15 16  2  0  0  0  0
 16 17  1  0  0  0  0
 16 18  1  0  0  0  0
 18 19  1  0  0  0  0
 18 20  1  0  0  0  0
 20 21  1  0  0  0  0
 22 23  2  0  0  0  0
 22 24  1  0  0  0  0
 24 25  1  0  0  0  0
 24 26  1  0  0  0  0
 26 27  1  0  0  0  0
 26 28  1  0  0  0  0
 26 29  1  0  0  0  0
M  END
$$$$

  -OEChem-04042215593D

 29 29  0     1  0  0  0  0  0999 V2000
   -2.7380   -4.4009    1.2527 H   0  0  0  0  0  0  0  0  0  0  0  0
   -2.8891   -3.4024    0.8328 C   0  0  0  0  0  0  0  0  0  0  0  0
   -3.4952   -2.8163    1.5281 H   0  0  0  0  0  0  0  0  0  0  0  0
   -3.4226   -3.4955   -0.1162 H   0  0  0  0  0  0  0  0  0  0  0  0
   -1.5522   -2.7209    0.6096 C   0  0  0  0  0  0  0  0  0  0  0  0
   -0.5155   -3.3155    0.8579 O   0  0  0  0  0  0  0  0  0  0  0  0
   -1.5164   -1.4343    0.1174 N   0  0  0  0  0  0  0  0  0  0  0  0
   -2.4056   -0.9398    0.0510 H   0  0  0  0  0  0  0  0  0  0  0  0
   -0.3099   -0.5953    0.0773 C   0  0  1  0  0  0  0  0  0  0  0  0
    0.4642   -0.9899    0.7445 H   0  0  0  0  0  0  0  0  0  0  0  0
    0.2185   -0.5959   -1.3668 C   0  0  0  0  0  0  0  0  0  0  0  0
    0.4193   -1.6277   -1.6704 H   0  0  0  0  0  0  0  0  0  0  0  0
   -0.5616   -0.1993   -2.0235 H   0  0  0  0  0  0  0  0  0  0  0  0
    1.4670    0.2205   -1.5789 C   0  0  0  0  0  0  0  0  0  0  0  0
    2.0087    1.1733   -0.7203 N   0  0  0  0  0  0  0  0  0  0  0  0
    3.0957    1.6277   -1.2979 C   0  0  0  0  0  0  0  0  0  0  0  0
    3.7480    2.3904   -0.8821 H   0  0  0  0  0  0  0  0  0  0  0  0
    3.2878    0.9906   -2.5076 N   0  0  0  0  0  0  0  0  0  0  0  0
    4.0630    1.1606   -3.1461 H   0  0  0  0  0  0  0  0  0  0  0  0
    2.2570    0.0935   -2.6876 C   0  0  0  0  0  0  0  0  0  0  0  0
    2.0910   -0.5788   -3.5244 H   0  0  0  0  0  0  0  0  0  0  0  0
   -0.7054    0.8145    0.5821 C   0  0  0  0  0  0  0  0  0  0  0  0
   -1.8258    1.2514    0.3249 O   0  0  0  0  0  0  0  0  0  0  0  0
    0.0924    1.4895    1.4862 N   0  0  0  0  0  0  0  0  0  0  0  0
    1.0786    1.2372    1.4365 H   0  0  0  0  0  0  0  0  0  0  0  0
   -0.2404    2.8200    1.9775 C   0  0  0  0  0  0  0  0  0  0  0  0
   -1.2190    2.8148    2.4692 H   0  0  0  0  0  0  0  0  0  0  0  0
    0.5069    3.1498    2.7054 H   0  0  0  0  0  0  0  0  0  0  0  0
   -0.2641    3.5380    1.1511 H   0  0  0  0  0  0  0  0  0  0  0  0
  1  2  1  0  0  0  0
  2  3  1  0  0  0  0
  2  4  1  0  0  0  0
  2  5  1  0  0  0  0
  5  6  2  0  0  0  0
  5  7  1  0  0  0  0
  7  8  1  0  0  0  0
  7  9  1  0  0  0  0
  9 10  1  0  0  0  0
  9 11  1  0  0  0  0
  9 22  1  0  0  0  0
 11 12  1  0  0  0  0
 11 13  1  0  0  0  0
 11 14  1  0  0  0  0
 14 15  1  0  0  0  0
 14 20  2  0  0  0  0
 15 16  2  0  0  0  0
 16 17  1  0  0  0  0
 16 18  1  0  0  0  0
 18 19  1  0  0  0  0
 18 20  1  0  0  0  0
 20 21  1  0  0  0  0
 22 23  2  0  0  0  0
 22 24  1  0  0  0  0
 24 25  1  0  0  0  0
 24 26  1  0  0  0  0
 26 27  1  0  0  0  0
 26 28  1  0  0  0  0
 26 29  1  0  0  0  0
M  END
$$$$

  -OEChem-04042215593D

 29 29  0     1  0  0  0  0  0999 V2000
   -2.7572   -4.4010    1.2798 H   0  0  0  0  0  0  0  0  0  0  0  0
   -2.9040   -3.4059    0.8508 C   0  0  0  0  0  0  0  0  0  0  0  0
   -3.5069   -2.8107    1.5408 H   0  0  0  0  0  0  0  0  0  0  0  0
   -3.4386   -3.5057   -0.0969 H   0  0  0  0  0  0  0  0  0  0  0  0
   -1.5640   -2.7326    0.6207 C   0  0  0  0  0  0  0  0  0  0  0  0
   -0.5304   -3.3315    0.8704 O   0  0  0  0  0  0  0  0  0  0  0  0
   -1.5237   -1.4500    0.1183 N   0  0  0  0  0  0  0  0  0  0  0  0
   -2.4113   -0.9534    0.0505 H   0  0  0  0  0  0  0  0  0  0  0  0
   -0.3145   -0.6156    0.0655 C   0  0  1  0  0  0  0  0  0  0  0  0
    0.4606   -1.0115    0.7310 H   0  0  0  0  0  0  0  0  0  0  0  0
    0.2107   -0.6163   -1.3787 C   0  0  0  0  0  0  0  0  0  0  0  0
    0.4240   -1.6481   -1.6732 H   0  0  0  0  0  0  0  0  0  0  0  0
   -0.5680   -0.2314   -2.0439 H   0  0  0  0  0  0  0  0  0  0  0  0
    1.4595    0.2024   -1.5762 C   0  0  0  0  0  0  0  0  0  0  0  0
    2.1458    0.9244   -0.6019 N   0  0  0  0  0  0  0  0  0  0  0  0
    3.1638    1.4929   -1.2038 C   0  0  0  0  0  0  0  0  0  0  0  0
    3.8975    2.1287   -0.7162 H   0  0  0  0  0  0  0  0  0  0  0  0
    3.1626    1.1640   -2.5451 N   0  0  0  0  0  0  0  0  0  0  0  0
    3.8474    1.4808   -3.2292 H   0  0  0  0  0  0  0  0  0  0  0  0
    2.0806    0.3444   -2.7856 C   0  0  0  0  0  0  0  0  0  0  0  0
    1.7714   -0.1010   -3.7269 H   0  0  0  0  0  0  0  0  0  0  0  0
   -0.6916    0.8021    0.5587 C   0  0  0  0  0  0  0  0  0  0  0  0
   -1.8024    1.2557    0.2905 O   0  0  0  0  0  0  0  0  0  0  0  0
    0.1187    1.4779    1.4501 N   0  0  0  0  0  0  0  0  0  0  0  0
    1.0990    1.1983    1.4128 H   0  0  0  0  0  0  0  0  0  0  0  0
   -0.1885    2.8201    1.9261 C   0  0  0  0  0  0  0  0  0  0  0  0
   -1.1630    2.8370    2.4255 H   0  0  0  0  0  0  0  0  0  0  0  0
    0.5701    3.1472    2.6435 H   0  0  0  0  0  0  0  0  0  0  0  0
   -0.2072    3.5276    1.0907 H   0  0  0  0  0  0  0  0  0  0  0  0
  1  2  1  0  0  0  0
  2  3  1  0  0  0  0
  2  4  1  0  0  0  0
  2  5  1  0  0  0  0
  5  6  2  0  0  0  0
  5  7  1  0  0  0  0
  7  8  1  0  0  0  0
  7  9  1  0  0  0  0
  9 10  1  0  0  0  0
  9 11  1  0  0  0  0
  9 22  1  0  0  0  0
 11 12  1  0  0  0  0
 11 13  1  0  0  0  0
 11 14  1  0  0  0  0
 14 15  1  0  0  0  0
 14 20  2  0  0  0  0
 15 16  2  0  0  0  0
 16 17  1  0  0  0  0
 16 18  1  0  0  0  0
 18 19  1  0  0  0  0
 18 20  1  0  0  0  0
 20 21  1  0  0  0  0
 22 23  2  0  0  0  0
 22 24  1  0  0  0  0
 24 25  1  0  0  0  0
 24 26  1  0  0  0  0
 26 27  1  0  0  0  0
 26 28  1  0  0  0  0
 26 29  1  0  0  0  0
M  END
$$$$

  -OEChem-04042215593D

 29 29  0     1  0  0  0  0  0999 V2000
   -2.7548   -4.4169    1.3130 H   0  0  0  0  0  0  0  0  0  0  0  0
   -2.9096   -3.4275    0.8735 C   0  0  0  0  0  0  0  0  0  0  0  0
   -3.5119   -2.8281    1.5604 H   0  0  0  0  0  0  0  0  0  0  0  0
   -3.4484   -3.5408   -0.0702 H   0  0  0  0  0  0  0  0  0  0  0  0
   -1.5743   -2.7503    0.6290 C   0  0  0  0  0  0  0  0  0  0  0  0
   -0.5376   -3.3420    0.8824 O   0  0  0  0  0  0  0  0  0  0  0  0
   -1.5423   -1.4706    0.1175 N   0  0  0  0  0  0  0  0  0  0  0  0
   -2.4330   -0.9816    0.0408 H   0  0  0  0  0  0  0  0  0  0  0  0
   -0.3360   -0.6336    0.0450 C   0  0  1  0  0  0  0  0  0  0  0  0
    0.4423   -1.0295    0.7068 H   0  0  0  0  0  0  0  0  0  0  0  0
    0.1870   -0.6368   -1.3988 C   0  0  0  0  0  0  0  0  0  0  0  0
    0.4203   -1.6678   -1.6810 H   0  0  0  0  0  0  0  0  0  0  0  0
   -0.5922   -0.2701   -2.0735 H   0  0  0  0  0  0  0  0  0  0  0  0
    1.4297    0.1947   -1.5774 C   0  0  0  0  0  0  0  0  0  0  0  0
    2.2496    0.6695   -0.5552 N   0  0  0  0  0  0  0  0  0  0  0  0
    3.2006    1.3649   -1.1331 C   0  0  0  0  0  0  0  0  0  0  0  0
    4.0084    1.8672   -0.6086 H   0  0  0  0  0  0  0  0  0  0  0  0
    3.0195    1.3672   -2.5024 N   0  0  0  0  0  0  0  0  0  0  0  0
    3.6202    1.8415   -3.1745 H   0  0  0  0  0  0  0  0  0  0  0  0
    1.8917    0.6278   -2.7884 C   0  0  0  0  0  0  0  0  0  0  0  0
    1.4487    0.4253   -3.7591 H   0  0  0  0  0  0  0  0  0  0  0  0
   -0.6831    0.7927    0.5278 C   0  0  0  0  0  0  0  0  0  0  0  0
   -1.7786    1.2742    0.2488 O   0  0  0  0  0  0  0  0  0  0  0  0
    0.1557    1.4610    1.3978 N   0  0  0  0  0  0  0  0  0  0  0  0
    1.1206    1.1286    1.3892 H   0  0  0  0  0  0  0  0  0  0  0  0
   -0.0966    2.8246    1.8429 C   0  0  0  0  0  0  0  0  0  0  0  0
   -1.0733    2.8949    2.3331 H   0  0  0  0  0  0  0  0  0  0  0  0
    0.6698    3.1338    2.5599 H   0  0  0  0  0  0  0  0  0  0  0  0
   -0.0778    3.5141    0.9926 H   0  0  0  0  0  0  0  0  0  0  0  0
  1  2  1  0  0  0  0
  2  3  1  0  0  0  0
  2  4  1  0  0  0  0
  2  5  1  0  0  0  0
  5  6  2  0  0  0  0
  5  7  1  0  0  0  0
  7  8  1  0  0  0  0
  7  9  1  0  0  0  0
  9 10  1  0  0  0  0
  9 11  1  0  0  0  0
  9 22  1  0  0  0  0
 11 12  1  0  0  0  0
 11 13  1  0  0  0  0
 11 14  1  0  0  0  0
 14 15  1  0  0  0  0
 14 20  2  0  0  0  0
 15 16  2  0  0  0  0
 16 17  1  0  0  0  0
 16 18  1  0  0  0  0
 18 19  1  0  0  0  0
 18 20  1  0  0  0  0
 20 21  1  0  0  0  0
 22 23  2  0  0  0  0
 22 24  1  0  0  0  0
 24 25  1  0  0  0  0
 24 26  1  0  0  0  0
 26 27  1  0  0  0  0
 26 28  1  0  0  0  0
 26 29  1  0  0  0  0
M  END
$$$$

  -OEChem-04042215593D

 29 29  0     1  0  0  0  0  0999 V2000
   -2.7379   -4.4401    1.3249 H   0  0  0  0  0  0  0  0  0  0  0  0
   -2.9027   -3.4526    0.8847 C   0  0  0  0  0  0  0  0  0  0  0  0
   -3.5098   -2.8582    1.5718 H   0  0  0  0  0  0  0  0  0  0  0  0
   -3.4424   -3.5723   -0.0577 H   0  0  0  0  0  0  0  0  0  0  0  0
   -1.5743   -2.7629    0.6367 C   0  0  0  0  0  0  0  0  0  0  0  0
   -0.5318   -3.3448    0.8881 O   0  0  0  0  0  0  0  0  0  0  0  0
   -1.5576   -1.4843    0.1213 N   0  0  0  0  0  0  0  0  0  0  0  0
   -2.4543   -1.0083    0.0387 H   0  0  0  0  0  0  0  0  0  0  0  0
   -0.3607   -0.6371    0.0226 C   0  0  1  0  0  0  0  0  0  0  0  0
    0.4248   -1.0310    0.6773 H   0  0  0  0  0  0  0  0  0  0  0  0
    0.1560   -0.6475   -1.4217 C   0  0  0  0  0  0  0  0  0  0  0  0
    0.4093   -1.6755   -1.6960 H   0  0  0  0  0  0  0  0  0  0  0  0
   -0.6268   -0.2980   -2.1013 H   0  0  0  0  0  0  0  0  0  0  0  0
    1.3849    0.2060   -1.5820 C   0  0  0  0  0  0  0  0  0  0  0  0
    2.3328    0.4419   -0.5884 N   0  0  0  0  0  0  0  0  0  0  0  0
    3.2295    1.2429   -1.1142 C   0  0  0  0  0  0  0  0  0  0  0  0
    4.1090    1.6148   -0.5963 H   0  0  0  0  0  0  0  0  0  0  0  0
    2.8859    1.5474   -2.4173 N   0  0  0  0  0  0  0  0  0  0  0  0
    3.4165    2.1551   -3.0389 H   0  0  0  0  0  0  0  0  0  0  0  0
    1.7104    0.8925   -2.7173 C   0  0  0  0  0  0  0  0  0  0  0  0
    1.1495    0.9079   -3.6473 H   0  0  0  0  0  0  0  0  0  0  0  0
   -0.6790    0.7951    0.5002 C   0  0  0  0  0  0  0  0  0  0  0  0
   -1.7650    1.2979    0.2255 O   0  0  0  0  0  0  0  0  0  0  0  0
    0.1931    1.4560    1.3427 N   0  0  0  0  0  0  0  0  0  0  0  0
    1.1426    1.0824    1.3535 H   0  0  0  0  0  0  0  0  0  0  0  0
   -0.0154    2.8304    1.7773 C   0  0  0  0  0  0  0  0  0  0  0  0
   -0.9884    2.9352    2.2686 H   0  0  0  0  0  0  0  0  0  0  0  0
    0.7616    3.1209    2.4908 H   0  0  0  0  0  0  0  0  0  0  0  0
    0.0234    3.5121    0.9215 H   0  0  0  0  0  0  0  0  0  0  0  0
  1  2  1  0  0  0  0
  2  3  1  0  0  0  0
  2  4  1  0  0  0  0
  2  5  1  0  0  0  0
  5  6  2  0  0  0  0
  5  7  1  0  0  0  0
  7  8  1  0  0  0  0
  7  9  1  0  0  0  0
  9 10  1  0  0  0  0
  9 11  1  0  0  0  0
  9 22  1  0  0  0  0
 11 12  1  0  0  0  0
 11 13  1  0  0  0  0
 11 14  1  0  0  0  0
 14 15  1  0  0  0  0
 14 20  2  0  0  0  0
 15 16  2  0  0  0  0
 16 17  1  0  0  0  0
 16 18  1  0  0  0  0
 18 19  1  0  0  0  0
 18 20  1  0  0  0  0
 20 21  1  0  0  0  0
 22 23  2  0  0  0  0
 22 24  1  0  0  0  0
 24 25  1  0  0  0  0
 24 26  1  0  0  0  0
 26 27  1  0  0  0  0
 26 28  1  0  0  0  0
 26 29  1  0  0  0  0
M  END
$$$$

  -OEChem-04042215593D

 29 29  0     1  0  0  0  0  0999 V2000
   -2.7131   -4.4618    1.3184 H   0  0  0  0  0  0  0  0  0  0  0  0
   -2.8893   -3.4744    0.8824 C   0  0  0  0  0  0  0  0  0  0  0  0
   -3.5068   -2.8915    1.5700 H   0  0  0  0  0  0  0  0  0  0  0  0
   -3.4234   -3.5970   -0.0627 H   0  0  0  0  0  0  0  0  0  0  0  0
   -1.5692   -2.7657    0.6432 C   0  0  0  0  0  0  0  0  0  0  0  0
   -0.5211   -3.3304    0.9090 O   0  0  0  0  0  0  0  0  0  0  0  0
   -1.5673   -1.4877    0.1255 N   0  0  0  0  0  0  0  0  0  0  0  0
   -2.4702   -1.0276    0.0258 H   0  0  0  0  0  0  0  0  0  0  0  0
   -0.3788   -0.6309    0.0087 C   0  0  1  0  0  0  0  0  0  0  0  0
    0.4139   -1.0215    0.6570 H   0  0  0  0  0  0  0  0  0  0  0  0
    0.1303   -0.6467   -1.4374 C   0  0  0  0  0  0  0  0  0  0  0  0
    0.3965   -1.6718   -1.7113 H   0  0  0  0  0  0  0  0  0  0  0  0
   -0.6573   -0.3060   -2.1159 H   0  0  0  0  0  0  0  0  0  0  0  0
    1.3465    0.2242   -1.5851 C   0  0  0  0  0  0  0  0  0  0  0  0
    2.4207    0.2363   -0.7009 N   0  0  0  0  0  0  0  0  0  0  0  0
    3.2729    1.1195   -1.1650 C   0  0  0  0  0  0  0  0  0  0  0  0
    4.2259    1.3640   -0.7045 H   0  0  0  0  0  0  0  0  0  0  0  0
    2.7761    1.6950   -2.3191 N   0  0  0  0  0  0  0  0  0  0  0  0
    3.2480    2.4099   -2.8702 H   0  0  0  0  0  0  0  0  0  0  0  0
    1.5483    1.1288   -2.5888 C   0  0  0  0  0  0  0  0  0  0  0  0
    0.8744    1.3420   -3.4135 H   0  0  0  0  0  0  0  0  0  0  0  0
   -0.6796    0.8044    0.4829 C   0  0  0  0  0  0  0  0  0  0  0  0
   -1.7559    1.3247    0.2048 O   0  0  0  0  0  0  0  0  0  0  0  0
    0.2145    1.4607    1.3062 N   0  0  0  0  0  0  0  0  0  0  0  0
    1.1470    1.0512    1.3566 H   0  0  0  0  0  0  0  0  0  0  0  0
    0.0305    2.8376    1.7435 C   0  0  0  0  0  0  0  0  0  0  0  0
   -0.9312    2.9536    2.2540 H   0  0  0  0  0  0  0  0  0  0  0  0
    0.8247    3.1206    2.4408 H   0  0  0  0  0  0  0  0  0  0  0  0
    0.0600    3.5175    0.8860 H   0  0  0  0  0  0  0  0  0  0  0  0
  1  2  1  0  0  0  0
  2  3  1  0  0  0  0
  2  4  1  0  0  0  0
  2  5  1  0  0  0  0
  5  6  2  0  0  0  0
  5  7  1  0  0  0  0
  7  8  1  0  0  0  0
  7  9  1  0  0  0  0
  9 10  1  0  0  0  0
  9 11  1  0  0  0  0
  9 22  1  0  0  0  0
 11 12  1  0  0  0  0
 11 13  1  0  0  0  0
 11 14  1  0  0  0  0
 14 15  1  0  0  0  0
 14 20  2  0  0  0  0
 15 16  2  0  0  0  0
 16 17  1  0  0  0  0
 16 18  1  0  0  0  0
 18 19  1  0  0  0  0
 18 20  1  0  0  0  0
 20 21  1  0  0  0  0
 22 23  2  0  0  0  0
 22 24  1  0  0  0  0
 24 25  1  0  0  0  0
 24 26  1  0  0  0  0
 26 27  1  0  0  0  0
 26 28  1  0  0  0  0
 26 29  1  0  0  0  0
M  END
$$$$

  -OEChem-04042215593D

 29 29  0     1  0  0  0  0  0999 V2000
   -2.6963   -4.4739    1.2981 H   0  0  0  0  0  0  0  0  0  0  0  0
   -2.8762   -3.4858    0.8654 C   0  0  0  0  0  0  0  0  0  0  0  0
   -3.5098   -2.9135    1.5472 H   0  0  0  0  0  0  0  0  0  0  0  0
   -3.3951   -3.6083   -0.0883 H   0  0  0  0  0  0  0  0  0  0  0  0
   -1.5602   -2.7621    0.6503 C   0  0  0  0  0  0  0  0  0  0  0  0
   -0.5110   -3.3134    0.9386 O   0  0  0  0  0  0  0  0  0  0  0  0
   -1.5633   -1.4838    0.1332 N   0  0  0  0  0  0  0  0  0  0  0  0
   -2.4691   -1.0355    0.0107 H   0  0  0  0  0  0  0  0  0  0  0  0
   -0.3793   -0.6216    0.0115 C   0  0  1  0  0  0  0  0  0  0  0  0
    0.4214   -1.0097    0.6513 H   0  0  0  0  0  0  0  0  0  0  0  0
    0.1148   -0.6370   -1.4394 C   0  0  0  0  0  0  0  0  0  0  0  0
    0.3795   -1.6595   -1.7245 H   0  0  0  0  0  0  0  0  0  0  0  0
   -0.6803   -0.2921   -2.1071 H   0  0  0  0  0  0  0  0  0  0  0  0
    1.3243    0.2401   -1.5879 C   0  0  0  0  0  0  0  0  0  0  0  0
    2.5149    0.0534   -0.8972 N   0  0  0  0  0  0  0  0  0  0  0  0
    3.3297    0.9996   -1.2995 C   0  0  0  0  0  0  0  0  0  0  0  0
    4.3502    1.1297   -0.9503 H   0  0  0  0  0  0  0  0  0  0  0  0
    2.6965    1.8056   -2.2269 N   0  0  0  0  0  0  0  0  0  0  0  0
    3.1160    2.6082   -2.6928 H   0  0  0  0  0  0  0  0  0  0  0  0
    1.4184    1.3235   -2.4149 C   0  0  0  0  0  0  0  0  0  0  0  0
    0.6422    1.7070   -3.0713 H   0  0  0  0  0  0  0  0  0  0  0  0
   -0.6793    0.8134    0.4860 C   0  0  0  0  0  0  0  0  0  0  0  0
   -1.7450    1.3437    0.1884 O   0  0  0  0  0  0  0  0  0  0  0  0
    0.2171    1.4731    1.3049 N   0  0  0  0  0  0  0  0  0  0  0  0
    1.1296    1.0356    1.4204 H   0  0  0  0  0  0  0  0  0  0  0  0
    0.0341    2.8484    1.7478 C   0  0  0  0  0  0  0  0  0  0  0  0
   -0.9248    2.9613    2.2644 H   0  0  0  0  0  0  0  0  0  0  0  0
    0.8322    3.1304    2.4411 H   0  0  0  0  0  0  0  0  0  0  0  0
    0.0578    3.5312    0.8924 H   0  0  0  0  0  0  0  0  0  0  0  0
  1  2  1  0  0  0  0
  2  3  1  0  0  0  0
  2  4  1  0  0  0  0
  2  5  1  0  0  0  0
  5  6  2  0  0  0  0
  5  7  1  0  0  0  0
  7  8  1  0  0  0  0
  7  9  1  0  0  0  0
  9 10  1  0  0  0  0
  9 11  1  0  0  0  0
  9 22  1  0  0  0  0
 11 12  1  0  0  0  0
 11 13  1  0  0  0  0
 11 14  1  0  0  0  0
 14 15  1  0  0  0  0
 14 20  2  0  0  0  0
 15 16  2  0  0  0  0
 16 17  1  0  0  0  0
 16 18  1  0  0  0  0
 18 19  1  0  0  0  0
 18 20  1  0  0  0  0
 20 21  1  0  0  0  0
 22 23  2  0  0  0  0
 22 24  1  0  0  0  0
 24 25  1  0  0  0  0
 24 26  1  0  0  0  0
 26 27  1  0  0  0  0
 26 28  1  0  0  0  0
 26 29  1  0  0  0  0
M  END
$$$$

  -OEChem-04042215593D

 29 29  0     1  0  0  0  0  0999 V2000
   -2.6879   -4.4838    1.2691 H   0  0  0  0  0  0  0  0  0  0  0  0
   -2.8686   -3.4934    0.8418 C   0  0  0  0  0  0  0  0  0  0  0  0
   -3.5212   -2.9334    1.5158 H   0  0  0  0  0  0  0  0  0  0  0  0
   -3.3670   -3.6122   -0.1232 H   0  0  0  0  0  0  0  0  0  0  0  0
   -1.5551   -2.7559    0.6593 C   0  0  0  0  0  0  0  0  0  0  0  0
   -0.5083   -3.2945    0.9782 O   0  0  0  0  0  0  0  0  0  0  0  0
   -1.5571   -1.4766    0.1441 N   0  0  0  0  0  0  0  0  0  0  0  0
   -2.4626   -1.0384   -0.0119 H   0  0  0  0  0  0  0  0  0  0  0  0
   -0.3734   -0.6135    0.0264 C   0  0  1  0  0  0  0  0  0  0  0  0
    0.4330   -1.0012    0.6592 H   0  0  0  0  0  0  0  0  0  0  0  0
    0.1083   -0.6228   -1.4296 C   0  0  0  0  0  0  0  0  0  0  0  0
    0.3638   -1.6430   -1.7308 H   0  0  0  0  0  0  0  0  0  0  0  0
   -0.6920   -0.2665   -2.0850 H   0  0  0  0  0  0  0  0  0  0  0  0
    1.3174    0.2524   -1.5846 C   0  0  0  0  0  0  0  0  0  0  0  0
    2.5903   -0.0911   -1.1518 N   0  0  0  0  0  0  0  0  0  0  0  0
    3.3781    0.9022   -1.4882 C   0  0  0  0  0  0  0  0  0  0  0  0
    4.4459    0.9407   -1.2926 H   0  0  0  0  0  0  0  0  0  0  0  0
    2.6484    1.8893   -2.1241 N   0  0  0  0  0  0  0  0  0  0  0  0
    3.0297    2.7598   -2.4902 H   0  0  0  0  0  0  0  0  0  0  0  0
    1.3351    1.4755   -2.1937 C   0  0  0  0  0  0  0  0  0  0  0  0
    0.4855    1.9929   -2.6311 H   0  0  0  0  0  0  0  0  0  0  0  0
   -0.6811    0.8189    0.5039 C   0  0  0  0  0  0  0  0  0  0  0  0
   -1.7325    1.3586    0.1749 O   0  0  0  0  0  0  0  0  0  0  0  0
    0.2070    1.4835    1.3282 N   0  0  0  0  0  0  0  0  0  0  0  0
    1.1000    1.0277    1.5035 H   0  0  0  0  0  0  0  0  0  0  0  0
    0.0182    2.8593    1.7673 C   0  0  0  0  0  0  0  0  0  0  0  0
   -0.9308    2.9646    2.3034 H   0  0  0  0  0  0  0  0  0  0  0  0
    0.8282    3.1548    2.4411 H   0  0  0  0  0  0  0  0  0  0  0  0
    0.0162    3.5372    0.9076 H   0  0  0  0  0  0  0  0  0  0  0  0
  1  2  1  0  0  0  0
  2  3  1  0  0  0  0
  2  4  1  0  0  0  0
  2  5  1  0  0  0  0
  5  6  2  0  0  0  0
  5  7  1  0  0  0  0
  7  8  1  0  0  0  0
  7  9  1  0  0  0  0
  9 10  1  0  0  0  0
  9 11  1  0  0  0  0
  9 22  1  0  0  0  0
 11 12  1  0  0  0  0
 11 13  1  0  0  0  0
 11 14  1  0  0  0  0
 14 15  1  0  0  0  0
 14 20  2  0  0  0  0
 15 16  2  0  0  0  0
 16 17  1  0  0  0  0
 16 18  1  0  0  0  0
 18 19  1  0  0  0  0
 18 20  1  0  0  0  0
 20 21  1  0  0  0  0
 22 23  2  0  0  0  0
 22 24  1  0  0  0  0
 24 25  1  0  0  0  0
 24 26  1  0  0  0  0
 26 27  1  0  0  0  0
 26 28  1  0  0  0  0
 26 29  1  0  0  0  0
M  END
$$$$

  -OEChem-04042215593D

 29 29  0     1  0  0  0  0  0999 V2000
   -2.6825   -4.4904    1.2293 H   0  0  0  0  0  0  0  0  0  0  0  0
   -2.8617   -3.4968    0.8089 C   0  0  0  0  0  0  0  0  0  0  0  0
   -3.5382   -2.9512    1.4710 H   0  0  0  0  0  0  0  0  0  0  0  0
   -3.3317   -3.6089   -0.1710 H   0  0  0  0  0  0  0  0  0  0  0  0
   -1.5517   -2.7443    0.6710 C   0  0  0  0  0  0  0  0  0  0  0  0
   -0.5096   -3.2713    1.0231 O   0  0  0  0  0  0  0  0  0  0  0  0
   -1.5510   -1.4638    0.1595 N   0  0  0  0  0  0  0  0  0  0  0  0
   -2.4548   -1.0350   -0.0289 H   0  0  0  0  0  0  0  0  0  0  0  0
   -0.3672   -0.5996    0.0542 C   0  0  1  0  0  0  0  0  0  0  0  0
    0.4385   -0.9874    0.6872 H   0  0  0  0  0  0  0  0  0  0  0  0
    0.1125   -0.6090   -1.4040 C   0  0  0  0  0  0  0  0  0  0  0  0
    0.3588   -1.6302   -1.7105 H   0  0  0  0  0  0  0  0  0  0  0  0
   -0.6897   -0.2467   -2.0540 H   0  0  0  0  0  0  0  0  0  0  0  0
    1.3236    0.2604   -1.5774 C   0  0  0  0  0  0  0  0  0  0  0  0
    2.6299   -0.1845   -1.4368 N   0  0  0  0  0  0  0  0  0  0  0  0
    3.4039    0.8360   -1.7192 C   0  0  0  0  0  0  0  0  0  0  0  0
    4.4899    0.8139   -1.7024 H   0  0  0  0  0  0  0  0  0  0  0  0
    2.6340    1.9378   -2.0421 N   0  0  0  0  0  0  0  0  0  0  0  0
    2.9965    2.8496   -2.3149 H   0  0  0  0  0  0  0  0  0  0  0  0
    1.3073    1.5711   -1.9661 C   0  0  0  0  0  0  0  0  0  0  0  0
    0.4258    2.1738   -2.1694 H   0  0  0  0  0  0  0  0  0  0  0  0
   -0.6860    0.8296    0.5347 C   0  0  0  0  0  0  0  0  0  0  0  0
   -1.7234    1.3769    0.1758 O   0  0  0  0  0  0  0  0  0  0  0  0
    0.1895    1.4969    1.3708 N   0  0  0  0  0  0  0  0  0  0  0  0
    1.0629    1.0274    1.5983 H   0  0  0  0  0  0  0  0  0  0  0  0
   -0.0137    2.8676    1.8197 C   0  0  0  0  0  0  0  0  0  0  0  0
   -0.9751    2.9648    2.3350 H   0  0  0  0  0  0  0  0  0  0  0  0
    0.7798    3.1585    2.5148 H   0  0  0  0  0  0  0  0  0  0  0  0
    0.0018    3.5544    0.9673 H   0  0  0  0  0  0  0  0  0  0  0  0
  1  2  1  0  0  0  0
  2  3  1  0  0  0  0
  2  4  1  0  0  0  0
  2  5  1  0  0  0  0
  5  6  2  0  0  0  0
  5  7  1  0  0  0  0
  7  8  1  0  0  0  0
  7  9  1  0  0  0  0
  9 10  1  0  0  0  0
  9 11  1  0  0  0  0
  9 22  1  0  0  0  0
 11 12  1  0  0  0  0
 11 13  1  0  0  0  0
 11 14  1  0  0  0  0
 14 15  1  0  0  0  0
 14 20  2  0  0  0  0
 15 16  2  0  0  0  0
 16 17  1  0  0  0  0
 16 18  1  0  0  0  0
 18 19  1  0  0  0  0
 18 20  1  0  0  0  0
 20 21  1  0  0  0  0
 22 23  2  0  0  0  0
 22 24  1  0  0  0  0
 24 25  1  0  0  0  0
 24 26  1  0  0  0  0
 26 27  1  0  0  0  0
 26 28  1  0  0  0  0
 26 29  1  0  0  0  0
M  END
$$$$

  -OEChem-04042215593D

 29 29  0     1  0  0  0  0  0999 V2000
   -2.6769   -4.4966    1.1773 H   0  0  0  0  0  0  0  0  0  0  0  0
   -2.8554   -3.4976    0.7697 C   0  0  0  0  0  0  0  0  0  0  0  0
   -3.5563   -2.9712    1.4218 H   0  0  0  0  0  0  0  0  0  0  0  0
   -3.2966   -3.5977   -0.2250 H   0  0  0  0  0  0  0  0  0  0  0  0
   -1.5505   -2.7287    0.6823 C   0  0  0  0  0  0  0  0  0  0  0  0
   -0.5147   -3.2447    1.0678 O   0  0  0  0  0  0  0  0  0  0  0  0
   -1.5455   -1.4456    0.1767 N   0  0  0  0  0  0  0  0  0  0  0  0
   -2.4456   -1.0256   -0.0460 H   0  0  0  0  0  0  0  0  0  0  0  0
   -0.3613   -0.5796    0.0885 C   0  0  1  0  0  0  0  0  0  0  0  0
    0.4388   -0.9668    0.7290 H   0  0  0  0  0  0  0  0  0  0  0  0
    0.1279   -0.5972   -1.3688 C   0  0  0  0  0  0  0  0  0  0  0  0
    0.3673   -1.6228   -1.6657 H   0  0  0  0  0  0  0  0  0  0  0  0
   -0.6720   -0.2384   -2.0233 H   0  0  0  0  0  0  0  0  0  0  0  0
    1.3427    0.2630   -1.5704 C   0  0  0  0  0  0  0  0  0  0  0  0
    2.6264   -0.2386   -1.7300 N   0  0  0  0  0  0  0  0  0  0  0  0
    3.4049    0.7894   -1.9682 C   0  0  0  0  0  0  0  0  0  0  0  0
    4.4762    0.7299   -2.1384 H   0  0  0  0  0  0  0  0  0  0  0  0
    2.6594    1.9532   -1.9769 N   0  0  0  0  0  0  0  0  0  0  0  0
    3.0249    2.8845   -2.1673 H   0  0  0  0  0  0  0  0  0  0  0  0
    1.3420    1.6201   -1.7438 C   0  0  0  0  0  0  0  0  0  0  0  0
    0.4744    2.2751   -1.7151 H   0  0  0  0  0  0  0  0  0  0  0  0
   -0.6940    0.8451    0.5736 C   0  0  0  0  0  0  0  0  0  0  0  0
   -1.7223    1.3950    0.1938 O   0  0  0  0  0  0  0  0  0  0  0  0
    0.1657    1.5144    1.4248 N   0  0  0  0  0  0  0  0  0  0  0  0
    1.0219    1.0359    1.6945 H   0  0  0  0  0  0  0  0  0  0  0  0
   -0.0645    2.8728    1.8985 C   0  0  0  0  0  0  0  0  0  0  0  0
   -1.0234    2.9391    2.4234 H   0  0  0  0  0  0  0  0  0  0  0  0
    0.7286    3.1702    2.5912 H   0  0  0  0  0  0  0  0  0  0  0  0
   -0.0718    3.5747    1.0582 H   0  0  0  0  0  0  0  0  0  0  0  0
  1  2  1  0  0  0  0
  2  3  1  0  0  0  0
  2  4  1  0  0  0  0
  2  5  1  0  0  0  0
  5  6  2  0  0  0  0
  5  7  1  0  0  0  0
  7  8  1  0  0  0  0
  7  9  1  0  0  0  0
  9 10  1  0  0  0  0
  9 11  1  0  0  0  0
  9 22  1  0  0  0  0
 11 12  1  0  0  0  0
 11 13  1  0  0  0  0
 11 14  1  0  0  0  0
 14 15  1  0  0  0  0
 14 20  2  0  0  0  0
 15 16  2  0  0  0  0
 16 17  1  0  0  0  0
 16 18  1  0  0  0  0
 18 19  1  0  0  0  0
 18 20  1  0  0  0  0
 20 21  1  0  0  0  0
 22 23  2  0  0  0  0
 22 24  1  0  0  0  0
 24 25  1  0  0  0  0
 24 26  1  0  0  0  0
 26 27  1  0  0  0  0
 26 28  1  0  0  0  0
 26 29  1  0  0  0  0
M  END
$$$$

  -OEChem-04042215593D

 29 29  0     1  0  0  0  0  0999 V2000
   -2.6803   -4.4811    1.1542 H   0  0  0  0  0  0  0  0  0  0  0  0
   -2.8515   -3.4814    0.7452 C   0  0  0  0  0  0  0  0  0  0  0  0
   -3.5648   -2.9566    1.3851 H   0  0  0  0  0  0  0  0  0  0  0  0
   -3.2747   -3.5793   -0.2574 H   0  0  0  0  0  0  0  0  0  0  0  0
   -1.5453   -2.7120    0.6830 C   0  0  0  0  0  0  0  0  0  0  0  0
   -0.5162   -3.2267    1.0881 O   0  0  0  0  0  0  0  0  0  0  0  0
   -1.5327   -1.4268    0.1834 N   0  0  0  0  0  0  0  0  0  0  0  0
   -2.4287   -1.0099   -0.0615 H   0  0  0  0  0  0  0  0  0  0  0  0
   -0.3484   -0.5590    0.1162 C   0  0  1  0  0  0  0  0  0  0  0  0
    0.4438   -0.9443    0.7675 H   0  0  0  0  0  0  0  0  0  0  0  0
    0.1576   -0.5846   -1.3381 C   0  0  0  0  0  0  0  0  0  0  0  0
    0.3939   -1.6162   -1.6168 H   0  0  0  0  0  0  0  0  0  0  0  0
   -0.6382   -0.2362   -2.0028 H   0  0  0  0  0  0  0  0  0  0  0  0
    1.3776    0.2634   -1.5750 C   0  0  0  0  0  0  0  0  0  0  0  0
    2.5803   -0.2570   -2.0327 N   0  0  0  0  0  0  0  0  0  0  0  0
    3.3851    0.7593   -2.2274 C   0  0  0  0  0  0  0  0  0  0  0  0
    4.4081    0.6816   -2.5842 H   0  0  0  0  0  0  0  0  0  0  0  0
    2.7344    1.9389   -1.9222 N   0  0  0  0  0  0  0  0  0  0  0  0
    3.1288    2.8719   -2.0266 H   0  0  0  0  0  0  0  0  0  0  0  0
    1.4493    1.6302   -1.5312 C   0  0  0  0  0  0  0  0  0  0  0  0
    0.6460    2.3158   -1.2733 H   0  0  0  0  0  0  0  0  0  0  0  0
   -0.7053    0.8581    0.6054 C   0  0  0  0  0  0  0  0  0  0  0  0
   -1.7323    1.4010    0.2129 O   0  0  0  0  0  0  0  0  0  0  0  0
    0.1315    1.5310    1.4767 N   0  0  0  0  0  0  0  0  0  0  0  0
    0.9681    1.0450    1.7907 H   0  0  0  0  0  0  0  0  0  0  0  0
   -0.1509    2.8612    2.0003 C   0  0  0  0  0  0  0  0  0  0  0  0
   -1.0932    2.8613    2.5581 H   0  0  0  0  0  0  0  0  0  0  0  0
    0.6501    3.1781    2.6752 H   0  0  0  0  0  0  0  0  0  0  0  0
   -0.2232    3.5881    1.1847 H   0  0  0  0  0  0  0  0  0  0  0  0
  1  2  1  0  0  0  0
  2  3  1  0  0  0  0
  2  4  1  0  0  0  0
  2  5  1  0  0  0  0
  5  6  2  0  0  0  0
  5  7  1  0  0  0  0
  7  8  1  0  0  0  0
  7  9  1  0  0  0  0
  9 10  1  0  0  0  0
  9 11  1  0  0  0  0
  9 22  1  0  0  0  0
 11 12  1  0  0  0  0
 11 13  1  0  0  0  0
 11 14  1  0  0  0  0
 14 15  1  0  0  0  0
 14 20  2  0  0  0  0
 15 16  2  0  0  0  0
 16 17  1  0  0  0  0
 16 18  1  0  0  0  0
 18 19  1  0  0  0  0
 18 20  1  0  0  0  0
 20 21  1  0  0  0  0
 22 23  2  0  0  0  0
 22 24  1  0  0  0  0
 24 25  1  0  0  0  0
 24 26  1  0  0  0  0
 26 27  1  0  0  0  0
 26 28  1  0  0  0  0
 26 29  1  0  0  0  0
M  END
$$$$

  -OEChem-04042215593D

 29 29  0     1  0  0  0  0  0999 V2000
   -2.6609   -4.4728    1.1206 H   0  0  0  0  0  0  0  0  0  0  0  0
   -2.8332   -3.4724    0.7136 C   0  0  0  0  0  0  0  0  0  0  0  0
   -3.5629   -2.9573    1.3430 H   0  0  0  0  0  0  0  0  0  0  0  0
   -3.2367   -3.5686   -0.2972 H   0  0  0  0  0  0  0  0  0  0  0  0
   -1.5326   -2.6917    0.6798 C   0  0  0  0  0  0  0  0  0  0  0  0
   -0.5071   -3.1980    1.1048 O   0  0  0  0  0  0  0  0  0  0  0  0
   -1.5202   -1.4033    0.1886 N   0  0  0  0  0  0  0  0  0  0  0  0
   -2.4134   -0.9907   -0.0735 H   0  0  0  0  0  0  0  0  0  0  0  0
   -0.3384   -0.5306    0.1440 C   0  0  1  0  0  0  0  0  0  0  0  0
    0.4486   -0.9110    0.8038 H   0  0  0  0  0  0  0  0  0  0  0  0
    0.1774   -0.5631   -1.3096 C   0  0  0  0  0  0  0  0  0  0  0  0
    0.4140   -1.6010   -1.5652 H   0  0  0  0  0  0  0  0  0  0  0  0
   -0.6189   -0.2333   -1.9832 H   0  0  0  0  0  0  0  0  0  0  0  0
    1.4006    0.2707   -1.5945 C   0  0  0  0  0  0  0  0  0  0  0  0
    2.4578   -0.2323   -2.3420 N   0  0  0  0  0  0  0  0  0  0  0  0
    3.3253    0.7391   -2.4853 C   0  0  0  0  0  0  0  0  0  0  0  0
    4.2664    0.6579   -3.0218 H   0  0  0  0  0  0  0  0  0  0  0  0
    2.8575    1.8791   -1.8629 N   0  0  0  0  0  0  0  0  0  0  0  0
    3.3263    2.7831   -1.8641 H   0  0  0  0  0  0  0  0  0  0  0  0
    1.6247    1.5940   -1.3159 C   0  0  0  0  0  0  0  0  0  0  0  0
    0.9534    2.2833   -0.8131 H   0  0  0  0  0  0  0  0  0  0  0  0
   -0.7264    0.8756    0.6405 C   0  0  0  0  0  0  0  0  0  0  0  0
   -1.7577    1.4053    0.2423 O   0  0  0  0  0  0  0  0  0  0  0  0
    0.0854    1.5513    1.5340 N   0  0  0  0  0  0  0  0  0  0  0  0
    0.9014    1.0576    1.8875 H   0  0  0  0  0  0  0  0  0  0  0  0
   -0.2504    2.8518    2.0998 C   0  0  0  0  0  0  0  0  0  0  0  0
   -1.1896    2.7948    2.6601 H   0  0  0  0  0  0  0  0  0  0  0  0
    0.5398    3.1815    2.7812 H   0  0  0  0  0  0  0  0  0  0  0  0
   -0.3569    3.5998    1.3072 H   0  0  0  0  0  0  0  0  0  0  0  0
  1  2  1  0  0  0  0
  2  3  1  0  0  0  0
  2  4  1  0  0  0  0
  2  5  1  0  0  0  0
  5  6  2  0  0  0  0
  5  7  1  0  0  0  0
  7  8  1  0  0  0  0
  7  9  1  0  0  0  0
  9 10  1  0  0  0  0
  9 11  1  0  0  0  0
  9 22  1  0  0  0  0
 11 12  1  0  0  0  0
 11 13  1  0  0  0  0
 11 14  1  0  0  0  0
 14 15  1  0  0  0  0
 14 20  2  0  0  0  0
 15 16  2  0  0  0  0
 16 17  1  0  0  0  0
 16 18  1  0  0  0  0
 18 19  1  0  0  0  0
 18 20  1  0  0  0  0
 20 21  1  0  0  0  0
 22 23  2  0  0  0  0
 22 24  1  0  0  0  0
 24 25  1  0  0  0  0
 24 26  1  0  0  0  0
 26 27  1  0  0  0  0
 26 28  1  0  0  0  0
 26 29  1  0  0  0  0
M  END
$$$$

  -OEChem-04042215593D

 29 29  0     1  0  0  0  0  0999 V2000
   -2.6410   -4.4654    1.0800 H   0  0  0  0  0  0  0  0  0  0  0  0
   -2.8119   -3.4643    0.6742 C   0  0  0  0  0  0  0  0  0  0  0  0
   -3.5571   -2.9564    1.2912 H   0  0  0  0  0  0  0  0  0  0  0  0
   -3.1950   -3.5585   -0.3446 H   0  0  0  0  0  0  0  0  0  0  0  0
   -1.5162   -2.6750    0.6692 C   0  0  0  0  0  0  0  0  0  0  0  0
   -0.4947   -3.1778    1.1084 O   0  0  0  0  0  0  0  0  0  0  0  0
   -1.5013   -1.3825    0.1890 N   0  0  0  0  0  0  0  0  0  0  0  0
   -2.3910   -0.9700   -0.0859 H   0  0  0  0  0  0  0  0  0  0  0  0
   -0.3218   -0.5054    0.1770 C   0  0  1  0  0  0  0  0  0  0  0  0
    0.4622   -0.8847    0.8408 H   0  0  0  0  0  0  0  0  0  0  0  0
    0.1916   -0.5297   -1.2792 C   0  0  0  0  0  0  0  0  0  0  0  0
    0.4235   -1.5700   -1.5285 H   0  0  0  0  0  0  0  0  0  0  0  0
   -0.6111   -0.2057   -1.9484 H   0  0  0  0  0  0  0  0  0  0  0  0
    1.4153    0.2886   -1.6114 C   0  0  0  0  0  0  0  0  0  0  0  0
    2.2688   -0.1324   -2.6245 N   0  0  0  0  0  0  0  0  0  0  0  0
    3.2234    0.7588   -2.7250 C   0  0  0  0  0  0  0  0  0  0  0  0
    4.0485    0.7107   -3.4301 H   0  0  0  0  0  0  0  0  0  0  0  0
    3.0171    1.7665   -1.8055 N   0  0  0  0  0  0  0  0  0  0  0  0
    3.6030    2.5924   -1.6993 H   0  0  0  0  0  0  0  0  0  0  0  0
    1.8656    1.4803   -1.1032 C   0  0  0  0  0  0  0  0  0  0  0  0
    1.4040    2.0968   -0.3424 H   0  0  0  0  0  0  0  0  0  0  0  0
   -0.7473    0.8887    0.6807 C   0  0  0  0  0  0  0  0  0  0  0  0
   -1.7786    1.4031    0.2630 O   0  0  0  0  0  0  0  0  0  0  0  0
    0.0264    1.5703    1.6038 N   0  0  0  0  0  0  0  0  0  0  0  0
    0.8107    1.0677    2.0122 H   0  0  0  0  0  0  0  0  0  0  0  0
   -0.3604    2.8533    2.1784 C   0  0  0  0  0  0  0  0  0  0  0  0
   -1.2920    2.7542    2.7454 H   0  0  0  0  0  0  0  0  0  0  0  0
    0.4201    3.2148    2.8548 H   0  0  0  0  0  0  0  0  0  0  0  0
   -0.5052    3.5995    1.3900 H   0  0  0  0  0  0  0  0  0  0  0  0
  1  2  1  0  0  0  0
  2  3  1  0  0  0  0
  2  4  1  0  0  0  0
  2  5  1  0  0  0  0
  5  6  2  0  0  0  0
  5  7  1  0  0  0  0
  7  8  1  0  0  0  0
  7  9  1  0  0  0  0
  9 10  1  0  0  0  0
  9 11  1  0  0  0  0
  9 22  1  0  0  0  0
 11 12  1  0  0  0  0
 11 13  1  0  0  0  0
 11 14  1  0  0  0  0
 14 15  1  0  0  0  0
 14 20  2  0  0  0  0
 15 16  2  0  0  0  0
 16 17  1  0  0  0  0
 16 18  1  0  0  0  0
 18 19  1  0  0  0  0
 18 20  1  0  0  0  0
 20 21  1  0  0  0  0
 22 23  2  0  0  0  0
 22 24  1  0  0  0  0
 24 25  1  0  0  0  0
 24 26  1  0  0  0  0
 26 27  1  0  0  0  0
 26 28  1  0  0  0  0
 26 29  1  0  0  0  0
M  END
$$$$

  -OEChem-04042215593D

 29 29  0     1  0  0  0  0  0999 V2000
   -2.6530   -4.4537    1.0634 H   0  0  0  0  0  0  0  0  0  0  0  0
   -2.8140   -3.4509    0.6578 C   0  0  0  0  0  0  0  0  0  0  0  0
   -3.5653   -2.9410    1.2658 H   0  0  0  0  0  0  0  0  0  0  0  0
   -3.1835   -3.5414   -0.3665 H   0  0  0  0  0  0  0  0  0  0  0  0
   -1.5156   -2.6664    0.6723 C   0  0  0  0  0  0  0  0  0  0  0  0
   -0.5024   -3.1696    1.1302 O   0  0  0  0  0  0  0  0  0  0  0  0
   -1.4891   -1.3759    0.1884 N   0  0  0  0  0  0  0  0  0  0  0  0
   -2.3728   -0.9615   -0.1031 H   0  0  0  0  0  0  0  0  0  0  0  0
   -0.3069   -0.5029    0.1892 C   0  0  1  0  0  0  0  0  0  0  0  0
    0.4770   -0.8825    0.8529 H   0  0  0  0  0  0  0  0  0  0  0  0
    0.1960   -0.5073   -1.2707 C   0  0  0  0  0  0  0  0  0  0  0  0
    0.4182   -1.5440   -1.5429 H   0  0  0  0  0  0  0  0  0  0  0  0
   -0.6116   -0.1646   -1.9247 H   0  0  0  0  0  0  0  0  0  0  0  0
    1.4209    0.3058   -1.6090 C   0  0  0  0  0  0  0  0  0  0  0  0
    2.0732    0.0797   -2.8154 N   0  0  0  0  0  0  0  0  0  0  0  0
    3.1085    0.8811   -2.8546 C   0  0  0  0  0  0  0  0  0  0  0  0
    3.8166    0.9438   -3.6760 H   0  0  0  0  0  0  0  0  0  0  0  0
    3.1623    1.6276   -1.6956 N   0  0  0  0  0  0  0  0  0  0  0  0
    3.8710    2.3262   -1.4801 H   0  0  0  0  0  0  0  0  0  0  0  0
    2.0993    1.2617   -0.8974 C   0  0  0  0  0  0  0  0  0  0  0  0
    1.8638    1.6572    0.0807 H   0  0  0  0  0  0  0  0  0  0  0  0
   -0.7507    0.8907    0.6851 C   0  0  0  0  0  0  0  0  0  0  0  0
   -1.7852    1.3899    0.2561 O   0  0  0  0  0  0  0  0  0  0  0  0
   -0.0031    1.5850    1.6200 N   0  0  0  0  0  0  0  0  0  0  0  0
    0.7568    1.0810    2.0696 H   0  0  0  0  0  0  0  0  0  0  0  0
   -0.4215    2.8639    2.1816 C   0  0  0  0  0  0  0  0  0  0  0  0
   -1.3725    2.7564    2.7138 H   0  0  0  0  0  0  0  0  0  0  0  0
    0.3306    3.2315    2.8863 H   0  0  0  0  0  0  0  0  0  0  0  0
   -0.5437    3.6095    1.3886 H   0  0  0  0  0  0  0  0  0  0  0  0
  1  2  1  0  0  0  0
  2  3  1  0  0  0  0
  2  4  1  0  0  0  0
  2  5  1  0  0  0  0
  5  6  2  0  0  0  0
  5  7  1  0  0  0  0
  7  8  1  0  0  0  0
  7  9  1  0  0  0  0
  9 10  1  0  0  0  0
  9 11  1  0  0  0  0
  9 22  1  0  0  0  0
 11 12  1  0  0  0  0
 11 13  1  0  0  0  0
 11 14  1  0  0  0  0
 14 15  1  0  0  0  0
 14 20  2  0  0  0  0
 15 16  2  0  0  0  0
 16 17  1  0  0  0  0
 16 18  1  0  0  0  0
 18 19  1  0  0  0  0
 18 20  1  0  0  0  0
 20 21  1  0  0  0  0
 22 23  2  0  0  0  0
 22 24  1  0  0  0  0
 24 25  1  0  0  0  0
 24 26  1  0  0  0  0
 26 27  1  0  0  0  0
 26 28  1  0  0  0  0
 26 29  1  0  0  0  0
M  END
$$$$

  -OEChem-04042215593D

 29 29  0     1  0  0  0  0  0999 V2000
   -2.7120   -4.4426    1.1525 H   0  0  0  0  0  0  0  0  0  0  0  0
   -2.8638   -3.4501    0.7194 C   0  0  0  0  0  0  0  0  0  0  0  0
   -3.5982   -2.9109    1.3225 H   0  0  0  0  0  0  0  0  0  0  0  0
   -3.2497   -3.5647   -0.2965 H   0  0  0  0  0  0  0  0  0  0  0  0
   -1.5536   -2.6859    0.6924 C   0  0  0  0  0  0  0  0  0  0  0  0
   -0.5404   -3.1934    1.1462 O   0  0  0  0  0  0  0  0  0  0  0  0
   -1.5166   -1.4096    0.1726 N   0  0  0  0  0  0  0  0  0  0  0  0
   -2.3999   -0.9915   -0.1147 H   0  0  0  0  0  0  0  0  0  0  0  0
   -0.3282   -0.5466    0.1436 C   0  0  1  0  0  0  0  0  0  0  0  0
    0.4366   -0.9365    0.8225 H   0  0  0  0  0  0  0  0  0  0  0  0
    0.2038   -0.5533   -1.3018 C   0  0  0  0  0  0  0  0  0  0  0  0
    0.2040   -1.5826   -1.6729 H   0  0  0  0  0  0  0  0  0  0  0  0
   -0.4711    0.0249   -1.9406 H   0  0  0  0  0  0  0  0  0  0  0  0
    1.6017   -0.0236   -1.4787 C   0  0  0  0  0  0  0  0  0  0  0  0
    2.1892    0.0218   -2.7358 N   0  0  0  0  0  0  0  0  0  0  0  0
    3.4001    0.4959   -2.5754 C   0  0  0  0  0  0  0  0  0  0  0  0
    4.1161    0.6542   -3.3768 H   0  0  0  0  0  0  0  0  0  0  0  0
    3.6275    0.7577   -1.2386 N   0  0  0  0  0  0  0  0  0  0  0  0
    4.4975    1.1188   -0.8519 H   0  0  0  0  0  0  0  0  0  0  0  0
    2.4910    0.4200   -0.5346 C   0  0  0  0  0  0  0  0  0  0  0  0
    2.3409    0.4758    0.5365 H   0  0  0  0  0  0  0  0  0  0  0  0
   -0.7070    0.8807    0.5949 C   0  0  0  0  0  0  0  0  0  0  0  0
   -1.7449    1.3894    0.1861 O   0  0  0  0  0  0  0  0  0  0  0  0
    0.0807    1.5798    1.4924 N   0  0  0  0  0  0  0  0  0  0  0  0
    0.8471    1.0790    1.9310 H   0  0  0  0  0  0  0  0  0  0  0  0
   -0.2754    2.8986    2.0020 C   0  0  0  0  0  0  0  0  0  0  0  0
   -1.2106    2.8504    2.5694 H   0  0  0  0  0  0  0  0  0  0  0  0
    0.5123    3.2746    2.6617 H   0  0  0  0  0  0  0  0  0  0  0  0
   -0.3997    3.6076    1.1765 H   0  0  0  0  0  0  0  0  0  0  0  0
  1  2  1  0  0  0  0
  2  3  1  0  0  0  0
  2  4  1  0  0  0  0
  2  5  1  0  0  0  0
  5  6  2  0  0  0  0
  5  7  1  0  0  0  0
  7  8  1  0  0  0  0
  7  9  1  0  0  0  0
  9 10  1  0  0  0  0
  9 11  1  0  0  0  0
  9 22  1  0  0  0  0
 11 12  1  0  0  0  0
 11 13  1  0  0  0  0
 11 14  1  0  0  0  0
 14 15  1  0  0  0  0
 14 20  2  0  0  0  0
 15 16  2  0  0  0  0
 16 17  1  0  0  0  0
 16 18  1  0  0  0  0
 18 19  1  0  0  0  0
 18 20  1  0  0  0  0
 20 21  1  0  0  0  0
 22 23  2  0  0  0  0
 22 24  1  0  0  0  0
 24 25  1  0  0  0  0
 24 26  1  0  0  0  0
 26 27  1  0  0  0  0
 26 28  1  0  0  0  0
 26 29  1  0  0  0  0
M  END
$$$$

  -OEChem-04042215593D

 29 29  0     1  0  0  0  0  0999 V2000
   -2.7258   -4.4528    1.1763 H   0  0  0  0  0  0  0  0  0  0  0  0
   -2.8839   -3.4584    0.7492 C   0  0  0  0  0  0  0  0  0  0  0  0
   -3.5987   -2.9162    1.3730 H   0  0  0  0  0  0  0  0  0  0  0  0
   -3.2979   -3.5691   -0.2560 H   0  0  0  0  0  0  0  0  0  0  0  0
   -1.5704   -2.7018    0.6871 C   0  0  0  0  0  0  0  0  0  0  0  0
   -0.5477   -3.2186    1.1081 O   0  0  0  0  0  0  0  0  0  0  0  0
   -1.5380   -1.4262    0.1644 N   0  0  0  0  0  0  0  0  0  0  0  0
   -2.4269   -0.9988   -0.0909 H   0  0  0  0  0  0  0  0  0  0  0  0
   -0.3483   -0.5654    0.1225 C   0  0  1  0  0  0  0  0  0  0  0  0
    0.4078   -0.9602    0.8075 H   0  0  0  0  0  0  0  0  0  0  0  0
    0.1968   -0.5725   -1.3166 C   0  0  0  0  0  0  0  0  0  0  0  0
    0.2002   -1.5980   -1.6977 H   0  0  0  0  0  0  0  0  0  0  0  0
   -0.4700    0.0135   -1.9569 H   0  0  0  0  0  0  0  0  0  0  0  0
    1.5962   -0.0359   -1.4585 C   0  0  0  0  0  0  0  0  0  0  0  0
    2.1133    0.3121   -2.6990 N   0  0  0  0  0  0  0  0  0  0  0  0
    3.3424    0.7205   -2.4994 C   0  0  0  0  0  0  0  0  0  0  0  0
    4.0172    1.0635   -3.2787 H   0  0  0  0  0  0  0  0  0  0  0  0
    3.6496    0.6442   -1.1548 N   0  0  0  0  0  0  0  0  0  0  0  0
    4.5512    0.8820   -0.7454 H   0  0  0  0  0  0  0  0  0  0  0  0
    2.5458    0.1559   -0.4881 C   0  0  0  0  0  0  0  0  0  0  0  0
    2.4562   -0.0588    0.5710 H   0  0  0  0  0  0  0  0  0  0  0  0
   -0.7024    0.8682    0.5720 C   0  0  0  0  0  0  0  0  0  0  0  0
   -1.7584    1.3734    0.2075 O   0  0  0  0  0  0  0  0  0  0  0  0
    0.1083    1.5583    1.4554 N   0  0  0  0  0  0  0  0  0  0  0  0
    0.9447    1.0927    1.7919 H   0  0  0  0  0  0  0  0  0  0  0  0
   -0.2070    2.8897    1.9583 C   0  0  0  0  0  0  0  0  0  0  0  0
   -1.1508    2.8763    2.5134 H   0  0  0  0  0  0  0  0  0  0  0  0
    0.5840    3.2374    2.6297 H   0  0  0  0  0  0  0  0  0  0  0  0
   -0.2946    3.6011    1.1303 H   0  0  0  0  0  0  0  0  0  0  0  0
  1  2  1  0  0  0  0
  2  3  1  0  0  0  0
  2  4  1  0  0  0  0
  2  5  1  0  0  0  0
  5  6  2  0  0  0  0
  5  7  1  0  0  0  0
  7  8  1  0  0  0  0
  7  9  1  0  0  0  0
  9 10  1  0  0  0  0
  9 11  1  0  0  0  0
  9 22  1  0  0  0  0
 11 12  1  0  0  0  0
 11 13  1  0  0  0  0
 11 14  1  0  0  0  0
 14 15  1  0  0  0  0
 14 20  2  0  0  0  0
 15 16  2  0  0  0  0
 16 17  1  0  0  0  0
 16 18  1  0  0  0  0
 18 19  1  0  0  0  0
 18 20  1  0  0  0  0
 20 21  1  0  0  0  0
 22 23  2  0  0  0  0
 22 24  1  0  0  0  0
 24 25  1  0  0  0  0
 24 26  1  0  0  0  0
 26 27  1  0  0  0  0
 26 28  1  0  0  0  0
 26 29  1  0  0  0  0
M  END
$$$$

  -OEChem-04042215593D

 29 29  0     1  0  0  0  0  0999 V2000
   -2.7323   -4.4625    1.1937 H   0  0  0  0  0  0  0  0  0  0  0  0
   -2.8938   -3.4654    0.7747 C   0  0  0  0  0  0  0  0  0  0  0  0
   -3.5859   -2.9195    1.4204 H   0  0  0  0  0  0  0  0  0  0  0  0
   -3.3372   -3.5686   -0.2186 H   0  0  0  0  0  0  0  0  0  0  0  0
   -1.5768   -2.7187    0.6782 C   0  0  0  0  0  0  0  0  0  0  0  0
   -0.5453   -3.2457    1.0644 O   0  0  0  0  0  0  0  0  0  0  0  0
   -1.5507   -1.4421    0.1582 N   0  0  0  0  0  0  0  0  0  0  0  0
   -2.4449   -1.0048   -0.0589 H   0  0  0  0  0  0  0  0  0  0  0  0
   -0.3614   -0.5820    0.1030 C   0  0  1  0  0  0  0  0  0  0  0  0
    0.3933   -0.9785    0.7877 H   0  0  0  0  0  0  0  0  0  0  0  0
    0.1852   -0.5866   -1.3342 C   0  0  0  0  0  0  0  0  0  0  0  0
    0.1923   -1.6091   -1.7228 H   0  0  0  0  0  0  0  0  0  0  0  0
   -0.4781    0.0046   -1.9738 H   0  0  0  0  0  0  0  0  0  0  0  0
    1.5835   -0.0424   -1.4465 C   0  0  0  0  0  0  0  0  0  0  0  0
    2.0334    0.6014   -2.5908 N   0  0  0  0  0  0  0  0  0  0  0  0
    3.2828    0.9330   -2.3740 C   0  0  0  0  0  0  0  0  0  0  0  0
    3.9202    1.4511   -3.0849 H   0  0  0  0  0  0  0  0  0  0  0  0
    3.6659    0.5211   -1.1121 N   0  0  0  0  0  0  0  0  0  0  0  0
    4.5969    0.6359   -0.7156 H   0  0  0  0  0  0  0  0  0  0  0  0
    2.5912   -0.1074   -0.5195 C   0  0  0  0  0  0  0  0  0  0  0  0
    2.5551   -0.5831    0.4556 H   0  0  0  0  0  0  0  0  0  0  0  0
   -0.6981    0.8532    0.5586 C   0  0  0  0  0  0  0  0  0  0  0  0
   -1.7698    1.3545    0.2363 O   0  0  0  0  0  0  0  0  0  0  0  0
    0.1346    1.5320    1.4297 N   0  0  0  0  0  0  0  0  0  0  0  0
    1.0196    1.0964    1.6701 H   0  0  0  0  0  0  0  0  0  0  0  0
   -0.1407    2.8800    1.9110 C   0  0  0  0  0  0  0  0  0  0  0  0
   -1.0966    2.9094    2.4445 H   0  0  0  0  0  0  0  0  0  0  0  0
    0.6469    3.2046    2.5976 H   0  0  0  0  0  0  0  0  0  0  0  0
   -0.1822    3.5840    1.0732 H   0  0  0  0  0  0  0  0  0  0  0  0
  1  2  1  0  0  0  0
  2  3  1  0  0  0  0
  2  4  1  0  0  0  0
  2  5  1  0  0  0  0
  5  6  2  0  0  0  0
  5  7  1  0  0  0  0
  7  8  1  0  0  0  0
  7  9  1  0  0  0  0
  9 10  1  0  0  0  0
  9 11  1  0  0  0  0
  9 22  1  0  0  0  0
 11 12  1  0  0  0  0
 11 13  1  0  0  0  0
 11 14  1  0  0  0  0
 14 15  1  0  0  0  0
 14 20  2  0  0  0  0
 15 16  2  0  0  0  0
 16 17  1  0  0  0  0
 16 18  1  0  0  0  0
 18 19  1  0  0  0  0
 18 20  1  0  0  0  0
 20 21  1  0  0  0  0
 22 23  2  0  0  0  0
 22 24  1  0  0  0  0
 24 25  1  0  0  0  0
 24 26  1  0  0  0  0
 26 27  1  0  0  0  0
 26 28  1  0  0  0  0
 26 29  1  0  0  0  0
M  END
$$$$

  -OEChem-04042215593D

 29 29  0     1  0  0  0  0  0999 V2000
   -2.7114   -4.4651    1.2244 H   0  0  0  0  0  0  0  0  0  0  0  0
   -2.8852   -3.4700    0.8053 C   0  0  0  0  0  0  0  0  0  0  0  0
   -3.5559   -2.9198    1.4695 H   0  0  0  0  0  0  0  0  0  0  0  0
   -3.3595   -3.5782   -0.1731 H   0  0  0  0  0  0  0  0  0  0  0  0
   -1.5708   -2.7260    0.6634 C   0  0  0  0  0  0  0  0  0  0  0  0
   -0.5265   -3.2602    1.0036 O   0  0  0  0  0  0  0  0  0  0  0  0
   -1.5585   -1.4480    0.1462 N   0  0  0  0  0  0  0  0  0  0  0  0
   -2.4583   -1.0021   -0.0266 H   0  0  0  0  0  0  0  0  0  0  0  0
   -0.3699   -0.5882    0.0749 C   0  0  1  0  0  0  0  0  0  0  0  0
    0.3917   -0.9833    0.7534 H   0  0  0  0  0  0  0  0  0  0  0  0
    0.1689   -0.5908   -1.3634 C   0  0  0  0  0  0  0  0  0  0  0  0
    0.1832   -1.6131   -1.7522 H   0  0  0  0  0  0  0  0  0  0  0  0
   -0.4930   -0.0005   -2.0050 H   0  0  0  0  0  0  0  0  0  0  0  0
    1.5641   -0.0394   -1.4442 C   0  0  0  0  0  0  0  0  0  0  0  0
    1.9661    0.8703   -2.4113 N   0  0  0  0  0  0  0  0  0  0  0  0
    3.2374    1.1098   -2.1986 C   0  0  0  0  0  0  0  0  0  0  0  0
    3.8502    1.7819   -2.7928 H   0  0  0  0  0  0  0  0  0  0  0  0
    3.6790    0.3781   -1.1122 N   0  0  0  0  0  0  0  0  0  0  0  0
    4.6367    0.3619   -0.7658 H   0  0  0  0  0  0  0  0  0  0  0  0
    2.6190   -0.3620   -0.6328 C   0  0  0  0  0  0  0  0  0  0  0  0
    2.6147   -1.0744    0.1878 H   0  0  0  0  0  0  0  0  0  0  0  0
   -0.6928    0.8471    0.5389 C   0  0  0  0  0  0  0  0  0  0  0  0
   -1.7768    1.3449    0.2540 O   0  0  0  0  0  0  0  0  0  0  0  0
    0.1593    1.5183    1.3969 N   0  0  0  0  0  0  0  0  0  0  0  0
    1.0665    1.0984    1.5764 H   0  0  0  0  0  0  0  0  0  0  0  0
   -0.0950    2.8719    1.8738 C   0  0  0  0  0  0  0  0  0  0  0  0
   -1.0448    2.9156    2.4171 H   0  0  0  0  0  0  0  0  0  0  0  0
    0.7034    3.1900    2.5510 H   0  0  0  0  0  0  0  0  0  0  0  0
   -0.1367    3.5718    1.0327 H   0  0  0  0  0  0  0  0  0  0  0  0
  1  2  1  0  0  0  0
  2  3  1  0  0  0  0
  2  4  1  0  0  0  0
  2  5  1  0  0  0  0
  5  6  2  0  0  0  0
  5  7  1  0  0  0  0
  7  8  1  0  0  0  0
  7  9  1  0  0  0  0
  9 10  1  0  0  0  0
  9 11  1  0  0  0  0
  9 22  1  0  0  0  0
 11 12  1  0  0  0  0
 11 13  1  0  0  0  0
 11 14  1  0  0  0  0
 14 15  1  0  0  0  0
 14 20  2  0  0  0  0
 15 16  2  0  0  0  0
 16 17  1  0  0  0  0
 16 18  1  0  0  0  0
 18 19  1  0  0  0  0
 18 20  1  0  0  0  0
 20 21  1  0  0  0  0
 22 23  2  0  0  0  0
 22 24  1  0  0  0  0
 24 25  1  0  0  0  0
 24 26  1  0  0  0  0
 26 27  1  0  0  0  0
 26 28  1  0  0  0  0
 26 29  1  0  0  0  0
M  END
$$$$

  -OEChem-04042215593D

 29 29  0     1  0  0  0  0  0999 V2000
   -2.7033   -4.4583    1.2541 H   0  0  0  0  0  0  0  0  0  0  0  0
   -2.8804   -3.4651    0.8322 C   0  0  0  0  0  0  0  0  0  0  0  0
   -3.5250   -2.9034    1.5126 H   0  0  0  0  0  0  0  0  0  0  0  0
   -3.3864   -3.5762   -0.1299 H   0  0  0  0  0  0  0  0  0  0  0  0
   -1.5641   -2.7348    0.6439 C   0  0  0  0  0  0  0  0  0  0  0  0
   -0.5131   -3.2811    0.9421 O   0  0  0  0  0  0  0  0  0  0  0  0
   -1.5581   -1.4549    0.1315 N   0  0  0  0  0  0  0  0  0  0  0  0
   -2.4598   -1.0001   -0.0046 H   0  0  0  0  0  0  0  0  0  0  0  0
   -0.3699   -0.5959    0.0510 C   0  0  1  0  0  0  0  0  0  0  0  0
    0.4003   -0.9917    0.7206 H   0  0  0  0  0  0  0  0  0  0  0  0
    0.1614   -0.5944   -1.3879 C   0  0  0  0  0  0  0  0  0  0  0  0
    0.1826   -1.6177   -1.7738 H   0  0  0  0  0  0  0  0  0  0  0  0
   -0.4976   -0.0065   -2.0347 H   0  0  0  0  0  0  0  0  0  0  0  0
    1.5536   -0.0388   -1.4407 C   0  0  0  0  0  0  0  0  0  0  0  0
    1.9129    1.0835   -2.1717 N   0  0  0  0  0  0  0  0  0  0  0  0
    3.2030    1.2441   -2.0008 C   0  0  0  0  0  0  0  0  0  0  0  0
    3.7940    2.0380   -2.4485 H   0  0  0  0  0  0  0  0  0  0  0  0
    3.6958    0.2535   -1.1717 N   0  0  0  0  0  0  0  0  0  0  0  0
    4.6735    0.1388   -0.9098 H   0  0  0  0  0  0  0  0  0  0  0  0
    2.6489   -0.5715   -0.8187 C   0  0  0  0  0  0  0  0  0  0  0  0
    2.6712   -1.4661   -0.2011 H   0  0  0  0  0  0  0  0  0  0  0  0
   -0.6892    0.8370    0.5246 C   0  0  0  0  0  0  0  0  0  0  0  0
   -1.7833    1.3282    0.2668 O   0  0  0  0  0  0  0  0  0  0  0  0
    0.1727    1.5032    1.3764 N   0  0  0  0  0  0  0  0  0  0  0  0
    1.0913    1.0934    1.5186 H   0  0  0  0  0  0  0  0  0  0  0  0
   -0.0686    2.8612    1.8467 C   0  0  0  0  0  0  0  0  0  0  0  0
   -1.0141    2.9153    2.3965 H   0  0  0  0  0  0  0  0  0  0  0  0
    0.7370    3.1778    2.5160 H   0  0  0  0  0  0  0  0  0  0  0  0
   -0.1114    3.5556    1.0011 H   0  0  0  0  0  0  0  0  0  0  0  0
  1  2  1  0  0  0  0
  2  3  1  0  0  0  0
  2  4  1  0  0  0  0
  2  5  1  0  0  0  0
  5  6  2  0  0  0  0
  5  7  1  0  0  0  0
  7  8  1  0  0  0  0
  7  9  1  0  0  0  0
  9 10  1  0  0  0  0
  9 11  1  0  0  0  0
  9 22  1  0  0  0  0
 11 12  1  0  0  0  0
 11 13  1  0  0  0  0
 11 14  1  0  0  0  0
 14 15  1  0  0  0  0
 14 20  2  0  0  0  0
 15 16  2  0  0  0  0
 16 17  1  0  0  0  0
 16 18  1  0  0  0  0
 18 19  1  0  0  0  0
 18 20  1  0  0  0  0
 20 21  1  0  0  0  0
 22 23  2  0  0  0  0
 22 24  1  0  0  0  0
 24 25  1  0  0  0  0
 24 26  1  0  0  0  0
 26 27  1  0  0  0  0
 26 28  1  0  0  0  0
 26 29  1  0  0  0  0
M  END
$$$$

  -OEChem-04042215593D

 29 29  0     1  0  0  0  0  0999 V2000
   -2.7067   -4.4513    1.2702 H   0  0  0  0  0  0  0  0  0  0  0  0
   -2.8830   -3.4586    0.8467 C   0  0  0  0  0  0  0  0  0  0  0  0
   -3.5099   -2.8878    1.5361 H   0  0  0  0  0  0  0  0  0  0  0  0
   -3.4077   -3.5696   -0.1054 H   0  0  0  0  0  0  0  0  0  0  0  0
   -1.5644   -2.7404    0.6305 C   0  0  0  0  0  0  0  0  0  0  0  0
   -0.5121   -3.2984    0.9013 O   0  0  0  0  0  0  0  0  0  0  0  0
   -1.5588   -1.4595    0.1215 N   0  0  0  0  0  0  0  0  0  0  0  0
   -2.4599   -0.9955    0.0146 H   0  0  0  0  0  0  0  0  0  0  0  0
   -0.3687   -0.6034    0.0372 C   0  0  1  0  0  0  0  0  0  0  0  0
    0.4058   -1.0016    0.7013 H   0  0  0  0  0  0  0  0  0  0  0  0
    0.1604   -0.6024   -1.4007 C   0  0  0  0  0  0  0  0  0  0  0  0
    0.1839   -1.6281   -1.7805 H   0  0  0  0  0  0  0  0  0  0  0  0
   -0.4934   -0.0161   -2.0540 H   0  0  0  0  0  0  0  0  0  0  0  0
    1.5521   -0.0474   -1.4339 C   0  0  0  0  0  0  0  0  0  0  0  0
    1.8766    1.2203   -1.8934 N   0  0  0  0  0  0  0  0  0  0  0  0
    3.1804    1.3273   -1.8017 C   0  0  0  0  0  0  0  0  0  0  0  0
    3.7519    2.2053   -2.0885 H   0  0  0  0  0  0  0  0  0  0  0  0
    3.7147    0.1600   -1.2878 N   0  0  0  0  0  0  0  0  0  0  0  0
    4.7067   -0.0174   -1.1391 H   0  0  0  0  0  0  0  0  0  0  0  0
    2.6799   -0.7223   -1.0593 C   0  0  0  0  0  0  0  0  0  0  0  0
    2.7276   -1.7392   -0.6773 H   0  0  0  0  0  0  0  0  0  0  0  0
   -0.6849    0.8287    0.5169 C   0  0  0  0  0  0  0  0  0  0  0  0
   -1.7874    1.3127    0.2805 O   0  0  0  0  0  0  0  0  0  0  0  0
    0.1819    1.4911    1.3667 N   0  0  0  0  0  0  0  0  0  0  0  0
    1.1150    1.1010    1.4627 H   0  0  0  0  0  0  0  0  0  0  0  0
   -0.0549    2.8511    1.8338 C   0  0  0  0  0  0  0  0  0  0  0  0
   -1.0086    2.9137    2.3684 H   0  0  0  0  0  0  0  0  0  0  0  0
    0.7423    3.1598    2.5165 H   0  0  0  0  0  0  0  0  0  0  0  0
   -0.0778    3.5466    0.9882 H   0  0  0  0  0  0  0  0  0  0  0  0
  1  2  1  0  0  0  0
  2  3  1  0  0  0  0
  2  4  1  0  0  0  0
  2  5  1  0  0  0  0
  5  6  2  0  0  0  0
  5  7  1  0  0  0  0
  7  8  1  0  0  0  0
  7  9  1  0  0  0  0
  9 10  1  0  0  0  0
  9 11  1  0  0  0  0
  9 22  1  0  0  0  0
 11 12  1  0  0  0  0
 11 13  1  0  0  0  0
 11 14  1  0  0  0  0
 14 15  1  0  0  0  0
 14 20  2  0  0  0  0
 15 16  2  0  0  0  0
 16 17  1  0  0  0  0
 16 18  1  0  0  0  0
 18 19  1  0  0  0  0
 18 20  1  0  0  0  0
 20 21  1  0  0  0  0
 22 23  2  0  0  0  0
 22 24  1  0  0  0  0
 24 25  1  0  0  0  0
 24 26  1  0  0  0  0
 26 27  1  0  0  0  0
 26 28  1  0  0  0  0
 26 29  1  0  0  0  0
M  END
$$$$

  -OEChem-04042215593D

 29 29  0     1  0  0  0  0  0999 V2000
   -2.7229   -4.4404    1.2808 H   0  0  0  0  0  0  0  0  0  0  0  0
   -2.8945   -3.4469    0.8573 C   0  0  0  0  0  0  0  0  0  0  0  0
   -3.5048   -2.8677    1.5545 H   0  0  0  0  0  0  0  0  0  0  0  0
   -3.4347   -3.5545   -0.0865 H   0  0  0  0  0  0  0  0  0  0  0  0
   -1.5713   -2.7438    0.6200 C   0  0  0  0  0  0  0  0  0  0  0  0
   -0.5214   -3.3161    0.8687 O   0  0  0  0  0  0  0  0  0  0  0  0
   -1.5593   -1.4618    0.1136 N   0  0  0  0  0  0  0  0  0  0  0  0
   -2.4570   -0.9869    0.0282 H   0  0  0  0  0  0  0  0  0  0  0  0
   -0.3643   -0.6115    0.0310 C   0  0  1  0  0  0  0  0  0  0  0  0
    0.4094   -1.0130    0.6945 H   0  0  0  0  0  0  0  0  0  0  0  0
    0.1682   -0.6122   -1.4051 C   0  0  0  0  0  0  0  0  0  0  0  0
    0.1843   -1.6383   -1.7845 H   0  0  0  0  0  0  0  0  0  0  0  0
   -0.4794   -0.0209   -2.0597 H   0  0  0  0  0  0  0  0  0  0  0  0
    1.5628   -0.0638   -1.4305 C   0  0  0  0  0  0  0  0  0  0  0  0
    1.8727    1.2782   -1.5976 N   0  0  0  0  0  0  0  0  0  0  0  0
    3.1817    1.3598   -1.6091 C   0  0  0  0  0  0  0  0  0  0  0  0
    3.7449    2.2810   -1.7295 H   0  0  0  0  0  0  0  0  0  0  0  0
    3.7338    0.1031   -1.4438 N   0  0  0  0  0  0  0  0  0  0  0  0
    4.7309   -0.1046   -1.4309 H   0  0  0  0  0  0  0  0  0  0  0  0
    2.7044   -0.8082   -1.3373 C   0  0  0  0  0  0  0  0  0  0  0  0
    2.7648   -1.8865   -1.2141 H   0  0  0  0  0  0  0  0  0  0  0  0
   -0.6819    0.8195    0.5157 C   0  0  0  0  0  0  0  0  0  0  0  0
   -1.7920    1.2950    0.2942 O   0  0  0  0  0  0  0  0  0  0  0  0
    0.1834    1.4794    1.3689 N   0  0  0  0  0  0  0  0  0  0  0  0
    1.1313    1.1166    1.4141 H   0  0  0  0  0  0  0  0  0  0  0  0
   -0.0570    2.8401    1.8317 C   0  0  0  0  0  0  0  0  0  0  0  0
   -1.0067    2.8998    2.3735 H   0  0  0  0  0  0  0  0  0  0  0  0
    0.7438    3.1559    2.5070 H   0  0  0  0  0  0  0  0  0  0  0  0
   -0.0903    3.5316    0.9833 H   0  0  0  0  0  0  0  0  0  0  0  0
  1  2  1  0  0  0  0
  2  3  1  0  0  0  0
  2  4  1  0  0  0  0
  2  5  1  0  0  0  0
  5  6  2  0  0  0  0
  5  7  1  0  0  0  0
  7  8  1  0  0  0  0
  7  9  1  0  0  0  0
  9 10  1  0  0  0  0
  9 11  1  0  0  0  0
  9 22  1  0  0  0  0
 11 12  1  0  0  0  0
 11 13  1  0  0  0  0
 11 14  1  0  0  0  0
 14 15  1  0  0  0  0
 14 20  2  0  0  0  0
 15 16  2  0  0  0  0
 16 17  1  0  0  0  0
 16 18  1  0  0  0  0
 18 19  1  0  0  0  0
 18 20  1  0  0  0  0
 20 21  1  0  0  0  0
 22 23  2  0  0  0  0
 22 24  1  0  0  0  0
 24 25  1  0  0  0  0
 24 26  1  0  0  0  0
 26 27  1  0  0  0  0
 26 28  1  0  0  0  0
 26 29  1  0  0  0  0
M  END
$$$$

  -OEChem-04042215593D

 29 29  0     1  0  0  0  0  0999 V2000
   -2.7350   -4.4267    1.2884 H   0  0  0  0  0  0  0  0  0  0  0  0
   -2.9011   -3.4329    0.8636 C   0  0  0  0  0  0  0  0  0  0  0  0
   -3.5027   -2.8472    1.5630 H   0  0  0  0  0  0  0  0  0  0  0  0
   -3.4473   -3.5378   -0.0769 H   0  0  0  0  0  0  0  0  0  0  0  0
   -1.5736   -2.7413    0.6170 C   0  0  0  0  0  0  0  0  0  0  0  0
   -0.5275   -3.3240    0.8567 O   0  0  0  0  0  0  0  0  0  0  0  0
   -1.5546   -1.4592    0.1117 N   0  0  0  0  0  0  0  0  0  0  0  0
   -2.4490   -0.9757    0.0394 H   0  0  0  0  0  0  0  0  0  0  0  0
   -0.3551   -0.6149    0.0323 C   0  0  1  0  0  0  0  0  0  0  0  0
    0.4176   -1.0175    0.6961 H   0  0  0  0  0  0  0  0  0  0  0  0
    0.1771   -0.6195   -1.4047 C   0  0  0  0  0  0  0  0  0  0  0  0
    0.1794   -1.6448   -1.7862 H   0  0  0  0  0  0  0  0  0  0  0  0
   -0.4688   -0.0203   -2.0535 H   0  0  0  0  0  0  0  0  0  0  0  0
    1.5769   -0.0809   -1.4437 C   0  0  0  0  0  0  0  0  0  0  0  0
    1.9093    1.2617   -1.3200 N   0  0  0  0  0  0  0  0  0  0  0  0
    3.2132    1.3366   -1.4422 C   0  0  0  0  0  0  0  0  0  0  0  0
    3.7890    2.2568   -1.3975 H   0  0  0  0  0  0  0  0  0  0  0  0
    3.7421    0.0739   -1.6314 N   0  0  0  0  0  0  0  0  0  0  0  0
    4.7301   -0.1374   -1.7602 H   0  0  0  0  0  0  0  0  0  0  0  0
    2.7020   -0.8313   -1.6381 C   0  0  0  0  0  0  0  0  0  0  0  0
    2.7456   -1.9087   -1.7725 H   0  0  0  0  0  0  0  0  0  0  0  0
   -0.6813    0.8138    0.5205 C   0  0  0  0  0  0  0  0  0  0  0  0
   -1.7978    1.2789    0.3062 O   0  0  0  0  0  0  0  0  0  0  0  0
    0.1771    1.4741    1.3798 N   0  0  0  0  0  0  0  0  0  0  0  0
    1.1392    1.1457    1.3730 H   0  0  0  0  0  0  0  0  0  0  0  0
   -0.0776    2.8303    1.8473 C   0  0  0  0  0  0  0  0  0  0  0  0
   -1.0356    2.8819    2.3753 H   0  0  0  0  0  0  0  0  0  0  0  0
    0.7113    3.1456    2.5367 H   0  0  0  0  0  0  0  0  0  0  0  0
   -0.1016    3.5268    1.0027 H   0  0  0  0  0  0  0  0  0  0  0  0
  1  2  1  0  0  0  0
  2  3  1  0  0  0  0
  2  4  1  0  0  0  0
  2  5  1  0  0  0  0
  5  6  2  0  0  0  0
  5  7  1  0  0  0  0
  7  8  1  0  0  0  0
  7  9  1  0  0  0  0
  9 10  1  0  0  0  0
  9 11  1  0  0  0  0
  9 22  1  0  0  0  0
 11 12  1  0  0  0  0
 11 13  1  0  0  0  0
 11 14  1  0  0  0  0
 14 15  1  0  0  0  0
 14 20  2  0  0  0  0
 15 16  2  0  0  0  0
 16 17  1  0  0  0  0
 16 18  1  0  0  0  0
 18 19  1  0  0  0  0
 18 20  1  0  0  0  0
 20 21  1  0  0  0  0
 22 23  2  0  0  0  0
 22 24  1  0  0  0  0
 24 25  1  0  0  0  0
 24 26  1  0  0  0  0
 26 27  1  0  0  0  0
 26 28  1  0  0  0  0
 26 29  1  0  0  0  0
M  END
$$$$

  -OEChem-04042215593D

 29 29  0     1  0  0  0  0  0999 V2000
   -2.7400   -4.4146    1.2946 H   0  0  0  0  0  0  0  0  0  0  0  0
   -2.9015   -3.4210    0.8673 C   0  0  0  0  0  0  0  0  0  0  0  0
   -3.4972   -2.8293    1.5666 H   0  0  0  0  0  0  0  0  0  0  0  0
   -3.4511   -3.5252   -0.0713 H   0  0  0  0  0  0  0  0  0  0  0  0
   -1.5708   -2.7379    0.6147 C   0  0  0  0  0  0  0  0  0  0  0  0
   -0.5275   -3.3280    0.8473 O   0  0  0  0  0  0  0  0  0  0  0  0
   -1.5475   -1.4553    0.1112 N   0  0  0  0  0  0  0  0  0  0  0  0
   -2.4396   -0.9657    0.0504 H   0  0  0  0  0  0  0  0  0  0  0  0
   -0.3449   -0.6142    0.0363 C   0  0  1  0  0  0  0  0  0  0  0  0
    0.4278   -1.0168    0.7004 H   0  0  0  0  0  0  0  0  0  0  0  0
    0.1864   -0.6198   -1.4027 C   0  0  0  0  0  0  0  0  0  0  0  0
    0.1743   -1.6432   -1.7897 H   0  0  0  0  0  0  0  0  0  0  0  0
   -0.4605   -0.0109   -2.0413 H   0  0  0  0  0  0  0  0  0  0  0  0
    1.5911   -0.0897   -1.4640 C   0  0  0  0  0  0  0  0  0  0  0  0
    1.9864    1.1822   -1.0664 N   0  0  0  0  0  0  0  0  0  0  0  0
    3.2748    1.2647   -1.2996 C   0  0  0  0  0  0  0  0  0  0  0  0
    3.8870    2.1400   -1.1019 H   0  0  0  0  0  0  0  0  0  0  0  0
    3.7349    0.0740   -1.8278 N   0  0  0  0  0  0  0  0  0  0  0  0
    4.6988   -0.1185   -2.0950 H   0  0  0  0  0  0  0  0  0  0  0  0
    2.6659   -0.7899   -1.9353 C   0  0  0  0  0  0  0  0  0  0  0  0
    2.6589   -1.8085   -2.3131 H   0  0  0  0  0  0  0  0  0  0  0  0
   -0.6837    0.8113    0.5288 C   0  0  0  0  0  0  0  0  0  0  0  0
   -1.8048    1.2665    0.3139 O   0  0  0  0  0  0  0  0  0  0  0  0
    0.1644    1.4750    1.3951 N   0  0  0  0  0  0  0  0  0  0  0  0
    1.1369    1.1799    1.3460 H   0  0  0  0  0  0  0  0  0  0  0  0
   -0.1105    2.8242    1.8714 C   0  0  0  0  0  0  0  0  0  0  0  0
   -1.0739    2.8601    2.3907 H   0  0  0  0  0  0  0  0  0  0  0  0
    0.6680    3.1423    2.5712 H   0  0  0  0  0  0  0  0  0  0  0  0
   -0.1348    3.5277    1.0327 H   0  0  0  0  0  0  0  0  0  0  0  0
  1  2  1  0  0  0  0
  2  3  1  0  0  0  0
  2  4  1  0  0  0  0
  2  5  1  0  0  0  0
  5  6  2  0  0  0  0
  5  7  1  0  0  0  0
  7  8  1  0  0  0  0
  7  9  1  0  0  0  0
  9 10  1  0  0  0  0
  9 11  1  0  0  0  0
  9 22  1  0  0  0  0
 11 12  1  0  0  0  0
 11 13  1  0  0  0  0
 11 14  1  0  0  0  0
 14 15  1  0  0  0  0
 14 20  2  0  0  0  0
 15 16  2  0  0  0  0
 16 17  1  0  0  0  0
 16 18  1  0  0  0  0
 18 19  1  0  0  0  0
 18 20  1  0  0  0  0
 20 21  1  0  0  0  0
 22 23  2  0  0  0  0
 22 24  1  0  0  0  0
 24 25  1  0  0  0  0
 24 26  1  0  0  0  0
 26 27  1  0  0  0  0
 26 28  1  0  0  0  0
 26 29  1  0  0  0  0
M  END
$$$$

  -OEChem-04042215593D

 29 29  0     1  0  0  0  0  0999 V2000
   -2.7383   -4.4095    1.2956 H   0  0  0  0  0  0  0  0  0  0  0  0
   -2.8990   -3.4160    0.8680 C   0  0  0  0  0  0  0  0  0  0  0  0
   -3.4920   -2.8229    1.5684 H   0  0  0  0  0  0  0  0  0  0  0  0
   -3.4505   -3.5196   -0.0695 H   0  0  0  0  0  0  0  0  0  0  0  0
   -1.5675   -2.7357    0.6124 C   0  0  0  0  0  0  0  0  0  0  0  0
   -0.5255   -3.3297    0.8397 O   0  0  0  0  0  0  0  0  0  0  0  0
   -1.5426   -1.4523    0.1110 N   0  0  0  0  0  0  0  0  0  0  0  0
   -2.4339   -0.9607    0.0557 H   0  0  0  0  0  0  0  0  0  0  0  0
   -0.3392   -0.6116    0.0396 C   0  0  1  0  0  0  0  0  0  0  0  0
    0.4341   -1.0142    0.7032 H   0  0  0  0  0  0  0  0  0  0  0  0
    0.1916   -0.6152   -1.4007 C   0  0  0  0  0  0  0  0  0  0  0  0
    0.1710   -1.6360   -1.7939 H   0  0  0  0  0  0  0  0  0  0  0  0
   -0.4589   -0.0003   -2.0297 H   0  0  0  0  0  0  0  0  0  0  0  0
    1.5988   -0.0892   -1.4828 C   0  0  0  0  0  0  0  0  0  0  0  0
    2.0821    1.0482   -0.8436 N   0  0  0  0  0  0  0  0  0  0  0  0
    3.3469    1.1569   -1.1758 C   0  0  0  0  0  0  0  0  0  0  0  0
    4.0110    1.9491   -0.8417 H   0  0  0  0  0  0  0  0  0  0  0  0
    3.7075    0.1144   -2.0067 N   0  0  0  0  0  0  0  0  0  0  0  0
    4.6356   -0.0311   -2.4003 H   0  0  0  0  0  0  0  0  0  0  0  0
    2.5992   -0.6817   -2.2017 C   0  0  0  0  0  0  0  0  0  0  0  0
    2.5191   -1.5880   -2.7951 H   0  0  0  0  0  0  0  0  0  0  0  0
   -0.6876    0.8112    0.5357 C   0  0  0  0  0  0  0  0  0  0  0  0
   -1.8100    1.2619    0.3166 O   0  0  0  0  0  0  0  0  0  0  0  0
    0.1530    1.4772    1.4069 N   0  0  0  0  0  0  0  0  0  0  0  0
    1.1312    1.2023    1.3316 H   0  0  0  0  0  0  0  0  0  0  0  0
   -0.1345    2.8214    1.8900 C   0  0  0  0  0  0  0  0  0  0  0  0
   -1.0980    2.8461    2.4100 H   0  0  0  0  0  0  0  0  0  0  0  0
    0.6415    3.1428    2.5911 H   0  0  0  0  0  0  0  0  0  0  0  0
   -0.1658    3.5293    1.0553 H   0  0  0  0  0  0  0  0  0  0  0  0
  1  2  1  0  0  0  0
  2  3  1  0  0  0  0
  2  4  1  0  0  0  0
  2  5  1  0  0  0  0
  5  6  2  0  0  0  0
  5  7  1  0  0  0  0
  7  8  1  0  0  0  0
  7  9  1  0  0  0  0
  9 10  1  0  0  0  0
  9 11  1  0  0  0  0
  9 22  1  0  0  0  0
 11 12  1  0  0  0  0
 11 13  1  0  0  0  0
 11 14  1  0  0  0  0
 14 15  1  0  0  0  0
 14 20  2  0  0  0  0
 15 16  2  0  0  0  0
 16 17  1  0  0  0  0
 16 18  1  0  0  0  0
 18 19  1  0  0  0  0
 18 20  1  0  0  0  0
 20 21  1  0  0  0  0
 22 23  2  0  0  0  0
 22 24  1  0  0  0  0
 24 25  1  0  0  0  0
 24 26  1  0  0  0  0
 26 27  1  0  0  0  0
 26 28  1  0  0  0  0
 26 29  1  0  0  0  0
M  END
$$$$

  -OEChem-04042215593D

 29 29  0     1  0  0  0  0  0999 V2000
   -2.7397   -4.4108    1.3025 H   0  0  0  0  0  0  0  0  0  0  0  0
   -2.8994   -3.4193    0.8695 C   0  0  0  0  0  0  0  0  0  0  0  0
   -3.4935   -2.8229    1.5663 H   0  0  0  0  0  0  0  0  0  0  0  0
   -3.4500   -3.5280   -0.0678 H   0  0  0  0  0  0  0  0  0  0  0  0
   -1.5675   -2.7401    0.6112 C   0  0  0  0  0  0  0  0  0  0  0  0
   -0.5262   -3.3362    0.8352 O   0  0  0  0  0  0  0  0  0  0  0  0
   -1.5427   -1.4558    0.1116 N   0  0  0  0  0  0  0  0  0  0  0  0
   -2.4343   -0.9649    0.0577 H   0  0  0  0  0  0  0  0  0  0  0  0
   -0.3400   -0.6134    0.0423 C   0  0  1  0  0  0  0  0  0  0  0  0
    0.4341   -1.0168    0.7046 H   0  0  0  0  0  0  0  0  0  0  0  0
    0.1908   -0.6100   -1.3987 C   0  0  0  0  0  0  0  0  0  0  0  0
    0.1710   -1.6294   -1.7958 H   0  0  0  0  0  0  0  0  0  0  0  0
   -0.4638    0.0058   -2.0224 H   0  0  0  0  0  0  0  0  0  0  0  0
    1.5982   -0.0827   -1.4918 C   0  0  0  0  0  0  0  0  0  0  0  0
    2.1797    0.8641   -0.6519 N   0  0  0  0  0  0  0  0  0  0  0  0
    3.4131    1.0282   -1.0688 C   0  0  0  0  0  0  0  0  0  0  0  0
    4.1345    1.7069   -0.6226 H   0  0  0  0  0  0  0  0  0  0  0  0
    3.6576    0.2089   -2.1532 N   0  0  0  0  0  0  0  0  0  0  0  0
    4.5422    0.1428   -2.6537 H   0  0  0  0  0  0  0  0  0  0  0  0
    2.5079   -0.5026   -2.4217 C   0  0  0  0  0  0  0  0  0  0  0  0
    2.3422   -1.2436   -3.1985 H   0  0  0  0  0  0  0  0  0  0  0  0
   -0.6898    0.8083    0.5394 C   0  0  0  0  0  0  0  0  0  0  0  0
   -1.8057    1.2666    0.3045 O   0  0  0  0  0  0  0  0  0  0  0  0
    0.1485    1.4746    1.4118 N   0  0  0  0  0  0  0  0  0  0  0  0
    1.1256    1.1896    1.3455 H   0  0  0  0  0  0  0  0  0  0  0  0
   -0.1335    2.8218    1.8896 C   0  0  0  0  0  0  0  0  0  0  0  0
   -1.1005    2.8534    2.4025 H   0  0  0  0  0  0  0  0  0  0  0  0
    0.6393    3.1402    2.5959 H   0  0  0  0  0  0  0  0  0  0  0  0
   -0.1546    3.5279    1.0528 H   0  0  0  0  0  0  0  0  0  0  0  0
  1  2  1  0  0  0  0
  2  3  1  0  0  0  0
  2  4  1  0  0  0  0
  2  5  1  0  0  0  0
  5  6  2  0  0  0  0
  5  7  1  0  0  0  0
  7  8  1  0  0  0  0
  7  9  1  0  0  0  0
  9 10  1  0  0  0  0
  9 11  1  0  0  0  0
  9 22  1  0  0  0  0
 11 12  1  0  0  0  0
 11 13  1  0  0  0  0
 11 14  1  0  0  0  0
 14 15  1  0  0  0  0
 14 20  2  0  0  0  0
 15 16  2  0  0  0  0
 16 17  1  0  0  0  0
 16 18  1  0  0  0  0
 18 19  1  0  0  0  0
 18 20  1  0  0  0  0
 20 21  1  0  0  0  0
 22 23  2  0  0  0  0
 22 24  1  0  0  0  0
 24 25  1  0  0  0  0
 24 26  1  0  0  0  0
 26 27  1  0  0  0  0
 26 28  1  0  0  0  0
 26 29  1  0  0  0  0
M  END
$$$$

  -OEChem-04042215593D

 29 29  0     1  0  0  0  0  0999 V2000
   -2.7418   -4.4222    1.3057 H   0  0  0  0  0  0  0  0  0  0  0  0
   -2.9045   -3.4308    0.8735 C   0  0  0  0  0  0  0  0  0  0  0  0
   -3.4971   -2.8354    1.5726 H   0  0  0  0  0  0  0  0  0  0  0  0
   -3.4581   -3.5404   -0.0621 H   0  0  0  0  0  0  0  0  0  0  0  0
   -1.5743   -2.7498    0.6113 C   0  0  0  0  0  0  0  0  0  0  0  0
   -0.5324   -3.3447    0.8346 O   0  0  0  0  0  0  0  0  0  0  0  0
   -1.5531   -1.4654    0.1112 N   0  0  0  0  0  0  0  0  0  0  0  0
   -2.4464   -0.9783    0.0557 H   0  0  0  0  0  0  0  0  0  0  0  0
   -0.3531   -0.6192    0.0392 C   0  0  1  0  0  0  0  0  0  0  0  0
    0.4190   -1.0246    0.7028 H   0  0  0  0  0  0  0  0  0  0  0  0
    0.1833   -0.6134   -1.3995 C   0  0  0  0  0  0  0  0  0  0  0  0
    0.1761   -1.6346   -1.7920 H   0  0  0  0  0  0  0  0  0  0  0  0
   -0.4740   -0.0065   -2.0292 H   0  0  0  0  0  0  0  0  0  0  0  0
    1.5885   -0.0788   -1.4891 C   0  0  0  0  0  0  0  0  0  0  0  0
    2.2637    0.6380   -0.5025 N   0  0  0  0  0  0  0  0  0  0  0  0
    3.4605    0.8913   -0.9775 C   0  0  0  0  0  0  0  0  0  0  0  0
    4.2355    1.4384   -0.4481 H   0  0  0  0  0  0  0  0  0  0  0  0
    3.5879    0.3592   -2.2456 N   0  0  0  0  0  0  0  0  0  0  0  0
    4.4238    0.4125   -2.8251 H   0  0  0  0  0  0  0  0  0  0  0  0
    2.4014   -0.2619   -2.5724 C   0  0  0  0  0  0  0  0  0  0  0  0
    2.1499   -0.7921   -3.4865 H   0  0  0  0  0  0  0  0  0  0  0  0
   -0.6913    0.8050    0.5334 C   0  0  0  0  0  0  0  0  0  0  0  0
   -1.7976    1.2792    0.2869 O   0  0  0  0  0  0  0  0  0  0  0  0
    0.1573    1.4656    1.3995 N   0  0  0  0  0  0  0  0  0  0  0  0
    1.1270    1.1497    1.3525 H   0  0  0  0  0  0  0  0  0  0  0  0
   -0.0972    2.8219    1.8656 C   0  0  0  0  0  0  0  0  0  0  0  0
   -1.0564    2.8745    2.3909 H   0  0  0  0  0  0  0  0  0  0  0  0
    0.6901    3.1356    2.5576 H   0  0  0  0  0  0  0  0  0  0  0  0
   -0.1181    3.5187    1.0213 H   0  0  0  0  0  0  0  0  0  0  0  0
  1  2  1  0  0  0  0
  2  3  1  0  0  0  0
  2  4  1  0  0  0  0
  2  5  1  0  0  0  0
  5  6  2  0  0  0  0
  5  7  1  0  0  0  0
  7  8  1  0  0  0  0
  7  9  1  0  0  0  0
  9 10  1  0  0  0  0
  9 11  1  0  0  0  0
  9 22  1  0  0  0  0
 11 12  1  0  0  0  0
 11 13  1  0  0  0  0
 11 14  1  0  0  0  0
 14 15  1  0  0  0  0
 14 20  2  0  0  0  0
 15 16  2  0  0  0  0
 16 17  1  0  0  0  0
 16 18  1  0  0  0  0
 18 19  1  0  0  0  0
 18 20  1  0  0  0  0
 20 21  1  0  0  0  0
 22 23  2  0  0  0  0
 22 24  1  0  0  0  0
 24 25  1  0  0  0  0
 24 26  1  0  0  0  0
 26 27  1  0  0  0  0
 26 28  1  0  0  0  0
 26 29  1  0  0  0  0
M  END
$$$$

  -OEChem-04042215593D

 29 29  0     1  0  0  0  0  0999 V2000
   -2.7504   -4.4477    1.2872 H   0  0  0  0  0  0  0  0  0  0  0  0
   -2.9146   -3.4505    0.8697 C   0  0  0  0  0  0  0  0  0  0  0  0
   -3.5148   -2.8691    1.5736 H   0  0  0  0  0  0  0  0  0  0  0  0
   -3.4608   -3.5482   -0.0714 H   0  0  0  0  0  0  0  0  0  0  0  0
   -1.5858   -2.7594    0.6278 C   0  0  0  0  0  0  0  0  0  0  0  0
   -0.5439   -3.3454    0.8729 O   0  0  0  0  0  0  0  0  0  0  0  0
   -1.5677   -1.4776    0.1202 N   0  0  0  0  0  0  0  0  0  0  0  0
   -2.4643   -1.0003    0.0428 H   0  0  0  0  0  0  0  0  0  0  0  0
   -0.3720   -0.6260    0.0373 C   0  0  1  0  0  0  0  0  0  0  0  0
    0.3958   -1.0305    0.7061 H   0  0  0  0  0  0  0  0  0  0  0  0
    0.1726   -0.6310   -1.3977 C   0  0  0  0  0  0  0  0  0  0  0  0
    0.1871   -1.6602   -1.7681 H   0  0  0  0  0  0  0  0  0  0  0  0
   -0.4880   -0.0488   -2.0471 H   0  0  0  0  0  0  0  0  0  0  0  0
    1.5740   -0.0850   -1.4820 C   0  0  0  0  0  0  0  0  0  0  0  0
    2.3405    0.3858   -0.4163 N   0  0  0  0  0  0  0  0  0  0  0  0
    3.4926    0.7584   -0.9223 C   0  0  0  0  0  0  0  0  0  0  0  0
    4.3187    1.1696   -0.3491 H   0  0  0  0  0  0  0  0  0  0  0  0
    3.4981    0.5523   -2.2881 N   0  0  0  0  0  0  0  0  0  0  0  0
    4.2782    0.7558   -2.9106 H   0  0  0  0  0  0  0  0  0  0  0  0
    2.2798    0.0167   -2.6476 C   0  0  0  0  0  0  0  0  0  0  0  0
    1.9384   -0.2731   -3.6372 H   0  0  0  0  0  0  0  0  0  0  0  0
   -0.6863    0.8056    0.5178 C   0  0  0  0  0  0  0  0  0  0  0  0
   -1.7797    1.3022    0.2610 O   0  0  0  0  0  0  0  0  0  0  0  0
    0.1835    1.4585    1.3682 N   0  0  0  0  0  0  0  0  0  0  0  0
    1.1394    1.0993    1.3520 H   0  0  0  0  0  0  0  0  0  0  0  0
   -0.0349    2.8227    1.8287 C   0  0  0  0  0  0  0  0  0  0  0  0
   -0.9907    2.9012    2.3572 H   0  0  0  0  0  0  0  0  0  0  0  0
    0.7628    3.1194    2.5163 H   0  0  0  0  0  0  0  0  0  0  0  0
   -0.0416    3.5165    0.9817 H   0  0  0  0  0  0  0  0  0  0  0  0
  1  2  1  0  0  0  0
  2  3  1  0  0  0  0
  2  4  1  0  0  0  0
  2  5  1  0  0  0  0
  5  6  2  0  0  0  0
  5  7  1  0  0  0  0
  7  8  1  0  0  0  0
  7  9  1  0  0  0  0
  9 10  1  0  0  0  0
  9 11  1  0  0  0  0
  9 22  1  0  0  0  0
 11 12  1  0  0  0  0
 11 13  1  0  0  0  0
 11 14  1  0  0  0  0
 14 15  1  0  0  0  0
 14 20  2  0  0  0  0
 15 16  2  0  0  0  0
 16 17  1  0  0  0  0
 16 18  1  0  0  0  0
 18 19  1  0  0  0  0
 18 20  1  0  0  0  0
 20 21  1  0  0  0  0
 22 23  2  0  0  0  0
 22 24  1  0  0  0  0
 24 25  1  0  0  0  0
 24 26  1  0  0  0  0
 26 27  1  0  0  0  0
 26 28  1  0  0  0  0
 26 29  1  0  0  0  0
M  END
$$$$

  -OEChem-04042215593D

 29 29  0     1  0  0  0  0  0999 V2000
   -2.7513   -4.4652    1.2947 H   0  0  0  0  0  0  0  0  0  0  0  0
   -2.9194   -3.4713    0.8705 C   0  0  0  0  0  0  0  0  0  0  0  0
   -3.5301   -2.8903    1.5658 H   0  0  0  0  0  0  0  0  0  0  0  0
   -3.4566   -3.5775   -0.0750 H   0  0  0  0  0  0  0  0  0  0  0  0
   -1.5936   -2.7719    0.6367 C   0  0  0  0  0  0  0  0  0  0  0  0
   -0.5500   -3.3501    0.8917 O   0  0  0  0  0  0  0  0  0  0  0  0
   -1.5827   -1.4913    0.1256 N   0  0  0  0  0  0  0  0  0  0  0  0
   -2.4835   -1.0253    0.0343 H   0  0  0  0  0  0  0  0  0  0  0  0
   -0.3933   -0.6324    0.0279 C   0  0  1  0  0  0  0  0  0  0  0  0
    0.3732   -1.0376    0.6980 H   0  0  0  0  0  0  0  0  0  0  0  0
    0.1545   -0.6484   -1.4050 C   0  0  0  0  0  0  0  0  0  0  0  0
    0.1918   -1.6848   -1.7533 H   0  0  0  0  0  0  0  0  0  0  0  0
   -0.5119   -0.0914   -2.0704 H   0  0  0  0  0  0  0  0  0  0  0  0
    1.5498   -0.0871   -1.4813 C   0  0  0  0  0  0  0  0  0  0  0  0
    2.4062    0.1279   -0.4023 N   0  0  0  0  0  0  0  0  0  0  0  0
    3.5121    0.6305   -0.8987 C   0  0  0  0  0  0  0  0  0  0  0  0
    4.3862    0.9043   -0.3147 H   0  0  0  0  0  0  0  0  0  0  0  0
    3.3973    0.7643   -2.2690 N   0  0  0  0  0  0  0  0  0  0  0  0
    4.1200    1.1291   -2.8871 H   0  0  0  0  0  0  0  0  0  0  0  0
    2.1490    0.3134   -2.6423 C   0  0  0  0  0  0  0  0  0  0  0  0
    1.7189    0.2735   -3.6388 H   0  0  0  0  0  0  0  0  0  0  0  0
   -0.6799    0.8051    0.4995 C   0  0  0  0  0  0  0  0  0  0  0  0
   -1.7592    1.3273    0.2363 O   0  0  0  0  0  0  0  0  0  0  0  0
    0.2169    1.4466    1.3304 N   0  0  0  0  0  0  0  0  0  0  0  0
    1.1543    1.0422    1.3464 H   0  0  0  0  0  0  0  0  0  0  0  0
    0.0410    2.8197    1.7822 C   0  0  0  0  0  0  0  0  0  0  0  0
   -0.9196    2.9348    2.2951 H   0  0  0  0  0  0  0  0  0  0  0  0
    0.8379    3.0900    2.4814 H   0  0  0  0  0  0  0  0  0  0  0  0
    0.0728    3.5093    0.9325 H   0  0  0  0  0  0  0  0  0  0  0  0
  1  2  1  0  0  0  0
  2  3  1  0  0  0  0
  2  4  1  0  0  0  0
  2  5  1  0  0  0  0
  5  6  2  0  0  0  0
  5  7  1  0  0  0  0
  7  8  1  0  0  0  0
  7  9  1  0  0  0  0
  9 10  1  0  0  0  0
  9 11  1  0  0  0  0
  9 22  1  0  0  0  0
 11 12  1  0  0  0  0
 11 13  1  0  0  0  0
 11 14  1  0  0  0  0
 14 15  1  0  0  0  0
 14 20  2  0  0  0  0
 15 16  2  0  0  0  0
 16 17  1  0  0  0  0
 16 18  1  0  0  0  0
 18 19  1  0  0  0  0
 18 20  1  0  0  0  0
 20 21  1  0  0  0  0
 22 23  2  0  0  0  0
 22 24  1  0  0  0  0
 24 25  1  0  0  0  0
 24 26  1  0  0  0  0
 26 27  1  0  0  0  0
 26 28  1  0  0  0  0
 26 29  1  0  0  0  0
M  END
$$$$

  -OEChem-04042215593D

 29 29  0     1  0  0  0  0  0999 V2000
   -2.7403   -4.4808    1.2923 H   0  0  0  0  0  0  0  0  0  0  0  0
   -2.9141   -3.4883    0.8673 C   0  0  0  0  0  0  0  0  0  0  0  0
   -3.5338   -2.9129    1.5594 H   0  0  0  0  0  0  0  0  0  0  0  0
   -3.4452   -3.5994   -0.0811 H   0  0  0  0  0  0  0  0  0  0  0  0
   -1.5925   -2.7777    0.6412 C   0  0  0  0  0  0  0  0  0  0  0  0
   -0.5468   -3.3461    0.9082 O   0  0  0  0  0  0  0  0  0  0  0  0
   -1.5895   -1.4973    0.1286 N   0  0  0  0  0  0  0  0  0  0  0  0
   -2.4940   -1.0425    0.0221 H   0  0  0  0  0  0  0  0  0  0  0  0
   -0.4057   -0.6322    0.0173 C   0  0  1  0  0  0  0  0  0  0  0  0
    0.3647   -1.0360    0.6836 H   0  0  0  0  0  0  0  0  0  0  0  0
    0.1352   -0.6542   -1.4175 C   0  0  0  0  0  0  0  0  0  0  0  0
    0.1836   -1.6927   -1.7578 H   0  0  0  0  0  0  0  0  0  0  0  0
   -0.5376   -0.1096   -2.0865 H   0  0  0  0  0  0  0  0  0  0  0  0
    1.5249   -0.0807   -1.4885 C   0  0  0  0  0  0  0  0  0  0  0  0
    2.4737   -0.1241   -0.4703 N   0  0  0  0  0  0  0  0  0  0  0  0
    3.5394    0.4905   -0.9260 C   0  0  0  0  0  0  0  0  0  0  0  0
    4.4647    0.6221   -0.3723 H   0  0  0  0  0  0  0  0  0  0  0  0
    3.3067    0.9506   -2.2078 N   0  0  0  0  0  0  0  0  0  0  0  0
    3.9770    1.4603   -2.7807 H   0  0  0  0  0  0  0  0  0  0  0  0
    2.0247    0.5928   -2.5672 C   0  0  0  0  0  0  0  0  0  0  0  0
    1.5079    0.7913   -3.5016 H   0  0  0  0  0  0  0  0  0  0  0  0
   -0.6736    0.8087    0.4845 C   0  0  0  0  0  0  0  0  0  0  0  0
   -1.7404    1.3503    0.2126 O   0  0  0  0  0  0  0  0  0  0  0  0
    0.2419    1.4449    1.2995 N   0  0  0  0  0  0  0  0  0  0  0  0
    1.1596    1.0037    1.3618 H   0  0  0  0  0  0  0  0  0  0  0  0
    0.0899    2.8213    1.7499 C   0  0  0  0  0  0  0  0  0  0  0  0
   -0.8566    2.9473    2.2860 H   0  0  0  0  0  0  0  0  0  0  0  0
    0.9064    3.0880    2.4278 H   0  0  0  0  0  0  0  0  0  0  0  0
    0.1067    3.5071    0.8967 H   0  0  0  0  0  0  0  0  0  0  0  0
  1  2  1  0  0  0  0
  2  3  1  0  0  0  0
  2  4  1  0  0  0  0
  2  5  1  0  0  0  0
  5  6  2  0  0  0  0
  5  7  1  0  0  0  0
  7  8  1  0  0  0  0
  7  9  1  0  0  0  0
  9 10  1  0  0  0  0
  9 11  1  0  0  0  0
  9 22  1  0  0  0  0
 11 12  1  0  0  0  0
 11 13  1  0  0  0  0
 11 14  1  0  0  0  0
 14 15  1  0  0  0  0
 14 20  2  0  0  0  0
 15 16  2  0  0  0  0
 16 17  1  0  0  0  0
 16 18  1  0  0  0  0
 18 19  1  0  0  0  0
 18 20  1  0  0  0  0
 20 21  1  0  0  0  0
 22 23  2  0  0  0  0
 22 24  1  0  0  0  0
 24 25  1  0  0  0  0
 24 26  1  0  0  0  0
 26 27  1  0  0  0  0
 26 28  1  0  0  0  0
 26 29  1  0  0  0  0
M  END
$$$$

  -OEChem-04042215593D

 29 29  0     1  0  0  0  0  0999 V2000
   -2.7222   -4.4855    1.2853 H   0  0  0  0  0  0  0  0  0  0  0  0
   -2.8987   -3.4957    0.8552 C   0  0  0  0  0  0  0  0  0  0  0  0
   -3.5350   -2.9249    1.5358 H   0  0  0  0  0  0  0  0  0  0  0  0
   -3.4125   -3.6139   -0.1017 H   0  0  0  0  0  0  0  0  0  0  0  0
   -1.5805   -2.7732    0.6496 C   0  0  0  0  0  0  0  0  0  0  0  0
   -0.5348   -3.3288    0.9411 O   0  0  0  0  0  0  0  0  0  0  0  0
   -1.5808   -1.4936    0.1351 N   0  0  0  0  0  0  0  0  0  0  0  0
   -2.4871   -1.0488    0.0051 H   0  0  0  0  0  0  0  0  0  0  0  0
   -0.3996   -0.6259    0.0172 C   0  0  1  0  0  0  0  0  0  0  0  0
    0.3816   -1.0267    0.6726 H   0  0  0  0  0  0  0  0  0  0  0  0
    0.1197   -0.6451   -1.4257 C   0  0  0  0  0  0  0  0  0  0  0  0
    0.1650   -1.6812   -1.7741 H   0  0  0  0  0  0  0  0  0  0  0  0
   -0.5620   -0.0963   -2.0823 H   0  0  0  0  0  0  0  0  0  0  0  0
    1.5062   -0.0695   -1.5025 C   0  0  0  0  0  0  0  0  0  0  0  0
    2.5465   -0.3644   -0.6289 N   0  0  0  0  0  0  0  0  0  0  0  0
    3.5822    0.3328   -1.0306 C   0  0  0  0  0  0  0  0  0  0  0  0
    4.5608    0.3195   -0.5592 H   0  0  0  0  0  0  0  0  0  0  0  0
    3.2408    1.0896   -2.1352 N   0  0  0  0  0  0  0  0  0  0  0  0
    3.8694    1.7139   -2.6376 H   0  0  0  0  0  0  0  0  0  0  0  0
    1.9193    0.8375   -2.4376 C   0  0  0  0  0  0  0  0  0  0  0  0
    1.3210    1.2565   -3.2416 H   0  0  0  0  0  0  0  0  0  0  0  0
   -0.6687    0.8149    0.4834 C   0  0  0  0  0  0  0  0  0  0  0  0
   -1.7256    1.3643    0.1907 O   0  0  0  0  0  0  0  0  0  0  0  0
    0.2465    1.4578    1.2943 N   0  0  0  0  0  0  0  0  0  0  0  0
    1.1427    0.9909    1.4252 H   0  0  0  0  0  0  0  0  0  0  0  0
    0.0902    2.8322    1.7497 C   0  0  0  0  0  0  0  0  0  0  0  0
   -0.8529    2.9515    2.2933 H   0  0  0  0  0  0  0  0  0  0  0  0
    0.9104    3.1024    2.4215 H   0  0  0  0  0  0  0  0  0  0  0  0
    0.0968    3.5198    0.8977 H   0  0  0  0  0  0  0  0  0  0  0  0
  1  2  1  0  0  0  0
  2  3  1  0  0  0  0
  2  4  1  0  0  0  0
  2  5  1  0  0  0  0
  5  6  2  0  0  0  0
  5  7  1  0  0  0  0
  7  8  1  0  0  0  0
  7  9  1  0  0  0  0
  9 10  1  0  0  0  0
  9 11  1  0  0  0  0
  9 22  1  0  0  0  0
 11 12  1  0  0  0  0
 11 13  1  0  0  0  0
 11 14  1  0  0  0  0
 14 15  1  0  0  0  0
 14 20  2  0  0  0  0
 15 16  2  0  0  0  0
 16 17  1  0  0  0  0
 16 18  1  0  0  0  0
 18 19  1  0  0  0  0
 18 20  1  0  0  0  0
 20 21  1  0  0  0  0
 22 23  2  0  0  0  0
 22 24  1  0  0  0  0
 24 25  1  0  0  0  0
 24 26  1  0  0  0  0
 26 27  1  0  0  0  0
 26 28  1  0  0  0  0
 26 29  1  0  0  0  0
M  END
$$$$

  -OEChem-04042215593D

 29 29  0     1  0  0  0  0  0999 V2000
   -2.7017   -4.4920    1.2628 H   0  0  0  0  0  0  0  0  0  0  0  0
   -2.8807   -3.5012    0.8359 C   0  0  0  0  0  0  0  0  0  0  0  0
   -3.5377   -2.9424    1.5068 H   0  0  0  0  0  0  0  0  0  0  0  0
   -3.3732   -3.6189   -0.1323 H   0  0  0  0  0  0  0  0  0  0  0  0
   -1.5670   -2.7621    0.6627 C   0  0  0  0  0  0  0  0  0  0  0  0
   -0.5233   -3.3010    0.9902 O   0  0  0  0  0  0  0  0  0  0  0  0
   -1.5692   -1.4834    0.1456 N   0  0  0  0  0  0  0  0  0  0  0  0
   -2.4759   -1.0509   -0.0175 H   0  0  0  0  0  0  0  0  0  0  0  0
   -0.3892   -0.6146    0.0235 C   0  0  1  0  0  0  0  0  0  0  0  0
    0.4044   -1.0115    0.6669 H   0  0  0  0  0  0  0  0  0  0  0  0
    0.1082   -0.6309   -1.4268 C   0  0  0  0  0  0  0  0  0  0  0  0
    0.1455   -1.6630   -1.7873 H   0  0  0  0  0  0  0  0  0  0  0  0
   -0.5798   -0.0731   -2.0691 H   0  0  0  0  0  0  0  0  0  0  0  0
    1.4926   -0.0568   -1.5111 C   0  0  0  0  0  0  0  0  0  0  0  0
    2.6024   -0.5655   -0.8502 N   0  0  0  0  0  0  0  0  0  0  0  0
    3.6185    0.1917   -1.1874 C   0  0  0  0  0  0  0  0  0  0  0  0
    4.6382    0.0528   -0.8397 H   0  0  0  0  0  0  0  0  0  0  0  0
    3.1973    1.1911   -2.0443 N   0  0  0  0  0  0  0  0  0  0  0  0
    3.7966    1.9049   -2.4550 H   0  0  0  0  0  0  0  0  0  0  0  0
    1.8435    1.0349   -2.2545 C   0  0  0  0  0  0  0  0  0  0  0  0
    1.1835    1.6360   -2.8736 H   0  0  0  0  0  0  0  0  0  0  0  0
   -0.6660    0.8256    0.4894 C   0  0  0  0  0  0  0  0  0  0  0  0
   -1.7147    1.3789    0.1757 O   0  0  0  0  0  0  0  0  0  0  0  0
    0.2438    1.4772    1.3000 N   0  0  0  0  0  0  0  0  0  0  0  0
    1.1207    0.9955    1.4881 H   0  0  0  0  0  0  0  0  0  0  0  0
    0.0707    2.8455    1.7684 C   0  0  0  0  0  0  0  0  0  0  0  0
   -0.8689    2.9458    2.3217 H   0  0  0  0  0  0  0  0  0  0  0  0
    0.8935    3.1228    2.4343 H   0  0  0  0  0  0  0  0  0  0  0  0
    0.0583    3.5407    0.9227 H   0  0  0  0  0  0  0  0  0  0  0  0
  1  2  1  0  0  0  0
  2  3  1  0  0  0  0
  2  4  1  0  0  0  0
  2  5  1  0  0  0  0
  5  6  2  0  0  0  0
  5  7  1  0  0  0  0
  7  8  1  0  0  0  0
  7  9  1  0  0  0  0
  9 10  1  0  0  0  0
  9 11  1  0  0  0  0
  9 22  1  0  0  0  0
 11 12  1  0  0  0  0
 11 13  1  0  0  0  0
 11 14  1  0  0  0  0
 14 15  1  0  0  0  0
 14 20  2  0  0  0  0
 15 16  2  0  0  0  0
 16 17  1  0  0  0  0
 16 18  1  0  0  0  0
 18 19  1  0  0  0  0
 18 20  1  0  0  0  0
 20 21  1  0  0  0  0
 22 23  2  0  0  0  0
 22 24  1  0  0  0  0
 24 25  1  0  0  0  0
 24 26  1  0  0  0  0
 26 27  1  0  0  0  0
 26 28  1  0  0  0  0
 26 29  1  0  0  0  0
M  END
$$$$

  -OEChem-04042215593D

 29 29  0     1  0  0  0  0  0999 V2000
   -2.6911   -4.4975    1.2424 H   0  0  0  0  0  0  0  0  0  0  0  0
   -2.8700   -3.5063    0.8163 C   0  0  0  0  0  0  0  0  0  0  0  0
   -3.5457   -2.9564    1.4756 H   0  0  0  0  0  0  0  0  0  0  0  0
   -3.3413   -3.6241   -0.1623 H   0  0  0  0  0  0  0  0  0  0  0  0
   -1.5597   -2.7548    0.6731 C   0  0  0  0  0  0  0  0  0  0  0  0
   -0.5193   -3.2801    1.0319 O   0  0  0  0  0  0  0  0  0  0  0  0
   -1.5615   -1.4760    0.1559 N   0  0  0  0  0  0  0  0  0  0  0  0
   -2.4669   -1.0538   -0.0385 H   0  0  0  0  0  0  0  0  0  0  0  0
   -0.3816   -0.6072    0.0354 C   0  0  1  0  0  0  0  0  0  0  0  0
    0.4187   -1.0037    0.6708 H   0  0  0  0  0  0  0  0  0  0  0  0
    0.1033   -0.6174   -1.4197 C   0  0  0  0  0  0  0  0  0  0  0  0
    0.1313   -1.6446   -1.7951 H   0  0  0  0  0  0  0  0  0  0  0  0
   -0.5862   -0.0473   -2.0496 H   0  0  0  0  0  0  0  0  0  0  0  0
    1.4873   -0.0455   -1.5075 C   0  0  0  0  0  0  0  0  0  0  0  0
    2.6400   -0.7076   -1.1110 N   0  0  0  0  0  0  0  0  0  0  0  0
    3.6422    0.0962   -1.3734 C   0  0  0  0  0  0  0  0  0  0  0  0
    4.6868   -0.1317   -1.1814 H   0  0  0  0  0  0  0  0  0  0  0  0
    3.1705    1.2717   -1.9275 N   0  0  0  0  0  0  0  0  0  0  0  0
    3.7493    2.0528   -2.2310 H   0  0  0  0  0  0  0  0  0  0  0  0
    1.7977    1.1826   -2.0208 C   0  0  0  0  0  0  0  0  0  0  0  0
    1.0984    1.9146   -2.4156 H   0  0  0  0  0  0  0  0  0  0  0  0
   -0.6660    0.8317    0.5030 C   0  0  0  0  0  0  0  0  0  0  0  0
   -1.7053    1.3898    0.1679 O   0  0  0  0  0  0  0  0  0  0  0  0
    0.2368    1.4890    1.3173 N   0  0  0  0  0  0  0  0  0  0  0  0
    1.0973    0.9973    1.5483 H   0  0  0  0  0  0  0  0  0  0  0  0
    0.0536    2.8565    1.7847 C   0  0  0  0  0  0  0  0  0  0  0  0
   -0.8842    2.9494    2.3422 H   0  0  0  0  0  0  0  0  0  0  0  0
    0.8772    3.1426    2.4459 H   0  0  0  0  0  0  0  0  0  0  0  0
    0.0314    3.5502    0.9379 H   0  0  0  0  0  0  0  0  0  0  0  0
  1  2  1  0  0  0  0
  2  3  1  0  0  0  0
  2  4  1  0  0  0  0
  2  5  1  0  0  0  0
  5  6  2  0  0  0  0
  5  7  1  0  0  0  0
  7  8  1  0  0  0  0
  7  9  1  0  0  0  0
  9 10  1  0  0  0  0
  9 11  1  0  0  0  0
  9 22  1  0  0  0  0
 11 12  1  0  0  0  0
 11 13  1  0  0  0  0
 11 14  1  0  0  0  0
 14 15  1  0  0  0  0
 14 20  2  0  0  0  0
 15 16  2  0  0  0  0
 16 17  1  0  0  0  0
 16 18  1  0  0  0  0
 18 19  1  0  0  0  0
 18 20  1  0  0  0  0
 20 21  1  0  0  0  0
 22 23  2  0  0  0  0
 22 24  1  0  0  0  0
 24 25  1  0  0  0  0
 24 26  1  0  0  0  0
 26 27  1  0  0  0  0
 26 28  1  0  0  0  0
 26 29  1  0  0  0  0
M  END
$$$$

  -OEChem-04042215593D

 29 29  0     1  0  0  0  0  0999 V2000
   -2.6861   -4.5002    1.2153 H   0  0  0  0  0  0  0  0  0  0  0  0
   -2.8645   -3.5073    0.7928 C   0  0  0  0  0  0  0  0  0  0  0  0
   -3.5599   -2.9683    1.4408 H   0  0  0  0  0  0  0  0  0  0  0  0
   -3.3128   -3.6222   -0.1970 H   0  0  0  0  0  0  0  0  0  0  0  0
   -1.5579   -2.7433    0.6847 C   0  0  0  0  0  0  0  0  0  0  0  0
   -0.5222   -3.2578    1.0722 O   0  0  0  0  0  0  0  0  0  0  0  0
   -1.5564   -1.4647    0.1669 N   0  0  0  0  0  0  0  0  0  0  0  0
   -2.4585   -1.0517   -0.0596 H   0  0  0  0  0  0  0  0  0  0  0  0
   -0.3754   -0.5965    0.0537 C   0  0  1  0  0  0  0  0  0  0  0  0
    0.4242   -0.9917    0.6902 H   0  0  0  0  0  0  0  0  0  0  0  0
    0.1097   -0.6089   -1.4024 C   0  0  0  0  0  0  0  0  0  0  0  0
    0.1303   -1.6353   -1.7813 H   0  0  0  0  0  0  0  0  0  0  0  0
   -0.5776   -0.0331   -2.0298 H   0  0  0  0  0  0  0  0  0  0  0  0
    1.4950   -0.0418   -1.5001 C   0  0  0  0  0  0  0  0  0  0  0  0
    2.6583   -0.7895   -1.3944 N   0  0  0  0  0  0  0  0  0  0  0  0
    3.6553    0.0407   -1.5840 C   0  0  0  0  0  0  0  0  0  0  0  0
    4.7056   -0.2364   -1.5663 H   0  0  0  0  0  0  0  0  0  0  0  0
    3.1704    1.3154   -1.8113 N   0  0  0  0  0  0  0  0  0  0  0  0
    3.7417    2.1360   -2.0048 H   0  0  0  0  0  0  0  0  0  0  0  0
    1.7931    1.2649   -1.7697 C   0  0  0  0  0  0  0  0  0  0  0  0
    1.0819    2.0726   -1.9220 H   0  0  0  0  0  0  0  0  0  0  0  0
   -0.6697    0.8411    0.5211 C   0  0  0  0  0  0  0  0  0  0  0  0
   -1.7012    1.4011    0.1660 O   0  0  0  0  0  0  0  0  0  0  0  0
    0.2229    1.5029    1.3435 N   0  0  0  0  0  0  0  0  0  0  0  0
    1.0705    1.0060    1.6073 H   0  0  0  0  0  0  0  0  0  0  0  0
    0.0241    2.8662    1.8174 C   0  0  0  0  0  0  0  0  0  0  0  0
   -0.9045    2.9408    2.3931 H   0  0  0  0  0  0  0  0  0  0  0  0
    0.8551    3.1658    2.4632 H   0  0  0  0  0  0  0  0  0  0  0  0
   -0.0262    3.5615    0.9729 H   0  0  0  0  0  0  0  0  0  0  0  0
  1  2  1  0  0  0  0
  2  3  1  0  0  0  0
  2  4  1  0  0  0  0
  2  5  1  0  0  0  0
  5  6  2  0  0  0  0
  5  7  1  0  0  0  0
  7  8  1  0  0  0  0
  7  9  1  0  0  0  0
  9 10  1  0  0  0  0
  9 11  1  0  0  0  0
  9 22  1  0  0  0  0
 11 12  1  0  0  0  0
 11 13  1  0  0  0  0
 11 14  1  0  0  0  0
 14 15  1  0  0  0  0
 14 20  2  0  0  0  0
 15 16  2  0  0  0  0
 16 17  1  0  0  0  0
 16 18  1  0  0  0  0
 18 19  1  0  0  0  0
 18 20  1  0  0  0  0
 20 21  1  0  0  0  0
 22 23  2  0  0  0  0
 22 24  1  0  0  0  0
 24 25  1  0  0  0  0
 24 26  1  0  0  0  0
 26 27  1  0  0  0  0
 26 28  1  0  0  0  0
 26 29  1  0  0  0  0
M  END
$$$$

  -OEChem-04042215593D

 29 29  0     1  0  0  0  0  0999 V2000
   -2.6800   -4.4989    1.1811 H   0  0  0  0  0  0  0  0  0  0  0  0
   -2.8571   -3.5028    0.7659 C   0  0  0  0  0  0  0  0  0  0  0  0
   -3.5728   -2.9776    1.4027 H   0  0  0  0  0  0  0  0  0  0  0  0
   -3.2800   -3.6102   -0.2358 H   0  0  0  0  0  0  0  0  0  0  0  0
   -1.5550   -2.7268    0.6987 C   0  0  0  0  0  0  0  0  0  0  0  0
   -0.5266   -3.2304    1.1188 O   0  0  0  0  0  0  0  0  0  0  0  0
   -1.5476   -1.4483    0.1810 N   0  0  0  0  0  0  0  0  0  0  0  0
   -2.4447   -1.0415   -0.0753 H   0  0  0  0  0  0  0  0  0  0  0  0
   -0.3642   -0.5821    0.0802 C   0  0  1  0  0  0  0  0  0  0  0  0
    0.4328   -0.9749    0.7213 H   0  0  0  0  0  0  0  0  0  0  0  0
    0.1248   -0.6022   -1.3767 C   0  0  0  0  0  0  0  0  0  0  0  0
    0.1361   -1.6310   -1.7497 H   0  0  0  0  0  0  0  0  0  0  0  0
   -0.5601   -0.0268   -2.0068 H   0  0  0  0  0  0  0  0  0  0  0  0
    1.5132   -0.0450   -1.4971 C   0  0  0  0  0  0  0  0  0  0  0  0
    2.6470   -0.8191   -1.6955 N   0  0  0  0  0  0  0  0  0  0  0  0
    3.6533    0.0123   -1.8189 C   0  0  0  0  0  0  0  0  0  0  0  0
    4.6857   -0.2828   -1.9839 H   0  0  0  0  0  0  0  0  0  0  0  0
    3.2031    1.3150   -1.7142 N   0  0  0  0  0  0  0  0  0  0  0  0
    3.7846    2.1463   -1.8037 H   0  0  0  0  0  0  0  0  0  0  0  0
    1.8376    1.2836   -1.5252 C   0  0  0  0  0  0  0  0  0  0  0  0
    1.1499    2.1204   -1.4329 H   0  0  0  0  0  0  0  0  0  0  0  0
   -0.6751    0.8524    0.5478 C   0  0  0  0  0  0  0  0  0  0  0  0
   -1.7003    1.4097    0.1718 O   0  0  0  0  0  0  0  0  0  0  0  0
    0.1995    1.5216    1.3839 N   0  0  0  0  0  0  0  0  0  0  0  0
    1.0318    1.0214    1.6870 H   0  0  0  0  0  0  0  0  0  0  0  0
   -0.0302    2.8749    1.8728 C   0  0  0  0  0  0  0  0  0  0  0  0
   -0.9691    2.9257    2.4341 H   0  0  0  0  0  0  0  0  0  0  0  0
    0.7851    3.1801    2.5355 H   0  0  0  0  0  0  0  0  0  0  0  0
   -0.0794    3.5807    1.0371 H   0  0  0  0  0  0  0  0  0  0  0  0
  1  2  1  0  0  0  0
  2  3  1  0  0  0  0
  2  4  1  0  0  0  0
  2  5  1  0  0  0  0
  5  6  2  0  0  0  0
  5  7  1  0  0  0  0
  7  8  1  0  0  0  0
  7  9  1  0  0  0  0
  9 10  1  0  0  0  0
  9 11  1  0  0  0  0
  9 22  1  0  0  0  0
 11 12  1  0  0  0  0
 11 13  1  0  0  0  0
 11 14  1  0  0  0  0
 14 15  1  0  0  0  0
 14 20  2  0  0  0  0
 15 16  2  0  0  0  0
 16 17  1  0  0  0  0
 16 18  1  0  0  0  0
 18 19  1  0  0  0  0
 18 20  1  0  0  0  0
 20 21  1  0  0  0  0
 22 23  2  0  0  0  0
 22 24  1  0  0  0  0
 24 25  1  0  0  0  0
 24 26  1  0  0  0  0
 26 27  1  0  0  0  0
 26 28  1  0  0  0  0
 26 29  1  0  0  0  0
M  END
$$$$

  -OEChem-04042215593D

 29 29  0     1  0  0  0  0  0999 V2000
   -2.6909   -4.4720    1.1830 H   0  0  0  0  0  0  0  0  0  0  0  0
   -2.8567   -3.4799    0.7537 C   0  0  0  0  0  0  0  0  0  0  0  0
   -3.5771   -2.9432    1.3757 H   0  0  0  0  0  0  0  0  0  0  0  0
   -3.2676   -3.5963   -0.2522 H   0  0  0  0  0  0  0  0  0  0  0  0
   -1.5498   -2.7112    0.6941 C   0  0  0  0  0  0  0  0  0  0  0  0
   -0.5268   -3.2170    1.1247 O   0  0  0  0  0  0  0  0  0  0  0  0
   -1.5335   -1.4322    0.1786 N   0  0  0  0  0  0  0  0  0  0  0  0
   -2.4265   -1.0230   -0.0882 H   0  0  0  0  0  0  0  0  0  0  0  0
   -0.3486   -0.5658    0.1009 C   0  0  1  0  0  0  0  0  0  0  0  0
    0.4387   -0.9549    0.7555 H   0  0  0  0  0  0  0  0  0  0  0  0
    0.1582   -0.5963   -1.3524 C   0  0  0  0  0  0  0  0  0  0  0  0
    0.1662   -1.6310   -1.7094 H   0  0  0  0  0  0  0  0  0  0  0  0
   -0.5227   -0.0306   -1.9952 H   0  0  0  0  0  0  0  0  0  0  0  0
    1.5508   -0.0493   -1.5004 C   0  0  0  0  0  0  0  0  0  0  0  0
    2.6127   -0.7951   -1.9932 N   0  0  0  0  0  0  0  0  0  0  0  0
    3.6445    0.0108   -2.0598 C   0  0  0  0  0  0  0  0  0  0  0  0
    4.6339   -0.2745   -2.4060 H   0  0  0  0  0  0  0  0  0  0  0  0
    3.2815    1.2743   -1.6343 N   0  0  0  0  0  0  0  0  0  0  0  0
    3.8932    2.0884   -1.6226 H   0  0  0  0  0  0  0  0  0  0  0  0
    1.9451    1.2459   -1.2965 C   0  0  0  0  0  0  0  0  0  0  0  0
    1.3214    2.0733   -0.9693 H   0  0  0  0  0  0  0  0  0  0  0  0
   -0.6869    0.8629    0.5686 C   0  0  0  0  0  0  0  0  0  0  0  0
   -1.7137    1.4075    0.1795 O   0  0  0  0  0  0  0  0  0  0  0  0
    0.1603    1.5396    1.4272 N   0  0  0  0  0  0  0  0  0  0  0  0
    0.9725    1.0352    1.7744 H   0  0  0  0  0  0  0  0  0  0  0  0
   -0.1221    2.8699    1.9511 C   0  0  0  0  0  0  0  0  0  0  0  0
   -1.0453    2.8615    2.5399 H   0  0  0  0  0  0  0  0  0  0  0  0
    0.6969    3.2033    2.5957 H   0  0  0  0  0  0  0  0  0  0  0  0
   -0.2317    3.5894    1.1329 H   0  0  0  0  0  0  0  0  0  0  0  0
  1  2  1  0  0  0  0
  2  3  1  0  0  0  0
  2  4  1  0  0  0  0
  2  5  1  0  0  0  0
  5  6  2  0  0  0  0
  5  7  1  0  0  0  0
  7  8  1  0  0  0  0
  7  9  1  0  0  0  0
  9 10  1  0  0  0  0
  9 11  1  0  0  0  0
  9 22  1  0  0  0  0
 11 12  1  0  0  0  0
 11 13  1  0  0  0  0
 11 14  1  0  0  0  0
 14 15  1  0  0  0  0
 14 20  2  0  0  0  0
 15 16  2  0  0  0  0
 16 17  1  0  0  0  0
 16 18  1  0  0  0  0
 18 19  1  0  0  0  0
 18 20  1  0  0  0  0
 20 21  1  0  0  0  0
 22 23  2  0  0  0  0
 22 24  1  0  0  0  0
 24 25  1  0  0  0  0
 24 26  1  0  0  0  0
 26 27  1  0  0  0  0
 26 28  1  0  0  0  0
 26 29  1  0  0  0  0
M  END
$$$$

  -OEChem-04042215593D

 29 29  0     1  0  0  0  0  0999 V2000
   -2.6772   -4.4605    1.1478 H   0  0  0  0  0  0  0  0  0  0  0  0
   -2.8400   -3.4671    0.7204 C   0  0  0  0  0  0  0  0  0  0  0  0
   -3.5800   -2.9397    1.3272 H   0  0  0  0  0  0  0  0  0  0  0  0
   -3.2249   -3.5804   -0.2960 H   0  0  0  0  0  0  0  0  0  0  0  0
   -1.5381   -2.6883    0.6977 C   0  0  0  0  0  0  0  0  0  0  0  0
   -0.5226   -3.1856    1.1560 O   0  0  0  0  0  0  0  0  0  0  0  0
   -1.5165   -1.4087    0.1842 N   0  0  0  0  0  0  0  0  0  0  0  0
   -2.4040   -1.0034   -0.1069 H   0  0  0  0  0  0  0  0  0  0  0  0
   -0.3321   -0.5396    0.1335 C   0  0  1  0  0  0  0  0  0  0  0  0
    0.4483   -0.9222    0.7999 H   0  0  0  0  0  0  0  0  0  0  0  0
    0.1856   -0.5806   -1.3183 C   0  0  0  0  0  0  0  0  0  0  0  0
    0.1921   -1.6230   -1.6534 H   0  0  0  0  0  0  0  0  0  0  0  0
   -0.4974   -0.0314   -1.9729 H   0  0  0  0  0  0  0  0  0  0  0  0
    1.5803   -0.0467   -1.5092 C   0  0  0  0  0  0  0  0  0  0  0  0
    2.5170   -0.7161   -2.2859 N   0  0  0  0  0  0  0  0  0  0  0  0
    3.5990    0.0228   -2.3044 C   0  0  0  0  0  0  0  0  0  0  0  0
    4.5159   -0.2306   -2.8290 H   0  0  0  0  0  0  0  0  0  0  0  0
    3.3928    1.1722   -1.5674 N   0  0  0  0  0  0  0  0  0  0  0  0
    4.0686    1.9254   -1.4540 H   0  0  0  0  0  0  0  0  0  0  0  0
    2.1054    1.1421   -1.0749 C   0  0  0  0  0  0  0  0  0  0  0  0
    1.6022    1.9157   -0.5051 H   0  0  0  0  0  0  0  0  0  0  0  0
   -0.7054    0.8813    0.5999 C   0  0  0  0  0  0  0  0  0  0  0  0
   -1.7323    1.4106    0.1904 O   0  0  0  0  0  0  0  0  0  0  0  0
    0.1081    1.5669    1.4843 N   0  0  0  0  0  0  0  0  0  0  0  0
    0.8940    1.0577    1.8814 H   0  0  0  0  0  0  0  0  0  0  0  0
   -0.2293    2.8758    2.0300 C   0  0  0  0  0  0  0  0  0  0  0  0
   -1.1555    2.8207    2.6116 H   0  0  0  0  0  0  0  0  0  0  0  0
    0.5718    3.2295    2.6862 H   0  0  0  0  0  0  0  0  0  0  0  0
   -0.3617    3.6054    1.2241 H   0  0  0  0  0  0  0  0  0  0  0  0
  1  2  1  0  0  0  0
  2  3  1  0  0  0  0
  2  4  1  0  0  0  0
  2  5  1  0  0  0  0
  5  6  2  0  0  0  0
  5  7  1  0  0  0  0
  7  8  1  0  0  0  0
  7  9  1  0  0  0  0
  9 10  1  0  0  0  0
  9 11  1  0  0  0  0
  9 22  1  0  0  0  0
 11 12  1  0  0  0  0
 11 13  1  0  0  0  0
 11 14  1  0  0  0  0
 14 15  1  0  0  0  0
 14 20  2  0  0  0  0
 15 16  2  0  0  0  0
 16 17  1  0  0  0  0
 16 18  1  0  0  0  0
 18 19  1  0  0  0  0
 18 20  1  0  0  0  0
 20 21  1  0  0  0  0
 22 23  2  0  0  0  0
 22 24  1  0  0  0  0
 24 25  1  0  0  0  0
 24 26  1  0  0  0  0
 26 27  1  0  0  0  0
 26 28  1  0  0  0  0
 26 29  1  0  0  0  0
M  END
$$$$

  -OEChem-04042215593D

 29 29  0     1  0  0  0  0  0999 V2000
   -2.6624   -4.4510    1.1155 H   0  0  0  0  0  0  0  0  0  0  0  0
   -2.8213   -3.4557    0.6911 C   0  0  0  0  0  0  0  0  0  0  0  0
   -3.5776   -2.9359    1.2840 H   0  0  0  0  0  0  0  0  0  0  0  0
   -3.1824   -3.5644   -0.3345 H   0  0  0  0  0  0  0  0  0  0  0  0
   -1.5239   -2.6696    0.7016 C   0  0  0  0  0  0  0  0  0  0  0  0
   -0.5153   -3.1617    1.1809 O   0  0  0  0  0  0  0  0  0  0  0  0
   -1.4959   -1.3904    0.1882 N   0  0  0  0  0  0  0  0  0  0  0  0
   -2.3782   -0.9864   -0.1209 H   0  0  0  0  0  0  0  0  0  0  0  0
   -0.3128   -0.5188    0.1615 C   0  0  1  0  0  0  0  0  0  0  0  0
    0.4647   -0.8969    0.8339 H   0  0  0  0  0  0  0  0  0  0  0  0
    0.2033   -0.5500   -1.2924 C   0  0  0  0  0  0  0  0  0  0  0  0
    0.2074   -1.5934   -1.6239 H   0  0  0  0  0  0  0  0  0  0  0  0
   -0.4869   -0.0052   -1.9432 H   0  0  0  0  0  0  0  0  0  0  0  0
    1.5970   -0.0255   -1.5221 C   0  0  0  0  0  0  0  0  0  0  0  0
    2.3770   -0.5347   -2.5531 N   0  0  0  0  0  0  0  0  0  0  0  0
    3.5250    0.0952   -2.5164 C   0  0  0  0  0  0  0  0  0  0  0  0
    4.3521   -0.0785   -3.1988 H   0  0  0  0  0  0  0  0  0  0  0  0
    3.5212    1.0111   -1.4837 N   0  0  0  0  0  0  0  0  0  0  0  0
    4.2910    1.6363   -1.2521 H   0  0  0  0  0  0  0  0  0  0  0  0
    2.2985    0.9411   -0.8496 C   0  0  0  0  0  0  0  0  0  0  0  0
    1.9644    1.5427   -0.0144 H   0  0  0  0  0  0  0  0  0  0  0  0
   -0.7210    0.8958    0.6230 C   0  0  0  0  0  0  0  0  0  0  0  0
   -1.7494    1.4050    0.1915 O   0  0  0  0  0  0  0  0  0  0  0  0
    0.0544    1.5971    1.5292 N   0  0  0  0  0  0  0  0  0  0  0  0
    0.8072    1.0860    1.9826 H   0  0  0  0  0  0  0  0  0  0  0  0
   -0.3346    2.8937    2.0711 C   0  0  0  0  0  0  0  0  0  0  0  0
   -1.2676    2.8081    2.6380 H   0  0  0  0  0  0  0  0  0  0  0  0
    0.4442    3.2729    2.7397 H   0  0  0  0  0  0  0  0  0  0  0  0
   -0.4780    3.6197    1.2637 H   0  0  0  0  0  0  0  0  0  0  0  0
  1  2  1  0  0  0  0
  2  3  1  0  0  0  0
  2  4  1  0  0  0  0
  2  5  1  0  0  0  0
  5  6  2  0  0  0  0
  5  7  1  0  0  0  0
  7  8  1  0  0  0  0
  7  9  1  0  0  0  0
  9 10  1  0  0  0  0
  9 11  1  0  0  0  0
  9 22  1  0  0  0  0
 11 12  1  0  0  0  0
 11 13  1  0  0  0  0
 11 14  1  0  0  0  0
 14 15  1  0  0  0  0
 14 20  2  0  0  0  0
 15 16  2  0  0  0  0
 16 17  1  0  0  0  0
 16 18  1  0  0  0  0
 18 19  1  0  0  0  0
 18 20  1  0  0  0  0
 20 21  1  0  0  0  0
 22 23  2  0  0  0  0
 22 24  1  0  0  0  0
 24 25  1  0  0  0  0
 24 26  1  0  0  0  0
 26 27  1  0  0  0  0
 26 28  1  0  0  0  0
 26 29  1  0  0  0  0
M  END
$$$$

  -OEChem-04042215593D

 29 29  0     1  0  0  0  0  0999 V2000
   -2.6807   -4.4443    1.1260 H   0  0  0  0  0  0  0  0  0  0  0  0
   -2.8357   -3.4510    0.6957 C   0  0  0  0  0  0  0  0  0  0  0  0
   -3.5883   -2.9240    1.2870 H   0  0  0  0  0  0  0  0  0  0  0  0
   -3.1999   -3.5641   -0.3283 H   0  0  0  0  0  0  0  0  0  0  0  0
   -1.5341   -2.6718    0.6983 C   0  0  0  0  0  0  0  0  0  0  0  0
   -0.5258   -3.1675    1.1748 O   0  0  0  0  0  0  0  0  0  0  0  0
   -1.5004   -1.3940    0.1819 N   0  0  0  0  0  0  0  0  0  0  0  0
   -2.3812   -0.9857   -0.1258 H   0  0  0  0  0  0  0  0  0  0  0  0
   -0.3149   -0.5261    0.1589 C   0  0  1  0  0  0  0  0  0  0  0  0
    0.4586   -0.9082    0.8329 H   0  0  0  0  0  0  0  0  0  0  0  0
    0.2055   -0.5388   -1.2931 C   0  0  0  0  0  0  0  0  0  0  0  0
    0.2064   -1.5748   -1.6466 H   0  0  0  0  0  0  0  0  0  0  0  0
   -0.4799    0.0233   -1.9348 H   0  0  0  0  0  0  0  0  0  0  0  0
    1.6010   -0.0128   -1.5057 C   0  0  0  0  0  0  0  0  0  0  0  0
    2.2700   -0.2626   -2.6973 N   0  0  0  0  0  0  0  0  0  0  0  0
    3.4597    0.2758   -2.5913 C   0  0  0  0  0  0  0  0  0  0  0  0
    4.2237    0.2533   -3.3632 H   0  0  0  0  0  0  0  0  0  0  0  0
    3.5944    0.8706   -1.3529 N   0  0  0  0  0  0  0  0  0  0  0  0
    4.4281    1.3526   -1.0217 H   0  0  0  0  0  0  0  0  0  0  0  0
    2.4204    0.6823   -0.6546 C   0  0  0  0  0  0  0  0  0  0  0  0
    2.2019    1.0106    0.3529 H   0  0  0  0  0  0  0  0  0  0  0  0
   -0.7188    0.8928    0.6153 C   0  0  0  0  0  0  0  0  0  0  0  0
   -1.7491    1.3988    0.1844 O   0  0  0  0  0  0  0  0  0  0  0  0
    0.0525    1.5979    1.5223 N   0  0  0  0  0  0  0  0  0  0  0  0
    0.7917    1.0859    1.9951 H   0  0  0  0  0  0  0  0  0  0  0  0
   -0.3337    2.9033    2.0448 C   0  0  0  0  0  0  0  0  0  0  0  0
   -1.2681    2.8285    2.6107 H   0  0  0  0  0  0  0  0  0  0  0  0
    0.4450    3.2898    2.7092 H   0  0  0  0  0  0  0  0  0  0  0  0
   -0.4731    3.6180    1.2268 H   0  0  0  0  0  0  0  0  0  0  0  0
  1  2  1  0  0  0  0
  2  3  1  0  0  0  0
  2  4  1  0  0  0  0
  2  5  1  0  0  0  0
  5  6  2  0  0  0  0
  5  7  1  0  0  0  0
  7  8  1  0  0  0  0
  7  9  1  0  0  0  0
  9 10  1  0  0  0  0
  9 11  1  0  0  0  0
  9 22  1  0  0  0  0
 11 12  1  0  0  0  0
 11 13  1  0  0  0  0
 11 14  1  0  0  0  0
 14 15  1  0  0  0  0
 14 20  2  0  0  0  0
 15 16  2  0  0  0  0
 16 17  1  0  0  0  0
 16 18  1  0  0  0  0
 18 19  1  0  0  0  0
 18 20  1  0  0  0  0
 20 21  1  0  0  0  0
 22 23  2  0  0  0  0
 22 24  1  0  0  0  0
 24 25  1  0  0  0  0
 24 26  1  0  0  0  0
 26 27  1  0  0  0  0
 26 28  1  0  0  0  0
 26 29  1  0  0  0  0
M  END
$$$$

  -OEChem-04042215593D

 29 29  0     1  0  0  0  0  0999 V2000
   -2.7318   -4.4561    1.1746 H   0  0  0  0  0  0  0  0  0  0  0  0
   -2.8855   -3.4639    0.7408 C   0  0  0  0  0  0  0  0  0  0  0  0
   -3.6164   -2.9231    1.3469 H   0  0  0  0  0  0  0  0  0  0  0  0
   -3.2767   -3.5799   -0.2729 H   0  0  0  0  0  0  0  0  0  0  0  0
   -1.5752   -2.7002    0.7053 C   0  0  0  0  0  0  0  0  0  0  0  0
   -0.5613   -3.2057    1.1598 O   0  0  0  0  0  0  0  0  0  0  0  0
   -1.5400   -1.4285    0.1732 N   0  0  0  0  0  0  0  0  0  0  0  0
   -2.4250   -1.0143   -0.1140 H   0  0  0  0  0  0  0  0  0  0  0  0
   -0.3527   -0.5634    0.1297 C   0  0  1  0  0  0  0  0  0  0  0  0
    0.3883   -0.9562    0.8311 H   0  0  0  0  0  0  0  0  0  0  0  0
    0.2167   -0.5816   -1.3033 C   0  0  0  0  0  0  0  0  0  0  0  0
    0.0048   -1.5545   -1.7567 H   0  0  0  0  0  0  0  0  0  0  0  0
   -0.2864    0.1755   -1.9127 H   0  0  0  0  0  0  0  0  0  0  0  0
    1.7055   -0.3798   -1.4027 C   0  0  0  0  0  0  0  0  0  0  0  0
    2.3386   -0.3745   -2.6385 N   0  0  0  0  0  0  0  0  0  0  0  0
    3.6170   -0.1964   -2.4130 C   0  0  0  0  0  0  0  0  0  0  0  0
    4.3827   -0.1469   -3.1822 H   0  0  0  0  0  0  0  0  0  0  0  0
    3.8421   -0.0836   -1.0550 N   0  0  0  0  0  0  0  0  0  0  0  0
    4.7548    0.0414   -0.6209 H   0  0  0  0  0  0  0  0  0  0  0  0
    2.6312   -0.2040   -0.4060 C   0  0  0  0  0  0  0  0  0  0  0  0
    2.4539   -0.1853    0.6632 H   0  0  0  0  0  0  0  0  0  0  0  0
   -0.6973    0.8761    0.5627 C   0  0  0  0  0  0  0  0  0  0  0  0
   -1.7415    1.3906    0.1783 O   0  0  0  0  0  0  0  0  0  0  0  0
    0.1178    1.5681    1.4403 N   0  0  0  0  0  0  0  0  0  0  0  0
    0.9322    1.0868    1.8081 H   0  0  0  0  0  0  0  0  0  0  0  0
   -0.1926    2.9043    1.9340 C   0  0  0  0  0  0  0  0  0  0  0  0
   -1.1300    2.8956    2.5001 H   0  0  0  0  0  0  0  0  0  0  0  0
    0.6060    3.2594    2.5923 H   0  0  0  0  0  0  0  0  0  0  0  0
   -0.2908    3.6076    1.1003 H   0  0  0  0  0  0  0  0  0  0  0  0
  1  2  1  0  0  0  0
  2  3  1  0  0  0  0
  2  4  1  0  0  0  0
  2  5  1  0  0  0  0
  5  6  2  0  0  0  0
  5  7  1  0  0  0  0
  7  8  1  0  0  0  0
  7  9  1  0  0  0  0
  9 10  1  0  0  0  0
  9 11  1  0  0  0  0
  9 22  1  0  0  0  0
 11 12  1  0  0  0  0
 11 13  1  0  0  0  0
 11 14  1  0  0  0  0
 14 15  1  0  0  0  0
 14 20  2  0  0  0  0
 15 16  2  0  0  0  0
 16 17  1  0  0  0  0
 16 18  1  0  0  0  0
 18 19  1  0  0  0  0
 18 20  1  0  0  0  0
 20 21  1  0  0  0  0
 22 23  2  0  0  0  0
 22 24  1  0  0  0  0
 24 25  1  0  0  0  0
 24 26  1  0  0  0  0
 26 27  1  0  0  0  0
 26 28  1  0  0  0  0
 26 29  1  0  0  0  0
M  END
$$$$

  -OEChem-04042215593D

 29 29  0     1  0  0  0  0  0999 V2000
   -2.7459   -4.4660    1.1798 H   0  0  0  0  0  0  0  0  0  0  0  0
   -2.9027   -3.4697    0.7568 C   0  0  0  0  0  0  0  0  0  0  0  0
   -3.6162   -2.9291    1.3834 H   0  0  0  0  0  0  0  0  0  0  0  0
   -3.3179   -3.5760   -0.2484 H   0  0  0  0  0  0  0  0  0  0  0  0
   -1.5887   -2.7137    0.6964 C   0  0  0  0  0  0  0  0  0  0  0  0
   -0.5670   -3.2297    1.1217 O   0  0  0  0  0  0  0  0  0  0  0  0
   -1.5559   -1.4402    0.1682 N   0  0  0  0  0  0  0  0  0  0  0  0
   -2.4450   -1.0151   -0.0897 H   0  0  0  0  0  0  0  0  0  0  0  0
   -0.3677   -0.5769    0.1233 C   0  0  1  0  0  0  0  0  0  0  0  0
    0.3646   -0.9713    0.8313 H   0  0  0  0  0  0  0  0  0  0  0  0
    0.2122   -0.5922   -1.3051 C   0  0  0  0  0  0  0  0  0  0  0  0
   -0.0013   -1.5577   -1.7736 H   0  0  0  0  0  0  0  0  0  0  0  0
   -0.2824    0.1760   -1.9081 H   0  0  0  0  0  0  0  0  0  0  0  0
    1.7029   -0.3888   -1.3842 C   0  0  0  0  0  0  0  0  0  0  0  0
    2.3157   -0.0711   -2.5891 N   0  0  0  0  0  0  0  0  0  0  0  0
    3.6009    0.0241   -2.3516 C   0  0  0  0  0  0  0  0  0  0  0  0
    4.3551    0.2594   -3.0972 H   0  0  0  0  0  0  0  0  0  0  0  0
    3.8503   -0.2223   -1.0158 N   0  0  0  0  0  0  0  0  0  0  0  0
    4.7728   -0.2371   -0.5848 H   0  0  0  0  0  0  0  0  0  0  0  0
    2.6485   -0.4910   -0.3954 C   0  0  0  0  0  0  0  0  0  0  0  0
    2.4905   -0.7591    0.6440 H   0  0  0  0  0  0  0  0  0  0  0  0
   -0.7004    0.8635    0.5613 C   0  0  0  0  0  0  0  0  0  0  0  0
   -1.7560    1.3759    0.2059 O   0  0  0  0  0  0  0  0  0  0  0  0
    0.1264    1.5449    1.4359 N   0  0  0  0  0  0  0  0  0  0  0  0
    0.9896    1.0918    1.7198 H   0  0  0  0  0  0  0  0  0  0  0  0
   -0.1488    2.8963    1.9076 C   0  0  0  0  0  0  0  0  0  0  0  0
   -1.1117    2.9328    2.4277 H   0  0  0  0  0  0  0  0  0  0  0  0
    0.6311    3.2201    2.6034 H   0  0  0  0  0  0  0  0  0  0  0  0
   -0.1753    3.5972    1.0665 H   0  0  0  0  0  0  0  0  0  0  0  0
  1  2  1  0  0  0  0
  2  3  1  0  0  0  0
  2  4  1  0  0  0  0
  2  5  1  0  0  0  0
  5  6  2  0  0  0  0
  5  7  1  0  0  0  0
  7  8  1  0  0  0  0
  7  9  1  0  0  0  0
  9 10  1  0  0  0  0
  9 11  1  0  0  0  0
  9 22  1  0  0  0  0
 11 12  1  0  0  0  0
 11 13  1  0  0  0  0
 11 14  1  0  0  0  0
 14 15  1  0  0  0  0
 14 20  2  0  0  0  0
 15 16  2  0  0  0  0
 16 17  1  0  0  0  0
 16 18  1  0  0  0  0
 18 19  1  0  0  0  0
 18 20  1  0  0  0  0
 20 21  1  0  0  0  0
 22 23  2  0  0  0  0
 22 24  1  0  0  0  0
 24 25  1  0  0  0  0
 24 26  1  0  0  0  0
 26 27  1  0  0  0  0
 26 28  1  0  0  0  0
 26 29  1  0  0  0  0
M  END
$$$$

  -OEChem-04042215593D

 29 29  0     1  0  0  0  0  0999 V2000
   -2.7369   -4.4619    1.2095 H   0  0  0  0  0  0  0  0  0  0  0  0
   -2.9016   -3.4674    0.7856 C   0  0  0  0  0  0  0  0  0  0  0  0
   -3.5925   -2.9192    1.4307 H   0  0  0  0  0  0  0  0  0  0  0  0
   -3.3479   -3.5768   -0.2057 H   0  0  0  0  0  0  0  0  0  0  0  0
   -1.5861   -2.7193    0.6805 C   0  0  0  0  0  0  0  0  0  0  0  0
   -0.5518   -3.2441    1.0633 O   0  0  0  0  0  0  0  0  0  0  0  0
   -1.5638   -1.4445    0.1551 N   0  0  0  0  0  0  0  0  0  0  0  0
   -2.4591   -1.0091   -0.0608 H   0  0  0  0  0  0  0  0  0  0  0  0
   -0.3755   -0.5827    0.0999 C   0  0  1  0  0  0  0  0  0  0  0  0
    0.3593   -0.9744    0.8067 H   0  0  0  0  0  0  0  0  0  0  0  0
    0.2009   -0.5968   -1.3288 C   0  0  0  0  0  0  0  0  0  0  0  0
   -0.0111   -1.5592   -1.8033 H   0  0  0  0  0  0  0  0  0  0  0  0
   -0.2906    0.1760   -1.9288 H   0  0  0  0  0  0  0  0  0  0  0  0
    1.6911   -0.3915   -1.3836 C   0  0  0  0  0  0  0  0  0  0  0  0
    2.3048    0.2212   -2.4677 N   0  0  0  0  0  0  0  0  0  0  0  0
    3.5931    0.2211   -2.2261 C   0  0  0  0  0  0  0  0  0  0  0  0
    4.3497    0.6289   -2.8904 H   0  0  0  0  0  0  0  0  0  0  0  0
    3.8421   -0.3775   -1.0063 N   0  0  0  0  0  0  0  0  0  0  0  0
    4.7656   -0.5293   -0.6049 H   0  0  0  0  0  0  0  0  0  0  0  0
    2.6369   -0.7785   -0.4697 C   0  0  0  0  0  0  0  0  0  0  0  0
    2.4701   -1.3205    0.4571 H   0  0  0  0  0  0  0  0  0  0  0  0
   -0.6977    0.8571    0.5457 C   0  0  0  0  0  0  0  0  0  0  0  0
   -1.7663    1.3657    0.2250 O   0  0  0  0  0  0  0  0  0  0  0  0
    0.1449    1.5293    1.4120 N   0  0  0  0  0  0  0  0  0  0  0  0
    1.0318    1.0895    1.6396 H   0  0  0  0  0  0  0  0  0  0  0  0
   -0.1132    2.8821    1.8895 C   0  0  0  0  0  0  0  0  0  0  0  0
   -1.0743    2.9282    2.4126 H   0  0  0  0  0  0  0  0  0  0  0  0
    0.6721    3.1935    2.5850 H   0  0  0  0  0  0  0  0  0  0  0  0
   -0.1335    3.5863    1.0512 H   0  0  0  0  0  0  0  0  0  0  0  0
  1  2  1  0  0  0  0
  2  3  1  0  0  0  0
  2  4  1  0  0  0  0
  2  5  1  0  0  0  0
  5  6  2  0  0  0  0
  5  7  1  0  0  0  0
  7  8  1  0  0  0  0
  7  9  1  0  0  0  0
  9 10  1  0  0  0  0
  9 11  1  0  0  0  0
  9 22  1  0  0  0  0
 11 12  1  0  0  0  0
 11 13  1  0  0  0  0
 11 14  1  0  0  0  0
 14 15  1  0  0  0  0
 14 20  2  0  0  0  0
 15 16  2  0  0  0  0
 16 17  1  0  0  0  0
 16 18  1  0  0  0  0
 18 19  1  0  0  0  0
 18 20  1  0  0  0  0
 20 21  1  0  0  0  0
 22 23  2  0  0  0  0
 22 24  1  0  0  0  0
 24 25  1  0  0  0  0
 24 26  1  0  0  0  0
 26 27  1  0  0  0  0
 26 28  1  0  0  0  0
 26 29  1  0  0  0  0
M  END
$$$$

  -OEChem-04042215593D

 29 29  0     1  0  0  0  0  0999 V2000
   -2.7055   -4.4660    1.2339 H   0  0  0  0  0  0  0  0  0  0  0  0
   -2.8842   -3.4726    0.8129 C   0  0  0  0  0  0  0  0  0  0  0  0
   -3.5521   -2.9223    1.4800 H   0  0  0  0  0  0  0  0  0  0  0  0
   -3.3647   -3.5847   -0.1620 H   0  0  0  0  0  0  0  0  0  0  0  0
   -1.5724   -2.7258    0.6606 C   0  0  0  0  0  0  0  0  0  0  0  0
   -0.5239   -3.2589    0.9905 O   0  0  0  0  0  0  0  0  0  0  0  0
   -1.5656   -1.4478    0.1424 N   0  0  0  0  0  0  0  0  0  0  0  0
   -2.4670   -1.0037   -0.0264 H   0  0  0  0  0  0  0  0  0  0  0  0
   -0.3791   -0.5847    0.0734 C   0  0  1  0  0  0  0  0  0  0  0  0
    0.3683   -0.9764    0.7686 H   0  0  0  0  0  0  0  0  0  0  0  0
    0.1815   -0.5938   -1.3596 C   0  0  0  0  0  0  0  0  0  0  0  0
   -0.0248   -1.5579   -1.8334 H   0  0  0  0  0  0  0  0  0  0  0  0
   -0.3109    0.1783   -1.9594 H   0  0  0  0  0  0  0  0  0  0  0  0
    1.6686   -0.3842   -1.3870 C   0  0  0  0  0  0  0  0  0  0  0  0
    2.2965    0.4829   -2.2697 N   0  0  0  0  0  0  0  0  0  0  0  0
    3.5844    0.3812   -2.0450 C   0  0  0  0  0  0  0  0  0  0  0  0
    4.3528    0.9323   -2.5797 H   0  0  0  0  0  0  0  0  0  0  0  0
    3.8160   -0.5317   -1.0334 N   0  0  0  0  0  0  0  0  0  0  0  0
    4.7345   -0.8150   -0.6964 H   0  0  0  0  0  0  0  0  0  0  0  0
    2.5994   -1.0302   -0.6185 C   0  0  0  0  0  0  0  0  0  0  0  0
    2.4049   -1.7946    0.1304 H   0  0  0  0  0  0  0  0  0  0  0  0
   -0.6926    0.8525    0.5333 C   0  0  0  0  0  0  0  0  0  0  0  0
   -1.7721    1.3575    0.2444 O   0  0  0  0  0  0  0  0  0  0  0  0
    0.1655    1.5183    1.3893 N   0  0  0  0  0  0  0  0  0  0  0  0
    1.0688    1.0899    1.5707 H   0  0  0  0  0  0  0  0  0  0  0  0
   -0.0776    2.8733    1.8679 C   0  0  0  0  0  0  0  0  0  0  0  0
   -1.0388    2.9301    2.3896 H   0  0  0  0  0  0  0  0  0  0  0  0
    0.7100    3.1746    2.5653 H   0  0  0  0  0  0  0  0  0  0  0  0
   -0.0884    3.5785    1.0303 H   0  0  0  0  0  0  0  0  0  0  0  0
  1  2  1  0  0  0  0
  2  3  1  0  0  0  0
  2  4  1  0  0  0  0
  2  5  1  0  0  0  0
  5  6  2  0  0  0  0
  5  7  1  0  0  0  0
  7  8  1  0  0  0  0
  7  9  1  0  0  0  0
  9 10  1  0  0  0  0
  9 11  1  0  0  0  0
  9 22  1  0  0  0  0
 11 12  1  0  0  0  0
 11 13  1  0  0  0  0
 11 14  1  0  0  0  0
 14 15  1  0  0  0  0
 14 20  2  0  0  0  0
 15 16  2  0  0  0  0
 16 17  1  0  0  0  0
 16 18  1  0  0  0  0
 18 19  1  0  0  0  0
 18 20  1  0  0  0  0
 20 21  1  0  0  0  0
 22 23  2  0  0  0  0
 22 24  1  0  0  0  0
 24 25  1  0  0  0  0
 24 26  1  0  0  0  0
 26 27  1  0  0  0  0
 26 28  1  0  0  0  0
 26 29  1  0  0  0  0
M  END
$$$$

  -OEChem-04042215593D

 29 29  0     1  0  0  0  0  0999 V2000
   -2.6976   -4.4622    1.2584 H   0  0  0  0  0  0  0  0  0  0  0  0
   -2.8799   -3.4691    0.8385 C   0  0  0  0  0  0  0  0  0  0  0  0
   -3.5163   -2.9073    1.5266 H   0  0  0  0  0  0  0  0  0  0  0  0
   -3.3973   -3.5800   -0.1175 H   0  0  0  0  0  0  0  0  0  0  0  0
   -1.5661   -2.7386    0.6343 C   0  0  0  0  0  0  0  0  0  0  0  0
   -0.5107   -3.2879    0.9119 O   0  0  0  0  0  0  0  0  0  0  0  0
   -1.5664   -1.4571    0.1256 N   0  0  0  0  0  0  0  0  0  0  0  0
   -2.4698   -1.0022    0.0030 H   0  0  0  0  0  0  0  0  0  0  0  0
   -0.3799   -0.5950    0.0466 C   0  0  1  0  0  0  0  0  0  0  0  0
    0.3791   -0.9930    0.7277 H   0  0  0  0  0  0  0  0  0  0  0  0
    0.1688   -0.5954   -1.3882 C   0  0  0  0  0  0  0  0  0  0  0  0
   -0.0332   -1.5606   -1.8618 H   0  0  0  0  0  0  0  0  0  0  0  0
   -0.3219    0.1771   -1.9890 H   0  0  0  0  0  0  0  0  0  0  0  0
    1.6532   -0.3840   -1.3880 C   0  0  0  0  0  0  0  0  0  0  0  0
    2.2853    0.6801   -2.0144 N   0  0  0  0  0  0  0  0  0  0  0  0
    3.5729    0.5066   -1.8342 C   0  0  0  0  0  0  0  0  0  0  0  0
    4.3464    1.1713   -2.2085 H   0  0  0  0  0  0  0  0  0  0  0  0
    3.7969   -0.6443   -1.1016 N   0  0  0  0  0  0  0  0  0  0  0  0
    4.7123   -1.0132   -0.8498 H   0  0  0  0  0  0  0  0  0  0  0  0
    2.5757   -1.2202   -0.8227 C   0  0  0  0  0  0  0  0  0  0  0  0
    2.3668   -2.1445   -0.2879 H   0  0  0  0  0  0  0  0  0  0  0  0
   -0.6859    0.8388    0.5215 C   0  0  0  0  0  0  0  0  0  0  0  0
   -1.7754    1.3394    0.2626 O   0  0  0  0  0  0  0  0  0  0  0  0
    0.1843    1.4975    1.3702 N   0  0  0  0  0  0  0  0  0  0  0  0
    1.1028    1.0835    1.5031 H   0  0  0  0  0  0  0  0  0  0  0  0
   -0.0460    2.8561    1.8444 C   0  0  0  0  0  0  0  0  0  0  0  0
   -0.9943    2.9177    2.3887 H   0  0  0  0  0  0  0  0  0  0  0  0
    0.7585    3.1617    2.5202 H   0  0  0  0  0  0  0  0  0  0  0  0
   -0.0765    3.5548    1.0017 H   0  0  0  0  0  0  0  0  0  0  0  0
  1  2  1  0  0  0  0
  2  3  1  0  0  0  0
  2  4  1  0  0  0  0
  2  5  1  0  0  0  0
  5  6  2  0  0  0  0
  5  7  1  0  0  0  0
  7  8  1  0  0  0  0
  7  9  1  0  0  0  0
  9 10  1  0  0  0  0
  9 11  1  0  0  0  0
  9 22  1  0  0  0  0
 11 12  1  0  0  0  0
 11 13  1  0  0  0  0
 11 14  1  0  0  0  0
 14 15  1  0  0  0  0
 14 20  2  0  0  0  0
 15 16  2  0  0  0  0
 16 17  1  0  0  0  0
 16 18  1  0  0  0  0
 18 19  1  0  0  0  0
 18 20  1  0  0  0  0
 20 21  1  0  0  0  0
 22 23  2  0  0  0  0
 22 24  1  0  0  0  0
 24 25  1  0  0  0  0
 24 26  1  0  0  0  0
 26 27  1  0  0  0  0
 26 28  1  0  0  0  0
 26 29  1  0  0  0  0
M  END
$$$$

  -OEChem-04042215593D

 29 29  0     1  0  0  0  0  0999 V2000
   -2.7020   -4.4586    1.2762 H   0  0  0  0  0  0  0  0  0  0  0  0
   -2.8856   -3.4659    0.8555 C   0  0  0  0  0  0  0  0  0  0  0  0
   -3.5004   -2.8951    1.5558 H   0  0  0  0  0  0  0  0  0  0  0  0
   -3.4269   -3.5772   -0.0872 H   0  0  0  0  0  0  0  0  0  0  0  0
   -1.5705   -2.7484    0.6159 C   0  0  0  0  0  0  0  0  0  0  0  0
   -0.5135   -3.3129    0.8532 O   0  0  0  0  0  0  0  0  0  0  0  0
   -1.5725   -1.4646    0.1134 N   0  0  0  0  0  0  0  0  0  0  0  0
   -2.4749   -0.9998    0.0245 H   0  0  0  0  0  0  0  0  0  0  0  0
   -0.3845   -0.6054    0.0250 C   0  0  1  0  0  0  0  0  0  0  0  0
    0.3804   -1.0091    0.6972 H   0  0  0  0  0  0  0  0  0  0  0  0
    0.1593   -0.6037   -1.4091 C   0  0  0  0  0  0  0  0  0  0  0  0
   -0.0407   -1.5713   -1.8785 H   0  0  0  0  0  0  0  0  0  0  0  0
   -0.3275    0.1671   -2.0149 H   0  0  0  0  0  0  0  0  0  0  0  0
    1.6421   -0.3927   -1.3856 C   0  0  0  0  0  0  0  0  0  0  0  0
    2.2645    0.7994   -1.7256 N   0  0  0  0  0  0  0  0  0  0  0  0
    3.5546    0.5873   -1.6178 C   0  0  0  0  0  0  0  0  0  0  0  0
    4.3235    1.3275   -1.8202 H   0  0  0  0  0  0  0  0  0  0  0  0
    3.7878   -0.7126   -1.2086 N   0  0  0  0  0  0  0  0  0  0  0  0
    4.7063   -1.1293   -1.0664 H   0  0  0  0  0  0  0  0  0  0  0  0
    2.5700   -1.3431   -1.0661 C   0  0  0  0  0  0  0  0  0  0  0  0
    2.3663   -2.3699   -0.7710 H   0  0  0  0  0  0  0  0  0  0  0  0
   -0.6797    0.8275    0.5098 C   0  0  0  0  0  0  0  0  0  0  0  0
   -1.7782    1.3243    0.2821 O   0  0  0  0  0  0  0  0  0  0  0  0
    0.2040    1.4778    1.3509 N   0  0  0  0  0  0  0  0  0  0  0  0
    1.1378    1.0829    1.4226 H   0  0  0  0  0  0  0  0  0  0  0  0
   -0.0138    2.8376    1.8269 C   0  0  0  0  0  0  0  0  0  0  0  0
   -0.9621    2.9075    2.3700 H   0  0  0  0  0  0  0  0  0  0  0  0
    0.7925    3.1337    2.5046 H   0  0  0  0  0  0  0  0  0  0  0  0
   -0.0361    3.5374    0.9851 H   0  0  0  0  0  0  0  0  0  0  0  0
  1  2  1  0  0  0  0
  2  3  1  0  0  0  0
  2  4  1  0  0  0  0
  2  5  1  0  0  0  0
  5  6  2  0  0  0  0
  5  7  1  0  0  0  0
  7  8  1  0  0  0  0
  7  9  1  0  0  0  0
  9 10  1  0  0  0  0
  9 11  1  0  0  0  0
  9 22  1  0  0  0  0
 11 12  1  0  0  0  0
 11 13  1  0  0  0  0
 11 14  1  0  0  0  0
 14 15  1  0  0  0  0
 14 20  2  0  0  0  0
 15 16  2  0  0  0  0
 16 17  1  0  0  0  0
 16 18  1  0  0  0  0
 18 19  1  0  0  0  0
 18 20  1  0  0  0  0
 20 21  1  0  0  0  0
 22 23  2  0  0  0  0
 22 24  1  0  0  0  0
 24 25  1  0  0  0  0
 24 26  1  0  0  0  0
 26 27  1  0  0  0  0
 26 28  1  0  0  0  0
 26 29  1  0  0  0  0
M  END
$$$$

  -OEChem-04042215593D

 29 29  0     1  0  0  0  0  0999 V2000
   -2.7192   -4.4513    1.2934 H   0  0  0  0  0  0  0  0  0  0  0  0
   -2.8990   -3.4594    0.8694 C   0  0  0  0  0  0  0  0  0  0  0  0
   -3.4963   -2.8779    1.5758 H   0  0  0  0  0  0  0  0  0  0  0  0
   -3.4566   -3.5706   -0.0637 H   0  0  0  0  0  0  0  0  0  0  0  0
   -1.5807   -2.7569    0.6049 C   0  0  0  0  0  0  0  0  0  0  0  0
   -0.5263   -3.3349    0.8194 O   0  0  0  0  0  0  0  0  0  0  0  0
   -1.5792   -1.4718    0.1059 N   0  0  0  0  0  0  0  0  0  0  0  0
   -2.4791   -0.9981    0.0406 H   0  0  0  0  0  0  0  0  0  0  0  0
   -0.3875   -0.6176    0.0119 C   0  0  1  0  0  0  0  0  0  0  0  0
    0.3798   -1.0272    0.6787 H   0  0  0  0  0  0  0  0  0  0  0  0
    0.1545   -0.6130   -1.4214 C   0  0  0  0  0  0  0  0  0  0  0  0
   -0.0502   -1.5787   -1.8934 H   0  0  0  0  0  0  0  0  0  0  0  0
   -0.3264    0.1631   -2.0249 H   0  0  0  0  0  0  0  0  0  0  0  0
    1.6376   -0.4062   -1.3843 C   0  0  0  0  0  0  0  0  0  0  0  0
    2.2480    0.8398   -1.4189 N   0  0  0  0  0  0  0  0  0  0  0  0
    3.5411    0.6176   -1.4045 C   0  0  0  0  0  0  0  0  0  0  0  0
    4.3035    1.3911   -1.4283 H   0  0  0  0  0  0  0  0  0  0  0  0
    3.7874   -0.7419   -1.3522 N   0  0  0  0  0  0  0  0  0  0  0  0
    4.7100   -1.1732   -1.3361 H   0  0  0  0  0  0  0  0  0  0  0  0
    2.5750   -1.3986   -1.3456 C   0  0  0  0  0  0  0  0  0  0  0  0
    2.3823   -2.4683   -1.3153 H   0  0  0  0  0  0  0  0  0  0  0  0
   -0.6739    0.8156    0.5024 C   0  0  0  0  0  0  0  0  0  0  0  0
   -1.7774    1.3111    0.2947 O   0  0  0  0  0  0  0  0  0  0  0  0
    0.2188    1.4587    1.3390 N   0  0  0  0  0  0  0  0  0  0  0  0
    1.1653    1.0871    1.3484 H   0  0  0  0  0  0  0  0  0  0  0  0
    0.0094    2.8202    1.8138 C   0  0  0  0  0  0  0  0  0  0  0  0
   -0.9371    2.8962    2.3591 H   0  0  0  0  0  0  0  0  0  0  0  0
    0.8189    3.1120    2.4895 H   0  0  0  0  0  0  0  0  0  0  0  0
   -0.0110    3.5195    0.9714 H   0  0  0  0  0  0  0  0  0  0  0  0
  1  2  1  0  0  0  0
  2  3  1  0  0  0  0
  2  4  1  0  0  0  0
  2  5  1  0  0  0  0
  5  6  2  0  0  0  0
  5  7  1  0  0  0  0
  7  8  1  0  0  0  0
  7  9  1  0  0  0  0
  9 10  1  0  0  0  0
  9 11  1  0  0  0  0
  9 22  1  0  0  0  0
 11 12  1  0  0  0  0
 11 13  1  0  0  0  0
 11 14  1  0  0  0  0
 14 15  1  0  0  0  0
 14 20  2  0  0  0  0
 15 16  2  0  0  0  0
 16 17  1  0  0  0  0
 16 18  1  0  0  0  0
 18 19  1  0  0  0  0
 18 20  1  0  0  0  0
 20 21  1  0  0  0  0
 22 23  2  0  0  0  0
 22 24  1  0  0  0  0
 24 25  1  0  0  0  0
 24 26  1  0  0  0  0
 26 27  1  0  0  0  0
 26 28  1  0  0  0  0
 26 29  1  0  0  0  0
M  END
$$$$

  -OEChem-04042215593D

 29 29  0     1  0  0  0  0  0999 V2000
   -2.7328   -4.4432    1.3053 H   0  0  0  0  0  0  0  0  0  0  0  0
   -2.9099   -3.4503    0.8828 C   0  0  0  0  0  0  0  0  0  0  0  0
   -3.4926   -2.8631    1.5966 H   0  0  0  0  0  0  0  0  0  0  0  0
   -3.4804   -3.5571   -0.0428 H   0  0  0  0  0  0  0  0  0  0  0  0
   -1.5894   -2.7594    0.5997 C   0  0  0  0  0  0  0  0  0  0  0  0
   -0.5379   -3.3481    0.7974 O   0  0  0  0  0  0  0  0  0  0  0  0
   -1.5849   -1.4738    0.1018 N   0  0  0  0  0  0  0  0  0  0  0  0
   -2.4816   -0.9916    0.0593 H   0  0  0  0  0  0  0  0  0  0  0  0
   -0.3891   -0.6259   -0.0003 C   0  0  1  0  0  0  0  0  0  0  0  0
    0.3792   -1.0396    0.6629 H   0  0  0  0  0  0  0  0  0  0  0  0
    0.1517   -0.6215   -1.4342 C   0  0  0  0  0  0  0  0  0  0  0  0
   -0.0619   -1.5828   -1.9107 H   0  0  0  0  0  0  0  0  0  0  0  0
   -0.3238    0.1628   -2.0313 H   0  0  0  0  0  0  0  0  0  0  0  0
    1.6369   -0.4210   -1.3958 C   0  0  0  0  0  0  0  0  0  0  0  0
    2.2466    0.7983   -1.1282 N   0  0  0  0  0  0  0  0  0  0  0  0
    3.5397    0.5891   -1.2083 C   0  0  0  0  0  0  0  0  0  0  0  0
    4.3013    1.3481   -1.0538 H   0  0  0  0  0  0  0  0  0  0  0  0
    3.7872   -0.7363   -1.5125 N   0  0  0  0  0  0  0  0  0  0  0  0
    4.7099   -1.1521   -1.6271 H   0  0  0  0  0  0  0  0  0  0  0  0
    2.5760   -1.3832   -1.6359 C   0  0  0  0  0  0  0  0  0  0  0  0
    2.3873   -2.4280   -1.8681 H   0  0  0  0  0  0  0  0  0  0  0  0
   -0.6702    0.8074    0.4954 C   0  0  0  0  0  0  0  0  0  0  0  0
   -1.7807    1.2973    0.3105 O   0  0  0  0  0  0  0  0  0  0  0  0
    0.2300    1.4460    1.3269 N   0  0  0  0  0  0  0  0  0  0  0  0
    1.1869    1.1030    1.2706 H   0  0  0  0  0  0  0  0  0  0  0  0
    0.0199    2.8041    1.8109 C   0  0  0  0  0  0  0  0  0  0  0  0
   -0.9171    2.8714    2.3735 H   0  0  0  0  0  0  0  0  0  0  0  0
    0.8395    3.0986    2.4732 H   0  0  0  0  0  0  0  0  0  0  0  0
   -0.0201    3.5071    0.9724 H   0  0  0  0  0  0  0  0  0  0  0  0
  1  2  1  0  0  0  0
  2  3  1  0  0  0  0
  2  4  1  0  0  0  0
  2  5  1  0  0  0  0
  5  6  2  0  0  0  0
  5  7  1  0  0  0  0
  7  8  1  0  0  0  0
  7  9  1  0  0  0  0
  9 10  1  0  0  0  0
  9 11  1  0  0  0  0
  9 22  1  0  0  0  0
 11 12  1  0  0  0  0
 11 13  1  0  0  0  0
 11 14  1  0  0  0  0
 14 15  1  0  0  0  0
 14 20  2  0  0  0  0
 15 16  2  0  0  0  0
 16 17  1  0  0  0  0
 16 18  1  0  0  0  0
 18 19  1  0  0  0  0
 18 20  1  0  0  0  0
 20 21  1  0  0  0  0
 22 23  2  0  0  0  0
 22 24  1  0  0  0  0
 24 25  1  0  0  0  0
 24 26  1  0  0  0  0
 26 27  1  0  0  0  0
 26 28  1  0  0  0  0
 26 29  1  0  0  0  0
M  END
$$$$

  -OEChem-04042215593D

 29 29  0     1  0  0  0  0  0999 V2000
   -2.7374   -4.4388    1.3067 H   0  0  0  0  0  0  0  0  0  0  0  0
   -2.9117   -3.4438    0.8877 C   0  0  0  0  0  0  0  0  0  0  0  0
   -3.4883   -2.8557    1.6058 H   0  0  0  0  0  0  0  0  0  0  0  0
   -3.4872   -3.5453   -0.0355 H   0  0  0  0  0  0  0  0  0  0  0  0
   -1.5893   -2.7582    0.6005 C   0  0  0  0  0  0  0  0  0  0  0  0
   -0.5402   -3.3517    0.7943 O   0  0  0  0  0  0  0  0  0  0  0  0
   -1.5823   -1.4726    0.1031 N   0  0  0  0  0  0  0  0  0  0  0  0
   -2.4776   -0.9873    0.0675 H   0  0  0  0  0  0  0  0  0  0  0  0
   -0.3855   -0.6261   -0.0025 C   0  0  1  0  0  0  0  0  0  0  0  0
    0.3854   -1.0399    0.6577 H   0  0  0  0  0  0  0  0  0  0  0  0
    0.1511   -0.6239   -1.4390 C   0  0  0  0  0  0  0  0  0  0  0  0
   -0.0724   -1.5812   -1.9188 H   0  0  0  0  0  0  0  0  0  0  0  0
   -0.3262    0.1659   -2.0269 H   0  0  0  0  0  0  0  0  0  0  0  0
    1.6389   -0.4258   -1.4195 C   0  0  0  0  0  0  0  0  0  0  0  0
    2.2717    0.6899   -0.8811 N   0  0  0  0  0  0  0  0  0  0  0  0
    3.5592    0.5039   -1.0562 C   0  0  0  0  0  0  0  0  0  0  0  0
    4.3342    1.1995   -0.7469 H   0  0  0  0  0  0  0  0  0  0  0  0
    3.7820   -0.7062   -1.6853 N   0  0  0  0  0  0  0  0  0  0  0  0
    4.6961   -1.0862   -1.9248 H   0  0  0  0  0  0  0  0  0  0  0  0
    2.5607   -1.3017   -1.9181 C   0  0  0  0  0  0  0  0  0  0  0  0
    2.3556   -2.2598   -2.3875 H   0  0  0  0  0  0  0  0  0  0  0  0
   -0.6709    0.8058    0.4959 C   0  0  0  0  0  0  0  0  0  0  0  0
   -1.7848    1.2911    0.3166 O   0  0  0  0  0  0  0  0  0  0  0  0
    0.2291    1.4448    1.3265 N   0  0  0  0  0  0  0  0  0  0  0  0
    1.1913    1.1207    1.2347 H   0  0  0  0  0  0  0  0  0  0  0  0
    0.0117    2.7976    1.8215 C   0  0  0  0  0  0  0  0  0  0  0  0
   -0.9205    2.8525    2.3932 H   0  0  0  0  0  0  0  0  0  0  0  0
    0.8348    3.0945    2.4783 H   0  0  0  0  0  0  0  0  0  0  0  0
   -0.0424    3.5058    0.9883 H   0  0  0  0  0  0  0  0  0  0  0  0
  1  2  1  0  0  0  0
  2  3  1  0  0  0  0
  2  4  1  0  0  0  0
  2  5  1  0  0  0  0
  5  6  2  0  0  0  0
  5  7  1  0  0  0  0
  7  8  1  0  0  0  0
  7  9  1  0  0  0  0
  9 10  1  0  0  0  0
  9 11  1  0  0  0  0
  9 22  1  0  0  0  0
 11 12  1  0  0  0  0
 11 13  1  0  0  0  0
 11 14  1  0  0  0  0
 14 15  1  0  0  0  0
 14 20  2  0  0  0  0
 15 16  2  0  0  0  0
 16 17  1  0  0  0  0
 16 18  1  0  0  0  0
 18 19  1  0  0  0  0
 18 20  1  0  0  0  0
 20 21  1  0  0  0  0
 22 23  2  0  0  0  0
 22 24  1  0  0  0  0
 24 25  1  0  0  0  0
 24 26  1  0  0  0  0
 26 27  1  0  0  0  0
 26 28  1  0  0  0  0
 26 29  1  0  0  0  0
M  END
$$$$

  -OEChem-04042215593D

 29 29  0     1  0  0  0  0  0999 V2000
   -2.7381   -4.4423    1.3024 H   0  0  0  0  0  0  0  0  0  0  0  0
   -2.9104   -3.4464    0.8849 C   0  0  0  0  0  0  0  0  0  0  0  0
   -3.4896   -2.8596    1.6020 H   0  0  0  0  0  0  0  0  0  0  0  0
   -3.4826   -3.5462   -0.0406 H   0  0  0  0  0  0  0  0  0  0  0  0
   -1.5869   -2.7599    0.6038 C   0  0  0  0  0  0  0  0  0  0  0  0
   -0.5386   -3.3534    0.8008 O   0  0  0  0  0  0  0  0  0  0  0  0
   -1.5803   -1.4737    0.1079 N   0  0  0  0  0  0  0  0  0  0  0  0
   -2.4765   -0.9908    0.0704 H   0  0  0  0  0  0  0  0  0  0  0  0
   -0.3856   -0.6235    0.0047 C   0  0  1  0  0  0  0  0  0  0  0  0
    0.3859   -1.0364    0.6643 H   0  0  0  0  0  0  0  0  0  0  0  0
    0.1512   -0.6226   -1.4331 C   0  0  0  0  0  0  0  0  0  0  0  0
   -0.0760   -1.5781   -1.9149 H   0  0  0  0  0  0  0  0  0  0  0  0
   -0.3326    0.1685   -2.0137 H   0  0  0  0  0  0  0  0  0  0  0  0
    1.6409   -0.4211   -1.4372 C   0  0  0  0  0  0  0  0  0  0  0  0
    2.3134    0.5272   -0.6700 N   0  0  0  0  0  0  0  0  0  0  0  0
    3.5899    0.3828   -0.9401 C   0  0  0  0  0  0  0  0  0  0  0  0
    4.3876    0.9773   -0.5037 H   0  0  0  0  0  0  0  0  0  0  0  0
    3.7687   -0.6366   -1.8556 N   0  0  0  0  0  0  0  0  0  0  0  0
    4.6669   -0.9509   -2.2187 H   0  0  0  0  0  0  0  0  0  0  0  0
    2.5304   -1.1537   -2.1713 C   0  0  0  0  0  0  0  0  0  0  0  0
    2.2940   -1.9702   -2.8476 H   0  0  0  0  0  0  0  0  0  0  0  0
   -0.6759    0.8070    0.5037 C   0  0  0  0  0  0  0  0  0  0  0  0
   -1.7866    1.2951    0.3129 O   0  0  0  0  0  0  0  0  0  0  0  0
    0.2210    1.4473    1.3360 N   0  0  0  0  0  0  0  0  0  0  0  0
    1.1827    1.1168    1.2500 H   0  0  0  0  0  0  0  0  0  0  0  0
    0.0050    2.8011    1.8286 C   0  0  0  0  0  0  0  0  0  0  0  0
   -0.9334    2.8609    2.3897 H   0  0  0  0  0  0  0  0  0  0  0  0
    0.8218    3.0936    2.4952 H   0  0  0  0  0  0  0  0  0  0  0  0
   -0.0361    3.5096    0.9949 H   0  0  0  0  0  0  0  0  0  0  0  0
  1  2  1  0  0  0  0
  2  3  1  0  0  0  0
  2  4  1  0  0  0  0
  2  5  1  0  0  0  0
  5  6  2  0  0  0  0
  5  7  1  0  0  0  0
  7  8  1  0  0  0  0
  7  9  1  0  0  0  0
  9 10  1  0  0  0  0
  9 11  1  0  0  0  0
  9 22  1  0  0  0  0
 11 12  1  0  0  0  0
 11 13  1  0  0  0  0
 11 14  1  0  0  0  0
 14 15  1  0  0  0  0
 14 20  2  0  0  0  0
 15 16  2  0  0  0  0
 16 17  1  0  0  0  0
 16 18  1  0  0  0  0
 18 19  1  0  0  0  0
 18 20  1  0  0  0  0
 20 21  1  0  0  0  0
 22 23  2  0  0  0  0
 22 24  1  0  0  0  0
 24 25  1  0  0  0  0
 24 26  1  0  0  0  0
 26 27  1  0  0  0  0
 26 28  1  0  0  0  0
 26 29  1  0  0  0  0
M  END
$$$$

  -OEChem-04042215593D

 29 29  0     1  0  0  0  0  0999 V2000
   -2.7279   -4.4576    1.2981 H   0  0  0  0  0  0  0  0  0  0  0  0
   -2.9079   -3.4619    0.8832 C   0  0  0  0  0  0  0  0  0  0  0  0
   -3.4909   -2.8814    1.6023 H   0  0  0  0  0  0  0  0  0  0  0  0
   -3.4797   -3.5638   -0.0422 H   0  0  0  0  0  0  0  0  0  0  0  0
   -1.5891   -2.7657    0.6030 C   0  0  0  0  0  0  0  0  0  0  0  0
   -0.5384   -3.3546    0.7999 O   0  0  0  0  0  0  0  0  0  0  0  0
   -1.5891   -1.4779    0.1098 N   0  0  0  0  0  0  0  0  0  0  0  0
   -2.4884   -1.0013    0.0678 H   0  0  0  0  0  0  0  0  0  0  0  0
   -0.3986   -0.6208    0.0090 C   0  0  1  0  0  0  0  0  0  0  0  0
    0.3695   -1.0351    0.6718 H   0  0  0  0  0  0  0  0  0  0  0  0
    0.1465   -0.6170   -1.4268 C   0  0  0  0  0  0  0  0  0  0  0  0
   -0.0740   -1.5740   -1.9090 H   0  0  0  0  0  0  0  0  0  0  0  0
   -0.3427    0.1707   -2.0073 H   0  0  0  0  0  0  0  0  0  0  0  0
    1.6364   -0.4054   -1.4415 C   0  0  0  0  0  0  0  0  0  0  0  0
    2.3537    0.3228   -0.4932 N   0  0  0  0  0  0  0  0  0  0  0  0
    3.6165    0.2420   -0.8422 C   0  0  0  0  0  0  0  0  0  0  0  0
    4.4397    0.7044   -0.3048 H   0  0  0  0  0  0  0  0  0  0  0  0
    3.7436   -0.5176   -1.9892 N   0  0  0  0  0  0  0  0  0  0  0  0
    4.6227   -0.7396   -2.4531 H   0  0  0  0  0  0  0  0  0  0  0  0
    2.4866   -0.9360   -2.3702 C   0  0  0  0  0  0  0  0  0  0  0  0
    2.2127   -1.5607   -3.2154 H   0  0  0  0  0  0  0  0  0  0  0  0
   -0.6849    0.8090    0.5083 C   0  0  0  0  0  0  0  0  0  0  0  0
   -1.7859    1.3110    0.2998 O   0  0  0  0  0  0  0  0  0  0  0  0
    0.2164    1.4442    1.3390 N   0  0  0  0  0  0  0  0  0  0  0  0
    1.1704    1.0846    1.2792 H   0  0  0  0  0  0  0  0  0  0  0  0
    0.0219    2.8055    1.8186 C   0  0  0  0  0  0  0  0  0  0  0  0
   -0.9154    2.8847    2.3791 H   0  0  0  0  0  0  0  0  0  0  0  0
    0.8436    3.0913    2.4821 H   0  0  0  0  0  0  0  0  0  0  0  0
   -0.0083    3.5065    0.9781 H   0  0  0  0  0  0  0  0  0  0  0  0
  1  2  1  0  0  0  0
  2  3  1  0  0  0  0
  2  4  1  0  0  0  0
  2  5  1  0  0  0  0
  5  6  2  0  0  0  0
  5  7  1  0  0  0  0
  7  8  1  0  0  0  0
  7  9  1  0  0  0  0
  9 10  1  0  0  0  0
  9 11  1  0  0  0  0
  9 22  1  0  0  0  0
 11 12  1  0  0  0  0
 11 13  1  0  0  0  0
 11 14  1  0  0  0  0
 14 15  1  0  0  0  0
 14 20  2  0  0  0  0
 15 16  2  0  0  0  0
 16 17  1  0  0  0  0
 16 18  1  0  0  0  0
 18 19  1  0  0  0  0
 18 20  1  0  0  0  0
 20 21  1  0  0  0  0
 22 23  2  0  0  0  0
 22 24  1  0  0  0  0
 24 25  1  0  0  0  0
 24 26  1  0  0  0  0
 26 27  1  0  0  0  0
 26 28  1  0  0  0  0
 26 29  1  0  0  0  0
M  END
$$$$

  -OEChem-04042215593D

 29 29  0     1  0  0  0  0  0999 V2000
   -2.7333   -4.4762    1.2830 H   0  0  0  0  0  0  0  0  0  0  0  0
   -2.9144   -3.4786    0.8730 C   0  0  0  0  0  0  0  0  0  0  0  0
   -3.5082   -2.9065    1.5900 H   0  0  0  0  0  0  0  0  0  0  0  0
   -3.4759   -3.5774   -0.0591 H   0  0  0  0  0  0  0  0  0  0  0  0
   -1.5962   -2.7738    0.6119 C   0  0  0  0  0  0  0  0  0  0  0  0
   -0.5454   -3.3558    0.8265 O   0  0  0  0  0  0  0  0  0  0  0  0
   -1.5991   -1.4865    0.1173 N   0  0  0  0  0  0  0  0  0  0  0  0
   -2.5025   -1.0208    0.0541 H   0  0  0  0  0  0  0  0  0  0  0  0
   -0.4153   -0.6198    0.0172 C   0  0  1  0  0  0  0  0  0  0  0  0
    0.3452   -1.0346    0.6880 H   0  0  0  0  0  0  0  0  0  0  0  0
    0.1436   -0.6241   -1.4138 C   0  0  0  0  0  0  0  0  0  0  0  0
   -0.0587   -1.5919   -1.8821 H   0  0  0  0  0  0  0  0  0  0  0  0
   -0.3554    0.1463   -2.0093 H   0  0  0  0  0  0  0  0  0  0  0  0
    1.6320   -0.3971   -1.4334 C   0  0  0  0  0  0  0  0  0  0  0  0
    2.3965    0.0859   -0.3712 N   0  0  0  0  0  0  0  0  0  0  0  0
    3.6412    0.1004   -0.7871 C   0  0  0  0  0  0  0  0  0  0  0  0
    4.4910    0.4229   -0.1921 H   0  0  0  0  0  0  0  0  0  0  0  0
    3.7106   -0.3529   -2.0903 N   0  0  0  0  0  0  0  0  0  0  0  0
    4.5659   -0.4472   -2.6352 H   0  0  0  0  0  0  0  0  0  0  0  0
    2.4352   -0.6748   -2.5031 C   0  0  0  0  0  0  0  0  0  0  0  0
    2.1188   -1.0740   -3.4622 H   0  0  0  0  0  0  0  0  0  0  0  0
   -0.6898    0.8131    0.5076 C   0  0  0  0  0  0  0  0  0  0  0  0
   -1.7778    1.3339    0.2802 O   0  0  0  0  0  0  0  0  0  0  0  0
    0.2215    1.4419    1.3321 N   0  0  0  0  0  0  0  0  0  0  0  0
    1.1623    1.0445    1.3128 H   0  0  0  0  0  0  0  0  0  0  0  0
    0.0525    2.8088    1.8053 C   0  0  0  0  0  0  0  0  0  0  0  0
   -0.8863    2.9098    2.3599 H   0  0  0  0  0  0  0  0  0  0  0  0
    0.8762    3.0801    2.4726 H   0  0  0  0  0  0  0  0  0  0  0  0
    0.0419    3.5072    0.9621 H   0  0  0  0  0  0  0  0  0  0  0  0
  1  2  1  0  0  0  0
  2  3  1  0  0  0  0
  2  4  1  0  0  0  0
  2  5  1  0  0  0  0
  5  6  2  0  0  0  0
  5  7  1  0  0  0  0
  7  8  1  0  0  0  0
  7  9  1  0  0  0  0
  9 10  1  0  0  0  0
  9 11  1  0  0  0  0
  9 22  1  0  0  0  0
 11 12  1  0  0  0  0
 11 13  1  0  0  0  0
 11 14  1  0  0  0  0
 14 15  1  0  0  0  0
 14 20  2  0  0  0  0
 15 16  2  0  0  0  0
 16 17  1  0  0  0  0
 16 18  1  0  0  0  0
 18 19  1  0  0  0  0
 18 20  1  0  0  0  0
 20 21  1  0  0  0  0
 22 23  2  0  0  0  0
 22 24  1  0  0  0  0
 24 25  1  0  0  0  0
 24 26  1  0  0  0  0
 26 27  1  0  0  0  0
 26 28  1  0  0  0  0
 26 29  1  0  0  0  0
M  END
$$$$

  -OEChem-04042215593D

 29 29  0     1  0  0  0  0  0999 V2000
   -2.7473   -4.4852    1.2908 H   0  0  0  0  0  0  0  0  0  0  0  0
   -2.9266   -3.4932    0.8666 C   0  0  0  0  0  0  0  0  0  0  0  0
   -3.5369   -2.9164    1.5658 H   0  0  0  0  0  0  0  0  0  0  0  0
   -3.4700   -3.6052   -0.0746 H   0  0  0  0  0  0  0  0  0  0  0  0
   -1.6080   -2.7836    0.6217 C   0  0  0  0  0  0  0  0  0  0  0  0
   -0.5587   -3.3620    0.8509 O   0  0  0  0  0  0  0  0  0  0  0  0
   -1.6119   -1.4968    0.1251 N   0  0  0  0  0  0  0  0  0  0  0  0
   -2.5176   -1.0384    0.0477 H   0  0  0  0  0  0  0  0  0  0  0  0
   -0.4321   -0.6245    0.0217 C   0  0  1  0  0  0  0  0  0  0  0  0
    0.3190   -1.0397    0.7020 H   0  0  0  0  0  0  0  0  0  0  0  0
    0.1393   -0.6415   -1.4046 C   0  0  0  0  0  0  0  0  0  0  0  0
   -0.0448   -1.6229   -1.8513 H   0  0  0  0  0  0  0  0  0  0  0  0
   -0.3672    0.1066   -2.0219 H   0  0  0  0  0  0  0  0  0  0  0  0
    1.6267   -0.4033   -1.4238 C   0  0  0  0  0  0  0  0  0  0  0  0
    2.4399   -0.1850   -0.3121 N   0  0  0  0  0  0  0  0  0  0  0  0
    3.6622   -0.0409   -0.7665 C   0  0  0  0  0  0  0  0  0  0  0  0
    4.5373    0.1385   -0.1481 H   0  0  0  0  0  0  0  0  0  0  0  0
    3.6697   -0.1463   -2.1440 N   0  0  0  0  0  0  0  0  0  0  0  0
    4.4968   -0.0772   -2.7342 H   0  0  0  0  0  0  0  0  0  0  0  0
    2.3775   -0.3777   -2.5653 C   0  0  0  0  0  0  0  0  0  0  0  0
    2.0164   -0.5203   -3.5795 H   0  0  0  0  0  0  0  0  0  0  0  0
   -0.6881    0.8127    0.5029 C   0  0  0  0  0  0  0  0  0  0  0  0
   -1.7617    1.3545    0.2592 O   0  0  0  0  0  0  0  0  0  0  0  0
    0.2372    1.4335    1.3182 N   0  0  0  0  0  0  0  0  0  0  0  0
    1.1601    0.9973    1.3437 H   0  0  0  0  0  0  0  0  0  0  0  0
    0.0954    2.8063    1.7826 C   0  0  0  0  0  0  0  0  0  0  0  0
   -0.8553    2.9366    2.3102 H   0  0  0  0  0  0  0  0  0  0  0  0
    0.9072    3.0565    2.4722 H   0  0  0  0  0  0  0  0  0  0  0  0
    0.1283    3.5012    0.9373 H   0  0  0  0  0  0  0  0  0  0  0  0
  1  2  1  0  0  0  0
  2  3  1  0  0  0  0
  2  4  1  0  0  0  0
  2  5  1  0  0  0  0
  5  6  2  0  0  0  0
  5  7  1  0  0  0  0
  7  8  1  0  0  0  0
  7  9  1  0  0  0  0
  9 10  1  0  0  0  0
  9 11  1  0  0  0  0
  9 22  1  0  0  0  0
 11 12  1  0  0  0  0
 11 13  1  0  0  0  0
 11 14  1  0  0  0  0
 14 15  1  0  0  0  0
 14 20  2  0  0  0  0
 15 16  2  0  0  0  0
 16 17  1  0  0  0  0
 16 18  1  0  0  0  0
 18 19  1  0  0  0  0
 18 20  1  0  0  0  0
 20 21  1  0  0  0  0
 22 23  2  0  0  0  0
 22 24  1  0  0  0  0
 24 25  1  0  0  0  0
 24 26  1  0  0  0  0
 26 27  1  0  0  0  0
 26 28  1  0  0  0  0
 26 29  1  0  0  0  0
M  END
$$$$

  -OEChem-04042215593D

 29 29  0     1  0  0  0  0  0999 V2000
   -2.7585   -4.4895    1.2829 H   0  0  0  0  0  0  0  0  0  0  0  0
   -2.9326   -3.4978    0.8558 C   0  0  0  0  0  0  0  0  0  0  0  0
   -3.5591   -2.9242    1.5431 H   0  0  0  0  0  0  0  0  0  0  0  0
   -3.4562   -3.6113   -0.0964 H   0  0  0  0  0  0  0  0  0  0  0  0
   -1.6115   -2.7835    0.6387 C   0  0  0  0  0  0  0  0  0  0  0  0
   -0.5667   -3.3539    0.9039 O   0  0  0  0  0  0  0  0  0  0  0  0
   -1.6093   -1.5001    0.1324 N   0  0  0  0  0  0  0  0  0  0  0  0
   -2.5152   -1.0499    0.0201 H   0  0  0  0  0  0  0  0  0  0  0  0
   -0.4293   -0.6273    0.0286 C   0  0  1  0  0  0  0  0  0  0  0  0
    0.3193   -1.0384    0.7136 H   0  0  0  0  0  0  0  0  0  0  0  0
    0.1401   -0.6546   -1.3993 C   0  0  0  0  0  0  0  0  0  0  0  0
   -0.0363   -1.6459   -1.8272 H   0  0  0  0  0  0  0  0  0  0  0  0
   -0.3751    0.0765   -2.0296 H   0  0  0  0  0  0  0  0  0  0  0  0
    1.6270   -0.4169   -1.4296 C   0  0  0  0  0  0  0  0  0  0  0  0
    2.4968   -0.4788   -0.3436 N   0  0  0  0  0  0  0  0  0  0  0  0
    3.6945   -0.2086   -0.8048 C   0  0  0  0  0  0  0  0  0  0  0  0
    4.5999   -0.1841   -0.2050 H   0  0  0  0  0  0  0  0  0  0  0  0
    3.6301    0.0467   -2.1608 N   0  0  0  0  0  0  0  0  0  0  0  0
    4.4249    0.2787   -2.7538 H   0  0  0  0  0  0  0  0  0  0  0  0
    2.3169   -0.0814   -2.5609 C   0  0  0  0  0  0  0  0  0  0  0  0
    1.9025    0.0456   -3.5567 H   0  0  0  0  0  0  0  0  0  0  0  0
   -0.6803    0.8150    0.4948 C   0  0  0  0  0  0  0  0  0  0  0  0
   -1.7374    1.3720    0.2176 O   0  0  0  0  0  0  0  0  0  0  0  0
    0.2445    1.4394    1.3086 N   0  0  0  0  0  0  0  0  0  0  0  0
    1.1423    0.9670    1.4133 H   0  0  0  0  0  0  0  0  0  0  0  0
    0.1071    2.8117    1.7764 C   0  0  0  0  0  0  0  0  0  0  0  0
   -0.8413    2.9426    2.3081 H   0  0  0  0  0  0  0  0  0  0  0  0
    0.9225    3.0592    2.4629 H   0  0  0  0  0  0  0  0  0  0  0  0
    0.1380    3.5085    0.9325 H   0  0  0  0  0  0  0  0  0  0  0  0
  1  2  1  0  0  0  0
  2  3  1  0  0  0  0
  2  4  1  0  0  0  0
  2  5  1  0  0  0  0
  5  6  2  0  0  0  0
  5  7  1  0  0  0  0
  7  8  1  0  0  0  0
  7  9  1  0  0  0  0
  9 10  1  0  0  0  0
  9 11  1  0  0  0  0
  9 22  1  0  0  0  0
 11 12  1  0  0  0  0
 11 13  1  0  0  0  0
 11 14  1  0  0  0  0
 14 15  1  0  0  0  0
 14 20  2  0  0  0  0
 15 16  2  0  0  0  0
 16 17  1  0  0  0  0
 16 18  1  0  0  0  0
 18 19  1  0  0  0  0
 18 20  1  0  0  0  0
 20 21  1  0  0  0  0
 22 23  2  0  0  0  0
 22 24  1  0  0  0  0
 24 25  1  0  0  0  0
 24 26  1  0  0  0  0
 26 27  1  0  0  0  0
 26 28  1  0  0  0  0
 26 29  1  0  0  0  0
M  END
$$$$

  -OEChem-04042215593D

 29 29  0     1  0  0  0  0  0999 V2000
   -2.7548   -4.4911    1.2664 H   0  0  0  0  0  0  0  0  0  0  0  0
   -2.9246   -3.4983    0.8401 C   0  0  0  0  0  0  0  0  0  0  0  0
   -3.5702   -2.9313    1.5150 H   0  0  0  0  0  0  0  0  0  0  0  0
   -3.4252   -3.6105   -0.1245 H   0  0  0  0  0  0  0  0  0  0  0  0
   -1.6030   -2.7755    0.6569 C   0  0  0  0  0  0  0  0  0  0  0  0
   -0.5635   -3.3338    0.9641 O   0  0  0  0  0  0  0  0  0  0  0  0
   -1.5954   -1.4952    0.1429 N   0  0  0  0  0  0  0  0  0  0  0  0
   -2.5002   -1.0525   -0.0030 H   0  0  0  0  0  0  0  0  0  0  0  0
   -0.4134   -0.6254    0.0355 C   0  0  1  0  0  0  0  0  0  0  0  0
    0.3435   -1.0321    0.7138 H   0  0  0  0  0  0  0  0  0  0  0  0
    0.1361   -0.6519   -1.4008 C   0  0  0  0  0  0  0  0  0  0  0  0
   -0.0469   -1.6432   -1.8257 H   0  0  0  0  0  0  0  0  0  0  0  0
   -0.3872    0.0788   -2.0250 H   0  0  0  0  0  0  0  0  0  0  0  0
    1.6228   -0.4222   -1.4483 C   0  0  0  0  0  0  0  0  0  0  0  0
    2.5404   -0.7693   -0.4626 N   0  0  0  0  0  0  0  0  0  0  0  0
    3.7203   -0.3948   -0.8945 C   0  0  0  0  0  0  0  0  0  0  0  0
    4.6526   -0.5341   -0.3544 H   0  0  0  0  0  0  0  0  0  0  0  0
    3.5976    0.2078   -2.1316 N   0  0  0  0  0  0  0  0  0  0  0  0
    4.3681    0.5824   -2.6821 H   0  0  0  0  0  0  0  0  0  0  0  0
    2.2648    0.1958   -2.4851 C   0  0  0  0  0  0  0  0  0  0  0  0
    1.8065    0.5832   -3.3904 H   0  0  0  0  0  0  0  0  0  0  0  0
   -0.6699    0.8185    0.4946 C   0  0  0  0  0  0  0  0  0  0  0  0
   -1.7185    1.3789    0.1934 O   0  0  0  0  0  0  0  0  0  0  0  0
    0.2477    1.4535    1.3088 N   0  0  0  0  0  0  0  0  0  0  0  0
    1.1263    0.9654    1.4750 H   0  0  0  0  0  0  0  0  0  0  0  0
    0.0939    2.8223    1.7817 C   0  0  0  0  0  0  0  0  0  0  0  0
   -0.8467    2.9351    2.3310 H   0  0  0  0  0  0  0  0  0  0  0  0
    0.9173    3.0844    2.4529 H   0  0  0  0  0  0  0  0  0  0  0  0
    0.0968    3.5206    0.9385 H   0  0  0  0  0  0  0  0  0  0  0  0
  1  2  1  0  0  0  0
  2  3  1  0  0  0  0
  2  4  1  0  0  0  0
  2  5  1  0  0  0  0
  5  6  2  0  0  0  0
  5  7  1  0  0  0  0
  7  8  1  0  0  0  0
  7  9  1  0  0  0  0
  9 10  1  0  0  0  0
  9 11  1  0  0  0  0
  9 22  1  0  0  0  0
 11 12  1  0  0  0  0
 11 13  1  0  0  0  0
 11 14  1  0  0  0  0
 14 15  1  0  0  0  0
 14 20  2  0  0  0  0
 15 16  2  0  0  0  0
 16 17  1  0  0  0  0
 16 18  1  0  0  0  0
 18 19  1  0  0  0  0
 18 20  1  0  0  0  0
 20 21  1  0  0  0  0
 22 23  2  0  0  0  0
 22 24  1  0  0  0  0
 24 25  1  0  0  0  0
 24 26  1  0  0  0  0
 26 27  1  0  0  0  0
 26 28  1  0  0  0  0
 26 29  1  0  0  0  0
M  END
$$$$

  -OEChem-04042215593D

 29 29  0     1  0  0  0  0  0999 V2000
   -2.7369   -4.4937    1.2512 H   0  0  0  0  0  0  0  0  0  0  0  0
   -2.9065   -3.5013    0.8239 C   0  0  0  0  0  0  0  0  0  0  0  0
   -3.5721   -2.9420    1.4857 H   0  0  0  0  0  0  0  0  0  0  0  0
   -3.3844   -3.6154   -0.1520 H   0  0  0  0  0  0  0  0  0  0  0  0
   -1.5878   -2.7660    0.6724 C   0  0  0  0  0  0  0  0  0  0  0  0
   -0.5528   -3.3084    1.0202 O   0  0  0  0  0  0  0  0  0  0  0  0
   -1.5799   -1.4875    0.1542 N   0  0  0  0  0  0  0  0  0  0  0  0
   -2.4839   -1.0566   -0.0269 H   0  0  0  0  0  0  0  0  0  0  0  0
   -0.3984   -0.6184    0.0394 C   0  0  1  0  0  0  0  0  0  0  0  0
    0.3740   -1.0210    0.7036 H   0  0  0  0  0  0  0  0  0  0  0  0
    0.1250   -0.6397   -1.4068 C   0  0  0  0  0  0  0  0  0  0  0  0
   -0.0661   -1.6266   -1.8380 H   0  0  0  0  0  0  0  0  0  0  0  0
   -0.4046    0.0974   -2.0180 H   0  0  0  0  0  0  0  0  0  0  0  0
    1.6102   -0.4138   -1.4658 C   0  0  0  0  0  0  0  0  0  0  0  0
    2.5557   -1.0177   -0.6469 N   0  0  0  0  0  0  0  0  0  0  0  0
    3.7266   -0.5618   -1.0205 C   0  0  0  0  0  0  0  0  0  0  0  0
    4.6755   -0.8489   -0.5762 H   0  0  0  0  0  0  0  0  0  0  0  0
    3.5705    0.3397   -2.0560 N   0  0  0  0  0  0  0  0  0  0  0  0
    4.3279    0.8308   -2.5276 H   0  0  0  0  0  0  0  0  0  0  0  0
    2.2249    0.4379   -2.3408 C   0  0  0  0  0  0  0  0  0  0  0  0
    1.7407    1.0498   -3.0963 H   0  0  0  0  0  0  0  0  0  0  0  0
   -0.6629    0.8251    0.4971 C   0  0  0  0  0  0  0  0  0  0  0  0
   -1.7055    1.3871    0.1791 O   0  0  0  0  0  0  0  0  0  0  0  0
    0.2505    1.4698    1.3092 N   0  0  0  0  0  0  0  0  0  0  0  0
    1.1100    0.9693    1.5260 H   0  0  0  0  0  0  0  0  0  0  0  0
    0.0802    2.8336    1.7919 C   0  0  0  0  0  0  0  0  0  0  0  0
   -0.8552    2.9282    2.3534 H   0  0  0  0  0  0  0  0  0  0  0  0
    0.9081    3.1055    2.4539 H   0  0  0  0  0  0  0  0  0  0  0  0
    0.0612    3.5365    0.9526 H   0  0  0  0  0  0  0  0  0  0  0  0
  1  2  1  0  0  0  0
  2  3  1  0  0  0  0
  2  4  1  0  0  0  0
  2  5  1  0  0  0  0
  5  6  2  0  0  0  0
  5  7  1  0  0  0  0
  7  8  1  0  0  0  0
  7  9  1  0  0  0  0
  9 10  1  0  0  0  0
  9 11  1  0  0  0  0
  9 22  1  0  0  0  0
 11 12  1  0  0  0  0
 11 13  1  0  0  0  0
 11 14  1  0  0  0  0
 14 15  1  0  0  0  0
 14 20  2  0  0  0  0
 15 16  2  0  0  0  0
 16 17  1  0  0  0  0
 16 18  1  0  0  0  0
 18 19  1  0  0  0  0
 18 20  1  0  0  0  0
 20 21  1  0  0  0  0
 22 23  2  0  0  0  0
 22 24  1  0  0  0  0
 24 25  1  0  0  0  0
 24 26  1  0  0  0  0
 26 27  1  0  0  0  0
 26 28  1  0  0  0  0
 26 29  1  0  0  0  0
M  END
$$$$

  -OEChem-04042215593D

 29 29  0     1  0  0  0  0  0999 V2000
   -2.7143   -4.5015    1.2336 H   0  0  0  0  0  0  0  0  0  0  0  0
   -2.8863   -3.5095    0.8064 C   0  0  0  0  0  0  0  0  0  0  0  0
   -3.5717   -2.9601    1.4562 H   0  0  0  0  0  0  0  0  0  0  0  0
   -3.3429   -3.6257   -0.1794 H   0  0  0  0  0  0  0  0  0  0  0  0
   -1.5731   -2.7587    0.6845 C   0  0  0  0  0  0  0  0  0  0  0  0
   -0.5413   -3.2838    1.0664 O   0  0  0  0  0  0  0  0  0  0  0  0
   -1.5679   -1.4804    0.1658 N   0  0  0  0  0  0  0  0  0  0  0  0
   -2.4710   -1.0620   -0.0455 H   0  0  0  0  0  0  0  0  0  0  0  0
   -0.3879   -0.6104    0.0441 C   0  0  1  0  0  0  0  0  0  0  0  0
    0.3992   -1.0115    0.6923 H   0  0  0  0  0  0  0  0  0  0  0  0
    0.1125   -0.6234   -1.4099 C   0  0  0  0  0  0  0  0  0  0  0  0
   -0.0860   -1.6035   -1.8534 H   0  0  0  0  0  0  0  0  0  0  0  0
   -0.4199    0.1247   -2.0052 H   0  0  0  0  0  0  0  0  0  0  0  0
    1.5954   -0.3984   -1.4724 C   0  0  0  0  0  0  0  0  0  0  0  0
    2.5523   -1.2096   -0.8792 N   0  0  0  0  0  0  0  0  0  0  0  0
    3.7202   -0.6927   -1.1744 C   0  0  0  0  0  0  0  0  0  0  0  0
    4.6768   -1.0999   -0.8595 H   0  0  0  0  0  0  0  0  0  0  0  0
    3.5501    0.4451   -1.9403 N   0  0  0  0  0  0  0  0  0  0  0  0
    4.3031    1.0238   -2.3081 H   0  0  0  0  0  0  0  0  0  0  0  0
    2.1980    0.6348   -2.1338 C   0  0  0  0  0  0  0  0  0  0  0  0
    1.7015    1.4241   -2.6910 H   0  0  0  0  0  0  0  0  0  0  0  0
   -0.6588    0.8318    0.5050 C   0  0  0  0  0  0  0  0  0  0  0  0
   -1.6971    1.3948    0.1752 O   0  0  0  0  0  0  0  0  0  0  0  0
    0.2521    1.4839    1.3143 N   0  0  0  0  0  0  0  0  0  0  0  0
    1.0985    0.9772    1.5639 H   0  0  0  0  0  0  0  0  0  0  0  0
    0.0707    2.8459    1.7985 C   0  0  0  0  0  0  0  0  0  0  0  0
   -0.8629    2.9317    2.3641 H   0  0  0  0  0  0  0  0  0  0  0  0
    0.8989    3.1257    2.4565 H   0  0  0  0  0  0  0  0  0  0  0  0
    0.0416    3.5488    0.9596 H   0  0  0  0  0  0  0  0  0  0  0  0
  1  2  1  0  0  0  0
  2  3  1  0  0  0  0
  2  4  1  0  0  0  0
  2  5  1  0  0  0  0
  5  6  2  0  0  0  0
  5  7  1  0  0  0  0
  7  8  1  0  0  0  0
  7  9  1  0  0  0  0
  9 10  1  0  0  0  0
  9 11  1  0  0  0  0
  9 22  1  0  0  0  0
 11 12  1  0  0  0  0
 11 13  1  0  0  0  0
 11 14  1  0  0  0  0
 14 15  1  0  0  0  0
 14 20  2  0  0  0  0
 15 16  2  0  0  0  0
 16 17  1  0  0  0  0
 16 18  1  0  0  0  0
 18 19  1  0  0  0  0
 18 20  1  0  0  0  0
 20 21  1  0  0  0  0
 22 23  2  0  0  0  0
 22 24  1  0  0  0  0
 24 25  1  0  0  0  0
 24 26  1  0  0  0  0
 26 27  1  0  0  0  0
 26 28  1  0  0  0  0
 26 29  1  0  0  0  0
M  END
$$$$

  -OEChem-04042215593D

 29 29  0     1  0  0  0  0  0999 V2000
   -2.6959   -4.4967    1.2250 H   0  0  0  0  0  0  0  0  0  0  0  0
   -2.8706   -3.5068    0.7941 C   0  0  0  0  0  0  0  0  0  0  0  0
   -3.5732   -2.9639    1.4310 H   0  0  0  0  0  0  0  0  0  0  0  0
   -3.3078   -3.6283   -0.1998 H   0  0  0  0  0  0  0  0  0  0  0  0
   -1.5635   -2.7428    0.6949 C   0  0  0  0  0  0  0  0  0  0  0  0
   -0.5338   -3.2536    1.1012 O   0  0  0  0  0  0  0  0  0  0  0  0
   -1.5610   -1.4669    0.1706 N   0  0  0  0  0  0  0  0  0  0  0  0
   -2.4630   -1.0584   -0.0639 H   0  0  0  0  0  0  0  0  0  0  0  0
   -0.3815   -0.5982    0.0414 C   0  0  1  0  0  0  0  0  0  0  0  0
    0.4119   -0.9966    0.6841 H   0  0  0  0  0  0  0  0  0  0  0  0
    0.1096   -0.6151   -1.4152 C   0  0  0  0  0  0  0  0  0  0  0  0
   -0.0949   -1.5911   -1.8654 H   0  0  0  0  0  0  0  0  0  0  0  0
   -0.4192    0.1400   -2.0048 H   0  0  0  0  0  0  0  0  0  0  0  0
    1.5914   -0.3914   -1.4727 C   0  0  0  0  0  0  0  0  0  0  0  0
    2.5482   -1.3379   -1.1395 N   0  0  0  0  0  0  0  0  0  0  0  0
    3.7164   -0.7795   -1.3442 C   0  0  0  0  0  0  0  0  0  0  0  0
    4.6740   -1.2646   -1.1773 H   0  0  0  0  0  0  0  0  0  0  0  0
    3.5456    0.5137   -1.8025 N   0  0  0  0  0  0  0  0  0  0  0  0
    4.2982    1.1547   -2.0471 H   0  0  0  0  0  0  0  0  0  0  0  0
    2.1921    0.7624   -1.8925 C   0  0  0  0  0  0  0  0  0  0  0  0
    1.6933    1.6680   -2.2259 H   0  0  0  0  0  0  0  0  0  0  0  0
   -0.6549    0.8453    0.4985 C   0  0  0  0  0  0  0  0  0  0  0  0
   -1.6932    1.4067    0.1667 O   0  0  0  0  0  0  0  0  0  0  0  0
    0.2562    1.5028    1.3036 N   0  0  0  0  0  0  0  0  0  0  0  0
    1.0879    0.9877    1.5825 H   0  0  0  0  0  0  0  0  0  0  0  0
    0.0493    2.8488    1.8211 C   0  0  0  0  0  0  0  0  0  0  0  0
   -0.8454    2.8831    2.4515 H   0  0  0  0  0  0  0  0  0  0  0  0
    0.9090    3.1573    2.4235 H   0  0  0  0  0  0  0  0  0  0  0  0
   -0.0700    3.5622    0.9989 H   0  0  0  0  0  0  0  0  0  0  0  0
  1  2  1  0  0  0  0
  2  3  1  0  0  0  0
  2  4  1  0  0  0  0
  2  5  1  0  0  0  0
  5  6  2  0  0  0  0
  5  7  1  0  0  0  0
  7  8  1  0  0  0  0
  7  9  1  0  0  0  0
  9 10  1  0  0  0  0
  9 11  1  0  0  0  0
  9 22  1  0  0  0  0
 11 12  1  0  0  0  0
 11 13  1  0  0  0  0
 11 14  1  0  0  0  0
 14 15  1  0  0  0  0
 14 20  2  0  0  0  0
 15 16  2  0  0  0  0
 16 17  1  0  0  0  0
 16 18  1  0  0  0  0
 18 19  1  0  0  0  0
 18 20  1  0  0  0  0
 20 21  1  0  0  0  0
 22 23  2  0  0  0  0
 22 24  1  0  0  0  0
 24 25  1  0  0  0  0
 24 26  1  0  0  0  0
 26 27  1  0  0  0  0
 26 28  1  0  0  0  0
 26 29  1  0  0  0  0
M  END
$$$$

  -OEChem-04042215593D

 29 29  0     1  0  0  0  0  0999 V2000
   -2.6864   -4.4978    1.2150 H   0  0  0  0  0  0  0  0  0  0  0  0
   -2.8621   -3.5089    0.7820 C   0  0  0  0  0  0  0  0  0  0  0  0
   -3.5773   -2.9716    1.4094 H   0  0  0  0  0  0  0  0  0  0  0  0
   -3.2846   -3.6331   -0.2179 H   0  0  0  0  0  0  0  0  0  0  0  0
   -1.5592   -2.7356    0.7011 C   0  0  0  0  0  0  0  0  0  0  0  0
   -0.5319   -3.2360    1.1271 O   0  0  0  0  0  0  0  0  0  0  0  0
   -1.5569   -1.4595    0.1767 N   0  0  0  0  0  0  0  0  0  0  0  0
   -2.4565   -1.0586   -0.0791 H   0  0  0  0  0  0  0  0  0  0  0  0
   -0.3766   -0.5919    0.0499 C   0  0  1  0  0  0  0  0  0  0  0  0
    0.4188   -0.9900    0.6899 H   0  0  0  0  0  0  0  0  0  0  0  0
    0.1112   -0.6074   -1.4085 C   0  0  0  0  0  0  0  0  0  0  0  0
   -0.1003   -1.5785   -1.8665 H   0  0  0  0  0  0  0  0  0  0  0  0
   -0.4118    0.1552   -1.9935 H   0  0  0  0  0  0  0  0  0  0  0  0
    1.5929   -0.3872   -1.4674 C   0  0  0  0  0  0  0  0  0  0  0  0
    2.5423   -1.3968   -1.4284 N   0  0  0  0  0  0  0  0  0  0  0  0
    3.7121   -0.8154   -1.5387 C   0  0  0  0  0  0  0  0  0  0  0  0
    4.6656   -1.3360   -1.5413 H   0  0  0  0  0  0  0  0  0  0  0  0
    3.5489    0.5529   -1.6537 N   0  0  0  0  0  0  0  0  0  0  0  0
    4.3036    1.2266   -1.7704 H   0  0  0  0  0  0  0  0  0  0  0  0
    2.1983    0.8292   -1.6178 C   0  0  0  0  0  0  0  0  0  0  0  0
    1.7035    1.7934   -1.6971 H   0  0  0  0  0  0  0  0  0  0  0  0
   -0.6557    0.8507    0.5087 C   0  0  0  0  0  0  0  0  0  0  0  0
   -1.6906    1.4128    0.1682 O   0  0  0  0  0  0  0  0  0  0  0  0
    0.2500    1.5116    1.3176 N   0  0  0  0  0  0  0  0  0  0  0  0
    1.0727    0.9936    1.6167 H   0  0  0  0  0  0  0  0  0  0  0  0
    0.0340    2.8569    1.8338 C   0  0  0  0  0  0  0  0  0  0  0  0
   -0.8677    2.8889    2.4543 H   0  0  0  0  0  0  0  0  0  0  0  0
    0.8861    3.1683    2.4456 H   0  0  0  0  0  0  0  0  0  0  0  0
   -0.0787    3.5692    1.0099 H   0  0  0  0  0  0  0  0  0  0  0  0
  1  2  1  0  0  0  0
  2  3  1  0  0  0  0
  2  4  1  0  0  0  0
  2  5  1  0  0  0  0
  5  6  2  0  0  0  0
  5  7  1  0  0  0  0
  7  8  1  0  0  0  0
  7  9  1  0  0  0  0
  9 10  1  0  0  0  0
  9 11  1  0  0  0  0
  9 22  1  0  0  0  0
 11 12  1  0  0  0  0
 11 13  1  0  0  0  0
 11 14  1  0  0  0  0
 14 15  1  0  0  0  0
 14 20  2  0  0  0  0
 15 16  2  0  0  0  0
 16 17  1  0  0  0  0
 16 18  1  0  0  0  0
 18 19  1  0  0  0  0
 18 20  1  0  0  0  0
 20 21  1  0  0  0  0
 22 23  2  0  0  0  0
 22 24  1  0  0  0  0
 24 25  1  0  0  0  0
 24 26  1  0  0  0  0
 26 27  1  0  0  0  0
 26 28  1  0  0  0  0
 26 29  1  0  0  0  0
M  END
$$$$

  -OEChem-04042215593D

 29 29  0     1  0  0  0  0  0999 V2000
   -2.6752   -4.4917    1.2085 H   0  0  0  0  0  0  0  0  0  0  0  0
   -2.8524   -3.5039    0.7737 C   0  0  0  0  0  0  0  0  0  0  0  0
   -3.5759   -2.9702    1.3945 H   0  0  0  0  0  0  0  0  0  0  0  0
   -3.2652   -3.6307   -0.2300 H   0  0  0  0  0  0  0  0  0  0  0  0
   -1.5531   -2.7238    0.7044 C   0  0  0  0  0  0  0  0  0  0  0  0
   -0.5263   -3.2184    1.1388 O   0  0  0  0  0  0  0  0  0  0  0  0
   -1.5504   -1.4480    0.1794 N   0  0  0  0  0  0  0  0  0  0  0  0
   -2.4477   -1.0501   -0.0892 H   0  0  0  0  0  0  0  0  0  0  0  0
   -0.3685   -0.5814    0.0613 C   0  0  1  0  0  0  0  0  0  0  0  0
    0.4256   -0.9768    0.7045 H   0  0  0  0  0  0  0  0  0  0  0  0
    0.1214   -0.6004   -1.3976 C   0  0  0  0  0  0  0  0  0  0  0  0
   -0.0970   -1.5715   -1.8521 H   0  0  0  0  0  0  0  0  0  0  0  0
   -0.3991    0.1625   -1.9845 H   0  0  0  0  0  0  0  0  0  0  0  0
    1.6041   -0.3859   -1.4699 C   0  0  0  0  0  0  0  0  0  0  0  0
    2.5251   -1.3886   -1.7339 N   0  0  0  0  0  0  0  0  0  0  0  0
    3.7054   -0.8189   -1.7518 C   0  0  0  0  0  0  0  0  0  0  0  0
    4.6423   -1.3385   -1.9322 H   0  0  0  0  0  0  0  0  0  0  0  0
    3.5774    0.5370   -1.5128 N   0  0  0  0  0  0  0  0  0  0  0  0
    4.3463    1.2045   -1.4943 H   0  0  0  0  0  0  0  0  0  0  0  0
    2.2381    0.8193   -1.3433 C   0  0  0  0  0  0  0  0  0  0  0  0
    1.7703    1.7827   -1.1598 H   0  0  0  0  0  0  0  0  0  0  0  0
   -0.6610    0.8591    0.5208 C   0  0  0  0  0  0  0  0  0  0  0  0
   -1.6932    1.4173    0.1668 O   0  0  0  0  0  0  0  0  0  0  0  0
    0.2312    1.5265    1.3398 N   0  0  0  0  0  0  0  0  0  0  0  0
    1.0401    1.0056    1.6697 H   0  0  0  0  0  0  0  0  0  0  0  0
   -0.0068    2.8668    1.8606 C   0  0  0  0  0  0  0  0  0  0  0  0
   -0.9160    2.8850    2.4705 H   0  0  0  0  0  0  0  0  0  0  0  0
    0.8345    3.1848    2.4839 H   0  0  0  0  0  0  0  0  0  0  0  0
   -0.1182    3.5832    1.0398 H   0  0  0  0  0  0  0  0  0  0  0  0
  1  2  1  0  0  0  0
  2  3  1  0  0  0  0
  2  4  1  0  0  0  0
  2  5  1  0  0  0  0
  5  6  2  0  0  0  0
  5  7  1  0  0  0  0
  7  8  1  0  0  0  0
  7  9  1  0  0  0  0
  9 10  1  0  0  0  0
  9 11  1  0  0  0  0
  9 22  1  0  0  0  0
 11 12  1  0  0  0  0
 11 13  1  0  0  0  0
 11 14  1  0  0  0  0
 14 15  1  0  0  0  0
 14 20  2  0  0  0  0
 15 16  2  0  0  0  0
 16 17  1  0  0  0  0
 16 18  1  0  0  0  0
 18 19  1  0  0  0  0
 18 20  1  0  0  0  0
 20 21  1  0  0  0  0
 22 23  2  0  0  0  0
 22 24  1  0  0  0  0
 24 25  1  0  0  0  0
 24 26  1  0  0  0  0
 26 27  1  0  0  0  0
 26 28  1  0  0  0  0
 26 29  1  0  0  0  0
M  END
$$$$

  -OEChem-04042215593D

 29 29  0     1  0  0  0  0  0999 V2000
   -2.6820   -4.4773    1.1913 H   0  0  0  0  0  0  0  0  0  0  0  0
   -2.8511   -3.4892    0.7542 C   0  0  0  0  0  0  0  0  0  0  0  0
   -3.5873   -2.9566    1.3609 H   0  0  0  0  0  0  0  0  0  0  0  0
   -3.2440   -3.6147   -0.2575 H   0  0  0  0  0  0  0  0  0  0  0  0
   -1.5513   -2.7079    0.7114 C   0  0  0  0  0  0  0  0  0  0  0  0
   -0.5324   -3.1986    1.1687 O   0  0  0  0  0  0  0  0  0  0  0  0
   -1.5385   -1.4332    0.1844 N   0  0  0  0  0  0  0  0  0  0  0  0
   -2.4291   -1.0378   -0.1097 H   0  0  0  0  0  0  0  0  0  0  0  0
   -0.3542   -0.5676    0.0872 C   0  0  1  0  0  0  0  0  0  0  0  0
    0.4322   -0.9588    0.7422 H   0  0  0  0  0  0  0  0  0  0  0  0
    0.1496   -0.5987   -1.3689 C   0  0  0  0  0  0  0  0  0  0  0  0
   -0.0710   -1.5759   -1.8096 H   0  0  0  0  0  0  0  0  0  0  0  0
   -0.3690    0.1547   -1.9695 H   0  0  0  0  0  0  0  0  0  0  0  0
    1.6340   -0.3921   -1.4623 C   0  0  0  0  0  0  0  0  0  0  0  0
    2.5038   -1.3219   -2.0142 N   0  0  0  0  0  0  0  0  0  0  0  0
    3.7012   -0.7904   -1.9711 C   0  0  0  0  0  0  0  0  0  0  0  0
    4.6073   -1.2726   -2.3273 H   0  0  0  0  0  0  0  0  0  0  0  0
    3.6352    0.4731   -1.4143 N   0  0  0  0  0  0  0  0  0  0  0  0
    4.4263    1.1031   -1.2944 H   0  0  0  0  0  0  0  0  0  0  0  0
    2.3183    0.7370   -1.1014 C   0  0  0  0  0  0  0  0  0  0  0  0
    1.8996    1.6483   -0.6852 H   0  0  0  0  0  0  0  0  0  0  0  0
   -0.6704    0.8698    0.5419 C   0  0  0  0  0  0  0  0  0  0  0  0
   -1.6975    1.4202    0.1622 O   0  0  0  0  0  0  0  0  0  0  0  0
    0.1970    1.5450    1.3815 N   0  0  0  0  0  0  0  0  0  0  0  0
    0.9778    1.0166    1.7631 H   0  0  0  0  0  0  0  0  0  0  0  0
   -0.0768    2.8758    1.9096 C   0  0  0  0  0  0  0  0  0  0  0  0
   -0.9732    2.8612    2.5383 H   0  0  0  0  0  0  0  0  0  0  0  0
    0.7663    3.2229    2.5146 H   0  0  0  0  0  0  0  0  0  0  0  0
   -0.2309    3.5889    1.0928 H   0  0  0  0  0  0  0  0  0  0  0  0
  1  2  1  0  0  0  0
  2  3  1  0  0  0  0
  2  4  1  0  0  0  0
  2  5  1  0  0  0  0
  5  6  2  0  0  0  0
  5  7  1  0  0  0  0
  7  8  1  0  0  0  0
  7  9  1  0  0  0  0
  9 10  1  0  0  0  0
  9 11  1  0  0  0  0
  9 22  1  0  0  0  0
 11 12  1  0  0  0  0
 11 13  1  0  0  0  0
 11 14  1  0  0  0  0
 14 15  1  0  0  0  0
 14 20  2  0  0  0  0
 15 16  2  0  0  0  0
 16 17  1  0  0  0  0
 16 18  1  0  0  0  0
 18 19  1  0  0  0  0
 18 20  1  0  0  0  0
 20 21  1  0  0  0  0
 22 23  2  0  0  0  0
 22 24  1  0  0  0  0
 24 25  1  0  0  0  0
 24 26  1  0  0  0  0
 26 27  1  0  0  0  0
 26 28  1  0  0  0  0
 26 29  1  0  0  0  0
M  END
$$$$

  -OEChem-04042215593D

 29 29  0     1  0  0  0  0  0999 V2000
   -2.6687   -4.4675    1.1668 H   0  0  0  0  0  0  0  0  0  0  0  0
   -2.8357   -3.4777    0.7329 C   0  0  0  0  0  0  0  0  0  0  0  0
   -3.5856   -2.9530    1.3298 H   0  0  0  0  0  0  0  0  0  0  0  0
   -3.2101   -3.5994   -0.2865 H   0  0  0  0  0  0  0  0  0  0  0  0
   -1.5400   -2.6888    0.7187 C   0  0  0  0  0  0  0  0  0  0  0  0
   -0.5272   -3.1729    1.1970 O   0  0  0  0  0  0  0  0  0  0  0  0
   -1.5211   -1.4155    0.1892 N   0  0  0  0  0  0  0  0  0  0  0  0
   -2.4070   -1.0217   -0.1217 H   0  0  0  0  0  0  0  0  0  0  0  0
   -0.3363   -0.5483    0.1149 C   0  0  1  0  0  0  0  0  0  0  0  0
    0.4441   -0.9332    0.7803 H   0  0  0  0  0  0  0  0  0  0  0  0
    0.1758   -0.5837   -1.3403 C   0  0  0  0  0  0  0  0  0  0  0  0
   -0.0468   -1.5666   -1.7677 H   0  0  0  0  0  0  0  0  0  0  0  0
   -0.3468    0.1594   -1.9497 H   0  0  0  0  0  0  0  0  0  0  0  0
    1.6606   -0.3847   -1.4674 C   0  0  0  0  0  0  0  0  0  0  0  0
    2.4447   -1.1776   -2.2945 N   0  0  0  0  0  0  0  0  0  0  0  0
    3.6738   -0.7351   -2.1920 C   0  0  0  0  0  0  0  0  0  0  0  0
    4.5292   -1.1508   -2.7169 H   0  0  0  0  0  0  0  0  0  0  0  0
    3.7144    0.3392   -1.3241 N   0  0  0  0  0  0  0  0  0  0  0  0
    4.5500    0.8717   -1.0894 H   0  0  0  0  0  0  0  0  0  0  0  0
    2.4344    0.5728   -0.8672 C   0  0  0  0  0  0  0  0  0  0  0  0
    2.1043    1.3618   -0.2008 H   0  0  0  0  0  0  0  0  0  0  0  0
   -0.6844    0.8845    0.5642 C   0  0  0  0  0  0  0  0  0  0  0  0
   -1.7103    1.4195    0.1597 O   0  0  0  0  0  0  0  0  0  0  0  0
    0.1498    1.5739    1.4261 N   0  0  0  0  0  0  0  0  0  0  0  0
    0.9068    1.0472    1.8544 H   0  0  0  0  0  0  0  0  0  0  0  0
   -0.1698    2.8946    1.9542 C   0  0  0  0  0  0  0  0  0  0  0  0
   -1.0859    2.8562    2.5530 H   0  0  0  0  0  0  0  0  0  0  0  0
    0.6454    3.2551    2.5890 H   0  0  0  0  0  0  0  0  0  0  0  0
   -0.3124    3.6107    1.1379 H   0  0  0  0  0  0  0  0  0  0  0  0
  1  2  1  0  0  0  0
  2  3  1  0  0  0  0
  2  4  1  0  0  0  0
  2  5  1  0  0  0  0
  5  6  2  0  0  0  0
  5  7  1  0  0  0  0
  7  8  1  0  0  0  0
  7  9  1  0  0  0  0
  9 10  1  0  0  0  0
  9 11  1  0  0  0  0
  9 22  1  0  0  0  0
 11 12  1  0  0  0  0
 11 13  1  0  0  0  0
 11 14  1  0  0  0  0
 14 15  1  0  0  0  0
 14 20  2  0  0  0  0
 15 16  2  0  0  0  0
 16 17  1  0  0  0  0
 16 18  1  0  0  0  0
 18 19  1  0  0  0  0
 18 20  1  0  0  0  0
 20 21  1  0  0  0  0
 22 23  2  0  0  0  0
 22 24  1  0  0  0  0
 24 25  1  0  0  0  0
 24 26  1  0  0  0  0
 26 27  1  0  0  0  0
 26 28  1  0  0  0  0
 26 29  1  0  0  0  0
M  END
$$$$

  -OEChem-04042215593D

 29 29  0     1  0  0  0  0  0999 V2000
   -2.6661   -4.4629    1.1515 H   0  0  0  0  0  0  0  0  0  0  0  0
   -2.8307   -3.4711    0.7210 C   0  0  0  0  0  0  0  0  0  0  0  0
   -3.5865   -2.9501    1.3135 H   0  0  0  0  0  0  0  0  0  0  0  0
   -3.1957   -3.5885   -0.3022 H   0  0  0  0  0  0  0  0  0  0  0  0
   -1.5362   -2.6803    0.7210 C   0  0  0  0  0  0  0  0  0  0  0  0
   -0.5267   -3.1633    1.2079 O   0  0  0  0  0  0  0  0  0  0  0  0
   -1.5124   -1.4079    0.1899 N   0  0  0  0  0  0  0  0  0  0  0  0
   -2.3951   -1.0142   -0.1306 H   0  0  0  0  0  0  0  0  0  0  0  0
   -0.3283   -0.5387    0.1326 C   0  0  1  0  0  0  0  0  0  0  0  0
    0.4448   -0.9221    0.8070 H   0  0  0  0  0  0  0  0  0  0  0  0
    0.1941   -0.5648   -1.3198 C   0  0  0  0  0  0  0  0  0  0  0  0
   -0.0256   -1.5479   -1.7484 H   0  0  0  0  0  0  0  0  0  0  0  0
   -0.3309    0.1768   -1.9294 H   0  0  0  0  0  0  0  0  0  0  0  0
    1.6791   -0.3667   -1.4620 C   0  0  0  0  0  0  0  0  0  0  0  0
    2.3864   -0.9395   -2.5111 N   0  0  0  0  0  0  0  0  0  0  0  0
    3.6434   -0.6060   -2.3513 C   0  0  0  0  0  0  0  0  0  0  0  0
    4.4534   -0.9025   -3.0114 H   0  0  0  0  0  0  0  0  0  0  0  0
    3.7806    0.1771   -1.2221 N   0  0  0  0  0  0  0  0  0  0  0  0
    4.6579    0.5664   -0.8818 H   0  0  0  0  0  0  0  0  0  0  0  0
    2.5349    0.3319   -0.6514 C   0  0  0  0  0  0  0  0  0  0  0  0
    2.2858    0.8926    0.2410 H   0  0  0  0  0  0  0  0  0  0  0  0
   -0.6934    0.8929    0.5756 C   0  0  0  0  0  0  0  0  0  0  0  0
   -1.7204    1.4152    0.1573 O   0  0  0  0  0  0  0  0  0  0  0  0
    0.1176    1.5933    1.4508 N   0  0  0  0  0  0  0  0  0  0  0  0
    0.8576    1.0714    1.9115 H   0  0  0  0  0  0  0  0  0  0  0  0
   -0.2270    2.9139    1.9642 C   0  0  0  0  0  0  0  0  0  0  0  0
   -1.1545    2.8696    2.5449 H   0  0  0  0  0  0  0  0  0  0  0  0
    0.5711    3.2878    2.6127 H   0  0  0  0  0  0  0  0  0  0  0  0
   -0.3607    3.6227    1.1401 H   0  0  0  0  0  0  0  0  0  0  0  0
  1  2  1  0  0  0  0
  2  3  1  0  0  0  0
  2  4  1  0  0  0  0
  2  5  1  0  0  0  0
  5  6  2  0  0  0  0
  5  7  1  0  0  0  0
  7  8  1  0  0  0  0
  7  9  1  0  0  0  0
  9 10  1  0  0  0  0
  9 11  1  0  0  0  0
  9 22  1  0  0  0  0
 11 12  1  0  0  0  0
 11 13  1  0  0  0  0
 11 14  1  0  0  0  0
 14 15  1  0  0  0  0
 14 20  2  0  0  0  0
 15 16  2  0  0  0  0
 16 17  1  0  0  0  0
 16 18  1  0  0  0  0
 18 19  1  0  0  0  0
 18 20  1  0  0  0  0
 20 21  1  0  0  0  0
 22 23  2  0  0  0  0
 22 24  1  0  0  0  0
 24 25  1  0  0  0  0
 24 26  1  0  0  0  0
 26 27  1  0  0  0  0
 26 28  1  0  0  0  0
 26 29  1  0  0  0  0
M  END
$$$$

  -OEChem-04042215593D

 29 29  0     1  0  0  0  0  0999 V2000
   -2.7001   -4.4581    1.1598 H   0  0  0  0  0  0  0  0  0  0  0  0
   -2.8571   -3.4659    0.7274 C   0  0  0  0  0  0  0  0  0  0  0  0
   -3.6041   -2.9356    1.3231 H   0  0  0  0  0  0  0  0  0  0  0  0
   -3.2305   -3.5821   -0.2929 H   0  0  0  0  0  0  0  0  0  0  0  0
   -1.5546   -2.6879    0.7162 C   0  0  0  0  0  0  0  0  0  0  0  0
   -0.5450   -3.1801    1.1941 O   0  0  0  0  0  0  0  0  0  0  0  0
   -1.5232   -1.4165    0.1834 N   0  0  0  0  0  0  0  0  0  0  0  0
   -2.4050   -1.0163   -0.1316 H   0  0  0  0  0  0  0  0  0  0  0  0
   -0.3382   -0.5485    0.1348 C   0  0  1  0  0  0  0  0  0  0  0  0
    0.4201   -0.9355    0.8225 H   0  0  0  0  0  0  0  0  0  0  0  0
    0.2078   -0.5703   -1.3085 C   0  0  0  0  0  0  0  0  0  0  0  0
   -0.0067   -1.5497   -1.7474 H   0  0  0  0  0  0  0  0  0  0  0  0
   -0.3079    0.1768   -1.9195 H   0  0  0  0  0  0  0  0  0  0  0  0
    1.6950   -0.3697   -1.4329 C   0  0  0  0  0  0  0  0  0  0  0  0
    2.3604   -0.6680   -2.6149 N   0  0  0  0  0  0  0  0  0  0  0  0
    3.6298   -0.4121   -2.4142 C   0  0  0  0  0  0  0  0  0  0  0  0
    4.4150   -0.5452   -3.1528 H   0  0  0  0  0  0  0  0  0  0  0  0
    3.8168    0.0495   -1.1262 N   0  0  0  0  0  0  0  0  0  0  0  0
    4.7142    0.3101   -0.7217 H   0  0  0  0  0  0  0  0  0  0  0  0
    2.5909    0.0745   -0.4954 C   0  0  0  0  0  0  0  0  0  0  0  0
    2.3815    0.3746    0.5240 H   0  0  0  0  0  0  0  0  0  0  0  0
   -0.6957    0.8874    0.5701 C   0  0  0  0  0  0  0  0  0  0  0  0
   -1.7280    1.4070    0.1613 O   0  0  0  0  0  0  0  0  0  0  0  0
    0.1147    1.5851    1.4480 N   0  0  0  0  0  0  0  0  0  0  0  0
    0.8737    1.0741    1.8880 H   0  0  0  0  0  0  0  0  0  0  0  0
   -0.2178    2.9120    1.9520 C   0  0  0  0  0  0  0  0  0  0  0  0
   -1.1533    2.8831    2.5205 H   0  0  0  0  0  0  0  0  0  0  0  0
    0.5770    3.2765    2.6100 H   0  0  0  0  0  0  0  0  0  0  0  0
   -0.3302    3.6195    1.1236 H   0  0  0  0  0  0  0  0  0  0  0  0
  1  2  1  0  0  0  0
  2  3  1  0  0  0  0
  2  4  1  0  0  0  0
  2  5  1  0  0  0  0
  5  6  2  0  0  0  0
  5  7  1  0  0  0  0
  7  8  1  0  0  0  0
  7  9  1  0  0  0  0
  9 10  1  0  0  0  0
  9 11  1  0  0  0  0
  9 22  1  0  0  0  0
 11 12  1  0  0  0  0
 11 13  1  0  0  0  0
 11 14  1  0  0  0  0
 14 15  1  0  0  0  0
 14 20  2  0  0  0  0
 15 16  2  0  0  0  0
 16 17  1  0  0  0  0
 16 18  1  0  0  0  0
 18 19  1  0  0  0  0
 18 20  1  0  0  0  0
 20 21  1  0  0  0  0
 22 23  2  0  0  0  0
 22 24  1  0  0  0  0
 24 25  1  0  0  0  0
 24 26  1  0  0  0  0
 26 27  1  0  0  0  0
 26 28  1  0  0  0  0
 26 29  1  0  0  0  0
M  END
$$$$

  -OEChem-04042215593D

 29 29  0     1  0  0  0  0  0999 V2000
   -2.7429   -4.4542    1.1892 H   0  0  0  0  0  0  0  0  0  0  0  0
   -2.8962   -3.4624    0.7548 C   0  0  0  0  0  0  0  0  0  0  0  0
   -3.6277   -2.9217    1.3601 H   0  0  0  0  0  0  0  0  0  0  0  0
   -3.2865   -3.5791   -0.2592 H   0  0  0  0  0  0  0  0  0  0  0  0
   -1.5858   -2.6991    0.7189 C   0  0  0  0  0  0  0  0  0  0  0  0
   -0.5721   -3.2039    1.1756 O   0  0  0  0  0  0  0  0  0  0  0  0
   -1.5480   -1.4312    0.1778 N   0  0  0  0  0  0  0  0  0  0  0  0
   -2.4324   -1.0138   -0.1066 H   0  0  0  0  0  0  0  0  0  0  0  0
   -0.3580   -0.5698    0.1346 C   0  0  1  0  0  0  0  0  0  0  0  0
    0.3636   -0.9514    0.8592 H   0  0  0  0  0  0  0  0  0  0  0  0
    0.2396   -0.5969   -1.2910 C   0  0  0  0  0  0  0  0  0  0  0  0
   -0.1875   -1.4393   -1.8433 H   0  0  0  0  0  0  0  0  0  0  0  0
   -0.0445    0.3118   -1.8311 H   0  0  0  0  0  0  0  0  0  0  0  0
    1.7370   -0.7516   -1.3679 C   0  0  0  0  0  0  0  0  0  0  0  0
    2.3737   -0.7865   -2.6019 N   0  0  0  0  0  0  0  0  0  0  0  0
    3.6528   -0.9512   -2.3697 C   0  0  0  0  0  0  0  0  0  0  0  0
    4.4192   -1.0233   -3.1362 H   0  0  0  0  0  0  0  0  0  0  0  0
    3.8766   -1.0210   -1.0092 N   0  0  0  0  0  0  0  0  0  0  0  0
    4.7832   -1.1733   -0.5712 H   0  0  0  0  0  0  0  0  0  0  0  0
    2.6629   -0.8998   -0.3659 C   0  0  0  0  0  0  0  0  0  0  0  0
    2.4814   -0.9422    0.7026 H   0  0  0  0  0  0  0  0  0  0  0  0
   -0.6992    0.8733    0.5561 C   0  0  0  0  0  0  0  0  0  0  0  0
   -1.7448    1.3859    0.1732 O   0  0  0  0  0  0  0  0  0  0  0  0
    0.1169    1.5650    1.4326 N   0  0  0  0  0  0  0  0  0  0  0  0
    0.9607    1.1031    1.7578 H   0  0  0  0  0  0  0  0  0  0  0  0
   -0.1757    2.9133    1.9033 C   0  0  0  0  0  0  0  0  0  0  0  0
   -1.1346    2.9358    2.4317 H   0  0  0  0  0  0  0  0  0  0  0  0
    0.6055    3.2514    2.5909 H   0  0  0  0  0  0  0  0  0  0  0  0
   -0.2209    3.6116    1.0609 H   0  0  0  0  0  0  0  0  0  0  0  0
  1  2  1  0  0  0  0
  2  3  1  0  0  0  0
  2  4  1  0  0  0  0
  2  5  1  0  0  0  0
  5  6  2  0  0  0  0
  5  7  1  0  0  0  0
  7  8  1  0  0  0  0
  7  9  1  0  0  0  0
  9 10  1  0  0  0  0
  9 11  1  0  0  0  0
  9 22  1  0  0  0  0
 11 12  1  0  0  0  0
 11 13  1  0  0  0  0
 11 14  1  0  0  0  0
 14 15  1  0  0  0  0
 14 20  2  0  0  0  0
 15 16  2  0  0  0  0
 16 17  1  0  0  0  0
 16 18  1  0  0  0  0
 18 19  1  0  0  0  0
 18 20  1  0  0  0  0
 20 21  1  0  0  0  0
 22 23  2  0  0  0  0
 22 24  1  0  0  0  0
 24 25  1  0  0  0  0
 24 26  1  0  0  0  0
 26 27  1  0  0  0  0
 26 28  1  0  0  0  0
 26 29  1  0  0  0  0
M  END
$$$$

  -OEChem-04042215593D

 29 29  0     1  0  0  0  0  0999 V2000
   -2.7454   -4.4456    1.2128 H   0  0  0  0  0  0  0  0  0  0  0  0
   -2.9025   -3.4549    0.7771 C   0  0  0  0  0  0  0  0  0  0  0  0
   -3.6142   -2.9054    1.3980 H   0  0  0  0  0  0  0  0  0  0  0  0
   -3.3198   -3.5734   -0.2258 H   0  0  0  0  0  0  0  0  0  0  0  0
   -1.5880   -2.7013    0.7050 C   0  0  0  0  0  0  0  0  0  0  0  0
   -0.5644   -3.2148    1.1301 O   0  0  0  0  0  0  0  0  0  0  0  0
   -1.5547   -1.4326    0.1658 N   0  0  0  0  0  0  0  0  0  0  0  0
   -2.4434   -1.0034   -0.0870 H   0  0  0  0  0  0  0  0  0  0  0  0
   -0.3632   -0.5745    0.1225 C   0  0  1  0  0  0  0  0  0  0  0  0
    0.3551   -0.9508    0.8521 H   0  0  0  0  0  0  0  0  0  0  0  0
    0.2388   -0.6001   -1.3006 C   0  0  0  0  0  0  0  0  0  0  0  0
   -0.1902   -1.4319   -1.8670 H   0  0  0  0  0  0  0  0  0  0  0  0
   -0.0350    0.3180   -1.8304 H   0  0  0  0  0  0  0  0  0  0  0  0
    1.7364   -0.7584   -1.3599 C   0  0  0  0  0  0  0  0  0  0  0  0
    2.4318   -0.4880   -2.5316 N   0  0  0  0  0  0  0  0  0  0  0  0
    3.6941   -0.7516   -2.2975 C   0  0  0  0  0  0  0  0  0  0  0  0
    4.4959   -0.6451   -3.0227 H   0  0  0  0  0  0  0  0  0  0  0  0
    3.8485   -1.1886   -0.9968 N   0  0  0  0  0  0  0  0  0  0  0  0
    4.7267   -1.4915   -0.5795 H   0  0  0  0  0  0  0  0  0  0  0  0
    2.6066   -1.2065   -0.3984 C   0  0  0  0  0  0  0  0  0  0  0  0
    2.3646   -1.5466    0.6041 H   0  0  0  0  0  0  0  0  0  0  0  0
   -0.7001    0.8685    0.5485 C   0  0  0  0  0  0  0  0  0  0  0  0
   -1.7559    1.3765    0.1873 O   0  0  0  0  0  0  0  0  0  0  0  0
    0.1213    1.5540    1.4250 N   0  0  0  0  0  0  0  0  0  0  0  0
    0.9885    1.1059    1.7068 H   0  0  0  0  0  0  0  0  0  0  0  0
   -0.1612    2.9037    1.8977 C   0  0  0  0  0  0  0  0  0  0  0  0
   -1.1233    2.9339    2.4197 H   0  0  0  0  0  0  0  0  0  0  0  0
    0.6178    3.2319    2.5923 H   0  0  0  0  0  0  0  0  0  0  0  0
   -0.1934    3.6045    1.0569 H   0  0  0  0  0  0  0  0  0  0  0  0
  1  2  1  0  0  0  0
  2  3  1  0  0  0  0
  2  4  1  0  0  0  0
  2  5  1  0  0  0  0
  5  6  2  0  0  0  0
  5  7  1  0  0  0  0
  7  8  1  0  0  0  0
  7  9  1  0  0  0  0
  9 10  1  0  0  0  0
  9 11  1  0  0  0  0
  9 22  1  0  0  0  0
 11 12  1  0  0  0  0
 11 13  1  0  0  0  0
 11 14  1  0  0  0  0
 14 15  1  0  0  0  0
 14 20  2  0  0  0  0
 15 16  2  0  0  0  0
 16 17  1  0  0  0  0
 16 18  1  0  0  0  0
 18 19  1  0  0  0  0
 18 20  1  0  0  0  0
 20 21  1  0  0  0  0
 22 23  2  0  0  0  0
 22 24  1  0  0  0  0
 24 25  1  0  0  0  0
 24 26  1  0  0  0  0
 26 27  1  0  0  0  0
 26 28  1  0  0  0  0
 26 29  1  0  0  0  0
M  END
$$$$

  -OEChem-04042215593D

 29 29  0     1  0  0  0  0  0999 V2000
   -2.7251   -4.4444    1.2338 H   0  0  0  0  0  0  0  0  0  0  0  0
   -2.8909   -3.4520    0.8055 C   0  0  0  0  0  0  0  0  0  0  0  0
   -3.5765   -2.8989    1.4521 H   0  0  0  0  0  0  0  0  0  0  0  0
   -3.3445   -3.5663   -0.1821 H   0  0  0  0  0  0  0  0  0  0  0  0
   -1.5749   -2.7069    0.6864 C   0  0  0  0  0  0  0  0  0  0  0  0
   -0.5368   -3.2323    1.0595 O   0  0  0  0  0  0  0  0  0  0  0  0
   -1.5537   -1.4355    0.1533 N   0  0  0  0  0  0  0  0  0  0  0  0
   -2.4492   -0.9944   -0.0508 H   0  0  0  0  0  0  0  0  0  0  0  0
   -0.3625   -0.5780    0.0989 C   0  0  1  0  0  0  0  0  0  0  0  0
    0.3671   -0.9524    0.8203 H   0  0  0  0  0  0  0  0  0  0  0  0
    0.2251   -0.5956   -1.3292 C   0  0  0  0  0  0  0  0  0  0  0  0
   -0.2054   -1.4219   -1.9024 H   0  0  0  0  0  0  0  0  0  0  0  0
   -0.0445    0.3288   -1.8500 H   0  0  0  0  0  0  0  0  0  0  0  0
    1.7206   -0.7556   -1.3668 C   0  0  0  0  0  0  0  0  0  0  0  0
    2.4955   -0.2128   -2.3831 N   0  0  0  0  0  0  0  0  0  0  0  0
    3.7332   -0.5797   -2.1528 C   0  0  0  0  0  0  0  0  0  0  0  0
    4.5846   -0.3175   -2.7747 H   0  0  0  0  0  0  0  0  0  0  0  0
    3.7903   -1.3526   -1.0092 N   0  0  0  0  0  0  0  0  0  0  0  0
    4.6307   -1.7916   -0.6374 H   0  0  0  0  0  0  0  0  0  0  0  0
    2.5105   -1.4807   -0.5136 C   0  0  0  0  0  0  0  0  0  0  0  0
    2.1809   -2.0669    0.3413 H   0  0  0  0  0  0  0  0  0  0  0  0
   -0.6949    0.8619    0.5381 C   0  0  0  0  0  0  0  0  0  0  0  0
   -1.7633    1.3645    0.2068 O   0  0  0  0  0  0  0  0  0  0  0  0
    0.1379    1.5419    1.4076 N   0  0  0  0  0  0  0  0  0  0  0  0
    1.0217    1.1035    1.6511 H   0  0  0  0  0  0  0  0  0  0  0  0
   -0.1370    2.8901    1.8884 C   0  0  0  0  0  0  0  0  0  0  0  0
   -1.0886    2.9174    2.4295 H   0  0  0  0  0  0  0  0  0  0  0  0
    0.6554    3.2183    2.5677 H   0  0  0  0  0  0  0  0  0  0  0  0
   -0.1872    3.5927    1.0500 H   0  0  0  0  0  0  0  0  0  0  0  0
  1  2  1  0  0  0  0
  2  3  1  0  0  0  0
  2  4  1  0  0  0  0
  2  5  1  0  0  0  0
  5  6  2  0  0  0  0
  5  7  1  0  0  0  0
  7  8  1  0  0  0  0
  7  9  1  0  0  0  0
  9 10  1  0  0  0  0
  9 11  1  0  0  0  0
  9 22  1  0  0  0  0
 11 12  1  0  0  0  0
 11 13  1  0  0  0  0
 11 14  1  0  0  0  0
 14 15  1  0  0  0  0
 14 20  2  0  0  0  0
 15 16  2  0  0  0  0
 16 17  1  0  0  0  0
 16 18  1  0  0  0  0
 18 19  1  0  0  0  0
 18 20  1  0  0  0  0
 20 21  1  0  0  0  0
 22 23  2  0  0  0  0
 22 24  1  0  0  0  0
 24 25  1  0  0  0  0
 24 26  1  0  0  0  0
 26 27  1  0  0  0  0
 26 28  1  0  0  0  0
 26 29  1  0  0  0  0
M  END
$$$$

  -OEChem-04042215593D

 29 29  0     1  0  0  0  0  0999 V2000
   -2.7031   -4.4546    1.2462 H   0  0  0  0  0  0  0  0  0  0  0  0
   -2.8811   -3.4604    0.8269 C   0  0  0  0  0  0  0  0  0  0  0  0
   -3.5386   -2.9065    1.5013 H   0  0  0  0  0  0  0  0  0  0  0  0
   -3.3738   -3.5704   -0.1422 H   0  0  0  0  0  0  0  0  0  0  0  0
   -1.5670   -2.7209    0.6590 C   0  0  0  0  0  0  0  0  0  0  0  0
   -0.5165   -3.2598    0.9744 O   0  0  0  0  0  0  0  0  0  0  0  0
   -1.5592   -1.4441    0.1379 N   0  0  0  0  0  0  0  0  0  0  0  0
   -2.4599   -0.9945   -0.0197 H   0  0  0  0  0  0  0  0  0  0  0  0
   -0.3699   -0.5843    0.0704 C   0  0  1  0  0  0  0  0  0  0  0  0
    0.3737   -0.9658    0.7760 H   0  0  0  0  0  0  0  0  0  0  0  0
    0.2011   -0.5982   -1.3618 C   0  0  0  0  0  0  0  0  0  0  0  0
   -0.2247   -1.4302   -1.9299 H   0  0  0  0  0  0  0  0  0  0  0  0
   -0.0714    0.3234   -1.8863 H   0  0  0  0  0  0  0  0  0  0  0  0
    1.6944   -0.7561   -1.3753 C   0  0  0  0  0  0  0  0  0  0  0  0
    2.5349    0.0071   -2.1737 N   0  0  0  0  0  0  0  0  0  0  0  0
    3.7518   -0.4361   -1.9657 C   0  0  0  0  0  0  0  0  0  0  0  0
    4.6442   -0.0473   -2.4479 H   0  0  0  0  0  0  0  0  0  0  0  0
    3.7284   -1.4700   -1.0486 N   0  0  0  0  0  0  0  0  0  0  0  0
    4.5397   -2.0031   -0.7409 H   0  0  0  0  0  0  0  0  0  0  0  0
    2.4184   -1.6846   -0.6777 C   0  0  0  0  0  0  0  0  0  0  0  0
    2.0207   -2.4405   -0.0026 H   0  0  0  0  0  0  0  0  0  0  0  0
   -0.6885    0.8525    0.5281 C   0  0  0  0  0  0  0  0  0  0  0  0
   -1.7657    1.3570    0.2297 O   0  0  0  0  0  0  0  0  0  0  0  0
    0.1639    1.5215    1.3871 N   0  0  0  0  0  0  0  0  0  0  0  0
    1.0633    1.0906    1.5826 H   0  0  0  0  0  0  0  0  0  0  0  0
   -0.0901    2.8716    1.8742 C   0  0  0  0  0  0  0  0  0  0  0  0
   -1.0406    2.9120    2.4166 H   0  0  0  0  0  0  0  0  0  0  0  0
    0.7076    3.1840    2.5549 H   0  0  0  0  0  0  0  0  0  0  0  0
   -0.1301    3.5784    1.0388 H   0  0  0  0  0  0  0  0  0  0  0  0
  1  2  1  0  0  0  0
  2  3  1  0  0  0  0
  2  4  1  0  0  0  0
  2  5  1  0  0  0  0
  5  6  2  0  0  0  0
  5  7  1  0  0  0  0
  7  8  1  0  0  0  0
  7  9  1  0  0  0  0
  9 10  1  0  0  0  0
  9 11  1  0  0  0  0
  9 22  1  0  0  0  0
 11 12  1  0  0  0  0
 11 13  1  0  0  0  0
 11 14  1  0  0  0  0
 14 15  1  0  0  0  0
 14 20  2  0  0  0  0
 15 16  2  0  0  0  0
 16 17  1  0  0  0  0
 16 18  1  0  0  0  0
 18 19  1  0  0  0  0
 18 20  1  0  0  0  0
 20 21  1  0  0  0  0
 22 23  2  0  0  0  0
 22 24  1  0  0  0  0
 24 25  1  0  0  0  0
 24 26  1  0  0  0  0
 26 27  1  0  0  0  0
 26 28  1  0  0  0  0
 26 29  1  0  0  0  0
M  END
$$$$

  -OEChem-04042215593D

 29 29  0     1  0  0  0  0  0999 V2000
   -2.6968   -4.4589    1.2623 H   0  0  0  0  0  0  0  0  0  0  0  0
   -2.8792   -3.4639    0.8471 C   0  0  0  0  0  0  0  0  0  0  0  0
   -3.5039   -2.9003    1.5442 H   0  0  0  0  0  0  0  0  0  0  0  0
   -3.4087   -3.5697   -0.1028 H   0  0  0  0  0  0  0  0  0  0  0  0
   -1.5647   -2.7395    0.6283 C   0  0  0  0  0  0  0  0  0  0  0  0
   -0.5078   -3.2960    0.8860 O   0  0  0  0  0  0  0  0  0  0  0  0
   -1.5667   -1.4575    0.1208 N   0  0  0  0  0  0  0  0  0  0  0  0
   -2.4702   -0.9987    0.0133 H   0  0  0  0  0  0  0  0  0  0  0  0
   -0.3789   -0.5967    0.0390 C   0  0  1  0  0  0  0  0  0  0  0  0
    0.3765   -0.9893    0.7276 H   0  0  0  0  0  0  0  0  0  0  0  0
    0.1775   -0.6008   -1.3963 C   0  0  0  0  0  0  0  0  0  0  0  0
   -0.2439   -1.4370   -1.9616 H   0  0  0  0  0  0  0  0  0  0  0  0
   -0.0973    0.3192   -1.9223 H   0  0  0  0  0  0  0  0  0  0  0  0
    1.6684   -0.7559   -1.3863 C   0  0  0  0  0  0  0  0  0  0  0  0
    2.5503    0.1745   -1.9170 N   0  0  0  0  0  0  0  0  0  0  0  0
    3.7542   -0.3198   -1.7500 C   0  0  0  0  0  0  0  0  0  0  0  0
    4.6733    0.1673   -2.0633 H   0  0  0  0  0  0  0  0  0  0  0  0
    3.6793   -1.5473   -1.1182 N   0  0  0  0  0  0  0  0  0  0  0  0
    4.4738   -2.1399   -0.8839 H   0  0  0  0  0  0  0  0  0  0  0  0
    2.3502   -1.8317   -0.8897 C   0  0  0  0  0  0  0  0  0  0  0  0
    1.9125   -2.7131   -0.4242 H   0  0  0  0  0  0  0  0  0  0  0  0
   -0.6828    0.8364    0.5164 C   0  0  0  0  0  0  0  0  0  0  0  0
   -1.7695    1.3413    0.2546 O   0  0  0  0  0  0  0  0  0  0  0  0
    0.1907    1.4928    1.3635 N   0  0  0  0  0  0  0  0  0  0  0  0
    1.1058    1.0722    1.5019 H   0  0  0  0  0  0  0  0  0  0  0  0
   -0.0404    2.8454    1.8546 C   0  0  0  0  0  0  0  0  0  0  0  0
   -0.9877    2.8989    2.4013 H   0  0  0  0  0  0  0  0  0  0  0  0
    0.7650    3.1434    2.5328 H   0  0  0  0  0  0  0  0  0  0  0  0
   -0.0731    3.5547    1.0210 H   0  0  0  0  0  0  0  0  0  0  0  0
  1  2  1  0  0  0  0
  2  3  1  0  0  0  0
  2  4  1  0  0  0  0
  2  5  1  0  0  0  0
  5  6  2  0  0  0  0
  5  7  1  0  0  0  0
  7  8  1  0  0  0  0
  7  9  1  0  0  0  0
  9 10  1  0  0  0  0
  9 11  1  0  0  0  0
  9 22  1  0  0  0  0
 11 12  1  0  0  0  0
 11 13  1  0  0  0  0
 11 14  1  0  0  0  0
 14 15  1  0  0  0  0
 14 20  2  0  0  0  0
 15 16  2  0  0  0  0
 16 17  1  0  0  0  0
 16 18  1  0  0  0  0
 18 19  1  0  0  0  0
 18 20  1  0  0  0  0
 20 21  1  0  0  0  0
 22 23  2  0  0  0  0
 22 24  1  0  0  0  0
 24 25  1  0  0  0  0
 24 26  1  0  0  0  0
 26 27  1  0  0  0  0
 26 28  1  0  0  0  0
 26 29  1  0  0  0  0
M  END
$$$$

  -OEChem-04042215593D

 29 29  0     1  0  0  0  0  0999 V2000
   -2.6919   -4.4644    1.2727 H   0  0  0  0  0  0  0  0  0  0  0  0
   -2.8814   -3.4691    0.8606 C   0  0  0  0  0  0  0  0  0  0  0  0
   -3.4833   -2.9017    1.5747 H   0  0  0  0  0  0  0  0  0  0  0  0
   -3.4395   -3.5742   -0.0729 H   0  0  0  0  0  0  0  0  0  0  0  0
   -1.5698   -2.7517    0.6015 C   0  0  0  0  0  0  0  0  0  0  0  0
   -0.5095   -3.3232    0.8068 O   0  0  0  0  0  0  0  0  0  0  0  0
   -1.5787   -1.4652    0.1050 N   0  0  0  0  0  0  0  0  0  0  0  0
   -2.4820   -0.9987    0.0386 H   0  0  0  0  0  0  0  0  0  0  0  0
   -0.3912   -0.6042    0.0136 C   0  0  1  0  0  0  0  0  0  0  0  0
    0.3701   -1.0061    0.6911 H   0  0  0  0  0  0  0  0  0  0  0  0
    0.1591   -0.6046   -1.4212 C   0  0  0  0  0  0  0  0  0  0  0  0
   -0.2595   -1.4457   -1.9818 H   0  0  0  0  0  0  0  0  0  0  0  0
   -0.1149    0.3130   -1.9515 H   0  0  0  0  0  0  0  0  0  0  0  0
    1.6485   -0.7581   -1.3896 C   0  0  0  0  0  0  0  0  0  0  0  0
    2.5443    0.2753   -1.6258 N   0  0  0  0  0  0  0  0  0  0  0  0
    3.7434   -0.2492   -1.5279 C   0  0  0  0  0  0  0  0  0  0  0  0
    4.6722    0.2977   -1.6640 H   0  0  0  0  0  0  0  0  0  0  0  0
    3.6497   -1.5950   -1.2239 N   0  0  0  0  0  0  0  0  0  0  0  0
    4.4376   -2.2274   -1.0955 H   0  0  0  0  0  0  0  0  0  0  0  0
    2.3139   -1.9237   -1.1369 C   0  0  0  0  0  0  0  0  0  0  0  0
    1.8621   -2.8872   -0.9094 H   0  0  0  0  0  0  0  0  0  0  0  0
   -0.6785    0.8270    0.5055 C   0  0  0  0  0  0  0  0  0  0  0  0
   -1.7711    1.3347    0.2750 O   0  0  0  0  0  0  0  0  0  0  0  0
    0.2135    1.4708    1.3427 N   0  0  0  0  0  0  0  0  0  0  0  0
    1.1406    1.0612    1.4252 H   0  0  0  0  0  0  0  0  0  0  0  0
    0.0023    2.8247    1.8386 C   0  0  0  0  0  0  0  0  0  0  0  0
   -0.9437    2.8904    2.3862 H   0  0  0  0  0  0  0  0  0  0  0  0
    0.8122    3.1078    2.5177 H   0  0  0  0  0  0  0  0  0  0  0  0
   -0.0205    3.5376    1.0078 H   0  0  0  0  0  0  0  0  0  0  0  0
  1  2  1  0  0  0  0
  2  3  1  0  0  0  0
  2  4  1  0  0  0  0
  2  5  1  0  0  0  0
  5  6  2  0  0  0  0
  5  7  1  0  0  0  0
  7  8  1  0  0  0  0
  7  9  1  0  0  0  0
  9 10  1  0  0  0  0
  9 11  1  0  0  0  0
  9 22  1  0  0  0  0
 11 12  1  0  0  0  0
 11 13  1  0  0  0  0
 11 14  1  0  0  0  0
 14 15  1  0  0  0  0
 14 20  2  0  0  0  0
 15 16  2  0  0  0  0
 16 17  1  0  0  0  0
 16 18  1  0  0  0  0
 18 19  1  0  0  0  0
 18 20  1  0  0  0  0
 20 21  1  0  0  0  0
 22 23  2  0  0  0  0
 22 24  1  0  0  0  0
 24 25  1  0  0  0  0
 24 26  1  0  0  0  0
 26 27  1  0  0  0  0
 26 28  1  0  0  0  0
 26 29  1  0  0  0  0
M  END
$$$$

  -OEChem-04042215593D

 29 29  0     1  0  0  0  0  0999 V2000
   -2.7143   -4.4628    1.2833 H   0  0  0  0  0  0  0  0  0  0  0  0
   -2.9009   -3.4674    0.8706 C   0  0  0  0  0  0  0  0  0  0  0  0
   -3.4867   -2.8918    1.5915 H   0  0  0  0  0  0  0  0  0  0  0  0
   -3.4732   -3.5705   -0.0545 H   0  0  0  0  0  0  0  0  0  0  0  0
   -1.5870   -2.7627    0.5905 C   0  0  0  0  0  0  0  0  0  0  0  0
   -0.5299   -3.3454    0.7767 O   0  0  0  0  0  0  0  0  0  0  0  0
   -1.5947   -1.4744    0.0994 N   0  0  0  0  0  0  0  0  0  0  0  0
   -2.4963   -1.0020    0.0540 H   0  0  0  0  0  0  0  0  0  0  0  0
   -0.4057   -0.6166   -0.0031 C   0  0  1  0  0  0  0  0  0  0  0  0
    0.3567   -1.0268    0.6693 H   0  0  0  0  0  0  0  0  0  0  0  0
    0.1450   -0.6147   -1.4362 C   0  0  0  0  0  0  0  0  0  0  0  0
   -0.2728   -1.4567   -1.9961 H   0  0  0  0  0  0  0  0  0  0  0  0
   -0.1251    0.3030   -1.9682 H   0  0  0  0  0  0  0  0  0  0  0  0
    1.6333   -0.7682   -1.3867 C   0  0  0  0  0  0  0  0  0  0  0  0
    2.5134    0.3030   -1.3130 N   0  0  0  0  0  0  0  0  0  0  0  0
    3.7192   -0.2150   -1.3049 C   0  0  0  0  0  0  0  0  0  0  0  0
    4.6399    0.3595   -1.2559 H   0  0  0  0  0  0  0  0  0  0  0  0
    3.6445   -1.5945   -1.3629 N   0  0  0  0  0  0  0  0  0  0  0  0
    4.4412   -2.2289   -1.3593 H   0  0  0  0  0  0  0  0  0  0  0  0
    2.3140   -1.9512   -1.4169 C   0  0  0  0  0  0  0  0  0  0  0  0
    1.8784   -2.9465   -1.4590 H   0  0  0  0  0  0  0  0  0  0  0  0
   -0.6742    0.8154    0.4954 C   0  0  0  0  0  0  0  0  0  0  0  0
   -1.7723    1.3253    0.2967 O   0  0  0  0  0  0  0  0  0  0  0  0
    0.2373    1.4460    1.3209 N   0  0  0  0  0  0  0  0  0  0  0  0
    1.1755    1.0522    1.3365 H   0  0  0  0  0  0  0  0  0  0  0  0
    0.0466    2.8011    1.8213 C   0  0  0  0  0  0  0  0  0  0  0  0
   -0.8867    2.8732    2.3895 H   0  0  0  0  0  0  0  0  0  0  0  0
    0.8731    3.0782    2.4827 H   0  0  0  0  0  0  0  0  0  0  0  0
    0.0109    3.5144    0.9914 H   0  0  0  0  0  0  0  0  0  0  0  0
  1  2  1  0  0  0  0
  2  3  1  0  0  0  0
  2  4  1  0  0  0  0
  2  5  1  0  0  0  0
  5  6  2  0  0  0  0
  5  7  1  0  0  0  0
  7  8  1  0  0  0  0
  7  9  1  0  0  0  0
  9 10  1  0  0  0  0
  9 11  1  0  0  0  0
  9 22  1  0  0  0  0
 11 12  1  0  0  0  0
 11 13  1  0  0  0  0
 11 14  1  0  0  0  0
 14 15  1  0  0  0  0
 14 20  2  0  0  0  0
 15 16  2  0  0  0  0
 16 17  1  0  0  0  0
 16 18  1  0  0  0  0
 18 19  1  0  0  0  0
 18 20  1  0  0  0  0
 20 21  1  0  0  0  0
 22 23  2  0  0  0  0
 22 24  1  0  0  0  0
 24 25  1  0  0  0  0
 24 26  1  0  0  0  0
 26 27  1  0  0  0  0
 26 28  1  0  0  0  0
 26 29  1  0  0  0  0
M  END
$$$$

  -OEChem-04042215593D

 29 29  0     1  0  0  0  0  0999 V2000
   -2.7302   -4.4654    1.2957 H   0  0  0  0  0  0  0  0  0  0  0  0
   -2.9163   -3.4708    0.8807 C   0  0  0  0  0  0  0  0  0  0  0  0
   -3.4937   -2.8904    1.6044 H   0  0  0  0  0  0  0  0  0  0  0  0
   -3.4970   -3.5751   -0.0390 H   0  0  0  0  0  0  0  0  0  0  0  0
   -1.6021   -2.7721    0.5865 C   0  0  0  0  0  0  0  0  0  0  0  0
   -0.5467   -3.3615    0.7584 O   0  0  0  0  0  0  0  0  0  0  0  0
   -1.6097   -1.4821    0.0998 N   0  0  0  0  0  0  0  0  0  0  0  0
   -2.5096   -1.0058    0.0702 H   0  0  0  0  0  0  0  0  0  0  0  0
   -0.4198   -0.6266   -0.0146 C   0  0  1  0  0  0  0  0  0  0  0  0
    0.3447   -1.0423    0.6521 H   0  0  0  0  0  0  0  0  0  0  0  0
    0.1282   -0.6226   -1.4483 C   0  0  0  0  0  0  0  0  0  0  0  0
   -0.2930   -1.4612   -2.0105 H   0  0  0  0  0  0  0  0  0  0  0  0
   -0.1396    0.2988   -1.9744 H   0  0  0  0  0  0  0  0  0  0  0  0
    1.6170   -0.7756   -1.3947 C   0  0  0  0  0  0  0  0  0  0  0  0
    2.4711    0.2541   -1.0183 N   0  0  0  0  0  0  0  0  0  0  0  0
    3.6868   -0.2343   -1.0986 C   0  0  0  0  0  0  0  0  0  0  0  0
    4.5929    0.3192   -0.8691 H   0  0  0  0  0  0  0  0  0  0  0  0
    3.6439   -1.5530   -1.5119 N   0  0  0  0  0  0  0  0  0  0  0  0
    4.4536   -2.1578   -1.6375 H   0  0  0  0  0  0  0  0  0  0  0  0
    2.3240   -1.9019   -1.7032 C   0  0  0  0  0  0  0  0  0  0  0  0
    1.9143   -2.8587   -2.0150 H   0  0  0  0  0  0  0  0  0  0  0  0
   -0.6705    0.8068    0.4894 C   0  0  0  0  0  0  0  0  0  0  0  0
   -1.7700    1.3229    0.3142 O   0  0  0  0  0  0  0  0  0  0  0  0
    0.2602    1.4250    1.3023 N   0  0  0  0  0  0  0  0  0  0  0  0
    1.2030    1.0409    1.2607 H   0  0  0  0  0  0  0  0  0  0  0  0
    0.0900    2.7815    1.8057 C   0  0  0  0  0  0  0  0  0  0  0  0
   -0.8374    2.8642    2.3821 H   0  0  0  0  0  0  0  0  0  0  0  0
    0.9253    3.0476    2.4604 H   0  0  0  0  0  0  0  0  0  0  0  0
    0.0555    3.4959    0.9766 H   0  0  0  0  0  0  0  0  0  0  0  0
  1  2  1  0  0  0  0
  2  3  1  0  0  0  0
  2  4  1  0  0  0  0
  2  5  1  0  0  0  0
  5  6  2  0  0  0  0
  5  7  1  0  0  0  0
  7  8  1  0  0  0  0
  7  9  1  0  0  0  0
  9 10  1  0  0  0  0
  9 11  1  0  0  0  0
  9 22  1  0  0  0  0
 11 12  1  0  0  0  0
 11 13  1  0  0  0  0
 11 14  1  0  0  0  0
 14 15  1  0  0  0  0
 14 20  2  0  0  0  0
 15 16  2  0  0  0  0
 16 17  1  0  0  0  0
 16 18  1  0  0  0  0
 18 19  1  0  0  0  0
 18 20  1  0  0  0  0
 20 21  1  0  0  0  0
 22 23  2  0  0  0  0
 22 24  1  0  0  0  0
 24 25  1  0  0  0  0
 24 26  1  0  0  0  0
 26 27  1  0  0  0  0
 26 28  1  0  0  0  0
 26 29  1  0  0  0  0
M  END
$$$$

  -OEChem-04042215593D

 29 29  0     1  0  0  0  0  0999 V2000
   -2.7283   -4.4773    1.2853 H   0  0  0  0  0  0  0  0  0  0  0  0
   -2.9179   -3.4774    0.8848 C   0  0  0  0  0  0  0  0  0  0  0  0
   -3.4869   -2.9054    1.6217 H   0  0  0  0  0  0  0  0  0  0  0  0
   -3.5082   -3.5703   -0.0300 H   0  0  0  0  0  0  0  0  0  0  0  0
   -1.6059   -2.7767    0.5858 C   0  0  0  0  0  0  0  0  0  0  0  0
   -0.5504   -3.3660    0.7553 O   0  0  0  0  0  0  0  0  0  0  0  0
   -1.6165   -1.4852    0.1023 N   0  0  0  0  0  0  0  0  0  0  0  0
   -2.5173   -1.0104    0.0771 H   0  0  0  0  0  0  0  0  0  0  0  0
   -0.4278   -0.6278   -0.0181 C   0  0  1  0  0  0  0  0  0  0  0  0
    0.3391   -1.0463    0.6440 H   0  0  0  0  0  0  0  0  0  0  0  0
    0.1172   -0.6215   -1.4542 C   0  0  0  0  0  0  0  0  0  0  0  0
   -0.3087   -1.4545   -2.0208 H   0  0  0  0  0  0  0  0  0  0  0  0
   -0.1532    0.3046   -1.9708 H   0  0  0  0  0  0  0  0  0  0  0  0
    1.6086   -0.7710   -1.4143 C   0  0  0  0  0  0  0  0  0  0  0  0
    2.4465    0.1340   -0.7693 N   0  0  0  0  0  0  0  0  0  0  0  0
    3.6673   -0.3199   -0.9350 C   0  0  0  0  0  0  0  0  0  0  0  0
    4.5639    0.1572   -0.5494 H   0  0  0  0  0  0  0  0  0  0  0  0
    3.6447   -1.4925   -1.6670 N   0  0  0  0  0  0  0  0  0  0  0  0
    4.4618   -2.0484   -1.9135 H   0  0  0  0  0  0  0  0  0  0  0  0
    2.3328   -1.7842   -1.9739 C   0  0  0  0  0  0  0  0  0  0  0  0
    1.9404   -2.6348   -2.5238 H   0  0  0  0  0  0  0  0  0  0  0  0
   -0.6727    0.8044    0.4901 C   0  0  0  0  0  0  0  0  0  0  0  0
   -1.7696    1.3269    0.3175 O   0  0  0  0  0  0  0  0  0  0  0  0
    0.2665    1.4169    1.2965 N   0  0  0  0  0  0  0  0  0  0  0  0
    1.2075    1.0278    1.2393 H   0  0  0  0  0  0  0  0  0  0  0  0
    0.1095    2.7754    1.7984 C   0  0  0  0  0  0  0  0  0  0  0  0
   -0.8079    2.8621    2.3900 H   0  0  0  0  0  0  0  0  0  0  0  0
    0.9566    3.0409    2.4380 H   0  0  0  0  0  0  0  0  0  0  0  0
    0.0629    3.4876    0.9680 H   0  0  0  0  0  0  0  0  0  0  0  0
  1  2  1  0  0  0  0
  2  3  1  0  0  0  0
  2  4  1  0  0  0  0
  2  5  1  0  0  0  0
  5  6  2  0  0  0  0
  5  7  1  0  0  0  0
  7  8  1  0  0  0  0
  7  9  1  0  0  0  0
  9 10  1  0  0  0  0
  9 11  1  0  0  0  0
  9 22  1  0  0  0  0
 11 12  1  0  0  0  0
 11 13  1  0  0  0  0
 11 14  1  0  0  0  0
 14 15  1  0  0  0  0
 14 20  2  0  0  0  0
 15 16  2  0  0  0  0
 16 17  1  0  0  0  0
 16 18  1  0  0  0  0
 18 19  1  0  0  0  0
 18 20  1  0  0  0  0
 20 21  1  0  0  0  0
 22 23  2  0  0  0  0
 22 24  1  0  0  0  0
 24 25  1  0  0  0  0
 24 26  1  0  0  0  0
 26 27  1  0  0  0  0
 26 28  1  0  0  0  0
 26 29  1  0  0  0  0
M  END
$$$$

  -OEChem-04042215593D

 29 29  0     1  0  0  0  0  0999 V2000
   -2.7244   -4.4878    1.2741 H   0  0  0  0  0  0  0  0  0  0  0  0
   -2.9147   -3.4863    0.8782 C   0  0  0  0  0  0  0  0  0  0  0  0
   -3.4914   -2.9207    1.6142 H   0  0  0  0  0  0  0  0  0  0  0  0
   -3.4975   -3.5756   -0.0417 H   0  0  0  0  0  0  0  0  0  0  0  0
   -1.6033   -2.7790    0.5926 C   0  0  0  0  0  0  0  0  0  0  0  0
   -0.5469   -3.3636    0.7711 O   0  0  0  0  0  0  0  0  0  0  0  0
   -1.6188   -1.4873    0.1101 N   0  0  0  0  0  0  0  0  0  0  0  0
   -2.5225   -1.0189    0.0791 H   0  0  0  0  0  0  0  0  0  0  0  0
   -0.4362   -0.6227   -0.0136 C   0  0  1  0  0  0  0  0  0  0  0  0
    0.3297   -1.0405    0.6499 H   0  0  0  0  0  0  0  0  0  0  0  0
    0.1106   -0.6220   -1.4505 C   0  0  0  0  0  0  0  0  0  0  0  0
   -0.3149   -1.4562   -2.0158 H   0  0  0  0  0  0  0  0  0  0  0  0
   -0.1677    0.3033   -1.9638 H   0  0  0  0  0  0  0  0  0  0  0  0
    1.6057   -0.7589   -1.4310 C   0  0  0  0  0  0  0  0  0  0  0  0
    2.4338   -0.0384   -0.5724 N   0  0  0  0  0  0  0  0  0  0  0  0
    3.6574   -0.4421   -0.8228 C   0  0  0  0  0  0  0  0  0  0  0  0
    4.5465   -0.0747   -0.3180 H   0  0  0  0  0  0  0  0  0  0  0  0
    3.6483   -1.4010   -1.8184 N   0  0  0  0  0  0  0  0  0  0  0  0
    4.4703   -1.8834   -2.1771 H   0  0  0  0  0  0  0  0  0  0  0  0
    2.3417   -1.6095   -2.2055 C   0  0  0  0  0  0  0  0  0  0  0  0
    1.9604   -2.3035   -2.9489 H   0  0  0  0  0  0  0  0  0  0  0  0
   -0.6809    0.8087    0.4935 C   0  0  0  0  0  0  0  0  0  0  0  0
   -1.7745    1.3367    0.3167 O   0  0  0  0  0  0  0  0  0  0  0  0
    0.2643    1.4180    1.2946 N   0  0  0  0  0  0  0  0  0  0  0  0
    1.2001    1.0132    1.2449 H   0  0  0  0  0  0  0  0  0  0  0  0
    0.1195    2.7763    1.7992 C   0  0  0  0  0  0  0  0  0  0  0  0
   -0.7954    2.8696    2.3937 H   0  0  0  0  0  0  0  0  0  0  0  0
    0.9708    3.0329    2.4370 H   0  0  0  0  0  0  0  0  0  0  0  0
    0.0770    3.4899    0.9699 H   0  0  0  0  0  0  0  0  0  0  0  0
  1  2  1  0  0  0  0
  2  3  1  0  0  0  0
  2  4  1  0  0  0  0
  2  5  1  0  0  0  0
  5  6  2  0  0  0  0
  5  7  1  0  0  0  0
  7  8  1  0  0  0  0
  7  9  1  0  0  0  0
  9 10  1  0  0  0  0
  9 11  1  0  0  0  0
  9 22  1  0  0  0  0
 11 12  1  0  0  0  0
 11 13  1  0  0  0  0
 11 14  1  0  0  0  0
 14 15  1  0  0  0  0
 14 20  2  0  0  0  0
 15 16  2  0  0  0  0
 16 17  1  0  0  0  0
 16 18  1  0  0  0  0
 18 19  1  0  0  0  0
 18 20  1  0  0  0  0
 20 21  1  0  0  0  0
 22 23  2  0  0  0  0
 22 24  1  0  0  0  0
 24 25  1  0  0  0  0
 24 26  1  0  0  0  0
 26 27  1  0  0  0  0
 26 28  1  0  0  0  0
 26 29  1  0  0  0  0
M  END
$$$$

  -OEChem-04042215593D

 29 29  0     1  0  0  0  0  0999 V2000
   -2.7177   -4.5018    1.2590 H   0  0  0  0  0  0  0  0  0  0  0  0
   -2.9115   -3.4993    0.8670 C   0  0  0  0  0  0  0  0  0  0  0  0
   -3.4980   -2.9421    1.6016 H   0  0  0  0  0  0  0  0  0  0  0  0
   -3.4863   -3.5876   -0.0580 H   0  0  0  0  0  0  0  0  0  0  0  0
   -1.6022   -2.7819    0.5962 C   0  0  0  0  0  0  0  0  0  0  0  0
   -0.5449   -3.3607    0.7862 O   0  0  0  0  0  0  0  0  0  0  0  0
   -1.6214   -1.4894    0.1149 N   0  0  0  0  0  0  0  0  0  0  0  0
   -2.5290   -1.0303    0.0686 H   0  0  0  0  0  0  0  0  0  0  0  0
   -0.4446   -0.6144    0.0001 C   0  0  1  0  0  0  0  0  0  0  0  0
    0.3121   -1.0315    0.6734 H   0  0  0  0  0  0  0  0  0  0  0  0
    0.1159   -0.6195   -1.4333 C   0  0  0  0  0  0  0  0  0  0  0  0
   -0.3016   -1.4602   -1.9952 H   0  0  0  0  0  0  0  0  0  0  0  0
   -0.1734    0.3001   -1.9507 H   0  0  0  0  0  0  0  0  0  0  0  0
    1.6149   -0.7414   -1.4326 C   0  0  0  0  0  0  0  0  0  0  0  0
    2.4480   -0.2590   -0.4237 N   0  0  0  0  0  0  0  0  0  0  0  0
    3.6691   -0.6021   -0.7603 C   0  0  0  0  0  0  0  0  0  0  0  0
    4.5586   -0.3790   -0.1779 H   0  0  0  0  0  0  0  0  0  0  0  0
    3.6569   -1.2867   -1.9608 N   0  0  0  0  0  0  0  0  0  0  0  0
    4.4765   -1.6740   -2.4249 H   0  0  0  0  0  0  0  0  0  0  0  0
    2.3499   -1.3839   -2.3884 C   0  0  0  0  0  0  0  0  0  0  0  0
    1.9669   -1.8753   -3.2779 H   0  0  0  0  0  0  0  0  0  0  0  0
   -0.6911    0.8173    0.5029 C   0  0  0  0  0  0  0  0  0  0  0  0
   -1.7741    1.3565    0.2981 O   0  0  0  0  0  0  0  0  0  0  0  0
    0.2506    1.4277    1.3075 N   0  0  0  0  0  0  0  0  0  0  0  0
    1.1756    0.9960    1.3055 H   0  0  0  0  0  0  0  0  0  0  0  0
    0.1140    2.7911    1.8011 C   0  0  0  0  0  0  0  0  0  0  0  0
   -0.8016    2.8952    2.3926 H   0  0  0  0  0  0  0  0  0  0  0  0
    0.9658    3.0474    2.4383 H   0  0  0  0  0  0  0  0  0  0  0  0
    0.0778    3.4990    0.9665 H   0  0  0  0  0  0  0  0  0  0  0  0
  1  2  1  0  0  0  0
  2  3  1  0  0  0  0
  2  4  1  0  0  0  0
  2  5  1  0  0  0  0
  5  6  2  0  0  0  0
  5  7  1  0  0  0  0
  7  8  1  0  0  0  0
  7  9  1  0  0  0  0
  9 10  1  0  0  0  0
  9 11  1  0  0  0  0
  9 22  1  0  0  0  0
 11 12  1  0  0  0  0
 11 13  1  0  0  0  0
 11 14  1  0  0  0  0
 14 15  1  0  0  0  0
 14 20  2  0  0  0  0
 15 16  2  0  0  0  0
 16 17  1  0  0  0  0
 16 18  1  0  0  0  0
 18 19  1  0  0  0  0
 18 20  1  0  0  0  0
 20 21  1  0  0  0  0
 22 23  2  0  0  0  0
 22 24  1  0  0  0  0
 24 25  1  0  0  0  0
 24 26  1  0  0  0  0
 26 27  1  0  0  0  0
 26 28  1  0  0  0  0
 26 29  1  0  0  0  0
M  END
$$$$

  -OEChem-04042215593D

 29 29  0     1  0  0  0  0  0999 V2000
   -2.7346   -4.4939    1.2774 H   0  0  0  0  0  0  0  0  0  0  0  0
   -2.9197   -3.5013    0.8573 C   0  0  0  0  0  0  0  0  0  0  0  0
   -3.5316   -2.9310    1.5603 H   0  0  0  0  0  0  0  0  0  0  0  0
   -3.4642   -3.6126   -0.0833 H   0  0  0  0  0  0  0  0  0  0  0  0
   -1.6055   -2.7832    0.6132 C   0  0  0  0  0  0  0  0  0  0  0  0
   -0.5529   -3.3573    0.8376 O   0  0  0  0  0  0  0  0  0  0  0  0
   -1.6186   -1.4932    0.1248 N   0  0  0  0  0  0  0  0  0  0  0  0
   -2.5276   -1.0417    0.0476 H   0  0  0  0  0  0  0  0  0  0  0  0
   -0.4447   -0.6126    0.0198 C   0  0  1  0  0  0  0  0  0  0  0  0
    0.3004   -1.0255    0.7071 H   0  0  0  0  0  0  0  0  0  0  0  0
    0.1309   -0.6265   -1.4096 C   0  0  0  0  0  0  0  0  0  0  0  0
   -0.2774   -1.4783   -1.9614 H   0  0  0  0  0  0  0  0  0  0  0  0
   -0.1696    0.2821   -1.9400 H   0  0  0  0  0  0  0  0  0  0  0  0
    1.6321   -0.7394   -1.4251 C   0  0  0  0  0  0  0  0  0  0  0  0
    2.4750   -0.5278   -0.3351 N   0  0  0  0  0  0  0  0  0  0  0  0
    3.6933   -0.7765   -0.7527 C   0  0  0  0  0  0  0  0  0  0  0  0
    4.5858   -0.7088   -0.1372 H   0  0  0  0  0  0  0  0  0  0  0  0
    3.6722   -1.1337   -2.0873 N   0  0  0  0  0  0  0  0  0  0  0  0
    4.4883   -1.3903   -2.6398 H   0  0  0  0  0  0  0  0  0  0  0  0
    2.3621   -1.1173   -2.5168 C   0  0  0  0  0  0  0  0  0  0  0  0
    1.9736   -1.3649   -3.5002 H   0  0  0  0  0  0  0  0  0  0  0  0
   -0.6969    0.8215    0.5086 C   0  0  0  0  0  0  0  0  0  0  0  0
   -1.7679    1.3694    0.2686 O   0  0  0  0  0  0  0  0  0  0  0  0
    0.2363    1.4364    1.3196 N   0  0  0  0  0  0  0  0  0  0  0  0
    1.1454    0.9778    1.3820 H   0  0  0  0  0  0  0  0  0  0  0  0
    0.0987    2.8016    1.8072 C   0  0  0  0  0  0  0  0  0  0  0  0
   -0.8431    2.9210    2.3530 H   0  0  0  0  0  0  0  0  0  0  0  0
    0.9221    3.0438    2.4859 H   0  0  0  0  0  0  0  0  0  0  0  0
    0.1152    3.5090    0.9718 H   0  0  0  0  0  0  0  0  0  0  0  0
  1  2  1  0  0  0  0
  2  3  1  0  0  0  0
  2  4  1  0  0  0  0
  2  5  1  0  0  0  0
  5  6  2  0  0  0  0
  5  7  1  0  0  0  0
  7  8  1  0  0  0  0
  7  9  1  0  0  0  0
  9 10  1  0  0  0  0
  9 11  1  0  0  0  0
  9 22  1  0  0  0  0
 11 12  1  0  0  0  0
 11 13  1  0  0  0  0
 11 14  1  0  0  0  0
 14 15  1  0  0  0  0
 14 20  2  0  0  0  0
 15 16  2  0  0  0  0
 16 17  1  0  0  0  0
 16 18  1  0  0  0  0
 18 19  1  0  0  0  0
 18 20  1  0  0  0  0
 20 21  1  0  0  0  0
 22 23  2  0  0  0  0
 22 24  1  0  0  0  0
 24 25  1  0  0  0  0
 24 26  1  0  0  0  0
 26 27  1  0  0  0  0
 26 28  1  0  0  0  0
 26 29  1  0  0  0  0
M  END
$$$$

  -OEChem-04042215593D

 29 29  0     1  0  0  0  0  0999 V2000
   -2.7670   -4.4873    1.2603 H   0  0  0  0  0  0  0  0  0  0  0  0
   -2.9357   -3.4917    0.8403 C   0  0  0  0  0  0  0  0  0  0  0  0
   -3.5714   -2.9244    1.5243 H   0  0  0  0  0  0  0  0  0  0  0  0
   -3.4465   -3.5964   -0.1199 H   0  0  0  0  0  0  0  0  0  0  0  0
   -1.6125   -2.7745    0.6476 C   0  0  0  0  0  0  0  0  0  0  0  0
   -0.5719   -3.3429    0.9321 O   0  0  0  0  0  0  0  0  0  0  0  0
   -1.6051   -1.4913    0.1414 N   0  0  0  0  0  0  0  0  0  0  0  0
   -2.5102   -1.0425    0.0173 H   0  0  0  0  0  0  0  0  0  0  0  0
   -0.4248   -0.6172    0.0468 C   0  0  1  0  0  0  0  0  0  0  0  0
    0.3132   -1.0224    0.7458 H   0  0  0  0  0  0  0  0  0  0  0  0
    0.1554   -0.6448   -1.3825 C   0  0  0  0  0  0  0  0  0  0  0  0
   -0.2534   -1.5067   -1.9179 H   0  0  0  0  0  0  0  0  0  0  0  0
   -0.1503    0.2527   -1.9289 H   0  0  0  0  0  0  0  0  0  0  0  0
    1.6562   -0.7693   -1.4193 C   0  0  0  0  0  0  0  0  0  0  0  0
    2.5109   -0.8536   -0.3232 N   0  0  0  0  0  0  0  0  0  0  0  0
    3.7254   -0.9808   -0.8008 C   0  0  0  0  0  0  0  0  0  0  0  0
    4.6228   -1.0796   -0.1967 H   0  0  0  0  0  0  0  0  0  0  0  0
    3.6923   -0.9650   -2.1816 N   0  0  0  0  0  0  0  0  0  0  0  0
    4.5037   -1.0571   -2.7900 H   0  0  0  0  0  0  0  0  0  0  0  0
    2.3786   -0.8323   -2.5784 C   0  0  0  0  0  0  0  0  0  0  0  0
    1.9828   -0.7973   -3.5891 H   0  0  0  0  0  0  0  0  0  0  0  0
   -0.6888    0.8230    0.5121 C   0  0  0  0  0  0  0  0  0  0  0  0
   -1.7450    1.3748    0.2214 O   0  0  0  0  0  0  0  0  0  0  0  0
    0.2223    1.4551    1.3357 N   0  0  0  0  0  0  0  0  0  0  0  0
    1.1113    0.9788    1.4819 H   0  0  0  0  0  0  0  0  0  0  0  0
    0.0602    2.8198    1.8179 C   0  0  0  0  0  0  0  0  0  0  0  0
   -0.8869    2.9263    2.3570 H   0  0  0  0  0  0  0  0  0  0  0  0
    0.8753    3.0777    2.5010 H   0  0  0  0  0  0  0  0  0  0  0  0
    0.0713    3.5252    0.9807 H   0  0  0  0  0  0  0  0  0  0  0  0
  1  2  1  0  0  0  0
  2  3  1  0  0  0  0
  2  4  1  0  0  0  0
  2  5  1  0  0  0  0
  5  6  2  0  0  0  0
  5  7  1  0  0  0  0
  7  8  1  0  0  0  0
  7  9  1  0  0  0  0
  9 10  1  0  0  0  0
  9 11  1  0  0  0  0
  9 22  1  0  0  0  0
 11 12  1  0  0  0  0
 11 13  1  0  0  0  0
 11 14  1  0  0  0  0
 14 15  1  0  0  0  0
 14 20  2  0  0  0  0
 15 16  2  0  0  0  0
 16 17  1  0  0  0  0
 16 18  1  0  0  0  0
 18 19  1  0  0  0  0
 18 20  1  0  0  0  0
 20 21  1  0  0  0  0
 22 23  2  0  0  0  0
 22 24  1  0  0  0  0
 24 25  1  0  0  0  0
 24 26  1  0  0  0  0
 26 27  1  0  0  0  0
 26 28  1  0  0  0  0
 26 29  1  0  0  0  0
M  END
$$$$

  -OEChem-04042215593D

 29 29  0     1  0  0  0  0  0999 V2000
   -2.7863   -4.4805    1.2583 H   0  0  0  0  0  0  0  0  0  0  0  0
   -2.9434   -3.4873    0.8283 C   0  0  0  0  0  0  0  0  0  0  0  0
   -3.6006   -2.9174    1.4895 H   0  0  0  0  0  0  0  0  0  0  0  0
   -3.4239   -3.5978   -0.1467 H   0  0  0  0  0  0  0  0  0  0  0  0
   -1.6157   -2.7694    0.6731 C   0  0  0  0  0  0  0  0  0  0  0  0
   -0.5863   -3.3296    1.0085 O   0  0  0  0  0  0  0  0  0  0  0  0
   -1.5941   -1.4910    0.1551 N   0  0  0  0  0  0  0  0  0  0  0  0
   -2.4946   -1.0468   -0.0113 H   0  0  0  0  0  0  0  0  0  0  0  0
   -0.4075   -0.6250    0.0619 C   0  0  1  0  0  0  0  0  0  0  0  0
    0.3341   -1.0249    0.7595 H   0  0  0  0  0  0  0  0  0  0  0  0
    0.1615   -0.6550   -1.3731 C   0  0  0  0  0  0  0  0  0  0  0  0
   -0.2518   -1.5227   -1.8952 H   0  0  0  0  0  0  0  0  0  0  0  0
   -0.1517    0.2359   -1.9264 H   0  0  0  0  0  0  0  0  0  0  0  0
    1.6603   -0.7934   -1.4291 C   0  0  0  0  0  0  0  0  0  0  0  0
    2.5043   -1.1762   -0.3918 N   0  0  0  0  0  0  0  0  0  0  0  0
    3.7236   -1.1733   -0.8728 C   0  0  0  0  0  0  0  0  0  0  0  0
    4.6141   -1.4388   -0.3101 H   0  0  0  0  0  0  0  0  0  0  0  0
    3.7051   -0.7768   -2.1958 N   0  0  0  0  0  0  0  0  0  0  0  0
    4.5232   -0.6972   -2.7970 H   0  0  0  0  0  0  0  0  0  0  0  0
    2.3957   -0.5317   -2.5519 C   0  0  0  0  0  0  0  0  0  0  0  0
    2.0110   -0.2093   -3.5149 H   0  0  0  0  0  0  0  0  0  0  0  0
   -0.6779    0.8189    0.5144 C   0  0  0  0  0  0  0  0  0  0  0  0
   -1.7208    1.3763    0.1891 O   0  0  0  0  0  0  0  0  0  0  0  0
    0.2216    1.4616    1.3431 N   0  0  0  0  0  0  0  0  0  0  0  0
    1.0856    0.9666    1.5565 H   0  0  0  0  0  0  0  0  0  0  0  0
    0.0499    2.8291    1.8150 C   0  0  0  0  0  0  0  0  0  0  0  0
   -0.8983    2.9338    2.3528 H   0  0  0  0  0  0  0  0  0  0  0  0
    0.8633    3.0976    2.4960 H   0  0  0  0  0  0  0  0  0  0  0  0
    0.0571    3.5281    0.9723 H   0  0  0  0  0  0  0  0  0  0  0  0
  1  2  1  0  0  0  0
  2  3  1  0  0  0  0
  2  4  1  0  0  0  0
  2  5  1  0  0  0  0
  5  6  2  0  0  0  0
  5  7  1  0  0  0  0
  7  8  1  0  0  0  0
  7  9  1  0  0  0  0
  9 10  1  0  0  0  0
  9 11  1  0  0  0  0
  9 22  1  0  0  0  0
 11 12  1  0  0  0  0
 11 13  1  0  0  0  0
 11 14  1  0  0  0  0
 14 15  1  0  0  0  0
 14 20  2  0  0  0  0
 15 16  2  0  0  0  0
 16 17  1  0  0  0  0
 16 18  1  0  0  0  0
 18 19  1  0  0  0  0
 18 20  1  0  0  0  0
 20 21  1  0  0  0  0
 22 23  2  0  0  0  0
 22 24  1  0  0  0  0
 24 25  1  0  0  0  0
 24 26  1  0  0  0  0
 26 27  1  0  0  0  0
 26 28  1  0  0  0  0
 26 29  1  0  0  0  0
M  END
$$$$

  -OEChem-04042215593D

 29 29  0     1  0  0  0  0  0999 V2000
   -2.7859   -4.4765    1.2435 H   0  0  0  0  0  0  0  0  0  0  0  0
   -2.9357   -3.4822    0.8135 C   0  0  0  0  0  0  0  0  0  0  0  0
   -3.6169   -2.9193    1.4561 H   0  0  0  0  0  0  0  0  0  0  0  0
   -3.3846   -3.5912   -0.1765 H   0  0  0  0  0  0  0  0  0  0  0  0
   -1.6082   -2.7557    0.7025 C   0  0  0  0  0  0  0  0  0  0  0  0
   -0.5908   -3.2983    1.0975 O   0  0  0  0  0  0  0  0  0  0  0  0
   -1.5773   -1.4826    0.1717 N   0  0  0  0  0  0  0  0  0  0  0  0
   -2.4732   -1.0495   -0.0414 H   0  0  0  0  0  0  0  0  0  0  0  0
   -0.3867   -0.6236    0.0645 C   0  0  1  0  0  0  0  0  0  0  0  0
    0.3692   -1.0192    0.7500 H   0  0  0  0  0  0  0  0  0  0  0  0
    0.1564   -0.6537   -1.3811 C   0  0  0  0  0  0  0  0  0  0  0  0
   -0.2680   -1.5202   -1.8964 H   0  0  0  0  0  0  0  0  0  0  0  0
   -0.1618    0.2376   -1.9307 H   0  0  0  0  0  0  0  0  0  0  0  0
    1.6525   -0.8033   -1.4552 C   0  0  0  0  0  0  0  0  0  0  0  0
    2.4655   -1.4614   -0.5406 N   0  0  0  0  0  0  0  0  0  0  0  0
    3.6968   -1.3516   -0.9756 C   0  0  0  0  0  0  0  0  0  0  0  0
    4.5698   -1.7696   -0.4824 H   0  0  0  0  0  0  0  0  0  0  0  0
    3.7156   -0.6201   -2.1474 N   0  0  0  0  0  0  0  0  0  0  0  0
    4.5497   -0.3947   -2.6862 H   0  0  0  0  0  0  0  0  0  0  0  0
    2.4183   -0.2663   -2.4532 C   0  0  0  0  0  0  0  0  0  0  0  0
    2.0622    0.3099   -3.3021 H   0  0  0  0  0  0  0  0  0  0  0  0
   -0.6604    0.8235    0.5062 C   0  0  0  0  0  0  0  0  0  0  0  0
   -1.6988    1.3806    0.1662 O   0  0  0  0  0  0  0  0  0  0  0  0
    0.2370    1.4781    1.3281 N   0  0  0  0  0  0  0  0  0  0  0  0
    1.0777    0.9706    1.5953 H   0  0  0  0  0  0  0  0  0  0  0  0
    0.0348    2.8322    1.8256 C   0  0  0  0  0  0  0  0  0  0  0  0
   -0.8836    2.8889    2.4192 H   0  0  0  0  0  0  0  0  0  0  0  0
    0.8750    3.1309    2.4598 H   0  0  0  0  0  0  0  0  0  0  0  0
   -0.0385    3.5389    0.9926 H   0  0  0  0  0  0  0  0  0  0  0  0
  1  2  1  0  0  0  0
  2  3  1  0  0  0  0
  2  4  1  0  0  0  0
  2  5  1  0  0  0  0
  5  6  2  0  0  0  0
  5  7  1  0  0  0  0
  7  8  1  0  0  0  0
  7  9  1  0  0  0  0
  9 10  1  0  0  0  0
  9 11  1  0  0  0  0
  9 22  1  0  0  0  0
 11 12  1  0  0  0  0
 11 13  1  0  0  0  0
 11 14  1  0  0  0  0
 14 15  1  0  0  0  0
 14 20  2  0  0  0  0
 15 16  2  0  0  0  0
 16 17  1  0  0  0  0
 16 18  1  0  0  0  0
 18 19  1  0  0  0  0
 18 20  1  0  0  0  0
 20 21  1  0  0  0  0
 22 23  2  0  0  0  0
 22 24  1  0  0  0  0
 24 25  1  0  0  0  0
 24 26  1  0  0  0  0
 26 27  1  0  0  0  0
 26 28  1  0  0  0  0
 26 29  1  0  0  0  0
M  END
$$$$

  -OEChem-04042215593D

 29 29  0     1  0  0  0  0  0999 V2000
   -2.7485   -4.4925    1.2246 H   0  0  0  0  0  0  0  0  0  0  0  0
   -2.9060   -3.5001    0.7931 C   0  0  0  0  0  0  0  0  0  0  0  0
   -3.6133   -2.9514    1.4196 H   0  0  0  0  0  0  0  0  0  0  0  0
   -3.3280   -3.6153   -0.2080 H   0  0  0  0  0  0  0  0  0  0  0  0
   -1.5898   -2.7490    0.7166 C   0  0  0  0  0  0  0  0  0  0  0  0
   -0.5759   -3.2686    1.1496 O   0  0  0  0  0  0  0  0  0  0  0  0
   -1.5672   -1.4757    0.1857 N   0  0  0  0  0  0  0  0  0  0  0  0
   -2.4622   -1.0615   -0.0642 H   0  0  0  0  0  0  0  0  0  0  0  0
   -0.3798   -0.6145    0.0671 C   0  0  1  0  0  0  0  0  0  0  0  0
    0.3941   -1.0089    0.7342 H   0  0  0  0  0  0  0  0  0  0  0  0
    0.1361   -0.6338   -1.3881 C   0  0  0  0  0  0  0  0  0  0  0  0
   -0.2942   -1.4951   -1.9076 H   0  0  0  0  0  0  0  0  0  0  0  0
   -0.1870    0.2633   -1.9253 H   0  0  0  0  0  0  0  0  0  0  0  0
    1.6295   -0.7832   -1.4689 C   0  0  0  0  0  0  0  0  0  0  0  0
    2.3963   -1.6779   -0.7357 N   0  0  0  0  0  0  0  0  0  0  0  0
    3.6426   -1.4970   -1.0973 C   0  0  0  0  0  0  0  0  0  0  0  0
    4.4897   -2.0538   -0.7069 H   0  0  0  0  0  0  0  0  0  0  0  0
    3.7141   -0.4920   -2.0431 N   0  0  0  0  0  0  0  0  0  0  0  0
    4.5693   -0.1638   -2.4879 H   0  0  0  0  0  0  0  0  0  0  0  0
    2.4351   -0.0344   -2.2814 C   0  0  0  0  0  0  0  0  0  0  0  0
    2.1174    0.7463   -2.9663 H   0  0  0  0  0  0  0  0  0  0  0  0
   -0.6572    0.8310    0.5136 C   0  0  0  0  0  0  0  0  0  0  0  0
   -1.6925    1.3910    0.1688 O   0  0  0  0  0  0  0  0  0  0  0  0
    0.2444    1.4890    1.3285 N   0  0  0  0  0  0  0  0  0  0  0  0
    1.0761    0.9759    1.6111 H   0  0  0  0  0  0  0  0  0  0  0  0
    0.0432    2.8435    1.8257 C   0  0  0  0  0  0  0  0  0  0  0  0
   -0.8786    2.9035    2.4140 H   0  0  0  0  0  0  0  0  0  0  0  0
    0.8806    3.1381    2.4655 H   0  0  0  0  0  0  0  0  0  0  0  0
   -0.0217    3.5514    0.9929 H   0  0  0  0  0  0  0  0  0  0  0  0
  1  2  1  0  0  0  0
  2  3  1  0  0  0  0
  2  4  1  0  0  0  0
  2  5  1  0  0  0  0
  5  6  2  0  0  0  0
  5  7  1  0  0  0  0
  7  8  1  0  0  0  0
  7  9  1  0  0  0  0
  9 10  1  0  0  0  0
  9 11  1  0  0  0  0
  9 22  1  0  0  0  0
 11 12  1  0  0  0  0
 11 13  1  0  0  0  0
 11 14  1  0  0  0  0
 14 15  1  0  0  0  0
 14 20  2  0  0  0  0
 15 16  2  0  0  0  0
 16 17  1  0  0  0  0
 16 18  1  0  0  0  0
 18 19  1  0  0  0  0
 18 20  1  0  0  0  0
 20 21  1  0  0  0  0
 22 23  2  0  0  0  0
 22 24  1  0  0  0  0
 24 25  1  0  0  0  0
 24 26  1  0  0  0  0
 26 27  1  0  0  0  0
 26 28  1  0  0  0  0
 26 29  1  0  0  0  0
M  END
$$$$

  -OEChem-04042215593D

 29 29  0     1  0  0  0  0  0999 V2000
   -2.7104   -4.5013    1.2093 H   0  0  0  0  0  0  0  0  0  0  0  0
   -2.8756   -3.5119    0.7738 C   0  0  0  0  0  0  0  0  0  0  0  0
   -3.6053   -2.9751    1.3847 H   0  0  0  0  0  0  0  0  0  0  0  0
   -3.2741   -3.6348   -0.2361 H   0  0  0  0  0  0  0  0  0  0  0  0
   -1.5710   -2.7388    0.7254 C   0  0  0  0  0  0  0  0  0  0  0  0
   -0.5597   -3.2359    1.1903 O   0  0  0  0  0  0  0  0  0  0  0  0
   -1.5576   -1.4654    0.1945 N   0  0  0  0  0  0  0  0  0  0  0  0
   -2.4522   -1.0655   -0.0786 H   0  0  0  0  0  0  0  0  0  0  0  0
   -0.3725   -0.6030    0.0659 C   0  0  1  0  0  0  0  0  0  0  0  0
    0.4154   -0.9976    0.7171 H   0  0  0  0  0  0  0  0  0  0  0  0
    0.1221   -0.6152   -1.3962 C   0  0  0  0  0  0  0  0  0  0  0  0
   -0.3156   -1.4672   -1.9245 H   0  0  0  0  0  0  0  0  0  0  0  0
   -0.1978    0.2911   -1.9196 H   0  0  0  0  0  0  0  0  0  0  0  0
    1.6130   -0.7656   -1.4758 C   0  0  0  0  0  0  0  0  0  0  0  0
    2.3325   -1.8407   -0.9771 N   0  0  0  0  0  0  0  0  0  0  0  0
    3.5938   -1.6101   -1.2471 C   0  0  0  0  0  0  0  0  0  0  0  0
    4.4152   -2.2719   -0.9873 H   0  0  0  0  0  0  0  0  0  0  0  0
    3.7183   -0.4024   -1.9084 N   0  0  0  0  0  0  0  0  0  0  0  0
    4.5944    0.0003   -2.2359 H   0  0  0  0  0  0  0  0  0  0  0  0
    2.4579    0.1373   -2.0588 C   0  0  0  0  0  0  0  0  0  0  0  0
    2.1781    1.0719   -2.5361 H   0  0  0  0  0  0  0  0  0  0  0  0
   -0.6516    0.8415    0.5172 C   0  0  0  0  0  0  0  0  0  0  0  0
   -1.6864    1.4019    0.1724 O   0  0  0  0  0  0  0  0  0  0  0  0
    0.2521    1.5047    1.3259 N   0  0  0  0  0  0  0  0  0  0  0  0
    1.0735    0.9870    1.6289 H   0  0  0  0  0  0  0  0  0  0  0  0
    0.0369    2.8534    1.8341 C   0  0  0  0  0  0  0  0  0  0  0  0
   -0.8692    2.8914    2.4478 H   0  0  0  0  0  0  0  0  0  0  0  0
    0.8856    3.1648    2.4507 H   0  0  0  0  0  0  0  0  0  0  0  0
   -0.0670    3.5626    1.0062 H   0  0  0  0  0  0  0  0  0  0  0  0
  1  2  1  0  0  0  0
  2  3  1  0  0  0  0
  2  4  1  0  0  0  0
  2  5  1  0  0  0  0
  5  6  2  0  0  0  0
  5  7  1  0  0  0  0
  7  8  1  0  0  0  0
  7  9  1  0  0  0  0
  9 10  1  0  0  0  0
  9 11  1  0  0  0  0
  9 22  1  0  0  0  0
 11 12  1  0  0  0  0
 11 13  1  0  0  0  0
 11 14  1  0  0  0  0
 14 15  1  0  0  0  0
 14 20  2  0  0  0  0
 15 16  2  0  0  0  0
 16 17  1  0  0  0  0
 16 18  1  0  0  0  0
 18 19  1  0  0  0  0
 18 20  1  0  0  0  0
 20 21  1  0  0  0  0
 22 23  2  0  0  0  0
 22 24  1  0  0  0  0
 24 25  1  0  0  0  0
 24 26  1  0  0  0  0
 26 27  1  0  0  0  0
 26 28  1  0  0  0  0
 26 29  1  0  0  0  0
M  END
$$$$

  -OEChem-04042215593D

 29 29  0     1  0  0  0  0  0999 V2000
   -2.6903   -4.4965    1.2144 H   0  0  0  0  0  0  0  0  0  0  0  0
   -2.8577   -3.5124    0.7678 C   0  0  0  0  0  0  0  0  0  0  0  0
   -3.5972   -2.9749    1.3660 H   0  0  0  0  0  0  0  0  0  0  0  0
   -3.2449   -3.6471   -0.2449 H   0  0  0  0  0  0  0  0  0  0  0  0
   -1.5586   -2.7304    0.7249 C   0  0  0  0  0  0  0  0  0  0  0  0
   -0.5461   -3.2155    1.2007 O   0  0  0  0  0  0  0  0  0  0  0  0
   -1.5516   -1.4573    0.1939 N   0  0  0  0  0  0  0  0  0  0  0  0
   -2.4456   -1.0675   -0.0954 H   0  0  0  0  0  0  0  0  0  0  0  0
   -0.3687   -0.5933    0.0620 C   0  0  1  0  0  0  0  0  0  0  0  0
    0.4248   -0.9873    0.7070 H   0  0  0  0  0  0  0  0  0  0  0  0
    0.1189   -0.6042   -1.4018 C   0  0  0  0  0  0  0  0  0  0  0  0
   -0.3221   -1.4494   -1.9386 H   0  0  0  0  0  0  0  0  0  0  0  0
   -0.1948    0.3081   -1.9186 H   0  0  0  0  0  0  0  0  0  0  0  0
    1.6092   -0.7536   -1.4724 C   0  0  0  0  0  0  0  0  0  0  0  0
    2.2957   -1.9359   -1.2434 N   0  0  0  0  0  0  0  0  0  0  0  0
    3.5677   -1.6715   -1.4152 C   0  0  0  0  0  0  0  0  0  0  0  0
    4.3722   -2.3933   -1.3064 H   0  0  0  0  0  0  0  0  0  0  0  0
    3.7293   -0.3415   -1.7567 N   0  0  0  0  0  0  0  0  0  0  0  0
    4.6205    0.1088   -1.9566 H   0  0  0  0  0  0  0  0  0  0  0  0
    2.4821    0.2460   -1.8003 C   0  0  0  0  0  0  0  0  0  0  0  0
    2.2291    1.2739   -2.0436 H   0  0  0  0  0  0  0  0  0  0  0  0
   -0.6519    0.8499    0.5155 C   0  0  0  0  0  0  0  0  0  0  0  0
   -1.6869    1.4093    0.1701 O   0  0  0  0  0  0  0  0  0  0  0  0
    0.2520    1.5150    1.3229 N   0  0  0  0  0  0  0  0  0  0  0  0
    1.0639    0.9919    1.6415 H   0  0  0  0  0  0  0  0  0  0  0  0
    0.0242    2.8553    1.8476 C   0  0  0  0  0  0  0  0  0  0  0  0
   -0.8714    2.8730    2.4774 H   0  0  0  0  0  0  0  0  0  0  0  0
    0.8787    3.1744    2.4520 H   0  0  0  0  0  0  0  0  0  0  0  0
   -0.1057    3.5708    1.0290 H   0  0  0  0  0  0  0  0  0  0  0  0
  1  2  1  0  0  0  0
  2  3  1  0  0  0  0
  2  4  1  0  0  0  0
  2  5  1  0  0  0  0
  5  6  2  0  0  0  0
  5  7  1  0  0  0  0
  7  8  1  0  0  0  0
  7  9  1  0  0  0  0
  9 10  1  0  0  0  0
  9 11  1  0  0  0  0
  9 22  1  0  0  0  0
 11 12  1  0  0  0  0
 11 13  1  0  0  0  0
 11 14  1  0  0  0  0
 14 15  1  0  0  0  0
 14 20  2  0  0  0  0
 15 16  2  0  0  0  0
 16 17  1  0  0  0  0
 16 18  1  0  0  0  0
 18 19  1  0  0  0  0
 18 20  1  0  0  0  0
 20 21  1  0  0  0  0
 22 23  2  0  0  0  0
 22 24  1  0  0  0  0
 24 25  1  0  0  0  0
 24 26  1  0  0  0  0
 26 27  1  0  0  0  0
 26 28  1  0  0  0  0
 26 29  1  0  0  0  0
M  END
$$$$

  -OEChem-04042215593D

 29 29  0     1  0  0  0  0  0999 V2000
   -2.6752   -4.5017    1.2039 H   0  0  0  0  0  0  0  0  0  0  0  0
   -2.8481   -3.5177    0.7591 C   0  0  0  0  0  0  0  0  0  0  0  0
   -3.5969   -2.9888    1.3536 H   0  0  0  0  0  0  0  0  0  0  0  0
   -3.2270   -3.6531   -0.2567 H   0  0  0  0  0  0  0  0  0  0  0  0
   -1.5550   -2.7244    0.7273 C   0  0  0  0  0  0  0  0  0  0  0  0
   -0.5414   -3.2012    1.2099 O   0  0  0  0  0  0  0  0  0  0  0  0
   -1.5514   -1.4512    0.1959 N   0  0  0  0  0  0  0  0  0  0  0  0
   -2.4436   -1.0693   -0.1094 H   0  0  0  0  0  0  0  0  0  0  0  0
   -0.3694   -0.5866    0.0637 C   0  0  1  0  0  0  0  0  0  0  0  0
    0.4250   -0.9794    0.7084 H   0  0  0  0  0  0  0  0  0  0  0  0
    0.1175   -0.5985   -1.3996 C   0  0  0  0  0  0  0  0  0  0  0  0
   -0.3252   -1.4403   -1.9406 H   0  0  0  0  0  0  0  0  0  0  0  0
   -0.1909    0.3166   -1.9147 H   0  0  0  0  0  0  0  0  0  0  0  0
    1.6072   -0.7477   -1.4659 C   0  0  0  0  0  0  0  0  0  0  0  0
    2.2741   -1.9614   -1.5291 N   0  0  0  0  0  0  0  0  0  0  0  0
    3.5530   -1.6826   -1.5952 C   0  0  0  0  0  0  0  0  0  0  0  0
    4.3468   -2.4221   -1.6523 H   0  0  0  0  0  0  0  0  0  0  0  0
    3.7374   -0.3120   -1.5859 N   0  0  0  0  0  0  0  0  0  0  0  0
    4.6385    0.1591   -1.6426 H   0  0  0  0  0  0  0  0  0  0  0  0
    2.4979    0.2885   -1.5115 C   0  0  0  0  0  0  0  0  0  0  0  0
    2.2613    1.3486   -1.4960 H   0  0  0  0  0  0  0  0  0  0  0  0
   -0.6520    0.8570    0.5171 C   0  0  0  0  0  0  0  0  0  0  0  0
   -1.6848    1.4186    0.1695 O   0  0  0  0  0  0  0  0  0  0  0  0
    0.2528    1.5219    1.3238 N   0  0  0  0  0  0  0  0  0  0  0  0
    1.0556    0.9935    1.6563 H   0  0  0  0  0  0  0  0  0  0  0  0
    0.0216    2.8607    1.8507 C   0  0  0  0  0  0  0  0  0  0  0  0
   -0.8646    2.8711    2.4940 H   0  0  0  0  0  0  0  0  0  0  0  0
    0.8826    3.1877    2.4415 H   0  0  0  0  0  0  0  0  0  0  0  0
   -0.1268    3.5744    1.0335 H   0  0  0  0  0  0  0  0  0  0  0  0
  1  2  1  0  0  0  0
  2  3  1  0  0  0  0
  2  4  1  0  0  0  0
  2  5  1  0  0  0  0
  5  6  2  0  0  0  0
  5  7  1  0  0  0  0
  7  8  1  0  0  0  0
  7  9  1  0  0  0  0
  9 10  1  0  0  0  0
  9 11  1  0  0  0  0
  9 22  1  0  0  0  0
 11 12  1  0  0  0  0
 11 13  1  0  0  0  0
 11 14  1  0  0  0  0
 14 15  1  0  0  0  0
 14 20  2  0  0  0  0
 15 16  2  0  0  0  0
 16 17  1  0  0  0  0
 16 18  1  0  0  0  0
 18 19  1  0  0  0  0
 18 20  1  0  0  0  0
 20 21  1  0  0  0  0
 22 23  2  0  0  0  0
 22 24  1  0  0  0  0
 24 25  1  0  0  0  0
 24 26  1  0  0  0  0
 26 27  1  0  0  0  0
 26 28  1  0  0  0  0
 26 29  1  0  0  0  0
M  END
$$$$

  -OEChem-04042215593D

 29 29  0     1  0  0  0  0  0999 V2000
   -2.6650   -4.4957    1.2053 H   0  0  0  0  0  0  0  0  0  0  0  0
   -2.8416   -3.5127    0.7597 C   0  0  0  0  0  0  0  0  0  0  0  0
   -3.5889   -2.9845    1.3565 H   0  0  0  0  0  0  0  0  0  0  0  0
   -3.2240   -3.6502   -0.2545 H   0  0  0  0  0  0  0  0  0  0  0  0
   -1.5503   -2.7174    0.7224 C   0  0  0  0  0  0  0  0  0  0  0  0
   -0.5331   -3.1924    1.1998 O   0  0  0  0  0  0  0  0  0  0  0  0
   -1.5490   -1.4442    0.1911 N   0  0  0  0  0  0  0  0  0  0  0  0
   -2.4413   -1.0623   -0.1143 H   0  0  0  0  0  0  0  0  0  0  0  0
   -0.3670   -0.5793    0.0640 C   0  0  1  0  0  0  0  0  0  0  0  0
    0.4256   -0.9706    0.7116 H   0  0  0  0  0  0  0  0  0  0  0  0
    0.1237   -0.5954   -1.3985 C   0  0  0  0  0  0  0  0  0  0  0  0
   -0.3199   -1.4383   -1.9374 H   0  0  0  0  0  0  0  0  0  0  0  0
   -0.1814    0.3178   -1.9187 H   0  0  0  0  0  0  0  0  0  0  0  0
    1.6135   -0.7456   -1.4650 C   0  0  0  0  0  0  0  0  0  0  0  0
    2.2682   -1.9152   -1.8203 N   0  0  0  0  0  0  0  0  0  0  0  0
    3.5515   -1.6511   -1.7806 C   0  0  0  0  0  0  0  0  0  0  0  0
    4.3386   -2.3654   -2.0048 H   0  0  0  0  0  0  0  0  0  0  0  0
    3.7509   -0.3313   -1.4184 N   0  0  0  0  0  0  0  0  0  0  0  0
    4.6585    0.1220   -1.3310 H   0  0  0  0  0  0  0  0  0  0  0  0
    2.5166    0.2528   -1.2243 C   0  0  0  0  0  0  0  0  0  0  0  0
    2.2919    1.2793   -0.9492 H   0  0  0  0  0  0  0  0  0  0  0  0
   -0.6546    0.8634    0.5176 C   0  0  0  0  0  0  0  0  0  0  0  0
   -1.6855    1.4242    0.1640 O   0  0  0  0  0  0  0  0  0  0  0  0
    0.2458    1.5289    1.3295 N   0  0  0  0  0  0  0  0  0  0  0  0
    1.0322    0.9925    1.6872 H   0  0  0  0  0  0  0  0  0  0  0  0
    0.0048    2.8643    1.8613 C   0  0  0  0  0  0  0  0  0  0  0  0
   -0.8840    2.8671    2.5010 H   0  0  0  0  0  0  0  0  0  0  0  0
    0.8616    3.1941    2.4568 H   0  0  0  0  0  0  0  0  0  0  0  0
   -0.1445    3.5806    1.0466 H   0  0  0  0  0  0  0  0  0  0  0  0
  1  2  1  0  0  0  0
  2  3  1  0  0  0  0
  2  4  1  0  0  0  0
  2  5  1  0  0  0  0
  5  6  2  0  0  0  0
  5  7  1  0  0  0  0
  7  8  1  0  0  0  0
  7  9  1  0  0  0  0
  9 10  1  0  0  0  0
  9 11  1  0  0  0  0
  9 22  1  0  0  0  0
 11 12  1  0  0  0  0
 11 13  1  0  0  0  0
 11 14  1  0  0  0  0
 14 15  1  0  0  0  0
 14 20  2  0  0  0  0
 15 16  2  0  0  0  0
 16 17  1  0  0  0  0
 16 18  1  0  0  0  0
 18 19  1  0  0  0  0
 18 20  1  0  0  0  0
 20 21  1  0  0  0  0
 22 23  2  0  0  0  0
 22 24  1  0  0  0  0
 24 25  1  0  0  0  0
 24 26  1  0  0  0  0
 26 27  1  0  0  0  0
 26 28  1  0  0  0  0
 26 29  1  0  0  0  0
M  END
$$$$

  -OEChem-04042215593D

 29 29  0     1  0  0  0  0  0999 V2000
   -2.6683   -4.4854    1.2026 H   0  0  0  0  0  0  0  0  0  0  0  0
   -2.8412   -3.5026    0.7551 C   0  0  0  0  0  0  0  0  0  0  0  0
   -3.5903   -2.9722    1.3478 H   0  0  0  0  0  0  0  0  0  0  0  0
   -3.2202   -3.6412   -0.2604 H   0  0  0  0  0  0  0  0  0  0  0  0
   -1.5482   -2.7090    0.7217 C   0  0  0  0  0  0  0  0  0  0  0  0
   -0.5307   -3.1863    1.1968 O   0  0  0  0  0  0  0  0  0  0  0  0
   -1.5419   -1.4364    0.1892 N   0  0  0  0  0  0  0  0  0  0  0  0
   -2.4317   -1.0533   -0.1224 H   0  0  0  0  0  0  0  0  0  0  0  0
   -0.3589   -0.5706    0.0771 C   0  0  1  0  0  0  0  0  0  0  0  0
    0.4270   -0.9591    0.7341 H   0  0  0  0  0  0  0  0  0  0  0  0
    0.1439   -0.5932   -1.3825 C   0  0  0  0  0  0  0  0  0  0  0  0
   -0.2990   -1.4409   -1.9144 H   0  0  0  0  0  0  0  0  0  0  0  0
   -0.1609    0.3141   -1.9130 H   0  0  0  0  0  0  0  0  0  0  0  0
    1.6346   -0.7447   -1.4582 C   0  0  0  0  0  0  0  0  0  0  0  0
    2.2722   -1.8015   -2.0919 N   0  0  0  0  0  0  0  0  0  0  0  0
    3.5597   -1.5883   -1.9711 C   0  0  0  0  0  0  0  0  0  0  0  0
    4.3358   -2.2417   -2.3595 H   0  0  0  0  0  0  0  0  0  0  0  0
    3.7801   -0.4083   -1.2851 N   0  0  0  0  0  0  0  0  0  0  0  0
    4.6955   -0.0138   -1.0770 H   0  0  0  0  0  0  0  0  0  0  0  0
    2.5554    0.1382   -0.9631 C   0  0  0  0  0  0  0  0  0  0  0  0
    2.3511    1.0706   -0.4457 H   0  0  0  0  0  0  0  0  0  0  0  0
   -0.6611    0.8711    0.5269 C   0  0  0  0  0  0  0  0  0  0  0  0
   -1.6889    1.4264    0.1566 O   0  0  0  0  0  0  0  0  0  0  0  0
    0.2226    1.5426    1.3524 N   0  0  0  0  0  0  0  0  0  0  0  0
    0.9890    1.0024    1.7452 H   0  0  0  0  0  0  0  0  0  0  0  0
   -0.0386    2.8756    1.8822 C   0  0  0  0  0  0  0  0  0  0  0  0
   -0.9203    2.8637    2.5315 H   0  0  0  0  0  0  0  0  0  0  0  0
    0.8184    3.2242    2.4664 H   0  0  0  0  0  0  0  0  0  0  0  0
   -0.2105    3.5865    1.0670 H   0  0  0  0  0  0  0  0  0  0  0  0
  1  2  1  0  0  0  0
  2  3  1  0  0  0  0
  2  4  1  0  0  0  0
  2  5  1  0  0  0  0
  5  6  2  0  0  0  0
  5  7  1  0  0  0  0
  7  8  1  0  0  0  0
  7  9  1  0  0  0  0
  9 10  1  0  0  0  0
  9 11  1  0  0  0  0
  9 22  1  0  0  0  0
 11 12  1  0  0  0  0
 11 13  1  0  0  0  0
 11 14  1  0  0  0  0
 14 15  1  0  0  0  0
 14 20  2  0  0  0  0
 15 16  2  0  0  0  0
 16 17  1  0  0  0  0
 16 18  1  0  0  0  0
 18 19  1  0  0  0  0
 18 20  1  0  0  0  0
 20 21  1  0  0  0  0
 22 23  2  0  0  0  0
 22 24  1  0  0  0  0
 24 25  1  0  0  0  0
 24 26  1  0  0  0  0
 26 27  1  0  0  0  0
 26 28  1  0  0  0  0
 26 29  1  0  0  0  0
M  END
$$$$

  -OEChem-04042215593D

 29 29  0     1  0  0  0  0  0999 V2000
   -2.6633   -4.4790    1.1858 H   0  0  0  0  0  0  0  0  0  0  0  0
   -2.8349   -3.4918    0.7478 C   0  0  0  0  0  0  0  0  0  0  0  0
   -3.5867   -2.9677    1.3427 H   0  0  0  0  0  0  0  0  0  0  0  0
   -3.2089   -3.6200   -0.2709 H   0  0  0  0  0  0  0  0  0  0  0  0
   -1.5427   -2.6974    0.7282 C   0  0  0  0  0  0  0  0  0  0  0  0
   -0.5281   -3.1744    1.2102 O   0  0  0  0  0  0  0  0  0  0  0  0
   -1.5308   -1.4265    0.1926 N   0  0  0  0  0  0  0  0  0  0  0  0
   -2.4175   -1.0409   -0.1255 H   0  0  0  0  0  0  0  0  0  0  0  0
   -0.3472   -0.5598    0.0983 C   0  0  1  0  0  0  0  0  0  0  0  0
    0.4297   -0.9448    0.7672 H   0  0  0  0  0  0  0  0  0  0  0  0
    0.1695   -0.5847   -1.3579 C   0  0  0  0  0  0  0  0  0  0  0  0
   -0.2716   -1.4382   -1.8820 H   0  0  0  0  0  0  0  0  0  0  0  0
   -0.1398    0.3155   -1.8977 H   0  0  0  0  0  0  0  0  0  0  0  0
    1.6613   -0.7372   -1.4534 C   0  0  0  0  0  0  0  0  0  0  0  0
    2.2732   -1.6126   -2.3402 N   0  0  0  0  0  0  0  0  0  0  0  0
    3.5655   -1.4906   -2.1588 C   0  0  0  0  0  0  0  0  0  0  0  0
    4.3234   -2.0492   -2.7005 H   0  0  0  0  0  0  0  0  0  0  0  0
    3.8169   -0.5453   -1.1824 N   0  0  0  0  0  0  0  0  0  0  0  0
    4.7419   -0.2642   -0.8629 H   0  0  0  0  0  0  0  0  0  0  0  0
    2.6074   -0.0588   -0.7326 C   0  0  0  0  0  0  0  0  0  0  0  0
    2.4338    0.7045    0.0179 H   0  0  0  0  0  0  0  0  0  0  0  0
   -0.6709    0.8796    0.5418 C   0  0  0  0  0  0  0  0  0  0  0  0
   -1.6995    1.4218    0.1542 O   0  0  0  0  0  0  0  0  0  0  0  0
    0.1879    1.5631    1.3838 N   0  0  0  0  0  0  0  0  0  0  0  0
    0.9422    1.0300    1.8072 H   0  0  0  0  0  0  0  0  0  0  0  0
   -0.1023    2.8951    1.9005 C   0  0  0  0  0  0  0  0  0  0  0  0
   -1.0183    2.8819    2.5005 H   0  0  0  0  0  0  0  0  0  0  0  0
    0.7210    3.2439    2.5312 H   0  0  0  0  0  0  0  0  0  0  0  0
   -0.2298    3.6063    1.0775 H   0  0  0  0  0  0  0  0  0  0  0  0
  1  2  1  0  0  0  0
  2  3  1  0  0  0  0
  2  4  1  0  0  0  0
  2  5  1  0  0  0  0
  5  6  2  0  0  0  0
  5  7  1  0  0  0  0
  7  8  1  0  0  0  0
  7  9  1  0  0  0  0
  9 10  1  0  0  0  0
  9 11  1  0  0  0  0
  9 22  1  0  0  0  0
 11 12  1  0  0  0  0
 11 13  1  0  0  0  0
 11 14  1  0  0  0  0
 14 15  1  0  0  0  0
 14 20  2  0  0  0  0
 15 16  2  0  0  0  0
 16 17  1  0  0  0  0
 16 18  1  0  0  0  0
 18 19  1  0  0  0  0
 18 20  1  0  0  0  0
 20 21  1  0  0  0  0
 22 23  2  0  0  0  0
 22 24  1  0  0  0  0
 24 25  1  0  0  0  0
 24 26  1  0  0  0  0
 26 27  1  0  0  0  0
 26 28  1  0  0  0  0
 26 29  1  0  0  0  0
M  END
$$$$

  -OEChem-04042215593D

 29 29  0     1  0  0  0  0  0999 V2000
   -2.6860   -4.4649    1.1904 H   0  0  0  0  0  0  0  0  0  0  0  0
   -2.8483   -3.4780    0.7480 C   0  0  0  0  0  0  0  0  0  0  0  0
   -3.5958   -2.9448    1.3404 H   0  0  0  0  0  0  0  0  0  0  0  0
   -3.2233   -3.6066   -0.2702 H   0  0  0  0  0  0  0  0  0  0  0  0
   -1.5492   -2.6948    0.7256 C   0  0  0  0  0  0  0  0  0  0  0  0
   -0.5371   -3.1789    1.2063 O   0  0  0  0  0  0  0  0  0  0  0  0
   -1.5270   -1.4252    0.1876 N   0  0  0  0  0  0  0  0  0  0  0  0
   -2.4113   -1.0324   -0.1291 H   0  0  0  0  0  0  0  0  0  0  0  0
   -0.3425   -0.5576    0.1157 C   0  0  1  0  0  0  0  0  0  0  0  0
    0.4172   -0.9416    0.8032 H   0  0  0  0  0  0  0  0  0  0  0  0
    0.2015   -0.5786   -1.3317 C   0  0  0  0  0  0  0  0  0  0  0  0
   -0.2326   -1.4337   -1.8595 H   0  0  0  0  0  0  0  0  0  0  0  0
   -0.1065    0.3196   -1.8756 H   0  0  0  0  0  0  0  0  0  0  0  0
    1.6952   -0.7292   -1.4323 C   0  0  0  0  0  0  0  0  0  0  0  0
    2.2952   -1.3579   -2.5156 N   0  0  0  0  0  0  0  0  0  0  0  0
    3.5873   -1.3392   -2.2973 C   0  0  0  0  0  0  0  0  0  0  0  0
    4.3356   -1.7592   -2.9635 H   0  0  0  0  0  0  0  0  0  0  0  0
    3.8523   -0.7052   -1.0989 N   0  0  0  0  0  0  0  0  0  0  0  0
    4.7795   -0.5672   -0.7014 H   0  0  0  0  0  0  0  0  0  0  0  0
    2.6522   -0.3143   -0.5435 C   0  0  0  0  0  0  0  0  0  0  0  0
    2.4945    0.2086    0.3927 H   0  0  0  0  0  0  0  0  0  0  0  0
   -0.6822    0.8814    0.5501 C   0  0  0  0  0  0  0  0  0  0  0  0
   -1.7129    1.4112    0.1507 O   0  0  0  0  0  0  0  0  0  0  0  0
    0.1522    1.5738    1.4090 N   0  0  0  0  0  0  0  0  0  0  0  0
    0.9155    1.0573    1.8352 H   0  0  0  0  0  0  0  0  0  0  0  0
   -0.1544    2.9084    1.9089 C   0  0  0  0  0  0  0  0  0  0  0  0
   -1.0802    2.8955    2.4936 H   0  0  0  0  0  0  0  0  0  0  0  0
    0.6564    3.2673    2.5500 H   0  0  0  0  0  0  0  0  0  0  0  0
   -0.2720    3.6111    1.0772 H   0  0  0  0  0  0  0  0  0  0  0  0
  1  2  1  0  0  0  0
  2  3  1  0  0  0  0
  2  4  1  0  0  0  0
  2  5  1  0  0  0  0
  5  6  2  0  0  0  0
  5  7  1  0  0  0  0
  7  8  1  0  0  0  0
  7  9  1  0  0  0  0
  9 10  1  0  0  0  0
  9 11  1  0  0  0  0
  9 22  1  0  0  0  0
 11 12  1  0  0  0  0
 11 13  1  0  0  0  0
 11 14  1  0  0  0  0
 14 15  1  0  0  0  0
 14 20  2  0  0  0  0
 15 16  2  0  0  0  0
 16 17  1  0  0  0  0
 16 18  1  0  0  0  0
 18 19  1  0  0  0  0
 18 20  1  0  0  0  0
 20 21  1  0  0  0  0
 22 23  2  0  0  0  0
 22 24  1  0  0  0  0
 24 25  1  0  0  0  0
 24 26  1  0  0  0  0
 26 27  1  0  0  0  0
 26 28  1  0  0  0  0
 26 29  1  0  0  0  0
M  END
$$$$

  -OEChem-04042215593D

 29 29  0     1  0  0  0  0  0999 V2000
   -2.7158   -4.4545    1.1921 H   0  0  0  0  0  0  0  0  0  0  0  0
   -2.8723   -3.4675    0.7478 C   0  0  0  0  0  0  0  0  0  0  0  0
   -3.6152   -2.9277    1.3401 H   0  0  0  0  0  0  0  0  0  0  0  0
   -3.2498   -3.5958   -0.2696 H   0  0  0  0  0  0  0  0  0  0  0  0
   -1.5675   -2.6941    0.7222 C   0  0  0  0  0  0  0  0  0  0  0  0
   -0.5568   -3.1880    1.1961 O   0  0  0  0  0  0  0  0  0  0  0  0
   -1.5348   -1.4258    0.1814 N   0  0  0  0  0  0  0  0  0  0  0  0
   -2.4178   -1.0209   -0.1243 H   0  0  0  0  0  0  0  0  0  0  0  0
   -0.3475   -0.5609    0.1276 C   0  0  1  0  0  0  0  0  0  0  0  0
    0.3905   -0.9451    0.8363 H   0  0  0  0  0  0  0  0  0  0  0  0
    0.2278   -0.5850   -1.3073 C   0  0  0  0  0  0  0  0  0  0  0  0
   -0.2006   -1.4367   -1.8446 H   0  0  0  0  0  0  0  0  0  0  0  0
   -0.0696    0.3159   -1.8526 H   0  0  0  0  0  0  0  0  0  0  0  0
    1.7233   -0.7370   -1.3980 C   0  0  0  0  0  0  0  0  0  0  0  0
    2.3311   -1.0800   -2.5988 N   0  0  0  0  0  0  0  0  0  0  0  0
    3.6185   -1.1571   -2.3669 C   0  0  0  0  0  0  0  0  0  0  0  0
    4.3688   -1.4135   -3.1094 H   0  0  0  0  0  0  0  0  0  0  0  0
    3.8748   -0.8656   -1.0415 N   0  0  0  0  0  0  0  0  0  0  0  0
    4.7955   -0.8751   -0.6066 H   0  0  0  0  0  0  0  0  0  0  0  0
    2.6735   -0.6003   -0.4185 C   0  0  0  0  0  0  0  0  0  0  0  0
    2.5140   -0.3513    0.6245 H   0  0  0  0  0  0  0  0  0  0  0  0
   -0.6911    0.8808    0.5527 C   0  0  0  0  0  0  0  0  0  0  0  0
   -1.7291    1.3993    0.1571 O   0  0  0  0  0  0  0  0  0  0  0  0
    0.1284    1.5767    1.4231 N   0  0  0  0  0  0  0  0  0  0  0  0
    0.9295    1.0872    1.8095 H   0  0  0  0  0  0  0  0  0  0  0  0
   -0.1805    2.9149    1.9123 C   0  0  0  0  0  0  0  0  0  0  0  0
   -1.1085    2.9057    2.4936 H   0  0  0  0  0  0  0  0  0  0  0  0
    0.6276    3.2779    2.5544 H   0  0  0  0  0  0  0  0  0  0  0  0
   -0.2953    3.6124    1.0759 H   0  0  0  0  0  0  0  0  0  0  0  0
  1  2  1  0  0  0  0
  2  3  1  0  0  0  0
  2  4  1  0  0  0  0
  2  5  1  0  0  0  0
  5  6  2  0  0  0  0
  5  7  1  0  0  0  0
  7  8  1  0  0  0  0
  7  9  1  0  0  0  0
  9 10  1  0  0  0  0
  9 11  1  0  0  0  0
  9 22  1  0  0  0  0
 11 12  1  0  0  0  0
 11 13  1  0  0  0  0
 11 14  1  0  0  0  0
 14 15  1  0  0  0  0
 14 20  2  0  0  0  0
 15 16  2  0  0  0  0
 16 17  1  0  0  0  0
 16 18  1  0  0  0  0
 18 19  1  0  0  0  0
 18 20  1  0  0  0  0
 20 21  1  0  0  0  0
 22 23  2  0  0  0  0
 22 24  1  0  0  0  0
 24 25  1  0  0  0  0
 24 26  1  0  0  0  0
 26 27  1  0  0  0  0
 26 28  1  0  0  0  0
 26 29  1  0  0  0  0
M  END
$$$$

  -OEChem-04042215593D

 29 29  0     1  0  0  0  0  0999 V2000
   -2.7348   -4.4235    1.2423 H   0  0  0  0  0  0  0  0  0  0  0  0
   -2.8842   -3.4406    0.7866 C   0  0  0  0  0  0  0  0  0  0  0  0
   -3.6124   -2.8835    1.3808 H   0  0  0  0  0  0  0  0  0  0  0  0
   -3.2766   -3.5775   -0.2240 H   0  0  0  0  0  0  0  0  0  0  0  0
   -1.5704   -2.6837    0.7340 C   0  0  0  0  0  0  0  0  0  0  0  0
   -0.5569   -3.1842    1.1974 O   0  0  0  0  0  0  0  0  0  0  0  0
   -1.5272   -1.4229    0.1773 N   0  0  0  0  0  0  0  0  0  0  0  0
   -2.4092   -0.9986   -0.1050 H   0  0  0  0  0  0  0  0  0  0  0  0
   -0.3313   -0.5709    0.1393 C   0  0  1  0  0  0  0  0  0  0  0  0
    0.3862   -0.9234    0.8814 H   0  0  0  0  0  0  0  0  0  0  0  0
    0.2766   -0.5963   -1.2845 C   0  0  0  0  0  0  0  0  0  0  0  0
   -0.3422   -1.2193   -1.9372 H   0  0  0  0  0  0  0  0  0  0  0  0
    0.2627    0.4123   -1.7097 H   0  0  0  0  0  0  0  0  0  0  0  0
    1.6908   -1.1090   -1.3822 C   0  0  0  0  0  0  0  0  0  0  0  0
    2.3283   -1.1698   -2.6152 N   0  0  0  0  0  0  0  0  0  0  0  0
    3.5075   -1.7039   -2.4110 C   0  0  0  0  0  0  0  0  0  0  0  0
    4.2472   -1.8901   -3.1843 H   0  0  0  0  0  0  0  0  0  0  0  0
    3.6634   -1.9989   -1.0716 N   0  0  0  0  0  0  0  0  0  0  0  0
    4.4739   -2.4592   -0.6618 H   0  0  0  0  0  0  0  0  0  0  0  0
    2.5076   -1.6360   -0.4139 C   0  0  0  0  0  0  0  0  0  0  0  0
    2.2787   -1.7831    0.6370 H   0  0  0  0  0  0  0  0  0  0  0  0
   -0.6927    0.8726    0.5447 C   0  0  0  0  0  0  0  0  0  0  0  0
   -1.7371    1.3738    0.1430 O   0  0  0  0  0  0  0  0  0  0  0  0
    0.1044    1.5765    1.4290 N   0  0  0  0  0  0  0  0  0  0  0  0
    0.9500    1.1251    1.7655 H   0  0  0  0  0  0  0  0  0  0  0  0
   -0.2065    2.9247    1.8881 C   0  0  0  0  0  0  0  0  0  0  0  0
   -1.1725    2.9407    2.4035 H   0  0  0  0  0  0  0  0  0  0  0  0
    0.5618    3.2742    2.5845 H   0  0  0  0  0  0  0  0  0  0  0  0
   -0.2467    3.6178    1.0413 H   0  0  0  0  0  0  0  0  0  0  0  0
  1  2  1  0  0  0  0
  2  3  1  0  0  0  0
  2  4  1  0  0  0  0
  2  5  1  0  0  0  0
  5  6  2  0  0  0  0
  5  7  1  0  0  0  0
  7  8  1  0  0  0  0
  7  9  1  0  0  0  0
  9 10  1  0  0  0  0
  9 11  1  0  0  0  0
  9 22  1  0  0  0  0
 11 12  1  0  0  0  0
 11 13  1  0  0  0  0
 11 14  1  0  0  0  0
 14 15  1  0  0  0  0
 14 20  2  0  0  0  0
 15 16  2  0  0  0  0
 16 17  1  0  0  0  0
 16 18  1  0  0  0  0
 18 19  1  0  0  0  0
 18 20  1  0  0  0  0
 20 21  1  0  0  0  0
 22 23  2  0  0  0  0
 22 24  1  0  0  0  0
 24 25  1  0  0  0  0
 24 26  1  0  0  0  0
 26 27  1  0  0  0  0
 26 28  1  0  0  0  0
 26 29  1  0  0  0  0
M  END
$$$$

  -OEChem-04042215593D

 29 29  0     1  0  0  0  0  0999 V2000
   -2.7356   -4.4219    1.2531 H   0  0  0  0  0  0  0  0  0  0  0  0
   -2.8880   -3.4349    0.8072 C   0  0  0  0  0  0  0  0  0  0  0  0
   -3.5941   -2.8743    1.4245 H   0  0  0  0  0  0  0  0  0  0  0  0
   -3.3098   -3.5619   -0.1928 H   0  0  0  0  0  0  0  0  0  0  0  0
   -1.5694   -2.6898    0.7211 C   0  0  0  0  0  0  0  0  0  0  0  0
   -0.5453   -3.2054    1.1438 O   0  0  0  0  0  0  0  0  0  0  0  0
   -1.5303   -1.4267    0.1698 N   0  0  0  0  0  0  0  0  0  0  0  0
   -2.4171   -0.9894   -0.0766 H   0  0  0  0  0  0  0  0  0  0  0  0
   -0.3323   -0.5782    0.1275 C   0  0  1  0  0  0  0  0  0  0  0  0
    0.3926   -0.9298    0.8646 H   0  0  0  0  0  0  0  0  0  0  0  0
    0.2683   -0.6004   -1.2983 C   0  0  0  0  0  0  0  0  0  0  0  0
   -0.3535   -1.2101   -1.9603 H   0  0  0  0  0  0  0  0  0  0  0  0
    0.2663    0.4136   -1.7107 H   0  0  0  0  0  0  0  0  0  0  0  0
    1.6795   -1.1206   -1.3808 C   0  0  0  0  0  0  0  0  0  0  0  0
    2.4554   -0.9161   -2.5149 N   0  0  0  0  0  0  0  0  0  0  0  0
    3.5937   -1.5347   -2.3141 C   0  0  0  0  0  0  0  0  0  0  0  0
    4.4170   -1.5649   -3.0222 H   0  0  0  0  0  0  0  0  0  0  0  0
    3.5848   -2.1460   -1.0758 N   0  0  0  0  0  0  0  0  0  0  0  0
    4.3337   -2.7246   -0.6999 H   0  0  0  0  0  0  0  0  0  0  0  0
    2.3636   -1.9014   -0.4852 C   0  0  0  0  0  0  0  0  0  0  0  0
    1.9965   -2.2876    0.4627 H   0  0  0  0  0  0  0  0  0  0  0  0
   -0.6896    0.8639    0.5430 C   0  0  0  0  0  0  0  0  0  0  0  0
   -1.7431    1.3622    0.1616 O   0  0  0  0  0  0  0  0  0  0  0  0
    0.1140    1.5626    1.4255 N   0  0  0  0  0  0  0  0  0  0  0  0
    0.9789    1.1217    1.7255 H   0  0  0  0  0  0  0  0  0  0  0  0
   -0.1865    2.9131    1.8851 C   0  0  0  0  0  0  0  0  0  0  0  0
   -1.1595    2.9400    2.3869 H   0  0  0  0  0  0  0  0  0  0  0  0
    0.5757    3.2502    2.5941 H   0  0  0  0  0  0  0  0  0  0  0  0
   -0.2059    3.6094    1.0402 H   0  0  0  0  0  0  0  0  0  0  0  0
  1  2  1  0  0  0  0
  2  3  1  0  0  0  0
  2  4  1  0  0  0  0
  2  5  1  0  0  0  0
  5  6  2  0  0  0  0
  5  7  1  0  0  0  0
  7  8  1  0  0  0  0
  7  9  1  0  0  0  0
  9 10  1  0  0  0  0
  9 11  1  0  0  0  0
  9 22  1  0  0  0  0
 11 12  1  0  0  0  0
 11 13  1  0  0  0  0
 11 14  1  0  0  0  0
 14 15  1  0  0  0  0
 14 20  2  0  0  0  0
 15 16  2  0  0  0  0
 16 17  1  0  0  0  0
 16 18  1  0  0  0  0
 18 19  1  0  0  0  0
 18 20  1  0  0  0  0
 20 21  1  0  0  0  0
 22 23  2  0  0  0  0
 22 24  1  0  0  0  0
 24 25  1  0  0  0  0
 24 26  1  0  0  0  0
 26 27  1  0  0  0  0
 26 28  1  0  0  0  0
 26 29  1  0  0  0  0
M  END
$$$$

  -OEChem-04042215593D

 29 29  0     1  0  0  0  0  0999 V2000
   -2.7570   -4.4252    1.2556 H   0  0  0  0  0  0  0  0  0  0  0  0
   -2.9053   -3.4344    0.8172 C   0  0  0  0  0  0  0  0  0  0  0  0
   -3.5931   -2.8684    1.4501 H   0  0  0  0  0  0  0  0  0  0  0  0
   -3.3468   -3.5515   -0.1756 H   0  0  0  0  0  0  0  0  0  0  0  0
   -1.5795   -2.7051    0.7108 C   0  0  0  0  0  0  0  0  0  0  0  0
   -0.5540   -3.2383    1.1064 O   0  0  0  0  0  0  0  0  0  0  0  0
   -1.5374   -1.4390    0.1672 N   0  0  0  0  0  0  0  0  0  0  0  0
   -2.4262   -0.9922   -0.0534 H   0  0  0  0  0  0  0  0  0  0  0  0
   -0.3379   -0.5925    0.1092 C   0  0  1  0  0  0  0  0  0  0  0  0
    0.3999   -0.9525    0.8314 H   0  0  0  0  0  0  0  0  0  0  0  0
    0.2447   -0.6146   -1.3229 C   0  0  0  0  0  0  0  0  0  0  0  0
   -0.3804   -1.2241   -1.9818 H   0  0  0  0  0  0  0  0  0  0  0  0
    0.2423    0.3997   -1.7350 H   0  0  0  0  0  0  0  0  0  0  0  0
    1.6533   -1.1388   -1.3959 C   0  0  0  0  0  0  0  0  0  0  0  0
    2.5517   -0.7092   -2.3642 N   0  0  0  0  0  0  0  0  0  0  0  0
    3.6608   -1.3833   -2.1756 C   0  0  0  0  0  0  0  0  0  0  0  0
    4.5600   -1.2797   -2.7763 H   0  0  0  0  0  0  0  0  0  0  0  0
    3.5136   -2.2435   -1.1050 N   0  0  0  0  0  0  0  0  0  0  0  0
    4.2208   -2.8959   -0.7713 H   0  0  0  0  0  0  0  0  0  0  0  0
    2.2351   -2.0989   -0.6112 C   0  0  0  0  0  0  0  0  0  0  0  0
    1.7657   -2.6471    0.2030 H   0  0  0  0  0  0  0  0  0  0  0  0
   -0.6816    0.8487    0.5369 C   0  0  0  0  0  0  0  0  0  0  0  0
   -1.7439    1.3497    0.1839 O   0  0  0  0  0  0  0  0  0  0  0  0
    0.1413    1.5379    1.4085 N   0  0  0  0  0  0  0  0  0  0  0  0
    1.0161    1.0964    1.6779 H   0  0  0  0  0  0  0  0  0  0  0  0
   -0.1423    2.8873    1.8810 C   0  0  0  0  0  0  0  0  0  0  0  0
   -1.1048    2.9166    2.4025 H   0  0  0  0  0  0  0  0  0  0  0  0
    0.6361    3.2159    2.5763 H   0  0  0  0  0  0  0  0  0  0  0  0
   -0.1743    3.5884    1.0404 H   0  0  0  0  0  0  0  0  0  0  0  0
  1  2  1  0  0  0  0
  2  3  1  0  0  0  0
  2  4  1  0  0  0  0
  2  5  1  0  0  0  0
  5  6  2  0  0  0  0
  5  7  1  0  0  0  0
  7  8  1  0  0  0  0
  7  9  1  0  0  0  0
  9 10  1  0  0  0  0
  9 11  1  0  0  0  0
  9 22  1  0  0  0  0
 11 12  1  0  0  0  0
 11 13  1  0  0  0  0
 11 14  1  0  0  0  0
 14 15  1  0  0  0  0
 14 20  2  0  0  0  0
 15 16  2  0  0  0  0
 16 17  1  0  0  0  0
 16 18  1  0  0  0  0
 18 19  1  0  0  0  0
 18 20  1  0  0  0  0
 20 21  1  0  0  0  0
 22 23  2  0  0  0  0
 22 24  1  0  0  0  0
 24 25  1  0  0  0  0
 24 26  1  0  0  0  0
 26 27  1  0  0  0  0
 26 28  1  0  0  0  0
 26 29  1  0  0  0  0
M  END
$$$$

  -OEChem-04042215593D

 29 29  0     1  0  0  0  0  0999 V2000
   -2.7709   -4.4348    1.2578 H   0  0  0  0  0  0  0  0  0  0  0  0
   -2.9183   -3.4407    0.8263 C   0  0  0  0  0  0  0  0  0  0  0  0
   -3.5887   -2.8710    1.4745 H   0  0  0  0  0  0  0  0  0  0  0  0
   -3.3795   -3.5494   -0.1585 H   0  0  0  0  0  0  0  0  0  0  0  0
   -1.5875   -2.7240    0.6987 C   0  0  0  0  0  0  0  0  0  0  0  0
   -0.5619   -3.2728    1.0701 O   0  0  0  0  0  0  0  0  0  0  0  0
   -1.5435   -1.4540    0.1645 N   0  0  0  0  0  0  0  0  0  0  0  0
   -2.4338   -0.9994   -0.0336 H   0  0  0  0  0  0  0  0  0  0  0  0
   -0.3432   -0.6082    0.0932 C   0  0  1  0  0  0  0  0  0  0  0  0
    0.4074   -0.9814    0.7972 H   0  0  0  0  0  0  0  0  0  0  0  0
    0.2236   -0.6178   -1.3437 C   0  0  0  0  0  0  0  0  0  0  0  0
   -0.4033   -1.2287   -1.9994 H   0  0  0  0  0  0  0  0  0  0  0  0
    0.2172    0.3973   -1.7540 H   0  0  0  0  0  0  0  0  0  0  0  0
    1.6298   -1.1429   -1.4085 C   0  0  0  0  0  0  0  0  0  0  0  0
    2.6292   -0.5245   -2.1483 N   0  0  0  0  0  0  0  0  0  0  0  0
    3.7105   -1.2516   -1.9977 C   0  0  0  0  0  0  0  0  0  0  0  0
    4.6718   -1.0357   -2.4551 H   0  0  0  0  0  0  0  0  0  0  0  0
    3.4447   -2.3289   -1.1744 N   0  0  0  0  0  0  0  0  0  0  0  0
    4.1123   -3.0529   -0.9153 H   0  0  0  0  0  0  0  0  0  0  0  0
    2.1202   -2.2653   -0.7994 C   0  0  0  0  0  0  0  0  0  0  0  0
    1.5659   -2.9566   -0.1686 H   0  0  0  0  0  0  0  0  0  0  0  0
   -0.6736    0.8316    0.5349 C   0  0  0  0  0  0  0  0  0  0  0  0
   -1.7412    1.3363    0.2034 O   0  0  0  0  0  0  0  0  0  0  0  0
    0.1655    1.5135    1.3967 N   0  0  0  0  0  0  0  0  0  0  0  0
    1.0529    1.0767    1.6310 H   0  0  0  0  0  0  0  0  0  0  0  0
   -0.1005    2.8669    1.8681 C   0  0  0  0  0  0  0  0  0  0  0  0
   -1.0539    2.9053    2.4054 H   0  0  0  0  0  0  0  0  0  0  0  0
    0.6918    3.1928    2.5488 H   0  0  0  0  0  0  0  0  0  0  0  0
   -0.1419    3.5644    1.0251 H   0  0  0  0  0  0  0  0  0  0  0  0
  1  2  1  0  0  0  0
  2  3  1  0  0  0  0
  2  4  1  0  0  0  0
  2  5  1  0  0  0  0
  5  6  2  0  0  0  0
  5  7  1  0  0  0  0
  7  8  1  0  0  0  0
  7  9  1  0  0  0  0
  9 10  1  0  0  0  0
  9 11  1  0  0  0  0
  9 22  1  0  0  0  0
 11 12  1  0  0  0  0
 11 13  1  0  0  0  0
 11 14  1  0  0  0  0
 14 15  1  0  0  0  0
 14 20  2  0  0  0  0
 15 16  2  0  0  0  0
 16 17  1  0  0  0  0
 16 18  1  0  0  0  0
 18 19  1  0  0  0  0
 18 20  1  0  0  0  0
 20 21  1  0  0  0  0
 22 23  2  0  0  0  0
 22 24  1  0  0  0  0
 24 25  1  0  0  0  0
 24 26  1  0  0  0  0
 26 27  1  0  0  0  0
 26 28  1  0  0  0  0
 26 29  1  0  0  0  0
M  END
$$$$

  -OEChem-04042215593D

 29 29  0     1  0  0  0  0  0999 V2000
   -2.7594   -4.4423    1.2669 H   0  0  0  0  0  0  0  0  0  0  0  0
   -2.9142   -3.4464    0.8425 C   0  0  0  0  0  0  0  0  0  0  0  0
   -3.5545   -2.8723    1.5167 H   0  0  0  0  0  0  0  0  0  0  0  0
   -3.4132   -3.5492   -0.1242 H   0  0  0  0  0  0  0  0  0  0  0  0
   -1.5834   -2.7401    0.6653 C   0  0  0  0  0  0  0  0  0  0  0  0
   -0.5465   -3.3059    0.9743 O   0  0  0  0  0  0  0  0  0  0  0  0
   -1.5533   -1.4639    0.1453 N   0  0  0  0  0  0  0  0  0  0  0  0
   -2.4491   -1.0008   -0.0010 H   0  0  0  0  0  0  0  0  0  0  0  0
   -0.3571   -0.6133    0.0617 C   0  0  1  0  0  0  0  0  0  0  0  0
    0.4025   -0.9962    0.7518 H   0  0  0  0  0  0  0  0  0  0  0  0
    0.1979   -0.6176   -1.3772 C   0  0  0  0  0  0  0  0  0  0  0  0
   -0.4243   -1.2425   -2.0241 H   0  0  0  0  0  0  0  0  0  0  0  0
    0.1832    0.3931   -1.7972 H   0  0  0  0  0  0  0  0  0  0  0  0
    1.6040   -1.1385   -1.4198 C   0  0  0  0  0  0  0  0  0  0  0  0
    2.6786   -0.3916   -1.8839 N   0  0  0  0  0  0  0  0  0  0  0  0
    3.7361   -1.1616   -1.7833 C   0  0  0  0  0  0  0  0  0  0  0  0
    4.7433   -0.8719   -2.0695 H   0  0  0  0  0  0  0  0  0  0  0  0
    3.3794   -2.3900   -1.2597 N   0  0  0  0  0  0  0  0  0  0  0  0
    4.0167   -3.1641   -1.0826 H   0  0  0  0  0  0  0  0  0  0  0  0
    2.0209   -2.3797   -1.0280 C   0  0  0  0  0  0  0  0  0  0  0  0
    1.3990   -3.1730   -0.6191 H   0  0  0  0  0  0  0  0  0  0  0  0
   -0.6732    0.8224    0.5235 C   0  0  0  0  0  0  0  0  0  0  0  0
   -1.7507    1.3290    0.2290 O   0  0  0  0  0  0  0  0  0  0  0  0
    0.1875    1.4902    1.3744 N   0  0  0  0  0  0  0  0  0  0  0  0
    1.0897    1.0589    1.5574 H   0  0  0  0  0  0  0  0  0  0  0  0
   -0.0573    2.8419    1.8605 C   0  0  0  0  0  0  0  0  0  0  0  0
   -1.0106    2.8902    2.3973 H   0  0  0  0  0  0  0  0  0  0  0  0
    0.7391    3.1468    2.5462 H   0  0  0  0  0  0  0  0  0  0  0  0
   -0.0859    3.5494    1.0253 H   0  0  0  0  0  0  0  0  0  0  0  0
  1  2  1  0  0  0  0
  2  3  1  0  0  0  0
  2  4  1  0  0  0  0
  2  5  1  0  0  0  0
  5  6  2  0  0  0  0
  5  7  1  0  0  0  0
  7  8  1  0  0  0  0
  7  9  1  0  0  0  0
  9 10  1  0  0  0  0
  9 11  1  0  0  0  0
  9 22  1  0  0  0  0
 11 12  1  0  0  0  0
 11 13  1  0  0  0  0
 11 14  1  0  0  0  0
 14 15  1  0  0  0  0
 14 20  2  0  0  0  0
 15 16  2  0  0  0  0
 16 17  1  0  0  0  0
 16 18  1  0  0  0  0
 18 19  1  0  0  0  0
 18 20  1  0  0  0  0
 20 21  1  0  0  0  0
 22 23  2  0  0  0  0
 22 24  1  0  0  0  0
 24 25  1  0  0  0  0
 24 26  1  0  0  0  0
 26 27  1  0  0  0  0
 26 28  1  0  0  0  0
 26 29  1  0  0  0  0
M  END
$$$$

  -OEChem-04042215593D

 29 29  0     1  0  0  0  0  0999 V2000
   -2.7326   -4.4507    1.2736 H   0  0  0  0  0  0  0  0  0  0  0  0
   -2.9033   -3.4524    0.8614 C   0  0  0  0  0  0  0  0  0  0  0  0
   -3.5022   -2.8765    1.5711 H   0  0  0  0  0  0  0  0  0  0  0  0
   -3.4544   -3.5479   -0.0773 H   0  0  0  0  0  0  0  0  0  0  0  0
   -1.5791   -2.7544    0.6158 C   0  0  0  0  0  0  0  0  0  0  0  0
   -0.5304   -3.3360    0.8466 O   0  0  0  0  0  0  0  0  0  0  0  0
   -1.5685   -1.4706    0.1140 N   0  0  0  0  0  0  0  0  0  0  0  0
   -2.4683   -0.9997    0.0290 H   0  0  0  0  0  0  0  0  0  0  0  0
   -0.3759   -0.6155    0.0240 C   0  0  1  0  0  0  0  0  0  0  0  0
    0.3879   -1.0100    0.7040 H   0  0  0  0  0  0  0  0  0  0  0  0
    0.1750   -0.6106   -1.4137 C   0  0  0  0  0  0  0  0  0  0  0  0
   -0.4403   -1.2460   -2.0574 H   0  0  0  0  0  0  0  0  0  0  0  0
    0.1564    0.3978   -1.8395 H   0  0  0  0  0  0  0  0  0  0  0  0
    1.5805   -1.1280   -1.4277 C   0  0  0  0  0  0  0  0  0  0  0  0
    2.6964   -0.3160   -1.5799 N   0  0  0  0  0  0  0  0  0  0  0  0
    3.7376   -1.1140   -1.5409 C   0  0  0  0  0  0  0  0  0  0  0  0
    4.7703   -0.7894   -1.6317 H   0  0  0  0  0  0  0  0  0  0  0  0
    3.3278   -2.4222   -1.3627 N   0  0  0  0  0  0  0  0  0  0  0  0
    3.9445   -3.2285   -1.2821 H   0  0  0  0  0  0  0  0  0  0  0  0
    1.9516   -2.4347   -1.2894 C   0  0  0  0  0  0  0  0  0  0  0  0
    1.2873   -3.2814   -1.1319 H   0  0  0  0  0  0  0  0  0  0  0  0
   -0.6751    0.8148    0.5100 C   0  0  0  0  0  0  0  0  0  0  0  0
   -1.7610    1.3246    0.2544 O   0  0  0  0  0  0  0  0  0  0  0  0
    0.2063    1.4652    1.3529 N   0  0  0  0  0  0  0  0  0  0  0  0
    1.1224    1.0417    1.4788 H   0  0  0  0  0  0  0  0  0  0  0  0
   -0.0163    2.8162    1.8515 C   0  0  0  0  0  0  0  0  0  0  0  0
   -0.9507    2.8663    2.4203 H   0  0  0  0  0  0  0  0  0  0  0  0
    0.8043    3.1149    2.5107 H   0  0  0  0  0  0  0  0  0  0  0  0
   -0.0701    3.5269    1.0203 H   0  0  0  0  0  0  0  0  0  0  0  0
  1  2  1  0  0  0  0
  2  3  1  0  0  0  0
  2  4  1  0  0  0  0
  2  5  1  0  0  0  0
  5  6  2  0  0  0  0
  5  7  1  0  0  0  0
  7  8  1  0  0  0  0
  7  9  1  0  0  0  0
  9 10  1  0  0  0  0
  9 11  1  0  0  0  0
  9 22  1  0  0  0  0
 11 12  1  0  0  0  0
 11 13  1  0  0  0  0
 11 14  1  0  0  0  0
 14 15  1  0  0  0  0
 14 20  2  0  0  0  0
 15 16  2  0  0  0  0
 16 17  1  0  0  0  0
 16 18  1  0  0  0  0
 18 19  1  0  0  0  0
 18 20  1  0  0  0  0
 20 21  1  0  0  0  0
 22 23  2  0  0  0  0
 22 24  1  0  0  0  0
 24 25  1  0  0  0  0
 24 26  1  0  0  0  0
 26 27  1  0  0  0  0
 26 28  1  0  0  0  0
 26 29  1  0  0  0  0
M  END
$$$$

  -OEChem-04042215593D

 29 29  0     1  0  0  0  0  0999 V2000
   -2.7231   -4.4581    1.2801 H   0  0  0  0  0  0  0  0  0  0  0  0
   -2.9034   -3.4607    0.8696 C   0  0  0  0  0  0  0  0  0  0  0  0
   -3.4891   -2.8847    1.5901 H   0  0  0  0  0  0  0  0  0  0  0  0
   -3.4729   -3.5585   -0.0577 H   0  0  0  0  0  0  0  0  0  0  0  0
   -1.5853   -2.7612    0.5956 C   0  0  0  0  0  0  0  0  0  0  0  0
   -0.5325   -3.3488    0.7878 O   0  0  0  0  0  0  0  0  0  0  0  0
   -1.5848   -1.4736    0.1026 N   0  0  0  0  0  0  0  0  0  0  0  0
   -2.4848   -0.9992    0.0479 H   0  0  0  0  0  0  0  0  0  0  0  0
   -0.3930   -0.6179    0.0051 C   0  0  1  0  0  0  0  0  0  0  0  0
    0.3727   -1.0185    0.6795 H   0  0  0  0  0  0  0  0  0  0  0  0
    0.1534   -0.6124   -1.4325 C   0  0  0  0  0  0  0  0  0  0  0  0
   -0.4631   -1.2492   -2.0736 H   0  0  0  0  0  0  0  0  0  0  0  0
    0.1372    0.3952   -1.8599 H   0  0  0  0  0  0  0  0  0  0  0  0
    1.5581   -1.1297   -1.4322 C   0  0  0  0  0  0  0  0  0  0  0  0
    2.6698   -0.3122   -1.2757 N   0  0  0  0  0  0  0  0  0  0  0  0
    3.7140   -1.1061   -1.3223 C   0  0  0  0  0  0  0  0  0  0  0  0
    4.7456   -0.7786   -1.2284 H   0  0  0  0  0  0  0  0  0  0  0  0
    3.3094   -2.4158   -1.5025 N   0  0  0  0  0  0  0  0  0  0  0  0
    3.9278   -3.2236   -1.5467 H   0  0  0  0  0  0  0  0  0  0  0  0
    1.9330   -2.4347   -1.5714 C   0  0  0  0  0  0  0  0  0  0  0  0
    1.2701   -3.2889   -1.6805 H   0  0  0  0  0  0  0  0  0  0  0  0
   -0.6755    0.8113    0.5024 C   0  0  0  0  0  0  0  0  0  0  0  0
   -1.7633    1.3282    0.2695 O   0  0  0  0  0  0  0  0  0  0  0  0
    0.2242    1.4477    1.3364 N   0  0  0  0  0  0  0  0  0  0  0  0
    1.1464    1.0257    1.4214 H   0  0  0  0  0  0  0  0  0  0  0  0
    0.0234    2.7993    1.8423 C   0  0  0  0  0  0  0  0  0  0  0  0
   -0.9166    2.8647    2.4001 H   0  0  0  0  0  0  0  0  0  0  0  0
    0.8415    3.0755    2.5145 H   0  0  0  0  0  0  0  0  0  0  0  0
   -0.0056    3.5168    1.0156 H   0  0  0  0  0  0  0  0  0  0  0  0
  1  2  1  0  0  0  0
  2  3  1  0  0  0  0
  2  4  1  0  0  0  0
  2  5  1  0  0  0  0
  5  6  2  0  0  0  0
  5  7  1  0  0  0  0
  7  8  1  0  0  0  0
  7  9  1  0  0  0  0
  9 10  1  0  0  0  0
  9 11  1  0  0  0  0
  9 22  1  0  0  0  0
 11 12  1  0  0  0  0
 11 13  1  0  0  0  0
 11 14  1  0  0  0  0
 14 15  1  0  0  0  0
 14 20  2  0  0  0  0
 15 16  2  0  0  0  0
 16 17  1  0  0  0  0
 16 18  1  0  0  0  0
 18 19  1  0  0  0  0
 18 20  1  0  0  0  0
 20 21  1  0  0  0  0
 22 23  2  0  0  0  0
 22 24  1  0  0  0  0
 24 25  1  0  0  0  0
 24 26  1  0  0  0  0
 26 27  1  0  0  0  0
 26 28  1  0  0  0  0
 26 29  1  0  0  0  0
M  END
$$$$

  -OEChem-04042215593D

 29 29  0     1  0  0  0  0  0999 V2000
   -2.7322   -4.4661    1.2788 H   0  0  0  0  0  0  0  0  0  0  0  0
   -2.9144   -3.4674    0.8722 C   0  0  0  0  0  0  0  0  0  0  0  0
   -3.4990   -2.8945    1.5963 H   0  0  0  0  0  0  0  0  0  0  0  0
   -3.4857   -3.5627   -0.0543 H   0  0  0  0  0  0  0  0  0  0  0  0
   -1.5970   -2.7671    0.5977 C   0  0  0  0  0  0  0  0  0  0  0  0
   -0.5447   -3.3548    0.7907 O   0  0  0  0  0  0  0  0  0  0  0  0
   -1.5984   -1.4787    0.1069 N   0  0  0  0  0  0  0  0  0  0  0  0
   -2.4984   -1.0040    0.0576 H   0  0  0  0  0  0  0  0  0  0  0  0
   -0.4069   -0.6243   -0.0002 C   0  0  1  0  0  0  0  0  0  0  0  0
    0.3611   -1.0288    0.6697 H   0  0  0  0  0  0  0  0  0  0  0  0
    0.1349   -0.6175   -1.4397 C   0  0  0  0  0  0  0  0  0  0  0  0
   -0.4852   -1.2508   -2.0805 H   0  0  0  0  0  0  0  0  0  0  0  0
    0.1207    0.3916   -1.8629 H   0  0  0  0  0  0  0  0  0  0  0  0
    1.5398   -1.1342   -1.4395 C   0  0  0  0  0  0  0  0  0  0  0  0
    2.6161   -0.3797   -0.9879 N   0  0  0  0  0  0  0  0  0  0  0  0
    3.6757   -1.1417   -1.1267 C   0  0  0  0  0  0  0  0  0  0  0  0
    4.6873   -0.8501   -0.8592 H   0  0  0  0  0  0  0  0  0  0  0  0
    3.3166   -2.3662   -1.6592 N   0  0  0  0  0  0  0  0  0  0  0  0
    3.9536   -3.1401   -1.8384 H   0  0  0  0  0  0  0  0  0  0  0  0
    1.9529   -2.3649   -1.8615 C   0  0  0  0  0  0  0  0  0  0  0  0
    1.3242   -3.1631   -2.2456 H   0  0  0  0  0  0  0  0  0  0  0  0
   -0.6756    0.8056    0.5003 C   0  0  0  0  0  0  0  0  0  0  0  0
   -1.7618    1.3312    0.2782 O   0  0  0  0  0  0  0  0  0  0  0  0
    0.2394    1.4321    1.3243 N   0  0  0  0  0  0  0  0  0  0  0  0
    1.1623    1.0057    1.3830 H   0  0  0  0  0  0  0  0  0  0  0  0
    0.0599    2.7862    1.8302 C   0  0  0  0  0  0  0  0  0  0  0  0
   -0.8711    2.8622    2.4017 H   0  0  0  0  0  0  0  0  0  0  0  0
    0.8907    3.0550    2.4896 H   0  0  0  0  0  0  0  0  0  0  0  0
    0.0263    3.5023    1.0027 H   0  0  0  0  0  0  0  0  0  0  0  0
  1  2  1  0  0  0  0
  2  3  1  0  0  0  0
  2  4  1  0  0  0  0
  2  5  1  0  0  0  0
  5  6  2  0  0  0  0
  5  7  1  0  0  0  0
  7  8  1  0  0  0  0
  7  9  1  0  0  0  0
  9 10  1  0  0  0  0
  9 11  1  0  0  0  0
  9 22  1  0  0  0  0
 11 12  1  0  0  0  0
 11 13  1  0  0  0  0
 11 14  1  0  0  0  0
 14 15  1  0  0  0  0
 14 20  2  0  0  0  0
 15 16  2  0  0  0  0
 16 17  1  0  0  0  0
 16 18  1  0  0  0  0
 18 19  1  0  0  0  0
 18 20  1  0  0  0  0
 20 21  1  0  0  0  0
 22 23  2  0  0  0  0
 22 24  1  0  0  0  0
 24 25  1  0  0  0  0
 24 26  1  0  0  0  0
 26 27  1  0  0  0  0
 26 28  1  0  0  0  0
 26 29  1  0  0  0  0
M  END
$$$$

  -OEChem-04042215593D

 29 29  0     1  0  0  0  0  0999 V2000
   -2.7291   -4.4766    1.2750 H   0  0  0  0  0  0  0  0  0  0  0  0
   -2.9132   -3.4780    0.8691 C   0  0  0  0  0  0  0  0  0  0  0  0
   -3.5000   -2.9072    1.5929 H   0  0  0  0  0  0  0  0  0  0  0  0
   -3.4834   -3.5742   -0.0580 H   0  0  0  0  0  0  0  0  0  0  0  0
   -1.5973   -2.7732    0.5973 C   0  0  0  0  0  0  0  0  0  0  0  0
   -0.5445   -3.3582    0.7937 O   0  0  0  0  0  0  0  0  0  0  0  0
   -1.6034   -1.4830    0.1108 N   0  0  0  0  0  0  0  0  0  0  0  0
   -2.5056   -1.0128    0.0620 H   0  0  0  0  0  0  0  0  0  0  0  0
   -0.4153   -0.6235    0.0000 C   0  0  1  0  0  0  0  0  0  0  0  0
    0.3531   -1.0300    0.6678 H   0  0  0  0  0  0  0  0  0  0  0  0
    0.1226   -0.6168   -1.4425 C   0  0  0  0  0  0  0  0  0  0  0  0
   -0.5002   -1.2468   -2.0840 H   0  0  0  0  0  0  0  0  0  0  0  0
    0.1050    0.3951   -1.8584 H   0  0  0  0  0  0  0  0  0  0  0  0
    1.5313   -1.1258   -1.4587 C   0  0  0  0  0  0  0  0  0  0  0  0
    2.5622   -0.5110   -0.7552 N   0  0  0  0  0  0  0  0  0  0  0  0
    3.6342   -1.2343   -0.9798 C   0  0  0  0  0  0  0  0  0  0  0  0
    4.6175   -1.0274   -0.5676 H   0  0  0  0  0  0  0  0  0  0  0  0
    3.3298   -2.2942   -1.8139 N   0  0  0  0  0  0  0  0  0  0  0  0
    3.9848   -3.0138   -2.1140 H   0  0  0  0  0  0  0  0  0  0  0  0
    1.9873   -2.2295   -2.1206 C   0  0  0  0  0  0  0  0  0  0  0  0
    1.3997   -2.9089   -2.7309 H   0  0  0  0  0  0  0  0  0  0  0  0
   -0.6783    0.8056    0.5042 C   0  0  0  0  0  0  0  0  0  0  0  0
   -1.7607    1.3387    0.2814 O   0  0  0  0  0  0  0  0  0  0  0  0
    0.2444    1.4279    1.3228 N   0  0  0  0  0  0  0  0  0  0  0  0
    1.1622    0.9896    1.3837 H   0  0  0  0  0  0  0  0  0  0  0  0
    0.0791    2.7850    1.8260 C   0  0  0  0  0  0  0  0  0  0  0  0
   -0.8526    2.8730    2.3945 H   0  0  0  0  0  0  0  0  0  0  0  0
    0.9109    3.0453    2.4875 H   0  0  0  0  0  0  0  0  0  0  0  0
    0.0563    3.5000    0.9972 H   0  0  0  0  0  0  0  0  0  0  0  0
  1  2  1  0  0  0  0
  2  3  1  0  0  0  0
  2  4  1  0  0  0  0
  2  5  1  0  0  0  0
  5  6  2  0  0  0  0
  5  7  1  0  0  0  0
  7  8  1  0  0  0  0
  7  9  1  0  0  0  0
  9 10  1  0  0  0  0
  9 11  1  0  0  0  0
  9 22  1  0  0  0  0
 11 12  1  0  0  0  0
 11 13  1  0  0  0  0
 11 14  1  0  0  0  0
 14 15  1  0  0  0  0
 14 20  2  0  0  0  0
 15 16  2  0  0  0  0
 16 17  1  0  0  0  0
 16 18  1  0  0  0  0
 18 19  1  0  0  0  0
 18 20  1  0  0  0  0
 20 21  1  0  0  0  0
 22 23  2  0  0  0  0
 22 24  1  0  0  0  0
 24 25  1  0  0  0  0
 24 26  1  0  0  0  0
 26 27  1  0  0  0  0
 26 28  1  0  0  0  0
 26 29  1  0  0  0  0
M  END
$$$$

  -OEChem-04042215593D

 29 29  0     1  0  0  0  0  0999 V2000
   -2.7217   -4.4860    1.2548 H   0  0  0  0  0  0  0  0  0  0  0  0
   -2.9054   -3.4840    0.8570 C   0  0  0  0  0  0  0  0  0  0  0  0
   -3.5030   -2.9229    1.5795 H   0  0  0  0  0  0  0  0  0  0  0  0
   -3.4636   -3.5727   -0.0781 H   0  0  0  0  0  0  0  0  0  0  0  0
   -1.5896   -2.7712    0.6080 C   0  0  0  0  0  0  0  0  0  0  0  0
   -0.5375   -3.3493    0.8257 O   0  0  0  0  0  0  0  0  0  0  0  0
   -1.5972   -1.4817    0.1193 N   0  0  0  0  0  0  0  0  0  0  0  0
   -2.5021   -1.0191    0.0539 H   0  0  0  0  0  0  0  0  0  0  0  0
   -0.4136   -0.6154    0.0115 C   0  0  1  0  0  0  0  0  0  0  0  0
    0.3499   -1.0193    0.6855 H   0  0  0  0  0  0  0  0  0  0  0  0
    0.1284   -0.6129   -1.4318 C   0  0  0  0  0  0  0  0  0  0  0  0
   -0.4959   -1.2409   -2.0737 H   0  0  0  0  0  0  0  0  0  0  0  0
    0.1029    0.4010   -1.8425 H   0  0  0  0  0  0  0  0  0  0  0  0
    1.5438   -1.1105   -1.4737 C   0  0  0  0  0  0  0  0  0  0  0  0
    2.5320   -0.7042   -0.5808 N   0  0  0  0  0  0  0  0  0  0  0  0
    3.6087   -1.3863   -0.8927 C   0  0  0  0  0  0  0  0  0  0  0  0
    4.5618   -1.3091   -0.3772 H   0  0  0  0  0  0  0  0  0  0  0  0
    3.3528   -2.2143   -1.9697 N   0  0  0  0  0  0  0  0  0  0  0  0
    4.0194   -2.8638   -2.3829 H   0  0  0  0  0  0  0  0  0  0  0  0
    2.0356   -2.0452   -2.3399 C   0  0  0  0  0  0  0  0  0  0  0  0
    1.4861   -2.5535   -3.1263 H   0  0  0  0  0  0  0  0  0  0  0  0
   -0.6841    0.8133    0.5109 C   0  0  0  0  0  0  0  0  0  0  0  0
   -1.7623    1.3476    0.2717 O   0  0  0  0  0  0  0  0  0  0  0  0
    0.2336    1.4402    1.3311 N   0  0  0  0  0  0  0  0  0  0  0  0
    1.1451    0.9927    1.4165 H   0  0  0  0  0  0  0  0  0  0  0  0
    0.0631    2.7968    1.8331 C   0  0  0  0  0  0  0  0  0  0  0  0
   -0.8645    2.8788    2.4092 H   0  0  0  0  0  0  0  0  0  0  0  0
    0.8989    3.0646    2.4865 H   0  0  0  0  0  0  0  0  0  0  0  0
    0.0277    3.5104    1.0035 H   0  0  0  0  0  0  0  0  0  0  0  0
  1  2  1  0  0  0  0
  2  3  1  0  0  0  0
  2  4  1  0  0  0  0
  2  5  1  0  0  0  0
  5  6  2  0  0  0  0
  5  7  1  0  0  0  0
  7  8  1  0  0  0  0
  7  9  1  0  0  0  0
  9 10  1  0  0  0  0
  9 11  1  0  0  0  0
  9 22  1  0  0  0  0
 11 12  1  0  0  0  0
 11 13  1  0  0  0  0
 11 14  1  0  0  0  0
 14 15  1  0  0  0  0
 14 20  2  0  0  0  0
 15 16  2  0  0  0  0
 16 17  1  0  0  0  0
 16 18  1  0  0  0  0
 18 19  1  0  0  0  0
 18 20  1  0  0  0  0
 20 21  1  0  0  0  0
 22 23  2  0  0  0  0
 22 24  1  0  0  0  0
 24 25  1  0  0  0  0
 24 26  1  0  0  0  0
 26 27  1  0  0  0  0
 26 28  1  0  0  0  0
 26 29  1  0  0  0  0
M  END
$$$$

  -OEChem-04042215593D

 29 29  0     1  0  0  0  0  0999 V2000
   -2.7398   -4.4772    1.2679 H   0  0  0  0  0  0  0  0  0  0  0  0
   -2.9130   -3.4822    0.8487 C   0  0  0  0  0  0  0  0  0  0  0  0
   -3.5343   -2.9113    1.5430 H   0  0  0  0  0  0  0  0  0  0  0  0
   -3.4416   -3.5872   -0.1017 H   0  0  0  0  0  0  0  0  0  0  0  0
   -1.5914   -2.7698    0.6303 C   0  0  0  0  0  0  0  0  0  0  0  0
   -0.5465   -3.3429    0.8902 O   0  0  0  0  0  0  0  0  0  0  0  0
   -1.5897   -1.4838    0.1315 N   0  0  0  0  0  0  0  0  0  0  0  0
   -2.4949   -1.0291    0.0292 H   0  0  0  0  0  0  0  0  0  0  0  0
   -0.4079   -0.6127    0.0363 C   0  0  1  0  0  0  0  0  0  0  0  0
    0.3434   -1.0098    0.7258 H   0  0  0  0  0  0  0  0  0  0  0  0
    0.1503   -0.6199   -1.4038 C   0  0  0  0  0  0  0  0  0  0  0  0
   -0.4718   -1.2503   -2.0458 H   0  0  0  0  0  0  0  0  0  0  0  0
    0.1179    0.3927   -1.8167 H   0  0  0  0  0  0  0  0  0  0  0  0
    1.5713   -1.1078   -1.4690 C   0  0  0  0  0  0  0  0  0  0  0  0
    2.5153   -0.9574   -0.4561 N   0  0  0  0  0  0  0  0  0  0  0  0
    3.6015   -1.5666   -0.8676 C   0  0  0  0  0  0  0  0  0  0  0  0
    4.5250   -1.6384   -0.3001 H   0  0  0  0  0  0  0  0  0  0  0  0
    3.3981   -2.0990   -2.1264 N   0  0  0  0  0  0  0  0  0  0  0  0
    4.0829   -2.6367   -2.6542 H   0  0  0  0  0  0  0  0  0  0  0  0
    2.1044   -1.8154   -2.5098 C   0  0  0  0  0  0  0  0  0  0  0  0
    1.5958   -2.1019   -3.4254 H   0  0  0  0  0  0  0  0  0  0  0  0
   -0.6904    0.8196    0.5183 C   0  0  0  0  0  0  0  0  0  0  0  0
   -1.7568    1.3580    0.2393 O   0  0  0  0  0  0  0  0  0  0  0  0
    0.2124    1.4557    1.3482 N   0  0  0  0  0  0  0  0  0  0  0  0
    1.1077    0.9909    1.4909 H   0  0  0  0  0  0  0  0  0  0  0  0
    0.0330    2.8148    1.8402 C   0  0  0  0  0  0  0  0  0  0  0  0
   -0.9119    2.9036    2.3865 H   0  0  0  0  0  0  0  0  0  0  0  0
    0.8489    3.0807    2.5190 H   0  0  0  0  0  0  0  0  0  0  0  0
    0.0279    3.5254    1.0072 H   0  0  0  0  0  0  0  0  0  0  0  0
  1  2  1  0  0  0  0
  2  3  1  0  0  0  0
  2  4  1  0  0  0  0
  2  5  1  0  0  0  0
  5  6  2  0  0  0  0
  5  7  1  0  0  0  0
  7  8  1  0  0  0  0
  7  9  1  0  0  0  0
  9 10  1  0  0  0  0
  9 11  1  0  0  0  0
  9 22  1  0  0  0  0
 11 12  1  0  0  0  0
 11 13  1  0  0  0  0
 11 14  1  0  0  0  0
 14 15  1  0  0  0  0
 14 20  2  0  0  0  0
 15 16  2  0  0  0  0
 16 17  1  0  0  0  0
 16 18  1  0  0  0  0
 18 19  1  0  0  0  0
 18 20  1  0  0  0  0
 20 21  1  0  0  0  0
 22 23  2  0  0  0  0
 22 24  1  0  0  0  0
 24 25  1  0  0  0  0
 24 26  1  0  0  0  0
 26 27  1  0  0  0  0
 26 28  1  0  0  0  0
 26 29  1  0  0  0  0
M  END
$$$$

  -OEChem-04042215593D

 29 29  0     1  0  0  0  0  0999 V2000
   -2.7646   -4.4697    1.2478 H   0  0  0  0  0  0  0  0  0  0  0  0
   -2.9221   -3.4712    0.8305 C   0  0  0  0  0  0  0  0  0  0  0  0
   -3.5706   -2.9062    1.5043 H   0  0  0  0  0  0  0  0  0  0  0  0
   -3.4131   -3.5695   -0.1406 H   0  0  0  0  0  0  0  0  0  0  0  0
   -1.5935   -2.7561    0.6699 C   0  0  0  0  0  0  0  0  0  0  0  0
   -0.5630   -3.3174    1.0011 O   0  0  0  0  0  0  0  0  0  0  0  0
   -1.5726   -1.4782    0.1513 N   0  0  0  0  0  0  0  0  0  0  0  0
   -2.4732   -1.0306   -0.0069 H   0  0  0  0  0  0  0  0  0  0  0  0
   -0.3861   -0.6117    0.0662 C   0  0  1  0  0  0  0  0  0  0  0  0
    0.3570   -0.9982    0.7697 H   0  0  0  0  0  0  0  0  0  0  0  0
    0.1819   -0.6310   -1.3723 C   0  0  0  0  0  0  0  0  0  0  0  0
   -0.4425   -1.2627   -2.0104 H   0  0  0  0  0  0  0  0  0  0  0  0
    0.1497    0.3789   -1.7920 H   0  0  0  0  0  0  0  0  0  0  0  0
    1.6022   -1.1233   -1.4584 C   0  0  0  0  0  0  0  0  0  0  0  0
    2.4934   -1.2594   -0.3980 N   0  0  0  0  0  0  0  0  0  0  0  0
    3.5912   -1.7776   -0.8928 C   0  0  0  0  0  0  0  0  0  0  0  0
    4.4793   -2.0171   -0.3149 H   0  0  0  0  0  0  0  0  0  0  0  0
    3.4502   -1.9688   -2.2538 N   0  0  0  0  0  0  0  0  0  0  0  0
    4.1560   -2.3726   -2.8665 H   0  0  0  0  0  0  0  0  0  0  0  0
    2.1842   -1.5604   -2.6159 C   0  0  0  0  0  0  0  0  0  0  0  0
    1.7248   -1.5907   -3.5993 H   0  0  0  0  0  0  0  0  0  0  0  0
   -0.6852    0.8261    0.5216 C   0  0  0  0  0  0  0  0  0  0  0  0
   -1.7388    1.3631    0.1956 O   0  0  0  0  0  0  0  0  0  0  0  0
    0.1939    1.4806    1.3626 N   0  0  0  0  0  0  0  0  0  0  0  0
    1.0676    1.0042    1.5782 H   0  0  0  0  0  0  0  0  0  0  0  0
   -0.0171    2.8363    1.8519 C   0  0  0  0  0  0  0  0  0  0  0  0
   -0.9534    2.8981    2.4162 H   0  0  0  0  0  0  0  0  0  0  0  0
    0.8040    3.1308    2.5124 H   0  0  0  0  0  0  0  0  0  0  0  0
   -0.0606    3.5428    1.0165 H   0  0  0  0  0  0  0  0  0  0  0  0
  1  2  1  0  0  0  0
  2  3  1  0  0  0  0
  2  4  1  0  0  0  0
  2  5  1  0  0  0  0
  5  6  2  0  0  0  0
  5  7  1  0  0  0  0
  7  8  1  0  0  0  0
  7  9  1  0  0  0  0
  9 10  1  0  0  0  0
  9 11  1  0  0  0  0
  9 22  1  0  0  0  0
 11 12  1  0  0  0  0
 11 13  1  0  0  0  0
 11 14  1  0  0  0  0
 14 15  1  0  0  0  0
 14 20  2  0  0  0  0
 15 16  2  0  0  0  0
 16 17  1  0  0  0  0
 16 18  1  0  0  0  0
 18 19  1  0  0  0  0
 18 20  1  0  0  0  0
 20 21  1  0  0  0  0
 22 23  2  0  0  0  0
 22 24  1  0  0  0  0
 24 25  1  0  0  0  0
 24 26  1  0  0  0  0
 26 27  1  0  0  0  0
 26 28  1  0  0  0  0
 26 29  1  0  0  0  0
M  END
$$$$

  -OEChem-04042215593D

 29 29  0     1  0  0  0  0  0999 V2000
   -2.7946   -4.4619    1.2447 H   0  0  0  0  0  0  0  0  0  0  0  0
   -2.9380   -3.4664    0.8150 C   0  0  0  0  0  0  0  0  0  0  0  0
   -3.6173   -2.9002    1.4567 H   0  0  0  0  0  0  0  0  0  0  0  0
   -3.3859   -3.5724   -0.1760 H   0  0  0  0  0  0  0  0  0  0  0  0
   -1.6060   -2.7474    0.7076 C   0  0  0  0  0  0  0  0  0  0  0  0
   -0.5932   -3.2971    1.1048 O   0  0  0  0  0  0  0  0  0  0  0  0
   -1.5651   -1.4763    0.1732 N   0  0  0  0  0  0  0  0  0  0  0  0
   -2.4579   -1.0348   -0.0361 H   0  0  0  0  0  0  0  0  0  0  0  0
   -0.3715   -0.6190    0.0898 C   0  0  1  0  0  0  0  0  0  0  0  0
    0.3707   -0.9991    0.7978 H   0  0  0  0  0  0  0  0  0  0  0  0
    0.1942   -0.6481   -1.3510 C   0  0  0  0  0  0  0  0  0  0  0  0
   -0.4341   -1.2891   -1.9760 H   0  0  0  0  0  0  0  0  0  0  0  0
    0.1562    0.3559   -1.7849 H   0  0  0  0  0  0  0  0  0  0  0  0
    1.6100   -1.1515   -1.4535 C   0  0  0  0  0  0  0  0  0  0  0  0
    2.4262   -1.5747   -0.4103 N   0  0  0  0  0  0  0  0  0  0  0  0
    3.5565   -1.9660   -0.9454 C   0  0  0  0  0  0  0  0  0  0  0  0
    4.4022   -2.3624   -0.3906 H   0  0  0  0  0  0  0  0  0  0  0  0
    3.5115   -1.7931   -2.3151 N   0  0  0  0  0  0  0  0  0  0  0  0
    4.2616   -2.0295   -2.9618 H   0  0  0  0  0  0  0  0  0  0  0  0
    2.2748   -1.2782   -2.6421 C   0  0  0  0  0  0  0  0  0  0  0  0
    1.8888   -1.0337   -3.6272 H   0  0  0  0  0  0  0  0  0  0  0  0
   -0.6747    0.8249    0.5247 C   0  0  0  0  0  0  0  0  0  0  0  0
   -1.7130    1.3678    0.1611 O   0  0  0  0  0  0  0  0  0  0  0  0
    0.1928    1.4906    1.3694 N   0  0  0  0  0  0  0  0  0  0  0  0
    1.0384    0.9976    1.6489 H   0  0  0  0  0  0  0  0  0  0  0  0
   -0.0311    2.8477    1.8495 C   0  0  0  0  0  0  0  0  0  0  0  0
   -0.9620    2.9023    2.4233 H   0  0  0  0  0  0  0  0  0  0  0  0
    0.7933    3.1595    2.4980 H   0  0  0  0  0  0  0  0  0  0  0  0
   -0.0927    3.5459    1.0083 H   0  0  0  0  0  0  0  0  0  0  0  0
  1  2  1  0  0  0  0
  2  3  1  0  0  0  0
  2  4  1  0  0  0  0
  2  5  1  0  0  0  0
  5  6  2  0  0  0  0
  5  7  1  0  0  0  0
  7  8  1  0  0  0  0
  7  9  1  0  0  0  0
  9 10  1  0  0  0  0
  9 11  1  0  0  0  0
  9 22  1  0  0  0  0
 11 12  1  0  0  0  0
 11 13  1  0  0  0  0
 11 14  1  0  0  0  0
 14 15  1  0  0  0  0
 14 20  2  0  0  0  0
 15 16  2  0  0  0  0
 16 17  1  0  0  0  0
 16 18  1  0  0  0  0
 18 19  1  0  0  0  0
 18 20  1  0  0  0  0
 20 21  1  0  0  0  0
 22 23  2  0  0  0  0
 22 24  1  0  0  0  0
 24 25  1  0  0  0  0
 24 26  1  0  0  0  0
 26 27  1  0  0  0  0
 26 28  1  0  0  0  0
 26 29  1  0  0  0  0
M  END
$$$$

  -OEChem-04042215593D

 29 29  0     1  0  0  0  0  0999 V2000
   -2.8089   -4.4598    1.2446 H   0  0  0  0  0  0  0  0  0  0  0  0
   -2.9424   -3.4690    0.8013 C   0  0  0  0  0  0  0  0  0  0  0  0
   -3.6519   -2.9034    1.4099 H   0  0  0  0  0  0  0  0  0  0  0  0
   -3.3480   -3.5863   -0.2063 H   0  0  0  0  0  0  0  0  0  0  0  0
   -1.6130   -2.7400    0.7421 C   0  0  0  0  0  0  0  0  0  0  0  0
   -0.6170   -3.2706    1.2021 O   0  0  0  0  0  0  0  0  0  0  0  0
   -1.5608   -1.4745    0.1957 N   0  0  0  0  0  0  0  0  0  0  0  0
   -2.4458   -1.0465   -0.0670 H   0  0  0  0  0  0  0  0  0  0  0  0
   -0.3612   -0.6269    0.1006 C   0  0  1  0  0  0  0  0  0  0  0  0
    0.3914   -1.0054    0.7989 H   0  0  0  0  0  0  0  0  0  0  0  0
    0.1867   -0.6569   -1.3480 C   0  0  0  0  0  0  0  0  0  0  0  0
   -0.4495   -1.3052   -1.9575 H   0  0  0  0  0  0  0  0  0  0  0  0
    0.1394    0.3426   -1.7914 H   0  0  0  0  0  0  0  0  0  0  0  0
    1.5963   -1.1726   -1.4686 C   0  0  0  0  0  0  0  0  0  0  0  0
    2.3174   -1.8688   -0.5068 N   0  0  0  0  0  0  0  0  0  0  0  0
    3.4921   -2.1320   -1.0238 C   0  0  0  0  0  0  0  0  0  0  0  0
    4.2854   -2.6758   -0.5187 H   0  0  0  0  0  0  0  0  0  0  0  0
    3.5687   -1.6090   -2.3001 N   0  0  0  0  0  0  0  0  0  0  0  0
    4.3749   -1.6822   -2.9177 H   0  0  0  0  0  0  0  0  0  0  0  0
    2.3666   -0.9959   -2.5850 C   0  0  0  0  0  0  0  0  0  0  0  0
    2.0739   -0.4854   -3.4976 H   0  0  0  0  0  0  0  0  0  0  0  0
   -0.6615    0.8215    0.5248 C   0  0  0  0  0  0  0  0  0  0  0  0
   -1.6906    1.3699    0.1437 O   0  0  0  0  0  0  0  0  0  0  0  0
    0.2073    1.4940    1.3631 N   0  0  0  0  0  0  0  0  0  0  0  0
    1.0314    0.9886    1.6803 H   0  0  0  0  0  0  0  0  0  0  0  0
   -0.0224    2.8503    1.8434 C   0  0  0  0  0  0  0  0  0  0  0  0
   -0.9456    2.8974    2.4305 H   0  0  0  0  0  0  0  0  0  0  0  0
    0.8088    3.1711    2.4787 H   0  0  0  0  0  0  0  0  0  0  0  0
   -0.1028    3.5468    1.0021 H   0  0  0  0  0  0  0  0  0  0  0  0
  1  2  1  0  0  0  0
  2  3  1  0  0  0  0
  2  4  1  0  0  0  0
  2  5  1  0  0  0  0
  5  6  2  0  0  0  0
  5  7  1  0  0  0  0
  7  8  1  0  0  0  0
  7  9  1  0  0  0  0
  9 10  1  0  0  0  0
  9 11  1  0  0  0  0
  9 22  1  0  0  0  0
 11 12  1  0  0  0  0
 11 13  1  0  0  0  0
 11 14  1  0  0  0  0
 14 15  1  0  0  0  0
 14 20  2  0  0  0  0
 15 16  2  0  0  0  0
 16 17  1  0  0  0  0
 16 18  1  0  0  0  0
 18 19  1  0  0  0  0
 18 20  1  0  0  0  0
 20 21  1  0  0  0  0
 22 23  2  0  0  0  0
 22 24  1  0  0  0  0
 24 25  1  0  0  0  0
 24 26  1  0  0  0  0
 26 27  1  0  0  0  0
 26 28  1  0  0  0  0
 26 29  1  0  0  0  0
M  END
$$$$

  -OEChem-04042215593D

 29 29  0     1  0  0  0  0  0999 V2000
   -2.7834   -4.4753    1.2258 H   0  0  0  0  0  0  0  0  0  0  0  0
   -2.9195   -3.4859    0.7802 C   0  0  0  0  0  0  0  0  0  0  0  0
   -3.6589   -2.9340    1.3655 H   0  0  0  0  0  0  0  0  0  0  0  0
   -3.2890   -3.6082   -0.2406 H   0  0  0  0  0  0  0  0  0  0  0  0
   -1.6020   -2.7333    0.7667 C   0  0  0  0  0  0  0  0  0  0  0  0
   -0.6183   -3.2360    1.2816 O   0  0  0  0  0  0  0  0  0  0  0  0
   -1.5537   -1.4694    0.2161 N   0  0  0  0  0  0  0  0  0  0  0  0
   -2.4338   -1.0629   -0.0920 H   0  0  0  0  0  0  0  0  0  0  0  0
   -0.3539   -0.6245    0.1037 C   0  0  1  0  0  0  0  0  0  0  0  0
    0.4165   -1.0042    0.7829 H   0  0  0  0  0  0  0  0  0  0  0  0
    0.1648   -0.6464   -1.3555 C   0  0  0  0  0  0  0  0  0  0  0  0
   -0.4802   -1.2952   -1.9546 H   0  0  0  0  0  0  0  0  0  0  0  0
    0.1090    0.3533   -1.7975 H   0  0  0  0  0  0  0  0  0  0  0  0
    1.5694   -1.1679   -1.4918 C   0  0  0  0  0  0  0  0  0  0  0  0
    2.1832   -2.1045   -0.6719 N   0  0  0  0  0  0  0  0  0  0  0  0
    3.3997   -2.2747   -1.1268 C   0  0  0  0  0  0  0  0  0  0  0  0
    4.1327   -2.9547   -0.7020 H   0  0  0  0  0  0  0  0  0  0  0  0
    3.6073   -1.4571   -2.2211 N   0  0  0  0  0  0  0  0  0  0  0  0
    4.4709   -1.4021   -2.7576 H   0  0  0  0  0  0  0  0  0  0  0  0
    2.4467   -0.7492   -2.4542 C   0  0  0  0  0  0  0  0  0  0  0  0
    2.2520   -0.0173   -3.2326 H   0  0  0  0  0  0  0  0  0  0  0  0
   -0.6518    0.8246    0.5294 C   0  0  0  0  0  0  0  0  0  0  0  0
   -1.6771    1.3780    0.1454 O   0  0  0  0  0  0  0  0  0  0  0  0
    0.2253    1.5002    1.3569 N   0  0  0  0  0  0  0  0  0  0  0  0
    1.0395    0.9886    1.6886 H   0  0  0  0  0  0  0  0  0  0  0  0
   -0.0052    2.8554    1.8399 C   0  0  0  0  0  0  0  0  0  0  0  0
   -0.9362    2.9046    2.4142 H   0  0  0  0  0  0  0  0  0  0  0  0
    0.8179    3.1698    2.4887 H   0  0  0  0  0  0  0  0  0  0  0  0
   -0.0704    3.5553    1.0003 H   0  0  0  0  0  0  0  0  0  0  0  0
  1  2  1  0  0  0  0
  2  3  1  0  0  0  0
  2  4  1  0  0  0  0
  2  5  1  0  0  0  0
  5  6  2  0  0  0  0
  5  7  1  0  0  0  0
  7  8  1  0  0  0  0
  7  9  1  0  0  0  0
  9 10  1  0  0  0  0
  9 11  1  0  0  0  0
  9 22  1  0  0  0  0
 11 12  1  0  0  0  0
 11 13  1  0  0  0  0
 11 14  1  0  0  0  0
 14 15  1  0  0  0  0
 14 20  2  0  0  0  0
 15 16  2  0  0  0  0
 16 17  1  0  0  0  0
 16 18  1  0  0  0  0
 18 19  1  0  0  0  0
 18 20  1  0  0  0  0
 20 21  1  0  0  0  0
 22 23  2  0  0  0  0
 22 24  1  0  0  0  0
 24 25  1  0  0  0  0
 24 26  1  0  0  0  0
 26 27  1  0  0  0  0
 26 28  1  0  0  0  0
 26 29  1  0  0  0  0
M  END
$$$$

  -OEChem-04042215593D

 29 29  0     1  0  0  0  0  0999 V2000
   -2.7385   -4.4833    1.2224 H   0  0  0  0  0  0  0  0  0  0  0  0
   -2.8812   -3.5019    0.7612 C   0  0  0  0  0  0  0  0  0  0  0  0
   -3.6450   -2.9568    1.3210 H   0  0  0  0  0  0  0  0  0  0  0  0
   -3.2220   -3.6432   -0.2672 H   0  0  0  0  0  0  0  0  0  0  0  0
   -1.5781   -2.7249    0.7717 C   0  0  0  0  0  0  0  0  0  0  0  0
   -0.5995   -3.2008    1.3212 O   0  0  0  0  0  0  0  0  0  0  0  0
   -1.5425   -1.4598    0.2229 N   0  0  0  0  0  0  0  0  0  0  0  0
   -2.4195   -1.0757   -0.1201 H   0  0  0  0  0  0  0  0  0  0  0  0
   -0.3458   -0.6129    0.1002 C   0  0  1  0  0  0  0  0  0  0  0  0
    0.4410   -0.9947    0.7600 H   0  0  0  0  0  0  0  0  0  0  0  0
    0.1475   -0.6212   -1.3677 C   0  0  0  0  0  0  0  0  0  0  0  0
   -0.5042   -1.2626   -1.9679 H   0  0  0  0  0  0  0  0  0  0  0  0
    0.0913    0.3834   -1.7986 H   0  0  0  0  0  0  0  0  0  0  0  0
    1.5488   -1.1439   -1.5090 C   0  0  0  0  0  0  0  0  0  0  0  0
    2.0503   -2.2769   -0.8867 N   0  0  0  0  0  0  0  0  0  0  0  0
    3.3023   -2.3922   -1.2539 C   0  0  0  0  0  0  0  0  0  0  0  0
    3.9722   -3.1856   -0.9350 H   0  0  0  0  0  0  0  0  0  0  0  0
    3.6378   -1.3545   -2.1028 N   0  0  0  0  0  0  0  0  0  0  0  0
    4.5517   -1.2179   -2.5307 H   0  0  0  0  0  0  0  0  0  0  0  0
    2.5244   -0.5568   -2.2668 C   0  0  0  0  0  0  0  0  0  0  0  0
    2.4256    0.3438   -2.8656 H   0  0  0  0  0  0  0  0  0  0  0  0
   -0.6468    0.8332    0.5344 C   0  0  0  0  0  0  0  0  0  0  0  0
   -1.6691    1.3901    0.1478 O   0  0  0  0  0  0  0  0  0  0  0  0
    0.2347    1.5105    1.3560 N   0  0  0  0  0  0  0  0  0  0  0  0
    1.0343    0.9903    1.7084 H   0  0  0  0  0  0  0  0  0  0  0  0
   -0.0035    2.8611    1.8485 C   0  0  0  0  0  0  0  0  0  0  0  0
   -0.9172    2.8935    2.4512 H   0  0  0  0  0  0  0  0  0  0  0  0
    0.8343    3.1889    2.4714 H   0  0  0  0  0  0  0  0  0  0  0  0
   -0.1066    3.5609    1.0126 H   0  0  0  0  0  0  0  0  0  0  0  0
  1  2  1  0  0  0  0
  2  3  1  0  0  0  0
  2  4  1  0  0  0  0
  2  5  1  0  0  0  0
  5  6  2  0  0  0  0
  5  7  1  0  0  0  0
  7  8  1  0  0  0  0
  7  9  1  0  0  0  0
  9 10  1  0  0  0  0
  9 11  1  0  0  0  0
  9 22  1  0  0  0  0
 11 12  1  0  0  0  0
 11 13  1  0  0  0  0
 11 14  1  0  0  0  0
 14 15  1  0  0  0  0
 14 20  2  0  0  0  0
 15 16  2  0  0  0  0
 16 17  1  0  0  0  0
 16 18  1  0  0  0  0
 18 19  1  0  0  0  0
 18 20  1  0  0  0  0
 20 21  1  0  0  0  0
 22 23  2  0  0  0  0
 22 24  1  0  0  0  0
 24 25  1  0  0  0  0
 24 26  1  0  0  0  0
 26 27  1  0  0  0  0
 26 28  1  0  0  0  0
 26 29  1  0  0  0  0
M  END
$$$$

  -OEChem-04042215593D

 29 29  0     1  0  0  0  0  0999 V2000
   -2.6718   -4.5088    1.1866 H   0  0  0  0  0  0  0  0  0  0  0  0
   -2.8346   -3.5280    0.7311 C   0  0  0  0  0  0  0  0  0  0  0  0
   -3.6282   -3.0127    1.2772 H   0  0  0  0  0  0  0  0  0  0  0  0
   -3.1463   -3.6703   -0.3065 H   0  0  0  0  0  0  0  0  0  0  0  0
   -1.5566   -2.7119    0.7798 C   0  0  0  0  0  0  0  0  0  0  0  0
   -0.5797   -3.1572    1.3583 O   0  0  0  0  0  0  0  0  0  0  0  0
   -1.5397   -1.4459    0.2320 N   0  0  0  0  0  0  0  0  0  0  0  0
   -2.4134   -1.0873   -0.1449 H   0  0  0  0  0  0  0  0  0  0  0  0
   -0.3481   -0.5945    0.0982 C   0  0  1  0  0  0  0  0  0  0  0  0
    0.4498   -0.9765    0.7448 H   0  0  0  0  0  0  0  0  0  0  0  0
    0.1272   -0.6003   -1.3743 C   0  0  0  0  0  0  0  0  0  0  0  0
   -0.5270   -1.2371   -1.9767 H   0  0  0  0  0  0  0  0  0  0  0  0
    0.0739    0.4069   -1.7996 H   0  0  0  0  0  0  0  0  0  0  0  0
    1.5274   -1.1217   -1.5088 C   0  0  0  0  0  0  0  0  0  0  0  0
    1.9358   -2.3894   -1.1254 N   0  0  0  0  0  0  0  0  0  0  0  0
    3.2155   -2.4725   -1.3933 C   0  0  0  0  0  0  0  0  0  0  0  0
    3.8336   -3.3457   -1.2053 H   0  0  0  0  0  0  0  0  0  0  0  0
    3.6554   -1.2857   -1.9496 N   0  0  0  0  0  0  0  0  0  0  0  0
    4.6096   -1.0971   -2.2510 H   0  0  0  0  0  0  0  0  0  0  0  0
    2.5821   -0.4226   -2.0271 C   0  0  0  0  0  0  0  0  0  0  0  0
    2.5613    0.5925   -2.4123 H   0  0  0  0  0  0  0  0  0  0  0  0
   -0.6463    0.8508    0.5381 C   0  0  0  0  0  0  0  0  0  0  0  0
   -1.6697    1.4103    0.1588 O   0  0  0  0  0  0  0  0  0  0  0  0
    0.2443    1.5271    1.3508 N   0  0  0  0  0  0  0  0  0  0  0  0
    1.0403    1.0027    1.7048 H   0  0  0  0  0  0  0  0  0  0  0  0
    0.0046    2.8728    1.8558 C   0  0  0  0  0  0  0  0  0  0  0  0
   -0.8954    2.8928    2.4793 H   0  0  0  0  0  0  0  0  0  0  0  0
    0.8532    3.2056    2.4612 H   0  0  0  0  0  0  0  0  0  0  0  0
   -0.1242    3.5767    1.0268 H   0  0  0  0  0  0  0  0  0  0  0  0
  1  2  1  0  0  0  0
  2  3  1  0  0  0  0
  2  4  1  0  0  0  0
  2  5  1  0  0  0  0
  5  6  2  0  0  0  0
  5  7  1  0  0  0  0
  7  8  1  0  0  0  0
  7  9  1  0  0  0  0
  9 10  1  0  0  0  0
  9 11  1  0  0  0  0
  9 22  1  0  0  0  0
 11 12  1  0  0  0  0
 11 13  1  0  0  0  0
 11 14  1  0  0  0  0
 14 15  1  0  0  0  0
 14 20  2  0  0  0  0
 15 16  2  0  0  0  0
 16 17  1  0  0  0  0
 16 18  1  0  0  0  0
 18 19  1  0  0  0  0
 18 20  1  0  0  0  0
 20 21  1  0  0  0  0
 22 23  2  0  0  0  0
 22 24  1  0  0  0  0
 24 25  1  0  0  0  0
 24 26  1  0  0  0  0
 26 27  1  0  0  0  0
 26 28  1  0  0  0  0
 26 29  1  0  0  0  0
M  END
$$$$

  -OEChem-04042215593D

 29 29  0     1  0  0  0  0  0999 V2000
   -2.6361   -4.5230    1.1607 H   0  0  0  0  0  0  0  0  0  0  0  0
   -2.8109   -3.5384    0.7178 C   0  0  0  0  0  0  0  0  0  0  0  0
   -3.6110   -3.0395    1.2697 H   0  0  0  0  0  0  0  0  0  0  0  0
   -3.1206   -3.6713   -0.3215 H   0  0  0  0  0  0  0  0  0  0  0  0
   -1.5428   -2.7075    0.7763 C   0  0  0  0  0  0  0  0  0  0  0  0
   -0.5615   -3.1437    1.3553 O   0  0  0  0  0  0  0  0  0  0  0  0
   -1.5354   -1.4398    0.2316 N   0  0  0  0  0  0  0  0  0  0  0  0
   -2.4076   -1.0917   -0.1588 H   0  0  0  0  0  0  0  0  0  0  0  0
   -0.3471   -0.5837    0.1015 C   0  0  1  0  0  0  0  0  0  0  0  0
    0.4529   -0.9644    0.7463 H   0  0  0  0  0  0  0  0  0  0  0  0
    0.1256   -0.5886   -1.3708 C   0  0  0  0  0  0  0  0  0  0  0  0
   -0.5274   -1.2203   -1.9800 H   0  0  0  0  0  0  0  0  0  0  0  0
    0.0775    0.4207   -1.7913 H   0  0  0  0  0  0  0  0  0  0  0  0
    1.5260   -1.1076   -1.4950 C   0  0  0  0  0  0  0  0  0  0  0  0
    1.8729   -2.4452   -1.3883 N   0  0  0  0  0  0  0  0  0  0  0  0
    3.1698   -2.5119   -1.5629 C   0  0  0  0  0  0  0  0  0  0  0  0
    3.7534   -3.4277   -1.5341 H   0  0  0  0  0  0  0  0  0  0  0  0
    3.6789   -1.2469   -1.7927 N   0  0  0  0  0  0  0  0  0  0  0  0
    4.6588   -1.0320   -1.9672 H   0  0  0  0  0  0  0  0  0  0  0  0
    2.6328   -0.3485   -1.7557 C   0  0  0  0  0  0  0  0  0  0  0  0
    2.6631    0.7273   -1.9010 H   0  0  0  0  0  0  0  0  0  0  0  0
   -0.6500    0.8601    0.5456 C   0  0  0  0  0  0  0  0  0  0  0  0
   -1.6706    1.4205    0.1609 O   0  0  0  0  0  0  0  0  0  0  0  0
    0.2373    1.5382    1.3612 N   0  0  0  0  0  0  0  0  0  0  0  0
    1.0281    1.0130    1.7253 H   0  0  0  0  0  0  0  0  0  0  0  0
   -0.0041    2.8859    1.8613 C   0  0  0  0  0  0  0  0  0  0  0  0
   -0.9086    2.9096    2.4781 H   0  0  0  0  0  0  0  0  0  0  0  0
    0.8403    3.2190    2.4722 H   0  0  0  0  0  0  0  0  0  0  0  0
   -0.1252    3.5874    1.0291 H   0  0  0  0  0  0  0  0  0  0  0  0
  1  2  1  0  0  0  0
  2  3  1  0  0  0  0
  2  4  1  0  0  0  0
  2  5  1  0  0  0  0
  5  6  2  0  0  0  0
  5  7  1  0  0  0  0
  7  8  1  0  0  0  0
  7  9  1  0  0  0  0
  9 10  1  0  0  0  0
  9 11  1  0  0  0  0
  9 22  1  0  0  0  0
 11 12  1  0  0  0  0
 11 13  1  0  0  0  0
 11 14  1  0  0  0  0
 14 15  1  0  0  0  0
 14 20  2  0  0  0  0
 15 16  2  0  0  0  0
 16 17  1  0  0  0  0
 16 18  1  0  0  0  0
 18 19  1  0  0  0  0
 18 20  1  0  0  0  0
 20 21  1  0  0  0  0
 22 23  2  0  0  0  0
 22 24  1  0  0  0  0
 24 25  1  0  0  0  0
 24 26  1  0  0  0  0
 26 27  1  0  0  0  0
 26 28  1  0  0  0  0
 26 29  1  0  0  0  0
M  END
$$$$

  -OEChem-04042215593D

 29 29  0     1  0  0  0  0  0999 V2000
   -2.6305   -4.5142    1.1735 H   0  0  0  0  0  0  0  0  0  0  0  0
   -2.8068   -3.5323    0.7255 C   0  0  0  0  0  0  0  0  0  0  0  0
   -3.5973   -3.0260    1.2843 H   0  0  0  0  0  0  0  0  0  0  0  0
   -3.1312   -3.6715   -0.3085 H   0  0  0  0  0  0  0  0  0  0  0  0
   -1.5348   -2.7062    0.7618 C   0  0  0  0  0  0  0  0  0  0  0  0
   -0.5422   -3.1475    1.3177 O   0  0  0  0  0  0  0  0  0  0  0  0
   -1.5313   -1.4373    0.2200 N   0  0  0  0  0  0  0  0  0  0  0  0
   -2.4086   -1.0819   -0.1524 H   0  0  0  0  0  0  0  0  0  0  0  0
   -0.3449   -0.5790    0.0936 C   0  0  1  0  0  0  0  0  0  0  0  0
    0.4544   -0.9581    0.7404 H   0  0  0  0  0  0  0  0  0  0  0  0
    0.1311   -0.5842   -1.3768 C   0  0  0  0  0  0  0  0  0  0  0  0
   -0.5201   -1.2111   -1.9932 H   0  0  0  0  0  0  0  0  0  0  0  0
    0.0906    0.4266   -1.7944 H   0  0  0  0  0  0  0  0  0  0  0  0
    1.5322   -1.1018   -1.4897 C   0  0  0  0  0  0  0  0  0  0  0  0
    1.8531   -2.4377   -1.6753 N   0  0  0  0  0  0  0  0  0  0  0  0
    3.1605   -2.5016   -1.7388 C   0  0  0  0  0  0  0  0  0  0  0  0
    3.7305   -3.4164   -1.8743 H   0  0  0  0  0  0  0  0  0  0  0  0
    3.7011   -1.2346   -1.6153 N   0  0  0  0  0  0  0  0  0  0  0  0
    4.6955   -1.0166   -1.6409 H   0  0  0  0  0  0  0  0  0  0  0  0
    2.6649   -0.3366   -1.4644 C   0  0  0  0  0  0  0  0  0  0  0  0
    2.7185    0.7422   -1.3511 H   0  0  0  0  0  0  0  0  0  0  0  0
   -0.6521    0.8627    0.5409 C   0  0  0  0  0  0  0  0  0  0  0  0
   -1.6751    1.4200    0.1585 O   0  0  0  0  0  0  0  0  0  0  0  0
    0.2324    1.5408    1.3596 N   0  0  0  0  0  0  0  0  0  0  0  0
    1.0174    1.0134    1.7329 H   0  0  0  0  0  0  0  0  0  0  0  0
   -0.0183    2.8841    1.8665 C   0  0  0  0  0  0  0  0  0  0  0  0
   -0.9257    2.8994    2.4792 H   0  0  0  0  0  0  0  0  0  0  0  0
    0.8218    3.2175    2.4831 H   0  0  0  0  0  0  0  0  0  0  0  0
   -0.1394    3.5901    1.0382 H   0  0  0  0  0  0  0  0  0  0  0  0
  1  2  1  0  0  0  0
  2  3  1  0  0  0  0
  2  4  1  0  0  0  0
  2  5  1  0  0  0  0
  5  6  2  0  0  0  0
  5  7  1  0  0  0  0
  7  8  1  0  0  0  0
  7  9  1  0  0  0  0
  9 10  1  0  0  0  0
  9 11  1  0  0  0  0
  9 22  1  0  0  0  0
 11 12  1  0  0  0  0
 11 13  1  0  0  0  0
 11 14  1  0  0  0  0
 14 15  1  0  0  0  0
 14 20  2  0  0  0  0
 15 16  2  0  0  0  0
 16 17  1  0  0  0  0
 16 18  1  0  0  0  0
 18 19  1  0  0  0  0
 18 20  1  0  0  0  0
 20 21  1  0  0  0  0
 22 23  2  0  0  0  0
 22 24  1  0  0  0  0
 24 25  1  0  0  0  0
 24 26  1  0  0  0  0
 26 27  1  0  0  0  0
 26 28  1  0  0  0  0
 26 29  1  0  0  0  0
M  END
$$$$

  -OEChem-04042215593D

 29 29  0     1  0  0  0  0  0999 V2000
   -2.6376   -4.4958    1.2022 H   0  0  0  0  0  0  0  0  0  0  0  0
   -2.8121   -3.5189    0.7426 C   0  0  0  0  0  0  0  0  0  0  0  0
   -3.5863   -2.9958    1.3090 H   0  0  0  0  0  0  0  0  0  0  0  0
   -3.1578   -3.6699   -0.2829 H   0  0  0  0  0  0  0  0  0  0  0  0
   -1.5315   -2.7057    0.7426 C   0  0  0  0  0  0  0  0  0  0  0  0
   -0.5265   -3.1577    1.2672 O   0  0  0  0  0  0  0  0  0  0  0  0
   -1.5296   -1.4359    0.2033 N   0  0  0  0  0  0  0  0  0  0  0  0
   -2.4123   -1.0708   -0.1469 H   0  0  0  0  0  0  0  0  0  0  0  0
   -0.3440   -0.5757    0.0830 C   0  0  1  0  0  0  0  0  0  0  0  0
    0.4506   -0.9537    0.7356 H   0  0  0  0  0  0  0  0  0  0  0  0
    0.1412   -0.5828   -1.3843 C   0  0  0  0  0  0  0  0  0  0  0  0
   -0.5071   -1.2101   -2.0034 H   0  0  0  0  0  0  0  0  0  0  0  0
    0.1047    0.4271   -1.8047 H   0  0  0  0  0  0  0  0  0  0  0  0
    1.5439   -1.0980   -1.4901 C   0  0  0  0  0  0  0  0  0  0  0  0
    1.8734   -2.3594   -1.9630 N   0  0  0  0  0  0  0  0  0  0  0  0
    3.1804   -2.4450   -1.9134 C   0  0  0  0  0  0  0  0  0  0  0  0
    3.7560   -3.3172   -2.2100 H   0  0  0  0  0  0  0  0  0  0  0  0
    3.7138   -1.2615   -1.4363 N   0  0  0  0  0  0  0  0  0  0  0  0
    4.7067   -1.0762   -1.3074 H   0  0  0  0  0  0  0  0  0  0  0  0
    2.6733   -0.3950   -1.1734 C   0  0  0  0  0  0  0  0  0  0  0  0
    2.7227    0.6230   -0.7993 H   0  0  0  0  0  0  0  0  0  0  0  0
   -0.6549    0.8644    0.5319 C   0  0  0  0  0  0  0  0  0  0  0  0
   -1.6794    1.4198    0.1517 O   0  0  0  0  0  0  0  0  0  0  0  0
    0.2267    1.5405    1.3553 N   0  0  0  0  0  0  0  0  0  0  0  0
    1.0024    1.0083    1.7405 H   0  0  0  0  0  0  0  0  0  0  0  0
   -0.0333    2.8776    1.8737 C   0  0  0  0  0  0  0  0  0  0  0  0
   -0.9354    2.8792    2.4945 H   0  0  0  0  0  0  0  0  0  0  0  0
    0.8089    3.2161    2.4847 H   0  0  0  0  0  0  0  0  0  0  0  0
   -0.1696    3.5877    1.0513 H   0  0  0  0  0  0  0  0  0  0  0  0
  1  2  1  0  0  0  0
  2  3  1  0  0  0  0
  2  4  1  0  0  0  0
  2  5  1  0  0  0  0
  5  6  2  0  0  0  0
  5  7  1  0  0  0  0
  7  8  1  0  0  0  0
  7  9  1  0  0  0  0
  9 10  1  0  0  0  0
  9 11  1  0  0  0  0
  9 22  1  0  0  0  0
 11 12  1  0  0  0  0
 11 13  1  0  0  0  0
 11 14  1  0  0  0  0
 14 15  1  0  0  0  0
 14 20  2  0  0  0  0
 15 16  2  0  0  0  0
 16 17  1  0  0  0  0
 16 18  1  0  0  0  0
 18 19  1  0  0  0  0
 18 20  1  0  0  0  0
 20 21  1  0  0  0  0
 22 23  2  0  0  0  0
 22 24  1  0  0  0  0
 24 25  1  0  0  0  0
 24 26  1  0  0  0  0
 26 27  1  0  0  0  0
 26 28  1  0  0  0  0
 26 29  1  0  0  0  0
M  END
$$$$

  -OEChem-04042215593D

 29 29  0     1  0  0  0  0  0999 V2000
   -2.6467   -4.4849    1.2016 H   0  0  0  0  0  0  0  0  0  0  0  0
   -2.8176   -3.5050    0.7471 C   0  0  0  0  0  0  0  0  0  0  0  0
   -3.5822   -2.9776    1.3225 H   0  0  0  0  0  0  0  0  0  0  0  0
   -3.1746   -3.6497   -0.2753 H   0  0  0  0  0  0  0  0  0  0  0  0
   -1.5304   -2.7023    0.7356 C   0  0  0  0  0  0  0  0  0  0  0  0
   -0.5189   -3.1672    1.2364 O   0  0  0  0  0  0  0  0  0  0  0  0
   -1.5236   -1.4325    0.1968 N   0  0  0  0  0  0  0  0  0  0  0  0
   -2.4079   -1.0572   -0.1390 H   0  0  0  0  0  0  0  0  0  0  0  0
   -0.3381   -0.5708    0.0892 C   0  0  1  0  0  0  0  0  0  0  0  0
    0.4478   -0.9471    0.7527 H   0  0  0  0  0  0  0  0  0  0  0  0
    0.1605   -0.5844   -1.3742 C   0  0  0  0  0  0  0  0  0  0  0  0
   -0.4851   -1.2190   -1.9890 H   0  0  0  0  0  0  0  0  0  0  0  0
    0.1202    0.4207   -1.8051 H   0  0  0  0  0  0  0  0  0  0  0  0
    1.5656   -1.0974   -1.4835 C   0  0  0  0  0  0  0  0  0  0  0  0
    1.9198   -2.2177   -2.2220 N   0  0  0  0  0  0  0  0  0  0  0  0
    3.2160   -2.3586   -2.0859 C   0  0  0  0  0  0  0  0  0  0  0  0
    3.8041   -3.1525   -2.5376 H   0  0  0  0  0  0  0  0  0  0  0  0
    3.7209   -1.3460   -1.2910 N   0  0  0  0  0  0  0  0  0  0  0  0
    4.7006   -1.2335   -1.0374 H   0  0  0  0  0  0  0  0  0  0  0  0
    2.6729   -0.5347   -0.9096 C   0  0  0  0  0  0  0  0  0  0  0  0
    2.7042    0.3582   -0.2937 H   0  0  0  0  0  0  0  0  0  0  0  0
   -0.6589    0.8687    0.5352 C   0  0  0  0  0  0  0  0  0  0  0  0
   -1.6853    1.4160    0.1486 O   0  0  0  0  0  0  0  0  0  0  0  0
    0.2090    1.5505    1.3691 N   0  0  0  0  0  0  0  0  0  0  0  0
    0.9783    1.0217    1.7705 H   0  0  0  0  0  0  0  0  0  0  0  0
   -0.0654    2.8874    1.8823 C   0  0  0  0  0  0  0  0  0  0  0  0
   -0.9642    2.8816    2.5079 H   0  0  0  0  0  0  0  0  0  0  0  0
    0.7757    3.2405    2.4867 H   0  0  0  0  0  0  0  0  0  0  0  0
   -0.2148    3.5915    1.0568 H   0  0  0  0  0  0  0  0  0  0  0  0
  1  2  1  0  0  0  0
  2  3  1  0  0  0  0
  2  4  1  0  0  0  0
  2  5  1  0  0  0  0
  5  6  2  0  0  0  0
  5  7  1  0  0  0  0
  7  8  1  0  0  0  0
  7  9  1  0  0  0  0
  9 10  1  0  0  0  0
  9 11  1  0  0  0  0
  9 22  1  0  0  0  0
 11 12  1  0  0  0  0
 11 13  1  0  0  0  0
 11 14  1  0  0  0  0
 14 15  1  0  0  0  0
 14 20  2  0  0  0  0
 15 16  2  0  0  0  0
 16 17  1  0  0  0  0
 16 18  1  0  0  0  0
 18 19  1  0  0  0  0
 18 20  1  0  0  0  0
 20 21  1  0  0  0  0
 22 23  2  0  0  0  0
 22 24  1  0  0  0  0
 24 25  1  0  0  0  0
 24 26  1  0  0  0  0
 26 27  1  0  0  0  0
 26 28  1  0  0  0  0
 26 29  1  0  0  0  0
M  END
$$$$

  -OEChem-04042215593D

 29 29  0     1  0  0  0  0  0999 V2000
   -2.6562   -4.4718    1.2052 H   0  0  0  0  0  0  0  0  0  0  0  0
   -2.8241   -3.4903    0.7529 C   0  0  0  0  0  0  0  0  0  0  0  0
   -3.5824   -2.9598    1.3336 H   0  0  0  0  0  0  0  0  0  0  0  0
   -3.1880   -3.6313   -0.2678 H   0  0  0  0  0  0  0  0  0  0  0  0
   -1.5323   -2.6949    0.7358 C   0  0  0  0  0  0  0  0  0  0  0  0
   -0.5204   -3.1673    1.2287 O   0  0  0  0  0  0  0  0  0  0  0  0
   -1.5169   -1.4268    0.1933 N   0  0  0  0  0  0  0  0  0  0  0  0
   -2.4012   -1.0405   -0.1313 H   0  0  0  0  0  0  0  0  0  0  0  0
   -0.3300   -0.5645    0.1046 C   0  0  1  0  0  0  0  0  0  0  0  0
    0.4404   -0.9369    0.7868 H   0  0  0  0  0  0  0  0  0  0  0  0
    0.1947   -0.5803   -1.3513 C   0  0  0  0  0  0  0  0  0  0  0  0
   -0.4449   -1.2217   -1.9655 H   0  0  0  0  0  0  0  0  0  0  0  0
    0.1505    0.4210   -1.7900 H   0  0  0  0  0  0  0  0  0  0  0  0
    1.6032   -1.0893   -1.4708 C   0  0  0  0  0  0  0  0  0  0  0  0
    1.9890   -2.0009   -2.4442 N   0  0  0  0  0  0  0  0  0  0  0  0
    3.2641   -2.2371   -2.2532 C   0  0  0  0  0  0  0  0  0  0  0  0
    3.8650   -2.9177   -2.8498 H   0  0  0  0  0  0  0  0  0  0  0  0
    3.7275   -1.4909   -1.1863 N   0  0  0  0  0  0  0  0  0  0  0  0
    4.6823   -1.5038   -0.8327 H   0  0  0  0  0  0  0  0  0  0  0  0
    2.6741   -0.7553   -0.6855 C   0  0  0  0  0  0  0  0  0  0  0  0
    2.6811   -0.0631    0.1495 H   0  0  0  0  0  0  0  0  0  0  0  0
   -0.6686    0.8743    0.5417 C   0  0  0  0  0  0  0  0  0  0  0  0
   -1.6990    1.4070    0.1453 O   0  0  0  0  0  0  0  0  0  0  0  0
    0.1752    1.5671    1.3910 N   0  0  0  0  0  0  0  0  0  0  0  0
    0.9517    1.0546    1.7984 H   0  0  0  0  0  0  0  0  0  0  0  0
   -0.1203    2.9049    1.8893 C   0  0  0  0  0  0  0  0  0  0  0  0
   -1.0389    2.8974    2.4853 H   0  0  0  0  0  0  0  0  0  0  0  0
    0.6995    3.2633    2.5193 H   0  0  0  0  0  0  0  0  0  0  0  0
   -0.2459    3.6054    1.0569 H   0  0  0  0  0  0  0  0  0  0  0  0
  1  2  1  0  0  0  0
  2  3  1  0  0  0  0
  2  4  1  0  0  0  0
  2  5  1  0  0  0  0
  5  6  2  0  0  0  0
  5  7  1  0  0  0  0
  7  8  1  0  0  0  0
  7  9  1  0  0  0  0
  9 10  1  0  0  0  0
  9 11  1  0  0  0  0
  9 22  1  0  0  0  0
 11 12  1  0  0  0  0
 11 13  1  0  0  0  0
 11 14  1  0  0  0  0
 14 15  1  0  0  0  0
 14 20  2  0  0  0  0
 15 16  2  0  0  0  0
 16 17  1  0  0  0  0
 16 18  1  0  0  0  0
 18 19  1  0  0  0  0
 18 20  1  0  0  0  0
 20 21  1  0  0  0  0
 22 23  2  0  0  0  0
 22 24  1  0  0  0  0
 24 25  1  0  0  0  0
 24 26  1  0  0  0  0
 26 27  1  0  0  0  0
 26 28  1  0  0  0  0
 26 29  1  0  0  0  0
M  END
$$$$

  -OEChem-04042215593D

 29 29  0     1  0  0  0  0  0999 V2000
   -2.6879   -4.4526    1.2171 H   0  0  0  0  0  0  0  0  0  0  0  0
   -2.8460   -3.4714    0.7608 C   0  0  0  0  0  0  0  0  0  0  0  0
   -3.5968   -2.9293    1.3407 H   0  0  0  0  0  0  0  0  0  0  0  0
   -3.2141   -3.6128   -0.2582 H   0  0  0  0  0  0  0  0  0  0  0  0
   -1.5455   -2.6905    0.7370 C   0  0  0  0  0  0  0  0  0  0  0  0
   -0.5359   -3.1727    1.2256 O   0  0  0  0  0  0  0  0  0  0  0  0
   -1.5173   -1.4255    0.1886 N   0  0  0  0  0  0  0  0  0  0  0  0
   -2.3996   -1.0274   -0.1275 H   0  0  0  0  0  0  0  0  0  0  0  0
   -0.3281   -0.5642    0.1225 C   0  0  1  0  0  0  0  0  0  0  0  0
    0.4193   -0.9330    0.8297 H   0  0  0  0  0  0  0  0  0  0  0  0
    0.2325   -0.5826   -1.3206 C   0  0  0  0  0  0  0  0  0  0  0  0
   -0.3966   -1.2269   -1.9425 H   0  0  0  0  0  0  0  0  0  0  0  0
    0.1896    0.4173   -1.7631 H   0  0  0  0  0  0  0  0  0  0  0  0
    1.6455   -1.0880   -1.4395 C   0  0  0  0  0  0  0  0  0  0  0  0
    2.0863   -1.7372   -2.5856 N   0  0  0  0  0  0  0  0  0  0  0  0
    3.3345   -2.0757   -2.3740 C   0  0  0  0  0  0  0  0  0  0  0  0
    3.9620   -2.6075   -3.0835 H   0  0  0  0  0  0  0  0  0  0  0  0
    3.7295   -1.6555   -1.1189 N   0  0  0  0  0  0  0  0  0  0  0  0
    4.6481   -1.8145   -0.7094 H   0  0  0  0  0  0  0  0  0  0  0  0
    2.6586   -1.0282   -0.5180 C   0  0  0  0  0  0  0  0  0  0  0  0
    2.6193   -0.5923    0.4742 H   0  0  0  0  0  0  0  0  0  0  0  0
   -0.6799    0.8761    0.5449 C   0  0  0  0  0  0  0  0  0  0  0  0
   -1.7146    1.3941    0.1403 O   0  0  0  0  0  0  0  0  0  0  0  0
    0.1404    1.5775    1.4098 N   0  0  0  0  0  0  0  0  0  0  0  0
    0.9429    1.0904    1.7972 H   0  0  0  0  0  0  0  0  0  0  0  0
   -0.1693    2.9177    1.8930 C   0  0  0  0  0  0  0  0  0  0  0  0
   -1.1045    2.9136    2.4629 H   0  0  0  0  0  0  0  0  0  0  0  0
    0.6318    3.2794    2.5448 H   0  0  0  0  0  0  0  0  0  0  0  0
   -0.2712    3.6135    1.0535 H   0  0  0  0  0  0  0  0  0  0  0  0
  1  2  1  0  0  0  0
  2  3  1  0  0  0  0
  2  4  1  0  0  0  0
  2  5  1  0  0  0  0
  5  6  2  0  0  0  0
  5  7  1  0  0  0  0
  7  8  1  0  0  0  0
  7  9  1  0  0  0  0
  9 10  1  0  0  0  0
  9 11  1  0  0  0  0
  9 22  1  0  0  0  0
 11 12  1  0  0  0  0
 11 13  1  0  0  0  0
 11 14  1  0  0  0  0
 14 15  1  0  0  0  0
 14 20  2  0  0  0  0
 15 16  2  0  0  0  0
 16 17  1  0  0  0  0
 16 18  1  0  0  0  0
 18 19  1  0  0  0  0
 18 20  1  0  0  0  0
 20 21  1  0  0  0  0
 22 23  2  0  0  0  0
 22 24  1  0  0  0  0
 24 25  1  0  0  0  0
 24 26  1  0  0  0  0
 26 27  1  0  0  0  0
 26 28  1  0  0  0  0
 26 29  1  0  0  0  0
M  END
$$$$

  -OEChem-04042215593D

 29 29  0     1  0  0  0  0  0999 V2000
   -2.7157   -4.4389    1.2189 H   0  0  0  0  0  0  0  0  0  0  0  0
   -2.8675   -3.4554    0.7657 C   0  0  0  0  0  0  0  0  0  0  0  0
   -3.6128   -2.9094    1.3488 H   0  0  0  0  0  0  0  0  0  0  0  0
   -3.2386   -3.5912   -0.2530 H   0  0  0  0  0  0  0  0  0  0  0  0
   -1.5619   -2.6834    0.7423 C   0  0  0  0  0  0  0  0  0  0  0  0
   -0.5550   -3.1711    1.2319 O   0  0  0  0  0  0  0  0  0  0  0  0
   -1.5225   -1.4220    0.1867 N   0  0  0  0  0  0  0  0  0  0  0  0
   -2.4015   -1.0155   -0.1287 H   0  0  0  0  0  0  0  0  0  0  0  0
   -0.3298   -0.5649    0.1385 C   0  0  1  0  0  0  0  0  0  0  0  0
    0.3968   -0.9260    0.8683 H   0  0  0  0  0  0  0  0  0  0  0  0
    0.2612   -0.5932   -1.2923 C   0  0  0  0  0  0  0  0  0  0  0  0
   -0.3618   -1.2313   -1.9264 H   0  0  0  0  0  0  0  0  0  0  0  0
    0.2300    0.4083   -1.7319 H   0  0  0  0  0  0  0  0  0  0  0  0
    1.6760   -1.1010   -1.4040 C   0  0  0  0  0  0  0  0  0  0  0  0
    2.1963   -1.4610   -2.6410 N   0  0  0  0  0  0  0  0  0  0  0  0
    3.4140   -1.8977   -2.4319 C   0  0  0  0  0  0  0  0  0  0  0  0
    4.0847   -2.2610   -3.2052 H   0  0  0  0  0  0  0  0  0  0  0  0
    3.7124   -1.8284   -1.0857 N   0  0  0  0  0  0  0  0  0  0  0  0
    4.5855   -2.1357   -0.6614 H   0  0  0  0  0  0  0  0  0  0  0  0
    2.6099   -1.3295   -0.4252 C   0  0  0  0  0  0  0  0  0  0  0  0
    2.5000   -1.1776    0.6431 H   0  0  0  0  0  0  0  0  0  0  0  0
   -0.6880    0.8787    0.5463 C   0  0  0  0  0  0  0  0  0  0  0  0
   -1.7271    1.3861    0.1392 O   0  0  0  0  0  0  0  0  0  0  0  0
    0.1162    1.5845    1.4230 N   0  0  0  0  0  0  0  0  0  0  0  0
    0.9418    1.1183    1.7871 H   0  0  0  0  0  0  0  0  0  0  0  0
   -0.2003    2.9273    1.8941 C   0  0  0  0  0  0  0  0  0  0  0  0
   -1.1549    2.9299    2.4309 H   0  0  0  0  0  0  0  0  0  0  0  0
    0.5795    3.2834    2.5742 H   0  0  0  0  0  0  0  0  0  0  0  0
   -0.2673    3.6234    1.0514 H   0  0  0  0  0  0  0  0  0  0  0  0
  1  2  1  0  0  0  0
  2  3  1  0  0  0  0
  2  4  1  0  0  0  0
  2  5  1  0  0  0  0
  5  6  2  0  0  0  0
  5  7  1  0  0  0  0
  7  8  1  0  0  0  0
  7  9  1  0  0  0  0
  9 10  1  0  0  0  0
  9 11  1  0  0  0  0
  9 22  1  0  0  0  0
 11 12  1  0  0  0  0
 11 13  1  0  0  0  0
 11 14  1  0  0  0  0
 14 15  1  0  0  0  0
 14 20  2  0  0  0  0
 15 16  2  0  0  0  0
 16 17  1  0  0  0  0
 16 18  1  0  0  0  0
 18 19  1  0  0  0  0
 18 20  1  0  0  0  0
 20 21  1  0  0  0  0
 22 23  2  0  0  0  0
 22 24  1  0  0  0  0
 24 25  1  0  0  0  0
 24 26  1  0  0  0  0
 26 27  1  0  0  0  0
 26 28  1  0  0  0  0
 26 29  1  0  0  0  0
M  END
$$$$

  -OEChem-04042215593D

 29 29  0     1  0  0  0  0  0999 V2000
   -2.7449   -4.4072    1.2723 H   0  0  0  0  0  0  0  0  0  0  0  0
   -2.8793   -3.4270    0.8064 C   0  0  0  0  0  0  0  0  0  0  0  0
   -3.6137   -2.8598    1.3836 H   0  0  0  0  0  0  0  0  0  0  0  0
   -3.2553   -3.5693   -0.2097 H   0  0  0  0  0  0  0  0  0  0  0  0
   -1.5596   -2.6800    0.7693 C   0  0  0  0  0  0  0  0  0  0  0  0
   -0.5587   -3.1796    1.2607 O   0  0  0  0  0  0  0  0  0  0  0  0
   -1.4987   -1.4277    0.1965 N   0  0  0  0  0  0  0  0  0  0  0  0
   -2.3729   -1.0037   -0.1098 H   0  0  0  0  0  0  0  0  0  0  0  0
   -0.2952   -0.5869    0.1549 C   0  0  1  0  0  0  0  0  0  0  0  0
    0.4369   -0.9196    0.8944 H   0  0  0  0  0  0  0  0  0  0  0  0
    0.3010   -0.6115   -1.2719 C   0  0  0  0  0  0  0  0  0  0  0  0
   -0.4512   -0.9620   -1.9849 H   0  0  0  0  0  0  0  0  0  0  0  0
    0.5692    0.4067   -1.5712 H   0  0  0  0  0  0  0  0  0  0  0  0
    1.5421   -1.4504   -1.4341 C   0  0  0  0  0  0  0  0  0  0  0  0
    2.1731   -1.5504   -2.6682 N   0  0  0  0  0  0  0  0  0  0  0  0
    3.1695   -2.3895   -2.5199 C   0  0  0  0  0  0  0  0  0  0  0  0
    3.8566   -2.6833   -3.3081 H   0  0  0  0  0  0  0  0  0  0  0  0
    3.2081   -2.8481   -1.2184 N   0  0  0  0  0  0  0  0  0  0  0  0
    3.8592   -3.5429   -0.8579 H   0  0  0  0  0  0  0  0  0  0  0  0
    2.1660   -2.2683   -0.5278 C   0  0  0  0  0  0  0  0  0  0  0  0
    1.8700   -2.4583    0.5006 H   0  0  0  0  0  0  0  0  0  0  0  0
   -0.6708    0.8588    0.5412 C   0  0  0  0  0  0  0  0  0  0  0  0
   -1.7085    1.3541    0.1147 O   0  0  0  0  0  0  0  0  0  0  0  0
    0.1125    1.5771    1.4261 N   0  0  0  0  0  0  0  0  0  0  0  0
    0.9521    1.1305    1.7840 H   0  0  0  0  0  0  0  0  0  0  0  0
   -0.2085    2.9299    1.8641 C   0  0  0  0  0  0  0  0  0  0  0  0
   -1.1841    2.9507    2.3612 H   0  0  0  0  0  0  0  0  0  0  0  0
    0.5466    3.2875    2.5707 H   0  0  0  0  0  0  0  0  0  0  0  0
   -0.2333    3.6135    1.0089 H   0  0  0  0  0  0  0  0  0  0  0  0
  1  2  1  0  0  0  0
  2  3  1  0  0  0  0
  2  4  1  0  0  0  0
  2  5  1  0  0  0  0
  5  6  2  0  0  0  0
  5  7  1  0  0  0  0
  7  8  1  0  0  0  0
  7  9  1  0  0  0  0
  9 10  1  0  0  0  0
  9 11  1  0  0  0  0
  9 22  1  0  0  0  0
 11 12  1  0  0  0  0
 11 13  1  0  0  0  0
 11 14  1  0  0  0  0
 14 15  1  0  0  0  0
 14 20  2  0  0  0  0
 15 16  2  0  0  0  0
 16 17  1  0  0  0  0
 16 18  1  0  0  0  0
 18 19  1  0  0  0  0
 18 20  1  0  0  0  0
 20 21  1  0  0  0  0
 22 23  2  0  0  0  0
 22 24  1  0  0  0  0
 24 25  1  0  0  0  0
 24 26  1  0  0  0  0
 26 27  1  0  0  0  0
 26 28  1  0  0  0  0
 26 29  1  0  0  0  0
M  END
$$$$

  -OEChem-04042215593D

 29 29  0     1  0  0  0  0  0999 V2000
   -2.8176   -4.4063    1.2652 H   0  0  0  0  0  0  0  0  0  0  0  0
   -2.9332   -3.4205    0.8061 C   0  0  0  0  0  0  0  0  0  0  0  0
   -3.6622   -2.8463    1.3830 H   0  0  0  0  0  0  0  0  0  0  0  0
   -3.3052   -3.5490   -0.2133 H   0  0  0  0  0  0  0  0  0  0  0  0
   -1.6013   -2.6944    0.7835 C   0  0  0  0  0  0  0  0  0  0  0  0
   -0.6165   -3.2102    1.2881 O   0  0  0  0  0  0  0  0  0  0  0  0
   -1.5155   -1.4431    0.2120 N   0  0  0  0  0  0  0  0  0  0  0  0
   -2.3835   -1.0092   -0.0987 H   0  0  0  0  0  0  0  0  0  0  0  0
   -0.3041   -0.6119    0.1594 C   0  0  1  0  0  0  0  0  0  0  0  0
    0.4357   -0.9564    0.8876 H   0  0  0  0  0  0  0  0  0  0  0  0
    0.2796   -0.6415   -1.2725 C   0  0  0  0  0  0  0  0  0  0  0  0
   -0.4790   -0.9801   -1.9841 H   0  0  0  0  0  0  0  0  0  0  0  0
    0.5566    0.3755   -1.5678 H   0  0  0  0  0  0  0  0  0  0  0  0
    1.5126   -1.4892   -1.4413 C   0  0  0  0  0  0  0  0  0  0  0  0
    2.3137   -1.3685   -2.5702 N   0  0  0  0  0  0  0  0  0  0  0  0
    3.2870   -2.2374   -2.4400 C   0  0  0  0  0  0  0  0  0  0  0  0
    4.0822   -2.3925   -3.1633 H   0  0  0  0  0  0  0  0  0  0  0  0
    3.1485   -2.9238   -1.2501 N   0  0  0  0  0  0  0  0  0  0  0  0
    3.7622   -3.6678   -0.9233 H   0  0  0  0  0  0  0  0  0  0  0  0
    2.0202   -2.4547   -0.6129 C   0  0  0  0  0  0  0  0  0  0  0  0
    1.6040   -2.7934    0.3319 H   0  0  0  0  0  0  0  0  0  0  0  0
   -0.6633    0.8380    0.5457 C   0  0  0  0  0  0  0  0  0  0  0  0
   -1.6999    1.3407    0.1252 O   0  0  0  0  0  0  0  0  0  0  0  0
    0.1332    1.5512    1.4229 N   0  0  0  0  0  0  0  0  0  0  0  0
    0.9775    1.1016    1.7656 H   0  0  0  0  0  0  0  0  0  0  0  0
   -0.1685    2.9099    1.8566 C   0  0  0  0  0  0  0  0  0  0  0  0
   -1.1493    2.9490    2.3423 H   0  0  0  0  0  0  0  0  0  0  0  0
    0.5842    3.2539    2.5724 H   0  0  0  0  0  0  0  0  0  0  0  0
   -0.1707    3.5931    1.0010 H   0  0  0  0  0  0  0  0  0  0  0  0
  1  2  1  0  0  0  0
  2  3  1  0  0  0  0
  2  4  1  0  0  0  0
  2  5  1  0  0  0  0
  5  6  2  0  0  0  0
  5  7  1  0  0  0  0
  7  8  1  0  0  0  0
  7  9  1  0  0  0  0
  9 10  1  0  0  0  0
  9 11  1  0  0  0  0
  9 22  1  0  0  0  0
 11 12  1  0  0  0  0
 11 13  1  0  0  0  0
 11 14  1  0  0  0  0
 14 15  1  0  0  0  0
 14 20  2  0  0  0  0
 15 16  2  0  0  0  0
 16 17  1  0  0  0  0
 16 18  1  0  0  0  0
 18 19  1  0  0  0  0
 18 20  1  0  0  0  0
 20 21  1  0  0  0  0
 22 23  2  0  0  0  0
 22 24  1  0  0  0  0
 24 25  1  0  0  0  0
 24 26  1  0  0  0  0
 26 27  1  0  0  0  0
 26 28  1  0  0  0  0
 26 29  1  0  0  0  0
M  END
$$$$

  -OEChem-04042215593D

 29 29  0     1  0  0  0  0  0999 V2000
   -2.8757   -4.3990    1.2749 H   0  0  0  0  0  0  0  0  0  0  0  0
   -2.9731   -3.4161    0.8054 C   0  0  0  0  0  0  0  0  0  0  0  0
   -3.7030   -2.8281    1.3672 H   0  0  0  0  0  0  0  0  0  0  0  0
   -3.3323   -3.5493   -0.2180 H   0  0  0  0  0  0  0  0  0  0  0  0
   -1.6323   -2.7063    0.7948 C   0  0  0  0  0  0  0  0  0  0  0  0
   -0.6626   -3.2322    1.3160 O   0  0  0  0  0  0  0  0  0  0  0  0
   -1.5275   -1.4561    0.2244 N   0  0  0  0  0  0  0  0  0  0  0  0
   -2.3908   -1.0158   -0.0899 H   0  0  0  0  0  0  0  0  0  0  0  0
   -0.3097   -0.6333    0.1574 C   0  0  1  0  0  0  0  0  0  0  0  0
    0.4390   -0.9906    0.8717 H   0  0  0  0  0  0  0  0  0  0  0  0
    0.2616   -0.6566   -1.2799 C   0  0  0  0  0  0  0  0  0  0  0  0
   -0.5039   -0.9833   -1.9893 H   0  0  0  0  0  0  0  0  0  0  0  0
    0.5431    0.3615   -1.5679 H   0  0  0  0  0  0  0  0  0  0  0  0
    1.4887   -1.5091   -1.4601 C   0  0  0  0  0  0  0  0  0  0  0  0
    2.4488   -1.1961   -2.4149 N   0  0  0  0  0  0  0  0  0  0  0  0
    3.3902   -2.1039   -2.3186 C   0  0  0  0  0  0  0  0  0  0  0  0
    4.2834   -2.1408   -2.9357 H   0  0  0  0  0  0  0  0  0  0  0  0
    3.0774   -3.0005   -1.3165 N   0  0  0  0  0  0  0  0  0  0  0  0
    3.6429   -3.8023   -1.0437 H   0  0  0  0  0  0  0  0  0  0  0  0
    1.8724   -2.6236   -0.7646 C   0  0  0  0  0  0  0  0  0  0  0  0
    1.3358   -3.1078    0.0448 H   0  0  0  0  0  0  0  0  0  0  0  0
   -0.6554    0.8191    0.5464 C   0  0  0  0  0  0  0  0  0  0  0  0
   -1.6955    1.3267    0.1401 O   0  0  0  0  0  0  0  0  0  0  0  0
    0.1555    1.5274    1.4141 N   0  0  0  0  0  0  0  0  0  0  0  0
    1.0033    1.0740    1.7436 H   0  0  0  0  0  0  0  0  0  0  0  0
   -0.1333    2.8880    1.8507 C   0  0  0  0  0  0  0  0  0  0  0  0
   -1.0917    2.9256    2.3792 H   0  0  0  0  0  0  0  0  0  0  0  0
    0.6493    3.2413    2.5290 H   0  0  0  0  0  0  0  0  0  0  0  0
   -0.1772    3.5651    0.9912 H   0  0  0  0  0  0  0  0  0  0  0  0
  1  2  1  0  0  0  0
  2  3  1  0  0  0  0
  2  4  1  0  0  0  0
  2  5  1  0  0  0  0
  5  6  2  0  0  0  0
  5  7  1  0  0  0  0
  7  8  1  0  0  0  0
  7  9  1  0  0  0  0
  9 10  1  0  0  0  0
  9 11  1  0  0  0  0
  9 22  1  0  0  0  0
 11 12  1  0  0  0  0
 11 13  1  0  0  0  0
 11 14  1  0  0  0  0
 14 15  1  0  0  0  0
 14 20  2  0  0  0  0
 15 16  2  0  0  0  0
 16 17  1  0  0  0  0
 16 18  1  0  0  0  0
 18 19  1  0  0  0  0
 18 20  1  0  0  0  0
 20 21  1  0  0  0  0
 22 23  2  0  0  0  0
 22 24  1  0  0  0  0
 24 25  1  0  0  0  0
 24 26  1  0  0  0  0
 26 27  1  0  0  0  0
 26 28  1  0  0  0  0
 26 29  1  0  0  0  0
M  END
$$$$

  -OEChem-04042215593D

 29 29  0     1  0  0  0  0  0999 V2000
   -2.8808   -4.4027    1.2898 H   0  0  0  0  0  0  0  0  0  0  0  0
   -2.9785   -3.4175    0.8254 C   0  0  0  0  0  0  0  0  0  0  0  0
   -3.6860   -2.8220    1.4078 H   0  0  0  0  0  0  0  0  0  0  0  0
   -3.3666   -3.5432   -0.1883 H   0  0  0  0  0  0  0  0  0  0  0  0
   -1.6304   -2.7232    0.7815 C   0  0  0  0  0  0  0  0  0  0  0  0
   -0.6522   -3.2637    1.2708 O   0  0  0  0  0  0  0  0  0  0  0  0
   -1.5312   -1.4690    0.2194 N   0  0  0  0  0  0  0  0  0  0  0  0
   -2.4010   -1.0180   -0.0609 H   0  0  0  0  0  0  0  0  0  0  0  0
   -0.3149   -0.6442    0.1438 C   0  0  1  0  0  0  0  0  0  0  0  0
    0.4423   -1.0107    0.8454 H   0  0  0  0  0  0  0  0  0  0  0  0
    0.2503   -0.6487   -1.2950 C   0  0  0  0  0  0  0  0  0  0  0  0
   -0.5144   -0.9778   -2.0041 H   0  0  0  0  0  0  0  0  0  0  0  0
    0.5258    0.3722   -1.5793 H   0  0  0  0  0  0  0  0  0  0  0  0
    1.4778   -1.4990   -1.4676 C   0  0  0  0  0  0  0  0  0  0  0  0
    2.5860   -1.0464   -2.1733 N   0  0  0  0  0  0  0  0  0  0  0  0
    3.4761   -2.0088   -2.1359 C   0  0  0  0  0  0  0  0  0  0  0  0
    4.4569   -1.9659   -2.6008 H   0  0  0  0  0  0  0  0  0  0  0  0
    2.9811   -3.0796   -1.4182 N   0  0  0  0  0  0  0  0  0  0  0  0
    3.4771   -3.9507   -1.2393 H   0  0  0  0  0  0  0  0  0  0  0  0
    1.7106   -2.7593   -0.9911 C   0  0  0  0  0  0  0  0  0  0  0  0
    1.0337   -3.3716   -0.4043 H   0  0  0  0  0  0  0  0  0  0  0  0
   -0.6573    0.8049    0.5473 C   0  0  0  0  0  0  0  0  0  0  0  0
   -1.7057    1.3117    0.1612 O   0  0  0  0  0  0  0  0  0  0  0  0
    0.1636    1.5072    1.4101 N   0  0  0  0  0  0  0  0  0  0  0  0
    1.0281    1.0608    1.7045 H   0  0  0  0  0  0  0  0  0  0  0  0
   -0.1087    2.8722    1.8421 C   0  0  0  0  0  0  0  0  0  0  0  0
   -1.0729    2.9263    2.3584 H   0  0  0  0  0  0  0  0  0  0  0  0
    0.6706    3.2130    2.5306 H   0  0  0  0  0  0  0  0  0  0  0  0
   -0.1305    3.5489    0.9814 H   0  0  0  0  0  0  0  0  0  0  0  0
  1  2  1  0  0  0  0
  2  3  1  0  0  0  0
  2  4  1  0  0  0  0
  2  5  1  0  0  0  0
  5  6  2  0  0  0  0
  5  7  1  0  0  0  0
  7  8  1  0  0  0  0
  7  9  1  0  0  0  0
  9 10  1  0  0  0  0
  9 11  1  0  0  0  0
  9 22  1  0  0  0  0
 11 12  1  0  0  0  0
 11 13  1  0  0  0  0
 11 14  1  0  0  0  0
 14 15  1  0  0  0  0
 14 20  2  0  0  0  0
 15 16  2  0  0  0  0
 16 17  1  0  0  0  0
 16 18  1  0  0  0  0
 18 19  1  0  0  0  0
 18 20  1  0  0  0  0
 20 21  1  0  0  0  0
 22 23  2  0  0  0  0
 22 24  1  0  0  0  0
 24 25  1  0  0  0  0
 24 26  1  0  0  0  0
 26 27  1  0  0  0  0
 26 28  1  0  0  0  0
 26 29  1  0  0  0  0
M  END
$$$$

  -OEChem-04042215593D

 29 29  0     1  0  0  0  0  0999 V2000
   -2.8339   -4.4129    1.3012 H   0  0  0  0  0  0  0  0  0  0  0  0
   -2.9554   -3.4228    0.8528 C   0  0  0  0  0  0  0  0  0  0  0  0
   -3.6203   -2.8292    1.4852 H   0  0  0  0  0  0  0  0  0  0  0  0
   -3.4084   -3.5366   -0.1351 H   0  0  0  0  0  0  0  0  0  0  0  0
   -1.6086   -2.7357    0.7283 C   0  0  0  0  0  0  0  0  0  0  0  0
   -0.6008   -3.3000    1.1212 O   0  0  0  0  0  0  0  0  0  0  0  0
   -1.5371   -1.4721    0.1826 N   0  0  0  0  0  0  0  0  0  0  0  0
   -2.4204   -1.0054   -0.0186 H   0  0  0  0  0  0  0  0  0  0  0  0
   -0.3275   -0.6382    0.0991 C   0  0  1  0  0  0  0  0  0  0  0  0
    0.4359   -1.0118    0.7908 H   0  0  0  0  0  0  0  0  0  0  0  0
    0.2324   -0.6330   -1.3388 C   0  0  0  0  0  0  0  0  0  0  0  0
   -0.5274   -0.9842   -2.0427 H   0  0  0  0  0  0  0  0  0  0  0  0
    0.4967    0.3870   -1.6365 H   0  0  0  0  0  0  0  0  0  0  0  0
    1.4625   -1.4818   -1.4734 C   0  0  0  0  0  0  0  0  0  0  0  0
    2.6867   -0.9658   -1.8796 N   0  0  0  0  0  0  0  0  0  0  0  0
    3.5276   -1.9727   -1.8956 C   0  0  0  0  0  0  0  0  0  0  0  0
    4.5767   -1.9011   -2.1681 H   0  0  0  0  0  0  0  0  0  0  0  0
    2.8826   -3.1334   -1.5142 N   0  0  0  0  0  0  0  0  0  0  0  0
    3.3161   -4.0510   -1.4330 H   0  0  0  0  0  0  0  0  0  0  0  0
    1.5663   -2.8249   -1.2484 C   0  0  0  0  0  0  0  0  0  0  0  0
    0.7746   -3.4919   -0.9204 H   0  0  0  0  0  0  0  0  0  0  0  0
   -0.6612    0.8042    0.5287 C   0  0  0  0  0  0  0  0  0  0  0  0
   -1.7250    1.3089    0.1843 O   0  0  0  0  0  0  0  0  0  0  0  0
    0.1773    1.4929    1.3853 N   0  0  0  0  0  0  0  0  0  0  0  0
    1.0600    1.0528    1.6316 H   0  0  0  0  0  0  0  0  0  0  0  0
   -0.0890    2.8480    1.8505 C   0  0  0  0  0  0  0  0  0  0  0  0
   -1.0365    2.8860    2.3982 H   0  0  0  0  0  0  0  0  0  0  0  0
    0.7098    3.1809    2.5202 H   0  0  0  0  0  0  0  0  0  0  0  0
   -0.1423    3.5400    1.0036 H   0  0  0  0  0  0  0  0  0  0  0  0
  1  2  1  0  0  0  0
  2  3  1  0  0  0  0
  2  4  1  0  0  0  0
  2  5  1  0  0  0  0
  5  6  2  0  0  0  0
  5  7  1  0  0  0  0
  7  8  1  0  0  0  0
  7  9  1  0  0  0  0
  9 10  1  0  0  0  0
  9 11  1  0  0  0  0
  9 22  1  0  0  0  0
 11 12  1  0  0  0  0
 11 13  1  0  0  0  0
 11 14  1  0  0  0  0
 14 15  1  0  0  0  0
 14 20  2  0  0  0  0
 15 16  2  0  0  0  0
 16 17  1  0  0  0  0
 16 18  1  0  0  0  0
 18 19  1  0  0  0  0
 18 20  1  0  0  0  0
 20 21  1  0  0  0  0
 22 23  2  0  0  0  0
 22 24  1  0  0  0  0
 24 25  1  0  0  0  0
 24 26  1  0  0  0  0
 26 27  1  0  0  0  0
 26 28  1  0  0  0  0
 26 29  1  0  0  0  0
M  END
$$$$

  -OEChem-04042215593D

 29 29  0     1  0  0  0  0  0999 V2000
   -2.7906   -4.4276    1.2884 H   0  0  0  0  0  0  0  0  0  0  0  0
   -2.9323   -3.4299    0.8632 C   0  0  0  0  0  0  0  0  0  0  0  0
   -3.5539   -2.8427    1.5436 H   0  0  0  0  0  0  0  0  0  0  0  0
   -3.4450   -3.5255   -0.0970 H   0  0  0  0  0  0  0  0  0  0  0  0
   -1.5912   -2.7478    0.6688 C   0  0  0  0  0  0  0  0  0  0  0  0
   -0.5629   -3.3317    0.9694 O   0  0  0  0  0  0  0  0  0  0  0  0
   -1.5470   -1.4739    0.1448 N   0  0  0  0  0  0  0  0  0  0  0  0
   -2.4389   -0.9999    0.0096 H   0  0  0  0  0  0  0  0  0  0  0  0
   -0.3446   -0.6310    0.0573 C   0  0  1  0  0  0  0  0  0  0  0  0
    0.4249   -1.0122    0.7384 H   0  0  0  0  0  0  0  0  0  0  0  0
    0.2033   -0.6244   -1.3824 C   0  0  0  0  0  0  0  0  0  0  0  0
   -0.5561   -0.9924   -2.0784 H   0  0  0  0  0  0  0  0  0  0  0  0
    0.4612    0.3930   -1.6935 H   0  0  0  0  0  0  0  0  0  0  0  0
    1.4343   -1.4727   -1.4880 C   0  0  0  0  0  0  0  0  0  0  0  0
    2.7135   -0.9402   -1.5873 N   0  0  0  0  0  0  0  0  0  0  0  0
    3.5321   -1.9633   -1.6603 C   0  0  0  0  0  0  0  0  0  0  0  0
    4.6126   -1.8879   -1.7421 H   0  0  0  0  0  0  0  0  0  0  0  0
    2.8193   -3.1464   -1.6147 N   0  0  0  0  0  0  0  0  0  0  0  0
    3.2245   -4.0803   -1.6256 H   0  0  0  0  0  0  0  0  0  0  0  0
    1.4809   -2.8370   -1.5058 C   0  0  0  0  0  0  0  0  0  0  0  0
    0.6358   -3.5143   -1.4193 H   0  0  0  0  0  0  0  0  0  0  0  0
   -0.6653    0.8042    0.5163 C   0  0  0  0  0  0  0  0  0  0  0  0
   -1.7391    1.3125    0.2103 O   0  0  0  0  0  0  0  0  0  0  0  0
    0.1921    1.4754    1.3679 N   0  0  0  0  0  0  0  0  0  0  0  0
    1.0880    1.0377    1.5683 H   0  0  0  0  0  0  0  0  0  0  0  0
   -0.0588    2.8248    1.8577 C   0  0  0  0  0  0  0  0  0  0  0  0
   -0.9977    2.8600    2.4200 H   0  0  0  0  0  0  0  0  0  0  0  0
    0.7520    3.1427    2.5201 H   0  0  0  0  0  0  0  0  0  0  0  0
   -0.1209    3.5305    1.0227 H   0  0  0  0  0  0  0  0  0  0  0  0
  1  2  1  0  0  0  0
  2  3  1  0  0  0  0
  2  4  1  0  0  0  0
  2  5  1  0  0  0  0
  5  6  2  0  0  0  0
  5  7  1  0  0  0  0
  7  8  1  0  0  0  0
  7  9  1  0  0  0  0
  9 10  1  0  0  0  0
  9 11  1  0  0  0  0
  9 22  1  0  0  0  0
 11 12  1  0  0  0  0
 11 13  1  0  0  0  0
 11 14  1  0  0  0  0
 14 15  1  0  0  0  0
 14 20  2  0  0  0  0
 15 16  2  0  0  0  0
 16 17  1  0  0  0  0
 16 18  1  0  0  0  0
 18 19  1  0  0  0  0
 18 20  1  0  0  0  0
 20 21  1  0  0  0  0
 22 23  2  0  0  0  0
 22 24  1  0  0  0  0
 24 25  1  0  0  0  0
 24 26  1  0  0  0  0
 26 27  1  0  0  0  0
 26 28  1  0  0  0  0
 26 29  1  0  0  0  0
M  END
$$$$

  -OEChem-04042215593D

 29 29  0     1  0  0  0  0  0999 V2000
   -2.7567   -4.4430    1.2784 H   0  0  0  0  0  0  0  0  0  0  0  0
   -2.9151   -3.4425    0.8659 C   0  0  0  0  0  0  0  0  0  0  0  0
   -3.5202   -2.8643    1.5684 H   0  0  0  0  0  0  0  0  0  0  0  0
   -3.4536   -3.5327   -0.0804 H   0  0  0  0  0  0  0  0  0  0  0  0
   -1.5832   -2.7523    0.6398 C   0  0  0  0  0  0  0  0  0  0  0  0
   -0.5445   -3.3373    0.8997 O   0  0  0  0  0  0  0  0  0  0  0  0
   -1.5577   -1.4732    0.1262 N   0  0  0  0  0  0  0  0  0  0  0  0
   -2.4534   -0.9986    0.0221 H   0  0  0  0  0  0  0  0  0  0  0  0
   -0.3587   -0.6266    0.0349 C   0  0  1  0  0  0  0  0  0  0  0  0
    0.4142   -1.0120    0.7103 H   0  0  0  0  0  0  0  0  0  0  0  0
    0.1798   -0.6185   -1.4064 C   0  0  0  0  0  0  0  0  0  0  0  0
   -0.5814   -0.9907   -2.0981 H   0  0  0  0  0  0  0  0  0  0  0  0
    0.4389    0.3971   -1.7216 H   0  0  0  0  0  0  0  0  0  0  0  0
    1.4087   -1.4686   -1.4940 C   0  0  0  0  0  0  0  0  0  0  0  0
    2.6884   -0.9705   -1.2859 N   0  0  0  0  0  0  0  0  0  0  0  0
    3.5031   -1.9882   -1.4368 C   0  0  0  0  0  0  0  0  0  0  0  0
    4.5829   -1.9383   -1.3300 H   0  0  0  0  0  0  0  0  0  0  0  0
    2.7881   -3.1294   -1.7492 N   0  0  0  0  0  0  0  0  0  0  0  0
    3.1866   -4.0568   -1.8822 H   0  0  0  0  0  0  0  0  0  0  0  0
    1.4504   -2.8004   -1.7896 C   0  0  0  0  0  0  0  0  0  0  0  0
    0.5996   -3.4485   -1.9778 H   0  0  0  0  0  0  0  0  0  0  0  0
   -0.6681    0.8054    0.5089 C   0  0  0  0  0  0  0  0  0  0  0  0
   -1.7435    1.3210    0.2211 O   0  0  0  0  0  0  0  0  0  0  0  0
    0.2038    1.4635    1.3555 N   0  0  0  0  0  0  0  0  0  0  0  0
    1.1033    1.0217    1.5305 H   0  0  0  0  0  0  0  0  0  0  0  0
   -0.0294    2.8117    1.8565 C   0  0  0  0  0  0  0  0  0  0  0  0
   -0.9641    2.8528    2.4254 H   0  0  0  0  0  0  0  0  0  0  0  0
    0.7890    3.1160    2.5161 H   0  0  0  0  0  0  0  0  0  0  0  0
   -0.0892    3.5234    1.0264 H   0  0  0  0  0  0  0  0  0  0  0  0
  1  2  1  0  0  0  0
  2  3  1  0  0  0  0
  2  4  1  0  0  0  0
  2  5  1  0  0  0  0
  5  6  2  0  0  0  0
  5  7  1  0  0  0  0
  7  8  1  0  0  0  0
  7  9  1  0  0  0  0
  9 10  1  0  0  0  0
  9 11  1  0  0  0  0
  9 22  1  0  0  0  0
 11 12  1  0  0  0  0
 11 13  1  0  0  0  0
 11 14  1  0  0  0  0
 14 15  1  0  0  0  0
 14 20  2  0  0  0  0
 15 16  2  0  0  0  0
 16 17  1  0  0  0  0
 16 18  1  0  0  0  0
 18 19  1  0  0  0  0
 18 20  1  0  0  0  0
 20 21  1  0  0  0  0
 22 23  2  0  0  0  0
 22 24  1  0  0  0  0
 24 25  1  0  0  0  0
 24 26  1  0  0  0  0
 26 27  1  0  0  0  0
 26 28  1  0  0  0  0
 26 29  1  0  0  0  0
M  END
$$$$

  -OEChem-04042215593D

 29 29  0     1  0  0  0  0  0999 V2000
   -2.7521   -4.4510    1.2732 H   0  0  0  0  0  0  0  0  0  0  0  0
   -2.9156   -3.4503    0.8637 C   0  0  0  0  0  0  0  0  0  0  0  0
   -3.5194   -2.8756    1.5703 H   0  0  0  0  0  0  0  0  0  0  0  0
   -3.4582   -3.5402   -0.0804 H   0  0  0  0  0  0  0  0  0  0  0  0
   -1.5863   -2.7562    0.6334 C   0  0  0  0  0  0  0  0  0  0  0  0
   -0.5455   -3.3390    0.8894 O   0  0  0  0  0  0  0  0  0  0  0  0
   -1.5670   -1.4752    0.1242 N   0  0  0  0  0  0  0  0  0  0  0  0
   -2.4641   -1.0018    0.0297 H   0  0  0  0  0  0  0  0  0  0  0  0
   -0.3695   -0.6271    0.0280 C   0  0  1  0  0  0  0  0  0  0  0  0
    0.4053   -1.0147    0.6998 H   0  0  0  0  0  0  0  0  0  0  0  0
    0.1618   -0.6199   -1.4163 C   0  0  0  0  0  0  0  0  0  0  0  0
   -0.6035   -0.9878   -2.1058 H   0  0  0  0  0  0  0  0  0  0  0  0
    0.4233    0.3960   -1.7280 H   0  0  0  0  0  0  0  0  0  0  0  0
    1.3911   -1.4688   -1.5081 C   0  0  0  0  0  0  0  0  0  0  0  0
    2.6250   -1.0576   -1.0189 N   0  0  0  0  0  0  0  0  0  0  0  0
    3.4558   -2.0451   -1.2566 C   0  0  0  0  0  0  0  0  0  0  0  0
    4.5080   -2.0472   -0.9867 H   0  0  0  0  0  0  0  0  0  0  0  0
    2.7989   -3.0776   -1.9002 N   0  0  0  0  0  0  0  0  0  0  0  0
    3.2180   -3.9668   -2.1652 H   0  0  0  0  0  0  0  0  0  0  0  0
    1.4800   -2.7119   -2.0654 C   0  0  0  0  0  0  0  0  0  0  0  0
    0.6708   -3.2830   -2.5099 H   0  0  0  0  0  0  0  0  0  0  0  0
   -0.6696    0.8043    0.5077 C   0  0  0  0  0  0  0  0  0  0  0  0
   -1.7432    1.3270    0.2259 O   0  0  0  0  0  0  0  0  0  0  0  0
    0.2131    1.4548    1.3487 N   0  0  0  0  0  0  0  0  0  0  0  0
    1.1104    1.0044    1.5152 H   0  0  0  0  0  0  0  0  0  0  0  0
   -0.0052    2.8039    1.8533 C   0  0  0  0  0  0  0  0  0  0  0  0
   -0.9340    2.8512    2.4311 H   0  0  0  0  0  0  0  0  0  0  0  0
    0.8219    3.1009    2.5051 H   0  0  0  0  0  0  0  0  0  0  0  0
   -0.0676    3.5172    1.0251 H   0  0  0  0  0  0  0  0  0  0  0  0
  1  2  1  0  0  0  0
  2  3  1  0  0  0  0
  2  4  1  0  0  0  0
  2  5  1  0  0  0  0
  5  6  2  0  0  0  0
  5  7  1  0  0  0  0
  7  8  1  0  0  0  0
  7  9  1  0  0  0  0
  9 10  1  0  0  0  0
  9 11  1  0  0  0  0
  9 22  1  0  0  0  0
 11 12  1  0  0  0  0
 11 13  1  0  0  0  0
 11 14  1  0  0  0  0
 14 15  1  0  0  0  0
 14 20  2  0  0  0  0
 15 16  2  0  0  0  0
 16 17  1  0  0  0  0
 16 18  1  0  0  0  0
 18 19  1  0  0  0  0
 18 20  1  0  0  0  0
 20 21  1  0  0  0  0
 22 23  2  0  0  0  0
 22 24  1  0  0  0  0
 24 25  1  0  0  0  0
 24 26  1  0  0  0  0
 26 27  1  0  0  0  0
 26 28  1  0  0  0  0
 26 29  1  0  0  0  0
M  END
$$$$

  -OEChem-04042215593D

 29 29  0     1  0  0  0  0  0999 V2000
   -2.7425   -4.4585    1.2627 H   0  0  0  0  0  0  0  0  0  0  0  0
   -2.9069   -3.4574    0.8543 C   0  0  0  0  0  0  0  0  0  0  0  0
   -3.5205   -2.8875    1.5562 H   0  0  0  0  0  0  0  0  0  0  0  0
   -3.4394   -3.5474   -0.0953 H   0  0  0  0  0  0  0  0  0  0  0  0
   -1.5789   -2.7559    0.6387 C   0  0  0  0  0  0  0  0  0  0  0  0
   -0.5387   -3.3325    0.9100 O   0  0  0  0  0  0  0  0  0  0  0  0
   -1.5625   -1.4748    0.1292 N   0  0  0  0  0  0  0  0  0  0  0  0
   -2.4612   -1.0077    0.0229 H   0  0  0  0  0  0  0  0  0  0  0  0
   -0.3683   -0.6223    0.0309 C   0  0  1  0  0  0  0  0  0  0  0  0
    0.4068   -1.0082    0.7026 H   0  0  0  0  0  0  0  0  0  0  0  0
    0.1558   -0.6174   -1.4179 C   0  0  0  0  0  0  0  0  0  0  0  0
   -0.6141   -0.9785   -2.1057 H   0  0  0  0  0  0  0  0  0  0  0  0
    0.4166    0.4004   -1.7236 H   0  0  0  0  0  0  0  0  0  0  0  0
    1.3898   -1.4603   -1.5296 C   0  0  0  0  0  0  0  0  0  0  0  0
    2.5515   -1.2034   -0.8096 N   0  0  0  0  0  0  0  0  0  0  0  0
    3.3953   -2.1556   -1.1297 C   0  0  0  0  0  0  0  0  0  0  0  0
    4.4003   -2.2528   -0.7289 H   0  0  0  0  0  0  0  0  0  0  0  0
    2.8213   -3.0117   -2.0512 N   0  0  0  0  0  0  0  0  0  0  0  0
    3.2636   -3.8450   -2.4336 H   0  0  0  0  0  0  0  0  0  0  0  0
    1.5406   -2.5715   -2.3093 C   0  0  0  0  0  0  0  0  0  0  0  0
    0.7939   -3.0125   -2.9623 H   0  0  0  0  0  0  0  0  0  0  0  0
   -0.6705    0.8083    0.5097 C   0  0  0  0  0  0  0  0  0  0  0  0
   -1.7408    1.3340    0.2209 O   0  0  0  0  0  0  0  0  0  0  0  0
    0.2134    1.4594    1.3485 N   0  0  0  0  0  0  0  0  0  0  0  0
    1.1042    1.0006    1.5275 H   0  0  0  0  0  0  0  0  0  0  0  0
   -0.0046    2.8067    1.8577 C   0  0  0  0  0  0  0  0  0  0  0  0
   -0.9356    2.8532    2.4320 H   0  0  0  0  0  0  0  0  0  0  0  0
    0.8204    3.0997    2.5141 H   0  0  0  0  0  0  0  0  0  0  0  0
   -0.0625    3.5233    1.0320 H   0  0  0  0  0  0  0  0  0  0  0  0
  1  2  1  0  0  0  0
  2  3  1  0  0  0  0
  2  4  1  0  0  0  0
  2  5  1  0  0  0  0
  5  6  2  0  0  0  0
  5  7  1  0  0  0  0
  7  8  1  0  0  0  0
  7  9  1  0  0  0  0
  9 10  1  0  0  0  0
  9 11  1  0  0  0  0
  9 22  1  0  0  0  0
 11 12  1  0  0  0  0
 11 13  1  0  0  0  0
 11 14  1  0  0  0  0
 14 15  1  0  0  0  0
 14 20  2  0  0  0  0
 15 16  2  0  0  0  0
 16 17  1  0  0  0  0
 16 18  1  0  0  0  0
 18 19  1  0  0  0  0
 18 20  1  0  0  0  0
 20 21  1  0  0  0  0
 22 23  2  0  0  0  0
 22 24  1  0  0  0  0
 24 25  1  0  0  0  0
 24 26  1  0  0  0  0
 26 27  1  0  0  0  0
 26 28  1  0  0  0  0
 26 29  1  0  0  0  0
M  END
$$$$

  -OEChem-04042215593D

 29 29  0     1  0  0  0  0  0999 V2000
   -2.7406   -4.4568    1.2588 H   0  0  0  0  0  0  0  0  0  0  0  0
   -2.9010   -3.4580    0.8431 C   0  0  0  0  0  0  0  0  0  0  0  0
   -3.5322   -2.8884    1.5295 H   0  0  0  0  0  0  0  0  0  0  0  0
   -3.4121   -3.5540   -0.1178 H   0  0  0  0  0  0  0  0  0  0  0  0
   -1.5715   -2.7517    0.6540 C   0  0  0  0  0  0  0  0  0  0  0  0
   -0.5369   -3.3212    0.9584 O   0  0  0  0  0  0  0  0  0  0  0  0
   -1.5505   -1.4731    0.1380 N   0  0  0  0  0  0  0  0  0  0  0  0
   -2.4492   -1.0126    0.0072 H   0  0  0  0  0  0  0  0  0  0  0  0
   -0.3578   -0.6173    0.0476 C   0  0  1  0  0  0  0  0  0  0  0  0
    0.4096   -0.9978    0.7299 H   0  0  0  0  0  0  0  0  0  0  0  0
    0.1728   -0.6173   -1.4015 C   0  0  0  0  0  0  0  0  0  0  0  0
   -0.5985   -0.9705   -2.0922 H   0  0  0  0  0  0  0  0  0  0  0  0
    0.4330    0.4032   -1.6980 H   0  0  0  0  0  0  0  0  0  0  0  0
    1.4128   -1.4520   -1.5391 C   0  0  0  0  0  0  0  0  0  0  0  0
    2.4829   -1.4118   -0.6511 N   0  0  0  0  0  0  0  0  0  0  0  0
    3.3373   -2.3172   -1.0633 C   0  0  0  0  0  0  0  0  0  0  0  0
    4.2803   -2.5463   -0.5755 H   0  0  0  0  0  0  0  0  0  0  0  0
    2.8639   -2.9310   -2.2078 N   0  0  0  0  0  0  0  0  0  0  0  0
    3.3324   -3.6851   -2.7059 H   0  0  0  0  0  0  0  0  0  0  0  0
    1.6348   -2.3856   -2.5119 C   0  0  0  0  0  0  0  0  0  0  0  0
    0.9646   -2.6469   -3.3249 H   0  0  0  0  0  0  0  0  0  0  0  0
   -0.6714    0.8145    0.5157 C   0  0  0  0  0  0  0  0  0  0  0  0
   -1.7342    1.3399    0.2000 O   0  0  0  0  0  0  0  0  0  0  0  0
    0.1997    1.4748    1.3610 N   0  0  0  0  0  0  0  0  0  0  0  0
    1.0780    1.0084    1.5785 H   0  0  0  0  0  0  0  0  0  0  0  0
   -0.0315    2.8228    1.8629 C   0  0  0  0  0  0  0  0  0  0  0  0
   -0.9619    2.8634    2.4389 H   0  0  0  0  0  0  0  0  0  0  0  0
    0.7920    3.1282    2.5154 H   0  0  0  0  0  0  0  0  0  0  0  0
   -0.0987    3.5341    1.0332 H   0  0  0  0  0  0  0  0  0  0  0  0
  1  2  1  0  0  0  0
  2  3  1  0  0  0  0
  2  4  1  0  0  0  0
  2  5  1  0  0  0  0
  5  6  2  0  0  0  0
  5  7  1  0  0  0  0
  7  8  1  0  0  0  0
  7  9  1  0  0  0  0
  9 10  1  0  0  0  0
  9 11  1  0  0  0  0
  9 22  1  0  0  0  0
 11 12  1  0  0  0  0
 11 13  1  0  0  0  0
 11 14  1  0  0  0  0
 14 15  1  0  0  0  0
 14 20  2  0  0  0  0
 15 16  2  0  0  0  0
 16 17  1  0  0  0  0
 16 18  1  0  0  0  0
 18 19  1  0  0  0  0
 18 20  1  0  0  0  0
 20 21  1  0  0  0  0
 22 23  2  0  0  0  0
 22 24  1  0  0  0  0
 24 25  1  0  0  0  0
 24 26  1  0  0  0  0
 26 27  1  0  0  0  0
 26 28  1  0  0  0  0
 26 29  1  0  0  0  0
M  END
$$$$

  -OEChem-04042215593D

 29 29  0     1  0  0  0  0  0999 V2000
   -2.7525   -4.4505    1.2536 H   0  0  0  0  0  0  0  0  0  0  0  0
   -2.9011   -3.4549    0.8259 C   0  0  0  0  0  0  0  0  0  0  0  0
   -3.5632   -2.8849    1.4820 H   0  0  0  0  0  0  0  0  0  0  0  0
   -3.3714   -3.5597   -0.1547 H   0  0  0  0  0  0  0  0  0  0  0  0
   -1.5690   -2.7418    0.6876 C   0  0  0  0  0  0  0  0  0  0  0  0
   -0.5482   -3.2987    1.0541 O   0  0  0  0  0  0  0  0  0  0  0  0
   -1.5341   -1.4694    0.1566 N   0  0  0  0  0  0  0  0  0  0  0  0
   -2.4289   -1.0202   -0.0280 H   0  0  0  0  0  0  0  0  0  0  0  0
   -0.3402   -0.6134    0.0764 C   0  0  1  0  0  0  0  0  0  0  0  0
    0.4186   -0.9836    0.7730 H   0  0  0  0  0  0  0  0  0  0  0  0
    0.2007   -0.6242   -1.3713 C   0  0  0  0  0  0  0  0  0  0  0  0
   -0.5713   -0.9692   -2.0650 H   0  0  0  0  0  0  0  0  0  0  0  0
    0.4619    0.3971   -1.6638 H   0  0  0  0  0  0  0  0  0  0  0  0
    1.4444   -1.4538   -1.5331 C   0  0  0  0  0  0  0  0  0  0  0  0
    2.4058   -1.6658   -0.5507 N   0  0  0  0  0  0  0  0  0  0  0  0
    3.2790   -2.5031   -1.0556 C   0  0  0  0  0  0  0  0  0  0  0  0
    4.1529   -2.8792   -0.5313 H   0  0  0  0  0  0  0  0  0  0  0  0
    2.9249   -2.8309   -2.3504 N   0  0  0  0  0  0  0  0  0  0  0  0
    3.4299   -3.4800   -2.9506 H   0  0  0  0  0  0  0  0  0  0  0  0
    1.7530   -2.1714   -2.6552 C   0  0  0  0  0  0  0  0  0  0  0  0
    1.1737   -2.2197   -3.5720 H   0  0  0  0  0  0  0  0  0  0  0  0
   -0.6683    0.8230    0.5216 C   0  0  0  0  0  0  0  0  0  0  0  0
   -1.7188    1.3475    0.1657 O   0  0  0  0  0  0  0  0  0  0  0  0
    0.1834    1.4982    1.3753 N   0  0  0  0  0  0  0  0  0  0  0  0
    1.0408    1.0226    1.6483 H   0  0  0  0  0  0  0  0  0  0  0  0
   -0.0693    2.8457    1.8684 C   0  0  0  0  0  0  0  0  0  0  0  0
   -1.0027    2.8757    2.4403 H   0  0  0  0  0  0  0  0  0  0  0  0
    0.7468    3.1675    2.5224 H   0  0  0  0  0  0  0  0  0  0  0  0
   -0.1429    3.5516    1.0346 H   0  0  0  0  0  0  0  0  0  0  0  0
  1  2  1  0  0  0  0
  2  3  1  0  0  0  0
  2  4  1  0  0  0  0
  2  5  1  0  0  0  0
  5  6  2  0  0  0  0
  5  7  1  0  0  0  0
  7  8  1  0  0  0  0
  7  9  1  0  0  0  0
  9 10  1  0  0  0  0
  9 11  1  0  0  0  0
  9 22  1  0  0  0  0
 11 12  1  0  0  0  0
 11 13  1  0  0  0  0
 11 14  1  0  0  0  0
 14 15  1  0  0  0  0
 14 20  2  0  0  0  0
 15 16  2  0  0  0  0
 16 17  1  0  0  0  0
 16 18  1  0  0  0  0
 18 19  1  0  0  0  0
 18 20  1  0  0  0  0
 20 21  1  0  0  0  0
 22 23  2  0  0  0  0
 22 24  1  0  0  0  0
 24 25  1  0  0  0  0
 24 26  1  0  0  0  0
 26 27  1  0  0  0  0
 26 28  1  0  0  0  0
 26 29  1  0  0  0  0
M  END
$$$$

  -OEChem-04042215593D

 29 29  0     1  0  0  0  0  0999 V2000
   -2.7753   -4.4467    1.2480 H   0  0  0  0  0  0  0  0  0  0  0  0
   -2.9083   -3.4559    0.8045 C   0  0  0  0  0  0  0  0  0  0  0  0
   -3.6101   -2.8863    1.4184 H   0  0  0  0  0  0  0  0  0  0  0  0
   -3.3232   -3.5728   -0.1994 H   0  0  0  0  0  0  0  0  0  0  0  0
   -1.5765   -2.7324    0.7336 C   0  0  0  0  0  0  0  0  0  0  0  0
   -0.5783   -3.2685    1.1828 O   0  0  0  0  0  0  0  0  0  0  0  0
   -1.5235   -1.4677    0.1858 N   0  0  0  0  0  0  0  0  0  0  0  0
   -2.4093   -1.0331   -0.0638 H   0  0  0  0  0  0  0  0  0  0  0  0
   -0.3256   -0.6165    0.1097 C   0  0  1  0  0  0  0  0  0  0  0  0
    0.4303   -0.9785    0.8135 H   0  0  0  0  0  0  0  0  0  0  0  0
    0.2198   -0.6356   -1.3385 C   0  0  0  0  0  0  0  0  0  0  0  0
   -0.5544   -0.9812   -2.0294 H   0  0  0  0  0  0  0  0  0  0  0  0
    0.4794    0.3851   -1.6352 H   0  0  0  0  0  0  0  0  0  0  0  0
    1.4617   -1.4665   -1.5190 C   0  0  0  0  0  0  0  0  0  0  0  0
    2.2912   -1.9408   -0.5097 N   0  0  0  0  0  0  0  0  0  0  0  0
    3.2046   -2.6829   -1.0857 C   0  0  0  0  0  0  0  0  0  0  0  0
    3.9995   -3.2068   -0.5626 H   0  0  0  0  0  0  0  0  0  0  0  0
    3.0060   -2.6946   -2.4529 N   0  0  0  0  0  0  0  0  0  0  0  0
    3.5701   -3.2131   -3.1233 H   0  0  0  0  0  0  0  0  0  0  0  0
    1.8941   -1.9280   -2.7316 C   0  0  0  0  0  0  0  0  0  0  0  0
    1.4333   -1.7396   -3.6965 H   0  0  0  0  0  0  0  0  0  0  0  0
   -0.6623    0.8254    0.5310 C   0  0  0  0  0  0  0  0  0  0  0  0
   -1.6966    1.3528    0.1341 O   0  0  0  0  0  0  0  0  0  0  0  0
    0.1754    1.5131    1.3885 N   0  0  0  0  0  0  0  0  0  0  0  0
    1.0089    1.0282    1.7129 H   0  0  0  0  0  0  0  0  0  0  0  0
   -0.0887    2.8652    1.8627 C   0  0  0  0  0  0  0  0  0  0  0  0
   -1.0277    2.8977    2.4252 H   0  0  0  0  0  0  0  0  0  0  0  0
    0.7198    3.1991    2.5201 H   0  0  0  0  0  0  0  0  0  0  0  0
   -0.1577    3.5602    1.0192 H   0  0  0  0  0  0  0  0  0  0  0  0
  1  2  1  0  0  0  0
  2  3  1  0  0  0  0
  2  4  1  0  0  0  0
  2  5  1  0  0  0  0
  5  6  2  0  0  0  0
  5  7  1  0  0  0  0
  7  8  1  0  0  0  0
  7  9  1  0  0  0  0
  9 10  1  0  0  0  0
  9 11  1  0  0  0  0
  9 22  1  0  0  0  0
 11 12  1  0  0  0  0
 11 13  1  0  0  0  0
 11 14  1  0  0  0  0
 14 15  1  0  0  0  0
 14 20  2  0  0  0  0
 15 16  2  0  0  0  0
 16 17  1  0  0  0  0
 16 18  1  0  0  0  0
 18 19  1  0  0  0  0
 18 20  1  0  0  0  0
 20 21  1  0  0  0  0
 22 23  2  0  0  0  0
 22 24  1  0  0  0  0
 24 25  1  0  0  0  0
 24 26  1  0  0  0  0
 26 27  1  0  0  0  0
 26 28  1  0  0  0  0
 26 29  1  0  0  0  0
M  END
$$$$

  -OEChem-04042215593D

 29 29  0     1  0  0  0  0  0999 V2000
   -2.8004   -4.4517    1.2398 H   0  0  0  0  0  0  0  0  0  0  0  0
   -2.9199   -3.4636    0.7870 C   0  0  0  0  0  0  0  0  0  0  0  0
   -3.6588   -2.8993    1.3607 H   0  0  0  0  0  0  0  0  0  0  0  0
   -3.2794   -3.5878   -0.2371 H   0  0  0  0  0  0  0  0  0  0  0  0
   -1.5936   -2.7265    0.7841 C   0  0  0  0  0  0  0  0  0  0  0  0
   -0.6237   -3.2356    1.3181 O   0  0  0  0  0  0  0  0  0  0  0  0
   -1.5240   -1.4692    0.2215 N   0  0  0  0  0  0  0  0  0  0  0  0
   -2.3970   -1.0535   -0.0950 H   0  0  0  0  0  0  0  0  0  0  0  0
   -0.3195   -0.6283    0.1373 C   0  0  1  0  0  0  0  0  0  0  0  0
    0.4417   -0.9878    0.8372 H   0  0  0  0  0  0  0  0  0  0  0  0
    0.2162   -0.6513   -1.3159 C   0  0  0  0  0  0  0  0  0  0  0  0
   -0.5659   -1.0042   -1.9942 H   0  0  0  0  0  0  0  0  0  0  0  0
    0.4700    0.3675   -1.6253 H   0  0  0  0  0  0  0  0  0  0  0  0
    1.4493   -1.4904   -1.5146 C   0  0  0  0  0  0  0  0  0  0  0  0
    2.1265   -2.2178   -0.5451 N   0  0  0  0  0  0  0  0  0  0  0  0
    3.1109   -2.8369   -1.1478 C   0  0  0  0  0  0  0  0  0  0  0  0
    3.8230   -3.4950   -0.6580 H   0  0  0  0  0  0  0  0  0  0  0  0
    3.1065   -2.5225   -2.4932 N   0  0  0  0  0  0  0  0  0  0  0  0
    3.7637   -2.8825   -3.1825 H   0  0  0  0  0  0  0  0  0  0  0  0
    2.0491   -1.6692   -2.7308 C   0  0  0  0  0  0  0  0  0  0  0  0
    1.7363   -1.2350   -3.6756 H   0  0  0  0  0  0  0  0  0  0  0  0
   -0.6532    0.8195    0.5416 C   0  0  0  0  0  0  0  0  0  0  0  0
   -1.6714    1.3553    0.1152 O   0  0  0  0  0  0  0  0  0  0  0  0
    0.1832    1.5149    1.3944 N   0  0  0  0  0  0  0  0  0  0  0  0
    0.9963    1.0211    1.7547 H   0  0  0  0  0  0  0  0  0  0  0  0
   -0.0777    2.8758    1.8451 C   0  0  0  0  0  0  0  0  0  0  0  0
   -1.0351    2.9278    2.3740 H   0  0  0  0  0  0  0  0  0  0  0  0
    0.7118    3.2052    2.5274 H   0  0  0  0  0  0  0  0  0  0  0  0
   -0.1064    3.5620    0.9923 H   0  0  0  0  0  0  0  0  0  0  0  0
  1  2  1  0  0  0  0
  2  3  1  0  0  0  0
  2  4  1  0  0  0  0
  2  5  1  0  0  0  0
  5  6  2  0  0  0  0
  5  7  1  0  0  0  0
  7  8  1  0  0  0  0
  7  9  1  0  0  0  0
  9 10  1  0  0  0  0
  9 11  1  0  0  0  0
  9 22  1  0  0  0  0
 11 12  1  0  0  0  0
 11 13  1  0  0  0  0
 11 14  1  0  0  0  0
 14 15  1  0  0  0  0
 14 20  2  0  0  0  0
 15 16  2  0  0  0  0
 16 17  1  0  0  0  0
 16 18  1  0  0  0  0
 18 19  1  0  0  0  0
 18 20  1  0  0  0  0
 20 21  1  0  0  0  0
 22 23  2  0  0  0  0
 22 24  1  0  0  0  0
 24 25  1  0  0  0  0
 24 26  1  0  0  0  0
 26 27  1  0  0  0  0
 26 28  1  0  0  0  0
 26 29  1  0  0  0  0
M  END
$$$$

  -OEChem-04042215593D

 29 29  0     1  0  0  0  0  0999 V2000
   -2.7843   -4.4694    1.2255 H   0  0  0  0  0  0  0  0  0  0  0  0
   -2.9059   -3.4889    0.7566 C   0  0  0  0  0  0  0  0  0  0  0  0
   -3.6947   -2.9426    1.2792 H   0  0  0  0  0  0  0  0  0  0  0  0
   -3.1989   -3.6324   -0.2860 H   0  0  0  0  0  0  0  0  0  0  0  0
   -1.6039   -2.7128    0.8256 C   0  0  0  0  0  0  0  0  0  0  0  0
   -0.6613   -3.1777    1.4430 O   0  0  0  0  0  0  0  0  0  0  0  0
   -1.5336   -1.4603    0.2515 N   0  0  0  0  0  0  0  0  0  0  0  0
   -2.3915   -1.0765   -0.1368 H   0  0  0  0  0  0  0  0  0  0  0  0
   -0.3225   -0.6309    0.1493 C   0  0  1  0  0  0  0  0  0  0  0  0
    0.4510   -0.9957    0.8332 H   0  0  0  0  0  0  0  0  0  0  0  0
    0.1903   -0.6533   -1.3129 C   0  0  0  0  0  0  0  0  0  0  0  0
   -0.6044   -1.0139   -1.9721 H   0  0  0  0  0  0  0  0  0  0  0  0
    0.4355    0.3632   -1.6365 H   0  0  0  0  0  0  0  0  0  0  0  0
    1.4114   -1.5046   -1.5299 C   0  0  0  0  0  0  0  0  0  0  0  0
    1.9201   -2.4590   -0.6611 N   0  0  0  0  0  0  0  0  0  0  0  0
    2.9847   -2.9682   -1.2290 C   0  0  0  0  0  0  0  0  0  0  0  0
    3.6061   -3.7479   -0.7978 H   0  0  0  0  0  0  0  0  0  0  0  0
    3.1970   -2.3605   -2.4516 N   0  0  0  0  0  0  0  0  0  0  0  0
    3.9577   -2.5793   -3.0921 H   0  0  0  0  0  0  0  0  0  0  0  0
    2.1999   -1.4271   -2.6450 C   0  0  0  0  0  0  0  0  0  0  0  0
    2.0535   -0.7683   -3.4958 H   0  0  0  0  0  0  0  0  0  0  0  0
   -0.6424    0.8223    0.5474 C   0  0  0  0  0  0  0  0  0  0  0  0
   -1.6469    1.3722    0.1067 O   0  0  0  0  0  0  0  0  0  0  0  0
    0.2072    1.5171    1.3879 N   0  0  0  0  0  0  0  0  0  0  0  0
    0.9976    1.0072    1.7749 H   0  0  0  0  0  0  0  0  0  0  0  0
   -0.0434    2.8809    1.8358 C   0  0  0  0  0  0  0  0  0  0  0  0
   -0.9766    2.9315    2.4062 H   0  0  0  0  0  0  0  0  0  0  0  0
    0.7739    3.2234    2.4776 H   0  0  0  0  0  0  0  0  0  0  0  0
   -0.1163    3.5583    0.9786 H   0  0  0  0  0  0  0  0  0  0  0  0
  1  2  1  0  0  0  0
  2  3  1  0  0  0  0
  2  4  1  0  0  0  0
  2  5  1  0  0  0  0
  5  6  2  0  0  0  0
  5  7  1  0  0  0  0
  7  8  1  0  0  0  0
  7  9  1  0  0  0  0
  9 10  1  0  0  0  0
  9 11  1  0  0  0  0
  9 22  1  0  0  0  0
 11 12  1  0  0  0  0
 11 13  1  0  0  0  0
 11 14  1  0  0  0  0
 14 15  1  0  0  0  0
 14 20  2  0  0  0  0
 15 16  2  0  0  0  0
 16 17  1  0  0  0  0
 16 18  1  0  0  0  0
 18 19  1  0  0  0  0
 18 20  1  0  0  0  0
 20 21  1  0  0  0  0
 22 23  2  0  0  0  0
 22 24  1  0  0  0  0
 24 25  1  0  0  0  0
 24 26  1  0  0  0  0
 26 27  1  0  0  0  0
 26 28  1  0  0  0  0
 26 29  1  0  0  0  0
M  END
$$$$

  -OEChem-04042215593D

 29 29  0     1  0  0  0  0  0999 V2000
   -2.7199   -4.5007    1.1915 H   0  0  0  0  0  0  0  0  0  0  0  0
   -2.8578   -3.5236    0.7200 C   0  0  0  0  0  0  0  0  0  0  0  0
   -3.6888   -3.0093    1.2083 H   0  0  0  0  0  0  0  0  0  0  0  0
   -3.0990   -3.6741   -0.3348 H   0  0  0  0  0  0  0  0  0  0  0  0
   -1.5902   -2.6996    0.8472 C   0  0  0  0  0  0  0  0  0  0  0  0
   -0.6659   -3.1198    1.5229 O   0  0  0  0  0  0  0  0  0  0  0  0
   -1.5371   -1.4474    0.2705 N   0  0  0  0  0  0  0  0  0  0  0  0
   -2.3807   -1.1061   -0.1825 H   0  0  0  0  0  0  0  0  0  0  0  0
   -0.3264   -0.6208    0.1503 C   0  0  1  0  0  0  0  0  0  0  0  0
    0.4631   -0.9915    0.8131 H   0  0  0  0  0  0  0  0  0  0  0  0
    0.1579   -0.6337   -1.3216 C   0  0  0  0  0  0  0  0  0  0  0  0
   -0.6474   -0.9958   -1.9671 H   0  0  0  0  0  0  0  0  0  0  0  0
    0.3957    0.3831   -1.6493 H   0  0  0  0  0  0  0  0  0  0  0  0
    1.3708   -1.4911   -1.5514 C   0  0  0  0  0  0  0  0  0  0  0  0
    1.7064   -2.6309   -0.8371 N   0  0  0  0  0  0  0  0  0  0  0  0
    2.8379   -3.0723   -1.3274 C   0  0  0  0  0  0  0  0  0  0  0  0
    3.3624   -3.9577   -0.9794 H   0  0  0  0  0  0  0  0  0  0  0  0
    3.2595   -2.2411   -2.3478 N   0  0  0  0  0  0  0  0  0  0  0  0
    4.1116   -2.3649   -2.8912 H   0  0  0  0  0  0  0  0  0  0  0  0
    2.3304   -1.2315   -2.4910 C   0  0  0  0  0  0  0  0  0  0  0  0
    2.3422   -0.4026   -3.1925 H   0  0  0  0  0  0  0  0  0  0  0  0
   -0.6362    0.8334    0.5547 C   0  0  0  0  0  0  0  0  0  0  0  0
   -1.6334    1.3957    0.1134 O   0  0  0  0  0  0  0  0  0  0  0  0
    0.2289    1.5243    1.3830 N   0  0  0  0  0  0  0  0  0  0  0  0
    1.0043    1.0019    1.7829 H   0  0  0  0  0  0  0  0  0  0  0  0
   -0.0122    2.8880    1.8368 C   0  0  0  0  0  0  0  0  0  0  0  0
   -0.9329    2.9379    2.4273 H   0  0  0  0  0  0  0  0  0  0  0  0
    0.8188    3.2305    2.4608 H   0  0  0  0  0  0  0  0  0  0  0  0
   -0.1032    3.5660    0.9819 H   0  0  0  0  0  0  0  0  0  0  0  0
  1  2  1  0  0  0  0
  2  3  1  0  0  0  0
  2  4  1  0  0  0  0
  2  5  1  0  0  0  0
  5  6  2  0  0  0  0
  5  7  1  0  0  0  0
  7  8  1  0  0  0  0
  7  9  1  0  0  0  0
  9 10  1  0  0  0  0
  9 11  1  0  0  0  0
  9 22  1  0  0  0  0
 11 12  1  0  0  0  0
 11 13  1  0  0  0  0
 11 14  1  0  0  0  0
 14 15  1  0  0  0  0
 14 20  2  0  0  0  0
 15 16  2  0  0  0  0
 16 17  1  0  0  0  0
 16 18  1  0  0  0  0
 18 19  1  0  0  0  0
 18 20  1  0  0  0  0
 20 21  1  0  0  0  0
 22 23  2  0  0  0  0
 22 24  1  0  0  0  0
 24 25  1  0  0  0  0
 24 26  1  0  0  0  0
 26 27  1  0  0  0  0
 26 28  1  0  0  0  0
 26 29  1  0  0  0  0
M  END
$$$$

  -OEChem-04042215593D

 29 29  0     1  0  0  0  0  0999 V2000
   -2.6754   -4.4994    1.2124 H   0  0  0  0  0  0  0  0  0  0  0  0
   -2.8154   -3.5395    0.7076 C   0  0  0  0  0  0  0  0  0  0  0  0
   -3.6639   -3.0221    1.1613 H   0  0  0  0  0  0  0  0  0  0  0  0
   -3.0303   -3.7257   -0.3472 H   0  0  0  0  0  0  0  0  0  0  0  0
   -1.5623   -2.6945    0.8375 C   0  0  0  0  0  0  0  0  0  0  0  0
   -0.6348   -3.0938    1.5227 O   0  0  0  0  0  0  0  0  0  0  0  0
   -1.5301   -1.4390    0.2664 N   0  0  0  0  0  0  0  0  0  0  0  0
   -2.3720   -1.1180   -0.2040 H   0  0  0  0  0  0  0  0  0  0  0  0
   -0.3243   -0.6078    0.1359 C   0  0  1  0  0  0  0  0  0  0  0  0
    0.4773   -0.9813    0.7827 H   0  0  0  0  0  0  0  0  0  0  0  0
    0.1417   -0.6072   -1.3410 C   0  0  0  0  0  0  0  0  0  0  0  0
   -0.6656   -0.9681   -1.9845 H   0  0  0  0  0  0  0  0  0  0  0  0
    0.3760    0.4122   -1.6636 H   0  0  0  0  0  0  0  0  0  0  0  0
    1.3533   -1.4638   -1.5700 C   0  0  0  0  0  0  0  0  0  0  0  0
    1.5294   -2.7416   -1.0626 N   0  0  0  0  0  0  0  0  0  0  0  0
    2.7123   -3.1471   -1.4528 C   0  0  0  0  0  0  0  0  0  0  0  0
    3.1468   -4.1138   -1.2148 H   0  0  0  0  0  0  0  0  0  0  0  0
    3.3184   -2.1616   -2.2093 N   0  0  0  0  0  0  0  0  0  0  0  0
    4.2435   -2.2298   -2.6296 H   0  0  0  0  0  0  0  0  0  0  0  0
    2.4571   -1.0867   -2.2843 C   0  0  0  0  0  0  0  0  0  0  0  0
    2.6092   -0.1389   -2.7916 H   0  0  0  0  0  0  0  0  0  0  0  0
   -0.6353    0.8426    0.5541 C   0  0  0  0  0  0  0  0  0  0  0  0
   -1.6369    1.4064    0.1252 O   0  0  0  0  0  0  0  0  0  0  0  0
    0.2377    1.5314    1.3760 N   0  0  0  0  0  0  0  0  0  0  0  0
    1.0121    1.0058    1.7730 H   0  0  0  0  0  0  0  0  0  0  0  0
   -0.0110    2.8865    1.8515 C   0  0  0  0  0  0  0  0  0  0  0  0
   -0.9238    2.9189    2.4554 H   0  0  0  0  0  0  0  0  0  0  0  0
    0.8253    3.2296    2.4681 H   0  0  0  0  0  0  0  0  0  0  0  0
   -0.1217    3.5752    1.0074 H   0  0  0  0  0  0  0  0  0  0  0  0
  1  2  1  0  0  0  0
  2  3  1  0  0  0  0
  2  4  1  0  0  0  0
  2  5  1  0  0  0  0
  5  6  2  0  0  0  0
  5  7  1  0  0  0  0
  7  8  1  0  0  0  0
  7  9  1  0  0  0  0
  9 10  1  0  0  0  0
  9 11  1  0  0  0  0
  9 22  1  0  0  0  0
 11 12  1  0  0  0  0
 11 13  1  0  0  0  0
 11 14  1  0  0  0  0
 14 15  1  0  0  0  0
 14 20  2  0  0  0  0
 15 16  2  0  0  0  0
 16 17  1  0  0  0  0
 16 18  1  0  0  0  0
 18 19  1  0  0  0  0
 18 20  1  0  0  0  0
 20 21  1  0  0  0  0
 22 23  2  0  0  0  0
 22 24  1  0  0  0  0
 24 25  1  0  0  0  0
 24 26  1  0  0  0  0
 26 27  1  0  0  0  0
 26 28  1  0  0  0  0
 26 29  1  0  0  0  0
M  END
$$$$

  -OEChem-04042215593D

 29 29  0     1  0  0  0  0  0999 V2000
   -2.6111   -4.5205    1.1828 H   0  0  0  0  0  0  0  0  0  0  0  0
   -2.7725   -3.5563    0.6927 C   0  0  0  0  0  0  0  0  0  0  0  0
   -3.6250   -3.0597    1.1618 H   0  0  0  0  0  0  0  0  0  0  0  0
   -2.9950   -3.7320   -0.3624 H   0  0  0  0  0  0  0  0  0  0  0  0
   -1.5324   -2.6918    0.8214 C   0  0  0  0  0  0  0  0  0  0  0  0
   -0.5914   -3.0827    1.4936 O   0  0  0  0  0  0  0  0  0  0  0  0
   -1.5208   -1.4319    0.2586 N   0  0  0  0  0  0  0  0  0  0  0  0
   -2.3658   -1.1215   -0.2133 H   0  0  0  0  0  0  0  0  0  0  0  0
   -0.3222   -0.5917    0.1263 C   0  0  1  0  0  0  0  0  0  0  0  0
    0.4868   -0.9639    0.7648 H   0  0  0  0  0  0  0  0  0  0  0  0
    0.1331   -0.5817   -1.3521 C   0  0  0  0  0  0  0  0  0  0  0  0
   -0.6725   -0.9390   -1.9999 H   0  0  0  0  0  0  0  0  0  0  0  0
    0.3693    0.4396   -1.6674 H   0  0  0  0  0  0  0  0  0  0  0  0
    1.3474   -1.4350   -1.5689 C   0  0  0  0  0  0  0  0  0  0  0  0
    1.3947   -2.7959   -1.3091 N   0  0  0  0  0  0  0  0  0  0  0  0
    2.6101   -3.1924   -1.5945 C   0  0  0  0  0  0  0  0  0  0  0  0
    2.9698   -4.2122   -1.4927 H   0  0  0  0  0  0  0  0  0  0  0  0
    3.3593   -2.1215   -2.0455 N   0  0  0  0  0  0  0  0  0  0  0  0
    4.3362   -2.1676   -2.3290 H   0  0  0  0  0  0  0  0  0  0  0  0
    2.5579   -0.9985   -2.0318 C   0  0  0  0  0  0  0  0  0  0  0  0
    2.8178    0.0169   -2.3160 H   0  0  0  0  0  0  0  0  0  0  0  0
   -0.6390    0.8537    0.5574 C   0  0  0  0  0  0  0  0  0  0  0  0
   -1.6456    1.4154    0.1381 O   0  0  0  0  0  0  0  0  0  0  0  0
    0.2354    1.5421    1.3782 N   0  0  0  0  0  0  0  0  0  0  0  0
    1.0124    1.0178    1.7716 H   0  0  0  0  0  0  0  0  0  0  0  0
   -0.0178    2.8942    1.8596 C   0  0  0  0  0  0  0  0  0  0  0  0
   -0.9332    2.9219    2.4597 H   0  0  0  0  0  0  0  0  0  0  0  0
    0.8150    3.2357    2.4817 H   0  0  0  0  0  0  0  0  0  0  0  0
   -0.1262    3.5868    1.0184 H   0  0  0  0  0  0  0  0  0  0  0  0
  1  2  1  0  0  0  0
  2  3  1  0  0  0  0
  2  4  1  0  0  0  0
  2  5  1  0  0  0  0
  5  6  2  0  0  0  0
  5  7  1  0  0  0  0
  7  8  1  0  0  0  0
  7  9  1  0  0  0  0
  9 10  1  0  0  0  0
  9 11  1  0  0  0  0
  9 22  1  0  0  0  0
 11 12  1  0  0  0  0
 11 13  1  0  0  0  0
 11 14  1  0  0  0  0
 14 15  1  0  0  0  0
 14 20  2  0  0  0  0
 15 16  2  0  0  0  0
 16 17  1  0  0  0  0
 16 18  1  0  0  0  0
 18 19  1  0  0  0  0
 18 20  1  0  0  0  0
 20 21  1  0  0  0  0
 22 23  2  0  0  0  0
 22 24  1  0  0  0  0
 24 25  1  0  0  0  0
 24 26  1  0  0  0  0
 26 27  1  0  0  0  0
 26 28  1  0  0  0  0
 26 29  1  0  0  0  0
M  END
$$$$

  -OEChem-04042215593D

 29 29  0     1  0  0  0  0  0999 V2000
   -2.5709   -4.5311    1.1566 H   0  0  0  0  0  0  0  0  0  0  0  0
   -2.7487   -3.5606    0.6849 C   0  0  0  0  0  0  0  0  0  0  0  0
   -3.5949   -3.0772    1.1788 H   0  0  0  0  0  0  0  0  0  0  0  0
   -2.9914   -3.7218   -0.3681 H   0  0  0  0  0  0  0  0  0  0  0  0
   -1.5121   -2.6897    0.8022 C   0  0  0  0  0  0  0  0  0  0  0  0
   -0.5545   -3.0830    1.4499 O   0  0  0  0  0  0  0  0  0  0  0  0
   -1.5128   -1.4268    0.2462 N   0  0  0  0  0  0  0  0  0  0  0  0
   -2.3618   -1.1189   -0.2202 H   0  0  0  0  0  0  0  0  0  0  0  0
   -0.3208   -0.5776    0.1190 C   0  0  1  0  0  0  0  0  0  0  0  0
    0.4898   -0.9456    0.7576 H   0  0  0  0  0  0  0  0  0  0  0  0
    0.1331   -0.5717   -1.3585 C   0  0  0  0  0  0  0  0  0  0  0  0
   -0.6670   -0.9294   -2.0133 H   0  0  0  0  0  0  0  0  0  0  0  0
    0.3729    0.4491   -1.6726 H   0  0  0  0  0  0  0  0  0  0  0  0
    1.3512   -1.4215   -1.5541 C   0  0  0  0  0  0  0  0  0  0  0  0
    1.3243   -2.8076   -1.5662 N   0  0  0  0  0  0  0  0  0  0  0  0
    2.5605   -3.2030   -1.7453 C   0  0  0  0  0  0  0  0  0  0  0  0
    2.8789   -4.2404   -1.7916 H   0  0  0  0  0  0  0  0  0  0  0  0
    3.3926   -2.1058   -1.8726 N   0  0  0  0  0  0  0  0  0  0  0  0
    4.3992   -2.1477   -2.0208 H   0  0  0  0  0  0  0  0  0  0  0  0
    2.6241   -0.9661   -1.7569 C   0  0  0  0  0  0  0  0  0  0  0  0
    2.9445    0.0701   -1.8060 H   0  0  0  0  0  0  0  0  0  0  0  0
   -0.6439    0.8644    0.5569 C   0  0  0  0  0  0  0  0  0  0  0  0
   -1.6522    1.4244    0.1399 O   0  0  0  0  0  0  0  0  0  0  0  0
    0.2282    1.5522    1.3810 N   0  0  0  0  0  0  0  0  0  0  0  0
    1.0029    1.0269    1.7776 H   0  0  0  0  0  0  0  0  0  0  0  0
   -0.0301    2.9009    1.8699 C   0  0  0  0  0  0  0  0  0  0  0  0
   -0.9488    2.9234    2.4657 H   0  0  0  0  0  0  0  0  0  0  0  0
    0.7992    3.2394    2.4986 H   0  0  0  0  0  0  0  0  0  0  0  0
   -0.1351    3.5990    1.0327 H   0  0  0  0  0  0  0  0  0  0  0  0
  1  2  1  0  0  0  0
  2  3  1  0  0  0  0
  2  4  1  0  0  0  0
  2  5  1  0  0  0  0
  5  6  2  0  0  0  0
  5  7  1  0  0  0  0
  7  8  1  0  0  0  0
  7  9  1  0  0  0  0
  9 10  1  0  0  0  0
  9 11  1  0  0  0  0
  9 22  1  0  0  0  0
 11 12  1  0  0  0  0
 11 13  1  0  0  0  0
 11 14  1  0  0  0  0
 14 15  1  0  0  0  0
 14 20  2  0  0  0  0
 15 16  2  0  0  0  0
 16 17  1  0  0  0  0
 16 18  1  0  0  0  0
 18 19  1  0  0  0  0
 18 20  1  0  0  0  0
 20 21  1  0  0  0  0
 22 23  2  0  0  0  0
 22 24  1  0  0  0  0
 24 25  1  0  0  0  0
 24 26  1  0  0  0  0
 26 27  1  0  0  0  0
 26 28  1  0  0  0  0
 26 29  1  0  0  0  0
M  END
$$$$

  -OEChem-04042215593D

 29 29  0     1  0  0  0  0  0999 V2000
   -2.5748   -4.5232    1.1555 H   0  0  0  0  0  0  0  0  0  0  0  0
   -2.7527   -3.5484    0.6931 C   0  0  0  0  0  0  0  0  0  0  0  0
   -3.5816   -3.0583    1.2090 H   0  0  0  0  0  0  0  0  0  0  0  0
   -3.0215   -3.7006   -0.3549 H   0  0  0  0  0  0  0  0  0  0  0  0
   -1.5046   -2.6914    0.7856 C   0  0  0  0  0  0  0  0  0  0  0  0
   -0.5294   -3.1021    1.3952 O   0  0  0  0  0  0  0  0  0  0  0  0
   -1.5049   -1.4269    0.2342 N   0  0  0  0  0  0  0  0  0  0  0  0
   -2.3619   -1.1056   -0.2090 H   0  0  0  0  0  0  0  0  0  0  0  0
   -0.3156   -0.5737    0.1150 C   0  0  1  0  0  0  0  0  0  0  0  0
    0.4914   -0.9395    0.7594 H   0  0  0  0  0  0  0  0  0  0  0  0
    0.1450   -0.5723   -1.3591 C   0  0  0  0  0  0  0  0  0  0  0  0
   -0.6497   -0.9292   -2.0208 H   0  0  0  0  0  0  0  0  0  0  0  0
    0.3897    0.4473   -1.6730 H   0  0  0  0  0  0  0  0  0  0  0  0
    1.3660   -1.4201   -1.5407 C   0  0  0  0  0  0  0  0  0  0  0  0
    1.3194   -2.7729   -1.8436 N   0  0  0  0  0  0  0  0  0  0  0  0
    2.5633   -3.1782   -1.9218 C   0  0  0  0  0  0  0  0  0  0  0  0
    2.8710   -4.1978   -2.1363 H   0  0  0  0  0  0  0  0  0  0  0  0
    3.4211   -2.1162   -1.7002 N   0  0  0  0  0  0  0  0  0  0  0  0
    4.4376   -2.1728   -1.7079 H   0  0  0  0  0  0  0  0  0  0  0  0
    2.6611   -0.9895   -1.4643 C   0  0  0  0  0  0  0  0  0  0  0  0
    2.9998    0.0206   -1.2558 H   0  0  0  0  0  0  0  0  0  0  0  0
   -0.6458    0.8661    0.5556 C   0  0  0  0  0  0  0  0  0  0  0  0
   -1.6595    1.4187    0.1425 O   0  0  0  0  0  0  0  0  0  0  0  0
    0.2181    1.5572    1.3856 N   0  0  0  0  0  0  0  0  0  0  0  0
    0.9948    1.0373    1.7849 H   0  0  0  0  0  0  0  0  0  0  0  0
   -0.0511    2.9042    1.8737 C   0  0  0  0  0  0  0  0  0  0  0  0
   -0.9720    2.9207    2.4663 H   0  0  0  0  0  0  0  0  0  0  0  0
    0.7733    3.2492    2.5051 H   0  0  0  0  0  0  0  0  0  0  0  0
   -0.1583    3.6011    1.0356 H   0  0  0  0  0  0  0  0  0  0  0  0
  1  2  1  0  0  0  0
  2  3  1  0  0  0  0
  2  4  1  0  0  0  0
  2  5  1  0  0  0  0
  5  6  2  0  0  0  0
  5  7  1  0  0  0  0
  7  8  1  0  0  0  0
  7  9  1  0  0  0  0
  9 10  1  0  0  0  0
  9 11  1  0  0  0  0
  9 22  1  0  0  0  0
 11 12  1  0  0  0  0
 11 13  1  0  0  0  0
 11 14  1  0  0  0  0
 14 15  1  0  0  0  0
 14 20  2  0  0  0  0
 15 16  2  0  0  0  0
 16 17  1  0  0  0  0
 16 18  1  0  0  0  0
 18 19  1  0  0  0  0
 18 20  1  0  0  0  0
 20 21  1  0  0  0  0
 22 23  2  0  0  0  0
 22 24  1  0  0  0  0
 24 25  1  0  0  0  0
 24 26  1  0  0  0  0
 26 27  1  0  0  0  0
 26 28  1  0  0  0  0
 26 29  1  0  0  0  0
M  END
$$$$

  -OEChem-04042215593D

 29 29  0     1  0  0  0  0  0999 V2000
   -2.5961   -4.5038    1.1810 H   0  0  0  0  0  0  0  0  0  0  0  0
   -2.7705   -3.5309    0.7132 C   0  0  0  0  0  0  0  0  0  0  0  0
   -3.5780   -3.0227    1.2454 H   0  0  0  0  0  0  0  0  0  0  0  0
   -3.0694   -3.6892   -0.3258 H   0  0  0  0  0  0  0  0  0  0  0  0
   -1.5070   -2.6929    0.7646 C   0  0  0  0  0  0  0  0  0  0  0  0
   -0.5151   -3.1236    1.3319 O   0  0  0  0  0  0  0  0  0  0  0  0
   -1.5034   -1.4273    0.2159 N   0  0  0  0  0  0  0  0  0  0  0  0
   -2.3713   -1.0837   -0.1885 H   0  0  0  0  0  0  0  0  0  0  0  0
   -0.3148   -0.5717    0.1054 C   0  0  1  0  0  0  0  0  0  0  0  0
    0.4846   -0.9355    0.7601 H   0  0  0  0  0  0  0  0  0  0  0  0
    0.1601   -0.5767   -1.3639 C   0  0  0  0  0  0  0  0  0  0  0  0
   -0.6295   -0.9361   -2.0309 H   0  0  0  0  0  0  0  0  0  0  0  0
    0.4076    0.4413   -1.6803 H   0  0  0  0  0  0  0  0  0  0  0  0
    1.3854   -1.4217   -1.5343 C   0  0  0  0  0  0  0  0  0  0  0  0
    1.3728   -2.6803   -2.1180 N   0  0  0  0  0  0  0  0  0  0  0  0
    2.6103   -3.1120   -2.0923 C   0  0  0  0  0  0  0  0  0  0  0  0
    2.9377   -4.0778   -2.4664 H   0  0  0  0  0  0  0  0  0  0  0  0
    3.4344   -2.1551   -1.5285 N   0  0  0  0  0  0  0  0  0  0  0  0
    4.4385   -2.2537   -1.3914 H   0  0  0  0  0  0  0  0  0  0  0  0
    2.6582   -1.0702   -1.1785 C   0  0  0  0  0  0  0  0  0  0  0  0
    2.9723   -0.1398   -0.7161 H   0  0  0  0  0  0  0  0  0  0  0  0
   -0.6486    0.8671    0.5454 C   0  0  0  0  0  0  0  0  0  0  0  0
   -1.6668    1.4144    0.1371 O   0  0  0  0  0  0  0  0  0  0  0  0
    0.2104    1.5572    1.3814 N   0  0  0  0  0  0  0  0  0  0  0  0
    0.9849    1.0369    1.7840 H   0  0  0  0  0  0  0  0  0  0  0  0
   -0.0682    2.8987    1.8792 C   0  0  0  0  0  0  0  0  0  0  0  0
   -0.9785    2.9003    2.4880 H   0  0  0  0  0  0  0  0  0  0  0  0
    0.7628    3.2521    2.4971 H   0  0  0  0  0  0  0  0  0  0  0  0
   -0.1992    3.5979    1.0466 H   0  0  0  0  0  0  0  0  0  0  0  0
  1  2  1  0  0  0  0
  2  3  1  0  0  0  0
  2  4  1  0  0  0  0
  2  5  1  0  0  0  0
  5  6  2  0  0  0  0
  5  7  1  0  0  0  0
  7  8  1  0  0  0  0
  7  9  1  0  0  0  0
  9 10  1  0  0  0  0
  9 11  1  0  0  0  0
  9 22  1  0  0  0  0
 11 12  1  0  0  0  0
 11 13  1  0  0  0  0
 11 14  1  0  0  0  0
 14 15  1  0  0  0  0
 14 20  2  0  0  0  0
 15 16  2  0  0  0  0
 16 17  1  0  0  0  0
 16 18  1  0  0  0  0
 18 19  1  0  0  0  0
 18 20  1  0  0  0  0
 20 21  1  0  0  0  0
 22 23  2  0  0  0  0
 22 24  1  0  0  0  0
 24 25  1  0  0  0  0
 24 26  1  0  0  0  0
 26 27  1  0  0  0  0
 26 28  1  0  0  0  0
 26 29  1  0  0  0  0
M  END
$$$$

  -OEChem-04042215593D

 29 29  0     1  0  0  0  0  0999 V2000
   -2.6146   -4.4822    1.2016 H   0  0  0  0  0  0  0  0  0  0  0  0
   -2.7833   -3.5101    0.7301 C   0  0  0  0  0  0  0  0  0  0  0  0
   -3.5738   -2.9865    1.2729 H   0  0  0  0  0  0  0  0  0  0  0  0
   -3.1031   -3.6713   -0.3023 H   0  0  0  0  0  0  0  0  0  0  0  0
   -1.5072   -2.6904    0.7534 C   0  0  0  0  0  0  0  0  0  0  0  0
   -0.5058   -3.1384    1.2901 O   0  0  0  0  0  0  0  0  0  0  0  0
   -1.4965   -1.4257    0.2033 N   0  0  0  0  0  0  0  0  0  0  0  0
   -2.3711   -1.0619   -0.1687 H   0  0  0  0  0  0  0  0  0  0  0  0
   -0.3074   -0.5690    0.1060 C   0  0  1  0  0  0  0  0  0  0  0  0
    0.4795   -0.9293    0.7765 H   0  0  0  0  0  0  0  0  0  0  0  0
    0.1870   -0.5782   -1.3575 C   0  0  0  0  0  0  0  0  0  0  0  0
   -0.5981   -0.9440   -2.0263 H   0  0  0  0  0  0  0  0  0  0  0  0
    0.4313    0.4387   -1.6795 H   0  0  0  0  0  0  0  0  0  0  0  0
    1.4169   -1.4187   -1.5306 C   0  0  0  0  0  0  0  0  0  0  0  0
    1.4696   -2.5193   -2.3747 N   0  0  0  0  0  0  0  0  0  0  0  0
    2.6781   -3.0149   -2.2630 C   0  0  0  0  0  0  0  0  0  0  0  0
    3.0386   -3.8938   -2.7900 H   0  0  0  0  0  0  0  0  0  0  0  0
    3.4233   -2.2522   -1.3832 N   0  0  0  0  0  0  0  0  0  0  0  0
    4.3882   -2.4392   -1.1172 H   0  0  0  0  0  0  0  0  0  0  0  0
    2.6250   -1.2289   -0.9172 C   0  0  0  0  0  0  0  0  0  0  0  0
    2.8817   -0.4457   -0.2117 H   0  0  0  0  0  0  0  0  0  0  0  0
   -0.6515    0.8696    0.5400 C   0  0  0  0  0  0  0  0  0  0  0  0
   -1.6769    1.4043    0.1330 O   0  0  0  0  0  0  0  0  0  0  0  0
    0.1928    1.5658    1.3859 N   0  0  0  0  0  0  0  0  0  0  0  0
    0.9744    1.0562    1.7878 H   0  0  0  0  0  0  0  0  0  0  0  0
   -0.1032    2.9033    1.8845 C   0  0  0  0  0  0  0  0  0  0  0  0
   -1.0056    2.8898    2.5047 H   0  0  0  0  0  0  0  0  0  0  0  0
    0.7292    3.2733    2.4906 H   0  0  0  0  0  0  0  0  0  0  0  0
   -0.2574    3.5981    1.0521 H   0  0  0  0  0  0  0  0  0  0  0  0
  1  2  1  0  0  0  0
  2  3  1  0  0  0  0
  2  4  1  0  0  0  0
  2  5  1  0  0  0  0
  5  6  2  0  0  0  0
  5  7  1  0  0  0  0
  7  8  1  0  0  0  0
  7  9  1  0  0  0  0
  9 10  1  0  0  0  0
  9 11  1  0  0  0  0
  9 22  1  0  0  0  0
 11 12  1  0  0  0  0
 11 13  1  0  0  0  0
 11 14  1  0  0  0  0
 14 15  1  0  0  0  0
 14 20  2  0  0  0  0
 15 16  2  0  0  0  0
 16 17  1  0  0  0  0
 16 18  1  0  0  0  0
 18 19  1  0  0  0  0
 18 20  1  0  0  0  0
 20 21  1  0  0  0  0
 22 23  2  0  0  0  0
 22 24  1  0  0  0  0
 24 25  1  0  0  0  0
 24 26  1  0  0  0  0
 26 27  1  0  0  0  0
 26 28  1  0  0  0  0
 26 29  1  0  0  0  0
M  END
$$$$

  -OEChem-04042215593D

 29 29  0     1  0  0  0  0  0999 V2000
   -2.6408   -4.4603    1.2202 H   0  0  0  0  0  0  0  0  0  0  0  0
   -2.8009   -3.4858    0.7502 C   0  0  0  0  0  0  0  0  0  0  0  0
   -3.5753   -2.9496    1.3039 H   0  0  0  0  0  0  0  0  0  0  0  0
   -3.1385   -3.6423   -0.2773 H   0  0  0  0  0  0  0  0  0  0  0  0
   -1.5119   -2.6859    0.7537 C   0  0  0  0  0  0  0  0  0  0  0  0
   -0.5079   -3.1489    1.2723 O   0  0  0  0  0  0  0  0  0  0  0  0
   -1.4892   -1.4243    0.1978 N   0  0  0  0  0  0  0  0  0  0  0  0
   -2.3665   -1.0426   -0.1502 H   0  0  0  0  0  0  0  0  0  0  0  0
   -0.2990   -0.5676    0.1186 C   0  0  1  0  0  0  0  0  0  0  0  0
    0.4691   -0.9216    0.8119 H   0  0  0  0  0  0  0  0  0  0  0  0
    0.2264   -0.5804   -1.3355 C   0  0  0  0  0  0  0  0  0  0  0  0
   -0.5513   -0.9546   -2.0085 H   0  0  0  0  0  0  0  0  0  0  0  0
    0.4638    0.4365   -1.6622 H   0  0  0  0  0  0  0  0  0  0  0  0
    1.4641   -1.4140   -1.5158 C   0  0  0  0  0  0  0  0  0  0  0  0
    1.6130   -2.2960   -2.5781 N   0  0  0  0  0  0  0  0  0  0  0  0
    2.7742   -2.8830   -2.4183 C   0  0  0  0  0  0  0  0  0  0  0  0
    3.1827   -3.6404   -3.0812 H   0  0  0  0  0  0  0  0  0  0  0  0
    3.3984   -2.3954   -1.2861 N   0  0  0  0  0  0  0  0  0  0  0  0
    4.2996   -2.7095   -0.9313 H   0  0  0  0  0  0  0  0  0  0  0  0
    2.5680   -1.4599   -0.7066 C   0  0  0  0  0  0  0  0  0  0  0  0
    2.7357   -0.8926    0.2027 H   0  0  0  0  0  0  0  0  0  0  0  0
   -0.6578    0.8718    0.5390 C   0  0  0  0  0  0  0  0  0  0  0  0
   -1.6900    1.3897    0.1276 O   0  0  0  0  0  0  0  0  0  0  0  0
    0.1642    1.5790    1.3979 N   0  0  0  0  0  0  0  0  0  0  0  0
    0.9612    1.0898    1.7945 H   0  0  0  0  0  0  0  0  0  0  0  0
   -0.1524    2.9165    1.8842 C   0  0  0  0  0  0  0  0  0  0  0  0
   -1.0753    2.9014    2.4734 H   0  0  0  0  0  0  0  0  0  0  0  0
    0.6575    3.2905    2.5180 H   0  0  0  0  0  0  0  0  0  0  0  0
   -0.2809    3.6089    1.0455 H   0  0  0  0  0  0  0  0  0  0  0  0
  1  2  1  0  0  0  0
  2  3  1  0  0  0  0
  2  4  1  0  0  0  0
  2  5  1  0  0  0  0
  5  6  2  0  0  0  0
  5  7  1  0  0  0  0
  7  8  1  0  0  0  0
  7  9  1  0  0  0  0
  9 10  1  0  0  0  0
  9 11  1  0  0  0  0
  9 22  1  0  0  0  0
 11 12  1  0  0  0  0
 11 13  1  0  0  0  0
 11 14  1  0  0  0  0
 14 15  1  0  0  0  0
 14 20  2  0  0  0  0
 15 16  2  0  0  0  0
 16 17  1  0  0  0  0
 16 18  1  0  0  0  0
 18 19  1  0  0  0  0
 18 20  1  0  0  0  0
 20 21  1  0  0  0  0
 22 23  2  0  0  0  0
 22 24  1  0  0  0  0
 24 25  1  0  0  0  0
 24 26  1  0  0  0  0
 26 27  1  0  0  0  0
 26 28  1  0  0  0  0
 26 29  1  0  0  0  0
M  END
$$$$

  -OEChem-04042215593D

 29 29  0     1  0  0  0  0  0999 V2000
   -2.6745   -4.4397    1.2395 H   0  0  0  0  0  0  0  0  0  0  0  0
   -2.8273   -3.4629    0.7720 C   0  0  0  0  0  0  0  0  0  0  0  0
   -3.5869   -2.9166    1.3363 H   0  0  0  0  0  0  0  0  0  0  0  0
   -3.1809   -3.6142   -0.2508 H   0  0  0  0  0  0  0  0  0  0  0  0
   -1.5274   -2.6808    0.7595 C   0  0  0  0  0  0  0  0  0  0  0  0
   -0.5244   -3.1548    1.2708 O   0  0  0  0  0  0  0  0  0  0  0  0
   -1.4901   -1.4235    0.1950 N   0  0  0  0  0  0  0  0  0  0  0  0
   -2.3660   -1.0264   -0.1401 H   0  0  0  0  0  0  0  0  0  0  0  0
   -0.2962   -0.5701    0.1389 C   0  0  1  0  0  0  0  0  0  0  0  0
    0.4485   -0.9149    0.8598 H   0  0  0  0  0  0  0  0  0  0  0  0
    0.2689   -0.5884   -1.3011 C   0  0  0  0  0  0  0  0  0  0  0  0
   -0.4971   -0.9628   -1.9874 H   0  0  0  0  0  0  0  0  0  0  0  0
    0.5091    0.4289   -1.6242 H   0  0  0  0  0  0  0  0  0  0  0  0
    1.5128   -1.4176   -1.4811 C   0  0  0  0  0  0  0  0  0  0  0  0
    1.7896   -2.0366   -2.6939 N   0  0  0  0  0  0  0  0  0  0  0  0
    2.8962   -2.7191   -2.5282 C   0  0  0  0  0  0  0  0  0  0  0  0
    3.3743   -3.3223   -3.2949 H   0  0  0  0  0  0  0  0  0  0  0  0
    3.3593   -2.5585   -1.2373 N   0  0  0  0  0  0  0  0  0  0  0  0
    4.1831   -3.0131   -0.8483 H   0  0  0  0  0  0  0  0  0  0  0  0
    2.4794   -1.7385   -0.5635 C   0  0  0  0  0  0  0  0  0  0  0  0
    2.5264   -1.4352    0.4770 H   0  0  0  0  0  0  0  0  0  0  0  0
   -0.6685    0.8713    0.5412 C   0  0  0  0  0  0  0  0  0  0  0  0
   -1.7001    1.3775    0.1137 O   0  0  0  0  0  0  0  0  0  0  0  0
    0.1290    1.5866    1.4160 N   0  0  0  0  0  0  0  0  0  0  0  0
    0.9413    1.1171    1.8053 H   0  0  0  0  0  0  0  0  0  0  0  0
   -0.1947    2.9318    1.8751 C   0  0  0  0  0  0  0  0  0  0  0  0
   -1.1506    2.9350    2.4094 H   0  0  0  0  0  0  0  0  0  0  0  0
    0.5821    3.2966    2.5538 H   0  0  0  0  0  0  0  0  0  0  0  0
   -0.2626    3.6206    1.0265 H   0  0  0  0  0  0  0  0  0  0  0  0
  1  2  1  0  0  0  0
  2  3  1  0  0  0  0
  2  4  1  0  0  0  0
  2  5  1  0  0  0  0
  5  6  2  0  0  0  0
  5  7  1  0  0  0  0
  7  8  1  0  0  0  0
  7  9  1  0  0  0  0
  9 10  1  0  0  0  0
  9 11  1  0  0  0  0
  9 22  1  0  0  0  0
 11 12  1  0  0  0  0
 11 13  1  0  0  0  0
 11 14  1  0  0  0  0
 14 15  1  0  0  0  0
 14 20  2  0  0  0  0
 15 16  2  0  0  0  0
 16 17  1  0  0  0  0
 16 18  1  0  0  0  0
 18 19  1  0  0  0  0
 18 20  1  0  0  0  0
 20 21  1  0  0  0  0
 22 23  2  0  0  0  0
 22 24  1  0  0  0  0
 24 25  1  0  0  0  0
 24 26  1  0  0  0  0
 26 27  1  0  0  0  0
 26 28  1  0  0  0  0
 26 29  1  0  0  0  0
M  END
$$$$

  -OEChem-04042215593D

 29 29  0     1  0  0  0  0  0999 V2000
   -2.6964   -4.4171    1.2600 H   0  0  0  0  0  0  0  0  0  0  0  0
   -2.8431   -3.4412    0.7889 C   0  0  0  0  0  0  0  0  0  0  0  0
   -3.5953   -2.8858    1.3542 H   0  0  0  0  0  0  0  0  0  0  0  0
   -3.2025   -3.5937   -0.2317 H   0  0  0  0  0  0  0  0  0  0  0  0
   -1.5370   -2.6702    0.7665 C   0  0  0  0  0  0  0  0  0  0  0  0
   -0.5332   -3.1512    1.2704 O   0  0  0  0  0  0  0  0  0  0  0  0
   -1.4907   -1.4175    0.1926 N   0  0  0  0  0  0  0  0  0  0  0  0
   -2.3658   -1.0085   -0.1307 H   0  0  0  0  0  0  0  0  0  0  0  0
   -0.2925   -0.5698    0.1485 C   0  0  1  0  0  0  0  0  0  0  0  0
    0.4391   -0.9018    0.8874 H   0  0  0  0  0  0  0  0  0  0  0  0
    0.2983   -0.5959   -1.2806 C   0  0  0  0  0  0  0  0  0  0  0  0
   -0.4577   -0.9603   -1.9828 H   0  0  0  0  0  0  0  0  0  0  0  0
    0.5531    0.4213   -1.5933 H   0  0  0  0  0  0  0  0  0  0  0  0
    1.5434   -1.4286   -1.4495 C   0  0  0  0  0  0  0  0  0  0  0  0
    1.9857   -1.7796   -2.7194 N   0  0  0  0  0  0  0  0  0  0  0  0
    3.0293   -2.5564   -2.5600 C   0  0  0  0  0  0  0  0  0  0  0  0
    3.6013   -3.0019   -3.3688 H   0  0  0  0  0  0  0  0  0  0  0  0
    3.2854   -2.7284   -1.2147 N   0  0  0  0  0  0  0  0  0  0  0  0
    4.0136   -3.3246   -0.8263 H   0  0  0  0  0  0  0  0  0  0  0  0
    2.3346   -2.0287   -0.5032 C   0  0  0  0  0  0  0  0  0  0  0  0
    2.2125   -2.0011    0.5752 H   0  0  0  0  0  0  0  0  0  0  0  0
   -0.6713    0.8745    0.5358 C   0  0  0  0  0  0  0  0  0  0  0  0
   -1.7072    1.3706    0.1062 O   0  0  0  0  0  0  0  0  0  0  0  0
    0.1129    1.5945    1.4187 N   0  0  0  0  0  0  0  0  0  0  0  0
    0.9415    1.1410    1.7926 H   0  0  0  0  0  0  0  0  0  0  0  0
   -0.2228    2.9375    1.8754 C   0  0  0  0  0  0  0  0  0  0  0  0
   -1.1858    2.9350    2.3968 H   0  0  0  0  0  0  0  0  0  0  0  0
    0.5430    3.3046    2.5654 H   0  0  0  0  0  0  0  0  0  0  0  0
   -0.2827    3.6275    1.0271 H   0  0  0  0  0  0  0  0  0  0  0  0
  1  2  1  0  0  0  0
  2  3  1  0  0  0  0
  2  4  1  0  0  0  0
  2  5  1  0  0  0  0
  5  6  2  0  0  0  0
  5  7  1  0  0  0  0
  7  8  1  0  0  0  0
  7  9  1  0  0  0  0
  9 10  1  0  0  0  0
  9 11  1  0  0  0  0
  9 22  1  0  0  0  0
 11 12  1  0  0  0  0
 11 13  1  0  0  0  0
 11 14  1  0  0  0  0
 14 15  1  0  0  0  0
 14 20  2  0  0  0  0
 15 16  2  0  0  0  0
 16 17  1  0  0  0  0
 16 18  1  0  0  0  0
 18 19  1  0  0  0  0
 18 20  1  0  0  0  0
 20 21  1  0  0  0  0
 22 23  2  0  0  0  0
 22 24  1  0  0  0  0
 24 25  1  0  0  0  0
 24 26  1  0  0  0  0
 26 27  1  0  0  0  0
 26 28  1  0  0  0  0
 26 29  1  0  0  0  0
M  END
$$$$

  -OEChem-04042215593D

 29 29  0     1  0  0  0  0  0999 V2000
   -2.8407   -4.4034    1.2903 H   0  0  0  0  0  0  0  0  0  0  0  0
   -2.9362   -3.4304    0.8005 C   0  0  0  0  0  0  0  0  0  0  0  0
   -3.7053   -2.8501    1.3160 H   0  0  0  0  0  0  0  0  0  0  0  0
   -3.2417   -3.5875   -0.2367 H   0  0  0  0  0  0  0  0  0  0  0  0
   -1.6125   -2.6909    0.8434 C   0  0  0  0  0  0  0  0  0  0  0  0
   -0.6621   -3.1781    1.4346 O   0  0  0  0  0  0  0  0  0  0  0  0
   -1.5036   -1.4518    0.2495 N   0  0  0  0  0  0  0  0  0  0  0  0
   -2.3523   -1.0434   -0.1386 H   0  0  0  0  0  0  0  0  0  0  0  0
   -0.2865   -0.6283    0.1936 C   0  0  1  0  0  0  0  0  0  0  0  0
    0.4577   -0.9682    0.9200 H   0  0  0  0  0  0  0  0  0  0  0  0
    0.2925   -0.6636   -1.2377 C   0  0  0  0  0  0  0  0  0  0  0  0
   -0.5245   -0.7354   -1.9619 H   0  0  0  0  0  0  0  0  0  0  0  0
    0.8123    0.2786   -1.4364 H   0  0  0  0  0  0  0  0  0  0  0  0
    1.2831   -1.7626   -1.5145 C   0  0  0  0  0  0  0  0  0  0  0  0
    1.8672   -1.8887   -2.7691 N   0  0  0  0  0  0  0  0  0  0  0  0
    2.6694   -2.9243   -2.7127 C   0  0  0  0  0  0  0  0  0  0  0  0
    3.2720   -3.2892   -3.5395 H   0  0  0  0  0  0  0  0  0  0  0  0
    2.6326   -3.4787   -1.4489 N   0  0  0  0  0  0  0  0  0  0  0  0
    3.1512   -4.3024   -1.1501 H   0  0  0  0  0  0  0  0  0  0  0  0
    1.7547   -2.7431   -0.6830 C   0  0  0  0  0  0  0  0  0  0  0  0
    1.4835   -2.9128    0.3546 H   0  0  0  0  0  0  0  0  0  0  0  0
   -0.6451    0.8300    0.5470 C   0  0  0  0  0  0  0  0  0  0  0  0
   -1.6641    1.3359    0.0890 O   0  0  0  0  0  0  0  0  0  0  0  0
    0.1439    1.5575    1.4194 N   0  0  0  0  0  0  0  0  0  0  0  0
    0.9628    1.0996    1.8096 H   0  0  0  0  0  0  0  0  0  0  0  0
   -0.1571    2.9266    1.8194 C   0  0  0  0  0  0  0  0  0  0  0  0
   -1.1218    2.9726    2.3353 H   0  0  0  0  0  0  0  0  0  0  0  0
    0.6157    3.3006    2.4976 H   0  0  0  0  0  0  0  0  0  0  0  0
   -0.1946    3.5825    0.9433 H   0  0  0  0  0  0  0  0  0  0  0  0
  1  2  1  0  0  0  0
  2  3  1  0  0  0  0
  2  4  1  0  0  0  0
  2  5  1  0  0  0  0
  5  6  2  0  0  0  0
  5  7  1  0  0  0  0
  7  8  1  0  0  0  0
  7  9  1  0  0  0  0
  9 10  1  0  0  0  0
  9 11  1  0  0  0  0
  9 22  1  0  0  0  0
 11 12  1  0  0  0  0
 11 13  1  0  0  0  0
 11 14  1  0  0  0  0
 14 15  1  0  0  0  0
 14 20  2  0  0  0  0
 15 16  2  0  0  0  0
 16 17  1  0  0  0  0
 16 18  1  0  0  0  0
 18 19  1  0  0  0  0
 18 20  1  0  0  0  0
 20 21  1  0  0  0  0
 22 23  2  0  0  0  0
 22 24  1  0  0  0  0
 24 25  1  0  0  0  0
 24 26  1  0  0  0  0
 26 27  1  0  0  0  0
 26 28  1  0  0  0  0
 26 29  1  0  0  0  0
M  END
$$$$

  -OEChem-04042215593D

 29 29  0     1  0  0  0  0  0999 V2000
   -2.9420   -4.3829    1.3163 H   0  0  0  0  0  0  0  0  0  0  0  0
   -3.0088   -3.4150    0.8114 C   0  0  0  0  0  0  0  0  0  0  0  0
   -3.7781   -2.8139    1.3023 H   0  0  0  0  0  0  0  0  0  0  0  0
   -3.2950   -3.5810   -0.2300 H   0  0  0  0  0  0  0  0  0  0  0  0
   -1.6729   -2.6985    0.8735 C   0  0  0  0  0  0  0  0  0  0  0  0
   -0.7495   -3.1901    1.5013 O   0  0  0  0  0  0  0  0  0  0  0  0
   -1.5326   -1.4662    0.2728 N   0  0  0  0  0  0  0  0  0  0  0  0
   -2.3711   -1.0502   -0.1291 H   0  0  0  0  0  0  0  0  0  0  0  0
   -0.3038   -0.6586    0.2055 C   0  0  1  0  0  0  0  0  0  0  0  0
    0.4416   -1.0111    0.9255 H   0  0  0  0  0  0  0  0  0  0  0  0
    0.2739   -0.6936   -1.2279 C   0  0  0  0  0  0  0  0  0  0  0  0
   -0.5432   -0.7450   -1.9533 H   0  0  0  0  0  0  0  0  0  0  0  0
    0.8052    0.2455   -1.4141 H   0  0  0  0  0  0  0  0  0  0  0  0
    1.2559   -1.7944   -1.5271 C   0  0  0  0  0  0  0  0  0  0  0  0
    2.0538   -1.7316   -2.6636 N   0  0  0  0  0  0  0  0  0  0  0  0
    2.8317   -2.7866   -2.6432 C   0  0  0  0  0  0  0  0  0  0  0  0
    3.5703   -3.0292   -3.4018 H   0  0  0  0  0  0  0  0  0  0  0  0
    2.5749   -3.5359   -1.5130 N   0  0  0  0  0  0  0  0  0  0  0  0
    3.0478   -4.4008   -1.2577 H   0  0  0  0  0  0  0  0  0  0  0  0
    1.5839   -2.9029   -0.7946 C   0  0  0  0  0  0  0  0  0  0  0  0
    1.1636   -3.2126    0.1553 H   0  0  0  0  0  0  0  0  0  0  0  0
   -0.6439    0.8066    0.5488 C   0  0  0  0  0  0  0  0  0  0  0  0
   -1.6587    1.3216    0.0913 O   0  0  0  0  0  0  0  0  0  0  0  0
    0.1582    1.5296    1.4127 N   0  0  0  0  0  0  0  0  0  0  0  0
    0.9756    1.0647    1.7981 H   0  0  0  0  0  0  0  0  0  0  0  0
   -0.1200    2.9065    1.8020 C   0  0  0  0  0  0  0  0  0  0  0  0
   -1.0828    2.9717    2.3195 H   0  0  0  0  0  0  0  0  0  0  0  0
    0.6603    3.2737    2.4755 H   0  0  0  0  0  0  0  0  0  0  0  0
   -0.1487    3.5557    0.9205 H   0  0  0  0  0  0  0  0  0  0  0  0
  1  2  1  0  0  0  0
  2  3  1  0  0  0  0
  2  4  1  0  0  0  0
  2  5  1  0  0  0  0
  5  6  2  0  0  0  0
  5  7  1  0  0  0  0
  7  8  1  0  0  0  0
  7  9  1  0  0  0  0
  9 10  1  0  0  0  0
  9 11  1  0  0  0  0
  9 22  1  0  0  0  0
 11 12  1  0  0  0  0
 11 13  1  0  0  0  0
 11 14  1  0  0  0  0
 14 15  1  0  0  0  0
 14 20  2  0  0  0  0
 15 16  2  0  0  0  0
 16 17  1  0  0  0  0
 16 18  1  0  0  0  0
 18 19  1  0  0  0  0
 18 20  1  0  0  0  0
 20 21  1  0  0  0  0
 22 23  2  0  0  0  0
 22 24  1  0  0  0  0
 24 25  1  0  0  0  0
 24 26  1  0  0  0  0
 26 27  1  0  0  0  0
 26 28  1  0  0  0  0
 26 29  1  0  0  0  0
M  END
$$$$

  -OEChem-04042215593D

 29 29  0     1  0  0  0  0  0999 V2000
   -2.9911   -4.3616    1.3538 H   0  0  0  0  0  0  0  0  0  0  0  0
   -3.0451   -3.3966    0.8422 C   0  0  0  0  0  0  0  0  0  0  0  0
   -3.7960   -2.7766    1.3382 H   0  0  0  0  0  0  0  0  0  0  0  0
   -3.3479   -3.5648   -0.1942 H   0  0  0  0  0  0  0  0  0  0  0  0
   -1.6952   -2.7056    0.8829 C   0  0  0  0  0  0  0  0  0  0  0  0
   -0.7731   -3.2102    1.5023 O   0  0  0  0  0  0  0  0  0  0  0  0
   -1.5434   -1.4763    0.2796 N   0  0  0  0  0  0  0  0  0  0  0  0
   -2.3827   -1.0445   -0.1038 H   0  0  0  0  0  0  0  0  0  0  0  0
   -0.3078   -0.6796    0.2064 C   0  0  1  0  0  0  0  0  0  0  0  0
    0.4379   -1.0410    0.9225 H   0  0  0  0  0  0  0  0  0  0  0  0
    0.2755   -0.6990   -1.2256 C   0  0  0  0  0  0  0  0  0  0  0  0
   -0.5372   -0.7287   -1.9570 H   0  0  0  0  0  0  0  0  0  0  0  0
    0.8150    0.2396   -1.3895 H   0  0  0  0  0  0  0  0  0  0  0  0
    1.2537   -1.7985   -1.5409 C   0  0  0  0  0  0  0  0  0  0  0  0
    2.2602   -1.5910   -2.4774 N   0  0  0  0  0  0  0  0  0  0  0  0
    2.9779   -2.6872   -2.5181 C   0  0  0  0  0  0  0  0  0  0  0  0
    3.8425   -2.8412   -3.1578 H   0  0  0  0  0  0  0  0  0  0  0  0
    2.4733   -3.6092   -1.6238 N   0  0  0  0  0  0  0  0  0  0  0  0
    2.8579   -4.5362   -1.4519 H   0  0  0  0  0  0  0  0  0  0  0  0
    1.3848   -3.0454   -0.9940 C   0  0  0  0  0  0  0  0  0  0  0  0
    0.7714   -3.4936   -0.2227 H   0  0  0  0  0  0  0  0  0  0  0  0
   -0.6433    0.7869    0.5494 C   0  0  0  0  0  0  0  0  0  0  0  0
   -1.6601    1.3026    0.0963 O   0  0  0  0  0  0  0  0  0  0  0  0
    0.1625    1.5083    1.4107 N   0  0  0  0  0  0  0  0  0  0  0  0
    0.9845    1.0440    1.7874 H   0  0  0  0  0  0  0  0  0  0  0  0
   -0.1051    2.8897    1.7908 C   0  0  0  0  0  0  0  0  0  0  0  0
   -1.0717    2.9671    2.2997 H   0  0  0  0  0  0  0  0  0  0  0  0
    0.6730    3.2522    2.4694 H   0  0  0  0  0  0  0  0  0  0  0  0
   -0.1194    3.5346    0.9058 H   0  0  0  0  0  0  0  0  0  0  0  0
  1  2  1  0  0  0  0
  2  3  1  0  0  0  0
  2  4  1  0  0  0  0
  2  5  1  0  0  0  0
  5  6  2  0  0  0  0
  5  7  1  0  0  0  0
  7  8  1  0  0  0  0
  7  9  1  0  0  0  0
  9 10  1  0  0  0  0
  9 11  1  0  0  0  0
  9 22  1  0  0  0  0
 11 12  1  0  0  0  0
 11 13  1  0  0  0  0
 11 14  1  0  0  0  0
 14 15  1  0  0  0  0
 14 20  2  0  0  0  0
 15 16  2  0  0  0  0
 16 17  1  0  0  0  0
 16 18  1  0  0  0  0
 18 19  1  0  0  0  0
 18 20  1  0  0  0  0
 20 21  1  0  0  0  0
 22 23  2  0  0  0  0
 22 24  1  0  0  0  0
 24 25  1  0  0  0  0
 24 26  1  0  0  0  0
 26 27  1  0  0  0  0
 26 28  1  0  0  0  0
 26 29  1  0  0  0  0
M  END
$$$$

  -OEChem-04042215593D

 29 29  0     1  0  0  0  0  0999 V2000
   -2.9649   -4.3621    1.3778 H   0  0  0  0  0  0  0  0  0  0  0  0
   -3.0373   -3.3898    0.8826 C   0  0  0  0  0  0  0  0  0  0  0  0
   -3.7441   -2.7652    1.4344 H   0  0  0  0  0  0  0  0  0  0  0  0
   -3.4103   -3.5395   -0.1335 H   0  0  0  0  0  0  0  0  0  0  0  0
   -1.6766   -2.7201    0.8429 C   0  0  0  0  0  0  0  0  0  0  0  0
   -0.7188   -3.2604    1.3713 O   0  0  0  0  0  0  0  0  0  0  0  0
   -1.5452   -1.4822    0.2523 N   0  0  0  0  0  0  0  0  0  0  0  0
   -2.4027   -1.0229   -0.0514 H   0  0  0  0  0  0  0  0  0  0  0  0
   -0.3136   -0.6799    0.1730 C   0  0  1  0  0  0  0  0  0  0  0  0
    0.4367   -1.0472    0.8817 H   0  0  0  0  0  0  0  0  0  0  0  0
    0.2744   -0.6816   -1.2559 C   0  0  0  0  0  0  0  0  0  0  0  0
   -0.5337   -0.7203   -1.9918 H   0  0  0  0  0  0  0  0  0  0  0  0
    0.8066    0.2617   -1.4178 H   0  0  0  0  0  0  0  0  0  0  0  0
    1.2574   -1.7818   -1.5475 C   0  0  0  0  0  0  0  0  0  0  0  0
    2.4495   -1.5167   -2.2121 N   0  0  0  0  0  0  0  0  0  0  0  0
    3.0900   -2.6564   -2.3115 C   0  0  0  0  0  0  0  0  0  0  0  0
    4.0612   -2.7843   -2.7812 H   0  0  0  0  0  0  0  0  0  0  0  0
    2.3466   -3.6643   -1.7310 N   0  0  0  0  0  0  0  0  0  0  0  0
    2.6253   -4.6414   -1.6666 H   0  0  0  0  0  0  0  0  0  0  0  0
    1.1806   -3.1128   -1.2458 C   0  0  0  0  0  0  0  0  0  0  0  0
    0.3741   -3.6227   -0.7322 H   0  0  0  0  0  0  0  0  0  0  0  0
   -0.6495    0.7802    0.5398 C   0  0  0  0  0  0  0  0  0  0  0  0
   -1.6828    1.2919    0.1207 O   0  0  0  0  0  0  0  0  0  0  0  0
    0.1658    1.4927    1.3993 N   0  0  0  0  0  0  0  0  0  0  0  0
    1.0107    1.0366    1.7332 H   0  0  0  0  0  0  0  0  0  0  0  0
   -0.1011    2.8678    1.8019 C   0  0  0  0  0  0  0  0  0  0  0  0
   -1.0638    2.9361    2.3192 H   0  0  0  0  0  0  0  0  0  0  0  0
    0.6812    3.2215    2.4801 H   0  0  0  0  0  0  0  0  0  0  0  0
   -0.1229    3.5252    0.9265 H   0  0  0  0  0  0  0  0  0  0  0  0
  1  2  1  0  0  0  0
  2  3  1  0  0  0  0
  2  4  1  0  0  0  0
  2  5  1  0  0  0  0
  5  6  2  0  0  0  0
  5  7  1  0  0  0  0
  7  8  1  0  0  0  0
  7  9  1  0  0  0  0
  9 10  1  0  0  0  0
  9 11  1  0  0  0  0
  9 22  1  0  0  0  0
 11 12  1  0  0  0  0
 11 13  1  0  0  0  0
 11 14  1  0  0  0  0
 14 15  1  0  0  0  0
 14 20  2  0  0  0  0
 15 16  2  0  0  0  0
 16 17  1  0  0  0  0
 16 18  1  0  0  0  0
 18 19  1  0  0  0  0
 18 20  1  0  0  0  0
 20 21  1  0  0  0  0
 22 23  2  0  0  0  0
 22 24  1  0  0  0  0
 24 25  1  0  0  0  0
 24 26  1  0  0  0  0
 26 27  1  0  0  0  0
 26 28  1  0  0  0  0
 26 29  1  0  0  0  0
M  END
$$$$

  -OEChem-04042215593D

 29 29  0     1  0  0  0  0  0999 V2000
   -2.8958   -4.3853    1.3587 H   0  0  0  0  0  0  0  0  0  0  0  0
   -2.9965   -3.4008    0.8931 C   0  0  0  0  0  0  0  0  0  0  0  0
   -3.6609   -2.7877    1.5072 H   0  0  0  0  0  0  0  0  0  0  0  0
   -3.4382   -3.5235   -0.0987 H   0  0  0  0  0  0  0  0  0  0  0  0
   -1.6383   -2.7349    0.7773 C   0  0  0  0  0  0  0  0  0  0  0  0
   -0.6460   -3.3029    1.2023 O   0  0  0  0  0  0  0  0  0  0  0  0
   -1.5418   -1.4829    0.2094 N   0  0  0  0  0  0  0  0  0  0  0  0
   -2.4160   -1.0110   -0.0180 H   0  0  0  0  0  0  0  0  0  0  0  0
   -0.3211   -0.6650    0.1260 C   0  0  1  0  0  0  0  0  0  0  0  0
    0.4391   -1.0369    0.8219 H   0  0  0  0  0  0  0  0  0  0  0  0
    0.2523   -0.6596   -1.3052 C   0  0  0  0  0  0  0  0  0  0  0  0
   -0.5612   -0.7244   -2.0334 H   0  0  0  0  0  0  0  0  0  0  0  0
    0.7727    0.2863   -1.4874 H   0  0  0  0  0  0  0  0  0  0  0  0
    1.2372   -1.7646   -1.5554 C   0  0  0  0  0  0  0  0  0  0  0  0
    2.5525   -1.5082   -1.9236 N   0  0  0  0  0  0  0  0  0  0  0  0
    3.1324   -2.6753   -2.0725 C   0  0  0  0  0  0  0  0  0  0  0  0
    4.1718   -2.8204   -2.3524 H   0  0  0  0  0  0  0  0  0  0  0  0
    2.2275   -3.6881   -1.8221 N   0  0  0  0  0  0  0  0  0  0  0  0
    2.4354   -4.6845   -1.8452 H   0  0  0  0  0  0  0  0  0  0  0  0
    1.0180   -3.1119   -1.4994 C   0  0  0  0  0  0  0  0  0  0  0  0
    0.0901   -3.6096   -1.2378 H   0  0  0  0  0  0  0  0  0  0  0  0
   -0.6548    0.7855    0.5270 C   0  0  0  0  0  0  0  0  0  0  0  0
   -1.7044    1.2951    0.1479 O   0  0  0  0  0  0  0  0  0  0  0  0
    0.1744    1.4842    1.3844 N   0  0  0  0  0  0  0  0  0  0  0  0
    1.0363    1.0313    1.6773 H   0  0  0  0  0  0  0  0  0  0  0  0
   -0.0917    2.8477    1.8251 C   0  0  0  0  0  0  0  0  0  0  0  0
   -1.0504    2.9009    2.3516 H   0  0  0  0  0  0  0  0  0  0  0  0
    0.6954    3.1841    2.5068 H   0  0  0  0  0  0  0  0  0  0  0  0
   -0.1216    3.5284    0.9678 H   0  0  0  0  0  0  0  0  0  0  0  0
  1  2  1  0  0  0  0
  2  3  1  0  0  0  0
  2  4  1  0  0  0  0
  2  5  1  0  0  0  0
  5  6  2  0  0  0  0
  5  7  1  0  0  0  0
  7  8  1  0  0  0  0
  7  9  1  0  0  0  0
  9 10  1  0  0  0  0
  9 11  1  0  0  0  0
  9 22  1  0  0  0  0
 11 12  1  0  0  0  0
 11 13  1  0  0  0  0
 11 14  1  0  0  0  0
 14 15  1  0  0  0  0
 14 20  2  0  0  0  0
 15 16  2  0  0  0  0
 16 17  1  0  0  0  0
 16 18  1  0  0  0  0
 18 19  1  0  0  0  0
 18 20  1  0  0  0  0
 20 21  1  0  0  0  0
 22 23  2  0  0  0  0
 22 24  1  0  0  0  0
 24 25  1  0  0  0  0
 24 26  1  0  0  0  0
 26 27  1  0  0  0  0
 26 28  1  0  0  0  0
 26 29  1  0  0  0  0
M  END
$$$$

  -OEChem-04042215593D

 29 29  0     1  0  0  0  0  0999 V2000
   -2.8340   -4.4092    1.3294 H   0  0  0  0  0  0  0  0  0  0  0  0
   -2.9578   -3.4180    0.8841 C   0  0  0  0  0  0  0  0  0  0  0  0
   -3.5967   -2.8170    1.5359 H   0  0  0  0  0  0  0  0  0  0  0  0
   -3.4420   -3.5271   -0.0893 H   0  0  0  0  0  0  0  0  0  0  0  0
   -1.6077   -2.7457    0.7196 C   0  0  0  0  0  0  0  0  0  0  0  0
   -0.5951   -3.3246    1.0757 O   0  0  0  0  0  0  0  0  0  0  0  0
   -1.5407   -1.4820    0.1731 N   0  0  0  0  0  0  0  0  0  0  0  0
   -2.4253   -1.0058    0.0031 H   0  0  0  0  0  0  0  0  0  0  0  0
   -0.3295   -0.6510    0.0882 C   0  0  1  0  0  0  0  0  0  0  0  0
    0.4400   -1.0282    0.7717 H   0  0  0  0  0  0  0  0  0  0  0  0
    0.2250   -0.6419   -1.3472 C   0  0  0  0  0  0  0  0  0  0  0  0
   -0.5953   -0.7270   -2.0655 H   0  0  0  0  0  0  0  0  0  0  0  0
    0.7380    0.3039   -1.5489 H   0  0  0  0  0  0  0  0  0  0  0  0
    1.2081   -1.7519   -1.5633 C   0  0  0  0  0  0  0  0  0  0  0  0
    2.5789   -1.5360   -1.6276 N   0  0  0  0  0  0  0  0  0  0  0  0
    3.1258   -2.7105   -1.8345 C   0  0  0  0  0  0  0  0  0  0  0  0
    4.1935   -2.8897   -1.9242 H   0  0  0  0  0  0  0  0  0  0  0  0
    2.1468   -3.6819   -1.9234 N   0  0  0  0  0  0  0  0  0  0  0  0
    2.3147   -4.6780   -2.0485 H   0  0  0  0  0  0  0  0  0  0  0  0
    0.9219   -3.0727   -1.7585 C   0  0  0  0  0  0  0  0  0  0  0  0
   -0.0625   -3.5296   -1.7505 H   0  0  0  0  0  0  0  0  0  0  0  0
   -0.6572    0.7914    0.5186 C   0  0  0  0  0  0  0  0  0  0  0  0
   -1.7155    1.3036    0.1681 O   0  0  0  0  0  0  0  0  0  0  0  0
    0.1852    1.4765    1.3740 N   0  0  0  0  0  0  0  0  0  0  0  0
    1.0572    1.0235    1.6356 H   0  0  0  0  0  0  0  0  0  0  0  0
   -0.0745    2.8321    1.8410 C   0  0  0  0  0  0  0  0  0  0  0  0
   -1.0206    2.8739    2.3909 H   0  0  0  0  0  0  0  0  0  0  0  0
    0.7273    3.1614    2.5088 H   0  0  0  0  0  0  0  0  0  0  0  0
   -0.1268    3.5248    0.9945 H   0  0  0  0  0  0  0  0  0  0  0  0
  1  2  1  0  0  0  0
  2  3  1  0  0  0  0
  2  4  1  0  0  0  0
  2  5  1  0  0  0  0
  5  6  2  0  0  0  0
  5  7  1  0  0  0  0
  7  8  1  0  0  0  0
  7  9  1  0  0  0  0
  9 10  1  0  0  0  0
  9 11  1  0  0  0  0
  9 22  1  0  0  0  0
 11 12  1  0  0  0  0
 11 13  1  0  0  0  0
 11 14  1  0  0  0  0
 14 15  1  0  0  0  0
 14 20  2  0  0  0  0
 15 16  2  0  0  0  0
 16 17  1  0  0  0  0
 16 18  1  0  0  0  0
 18 19  1  0  0  0  0
 18 20  1  0  0  0  0
 20 21  1  0  0  0  0
 22 23  2  0  0  0  0
 22 24  1  0  0  0  0
 24 25  1  0  0  0  0
 24 26  1  0  0  0  0
 26 27  1  0  0  0  0
 26 28  1  0  0  0  0
 26 29  1  0  0  0  0
M  END
$$$$

  -OEChem-04042215593D

 29 29  0     1  0  0  0  0  0999 V2000
   -2.7879   -4.4313    1.3026 H   0  0  0  0  0  0  0  0  0  0  0  0
   -2.9301   -3.4363    0.8714 C   0  0  0  0  0  0  0  0  0  0  0  0
   -3.5628   -2.8497    1.5420 H   0  0  0  0  0  0  0  0  0  0  0  0
   -3.4304   -3.5390   -0.0944 H   0  0  0  0  0  0  0  0  0  0  0  0
   -1.5900   -2.7485    0.6903 C   0  0  0  0  0  0  0  0  0  0  0  0
   -0.5664   -3.3210    1.0248 O   0  0  0  0  0  0  0  0  0  0  0  0
   -1.5436   -1.4787    0.1549 N   0  0  0  0  0  0  0  0  0  0  0  0
   -2.4335   -1.0077    0.0004 H   0  0  0  0  0  0  0  0  0  0  0  0
   -0.3375   -0.6412    0.0681 C   0  0  1  0  0  0  0  0  0  0  0  0
    0.4385   -1.0201    0.7433 H   0  0  0  0  0  0  0  0  0  0  0  0
    0.2009   -0.6317   -1.3717 C   0  0  0  0  0  0  0  0  0  0  0  0
   -0.6248   -0.7219   -2.0833 H   0  0  0  0  0  0  0  0  0  0  0  0
    0.7149    0.3113   -1.5826 H   0  0  0  0  0  0  0  0  0  0  0  0
    1.1801   -1.7463   -1.5701 C   0  0  0  0  0  0  0  0  0  0  0  0
    2.5421   -1.6030   -1.3393 N   0  0  0  0  0  0  0  0  0  0  0  0
    3.0819   -2.7656   -1.6198 C   0  0  0  0  0  0  0  0  0  0  0  0
    4.1397   -2.9950   -1.5289 H   0  0  0  0  0  0  0  0  0  0  0  0
    2.1115   -3.6509   -2.0513 N   0  0  0  0  0  0  0  0  0  0  0  0
    2.2721   -4.6250   -2.2997 H   0  0  0  0  0  0  0  0  0  0  0  0
    0.8964   -3.0009   -2.0284 C   0  0  0  0  0  0  0  0  0  0  0  0
   -0.0832   -3.3902   -2.2863 H   0  0  0  0  0  0  0  0  0  0  0  0
   -0.6596    0.7966    0.5147 C   0  0  0  0  0  0  0  0  0  0  0  0
   -1.7191    1.3150    0.1772 O   0  0  0  0  0  0  0  0  0  0  0  0
    0.1933    1.4712    1.3677 N   0  0  0  0  0  0  0  0  0  0  0  0
    1.0651    1.0107    1.6176 H   0  0  0  0  0  0  0  0  0  0  0  0
   -0.0546    2.8246    1.8472 C   0  0  0  0  0  0  0  0  0  0  0  0
   -0.9901    2.8651    2.4148 H   0  0  0  0  0  0  0  0  0  0  0  0
    0.7605    3.1484    2.5016 H   0  0  0  0  0  0  0  0  0  0  0  0
   -0.1212    3.5224    1.0060 H   0  0  0  0  0  0  0  0  0  0  0  0
  1  2  1  0  0  0  0
  2  3  1  0  0  0  0
  2  4  1  0  0  0  0
  2  5  1  0  0  0  0
  5  6  2  0  0  0  0
  5  7  1  0  0  0  0
  7  8  1  0  0  0  0
  7  9  1  0  0  0  0
  9 10  1  0  0  0  0
  9 11  1  0  0  0  0
  9 22  1  0  0  0  0
 11 12  1  0  0  0  0
 11 13  1  0  0  0  0
 11 14  1  0  0  0  0
 14 15  1  0  0  0  0
 14 20  2  0  0  0  0
 15 16  2  0  0  0  0
 16 17  1  0  0  0  0
 16 18  1  0  0  0  0
 18 19  1  0  0  0  0
 18 20  1  0  0  0  0
 20 21  1  0  0  0  0
 22 23  2  0  0  0  0
 22 24  1  0  0  0  0
 24 25  1  0  0  0  0
 24 26  1  0  0  0  0
 26 27  1  0  0  0  0
 26 28  1  0  0  0  0
 26 29  1  0  0  0  0
M  END
$$$$

  -OEChem-04042215593D

 29 29  0     1  0  0  0  0  0999 V2000
   -2.7630   -4.4442    1.2786 H   0  0  0  0  0  0  0  0  0  0  0  0
   -2.9116   -3.4478    0.8532 C   0  0  0  0  0  0  0  0  0  0  0  0
   -3.5465   -2.8686    1.5282 H   0  0  0  0  0  0  0  0  0  0  0  0
   -3.4130   -3.5478   -0.1124 H   0  0  0  0  0  0  0  0  0  0  0  0
   -1.5760   -2.7511    0.6734 C   0  0  0  0  0  0  0  0  0  0  0  0
   -0.5484   -3.3202    1.0016 O   0  0  0  0  0  0  0  0  0  0  0  0
   -1.5408   -1.4772    0.1469 N   0  0  0  0  0  0  0  0  0  0  0  0
   -2.4345   -1.0120   -0.0016 H   0  0  0  0  0  0  0  0  0  0  0  0
   -0.3398   -0.6333    0.0540 C   0  0  1  0  0  0  0  0  0  0  0  0
    0.4436   -1.0135    0.7199 H   0  0  0  0  0  0  0  0  0  0  0  0
    0.1782   -0.6230   -1.3934 C   0  0  0  0  0  0  0  0  0  0  0  0
   -0.6562   -0.7119   -2.0951 H   0  0  0  0  0  0  0  0  0  0  0  0
    0.6915    0.3194   -1.6075 H   0  0  0  0  0  0  0  0  0  0  0  0
    1.1577   -1.7362   -1.5969 C   0  0  0  0  0  0  0  0  0  0  0  0
    2.4562   -1.6954   -1.1050 N   0  0  0  0  0  0  0  0  0  0  0  0
    3.0094   -2.8342   -1.4488 C   0  0  0  0  0  0  0  0  0  0  0  0
    4.0254   -3.1280   -1.2017 H   0  0  0  0  0  0  0  0  0  0  0  0
    2.1153   -3.6001   -2.1741 N   0  0  0  0  0  0  0  0  0  0  0  0
    2.2964   -4.5377   -2.5269 H   0  0  0  0  0  0  0  0  0  0  0  0
    0.9321   -2.9000   -2.2750 C   0  0  0  0  0  0  0  0  0  0  0  0
    0.0075   -3.2021   -2.7560 H   0  0  0  0  0  0  0  0  0  0  0  0
   -0.6581    0.8010    0.5126 C   0  0  0  0  0  0  0  0  0  0  0  0
   -1.7182    1.3238    0.1838 O   0  0  0  0  0  0  0  0  0  0  0  0
    0.2047    1.4696    1.3603 N   0  0  0  0  0  0  0  0  0  0  0  0
    1.0746    1.0021    1.6046 H   0  0  0  0  0  0  0  0  0  0  0  0
   -0.0387    2.8176    1.8565 C   0  0  0  0  0  0  0  0  0  0  0  0
   -0.9800    2.8571    2.4147 H   0  0  0  0  0  0  0  0  0  0  0  0
    0.7715    3.1258    2.5242 H   0  0  0  0  0  0  0  0  0  0  0  0
   -0.0914    3.5273    1.0244 H   0  0  0  0  0  0  0  0  0  0  0  0
  1  2  1  0  0  0  0
  2  3  1  0  0  0  0
  2  4  1  0  0  0  0
  2  5  1  0  0  0  0
  5  6  2  0  0  0  0
  5  7  1  0  0  0  0
  7  8  1  0  0  0  0
  7  9  1  0  0  0  0
  9 10  1  0  0  0  0
  9 11  1  0  0  0  0
  9 22  1  0  0  0  0
 11 12  1  0  0  0  0
 11 13  1  0  0  0  0
 11 14  1  0  0  0  0
 14 15  1  0  0  0  0
 14 20  2  0  0  0  0
 15 16  2  0  0  0  0
 16 17  1  0  0  0  0
 16 18  1  0  0  0  0
 18 19  1  0  0  0  0
 18 20  1  0  0  0  0
 20 21  1  0  0  0  0
 22 23  2  0  0  0  0
 22 24  1  0  0  0  0
 24 25  1  0  0  0  0
 24 26  1  0  0  0  0
 26 27  1  0  0  0  0
 26 28  1  0  0  0  0
 26 29  1  0  0  0  0
M  END
$$$$

  -OEChem-04042215593D

 29 29  0     1  0  0  0  0  0999 V2000
   -2.7492   -4.4504    1.2638 H   0  0  0  0  0  0  0  0  0  0  0  0
   -2.8982   -3.4547    0.8365 C   0  0  0  0  0  0  0  0  0  0  0  0
   -3.5437   -2.8782    1.5036 H   0  0  0  0  0  0  0  0  0  0  0  0
   -3.3879   -3.5578   -0.1348 H   0  0  0  0  0  0  0  0  0  0  0  0
   -1.5639   -2.7518    0.6717 C   0  0  0  0  0  0  0  0  0  0  0  0
   -0.5386   -3.3172    1.0123 O   0  0  0  0  0  0  0  0  0  0  0  0
   -1.5312   -1.4769    0.1471 N   0  0  0  0  0  0  0  0  0  0  0  0
   -2.4264   -1.0168   -0.0064 H   0  0  0  0  0  0  0  0  0  0  0  0
   -0.3337   -0.6278    0.0563 C   0  0  1  0  0  0  0  0  0  0  0  0
    0.4495   -1.0056    0.7232 H   0  0  0  0  0  0  0  0  0  0  0  0
    0.1777   -0.6174   -1.3952 C   0  0  0  0  0  0  0  0  0  0  0  0
   -0.6593   -0.6984   -2.0947 H   0  0  0  0  0  0  0  0  0  0  0  0
    0.6907    0.3266   -1.6020 H   0  0  0  0  0  0  0  0  0  0  0  0
    1.1625   -1.7241   -1.6186 C   0  0  0  0  0  0  0  0  0  0  0  0
    2.3531   -1.8385   -0.9114 N   0  0  0  0  0  0  0  0  0  0  0  0
    2.9209   -2.9437   -1.3309 C   0  0  0  0  0  0  0  0  0  0  0  0
    3.8659   -3.3325   -0.9624 H   0  0  0  0  0  0  0  0  0  0  0  0
    2.1462   -3.5355   -2.3116 N   0  0  0  0  0  0  0  0  0  0  0  0
    2.3572   -4.4182   -2.7726 H   0  0  0  0  0  0  0  0  0  0  0  0
    1.0220   -2.7597   -2.4986 C   0  0  0  0  0  0  0  0  0  0  0  0
    0.1857   -2.9336   -3.1683 H   0  0  0  0  0  0  0  0  0  0  0  0
   -0.6567    0.8051    0.5157 C   0  0  0  0  0  0  0  0  0  0  0  0
   -1.7134    1.3292    0.1782 O   0  0  0  0  0  0  0  0  0  0  0  0
    0.2032    1.4760    1.3645 N   0  0  0  0  0  0  0  0  0  0  0  0
    1.0656    1.0028    1.6240 H   0  0  0  0  0  0  0  0  0  0  0  0
   -0.0434    2.8233    1.8614 C   0  0  0  0  0  0  0  0  0  0  0  0
   -0.9831    2.8598    2.4226 H   0  0  0  0  0  0  0  0  0  0  0  0
    0.7679    3.1342    2.5266 H   0  0  0  0  0  0  0  0  0  0  0  0
   -0.1008    3.5332    1.0296 H   0  0  0  0  0  0  0  0  0  0  0  0
  1  2  1  0  0  0  0
  2  3  1  0  0  0  0
  2  4  1  0  0  0  0
  2  5  1  0  0  0  0
  5  6  2  0  0  0  0
  5  7  1  0  0  0  0
  7  8  1  0  0  0  0
  7  9  1  0  0  0  0
  9 10  1  0  0  0  0
  9 11  1  0  0  0  0
  9 22  1  0  0  0  0
 11 12  1  0  0  0  0
 11 13  1  0  0  0  0
 11 14  1  0  0  0  0
 14 15  1  0  0  0  0
 14 20  2  0  0  0  0
 15 16  2  0  0  0  0
 16 17  1  0  0  0  0
 16 18  1  0  0  0  0
 18 19  1  0  0  0  0
 18 20  1  0  0  0  0
 20 21  1  0  0  0  0
 22 23  2  0  0  0  0
 22 24  1  0  0  0  0
 24 25  1  0  0  0  0
 24 26  1  0  0  0  0
 26 27  1  0  0  0  0
 26 28  1  0  0  0  0
 26 29  1  0  0  0  0
M  END
$$$$

  -OEChem-04042215593D

 29 29  0     1  0  0  0  0  0999 V2000
   -2.7522   -4.4522    1.2530 H   0  0  0  0  0  0  0  0  0  0  0  0
   -2.8938   -3.4594    0.8168 C   0  0  0  0  0  0  0  0  0  0  0  0
   -3.5707   -2.8876    1.4562 H   0  0  0  0  0  0  0  0  0  0  0  0
   -3.3437   -3.5708   -0.1727 H   0  0  0  0  0  0  0  0  0  0  0  0
   -1.5605   -2.7443    0.7024 C   0  0  0  0  0  0  0  0  0  0  0  0
   -0.5483   -3.2936    1.1020 O   0  0  0  0  0  0  0  0  0  0  0  0
   -1.5185   -1.4745    0.1656 N   0  0  0  0  0  0  0  0  0  0  0  0
   -2.4104   -1.0280   -0.0378 H   0  0  0  0  0  0  0  0  0  0  0  0
   -0.3213   -0.6237    0.0772 C   0  0  1  0  0  0  0  0  0  0  0  0
    0.4570   -0.9931    0.7536 H   0  0  0  0  0  0  0  0  0  0  0  0
    0.1936   -0.6217   -1.3758 C   0  0  0  0  0  0  0  0  0  0  0  0
   -0.6432   -0.6935   -2.0765 H   0  0  0  0  0  0  0  0  0  0  0  0
    0.7077    0.3234   -1.5747 H   0  0  0  0  0  0  0  0  0  0  0  0
    1.1849   -1.7208   -1.6236 C   0  0  0  0  0  0  0  0  0  0  0  0
    2.2326   -2.0346   -0.7662 N   0  0  0  0  0  0  0  0  0  0  0  0
    2.8238   -3.0884   -1.2741 C   0  0  0  0  0  0  0  0  0  0  0  0
    3.6767   -3.5942   -0.8308 H   0  0  0  0  0  0  0  0  0  0  0  0
    2.2070   -3.4541   -2.4560 N   0  0  0  0  0  0  0  0  0  0  0  0
    2.4658   -4.2549   -3.0288 H   0  0  0  0  0  0  0  0  0  0  0  0
    1.1578   -2.5876   -2.6801 C   0  0  0  0  0  0  0  0  0  0  0  0
    0.4405   -2.5953   -3.4947 H   0  0  0  0  0  0  0  0  0  0  0  0
   -0.6520    0.8131    0.5187 C   0  0  0  0  0  0  0  0  0  0  0  0
   -1.6993    1.3378    0.1536 O   0  0  0  0  0  0  0  0  0  0  0  0
    0.1985    1.4941    1.3691 N   0  0  0  0  0  0  0  0  0  0  0  0
    1.0443    1.0130    1.6662 H   0  0  0  0  0  0  0  0  0  0  0  0
   -0.0628    2.8398    1.8627 C   0  0  0  0  0  0  0  0  0  0  0  0
   -0.9872    2.8598    2.4492 H   0  0  0  0  0  0  0  0  0  0  0  0
    0.7602    3.1732    2.5021 H   0  0  0  0  0  0  0  0  0  0  0  0
   -0.1584    3.5425    1.0284 H   0  0  0  0  0  0  0  0  0  0  0  0
  1  2  1  0  0  0  0
  2  3  1  0  0  0  0
  2  4  1  0  0  0  0
  2  5  1  0  0  0  0
  5  6  2  0  0  0  0
  5  7  1  0  0  0  0
  7  8  1  0  0  0  0
  7  9  1  0  0  0  0
  9 10  1  0  0  0  0
  9 11  1  0  0  0  0
  9 22  1  0  0  0  0
 11 12  1  0  0  0  0
 11 13  1  0  0  0  0
 11 14  1  0  0  0  0
 14 15  1  0  0  0  0
 14 20  2  0  0  0  0
 15 16  2  0  0  0  0
 16 17  1  0  0  0  0
 16 18  1  0  0  0  0
 18 19  1  0  0  0  0
 18 20  1  0  0  0  0
 20 21  1  0  0  0  0
 22 23  2  0  0  0  0
 22 24  1  0  0  0  0
 24 25  1  0  0  0  0
 24 26  1  0  0  0  0
 26 27  1  0  0  0  0
 26 28  1  0  0  0  0
 26 29  1  0  0  0  0
M  END
$$$$

  -OEChem-04042215593D

 29 29  0     1  0  0  0  0  0999 V2000
   -2.7623   -4.4598    1.2403 H   0  0  0  0  0  0  0  0  0  0  0  0
   -2.8905   -3.4708    0.7915 C   0  0  0  0  0  0  0  0  0  0  0  0
   -3.6139   -2.9060    1.3846 H   0  0  0  0  0  0  0  0  0  0  0  0
   -3.2759   -3.5926   -0.2236 H   0  0  0  0  0  0  0  0  0  0  0  0
   -1.5629   -2.7370    0.7570 C   0  0  0  0  0  0  0  0  0  0  0  0
   -0.5785   -3.2555    1.2545 O   0  0  0  0  0  0  0  0  0  0  0  0
   -1.5052   -1.4758    0.2017 N   0  0  0  0  0  0  0  0  0  0  0  0
   -2.3865   -1.0532   -0.0817 H   0  0  0  0  0  0  0  0  0  0  0  0
   -0.3065   -0.6271    0.1179 C   0  0  1  0  0  0  0  0  0  0  0  0
    0.4677   -0.9872    0.8036 H   0  0  0  0  0  0  0  0  0  0  0  0
    0.2130   -0.6322   -1.3356 C   0  0  0  0  0  0  0  0  0  0  0  0
   -0.6237   -0.6957   -2.0375 H   0  0  0  0  0  0  0  0  0  0  0  0
    0.7283    0.3137   -1.5280 H   0  0  0  0  0  0  0  0  0  0  0  0
    1.2071   -1.7245   -1.6102 C   0  0  0  0  0  0  0  0  0  0  0  0
    2.0846   -2.2637   -0.6785 N   0  0  0  0  0  0  0  0  0  0  0  0
    2.7152   -3.2436   -1.2773 C   0  0  0  0  0  0  0  0  0  0  0  0
    3.4656   -3.8754   -0.8107 H   0  0  0  0  0  0  0  0  0  0  0  0
    2.2868   -3.3476   -2.5873 N   0  0  0  0  0  0  0  0  0  0  0  0
    2.6103   -4.0433   -3.2564 H   0  0  0  0  0  0  0  0  0  0  0  0
    1.3205   -2.3868   -2.8010 C   0  0  0  0  0  0  0  0  0  0  0  0
    0.7461   -2.2004   -3.7033 H   0  0  0  0  0  0  0  0  0  0  0  0
   -0.6476    0.8154    0.5322 C   0  0  0  0  0  0  0  0  0  0  0  0
   -1.6757    1.3435    0.1202 O   0  0  0  0  0  0  0  0  0  0  0  0
    0.1884    1.5103    1.3859 N   0  0  0  0  0  0  0  0  0  0  0  0
    1.0135    1.0238    1.7288 H   0  0  0  0  0  0  0  0  0  0  0  0
   -0.0780    2.8667    1.8466 C   0  0  0  0  0  0  0  0  0  0  0  0
   -1.0236    2.9054    2.3973 H   0  0  0  0  0  0  0  0  0  0  0  0
    0.7236    3.2036    2.5109 H   0  0  0  0  0  0  0  0  0  0  0  0
   -0.1354    3.5553    0.9972 H   0  0  0  0  0  0  0  0  0  0  0  0
  1  2  1  0  0  0  0
  2  3  1  0  0  0  0
  2  4  1  0  0  0  0
  2  5  1  0  0  0  0
  5  6  2  0  0  0  0
  5  7  1  0  0  0  0
  7  8  1  0  0  0  0
  7  9  1  0  0  0  0
  9 10  1  0  0  0  0
  9 11  1  0  0  0  0
  9 22  1  0  0  0  0
 11 12  1  0  0  0  0
 11 13  1  0  0  0  0
 11 14  1  0  0  0  0
 14 15  1  0  0  0  0
 14 20  2  0  0  0  0
 15 16  2  0  0  0  0
 16 17  1  0  0  0  0
 16 18  1  0  0  0  0
 18 19  1  0  0  0  0
 18 20  1  0  0  0  0
 20 21  1  0  0  0  0
 22 23  2  0  0  0  0
 22 24  1  0  0  0  0
 24 25  1  0  0  0  0
 24 26  1  0  0  0  0
 26 27  1  0  0  0  0
 26 28  1  0  0  0  0
 26 29  1  0  0  0  0
M  END
$$$$

  -OEChem-04042215593D

 29 29  0     1  0  0  0  0  0999 V2000
   -2.7720   -4.4684    1.2283 H   0  0  0  0  0  0  0  0  0  0  0  0
   -2.8882   -3.4851    0.7638 C   0  0  0  0  0  0  0  0  0  0  0  0
   -3.6637   -2.9313    1.2980 H   0  0  0  0  0  0  0  0  0  0  0  0
   -3.1965   -3.6216   -0.2752 H   0  0  0  0  0  0  0  0  0  0  0  0
   -1.5773   -2.7230    0.8188 C   0  0  0  0  0  0  0  0  0  0  0  0
   -0.6326   -3.1999    1.4234 O   0  0  0  0  0  0  0  0  0  0  0  0
   -1.5028   -1.4717    0.2434 N   0  0  0  0  0  0  0  0  0  0  0  0
   -2.3643   -1.0793   -0.1283 H   0  0  0  0  0  0  0  0  0  0  0  0
   -0.2971   -0.6331    0.1580 C   0  0  1  0  0  0  0  0  0  0  0  0
    0.4768   -0.9891    0.8466 H   0  0  0  0  0  0  0  0  0  0  0  0
    0.2213   -0.6490   -1.2980 C   0  0  0  0  0  0  0  0  0  0  0  0
   -0.6191   -0.7069   -1.9961 H   0  0  0  0  0  0  0  0  0  0  0  0
    0.7402    0.2943   -1.4941 H   0  0  0  0  0  0  0  0  0  0  0  0
    1.2077   -1.7446   -1.5930 C   0  0  0  0  0  0  0  0  0  0  0  0
    1.8886   -2.5082   -0.6557 N   0  0  0  0  0  0  0  0  0  0  0  0
    2.5896   -3.3933   -1.3193 C   0  0  0  0  0  0  0  0  0  0  0  0
    3.2287   -4.1457   -0.8661 H   0  0  0  0  0  0  0  0  0  0  0  0
    2.3944   -3.2219   -2.6764 N   0  0  0  0  0  0  0  0  0  0  0  0
    2.8182   -3.7909   -3.4066 H   0  0  0  0  0  0  0  0  0  0  0  0
    1.5100   -2.1784   -2.8543 C   0  0  0  0  0  0  0  0  0  0  0  0
    1.1144   -1.7850   -3.7857 H   0  0  0  0  0  0  0  0  0  0  0  0
   -0.6385    0.8175    0.5468 C   0  0  0  0  0  0  0  0  0  0  0  0
   -1.6462    1.3518    0.0941 O   0  0  0  0  0  0  0  0  0  0  0  0
    0.1885    1.5251    1.3992 N   0  0  0  0  0  0  0  0  0  0  0  0
    0.9869    1.0312    1.7906 H   0  0  0  0  0  0  0  0  0  0  0  0
   -0.0791    2.8919    1.8281 C   0  0  0  0  0  0  0  0  0  0  0  0
   -1.0354    2.9469    2.3586 H   0  0  0  0  0  0  0  0  0  0  0  0
    0.7106    3.2381    2.5019 H   0  0  0  0  0  0  0  0  0  0  0  0
   -0.1156    3.5637    0.9641 H   0  0  0  0  0  0  0  0  0  0  0  0
  1  2  1  0  0  0  0
  2  3  1  0  0  0  0
  2  4  1  0  0  0  0
  2  5  1  0  0  0  0
  5  6  2  0  0  0  0
  5  7  1  0  0  0  0
  7  8  1  0  0  0  0
  7  9  1  0  0  0  0
  9 10  1  0  0  0  0
  9 11  1  0  0  0  0
  9 22  1  0  0  0  0
 11 12  1  0  0  0  0
 11 13  1  0  0  0  0
 11 14  1  0  0  0  0
 14 15  1  0  0  0  0
 14 20  2  0  0  0  0
 15 16  2  0  0  0  0
 16 17  1  0  0  0  0
 16 18  1  0  0  0  0
 18 19  1  0  0  0  0
 18 20  1  0  0  0  0
 20 21  1  0  0  0  0
 22 23  2  0  0  0  0
 22 24  1  0  0  0  0
 24 25  1  0  0  0  0
 24 26  1  0  0  0  0
 26 27  1  0  0  0  0
 26 28  1  0  0  0  0
 26 29  1  0  0  0  0
M  END
$$$$

  -OEChem-04042215593D

 29 29  0     1  0  0  0  0  0999 V2000
   -2.7694   -4.4670    1.2500 H   0  0  0  0  0  0  0  0  0  0  0  0
   -2.8754   -3.5059    0.7391 C   0  0  0  0  0  0  0  0  0  0  0  0
   -3.7102   -2.9593    1.1839 H   0  0  0  0  0  0  0  0  0  0  0  0
   -3.0891   -3.6908   -0.3162 H   0  0  0  0  0  0  0  0  0  0  0  0
   -1.5974   -2.6997    0.8743 C   0  0  0  0  0  0  0  0  0  0  0  0
   -0.6970   -3.1179    1.5825 O   0  0  0  0  0  0  0  0  0  0  0  0
   -1.5175   -1.4583    0.2777 N   0  0  0  0  0  0  0  0  0  0  0  0
   -2.3497   -1.1128   -0.1929 H   0  0  0  0  0  0  0  0  0  0  0  0
   -0.3011   -0.6374    0.1805 C   0  0  1  0  0  0  0  0  0  0  0  0
    0.4762   -0.9976    0.8630 H   0  0  0  0  0  0  0  0  0  0  0  0
    0.2072   -0.6586   -1.2801 C   0  0  0  0  0  0  0  0  0  0  0  0
   -0.6426   -0.7163   -1.9664 H   0  0  0  0  0  0  0  0  0  0  0  0
    0.7274    0.2814   -1.4885 H   0  0  0  0  0  0  0  0  0  0  0  0
    1.1758   -1.7651   -1.5914 C   0  0  0  0  0  0  0  0  0  0  0  0
    1.6359   -2.7319   -0.7105 N   0  0  0  0  0  0  0  0  0  0  0  0
    2.4369   -3.5176   -1.3857 C   0  0  0  0  0  0  0  0  0  0  0  0
    2.9555   -4.3783   -0.9732 H   0  0  0  0  0  0  0  0  0  0  0  0
    2.5208   -3.0841   -2.6950 N   0  0  0  0  0  0  0  0  0  0  0  0
    3.0770   -3.5249   -3.4250 H   0  0  0  0  0  0  0  0  0  0  0  0
    1.7180   -1.9705   -2.8302 C   0  0  0  0  0  0  0  0  0  0  0  0
    1.5368   -1.3774   -3.7215 H   0  0  0  0  0  0  0  0  0  0  0  0
   -0.6277    0.8220    0.5500 C   0  0  0  0  0  0  0  0  0  0  0  0
   -1.6145    1.3712    0.0699 O   0  0  0  0  0  0  0  0  0  0  0  0
    0.2075    1.5302    1.3939 N   0  0  0  0  0  0  0  0  0  0  0  0
    0.9756    1.0196    1.8226 H   0  0  0  0  0  0  0  0  0  0  0  0
   -0.0562    2.8987    1.8200 C   0  0  0  0  0  0  0  0  0  0  0  0
   -0.9927    2.9498    2.3848 H   0  0  0  0  0  0  0  0  0  0  0  0
    0.7551    3.2574    2.4605 H   0  0  0  0  0  0  0  0  0  0  0  0
   -0.1304    3.5632    0.9528 H   0  0  0  0  0  0  0  0  0  0  0  0
  1  2  1  0  0  0  0
  2  3  1  0  0  0  0
  2  4  1  0  0  0  0
  2  5  1  0  0  0  0
  5  6  2  0  0  0  0
  5  7  1  0  0  0  0
  7  8  1  0  0  0  0
  7  9  1  0  0  0  0
  9 10  1  0  0  0  0
  9 11  1  0  0  0  0
  9 22  1  0  0  0  0
 11 12  1  0  0  0  0
 11 13  1  0  0  0  0
 11 14  1  0  0  0  0
 14 15  1  0  0  0  0
 14 20  2  0  0  0  0
 15 16  2  0  0  0  0
 16 17  1  0  0  0  0
 16 18  1  0  0  0  0
 18 19  1  0  0  0  0
 18 20  1  0  0  0  0
 20 21  1  0  0  0  0
 22 23  2  0  0  0  0
 22 24  1  0  0  0  0
 24 25  1  0  0  0  0
 24 26  1  0  0  0  0
 26 27  1  0  0  0  0
 26 28  1  0  0  0  0
 26 29  1  0  0  0  0
M  END
$$$$

  -OEChem-04042215593D

 29 29  0     1  0  0  0  0  0999 V2000
   -2.7172   -4.5037    1.2172 H   0  0  0  0  0  0  0  0  0  0  0  0
   -2.8463   -3.5407    0.7150 C   0  0  0  0  0  0  0  0  0  0  0  0
   -3.7152   -3.0335    1.1409 H   0  0  0  0  0  0  0  0  0  0  0  0
   -3.0207   -3.7209   -0.3482 H   0  0  0  0  0  0  0  0  0  0  0  0
   -1.6058   -2.6865    0.8987 C   0  0  0  0  0  0  0  0  0  0  0  0
   -0.7302   -3.0571    1.6638 O   0  0  0  0  0  0  0  0  0  0  0  0
   -1.5402   -1.4463    0.2971 N   0  0  0  0  0  0  0  0  0  0  0  0
   -2.3506   -1.1451   -0.2366 H   0  0  0  0  0  0  0  0  0  0  0  0
   -0.3187   -0.6353    0.1838 C   0  0  1  0  0  0  0  0  0  0  0  0
    0.4684   -1.0042    0.8501 H   0  0  0  0  0  0  0  0  0  0  0  0
    0.1705   -0.6521   -1.2841 C   0  0  0  0  0  0  0  0  0  0  0  0
   -0.6922   -0.7165   -1.9536 H   0  0  0  0  0  0  0  0  0  0  0  0
    0.6833    0.2888   -1.5071 H   0  0  0  0  0  0  0  0  0  0  0  0
    1.1252   -1.7663   -1.6100 C   0  0  0  0  0  0  0  0  0  0  0  0
    1.3612   -2.8966   -0.8429 N   0  0  0  0  0  0  0  0  0  0  0  0
    2.2722   -3.6016   -1.4658 C   0  0  0  0  0  0  0  0  0  0  0  0
    2.6717   -4.5491   -1.1157 H   0  0  0  0  0  0  0  0  0  0  0  0
    2.6456   -2.9562   -2.6292 N   0  0  0  0  0  0  0  0  0  0  0  0
    3.3414   -3.2947   -3.2910 H   0  0  0  0  0  0  0  0  0  0  0  0
    1.9202   -1.7867   -2.7229 C   0  0  0  0  0  0  0  0  0  0  0  0
    1.9607   -1.0324   -3.5031 H   0  0  0  0  0  0  0  0  0  0  0  0
   -0.6276    0.8274    0.5577 C   0  0  0  0  0  0  0  0  0  0  0  0
   -1.6010    1.3957    0.0728 O   0  0  0  0  0  0  0  0  0  0  0  0
    0.2265    1.5262    1.3909 N   0  0  0  0  0  0  0  0  0  0  0  0
    0.9816    1.0021    1.8255 H   0  0  0  0  0  0  0  0  0  0  0  0
   -0.0112    2.9009    1.8120 C   0  0  0  0  0  0  0  0  0  0  0  0
   -0.9541    2.9755    2.3640 H   0  0  0  0  0  0  0  0  0  0  0  0
    0.7994    3.2415    2.4636 H   0  0  0  0  0  0  0  0  0  0  0  0
   -0.0572    3.5649    0.9424 H   0  0  0  0  0  0  0  0  0  0  0  0
  1  2  1  0  0  0  0
  2  3  1  0  0  0  0
  2  4  1  0  0  0  0
  2  5  1  0  0  0  0
  5  6  2  0  0  0  0
  5  7  1  0  0  0  0
  7  8  1  0  0  0  0
  7  9  1  0  0  0  0
  9 10  1  0  0  0  0
  9 11  1  0  0  0  0
  9 22  1  0  0  0  0
 11 12  1  0  0  0  0
 11 13  1  0  0  0  0
 11 14  1  0  0  0  0
 14 15  1  0  0  0  0
 14 20  2  0  0  0  0
 15 16  2  0  0  0  0
 16 17  1  0  0  0  0
 16 18  1  0  0  0  0
 18 19  1  0  0  0  0
 18 20  1  0  0  0  0
 20 21  1  0  0  0  0
 22 23  2  0  0  0  0
 22 24  1  0  0  0  0
 24 25  1  0  0  0  0
 24 26  1  0  0  0  0
 26 27  1  0  0  0  0
 26 28  1  0  0  0  0
 26 29  1  0  0  0  0
M  END
$$$$

  -OEChem-04042215593D

 29 29  0     1  0  0  0  0  0999 V2000
   -2.6723   -4.5087    1.2227 H   0  0  0  0  0  0  0  0  0  0  0  0
   -2.7972   -3.5649    0.6845 C   0  0  0  0  0  0  0  0  0  0  0  0
   -3.6982   -3.0657    1.0489 H   0  0  0  0  0  0  0  0  0  0  0  0
   -2.9116   -3.7805   -0.3804 H   0  0  0  0  0  0  0  0  0  0  0  0
   -1.5872   -2.6763    0.9027 C   0  0  0  0  0  0  0  0  0  0  0  0
   -0.7188   -3.0210    1.6892 O   0  0  0  0  0  0  0  0  0  0  0  0
   -1.5414   -1.4339    0.3042 N   0  0  0  0  0  0  0  0  0  0  0  0
   -2.3374   -1.1664   -0.2672 H   0  0  0  0  0  0  0  0  0  0  0  0
   -0.3205   -0.6249    0.1792 C   0  0  1  0  0  0  0  0  0  0  0  0
    0.4774   -0.9996    0.8298 H   0  0  0  0  0  0  0  0  0  0  0  0
    0.1490   -0.6288   -1.2950 C   0  0  0  0  0  0  0  0  0  0  0  0
   -0.7225   -0.6932   -1.9529 H   0  0  0  0  0  0  0  0  0  0  0  0
    0.6552    0.3146   -1.5224 H   0  0  0  0  0  0  0  0  0  0  0  0
    1.0955   -1.7468   -1.6314 C   0  0  0  0  0  0  0  0  0  0  0  0
    1.1166   -2.9971   -1.0323 N   0  0  0  0  0  0  0  0  0  0  0  0
    2.1061   -3.6644   -1.5719 C   0  0  0  0  0  0  0  0  0  0  0  0
    2.3842   -4.6817   -1.3114 H   0  0  0  0  0  0  0  0  0  0  0  0
    2.7375   -2.8791   -2.5176 N   0  0  0  0  0  0  0  0  0  0  0  0
    3.5404   -3.1636   -3.0756 H   0  0  0  0  0  0  0  0  0  0  0  0
    2.1009   -1.6559   -2.5547 C   0  0  0  0  0  0  0  0  0  0  0  0
    2.3383   -0.7943   -3.1716 H   0  0  0  0  0  0  0  0  0  0  0  0
   -0.6246    0.8358    0.5658 C   0  0  0  0  0  0  0  0  0  0  0  0
   -1.5954    1.4119    0.0850 O   0  0  0  0  0  0  0  0  0  0  0  0
    0.2394    1.5305    1.3921 N   0  0  0  0  0  0  0  0  0  0  0  0
    0.9830    0.9979    1.8359 H   0  0  0  0  0  0  0  0  0  0  0  0
    0.0037    2.9033    1.8214 C   0  0  0  0  0  0  0  0  0  0  0  0
   -0.9206    2.9682    2.4049 H   0  0  0  0  0  0  0  0  0  0  0  0
    0.8330    3.2516    2.4445 H   0  0  0  0  0  0  0  0  0  0  0  0
   -0.0783    3.5678    0.9548 H   0  0  0  0  0  0  0  0  0  0  0  0
  1  2  1  0  0  0  0
  2  3  1  0  0  0  0
  2  4  1  0  0  0  0
  2  5  1  0  0  0  0
  5  6  2  0  0  0  0
  5  7  1  0  0  0  0
  7  8  1  0  0  0  0
  7  9  1  0  0  0  0
  9 10  1  0  0  0  0
  9 11  1  0  0  0  0
  9 22  1  0  0  0  0
 11 12  1  0  0  0  0
 11 13  1  0  0  0  0
 11 14  1  0  0  0  0
 14 15  1  0  0  0  0
 14 20  2  0  0  0  0
 15 16  2  0  0  0  0
 16 17  1  0  0  0  0
 16 18  1  0  0  0  0
 18 19  1  0  0  0  0
 18 20  1  0  0  0  0
 20 21  1  0  0  0  0
 22 23  2  0  0  0  0
 22 24  1  0  0  0  0
 24 25  1  0  0  0  0
 24 26  1  0  0  0  0
 26 27  1  0  0  0  0
 26 28  1  0  0  0  0
 26 29  1  0  0  0  0
M  END
$$$$

  -OEChem-04042215593D

 29 29  0     1  0  0  0  0  0999 V2000
   -2.6067   -4.5329    1.1840 H   0  0  0  0  0  0  0  0  0  0  0  0
   -2.7529   -3.5833    0.6618 C   0  0  0  0  0  0  0  0  0  0  0  0
   -3.6603   -3.1067    1.0403 H   0  0  0  0  0  0  0  0  0  0  0  0
   -2.8701   -3.7841   -0.4059 H   0  0  0  0  0  0  0  0  0  0  0  0
   -1.5583   -2.6758    0.8849 C   0  0  0  0  0  0  0  0  0  0  0  0
   -0.6745   -3.0155    1.6574 O   0  0  0  0  0  0  0  0  0  0  0  0
   -1.5352   -1.4276    0.2968 N   0  0  0  0  0  0  0  0  0  0  0  0
   -2.3321   -1.1747   -0.2798 H   0  0  0  0  0  0  0  0  0  0  0  0
   -0.3218   -0.6091    0.1657 C   0  0  1  0  0  0  0  0  0  0  0  0
    0.4848   -0.9837    0.8049 H   0  0  0  0  0  0  0  0  0  0  0  0
    0.1352   -0.6038   -1.3115 C   0  0  0  0  0  0  0  0  0  0  0  0
   -0.7377   -0.6735   -1.9668 H   0  0  0  0  0  0  0  0  0  0  0  0
    0.6350    0.3429   -1.5392 H   0  0  0  0  0  0  0  0  0  0  0  0
    1.0850   -1.7196   -1.6406 C   0  0  0  0  0  0  0  0  0  0  0  0
    0.9237   -3.0409   -1.2505 N   0  0  0  0  0  0  0  0  0  0  0  0
    1.9708   -3.6962   -1.6868 C   0  0  0  0  0  0  0  0  0  0  0  0
    2.1451   -4.7579   -1.5370 H   0  0  0  0  0  0  0  0  0  0  0  0
    2.8132   -2.8352   -2.3647 N   0  0  0  0  0  0  0  0  0  0  0  0
    3.6982   -3.0978   -2.7943 H   0  0  0  0  0  0  0  0  0  0  0  0
    2.2547   -1.5743   -2.3346 C   0  0  0  0  0  0  0  0  0  0  0  0
    2.6493   -0.6545   -2.7558 H   0  0  0  0  0  0  0  0  0  0  0  0
   -0.6281    0.8470    0.5688 C   0  0  0  0  0  0  0  0  0  0  0  0
   -1.6052    1.4241    0.1027 O   0  0  0  0  0  0  0  0  0  0  0  0
    0.2428    1.5383    1.3912 N   0  0  0  0  0  0  0  0  0  0  0  0
    0.9914    1.0049    1.8252 H   0  0  0  0  0  0  0  0  0  0  0  0
    0.0059    2.9067    1.8342 C   0  0  0  0  0  0  0  0  0  0  0  0
   -0.9201    2.9659    2.4157 H   0  0  0  0  0  0  0  0  0  0  0  0
    0.8332    3.2486    2.4635 H   0  0  0  0  0  0  0  0  0  0  0  0
   -0.0737    3.5800    0.9742 H   0  0  0  0  0  0  0  0  0  0  0  0
  1  2  1  0  0  0  0
  2  3  1  0  0  0  0
  2  4  1  0  0  0  0
  2  5  1  0  0  0  0
  5  6  2  0  0  0  0
  5  7  1  0  0  0  0
  7  8  1  0  0  0  0
  7  9  1  0  0  0  0
  9 10  1  0  0  0  0
  9 11  1  0  0  0  0
  9 22  1  0  0  0  0
 11 12  1  0  0  0  0
 11 13  1  0  0  0  0
 11 14  1  0  0  0  0
 14 15  1  0  0  0  0
 14 20  2  0  0  0  0
 15 16  2  0  0  0  0
 16 17  1  0  0  0  0
 16 18  1  0  0  0  0
 18 19  1  0  0  0  0
 18 20  1  0  0  0  0
 20 21  1  0  0  0  0
 22 23  2  0  0  0  0
 22 24  1  0  0  0  0
 24 25  1  0  0  0  0
 24 26  1  0  0  0  0
 26 27  1  0  0  0  0
 26 28  1  0  0  0  0
 26 29  1  0  0  0  0
M  END
$$$$

  -OEChem-04042215593D

 29 29  0     1  0  0  0  0  0999 V2000
   -2.5727   -4.5320    1.1844 H   0  0  0  0  0  0  0  0  0  0  0  0
   -2.7201   -3.5912    0.6473 C   0  0  0  0  0  0  0  0  0  0  0  0
   -3.6275   -3.1100    1.0194 H   0  0  0  0  0  0  0  0  0  0  0  0
   -2.8392   -3.8091   -0.4167 H   0  0  0  0  0  0  0  0  0  0  0  0
   -1.5253   -2.6797    0.8533 C   0  0  0  0  0  0  0  0  0  0  0  0
   -0.6146   -3.0292    1.5897 O   0  0  0  0  0  0  0  0  0  0  0  0
   -1.5199   -1.4250    0.2787 N   0  0  0  0  0  0  0  0  0  0  0  0
   -2.3262   -1.1703   -0.2842 H   0  0  0  0  0  0  0  0  0  0  0  0
   -0.3165   -0.5926    0.1499 C   0  0  1  0  0  0  0  0  0  0  0  0
    0.4956   -0.9633    0.7846 H   0  0  0  0  0  0  0  0  0  0  0  0
    0.1349   -0.5806   -1.3269 C   0  0  0  0  0  0  0  0  0  0  0  0
   -0.7332   -0.6551   -1.9881 H   0  0  0  0  0  0  0  0  0  0  0  0
    0.6329    0.3679   -1.5514 H   0  0  0  0  0  0  0  0  0  0  0  0
    1.0925   -1.6936   -1.6347 C   0  0  0  0  0  0  0  0  0  0  0  0
    0.7912   -3.0404   -1.4890 N   0  0  0  0  0  0  0  0  0  0  0  0
    1.8726   -3.7040   -1.8167 C   0  0  0  0  0  0  0  0  0  0  0  0
    1.9655   -4.7862   -1.7987 H   0  0  0  0  0  0  0  0  0  0  0  0
    2.8699   -2.8229   -2.1918 N   0  0  0  0  0  0  0  0  0  0  0  0
    3.8070   -3.0895   -2.4877 H   0  0  0  0  0  0  0  0  0  0  0  0
    2.3768   -1.5397   -2.0782 C   0  0  0  0  0  0  0  0  0  0  0  0
    2.8869   -0.6028   -2.2806 H   0  0  0  0  0  0  0  0  0  0  0  0
   -0.6328    0.8568    0.5693 C   0  0  0  0  0  0  0  0  0  0  0  0
   -1.6209    1.4281    0.1201 O   0  0  0  0  0  0  0  0  0  0  0  0
    0.2370    1.5475    1.3935 N   0  0  0  0  0  0  0  0  0  0  0  0
    0.9950    1.0177    1.8153 H   0  0  0  0  0  0  0  0  0  0  0  0
   -0.0088    2.9092    1.8517 C   0  0  0  0  0  0  0  0  0  0  0  0
   -0.9213    2.9513    2.4556 H   0  0  0  0  0  0  0  0  0  0  0  0
    0.8286    3.2588    2.4632 H   0  0  0  0  0  0  0  0  0  0  0  0
   -0.1186    3.5871    0.9987 H   0  0  0  0  0  0  0  0  0  0  0  0
  1  2  1  0  0  0  0
  2  3  1  0  0  0  0
  2  4  1  0  0  0  0
  2  5  1  0  0  0  0
  5  6  2  0  0  0  0
  5  7  1  0  0  0  0
  7  8  1  0  0  0  0
  7  9  1  0  0  0  0
  9 10  1  0  0  0  0
  9 11  1  0  0  0  0
  9 22  1  0  0  0  0
 11 12  1  0  0  0  0
 11 13  1  0  0  0  0
 11 14  1  0  0  0  0
 14 15  1  0  0  0  0
 14 20  2  0  0  0  0
 15 16  2  0  0  0  0
 16 17  1  0  0  0  0
 16 18  1  0  0  0  0
 18 19  1  0  0  0  0
 18 20  1  0  0  0  0
 20 21  1  0  0  0  0
 22 23  2  0  0  0  0
 22 24  1  0  0  0  0
 24 25  1  0  0  0  0
 24 26  1  0  0  0  0
 26 27  1  0  0  0  0
 26 28  1  0  0  0  0
 26 29  1  0  0  0  0
M  END
$$$$

  -OEChem-04042215593D

 29 29  0     1  0  0  0  0  0999 V2000
   -2.5181   -4.5511    1.1356 H   0  0  0  0  0  0  0  0  0  0  0  0
   -2.6948   -3.5933    0.6386 C   0  0  0  0  0  0  0  0  0  0  0  0
   -3.5852   -3.1298    1.0697 H   0  0  0  0  0  0  0  0  0  0  0  0
   -2.8631   -3.7756   -0.4256 H   0  0  0  0  0  0  0  0  0  0  0  0
   -1.4953   -2.6826    0.8191 C   0  0  0  0  0  0  0  0  0  0  0  0
   -0.5544   -3.0468    1.5090 O   0  0  0  0  0  0  0  0  0  0  0  0
   -1.5054   -1.4222    0.2571 N   0  0  0  0  0  0  0  0  0  0  0  0
   -2.3276   -1.1563   -0.2776 H   0  0  0  0  0  0  0  0  0  0  0  0
   -0.3118   -0.5758    0.1339 C   0  0  1  0  0  0  0  0  0  0  0  0
    0.5036   -0.9408    0.7674 H   0  0  0  0  0  0  0  0  0  0  0  0
    0.1346   -0.5678   -1.3422 C   0  0  0  0  0  0  0  0  0  0  0  0
   -0.7284   -0.6495   -2.0097 H   0  0  0  0  0  0  0  0  0  0  0  0
    0.6327    0.3799   -1.5691 H   0  0  0  0  0  0  0  0  0  0  0  0
    1.0998   -1.6799   -1.6207 C   0  0  0  0  0  0  0  0  0  0  0  0
    0.7197   -3.0097   -1.7392 N   0  0  0  0  0  0  0  0  0  0  0  0
    1.8184   -3.6913   -1.9536 C   0  0  0  0  0  0  0  0  0  0  0  0
    1.8641   -4.7692   -2.0799 H   0  0  0  0  0  0  0  0  0  0  0  0
    2.9037   -2.8356   -2.0022 N   0  0  0  0  0  0  0  0  0  0  0  0
    3.8696   -3.1220   -2.1501 H   0  0  0  0  0  0  0  0  0  0  0  0
    2.4494   -1.5499   -1.7946 C   0  0  0  0  0  0  0  0  0  0  0  0
    3.0247   -0.6299   -1.7598 H   0  0  0  0  0  0  0  0  0  0  0  0
   -0.6360    0.8677    0.5661 C   0  0  0  0  0  0  0  0  0  0  0  0
   -1.6322    1.4339    0.1291 O   0  0  0  0  0  0  0  0  0  0  0  0
    0.2314    1.5579    1.3933 N   0  0  0  0  0  0  0  0  0  0  0  0
    0.9969    1.0318    1.8060 H   0  0  0  0  0  0  0  0  0  0  0  0
   -0.0247    2.9133    1.8646 C   0  0  0  0  0  0  0  0  0  0  0  0
   -0.9443    2.9451    2.4583 H   0  0  0  0  0  0  0  0  0  0  0  0
    0.8041    3.2591    2.4897 H   0  0  0  0  0  0  0  0  0  0  0  0
   -0.1277    3.6006    1.0183 H   0  0  0  0  0  0  0  0  0  0  0  0
  1  2  1  0  0  0  0
  2  3  1  0  0  0  0
  2  4  1  0  0  0  0
  2  5  1  0  0  0  0
  5  6  2  0  0  0  0
  5  7  1  0  0  0  0
  7  8  1  0  0  0  0
  7  9  1  0  0  0  0
  9 10  1  0  0  0  0
  9 11  1  0  0  0  0
  9 22  1  0  0  0  0
 11 12  1  0  0  0  0
 11 13  1  0  0  0  0
 11 14  1  0  0  0  0
 14 15  1  0  0  0  0
 14 20  2  0  0  0  0
 15 16  2  0  0  0  0
 16 17  1  0  0  0  0
 16 18  1  0  0  0  0
 18 19  1  0  0  0  0
 18 20  1  0  0  0  0
 20 21  1  0  0  0  0
 22 23  2  0  0  0  0
 22 24  1  0  0  0  0
 24 25  1  0  0  0  0
 24 26  1  0  0  0  0
 26 27  1  0  0  0  0
 26 28  1  0  0  0  0
 26 29  1  0  0  0  0
M  END
$$$$

  -OEChem-04042215593D

 29 29  0     1  0  0  0  0  0999 V2000
   -2.5265   -4.5414    1.1344 H   0  0  0  0  0  0  0  0  0  0  0  0
   -2.7059   -3.5769    0.6518 C   0  0  0  0  0  0  0  0  0  0  0  0
   -3.5697   -3.1014    1.1220 H   0  0  0  0  0  0  0  0  0  0  0  0
   -2.9214   -3.7481   -0.4058 H   0  0  0  0  0  0  0  0  0  0  0  0
   -1.4848   -2.6880    0.7911 C   0  0  0  0  0  0  0  0  0  0  0  0
   -0.5199   -3.0761    1.4329 O   0  0  0  0  0  0  0  0  0  0  0  0
   -1.4940   -1.4249    0.2363 N   0  0  0  0  0  0  0  0  0  0  0  0
   -2.3318   -1.1369   -0.2623 H   0  0  0  0  0  0  0  0  0  0  0  0
   -0.3059   -0.5701    0.1222 C   0  0  1  0  0  0  0  0  0  0  0  0
    0.5060   -0.9313    0.7626 H   0  0  0  0  0  0  0  0  0  0  0  0
    0.1461   -0.5696   -1.3503 C   0  0  0  0  0  0  0  0  0  0  0  0
   -0.7103   -0.6562   -2.0259 H   0  0  0  0  0  0  0  0  0  0  0  0
    0.6461    0.3766   -1.5786 H   0  0  0  0  0  0  0  0  0  0  0  0
    1.1181   -1.6802   -1.6055 C   0  0  0  0  0  0  0  0  0  0  0  0
    0.7323   -2.9524   -2.0053 N   0  0  0  0  0  0  0  0  0  0  0  0
    1.8349   -3.6533   -2.1146 C   0  0  0  0  0  0  0  0  0  0  0  0
    1.8773   -4.7009   -2.3989 H   0  0  0  0  0  0  0  0  0  0  0  0
    2.9311   -2.8617   -1.8238 N   0  0  0  0  0  0  0  0  0  0  0  0
    3.8994   -3.1764   -1.8299 H   0  0  0  0  0  0  0  0  0  0  0  0
    2.4789   -1.5984   -1.5055 C   0  0  0  0  0  0  0  0  0  0  0  0
    3.0603   -0.7264   -1.2230 H   0  0  0  0  0  0  0  0  0  0  0  0
   -0.6377    0.8705    0.5579 C   0  0  0  0  0  0  0  0  0  0  0  0
   -1.6426    1.4280    0.1306 O   0  0  0  0  0  0  0  0  0  0  0  0
    0.2235    1.5617    1.3909 N   0  0  0  0  0  0  0  0  0  0  0  0
    0.9932    1.0394    1.8001 H   0  0  0  0  0  0  0  0  0  0  0  0
   -0.0432    2.9116    1.8723 C   0  0  0  0  0  0  0  0  0  0  0  0
   -0.9592    2.9301    2.4720 H   0  0  0  0  0  0  0  0  0  0  0  0
    0.7862    3.2613    2.4946 H   0  0  0  0  0  0  0  0  0  0  0  0
   -0.1581    3.6037    1.0314 H   0  0  0  0  0  0  0  0  0  0  0  0
  1  2  1  0  0  0  0
  2  3  1  0  0  0  0
  2  4  1  0  0  0  0
  2  5  1  0  0  0  0
  5  6  2  0  0  0  0
  5  7  1  0  0  0  0
  7  8  1  0  0  0  0
  7  9  1  0  0  0  0
  9 10  1  0  0  0  0
  9 11  1  0  0  0  0
  9 22  1  0  0  0  0
 11 12  1  0  0  0  0
 11 13  1  0  0  0  0
 11 14  1  0  0  0  0
 14 15  1  0  0  0  0
 14 20  2  0  0  0  0
 15 16  2  0  0  0  0
 16 17  1  0  0  0  0
 16 18  1  0  0  0  0
 18 19  1  0  0  0  0
 18 20  1  0  0  0  0
 20 21  1  0  0  0  0
 22 23  2  0  0  0  0
 22 24  1  0  0  0  0
 24 25  1  0  0  0  0
 24 26  1  0  0  0  0
 26 27  1  0  0  0  0
 26 28  1  0  0  0  0
 26 29  1  0  0  0  0
M  END
$$$$

  -OEChem-04042215593D

 29 29  0     1  0  0  0  0  0999 V2000
   -2.5564   -4.5241    1.1534 H   0  0  0  0  0  0  0  0  0  0  0  0
   -2.7357   -3.5498    0.6904 C   0  0  0  0  0  0  0  0  0  0  0  0
   -3.5586   -3.0562    1.2129 H   0  0  0  0  0  0  0  0  0  0  0  0
   -3.0147   -3.7037   -0.3548 H   0  0  0  0  0  0  0  0  0  0  0  0
   -1.4844   -2.6962    0.7684 C   0  0  0  0  0  0  0  0  0  0  0  0
   -0.4969   -3.1157    1.3530 O   0  0  0  0  0  0  0  0  0  0  0  0
   -1.4844   -1.4319    0.2169 N   0  0  0  0  0  0  0  0  0  0  0  0
   -2.3405   -1.1091   -0.2275 H   0  0  0  0  0  0  0  0  0  0  0  0
   -0.2971   -0.5744    0.1149 C   0  0  1  0  0  0  0  0  0  0  0  0
    0.5069   -0.9329    0.7663 H   0  0  0  0  0  0  0  0  0  0  0  0
    0.1701   -0.5750   -1.3524 C   0  0  0  0  0  0  0  0  0  0  0  0
   -0.6803   -0.6626   -2.0355 H   0  0  0  0  0  0  0  0  0  0  0  0
    0.6714    0.3712   -1.5781 H   0  0  0  0  0  0  0  0  0  0  0  0
    1.1479   -1.6824   -1.6021 C   0  0  0  0  0  0  0  0  0  0  0  0
    0.8207   -2.8460   -2.2850 N   0  0  0  0  0  0  0  0  0  0  0  0
    1.9062   -3.5814   -2.2984 C   0  0  0  0  0  0  0  0  0  0  0  0
    1.9808   -4.5673   -2.7482 H   0  0  0  0  0  0  0  0  0  0  0  0
    2.9392   -2.9157   -1.6646 N   0  0  0  0  0  0  0  0  0  0  0  0
    3.8791   -3.2837   -1.5310 H   0  0  0  0  0  0  0  0  0  0  0  0
    2.4616   -1.6997   -1.2237 C   0  0  0  0  0  0  0  0  0  0  0  0
    2.9938   -0.9248   -0.6816 H   0  0  0  0  0  0  0  0  0  0  0  0
   -0.6391    0.8641    0.5499 C   0  0  0  0  0  0  0  0  0  0  0  0
   -1.6514    1.4106    0.1262 O   0  0  0  0  0  0  0  0  0  0  0  0
    0.2090    1.5599    1.3923 N   0  0  0  0  0  0  0  0  0  0  0  0
    0.9889    1.0491    1.7962 H   0  0  0  0  0  0  0  0  0  0  0  0
   -0.0715    2.9081    1.8708 C   0  0  0  0  0  0  0  0  0  0  0  0
   -1.0123    2.9288    2.4310 H   0  0  0  0  0  0  0  0  0  0  0  0
    0.7315    3.2500    2.5308 H   0  0  0  0  0  0  0  0  0  0  0  0
   -0.1466    3.6047    1.0293 H   0  0  0  0  0  0  0  0  0  0  0  0
  1  2  1  0  0  0  0
  2  3  1  0  0  0  0
  2  4  1  0  0  0  0
  2  5  1  0  0  0  0
  5  6  2  0  0  0  0
  5  7  1  0  0  0  0
  7  8  1  0  0  0  0
  7  9  1  0  0  0  0
  9 10  1  0  0  0  0
  9 11  1  0  0  0  0
  9 22  1  0  0  0  0
 11 12  1  0  0  0  0
 11 13  1  0  0  0  0
 11 14  1  0  0  0  0
 14 15  1  0  0  0  0
 14 20  2  0  0  0  0
 15 16  2  0  0  0  0
 16 17  1  0  0  0  0
 16 18  1  0  0  0  0
 18 19  1  0  0  0  0
 18 20  1  0  0  0  0
 20 21  1  0  0  0  0
 22 23  2  0  0  0  0
 22 24  1  0  0  0  0
 24 25  1  0  0  0  0
 24 26  1  0  0  0  0
 26 27  1  0  0  0  0
 26 28  1  0  0  0  0
 26 29  1  0  0  0  0
M  END
$$$$

  -OEChem-04042215593D

 29 29  0     1  0  0  0  0  0999 V2000
   -2.5866   -4.4978    1.1820 H   0  0  0  0  0  0  0  0  0  0  0  0
   -2.7546   -3.5249    0.7119 C   0  0  0  0  0  0  0  0  0  0  0  0
   -3.5581   -3.0094    1.2433 H   0  0  0  0  0  0  0  0  0  0  0  0
   -3.0554   -3.6837   -0.3265 H   0  0  0  0  0  0  0  0  0  0  0  0
   -1.4857   -2.6951    0.7592 C   0  0  0  0  0  0  0  0  0  0  0  0
   -0.4870   -3.1378    1.3063 O   0  0  0  0  0  0  0  0  0  0  0  0
   -1.4755   -1.4318    0.2062 N   0  0  0  0  0  0  0  0  0  0  0  0
   -2.3441   -1.0796   -0.1901 H   0  0  0  0  0  0  0  0  0  0  0  0
   -0.2877   -0.5740    0.1150 C   0  0  1  0  0  0  0  0  0  0  0  0
    0.5036   -0.9274    0.7834 H   0  0  0  0  0  0  0  0  0  0  0  0
    0.2001   -0.5801   -1.3465 C   0  0  0  0  0  0  0  0  0  0  0  0
   -0.6471   -0.6748   -2.0328 H   0  0  0  0  0  0  0  0  0  0  0  0
    0.6967    0.3674   -1.5755 H   0  0  0  0  0  0  0  0  0  0  0  0
    1.1857   -1.6823   -1.5999 C   0  0  0  0  0  0  0  0  0  0  0  0
    0.9690   -2.6870   -2.5337 N   0  0  0  0  0  0  0  0  0  0  0  0
    2.0070   -3.4852   -2.4655 C   0  0  0  0  0  0  0  0  0  0  0  0
    2.1389   -4.3826   -3.0632 H   0  0  0  0  0  0  0  0  0  0  0  0
    2.9063   -3.0154   -1.5269 N   0  0  0  0  0  0  0  0  0  0  0  0
    3.7789   -3.4726   -1.2700 H   0  0  0  0  0  0  0  0  0  0  0  0
    2.3879   -1.8643   -0.9730 C   0  0  0  0  0  0  0  0  0  0  0  0
    2.8179   -1.2429   -0.1943 H   0  0  0  0  0  0  0  0  0  0  0  0
   -0.6400    0.8643    0.5437 C   0  0  0  0  0  0  0  0  0  0  0  0
   -1.6648    1.3942    0.1291 O   0  0  0  0  0  0  0  0  0  0  0  0
    0.1940    1.5677    1.3942 N   0  0  0  0  0  0  0  0  0  0  0  0
    0.9904    1.0730    1.7857 H   0  0  0  0  0  0  0  0  0  0  0  0
   -0.1042    2.9120    1.8731 C   0  0  0  0  0  0  0  0  0  0  0  0
   -1.0308    2.9143    2.4565 H   0  0  0  0  0  0  0  0  0  0  0  0
    0.7076    3.2754    2.5105 H   0  0  0  0  0  0  0  0  0  0  0  0
   -0.2160    3.6025    1.0305 H   0  0  0  0  0  0  0  0  0  0  0  0
  1  2  1  0  0  0  0
  2  3  1  0  0  0  0
  2  4  1  0  0  0  0
  2  5  1  0  0  0  0
  5  6  2  0  0  0  0
  5  7  1  0  0  0  0
  7  8  1  0  0  0  0
  7  9  1  0  0  0  0
  9 10  1  0  0  0  0
  9 11  1  0  0  0  0
  9 22  1  0  0  0  0
 11 12  1  0  0  0  0
 11 13  1  0  0  0  0
 11 14  1  0  0  0  0
 14 15  1  0  0  0  0
 14 20  2  0  0  0  0
 15 16  2  0  0  0  0
 16 17  1  0  0  0  0
 16 18  1  0  0  0  0
 18 19  1  0  0  0  0
 18 20  1  0  0  0  0
 20 21  1  0  0  0  0
 22 23  2  0  0  0  0
 22 24  1  0  0  0  0
 24 25  1  0  0  0  0
 24 26  1  0  0  0  0
 26 27  1  0  0  0  0
 26 28  1  0  0  0  0
 26 29  1  0  0  0  0
M  END
$$$$

  -OEChem-04042215593D

 29 29  0     1  0  0  0  0  0999 V2000
   -2.6224   -4.4662    1.2283 H   0  0  0  0  0  0  0  0  0  0  0  0
   -2.7806   -3.4955    0.7502 C   0  0  0  0  0  0  0  0  0  0  0  0
   -3.5650   -2.9598    1.2903 H   0  0  0  0  0  0  0  0  0  0  0  0
   -3.1033   -3.6596   -0.2809 H   0  0  0  0  0  0  0  0  0  0  0  0
   -1.4956   -2.6894    0.7662 C   0  0  0  0  0  0  0  0  0  0  0  0
   -0.4961   -3.1449    1.3011 O   0  0  0  0  0  0  0  0  0  0  0  0
   -1.4688   -1.4320    0.2009 N   0  0  0  0  0  0  0  0  0  0  0  0
   -2.3389   -1.0592   -0.1737 H   0  0  0  0  0  0  0  0  0  0  0  0
   -0.2774   -0.5772    0.1292 C   0  0  1  0  0  0  0  0  0  0  0  0
    0.4932   -0.9199    0.8252 H   0  0  0  0  0  0  0  0  0  0  0  0
    0.2484   -0.5877   -1.3205 C   0  0  0  0  0  0  0  0  0  0  0  0
   -0.5904   -0.6869   -2.0164 H   0  0  0  0  0  0  0  0  0  0  0  0
    0.7411    0.3626   -1.5460 H   0  0  0  0  0  0  0  0  0  0  0  0
    1.2448   -1.6818   -1.5848 C   0  0  0  0  0  0  0  0  0  0  0  0
    1.1845   -2.4721   -2.7258 N   0  0  0  0  0  0  0  0  0  0  0  0
    2.1504   -3.3526   -2.6227 C   0  0  0  0  0  0  0  0  0  0  0  0
    2.3660   -4.1247   -3.3555 H   0  0  0  0  0  0  0  0  0  0  0  0
    2.8488   -3.1538   -1.4477 N   0  0  0  0  0  0  0  0  0  0  0  0
    3.6200   -3.7307   -1.1174 H   0  0  0  0  0  0  0  0  0  0  0  0
    2.2726   -2.0947   -0.7799 C   0  0  0  0  0  0  0  0  0  0  0  0
    2.5482   -1.6906    0.1886 H   0  0  0  0  0  0  0  0  0  0  0  0
   -0.6448    0.8639    0.5360 C   0  0  0  0  0  0  0  0  0  0  0  0
   -1.6715    1.3787    0.1073 O   0  0  0  0  0  0  0  0  0  0  0  0
    0.1657    1.5776    1.4003 N   0  0  0  0  0  0  0  0  0  0  0  0
    0.9684    1.0976    1.7969 H   0  0  0  0  0  0  0  0  0  0  0  0
   -0.1500    2.9227    1.8650 C   0  0  0  0  0  0  0  0  0  0  0  0
   -1.0889    2.9231    2.4286 H   0  0  0  0  0  0  0  0  0  0  0  0
    0.6460    3.2936    2.5177 H   0  0  0  0  0  0  0  0  0  0  0  0
   -0.2477    3.6084    1.0168 H   0  0  0  0  0  0  0  0  0  0  0  0
  1  2  1  0  0  0  0
  2  3  1  0  0  0  0
  2  4  1  0  0  0  0
  2  5  1  0  0  0  0
  5  6  2  0  0  0  0
  5  7  1  0  0  0  0
  7  8  1  0  0  0  0
  7  9  1  0  0  0  0
  9 10  1  0  0  0  0
  9 11  1  0  0  0  0
  9 22  1  0  0  0  0
 11 12  1  0  0  0  0
 11 13  1  0  0  0  0
 11 14  1  0  0  0  0
 14 15  1  0  0  0  0
 14 20  2  0  0  0  0
 15 16  2  0  0  0  0
 16 17  1  0  0  0  0
 16 18  1  0  0  0  0
 18 19  1  0  0  0  0
 18 20  1  0  0  0  0
 20 21  1  0  0  0  0
 22 23  2  0  0  0  0
 22 24  1  0  0  0  0
 24 25  1  0  0  0  0
 24 26  1  0  0  0  0
 26 27  1  0  0  0  0
 26 28  1  0  0  0  0
 26 29  1  0  0  0  0
M  END
$$$$

  -OEChem-04042215593D

 29 29  0     1  0  0  0  0  0999 V2000
   -2.6519   -4.4459    1.2494 H   0  0  0  0  0  0  0  0  0  0  0  0
   -2.8020   -3.4715    0.7762 C   0  0  0  0  0  0  0  0  0  0  0  0
   -3.5749   -2.9275    1.3247 H   0  0  0  0  0  0  0  0  0  0  0  0
   -3.1357   -3.6280   -0.2525 H   0  0  0  0  0  0  0  0  0  0  0  0
   -1.5073   -2.6815    0.7841 C   0  0  0  0  0  0  0  0  0  0  0  0
   -0.5121   -3.1442    1.3212 O   0  0  0  0  0  0  0  0  0  0  0  0
   -1.4655   -1.4305    0.2062 N   0  0  0  0  0  0  0  0  0  0  0  0
   -2.3339   -1.0449   -0.1599 H   0  0  0  0  0  0  0  0  0  0  0  0
   -0.2700   -0.5805    0.1496 C   0  0  1  0  0  0  0  0  0  0  0  0
    0.4837   -0.9111    0.8683 H   0  0  0  0  0  0  0  0  0  0  0  0
    0.2894   -0.5998   -1.2882 C   0  0  0  0  0  0  0  0  0  0  0  0
   -0.5380   -0.6991   -1.9978 H   0  0  0  0  0  0  0  0  0  0  0  0
    0.7847    0.3510   -1.5064 H   0  0  0  0  0  0  0  0  0  0  0  0
    1.2934   -1.6907   -1.5528 C   0  0  0  0  0  0  0  0  0  0  0  0
    1.4307   -2.2471   -2.8189 N   0  0  0  0  0  0  0  0  0  0  0  0
    2.3137   -3.2106   -2.7158 C   0  0  0  0  0  0  0  0  0  0  0  0
    2.6389   -3.8449   -3.5354 H   0  0  0  0  0  0  0  0  0  0  0  0
    2.7609   -3.3025   -1.4129 N   0  0  0  0  0  0  0  0  0  0  0  0
    3.4124   -4.0018   -1.0622 H   0  0  0  0  0  0  0  0  0  0  0  0
    2.1041   -2.3491   -0.6656 C   0  0  0  0  0  0  0  0  0  0  0  0
    2.1777   -2.1859    0.4050 H   0  0  0  0  0  0  0  0  0  0  0  0
   -0.6482    0.8643    0.5351 C   0  0  0  0  0  0  0  0  0  0  0  0
   -1.6772    1.3656    0.0955 O   0  0  0  0  0  0  0  0  0  0  0  0
    0.1417    1.5889    1.4094 N   0  0  0  0  0  0  0  0  0  0  0  0
    0.9579    1.1275    1.8008 H   0  0  0  0  0  0  0  0  0  0  0  0
   -0.1855    2.9384    1.8534 C   0  0  0  0  0  0  0  0  0  0  0  0
   -1.1510    2.9488    2.3699 H   0  0  0  0  0  0  0  0  0  0  0  0
    0.5797    3.3053    2.5441 H   0  0  0  0  0  0  0  0  0  0  0  0
   -0.2351    3.6214    0.9989 H   0  0  0  0  0  0  0  0  0  0  0  0
  1  2  1  0  0  0  0
  2  3  1  0  0  0  0
  2  4  1  0  0  0  0
  2  5  1  0  0  0  0
  5  6  2  0  0  0  0
  5  7  1  0  0  0  0
  7  8  1  0  0  0  0
  7  9  1  0  0  0  0
  9 10  1  0  0  0  0
  9 11  1  0  0  0  0
  9 22  1  0  0  0  0
 11 12  1  0  0  0  0
 11 13  1  0  0  0  0
 11 14  1  0  0  0  0
 14 15  1  0  0  0  0
 14 20  2  0  0  0  0
 15 16  2  0  0  0  0
 16 17  1  0  0  0  0
 16 18  1  0  0  0  0
 18 19  1  0  0  0  0
 18 20  1  0  0  0  0
 20 21  1  0  0  0  0
 22 23  2  0  0  0  0
 22 24  1  0  0  0  0
 24 25  1  0  0  0  0
 24 26  1  0  0  0  0
 26 27  1  0  0  0  0
 26 28  1  0  0  0  0
 26 29  1  0  0  0  0
M  END
$$$$

  -OEChem-04042215593D

 29 29  0     1  0  0  0  0  0999 V2000
   -2.7291   -4.4221    1.2769 H   0  0  0  0  0  0  0  0  0  0  0  0
   -2.8568   -3.4480    0.7966 C   0  0  0  0  0  0  0  0  0  0  0  0
   -3.6226   -2.8859    1.3365 H   0  0  0  0  0  0  0  0  0  0  0  0
   -3.1863   -3.6042   -0.2335 H   0  0  0  0  0  0  0  0  0  0  0  0
   -1.5473   -2.6831    0.8091 C   0  0  0  0  0  0  0  0  0  0  0  0
   -0.5663   -3.1596    1.3596 O   0  0  0  0  0  0  0  0  0  0  0  0
   -1.4777   -1.4379    0.2219 N   0  0  0  0  0  0  0  0  0  0  0  0
   -2.3411   -1.0350   -0.1384 H   0  0  0  0  0  0  0  0  0  0  0  0
   -0.2730   -0.5990    0.1710 C   0  0  1  0  0  0  0  0  0  0  0  0
    0.4719   -0.9284    0.9002 H   0  0  0  0  0  0  0  0  0  0  0  0
    0.3060   -0.6258   -1.2595 C   0  0  0  0  0  0  0  0  0  0  0  0
   -0.5120   -0.7143   -1.9810 H   0  0  0  0  0  0  0  0  0  0  0  0
    0.8129    0.3215   -1.4660 H   0  0  0  0  0  0  0  0  0  0  0  0
    1.3072   -1.7191   -1.5234 C   0  0  0  0  0  0  0  0  0  0  0  0
    1.6709   -2.0507   -2.8230 N   0  0  0  0  0  0  0  0  0  0  0  0
    2.4974   -3.0650   -2.7393 C   0  0  0  0  0  0  0  0  0  0  0  0
    2.9594   -3.5609   -3.5882 H   0  0  0  0  0  0  0  0  0  0  0  0
    2.6852   -3.4109   -1.4160 N   0  0  0  0  0  0  0  0  0  0  0  0
    3.2479   -4.1922   -1.0849 H   0  0  0  0  0  0  0  0  0  0  0  0
    1.9207   -2.5674   -0.6396 C   0  0  0  0  0  0  0  0  0  0  0  0
    1.7954   -2.5974    0.4391 H   0  0  0  0  0  0  0  0  0  0  0  0
   -0.6484    0.8512    0.5388 C   0  0  0  0  0  0  0  0  0  0  0  0
   -1.6736    1.3501    0.0874 O   0  0  0  0  0  0  0  0  0  0  0  0
    0.1343    1.5796    1.4161 N   0  0  0  0  0  0  0  0  0  0  0  0
    0.9525    1.1233    1.8094 H   0  0  0  0  0  0  0  0  0  0  0  0
   -0.1863    2.9384    1.8359 C   0  0  0  0  0  0  0  0  0  0  0  0
   -1.1592    2.9653    2.3377 H   0  0  0  0  0  0  0  0  0  0  0  0
    0.5723    3.3075    2.5327 H   0  0  0  0  0  0  0  0  0  0  0  0
   -0.2167    3.6095    0.9711 H   0  0  0  0  0  0  0  0  0  0  0  0
  1  2  1  0  0  0  0
  2  3  1  0  0  0  0
  2  4  1  0  0  0  0
  2  5  1  0  0  0  0
  5  6  2  0  0  0  0
  5  7  1  0  0  0  0
  7  8  1  0  0  0  0
  7  9  1  0  0  0  0
  9 10  1  0  0  0  0
  9 11  1  0  0  0  0
  9 22  1  0  0  0  0
 11 12  1  0  0  0  0
 11 13  1  0  0  0  0
 11 14  1  0  0  0  0
 14 15  1  0  0  0  0
 14 20  2  0  0  0  0
 15 16  2  0  0  0  0
 16 17  1  0  0  0  0
 16 18  1  0  0  0  0
 18 19  1  0  0  0  0
 18 20  1  0  0  0  0
 20 21  1  0  0  0  0
 22 23  2  0  0  0  0
 22 24  1  0  0  0  0
 24 25  1  0  0  0  0
 24 26  1  0  0  0  0
 26 27  1  0  0  0  0
 26 28  1  0  0  0  0
 26 29  1  0  0  0  0
M  END
$$$$

  -OEChem-04042215593D

 29 29  0     1  0  0  0  0  0999 V2000
   -2.9615   -4.3761    1.3782 H   0  0  0  0  0  0  0  0  0  0  0  0
   -3.0172   -3.4249    0.8415 C   0  0  0  0  0  0  0  0  0  0  0  0
   -3.8086   -2.8159    1.2850 H   0  0  0  0  0  0  0  0  0  0  0  0
   -3.2629   -3.6249   -0.2044 H   0  0  0  0  0  0  0  0  0  0  0  0
   -1.6904   -2.6951    0.9310 C   0  0  0  0  0  0  0  0  0  0  0  0
   -0.7866   -3.1587    1.6075 O   0  0  0  0  0  0  0  0  0  0  0  0
   -1.5415   -1.4749    0.3080 N   0  0  0  0  0  0  0  0  0  0  0  0
   -2.3680   -1.0821   -0.1390 H   0  0  0  0  0  0  0  0  0  0  0  0
   -0.3089   -0.6743    0.2264 C   0  0  1  0  0  0  0  0  0  0  0  0
    0.4377   -1.0278    0.9446 H   0  0  0  0  0  0  0  0  0  0  0  0
    0.2670   -0.7216   -1.2063 C   0  0  0  0  0  0  0  0  0  0  0  0
   -0.5413   -0.5268   -1.9178 H   0  0  0  0  0  0  0  0  0  0  0  0
    0.9959    0.0869   -1.3189 H   0  0  0  0  0  0  0  0  0  0  0  0
    0.9618   -1.9885   -1.6274 C   0  0  0  0  0  0  0  0  0  0  0  0
    1.5016   -2.1010   -2.9034 N   0  0  0  0  0  0  0  0  0  0  0  0
    2.0873   -3.2721   -2.9691 C   0  0  0  0  0  0  0  0  0  0  0  0
    2.6003   -3.6626   -3.8434 H   0  0  0  0  0  0  0  0  0  0  0  0
    1.9615   -3.9267   -1.7607 N   0  0  0  0  0  0  0  0  0  0  0  0
    2.3438   -4.8452   -1.5441 H   0  0  0  0  0  0  0  0  0  0  0  0
    1.2641   -3.1072   -0.9000 C   0  0  0  0  0  0  0  0  0  0  0  0
    1.0306   -3.2971    0.1412 H   0  0  0  0  0  0  0  0  0  0  0  0
   -0.6348    0.8001    0.5417 C   0  0  0  0  0  0  0  0  0  0  0  0
   -1.6393    1.3197    0.0670 O   0  0  0  0  0  0  0  0  0  0  0  0
    0.1747    1.5316    1.3914 N   0  0  0  0  0  0  0  0  0  0  0  0
    0.9731    1.0587    1.8059 H   0  0  0  0  0  0  0  0  0  0  0  0
   -0.0961    2.9154    1.7615 C   0  0  0  0  0  0  0  0  0  0  0  0
   -1.0550    2.9917    2.2848 H   0  0  0  0  0  0  0  0  0  0  0  0
    0.6902    3.2905    2.4236 H   0  0  0  0  0  0  0  0  0  0  0  0
   -0.1290    3.5515    0.8707 H   0  0  0  0  0  0  0  0  0  0  0  0
  1  2  1  0  0  0  0
  2  3  1  0  0  0  0
  2  4  1  0  0  0  0
  2  5  1  0  0  0  0
  5  6  2  0  0  0  0
  5  7  1  0  0  0  0
  7  8  1  0  0  0  0
  7  9  1  0  0  0  0
  9 10  1  0  0  0  0
  9 11  1  0  0  0  0
  9 22  1  0  0  0  0
 11 12  1  0  0  0  0
 11 13  1  0  0  0  0
 11 14  1  0  0  0  0
 14 15  1  0  0  0  0
 14 20  2  0  0  0  0
 15 16  2  0  0  0  0
 16 17  1  0  0  0  0
 16 18  1  0  0  0  0
 18 19  1  0  0  0  0
 18 20  1  0  0  0  0
 20 21  1  0  0  0  0
 22 23  2  0  0  0  0
 22 24  1  0  0  0  0
 24 25  1  0  0  0  0
 24 26  1  0  0  0  0
 26 27  1  0  0  0  0
 26 28  1  0  0  0  0
 26 29  1  0  0  0  0
M  END
$$$$

  -OEChem-04042215593D

 29 29  0     1  0  0  0  0  0999 V2000
   -3.0134   -4.3453    1.4881 H   0  0  0  0  0  0  0  0  0  0  0  0
   -3.0629   -3.3999    0.9405 C   0  0  0  0  0  0  0  0  0  0  0  0
   -3.8303   -2.7690    1.3958 H   0  0  0  0  0  0  0  0  0  0  0  0
   -3.3387   -3.6073   -0.0964 H   0  0  0  0  0  0  0  0  0  0  0  0
   -1.7201   -2.6964    0.9887 C   0  0  0  0  0  0  0  0  0  0  0  0
   -0.8135   -3.1631    1.6592 O   0  0  0  0  0  0  0  0  0  0  0  0
   -1.5616   -1.4881    0.3462 N   0  0  0  0  0  0  0  0  0  0  0  0
   -2.3918   -1.0830   -0.0833 H   0  0  0  0  0  0  0  0  0  0  0  0
   -0.3212   -0.7022    0.2382 C   0  0  1  0  0  0  0  0  0  0  0  0
    0.4303   -1.0559    0.9518 H   0  0  0  0  0  0  0  0  0  0  0  0
    0.2507   -0.7490   -1.1980 C   0  0  0  0  0  0  0  0  0  0  0  0
   -0.5546   -0.5332   -1.9069 H   0  0  0  0  0  0  0  0  0  0  0  0
    0.9867    0.0554   -1.2956 H   0  0  0  0  0  0  0  0  0  0  0  0
    0.9425   -2.0068   -1.6539 C   0  0  0  0  0  0  0  0  0  0  0  0
    1.7280   -1.9753   -2.8010 N   0  0  0  0  0  0  0  0  0  0  0  0
    2.2640   -3.1637   -2.9351 C   0  0  0  0  0  0  0  0  0  0  0  0
    2.9293   -3.4594   -3.7413 H   0  0  0  0  0  0  0  0  0  0  0  0
    1.8640   -3.9750   -1.8937 N   0  0  0  0  0  0  0  0  0  0  0  0
    2.1615   -4.9379   -1.7483 H   0  0  0  0  0  0  0  0  0  0  0  0
    1.0420   -3.2392   -1.0678 C   0  0  0  0  0  0  0  0  0  0  0  0
    0.5994   -3.5643   -0.1360 H   0  0  0  0  0  0  0  0  0  0  0  0
   -0.6391    0.7776    0.5372 C   0  0  0  0  0  0  0  0  0  0  0  0
   -1.6499    1.2933    0.0712 O   0  0  0  0  0  0  0  0  0  0  0  0
    0.1828    1.5157    1.3688 N   0  0  0  0  0  0  0  0  0  0  0  0
    0.9858    1.0447    1.7766 H   0  0  0  0  0  0  0  0  0  0  0  0
   -0.0770    2.9050    1.7247 C   0  0  0  0  0  0  0  0  0  0  0  0
   -1.0396    2.9960    2.2388 H   0  0  0  0  0  0  0  0  0  0  0  0
    0.7073    3.2769    2.3911 H   0  0  0  0  0  0  0  0  0  0  0  0
   -0.0952    3.5329    0.8277 H   0  0  0  0  0  0  0  0  0  0  0  0
  1  2  1  0  0  0  0
  2  3  1  0  0  0  0
  2  4  1  0  0  0  0
  2  5  1  0  0  0  0
  5  6  2  0  0  0  0
  5  7  1  0  0  0  0
  7  8  1  0  0  0  0
  7  9  1  0  0  0  0
  9 10  1  0  0  0  0
  9 11  1  0  0  0  0
  9 22  1  0  0  0  0
 11 12  1  0  0  0  0
 11 13  1  0  0  0  0
 11 14  1  0  0  0  0
 14 15  1  0  0  0  0
 14 20  2  0  0  0  0
 15 16  2  0  0  0  0
 16 17  1  0  0  0  0
 16 18  1  0  0  0  0
 18 19  1  0  0  0  0
 18 20  1  0  0  0  0
 20 21  1  0  0  0  0
 22 23  2  0  0  0  0
 22 24  1  0  0  0  0
 24 25  1  0  0  0  0
 24 26  1  0  0  0  0
 26 27  1  0  0  0  0
 26 28  1  0  0  0  0
 26 29  1  0  0  0  0
M  END
$$$$

  -OEChem-04042215593D

 29 29  0     1  0  0  0  0  0999 V2000
   -3.0844   -4.3122    1.4815 H   0  0  0  0  0  0  0  0  0  0  0  0
   -3.1252   -3.3572    0.9500 C   0  0  0  0  0  0  0  0  0  0  0  0
   -3.8484   -2.7075    1.4493 H   0  0  0  0  0  0  0  0  0  0  0  0
   -3.4558   -3.5388   -0.0756 H   0  0  0  0  0  0  0  0  0  0  0  0
   -1.7574   -2.7011    0.9454 C   0  0  0  0  0  0  0  0  0  0  0  0
   -0.8310   -3.2231    1.5442 O   0  0  0  0  0  0  0  0  0  0  0  0
   -1.5855   -1.4889    0.3130 N   0  0  0  0  0  0  0  0  0  0  0  0
   -2.4220   -1.0385   -0.0552 H   0  0  0  0  0  0  0  0  0  0  0  0
   -0.3347   -0.7175    0.2194 C   0  0  1  0  0  0  0  0  0  0  0  0
    0.3999   -1.0844    0.9440 H   0  0  0  0  0  0  0  0  0  0  0  0
    0.2809   -0.7461   -1.1994 C   0  0  0  0  0  0  0  0  0  0  0  0
   -0.4957   -0.5084   -1.9325 H   0  0  0  0  0  0  0  0  0  0  0  0
    1.0271    0.0530   -1.2547 H   0  0  0  0  0  0  0  0  0  0  0  0
    0.9787   -2.0024   -1.6512 C   0  0  0  0  0  0  0  0  0  0  0  0
    2.0293   -1.9094   -2.5581 N   0  0  0  0  0  0  0  0  0  0  0  0
    2.4796   -3.1247   -2.7527 C   0  0  0  0  0  0  0  0  0  0  0  0
    3.3037   -3.3852   -3.4107 H   0  0  0  0  0  0  0  0  0  0  0  0
    1.7525   -4.0183   -1.9939 N   0  0  0  0  0  0  0  0  0  0  0  0
    1.9153   -5.0223   -1.9483 H   0  0  0  0  0  0  0  0  0  0  0  0
    0.8038   -3.3099   -1.2885 C   0  0  0  0  0  0  0  0  0  0  0  0
    0.0838   -3.7103   -0.5883 H   0  0  0  0  0  0  0  0  0  0  0  0
   -0.6424    0.7621    0.5307 C   0  0  0  0  0  0  0  0  0  0  0  0
   -1.6572    1.2836    0.0796 O   0  0  0  0  0  0  0  0  0  0  0  0
    0.1798    1.4861    1.3745 N   0  0  0  0  0  0  0  0  0  0  0  0
    0.9952    1.0146    1.7568 H   0  0  0  0  0  0  0  0  0  0  0  0
   -0.0736    2.8723    1.7469 C   0  0  0  0  0  0  0  0  0  0  0  0
   -1.0378    2.9616    2.2583 H   0  0  0  0  0  0  0  0  0  0  0  0
    0.7097    3.2315    2.4212 H   0  0  0  0  0  0  0  0  0  0  0  0
   -0.0841    3.5118    0.8579 H   0  0  0  0  0  0  0  0  0  0  0  0
  1  2  1  0  0  0  0
  2  3  1  0  0  0  0
  2  4  1  0  0  0  0
  2  5  1  0  0  0  0
  5  6  2  0  0  0  0
  5  7  1  0  0  0  0
  7  8  1  0  0  0  0
  7  9  1  0  0  0  0
  9 10  1  0  0  0  0
  9 11  1  0  0  0  0
  9 22  1  0  0  0  0
 11 12  1  0  0  0  0
 11 13  1  0  0  0  0
 11 14  1  0  0  0  0
 14 15  1  0  0  0  0
 14 20  2  0  0  0  0
 15 16  2  0  0  0  0
 16 17  1  0  0  0  0
 16 18  1  0  0  0  0
 18 19  1  0  0  0  0
 18 20  1  0  0  0  0
 20 21  1  0  0  0  0
 22 23  2  0  0  0  0
 22 24  1  0  0  0  0
 24 25  1  0  0  0  0
 24 26  1  0  0  0  0
 26 27  1  0  0  0  0
 26 28  1  0  0  0  0
 26 29  1  0  0  0  0
M  END
$$$$

  -OEChem-04042215593D

 29 29  0     1  0  0  0  0  0999 V2000
   -3.0324   -4.3211    1.4893 H   0  0  0  0  0  0  0  0  0  0  0  0
   -3.0975   -3.3519    0.9869 C   0  0  0  0  0  0  0  0  0  0  0  0
   -3.7664   -2.7036    1.5582 H   0  0  0  0  0  0  0  0  0  0  0  0
   -3.5121   -3.5006   -0.0131 H   0  0  0  0  0  0  0  0  0  0  0  0
   -1.7222   -2.7190    0.8894 C   0  0  0  0  0  0  0  0  0  0  0  0
   -0.7564   -3.2871    1.3714 O   0  0  0  0  0  0  0  0  0  0  0  0
   -1.5800   -1.4931    0.2757 N   0  0  0  0  0  0  0  0  0  0  0  0
   -2.4360   -1.0137   -0.0000 H   0  0  0  0  0  0  0  0  0  0  0  0
   -0.3368   -0.7101    0.1785 C   0  0  1  0  0  0  0  0  0  0  0  0
    0.4039   -1.0825    0.8944 H   0  0  0  0  0  0  0  0  0  0  0  0
    0.2781   -0.7243   -1.2390 C   0  0  0  0  0  0  0  0  0  0  0  0
   -0.5011   -0.5008   -1.9736 H   0  0  0  0  0  0  0  0  0  0  0  0
    1.0168    0.0817   -1.2994 H   0  0  0  0  0  0  0  0  0  0  0  0
    0.9794   -1.9877   -1.6606 C   0  0  0  0  0  0  0  0  0  0  0  0
    2.2154   -1.9282   -2.2957 N   0  0  0  0  0  0  0  0  0  0  0  0
    2.5773   -3.1642   -2.5408 C   0  0  0  0  0  0  0  0  0  0  0  0
    3.5052   -3.4560   -3.0246 H   0  0  0  0  0  0  0  0  0  0  0  0
    1.6048   -4.0350   -2.0932 N   0  0  0  0  0  0  0  0  0  0  0  0
    1.6539   -5.0505   -2.1445 H   0  0  0  0  0  0  0  0  0  0  0  0
    0.5855   -3.2914   -1.5391 C   0  0  0  0  0  0  0  0  0  0  0  0
   -0.3306   -3.6600   -1.0950 H   0  0  0  0  0  0  0  0  0  0  0  0
   -0.6488    0.7609    0.5214 C   0  0  0  0  0  0  0  0  0  0  0  0
   -1.6800    1.2779    0.1036 O   0  0  0  0  0  0  0  0  0  0  0  0
    0.1800    1.4764    1.3656 N   0  0  0  0  0  0  0  0  0  0  0  0
    1.0111    1.0087    1.7178 H   0  0  0  0  0  0  0  0  0  0  0  0
   -0.0796    2.8534    1.7667 C   0  0  0  0  0  0  0  0  0  0  0  0
   -1.0327    2.9230    2.3012 H   0  0  0  0  0  0  0  0  0  0  0  0
    0.7149    3.2105    2.4287 H   0  0  0  0  0  0  0  0  0  0  0  0
   -0.1183    3.5075    0.8894 H   0  0  0  0  0  0  0  0  0  0  0  0
  1  2  1  0  0  0  0
  2  3  1  0  0  0  0
  2  4  1  0  0  0  0
  2  5  1  0  0  0  0
  5  6  2  0  0  0  0
  5  7  1  0  0  0  0
  7  8  1  0  0  0  0
  7  9  1  0  0  0  0
  9 10  1  0  0  0  0
  9 11  1  0  0  0  0
  9 22  1  0  0  0  0
 11 12  1  0  0  0  0
 11 13  1  0  0  0  0
 11 14  1  0  0  0  0
 14 15  1  0  0  0  0
 14 20  2  0  0  0  0
 15 16  2  0  0  0  0
 16 17  1  0  0  0  0
 16 18  1  0  0  0  0
 18 19  1  0  0  0  0
 18 20  1  0  0  0  0
 20 21  1  0  0  0  0
 22 23  2  0  0  0  0
 22 24  1  0  0  0  0
 24 25  1  0  0  0  0
 24 26  1  0  0  0  0
 26 27  1  0  0  0  0
 26 28  1  0  0  0  0
 26 29  1  0  0  0  0
M  END
$$$$

  -OEChem-04042215593D

 29 29  0     1  0  0  0  0  0999 V2000
   -2.9413   -4.3635    1.4380 H   0  0  0  0  0  0  0  0  0  0  0  0
   -3.0361   -3.3831    0.9626 C   0  0  0  0  0  0  0  0  0  0  0  0
   -3.6851   -2.7552    1.5780 H   0  0  0  0  0  0  0  0  0  0  0  0
   -3.4922   -3.5115   -0.0219 H   0  0  0  0  0  0  0  0  0  0  0  0
   -1.6714   -2.7354    0.8224 C   0  0  0  0  0  0  0  0  0  0  0  0
   -0.6813   -3.3083    1.2449 O   0  0  0  0  0  0  0  0  0  0  0  0
   -1.5671   -1.4930    0.2341 N   0  0  0  0  0  0  0  0  0  0  0  0
   -2.4377   -1.0133    0.0101 H   0  0  0  0  0  0  0  0  0  0  0  0
   -0.3382   -0.6884    0.1411 C   0  0  1  0  0  0  0  0  0  0  0  0
    0.4141   -1.0634    0.8437 H   0  0  0  0  0  0  0  0  0  0  0  0
    0.2582   -0.6943   -1.2798 C   0  0  0  0  0  0  0  0  0  0  0  0
   -0.5347   -0.4987   -2.0074 H   0  0  0  0  0  0  0  0  0  0  0  0
    0.9867    0.1178   -1.3673 H   0  0  0  0  0  0  0  0  0  0  0  0
    0.9566   -1.9703   -1.6524 C   0  0  0  0  0  0  0  0  0  0  0  0
    2.3030   -1.9905   -1.9962 N   0  0  0  0  0  0  0  0  0  0  0  0
    2.5929   -3.2336   -2.2965 C   0  0  0  0  0  0  0  0  0  0  0  0
    3.5753   -3.5860   -2.5974 H   0  0  0  0  0  0  0  0  0  0  0  0
    1.4660   -4.0235   -2.1795 N   0  0  0  0  0  0  0  0  0  0  0  0
    1.4329   -5.0289   -2.3354 H   0  0  0  0  0  0  0  0  0  0  0  0
    0.4189   -3.2202   -1.7824 C   0  0  0  0  0  0  0  0  0  0  0  0
   -0.6101   -3.5066   -1.5967 H   0  0  0  0  0  0  0  0  0  0  0  0
   -0.6551    0.7717    0.5188 C   0  0  0  0  0  0  0  0  0  0  0  0
   -1.6973    1.2881    0.1284 O   0  0  0  0  0  0  0  0  0  0  0  0
    0.1808    1.4739    1.3668 N   0  0  0  0  0  0  0  0  0  0  0  0
    1.0268    1.0083    1.6851 H   0  0  0  0  0  0  0  0  0  0  0  0
   -0.0758    2.8432    1.7945 C   0  0  0  0  0  0  0  0  0  0  0  0
   -1.0238    2.9034    2.3392 H   0  0  0  0  0  0  0  0  0  0  0  0
    0.7250    3.1884    2.4555 H   0  0  0  0  0  0  0  0  0  0  0  0
   -0.1223    3.5122    0.9288 H   0  0  0  0  0  0  0  0  0  0  0  0
  1  2  1  0  0  0  0
  2  3  1  0  0  0  0
  2  4  1  0  0  0  0
  2  5  1  0  0  0  0
  5  6  2  0  0  0  0
  5  7  1  0  0  0  0
  7  8  1  0  0  0  0
  7  9  1  0  0  0  0
  9 10  1  0  0  0  0
  9 11  1  0  0  0  0
  9 22  1  0  0  0  0
 11 12  1  0  0  0  0
 11 13  1  0  0  0  0
 11 14  1  0  0  0  0
 14 15  1  0  0  0  0
 14 20  2  0  0  0  0
 15 16  2  0  0  0  0
 16 17  1  0  0  0  0
 16 18  1  0  0  0  0
 18 19  1  0  0  0  0
 18 20  1  0  0  0  0
 20 21  1  0  0  0  0
 22 23  2  0  0  0  0
 22 24  1  0  0  0  0
 24 25  1  0  0  0  0
 24 26  1  0  0  0  0
 26 27  1  0  0  0  0
 26 28  1  0  0  0  0
 26 29  1  0  0  0  0
M  END
$$$$

  -OEChem-04042215593D

 29 29  0     1  0  0  0  0  0999 V2000
   -2.8564   -4.4059    1.3742 H   0  0  0  0  0  0  0  0  0  0  0  0
   -2.9779   -3.4199    0.9170 C   0  0  0  0  0  0  0  0  0  0  0  0
   -3.6310   -2.8160    1.5518 H   0  0  0  0  0  0  0  0  0  0  0  0
   -3.4441   -3.5415   -0.0637 H   0  0  0  0  0  0  0  0  0  0  0  0
   -1.6288   -2.7423    0.7694 C   0  0  0  0  0  0  0  0  0  0  0  0
   -0.6226   -3.3051    1.1667 O   0  0  0  0  0  0  0  0  0  0  0  0
   -1.5580   -1.4872    0.2025 N   0  0  0  0  0  0  0  0  0  0  0  0
   -2.4402   -1.0175    0.0056 H   0  0  0  0  0  0  0  0  0  0  0  0
   -0.3420   -0.6640    0.1059 C   0  0  1  0  0  0  0  0  0  0  0  0
    0.4253   -1.0415    0.7910 H   0  0  0  0  0  0  0  0  0  0  0  0
    0.2238   -0.6676   -1.3244 C   0  0  0  0  0  0  0  0  0  0  0  0
   -0.5866   -0.4944   -2.0382 H   0  0  0  0  0  0  0  0  0  0  0  0
    0.9455    0.1465   -1.4432 H   0  0  0  0  0  0  0  0  0  0  0  0
    0.9156   -1.9545   -1.6580 C   0  0  0  0  0  0  0  0  0  0  0  0
    2.2990   -2.0647   -1.7143 N   0  0  0  0  0  0  0  0  0  0  0  0
    2.5544   -3.3043   -2.0588 C   0  0  0  0  0  0  0  0  0  0  0  0
    3.5505   -3.7218   -2.1742 H   0  0  0  0  0  0  0  0  0  0  0  0
    1.3743   -3.9953   -2.2595 N   0  0  0  0  0  0  0  0  0  0  0  0
    1.3041   -4.9796   -2.5089 H   0  0  0  0  0  0  0  0  0  0  0  0
    0.3262   -3.1331   -2.0193 C   0  0  0  0  0  0  0  0  0  0  0  0
   -0.7385   -3.3319   -2.0792 H   0  0  0  0  0  0  0  0  0  0  0  0
   -0.6565    0.7874    0.5132 C   0  0  0  0  0  0  0  0  0  0  0  0
   -1.7058    1.3080    0.1487 O   0  0  0  0  0  0  0  0  0  0  0  0
    0.1938    1.4761    1.3579 N   0  0  0  0  0  0  0  0  0  0  0  0
    1.0440    1.0038    1.6547 H   0  0  0  0  0  0  0  0  0  0  0  0
   -0.0588    2.8343    1.8215 C   0  0  0  0  0  0  0  0  0  0  0  0
   -1.0010    2.8809    2.3775 H   0  0  0  0  0  0  0  0  0  0  0  0
    0.7487    3.1634    2.4827 H   0  0  0  0  0  0  0  0  0  0  0  0
   -0.1145    3.5244    0.9731 H   0  0  0  0  0  0  0  0  0  0  0  0
  1  2  1  0  0  0  0
  2  3  1  0  0  0  0
  2  4  1  0  0  0  0
  2  5  1  0  0  0  0
  5  6  2  0  0  0  0
  5  7  1  0  0  0  0
  7  8  1  0  0  0  0
  7  9  1  0  0  0  0
  9 10  1  0  0  0  0
  9 11  1  0  0  0  0
  9 22  1  0  0  0  0
 11 12  1  0  0  0  0
 11 13  1  0  0  0  0
 11 14  1  0  0  0  0
 14 15  1  0  0  0  0
 14 20  2  0  0  0  0
 15 16  2  0  0  0  0
 16 17  1  0  0  0  0
 16 18  1  0  0  0  0
 18 19  1  0  0  0  0
 18 20  1  0  0  0  0
 20 21  1  0  0  0  0
 22 23  2  0  0  0  0
 22 24  1  0  0  0  0
 24 25  1  0  0  0  0
 24 26  1  0  0  0  0
 26 27  1  0  0  0  0
 26 28  1  0  0  0  0
 26 29  1  0  0  0  0
M  END
$$$$

  -OEChem-04042215593D

 29 29  0     1  0  0  0  0  0999 V2000
   -2.8092   -4.4318    1.3226 H   0  0  0  0  0  0  0  0  0  0  0  0
   -2.9441   -3.4422    0.8772 C   0  0  0  0  0  0  0  0  0  0  0  0
   -3.6014   -2.8530    1.5211 H   0  0  0  0  0  0  0  0  0  0  0  0
   -3.4126   -3.5578   -0.1029 H   0  0  0  0  0  0  0  0  0  0  0  0
   -1.6032   -2.7476    0.7314 C   0  0  0  0  0  0  0  0  0  0  0  0
   -0.5890   -3.3055    1.1151 O   0  0  0  0  0  0  0  0  0  0  0  0
   -1.5510   -1.4834    0.1822 N   0  0  0  0  0  0  0  0  0  0  0  0
   -2.4395   -1.0215   -0.0032 H   0  0  0  0  0  0  0  0  0  0  0  0
   -0.3431   -0.6491    0.0813 C   0  0  1  0  0  0  0  0  0  0  0  0
    0.4368   -1.0309    0.7499 H   0  0  0  0  0  0  0  0  0  0  0  0
    0.1938   -0.6473   -1.3584 C   0  0  0  0  0  0  0  0  0  0  0  0
   -0.6294   -0.4789   -2.0588 H   0  0  0  0  0  0  0  0  0  0  0  0
    0.9145    0.1651   -1.4923 H   0  0  0  0  0  0  0  0  0  0  0  0
    0.8789   -1.9397   -1.6777 C   0  0  0  0  0  0  0  0  0  0  0  0
    2.2348   -2.1423   -1.4578 N   0  0  0  0  0  0  0  0  0  0  0  0
    2.4881   -3.3675   -1.8514 C   0  0  0  0  0  0  0  0  0  0  0  0
    3.4615   -3.8463   -1.7964 H   0  0  0  0  0  0  0  0  0  0  0  0
    1.3411   -3.9540   -2.3539 N   0  0  0  0  0  0  0  0  0  0  0  0
    1.2734   -4.9088   -2.7002 H   0  0  0  0  0  0  0  0  0  0  0  0
    0.3129   -3.0410   -2.2557 C   0  0  0  0  0  0  0  0  0  0  0  0
   -0.7259   -3.1591   -2.5459 H   0  0  0  0  0  0  0  0  0  0  0  0
   -0.6548    0.7955    0.5122 C   0  0  0  0  0  0  0  0  0  0  0  0
   -1.7082    1.3201    0.1654 O   0  0  0  0  0  0  0  0  0  0  0  0
    0.2065    1.4749    1.3532 N   0  0  0  0  0  0  0  0  0  0  0  0
    1.0598    0.9984    1.6345 H   0  0  0  0  0  0  0  0  0  0  0  0
   -0.0419    2.8261    1.8387 C   0  0  0  0  0  0  0  0  0  0  0  0
   -0.9764    2.8634    2.4082 H   0  0  0  0  0  0  0  0  0  0  0  0
    0.7739    3.1479    2.4932 H   0  0  0  0  0  0  0  0  0  0  0  0
   -0.1103    3.5272    1.0004 H   0  0  0  0  0  0  0  0  0  0  0  0
  1  2  1  0  0  0  0
  2  3  1  0  0  0  0
  2  4  1  0  0  0  0
  2  5  1  0  0  0  0
  5  6  2  0  0  0  0
  5  7  1  0  0  0  0
  7  8  1  0  0  0  0
  7  9  1  0  0  0  0
  9 10  1  0  0  0  0
  9 11  1  0  0  0  0
  9 22  1  0  0  0  0
 11 12  1  0  0  0  0
 11 13  1  0  0  0  0
 11 14  1  0  0  0  0
 14 15  1  0  0  0  0
 14 20  2  0  0  0  0
 15 16  2  0  0  0  0
 16 17  1  0  0  0  0
 16 18  1  0  0  0  0
 18 19  1  0  0  0  0
 18 20  1  0  0  0  0
 20 21  1  0  0  0  0
 22 23  2  0  0  0  0
 22 24  1  0  0  0  0
 24 25  1  0  0  0  0
 24 26  1  0  0  0  0
 26 27  1  0  0  0  0
 26 28  1  0  0  0  0
 26 29  1  0  0  0  0
M  END
$$$$

  -OEChem-04042215593D

 29 29  0     1  0  0  0  0  0999 V2000
   -2.7807   -4.4503    1.2813 H   0  0  0  0  0  0  0  0  0  0  0  0
   -2.9198   -3.4586    0.8418 C   0  0  0  0  0  0  0  0  0  0  0  0
   -3.5870   -2.8791    1.4845 H   0  0  0  0  0  0  0  0  0  0  0  0
   -3.3796   -3.5708   -0.1428 H   0  0  0  0  0  0  0  0  0  0  0  0
   -1.5833   -2.7522    0.7111 C   0  0  0  0  0  0  0  0  0  0  0  0
   -0.5690   -3.3048    1.1020 O   0  0  0  0  0  0  0  0  0  0  0  0
   -1.5389   -1.4830    0.1726 N   0  0  0  0  0  0  0  0  0  0  0  0
   -2.4298   -1.0305   -0.0227 H   0  0  0  0  0  0  0  0  0  0  0  0
   -0.3364   -0.6408    0.0720 C   0  0  1  0  0  0  0  0  0  0  0  0
    0.4513   -1.0241    0.7306 H   0  0  0  0  0  0  0  0  0  0  0  0
    0.1787   -0.6316   -1.3757 C   0  0  0  0  0  0  0  0  0  0  0  0
   -0.6524   -0.4582   -2.0655 H   0  0  0  0  0  0  0  0  0  0  0  0
    0.9002    0.1795   -1.5124 H   0  0  0  0  0  0  0  0  0  0  0  0
    0.8619   -1.9223   -1.7028 C   0  0  0  0  0  0  0  0  0  0  0  0
    2.1300   -2.2393   -1.2355 N   0  0  0  0  0  0  0  0  0  0  0  0
    2.3932   -3.4419   -1.6872 C   0  0  0  0  0  0  0  0  0  0  0  0
    3.3072   -3.9925   -1.4844 H   0  0  0  0  0  0  0  0  0  0  0  0
    1.3447   -3.8998   -2.4644 N   0  0  0  0  0  0  0  0  0  0  0  0
    1.2999   -4.8149   -2.9076 H   0  0  0  0  0  0  0  0  0  0  0  0
    0.3658   -2.9290   -2.4821 C   0  0  0  0  0  0  0  0  0  0  0  0
   -0.6003   -2.9518   -2.9759 H   0  0  0  0  0  0  0  0  0  0  0  0
   -0.6511    0.7989    0.5156 C   0  0  0  0  0  0  0  0  0  0  0  0
   -1.7010    1.3281    0.1654 O   0  0  0  0  0  0  0  0  0  0  0  0
    0.2122    1.4751    1.3569 N   0  0  0  0  0  0  0  0  0  0  0  0
    1.0607    0.9925    1.6424 H   0  0  0  0  0  0  0  0  0  0  0  0
   -0.0341    2.8249    1.8476 C   0  0  0  0  0  0  0  0  0  0  0  0
   -0.9640    2.8596    2.4248 H   0  0  0  0  0  0  0  0  0  0  0  0
    0.7867    3.1465    2.4957 H   0  0  0  0  0  0  0  0  0  0  0  0
   -0.1104    3.5276    1.0114 H   0  0  0  0  0  0  0  0  0  0  0  0
  1  2  1  0  0  0  0
  2  3  1  0  0  0  0
  2  4  1  0  0  0  0
  2  5  1  0  0  0  0
  5  6  2  0  0  0  0
  5  7  1  0  0  0  0
  7  8  1  0  0  0  0
  7  9  1  0  0  0  0
  9 10  1  0  0  0  0
  9 11  1  0  0  0  0
  9 22  1  0  0  0  0
 11 12  1  0  0  0  0
 11 13  1  0  0  0  0
 11 14  1  0  0  0  0
 14 15  1  0  0  0  0
 14 20  2  0  0  0  0
 15 16  2  0  0  0  0
 16 17  1  0  0  0  0
 16 18  1  0  0  0  0
 18 19  1  0  0  0  0
 18 20  1  0  0  0  0
 20 21  1  0  0  0  0
 22 23  2  0  0  0  0
 22 24  1  0  0  0  0
 24 25  1  0  0  0  0
 24 26  1  0  0  0  0
 26 27  1  0  0  0  0
 26 28  1  0  0  0  0
 26 29  1  0  0  0  0
M  END
$$$$

  -OEChem-04042215593D

 29 29  0     1  0  0  0  0  0999 V2000
   -2.7638   -4.4644    1.2528 H   0  0  0  0  0  0  0  0  0  0  0  0
   -2.9011   -3.4743    0.8090 C   0  0  0  0  0  0  0  0  0  0  0  0
   -3.5952   -2.9033    1.4301 H   0  0  0  0  0  0  0  0  0  0  0  0
   -3.3280   -3.5921   -0.1897 H   0  0  0  0  0  0  0  0  0  0  0  0
   -1.5701   -2.7517    0.7204 C   0  0  0  0  0  0  0  0  0  0  0  0
   -0.5652   -3.2893    1.1530 O   0  0  0  0  0  0  0  0  0  0  0  0
   -1.5265   -1.4830    0.1809 N   0  0  0  0  0  0  0  0  0  0  0  0
   -2.4166   -1.0460   -0.0486 H   0  0  0  0  0  0  0  0  0  0  0  0
   -0.3284   -0.6346    0.0793 C   0  0  1  0  0  0  0  0  0  0  0  0
    0.4627   -1.0140    0.7358 H   0  0  0  0  0  0  0  0  0  0  0  0
    0.1753   -0.6246   -1.3739 C   0  0  0  0  0  0  0  0  0  0  0  0
   -0.6596   -0.4451   -2.0577 H   0  0  0  0  0  0  0  0  0  0  0  0
    0.8957    0.1877   -1.5072 H   0  0  0  0  0  0  0  0  0  0  0  0
    0.8643   -1.9091   -1.7198 C   0  0  0  0  0  0  0  0  0  0  0  0
    1.9914   -2.3690   -1.0524 N   0  0  0  0  0  0  0  0  0  0  0  0
    2.2765   -3.5369   -1.5749 C   0  0  0  0  0  0  0  0  0  0  0  0
    3.0995   -4.1720   -1.2600 H   0  0  0  0  0  0  0  0  0  0  0  0
    1.3834   -3.8345   -2.5882 N   0  0  0  0  0  0  0  0  0  0  0  0
    1.3844   -4.6921   -3.1366 H   0  0  0  0  0  0  0  0  0  0  0  0
    0.4792   -2.7975   -2.6842 C   0  0  0  0  0  0  0  0  0  0  0  0
   -0.3716   -2.7034   -3.3514 H   0  0  0  0  0  0  0  0  0  0  0  0
   -0.6470    0.8050    0.5197 C   0  0  0  0  0  0  0  0  0  0  0  0
   -1.6916    1.3368    0.1573 O   0  0  0  0  0  0  0  0  0  0  0  0
    0.2156    1.4842    1.3594 N   0  0  0  0  0  0  0  0  0  0  0  0
    1.0545    0.9953    1.6620 H   0  0  0  0  0  0  0  0  0  0  0  0
   -0.0331    2.8337    1.8497 C   0  0  0  0  0  0  0  0  0  0  0  0
   -0.9623    2.8666    2.4283 H   0  0  0  0  0  0  0  0  0  0  0  0
    0.7884    3.1573    2.4963 H   0  0  0  0  0  0  0  0  0  0  0  0
   -0.1123    3.5362    1.0134 H   0  0  0  0  0  0  0  0  0  0  0  0
  1  2  1  0  0  0  0
  2  3  1  0  0  0  0
  2  4  1  0  0  0  0
  2  5  1  0  0  0  0
  5  6  2  0  0  0  0
  5  7  1  0  0  0  0
  7  8  1  0  0  0  0
  7  9  1  0  0  0  0
  9 10  1  0  0  0  0
  9 11  1  0  0  0  0
  9 22  1  0  0  0  0
 11 12  1  0  0  0  0
 11 13  1  0  0  0  0
 11 14  1  0  0  0  0
 14 15  1  0  0  0  0
 14 20  2  0  0  0  0
 15 16  2  0  0  0  0
 16 17  1  0  0  0  0
 16 18  1  0  0  0  0
 18 19  1  0  0  0  0
 18 20  1  0  0  0  0
 20 21  1  0  0  0  0
 22 23  2  0  0  0  0
 22 24  1  0  0  0  0
 24 25  1  0  0  0  0
 24 26  1  0  0  0  0
 26 27  1  0  0  0  0
 26 28  1  0  0  0  0
 26 29  1  0  0  0  0
M  END
$$$$

  -OEChem-04042215593D

 29 29  0     1  0  0  0  0  0999 V2000
   -2.7556   -4.4888    1.2221 H   0  0  0  0  0  0  0  0  0  0  0  0
   -2.8859   -3.5006    0.7723 C   0  0  0  0  0  0  0  0  0  0  0  0
   -3.6333   -2.9479    1.3464 H   0  0  0  0  0  0  0  0  0  0  0  0
   -3.2409   -3.6253   -0.2534 H   0  0  0  0  0  0  0  0  0  0  0  0
   -1.5690   -2.7471    0.7758 C   0  0  0  0  0  0  0  0  0  0  0  0
   -0.5945   -3.2479    1.3099 O   0  0  0  0  0  0  0  0  0  0  0  0
   -1.5140   -1.4858    0.2197 N   0  0  0  0  0  0  0  0  0  0  0  0
   -2.3919   -1.0774   -0.0924 H   0  0  0  0  0  0  0  0  0  0  0  0
   -0.3150   -0.6386    0.1208 C   0  0  1  0  0  0  0  0  0  0  0  0
    0.4739   -1.0103    0.7838 H   0  0  0  0  0  0  0  0  0  0  0  0
    0.1861   -0.6330   -1.3360 C   0  0  0  0  0  0  0  0  0  0  0  0
   -0.6474   -0.4404   -2.0181 H   0  0  0  0  0  0  0  0  0  0  0  0
    0.9094    0.1783   -1.4598 H   0  0  0  0  0  0  0  0  0  0  0  0
    0.8778   -1.9094   -1.7127 C   0  0  0  0  0  0  0  0  0  0  0  0
    1.8180   -2.5484   -0.9168 N   0  0  0  0  0  0  0  0  0  0  0  0
    2.1391   -3.6576   -1.5357 C   0  0  0  0  0  0  0  0  0  0  0  0
    2.8470   -4.3926   -1.1635 H   0  0  0  0  0  0  0  0  0  0  0  0
    1.4500   -3.7473   -2.7311 N   0  0  0  0  0  0  0  0  0  0  0  0
    1.5173   -4.5206   -3.3896 H   0  0  0  0  0  0  0  0  0  0  0  0
    0.6406   -2.6365   -2.8459 C   0  0  0  0  0  0  0  0  0  0  0  0
   -0.0550   -2.3896   -3.6418 H   0  0  0  0  0  0  0  0  0  0  0  0
   -0.6411    0.8068    0.5381 C   0  0  0  0  0  0  0  0  0  0  0  0
   -1.6680    1.3426    0.1330 O   0  0  0  0  0  0  0  0  0  0  0  0
    0.2091    1.4998    1.3793 N   0  0  0  0  0  0  0  0  0  0  0  0
    1.0310    1.0079    1.7217 H   0  0  0  0  0  0  0  0  0  0  0  0
   -0.0367    2.8650    1.8259 C   0  0  0  0  0  0  0  0  0  0  0  0
   -0.9714    2.9203    2.3936 H   0  0  0  0  0  0  0  0  0  0  0  0
    0.7804    3.2041    2.4699 H   0  0  0  0  0  0  0  0  0  0  0  0
   -0.1039    3.5424    0.9681 H   0  0  0  0  0  0  0  0  0  0  0  0
  1  2  1  0  0  0  0
  2  3  1  0  0  0  0
  2  4  1  0  0  0  0
  2  5  1  0  0  0  0
  5  6  2  0  0  0  0
  5  7  1  0  0  0  0
  7  8  1  0  0  0  0
  7  9  1  0  0  0  0
  9 10  1  0  0  0  0
  9 11  1  0  0  0  0
  9 22  1  0  0  0  0
 11 12  1  0  0  0  0
 11 13  1  0  0  0  0
 11 14  1  0  0  0  0
 14 15  1  0  0  0  0
 14 20  2  0  0  0  0
 15 16  2  0  0  0  0
 16 17  1  0  0  0  0
 16 18  1  0  0  0  0
 18 19  1  0  0  0  0
 18 20  1  0  0  0  0
 20 21  1  0  0  0  0
 22 23  2  0  0  0  0
 22 24  1  0  0  0  0
 24 25  1  0  0  0  0
 24 26  1  0  0  0  0
 26 27  1  0  0  0  0
 26 28  1  0  0  0  0
 26 29  1  0  0  0  0
M  END
$$$$

  -OEChem-04042215593D

 29 29  0     1  0  0  0  0  0999 V2000
   -2.7460   -4.4929    1.2259 H   0  0  0  0  0  0  0  0  0  0  0  0
   -2.8664   -3.5182    0.7448 C   0  0  0  0  0  0  0  0  0  0  0  0
   -3.6766   -2.9776    1.2399 H   0  0  0  0  0  0  0  0  0  0  0  0
   -3.1278   -3.6747   -0.3044 H   0  0  0  0  0  0  0  0  0  0  0  0
   -1.5773   -2.7242    0.8437 C   0  0  0  0  0  0  0  0  0  0  0  0
   -0.6496   -3.1681    1.4984 O   0  0  0  0  0  0  0  0  0  0  0  0
   -1.5099   -1.4760    0.2603 N   0  0  0  0  0  0  0  0  0  0  0  0
   -2.3613   -1.1130   -0.1603 H   0  0  0  0  0  0  0  0  0  0  0  0
   -0.3043   -0.6393    0.1585 C   0  0  1  0  0  0  0  0  0  0  0  0
    0.4818   -1.0051    0.8282 H   0  0  0  0  0  0  0  0  0  0  0  0
    0.1977   -0.6501   -1.3001 C   0  0  0  0  0  0  0  0  0  0  0  0
   -0.6337   -0.4475   -1.9819 H   0  0  0  0  0  0  0  0  0  0  0  0
    0.9269    0.1565   -1.4217 H   0  0  0  0  0  0  0  0  0  0  0  0
    0.8849   -1.9249   -1.6981 C   0  0  0  0  0  0  0  0  0  0  0  0
    1.5998   -2.7488   -0.8416 N   0  0  0  0  0  0  0  0  0  0  0  0
    1.9844   -3.7854   -1.5436 C   0  0  0  0  0  0  0  0  0  0  0  0
    2.5629   -4.6186   -1.1547 H   0  0  0  0  0  0  0  0  0  0  0  0
    1.5469   -3.6553   -2.8483 N   0  0  0  0  0  0  0  0  0  0  0  0
    1.7119   -4.3304   -3.5922 H   0  0  0  0  0  0  0  0  0  0  0  0
    0.8400   -2.4750   -2.9493 C   0  0  0  0  0  0  0  0  0  0  0  0
    0.3382   -2.0640   -3.8201 H   0  0  0  0  0  0  0  0  0  0  0  0
   -0.6293    0.8160    0.5419 C   0  0  0  0  0  0  0  0  0  0  0  0
   -1.6342    1.3585    0.0927 O   0  0  0  0  0  0  0  0  0  0  0  0
    0.2140    1.5211    1.3802 N   0  0  0  0  0  0  0  0  0  0  0  0
    1.0054    1.0189    1.7748 H   0  0  0  0  0  0  0  0  0  0  0  0
   -0.0433    2.8885    1.8128 C   0  0  0  0  0  0  0  0  0  0  0  0
   -0.9838    2.9433    2.3708 H   0  0  0  0  0  0  0  0  0  0  0  0
    0.7653    3.2375    2.4621 H   0  0  0  0  0  0  0  0  0  0  0  0
   -0.1055    3.5580    0.9485 H   0  0  0  0  0  0  0  0  0  0  0  0
  1  2  1  0  0  0  0
  2  3  1  0  0  0  0
  2  4  1  0  0  0  0
  2  5  1  0  0  0  0
  5  6  2  0  0  0  0
  5  7  1  0  0  0  0
  7  8  1  0  0  0  0
  7  9  1  0  0  0  0
  9 10  1  0  0  0  0
  9 11  1  0  0  0  0
  9 22  1  0  0  0  0
 11 12  1  0  0  0  0
 11 13  1  0  0  0  0
 11 14  1  0  0  0  0
 14 15  1  0  0  0  0
 14 20  2  0  0  0  0
 15 16  2  0  0  0  0
 16 17  1  0  0  0  0
 16 18  1  0  0  0  0
 18 19  1  0  0  0  0
 18 20  1  0  0  0  0
 20 21  1  0  0  0  0
 22 23  2  0  0  0  0
 22 24  1  0  0  0  0
 24 25  1  0  0  0  0
 24 26  1  0  0  0  0
 26 27  1  0  0  0  0
 26 28  1  0  0  0  0
 26 29  1  0  0  0  0
M  END
$$$$

  -OEChem-04042215593D

 29 29  0     1  0  0  0  0  0999 V2000
   -2.7302   -4.5007    1.2395 H   0  0  0  0  0  0  0  0  0  0  0  0
   -2.8445   -3.5440    0.7222 C   0  0  0  0  0  0  0  0  0  0  0  0
   -3.7115   -3.0216    1.1333 H   0  0  0  0  0  0  0  0  0  0  0  0
   -3.0111   -3.7371   -0.3402 H   0  0  0  0  0  0  0  0  0  0  0  0
   -1.5971   -2.7001    0.9046 C   0  0  0  0  0  0  0  0  0  0  0  0
   -0.7227   -3.0787    1.6665 O   0  0  0  0  0  0  0  0  0  0  0  0
   -1.5236   -1.4635    0.2971 N   0  0  0  0  0  0  0  0  0  0  0  0
   -2.3383   -1.1538   -0.2251 H   0  0  0  0  0  0  0  0  0  0  0  0
   -0.3075   -0.6428    0.1931 C   0  0  1  0  0  0  0  0  0  0  0  0
    0.4748   -1.0091    0.8669 H   0  0  0  0  0  0  0  0  0  0  0  0
    0.1974   -0.6657   -1.2662 C   0  0  0  0  0  0  0  0  0  0  0  0
   -0.6328   -0.4559   -1.9473 H   0  0  0  0  0  0  0  0  0  0  0  0
    0.9327    0.1353   -1.3889 H   0  0  0  0  0  0  0  0  0  0  0  0
    0.8723   -1.9424   -1.6813 C   0  0  0  0  0  0  0  0  0  0  0  0
    1.3326   -2.9381   -0.8333 N   0  0  0  0  0  0  0  0  0  0  0  0
    1.8106   -3.8953   -1.5885 C   0  0  0  0  0  0  0  0  0  0  0  0
    2.2460   -4.8193   -1.2188 H   0  0  0  0  0  0  0  0  0  0  0  0
    1.6764   -3.5497   -2.9198 N   0  0  0  0  0  0  0  0  0  0  0  0
    1.9677   -4.1249   -3.7078 H   0  0  0  0  0  0  0  0  0  0  0  0
    1.0745   -2.3101   -2.9829 C   0  0  0  0  0  0  0  0  0  0  0  0
    0.8042   -1.7390   -3.8660 H   0  0  0  0  0  0  0  0  0  0  0  0
   -0.6224    0.8223    0.5501 C   0  0  0  0  0  0  0  0  0  0  0  0
   -1.5990    1.3789    0.0580 O   0  0  0  0  0  0  0  0  0  0  0  0
    0.2200    1.5316    1.3860 N   0  0  0  0  0  0  0  0  0  0  0  0
    0.9755    1.0160    1.8302 H   0  0  0  0  0  0  0  0  0  0  0  0
   -0.0293    2.9084    1.7929 C   0  0  0  0  0  0  0  0  0  0  0  0
   -0.9736    2.9803    2.3425 H   0  0  0  0  0  0  0  0  0  0  0  0
    0.7773    3.2627    2.4419 H   0  0  0  0  0  0  0  0  0  0  0  0
   -0.0796    3.5635    0.9170 H   0  0  0  0  0  0  0  0  0  0  0  0
  1  2  1  0  0  0  0
  2  3  1  0  0  0  0
  2  4  1  0  0  0  0
  2  5  1  0  0  0  0
  5  6  2  0  0  0  0
  5  7  1  0  0  0  0
  7  8  1  0  0  0  0
  7  9  1  0  0  0  0
  9 10  1  0  0  0  0
  9 11  1  0  0  0  0
  9 22  1  0  0  0  0
 11 12  1  0  0  0  0
 11 13  1  0  0  0  0
 11 14  1  0  0  0  0
 14 15  1  0  0  0  0
 14 20  2  0  0  0  0
 15 16  2  0  0  0  0
 16 17  1  0  0  0  0
 16 18  1  0  0  0  0
 18 19  1  0  0  0  0
 18 20  1  0  0  0  0
 20 21  1  0  0  0  0
 22 23  2  0  0  0  0
 22 24  1  0  0  0  0
 24 25  1  0  0  0  0
 24 26  1  0  0  0  0
 26 27  1  0  0  0  0
 26 28  1  0  0  0  0
 26 29  1  0  0  0  0
M  END
$$$$

  -OEChem-04042215593D

 29 29  0     1  0  0  0  0  0999 V2000
   -2.7117   -4.5053    1.2589 H   0  0  0  0  0  0  0  0  0  0  0  0
   -2.8242   -3.5677    0.7077 C   0  0  0  0  0  0  0  0  0  0  0  0
   -3.7340   -3.0660    1.0452 H   0  0  0  0  0  0  0  0  0  0  0  0
   -2.9118   -3.7946   -0.3574 H   0  0  0  0  0  0  0  0  0  0  0  0
   -1.6212   -2.6754    0.9474 C   0  0  0  0  0  0  0  0  0  0  0  0
   -0.7851   -3.0007    1.7758 O   0  0  0  0  0  0  0  0  0  0  0  0
   -1.5531   -1.4464    0.3236 N   0  0  0  0  0  0  0  0  0  0  0  0
   -2.3303   -1.1923   -0.2788 H   0  0  0  0  0  0  0  0  0  0  0  0
   -0.3259   -0.6445    0.2097 C   0  0  1  0  0  0  0  0  0  0  0  0
    0.4564   -1.0171    0.8798 H   0  0  0  0  0  0  0  0  0  0  0  0
    0.1752   -0.6737   -1.2518 C   0  0  0  0  0  0  0  0  0  0  0  0
   -0.6614   -0.4627   -1.9244 H   0  0  0  0  0  0  0  0  0  0  0  0
    0.9107    0.1254   -1.3851 H   0  0  0  0  0  0  0  0  0  0  0  0
    0.8324   -1.9558   -1.6814 C   0  0  0  0  0  0  0  0  0  0  0  0
    1.0271   -3.0890   -0.9064 N   0  0  0  0  0  0  0  0  0  0  0  0
    1.6302   -3.9733   -1.6611 C   0  0  0  0  0  0  0  0  0  0  0  0
    1.9216   -4.9692   -1.3397 H   0  0  0  0  0  0  0  0  0  0  0  0
    1.8360   -3.4466   -2.9218 N   0  0  0  0  0  0  0  0  0  0  0  0
    2.2877   -3.9319   -3.6947 H   0  0  0  0  0  0  0  0  0  0  0  0
    1.3302   -2.1634   -2.9383 C   0  0  0  0  0  0  0  0  0  0  0  0
    1.3213   -1.4559   -3.7621 H   0  0  0  0  0  0  0  0  0  0  0  0
   -0.6213    0.8279    0.5554 C   0  0  0  0  0  0  0  0  0  0  0  0
   -1.5781    1.4025    0.0452 O   0  0  0  0  0  0  0  0  0  0  0  0
    0.2335    1.5305    1.3844 N   0  0  0  0  0  0  0  0  0  0  0  0
    0.9627    0.9995    1.8536 H   0  0  0  0  0  0  0  0  0  0  0  0
    0.0039    2.9138    1.7812 C   0  0  0  0  0  0  0  0  0  0  0  0
   -0.9322    3.0002    2.3427 H   0  0  0  0  0  0  0  0  0  0  0  0
    0.8232    3.2654    2.4154 H   0  0  0  0  0  0  0  0  0  0  0  0
   -0.0517    3.5614    0.8998 H   0  0  0  0  0  0  0  0  0  0  0  0
  1  2  1  0  0  0  0
  2  3  1  0  0  0  0
  2  4  1  0  0  0  0
  2  5  1  0  0  0  0
  5  6  2  0  0  0  0
  5  7  1  0  0  0  0
  7  8  1  0  0  0  0
  7  9  1  0  0  0  0
  9 10  1  0  0  0  0
  9 11  1  0  0  0  0
  9 22  1  0  0  0  0
 11 12  1  0  0  0  0
 11 13  1  0  0  0  0
 11 14  1  0  0  0  0
 14 15  1  0  0  0  0
 14 20  2  0  0  0  0
 15 16  2  0  0  0  0
 16 17  1  0  0  0  0
 16 18  1  0  0  0  0
 18 19  1  0  0  0  0
 18 20  1  0  0  0  0
 20 21  1  0  0  0  0
 22 23  2  0  0  0  0
 22 24  1  0  0  0  0
 24 25  1  0  0  0  0
 24 26  1  0  0  0  0
 26 27  1  0  0  0  0
 26 28  1  0  0  0  0
 26 29  1  0  0  0  0
M  END
$$$$

  -OEChem-04042215593D

 29 29  0     1  0  0  0  0  0999 V2000
   -2.7093   -4.4993    1.2800 H   0  0  0  0  0  0  0  0  0  0  0  0
   -2.8111   -3.5781    0.7000 C   0  0  0  0  0  0  0  0  0  0  0  0
   -3.7388   -3.0784    0.9883 H   0  0  0  0  0  0  0  0  0  0  0  0
   -2.8550   -3.8344   -0.3613 H   0  0  0  0  0  0  0  0  0  0  0  0
   -1.6280   -2.6651    0.9596 C   0  0  0  0  0  0  0  0  0  0  0  0
   -0.7964   -2.9743    1.7999 O   0  0  0  0  0  0  0  0  0  0  0  0
   -1.5695   -1.4361    0.3347 N   0  0  0  0  0  0  0  0  0  0  0  0
   -2.3330   -1.2080   -0.2947 H   0  0  0  0  0  0  0  0  0  0  0  0
   -0.3379   -0.6433    0.2067 C   0  0  1  0  0  0  0  0  0  0  0  0
    0.4493   -1.0226    0.8670 H   0  0  0  0  0  0  0  0  0  0  0  0
    0.1530   -0.6684   -1.2593 C   0  0  0  0  0  0  0  0  0  0  0  0
   -0.6950   -0.4627   -1.9192 H   0  0  0  0  0  0  0  0  0  0  0  0
    0.8809    0.1357   -1.4047 H   0  0  0  0  0  0  0  0  0  0  0  0
    0.7997   -1.9524   -1.7032 C   0  0  0  0  0  0  0  0  0  0  0  0
    0.7430   -3.1793   -1.0581 N   0  0  0  0  0  0  0  0  0  0  0  0
    1.4671   -4.0172   -1.7575 C   0  0  0  0  0  0  0  0  0  0  0  0
    1.6235   -5.0625   -1.5069 H   0  0  0  0  0  0  0  0  0  0  0  0
    1.9968   -3.3697   -2.8567 N   0  0  0  0  0  0  0  0  0  0  0  0
    2.6002   -3.7980   -3.5563 H   0  0  0  0  0  0  0  0  0  0  0  0
    1.5780   -2.0559   -2.8234 C   0  0  0  0  0  0  0  0  0  0  0  0
    1.8116   -1.2598   -3.5242 H   0  0  0  0  0  0  0  0  0  0  0  0
   -0.6203    0.8306    0.5590 C   0  0  0  0  0  0  0  0  0  0  0  0
   -1.5733    1.4159    0.0541 O   0  0  0  0  0  0  0  0  0  0  0  0
    0.2485    1.5271    1.3790 N   0  0  0  0  0  0  0  0  0  0  0  0
    0.9719    0.9885    1.8484 H   0  0  0  0  0  0  0  0  0  0  0  0
    0.0261    2.9093    1.7846 C   0  0  0  0  0  0  0  0  0  0  0  0
   -0.9048    2.9950    2.3547 H   0  0  0  0  0  0  0  0  0  0  0  0
    0.8517    3.2563    2.4131 H   0  0  0  0  0  0  0  0  0  0  0  0
   -0.0363    3.5615    0.9071 H   0  0  0  0  0  0  0  0  0  0  0  0
  1  2  1  0  0  0  0
  2  3  1  0  0  0  0
  2  4  1  0  0  0  0
  2  5  1  0  0  0  0
  5  6  2  0  0  0  0
  5  7  1  0  0  0  0
  7  8  1  0  0  0  0
  7  9  1  0  0  0  0
  9 10  1  0  0  0  0
  9 11  1  0  0  0  0
  9 22  1  0  0  0  0
 11 12  1  0  0  0  0
 11 13  1  0  0  0  0
 11 14  1  0  0  0  0
 14 15  1  0  0  0  0
 14 20  2  0  0  0  0
 15 16  2  0  0  0  0
 16 17  1  0  0  0  0
 16 18  1  0  0  0  0
 18 19  1  0  0  0  0
 18 20  1  0  0  0  0
 20 21  1  0  0  0  0
 22 23  2  0  0  0  0
 22 24  1  0  0  0  0
 24 25  1  0  0  0  0
 24 26  1  0  0  0  0
 26 27  1  0  0  0  0
 26 28  1  0  0  0  0
 26 29  1  0  0  0  0
M  END
$$$$

  -OEChem-04042215593D

 29 29  0     1  0  0  0  0  0999 V2000
   -2.6783   -4.5088    1.2713 H   0  0  0  0  0  0  0  0  0  0  0  0
   -2.7937   -3.5862    0.6961 C   0  0  0  0  0  0  0  0  0  0  0  0
   -3.7234   -3.0965    0.9949 H   0  0  0  0  0  0  0  0  0  0  0  0
   -2.8440   -3.8382   -0.3660 H   0  0  0  0  0  0  0  0  0  0  0  0
   -1.6162   -2.6640    0.9479 C   0  0  0  0  0  0  0  0  0  0  0  0
   -0.7656   -2.9756    1.7691 O   0  0  0  0  0  0  0  0  0  0  0  0
   -1.5728   -1.4308    0.3294 N   0  0  0  0  0  0  0  0  0  0  0  0
   -2.3344   -1.2142   -0.3061 H   0  0  0  0  0  0  0  0  0  0  0  0
   -0.3430   -0.6377    0.1930 C   0  0  1  0  0  0  0  0  0  0  0  0
    0.4510   -1.0193    0.8434 H   0  0  0  0  0  0  0  0  0  0  0  0
    0.1400   -0.6501   -1.2760 C   0  0  0  0  0  0  0  0  0  0  0  0
   -0.7152   -0.4480   -1.9277 H   0  0  0  0  0  0  0  0  0  0  0  0
    0.8604    0.1605   -1.4238 H   0  0  0  0  0  0  0  0  0  0  0  0
    0.7845   -1.9325   -1.7297 C   0  0  0  0  0  0  0  0  0  0  0  0
    0.4996   -3.2090   -1.2649 N   0  0  0  0  0  0  0  0  0  0  0  0
    1.3171   -4.0315   -1.8741 C   0  0  0  0  0  0  0  0  0  0  0  0
    1.3452   -5.1065   -1.7210 H   0  0  0  0  0  0  0  0  0  0  0  0
    2.1322   -3.3255   -2.7373 N   0  0  0  0  0  0  0  0  0  0  0  0
    2.8607   -3.7319   -3.3214 H   0  0  0  0  0  0  0  0  0  0  0  0
    1.8009   -1.9900   -2.6440 C   0  0  0  0  0  0  0  0  0  0  0  0
    2.2494   -1.1507   -3.1673 H   0  0  0  0  0  0  0  0  0  0  0  0
   -0.6243    0.8333    0.5594 C   0  0  0  0  0  0  0  0  0  0  0  0
   -1.5810    1.4232    0.0675 O   0  0  0  0  0  0  0  0  0  0  0  0
    0.2533    1.5239    1.3753 N   0  0  0  0  0  0  0  0  0  0  0  0
    0.9787    0.9813    1.8364 H   0  0  0  0  0  0  0  0  0  0  0  0
    0.0344    2.9024    1.7944 C   0  0  0  0  0  0  0  0  0  0  0  0
   -0.8961    2.9858    2.3656 H   0  0  0  0  0  0  0  0  0  0  0  0
    0.8610    3.2406    2.4265 H   0  0  0  0  0  0  0  0  0  0  0  0
   -0.0257    3.5632    0.9233 H   0  0  0  0  0  0  0  0  0  0  0  0
  1  2  1  0  0  0  0
  2  3  1  0  0  0  0
  2  4  1  0  0  0  0
  2  5  1  0  0  0  0
  5  6  2  0  0  0  0
  5  7  1  0  0  0  0
  7  8  1  0  0  0  0
  7  9  1  0  0  0  0
  9 10  1  0  0  0  0
  9 11  1  0  0  0  0
  9 22  1  0  0  0  0
 11 12  1  0  0  0  0
 11 13  1  0  0  0  0
 11 14  1  0  0  0  0
 14 15  1  0  0  0  0
 14 20  2  0  0  0  0
 15 16  2  0  0  0  0
 16 17  1  0  0  0  0
 16 18  1  0  0  0  0
 18 19  1  0  0  0  0
 18 20  1  0  0  0  0
 20 21  1  0  0  0  0
 22 23  2  0  0  0  0
 22 24  1  0  0  0  0
 24 25  1  0  0  0  0
 24 26  1  0  0  0  0
 26 27  1  0  0  0  0
 26 28  1  0  0  0  0
 26 29  1  0  0  0  0
M  END
$$$$

  -OEChem-04042215593D

 29 29  0     1  0  0  0  0  0999 V2000
   -2.6439   -4.5173    1.2513 H   0  0  0  0  0  0  0  0  0  0  0  0
   -2.7652   -3.5969    0.6737 C   0  0  0  0  0  0  0  0  0  0  0  0
   -3.6945   -3.1088    0.9766 H   0  0  0  0  0  0  0  0  0  0  0  0
   -2.8218   -3.8526   -0.3872 H   0  0  0  0  0  0  0  0  0  0  0  0
   -1.5881   -2.6708    0.9142 C   0  0  0  0  0  0  0  0  0  0  0  0
   -0.7096   -2.9955    1.7006 O   0  0  0  0  0  0  0  0  0  0  0  0
   -1.5634   -1.4290    0.3119 N   0  0  0  0  0  0  0  0  0  0  0  0
   -2.3343   -1.2117   -0.3124 H   0  0  0  0  0  0  0  0  0  0  0  0
   -0.3429   -0.6223    0.1738 C   0  0  1  0  0  0  0  0  0  0  0  0
    0.4575   -1.0032    0.8164 H   0  0  0  0  0  0  0  0  0  0  0  0
    0.1345   -0.6243   -1.2959 C   0  0  0  0  0  0  0  0  0  0  0  0
   -0.7214   -0.4300   -1.9492 H   0  0  0  0  0  0  0  0  0  0  0  0
    0.8484    0.1921   -1.4429 H   0  0  0  0  0  0  0  0  0  0  0  0
    0.7875   -1.9062   -1.7364 C   0  0  0  0  0  0  0  0  0  0  0  0
    0.3175   -3.1882   -1.4811 N   0  0  0  0  0  0  0  0  0  0  0  0
    1.1956   -4.0220   -1.9821 C   0  0  0  0  0  0  0  0  0  0  0  0
    1.1200   -5.1047   -1.9374 H   0  0  0  0  0  0  0  0  0  0  0  0
    2.2255   -3.3177   -2.5756 N   0  0  0  0  0  0  0  0  0  0  0  0
    3.0368   -3.7341   -3.0286 H   0  0  0  0  0  0  0  0  0  0  0  0
    1.9715   -1.9715   -2.4184 C   0  0  0  0  0  0  0  0  0  0  0  0
    2.5781   -1.1326   -2.7459 H   0  0  0  0  0  0  0  0  0  0  0  0
   -0.6288    0.8424    0.5610 C   0  0  0  0  0  0  0  0  0  0  0  0
   -1.5962    1.4312    0.0898 O   0  0  0  0  0  0  0  0  0  0  0  0
    0.2537    1.5282    1.3757 N   0  0  0  0  0  0  0  0  0  0  0  0
    0.9879    0.9848    1.8216 H   0  0  0  0  0  0  0  0  0  0  0  0
    0.0314    2.9004    1.8144 C   0  0  0  0  0  0  0  0  0  0  0  0
   -0.8862    2.9680    2.4080 H   0  0  0  0  0  0  0  0  0  0  0  0
    0.8694    3.2404    2.4303 H   0  0  0  0  0  0  0  0  0  0  0  0
   -0.0560    3.5701    0.9524 H   0  0  0  0  0  0  0  0  0  0  0  0
  1  2  1  0  0  0  0
  2  3  1  0  0  0  0
  2  4  1  0  0  0  0
  2  5  1  0  0  0  0
  5  6  2  0  0  0  0
  5  7  1  0  0  0  0
  7  8  1  0  0  0  0
  7  9  1  0  0  0  0
  9 10  1  0  0  0  0
  9 11  1  0  0  0  0
  9 22  1  0  0  0  0
 11 12  1  0  0  0  0
 11 13  1  0  0  0  0
 11 14  1  0  0  0  0
 14 15  1  0  0  0  0
 14 20  2  0  0  0  0
 15 16  2  0  0  0  0
 16 17  1  0  0  0  0
 16 18  1  0  0  0  0
 18 19  1  0  0  0  0
 18 20  1  0  0  0  0
 20 21  1  0  0  0  0
 22 23  2  0  0  0  0
 22 24  1  0  0  0  0
 24 25  1  0  0  0  0
 24 26  1  0  0  0  0
 26 27  1  0  0  0  0
 26 28  1  0  0  0  0
 26 29  1  0  0  0  0
M  END
$$$$

  -OEChem-04042215593D

 29 29  0     1  0  0  0  0  0999 V2000
   -2.5872   -4.5384    1.1986 H   0  0  0  0  0  0  0  0  0  0  0  0
   -2.7284   -3.6055    0.6460 C   0  0  0  0  0  0  0  0  0  0  0  0
   -3.6497   -3.1277    0.9870 H   0  0  0  0  0  0  0  0  0  0  0  0
   -2.8155   -3.8370   -0.4185 H   0  0  0  0  0  0  0  0  0  0  0  0
   -1.5483   -2.6800    0.8727 C   0  0  0  0  0  0  0  0  0  0  0  0
   -0.6392   -3.0232    1.6153 O   0  0  0  0  0  0  0  0  0  0  0  0
   -1.5420   -1.4293    0.2890 N   0  0  0  0  0  0  0  0  0  0  0  0
   -2.3263   -1.2047   -0.3162 H   0  0  0  0  0  0  0  0  0  0  0  0
   -0.3342   -0.6036    0.1567 C   0  0  1  0  0  0  0  0  0  0  0  0
    0.4726   -0.9794    0.7944 H   0  0  0  0  0  0  0  0  0  0  0  0
    0.1362   -0.5997   -1.3129 C   0  0  0  0  0  0  0  0  0  0  0  0
   -0.7173   -0.4137   -1.9719 H   0  0  0  0  0  0  0  0  0  0  0  0
    0.8464    0.2193   -1.4611 H   0  0  0  0  0  0  0  0  0  0  0  0
    0.7994   -1.8840   -1.7255 C   0  0  0  0  0  0  0  0  0  0  0  0
    0.1924   -3.1341   -1.7031 N   0  0  0  0  0  0  0  0  0  0  0  0
    1.0982   -3.9974   -2.0933 C   0  0  0  0  0  0  0  0  0  0  0  0
    0.9395   -5.0688   -2.1746 H   0  0  0  0  0  0  0  0  0  0  0  0
    2.2780   -3.3417   -2.3900 N   0  0  0  0  0  0  0  0  0  0  0  0
    3.1354   -3.7911   -2.7056 H   0  0  0  0  0  0  0  0  0  0  0  0
    2.0921   -1.9951   -2.1578 C   0  0  0  0  0  0  0  0  0  0  0  0
    2.8098   -1.1886   -2.2732 H   0  0  0  0  0  0  0  0  0  0  0  0
   -0.6334    0.8527    0.5641 C   0  0  0  0  0  0  0  0  0  0  0  0
   -1.6127    1.4347    0.1099 O   0  0  0  0  0  0  0  0  0  0  0  0
    0.2456    1.5387    1.3829 N   0  0  0  0  0  0  0  0  0  0  0  0
    0.9952    1.0020    1.8107 H   0  0  0  0  0  0  0  0  0  0  0  0
    0.0145    2.9052    1.8345 C   0  0  0  0  0  0  0  0  0  0  0  0
   -0.9011    2.9607    2.4325 H   0  0  0  0  0  0  0  0  0  0  0  0
    0.8525    3.2464    2.4500 H   0  0  0  0  0  0  0  0  0  0  0  0
   -0.0816    3.5815    0.9785 H   0  0  0  0  0  0  0  0  0  0  0  0
  1  2  1  0  0  0  0
  2  3  1  0  0  0  0
  2  4  1  0  0  0  0
  2  5  1  0  0  0  0
  5  6  2  0  0  0  0
  5  7  1  0  0  0  0
  7  8  1  0  0  0  0
  7  9  1  0  0  0  0
  9 10  1  0  0  0  0
  9 11  1  0  0  0  0
  9 22  1  0  0  0  0
 11 12  1  0  0  0  0
 11 13  1  0  0  0  0
 11 14  1  0  0  0  0
 14 15  1  0  0  0  0
 14 20  2  0  0  0  0
 15 16  2  0  0  0  0
 16 17  1  0  0  0  0
 16 18  1  0  0  0  0
 18 19  1  0  0  0  0
 18 20  1  0  0  0  0
 20 21  1  0  0  0  0
 22 23  2  0  0  0  0
 22 24  1  0  0  0  0
 24 25  1  0  0  0  0
 24 26  1  0  0  0  0
 26 27  1  0  0  0  0
 26 28  1  0  0  0  0
 26 29  1  0  0  0  0
M  END
$$$$

  -OEChem-04042215593D

 29 29  0     1  0  0  0  0  0999 V2000
   -2.5227   -4.5651    1.1245 H   0  0  0  0  0  0  0  0  0  0  0  0
   -2.6963   -3.6101    0.6214 C   0  0  0  0  0  0  0  0  0  0  0  0
   -3.6005   -3.1532    1.0302 H   0  0  0  0  0  0  0  0  0  0  0  0
   -2.8382   -3.7958   -0.4462 H   0  0  0  0  0  0  0  0  0  0  0  0
   -1.5098   -2.6880    0.8267 C   0  0  0  0  0  0  0  0  0  0  0  0
   -0.5695   -3.0508    1.5193 O   0  0  0  0  0  0  0  0  0  0  0  0
   -1.5197   -1.4289    0.2620 N   0  0  0  0  0  0  0  0  0  0  0  0
   -2.3200   -1.1920   -0.3174 H   0  0  0  0  0  0  0  0  0  0  0  0
   -0.3251   -0.5840    0.1381 C   0  0  1  0  0  0  0  0  0  0  0  0
    0.4864   -0.9549    0.7730 H   0  0  0  0  0  0  0  0  0  0  0  0
    0.1362   -0.5818   -1.3316 C   0  0  0  0  0  0  0  0  0  0  0  0
   -0.7153   -0.4079   -1.9965 H   0  0  0  0  0  0  0  0  0  0  0  0
    0.8451    0.2372   -1.4853 H   0  0  0  0  0  0  0  0  0  0  0  0
    0.8080   -1.8709   -1.7063 C   0  0  0  0  0  0  0  0  0  0  0  0
    0.1296   -3.0629   -1.9337 N   0  0  0  0  0  0  0  0  0  0  0  0
    1.0438   -3.9625   -2.2062 C   0  0  0  0  0  0  0  0  0  0  0  0
    0.8407   -5.0079   -2.4205 H   0  0  0  0  0  0  0  0  0  0  0  0
    2.2989   -3.3831   -2.1875 N   0  0  0  0  0  0  0  0  0  0  0  0
    3.1745   -3.8749   -2.3555 H   0  0  0  0  0  0  0  0  0  0  0  0
    2.1530   -2.0482   -1.8741 C   0  0  0  0  0  0  0  0  0  0  0  0
    2.9276   -1.2956   -1.7633 H   0  0  0  0  0  0  0  0  0  0  0  0
   -0.6363    0.8642    0.5645 C   0  0  0  0  0  0  0  0  0  0  0  0
   -1.6271    1.4387    0.1268 O   0  0  0  0  0  0  0  0  0  0  0  0
    0.2387    1.5494    1.3882 N   0  0  0  0  0  0  0  0  0  0  0  0
    0.9978    1.0172    1.8044 H   0  0  0  0  0  0  0  0  0  0  0  0
   -0.0009    2.9109    1.8512 C   0  0  0  0  0  0  0  0  0  0  0  0
   -0.9231    2.9587    2.4397 H   0  0  0  0  0  0  0  0  0  0  0  0
    0.8294    3.2477    2.4796 H   0  0  0  0  0  0  0  0  0  0  0  0
   -0.0889    3.5956    1.0010 H   0  0  0  0  0  0  0  0  0  0  0  0
  1  2  1  0  0  0  0
  2  3  1  0  0  0  0
  2  4  1  0  0  0  0
  2  5  1  0  0  0  0
  5  6  2  0  0  0  0
  5  7  1  0  0  0  0
  7  8  1  0  0  0  0
  7  9  1  0  0  0  0
  9 10  1  0  0  0  0
  9 11  1  0  0  0  0
  9 22  1  0  0  0  0
 11 12  1  0  0  0  0
 11 13  1  0  0  0  0
 11 14  1  0  0  0  0
 14 15  1  0  0  0  0
 14 20  2  0  0  0  0
 15 16  2  0  0  0  0
 16 17  1  0  0  0  0
 16 18  1  0  0  0  0
 18 19  1  0  0  0  0
 18 20  1  0  0  0  0
 20 21  1  0  0  0  0
 22 23  2  0  0  0  0
 22 24  1  0  0  0  0
 24 25  1  0  0  0  0
 24 26  1  0  0  0  0
 26 27  1  0  0  0  0
 26 28  1  0  0  0  0
 26 29  1  0  0  0  0
M  END
$$$$

  -OEChem-04042215593D

 29 29  0     1  0  0  0  0  0999 V2000
   -2.5157   -4.5622    1.1066 H   0  0  0  0  0  0  0  0  0  0  0  0
   -2.6993   -3.5938    0.6334 C   0  0  0  0  0  0  0  0  0  0  0  0
   -3.5689   -3.1290    1.1036 H   0  0  0  0  0  0  0  0  0  0  0  0
   -2.9070   -3.7546   -0.4274 H   0  0  0  0  0  0  0  0  0  0  0  0
   -1.4858   -2.6978    0.7881 C   0  0  0  0  0  0  0  0  0  0  0  0
   -0.5172   -3.0887    1.4235 O   0  0  0  0  0  0  0  0  0  0  0  0
   -1.4965   -1.4341    0.2351 N   0  0  0  0  0  0  0  0  0  0  0  0
   -2.3222   -1.1633   -0.2924 H   0  0  0  0  0  0  0  0  0  0  0  0
   -0.3092   -0.5775    0.1243 C   0  0  1  0  0  0  0  0  0  0  0  0
    0.5018   -0.9435    0.7625 H   0  0  0  0  0  0  0  0  0  0  0  0
    0.1519   -0.5785   -1.3432 C   0  0  0  0  0  0  0  0  0  0  0  0
   -0.6944   -0.4097   -2.0161 H   0  0  0  0  0  0  0  0  0  0  0  0
    0.8631    0.2381   -1.4982 H   0  0  0  0  0  0  0  0  0  0  0  0
    0.8295   -1.8704   -1.6911 C   0  0  0  0  0  0  0  0  0  0  0  0
    0.1538   -2.9783   -2.1889 N   0  0  0  0  0  0  0  0  0  0  0  0
    1.0580   -3.9130   -2.3572 C   0  0  0  0  0  0  0  0  0  0  0  0
    0.8526   -4.9148   -2.7233 H   0  0  0  0  0  0  0  0  0  0  0  0
    2.3075   -3.4351   -2.0082 N   0  0  0  0  0  0  0  0  0  0  0  0
    3.1702   -3.9752   -2.0338 H   0  0  0  0  0  0  0  0  0  0  0  0
    2.1677   -2.1292   -1.5884 C   0  0  0  0  0  0  0  0  0  0  0  0
    2.9371   -1.4506   -1.2339 H   0  0  0  0  0  0  0  0  0  0  0  0
   -0.6356    0.8646    0.5594 C   0  0  0  0  0  0  0  0  0  0  0  0
   -1.6361    1.4275    0.1289 O   0  0  0  0  0  0  0  0  0  0  0  0
    0.2268    1.5539    1.3928 N   0  0  0  0  0  0  0  0  0  0  0  0
    0.9994    1.0333    1.7985 H   0  0  0  0  0  0  0  0  0  0  0  0
   -0.0290    2.9108    1.8604 C   0  0  0  0  0  0  0  0  0  0  0  0
   -0.9682    2.9527    2.4221 H   0  0  0  0  0  0  0  0  0  0  0  0
    0.7815    3.2438    2.5159 H   0  0  0  0  0  0  0  0  0  0  0  0
   -0.0935    3.6014    1.0130 H   0  0  0  0  0  0  0  0  0  0  0  0
  1  2  1  0  0  0  0
  2  3  1  0  0  0  0
  2  4  1  0  0  0  0
  2  5  1  0  0  0  0
  5  6  2  0  0  0  0
  5  7  1  0  0  0  0
  7  8  1  0  0  0  0
  7  9  1  0  0  0  0
  9 10  1  0  0  0  0
  9 11  1  0  0  0  0
  9 22  1  0  0  0  0
 11 12  1  0  0  0  0
 11 13  1  0  0  0  0
 11 14  1  0  0  0  0
 14 15  1  0  0  0  0
 14 20  2  0  0  0  0
 15 16  2  0  0  0  0
 16 17  1  0  0  0  0
 16 18  1  0  0  0  0
 18 19  1  0  0  0  0
 18 20  1  0  0  0  0
 20 21  1  0  0  0  0
 22 23  2  0  0  0  0
 22 24  1  0  0  0  0
 24 25  1  0  0  0  0
 24 26  1  0  0  0  0
 26 27  1  0  0  0  0
 26 28  1  0  0  0  0
 26 29  1  0  0  0  0
M  END
$$$$

  -OEChem-04042215593D

 29 29  0     1  0  0  0  0  0999 V2000
   -2.5339   -4.5444    1.1254 H   0  0  0  0  0  0  0  0  0  0  0  0
   -2.7133   -3.5755    0.6515 C   0  0  0  0  0  0  0  0  0  0  0  0
   -3.5605   -3.0924    1.1440 H   0  0  0  0  0  0  0  0  0  0  0  0
   -2.9549   -3.7383   -0.4018 H   0  0  0  0  0  0  0  0  0  0  0  0
   -1.4793   -2.7015    0.7655 C   0  0  0  0  0  0  0  0  0  0  0  0
   -0.4940   -3.1134    1.3600 O   0  0  0  0  0  0  0  0  0  0  0  0
   -1.4855   -1.4365    0.2162 N   0  0  0  0  0  0  0  0  0  0  0  0
   -2.3292   -1.1375   -0.2667 H   0  0  0  0  0  0  0  0  0  0  0  0
   -0.3011   -0.5749    0.1130 C   0  0  1  0  0  0  0  0  0  0  0  0
    0.5051   -0.9369    0.7589 H   0  0  0  0  0  0  0  0  0  0  0  0
    0.1672   -0.5802   -1.3513 C   0  0  0  0  0  0  0  0  0  0  0  0
   -0.6779   -0.4176   -2.0275 H   0  0  0  0  0  0  0  0  0  0  0  0
    0.8774    0.2367   -1.5095 H   0  0  0  0  0  0  0  0  0  0  0  0
    0.8509   -1.8711   -1.6891 C   0  0  0  0  0  0  0  0  0  0  0  0
    0.2605   -2.8692   -2.4541 N   0  0  0  0  0  0  0  0  0  0  0  0
    1.1343   -3.8450   -2.5201 C   0  0  0  0  0  0  0  0  0  0  0  0
    0.9745   -4.7851   -3.0403 H   0  0  0  0  0  0  0  0  0  0  0  0
    2.2854   -3.5001   -1.8366 N   0  0  0  0  0  0  0  0  0  0  0  0
    3.0996   -4.0997   -1.7178 H   0  0  0  0  0  0  0  0  0  0  0  0
    2.1112   -2.2388   -1.3083 C   0  0  0  0  0  0  0  0  0  0  0  0
    2.8027   -1.6632   -0.7016 H   0  0  0  0  0  0  0  0  0  0  0  0
   -0.6337    0.8653    0.5484 C   0  0  0  0  0  0  0  0  0  0  0  0
   -1.6456    1.4170    0.1308 O   0  0  0  0  0  0  0  0  0  0  0  0
    0.2228    1.5559    1.3868 N   0  0  0  0  0  0  0  0  0  0  0  0
    1.0040    1.0414    1.7834 H   0  0  0  0  0  0  0  0  0  0  0  0
   -0.0452    2.9062    1.8658 C   0  0  0  0  0  0  0  0  0  0  0  0
   -0.9678    2.9280    2.4552 H   0  0  0  0  0  0  0  0  0  0  0  0
    0.7780    3.2531    2.4975 H   0  0  0  0  0  0  0  0  0  0  0  0
   -0.1484    3.5982    1.0235 H   0  0  0  0  0  0  0  0  0  0  0  0
  1  2  1  0  0  0  0
  2  3  1  0  0  0  0
  2  4  1  0  0  0  0
  2  5  1  0  0  0  0
  5  6  2  0  0  0  0
  5  7  1  0  0  0  0
  7  8  1  0  0  0  0
  7  9  1  0  0  0  0
  9 10  1  0  0  0  0
  9 11  1  0  0  0  0
  9 22  1  0  0  0  0
 11 12  1  0  0  0  0
 11 13  1  0  0  0  0
 11 14  1  0  0  0  0
 14 15  1  0  0  0  0
 14 20  2  0  0  0  0
 15 16  2  0  0  0  0
 16 17  1  0  0  0  0
 16 18  1  0  0  0  0
 18 19  1  0  0  0  0
 18 20  1  0  0  0  0
 20 21  1  0  0  0  0
 22 23  2  0  0  0  0
 22 24  1  0  0  0  0
 24 25  1  0  0  0  0
 24 26  1  0  0  0  0
 26 27  1  0  0  0  0
 26 28  1  0  0  0  0
 26 29  1  0  0  0  0
M  END
$$$$

  -OEChem-04042215593D

 29 29  0     1  0  0  0  0  0999 V2000
   -2.5597   -4.5306    1.1423 H   0  0  0  0  0  0  0  0  0  0  0  0
   -2.7371   -3.5499    0.6924 C   0  0  0  0  0  0  0  0  0  0  0  0
   -3.5512   -3.0569    1.2289 H   0  0  0  0  0  0  0  0  0  0  0  0
   -3.0286   -3.6897   -0.3515 H   0  0  0  0  0  0  0  0  0  0  0  0
   -1.4801   -2.7044    0.7673 C   0  0  0  0  0  0  0  0  0  0  0  0
   -0.4868   -3.1364    1.3332 O   0  0  0  0  0  0  0  0  0  0  0  0
   -1.4717   -1.4424    0.2113 N   0  0  0  0  0  0  0  0  0  0  0  0
   -2.3292   -1.1116   -0.2251 H   0  0  0  0  0  0  0  0  0  0  0  0
   -0.2861   -0.5814    0.1185 C   0  0  1  0  0  0  0  0  0  0  0  0
    0.5086   -0.9361    0.7822 H   0  0  0  0  0  0  0  0  0  0  0  0
    0.2036   -0.5887   -1.3397 C   0  0  0  0  0  0  0  0  0  0  0  0
   -0.6396   -0.4305   -2.0196 H   0  0  0  0  0  0  0  0  0  0  0  0
    0.9087    0.2327   -1.4967 H   0  0  0  0  0  0  0  0  0  0  0  0
    0.8978   -1.8727   -1.6904 C   0  0  0  0  0  0  0  0  0  0  0  0
    0.4574   -2.7171   -2.7019 N   0  0  0  0  0  0  0  0  0  0  0  0
    1.2656   -3.7499   -2.6988 C   0  0  0  0  0  0  0  0  0  0  0  0
    1.1861   -4.6007   -3.3692 H   0  0  0  0  0  0  0  0  0  0  0  0
    2.2284   -3.5965   -1.7196 N   0  0  0  0  0  0  0  0  0  0  0  0
    2.9475   -4.2798   -1.4904 H   0  0  0  0  0  0  0  0  0  0  0  0
    1.9972   -2.4017   -1.0725 C   0  0  0  0  0  0  0  0  0  0  0  0
    2.5403   -1.9784   -0.2336 H   0  0  0  0  0  0  0  0  0  0  0  0
   -0.6319    0.8598    0.5414 C   0  0  0  0  0  0  0  0  0  0  0  0
   -1.6528    1.3944    0.1234 O   0  0  0  0  0  0  0  0  0  0  0  0
    0.2066    1.5623    1.3881 N   0  0  0  0  0  0  0  0  0  0  0  0
    1.0038    1.0668    1.7770 H   0  0  0  0  0  0  0  0  0  0  0  0
   -0.0797    2.9127    1.8567 C   0  0  0  0  0  0  0  0  0  0  0  0
   -1.0269    2.9351    2.4058 H   0  0  0  0  0  0  0  0  0  0  0  0
    0.7155    3.2581    2.5245 H   0  0  0  0  0  0  0  0  0  0  0  0
   -0.1459    3.6056    1.0113 H   0  0  0  0  0  0  0  0  0  0  0  0
  1  2  1  0  0  0  0
  2  3  1  0  0  0  0
  2  4  1  0  0  0  0
  2  5  1  0  0  0  0
  5  6  2  0  0  0  0
  5  7  1  0  0  0  0
  7  8  1  0  0  0  0
  7  9  1  0  0  0  0
  9 10  1  0  0  0  0
  9 11  1  0  0  0  0
  9 22  1  0  0  0  0
 11 12  1  0  0  0  0
 11 13  1  0  0  0  0
 11 14  1  0  0  0  0
 14 15  1  0  0  0  0
 14 20  2  0  0  0  0
 15 16  2  0  0  0  0
 16 17  1  0  0  0  0
 16 18  1  0  0  0  0
 18 19  1  0  0  0  0
 18 20  1  0  0  0  0
 20 21  1  0  0  0  0
 22 23  2  0  0  0  0
 22 24  1  0  0  0  0
 24 25  1  0  0  0  0
 24 26  1  0  0  0  0
 26 27  1  0  0  0  0
 26 28  1  0  0  0  0
 26 29  1  0  0  0  0
M  END
$$$$

  -OEChem-04042215593D

 29 29  0     1  0  0  0  0  0999 V2000
   -2.6138   -4.4925    1.2109 H   0  0  0  0  0  0  0  0  0  0  0  0
   -2.7710   -3.5201    0.7358 C   0  0  0  0  0  0  0  0  0  0  0  0
   -3.5729   -2.9957    1.2612 H   0  0  0  0  0  0  0  0  0  0  0  0
   -3.0682   -3.6804   -0.3035 H   0  0  0  0  0  0  0  0  0  0  0  0
   -1.4957   -2.7003    0.7864 C   0  0  0  0  0  0  0  0  0  0  0  0
   -0.5069   -3.1434    1.3517 O   0  0  0  0  0  0  0  0  0  0  0  0
   -1.4665   -1.4458    0.2149 N   0  0  0  0  0  0  0  0  0  0  0  0
   -2.3273   -1.0921   -0.1977 H   0  0  0  0  0  0  0  0  0  0  0  0
   -0.2757   -0.5903    0.1351 C   0  0  1  0  0  0  0  0  0  0  0  0
    0.5015   -0.9344    0.8238 H   0  0  0  0  0  0  0  0  0  0  0  0
    0.2495   -0.6046   -1.3123 C   0  0  0  0  0  0  0  0  0  0  0  0
   -0.5868   -0.4503   -2.0016 H   0  0  0  0  0  0  0  0  0  0  0  0
    0.9510    0.2211   -1.4617 H   0  0  0  0  0  0  0  0  0  0  0  0
    0.9566   -1.8804   -1.6765 C   0  0  0  0  0  0  0  0  0  0  0  0
    0.7272   -2.5390   -2.8783 N   0  0  0  0  0  0  0  0  0  0  0  0
    1.4469   -3.6349   -2.8473 C   0  0  0  0  0  0  0  0  0  0  0  0
    1.4831   -4.3758   -3.6410 H   0  0  0  0  0  0  0  0  0  0  0  0
    2.1445   -3.7094   -1.6575 N   0  0  0  0  0  0  0  0  0  0  0  0
    2.7379   -4.4854   -1.3703 H   0  0  0  0  0  0  0  0  0  0  0  0
    1.8283   -2.5994   -0.9047 C   0  0  0  0  0  0  0  0  0  0  0  0
    2.1591   -2.3609    0.1013 H   0  0  0  0  0  0  0  0  0  0  0  0
   -0.6327    0.8555    0.5333 C   0  0  0  0  0  0  0  0  0  0  0  0
   -1.6582    1.3745    0.1064 O   0  0  0  0  0  0  0  0  0  0  0  0
    0.1869    1.5688    1.3892 N   0  0  0  0  0  0  0  0  0  0  0  0
    0.9926    1.0878    1.7788 H   0  0  0  0  0  0  0  0  0  0  0  0
   -0.1145    2.9204    1.8444 C   0  0  0  0  0  0  0  0  0  0  0  0
   -1.0582    2.9363    2.3997 H   0  0  0  0  0  0  0  0  0  0  0  0
    0.6808    3.2834    2.5026 H   0  0  0  0  0  0  0  0  0  0  0  0
   -0.1950    3.6029    0.9918 H   0  0  0  0  0  0  0  0  0  0  0  0
  1  2  1  0  0  0  0
  2  3  1  0  0  0  0
  2  4  1  0  0  0  0
  2  5  1  0  0  0  0
  5  6  2  0  0  0  0
  5  7  1  0  0  0  0
  7  8  1  0  0  0  0
  7  9  1  0  0  0  0
  9 10  1  0  0  0  0
  9 11  1  0  0  0  0
  9 22  1  0  0  0  0
 11 12  1  0  0  0  0
 11 13  1  0  0  0  0
 11 14  1  0  0  0  0
 14 15  1  0  0  0  0
 14 20  2  0  0  0  0
 15 16  2  0  0  0  0
 16 17  1  0  0  0  0
 16 18  1  0  0  0  0
 18 19  1  0  0  0  0
 18 20  1  0  0  0  0
 20 21  1  0  0  0  0
 22 23  2  0  0  0  0
 22 24  1  0  0  0  0
 24 25  1  0  0  0  0
 24 26  1  0  0  0  0
 26 27  1  0  0  0  0
 26 28  1  0  0  0  0
 26 29  1  0  0  0  0
M  END
$$$$

  -OEChem-04042215593D

 29 29  0     1  0  0  0  0  0999 V2000
   -2.6959   -4.4627    1.2626 H   0  0  0  0  0  0  0  0  0  0  0  0
   -2.8281   -3.4935    0.7738 C   0  0  0  0  0  0  0  0  0  0  0  0
   -3.6251   -2.9468    1.2833 H   0  0  0  0  0  0  0  0  0  0  0  0
   -3.1172   -3.6609   -0.2666 H   0  0  0  0  0  0  0  0  0  0  0  0
   -1.5369   -2.6997    0.8301 C   0  0  0  0  0  0  0  0  0  0  0  0
   -0.5687   -3.1513    1.4231 O   0  0  0  0  0  0  0  0  0  0  0  0
   -1.4735   -1.4549    0.2407 N   0  0  0  0  0  0  0  0  0  0  0  0
   -2.3257   -1.0862   -0.1770 H   0  0  0  0  0  0  0  0  0  0  0  0
   -0.2721   -0.6118    0.1716 C   0  0  1  0  0  0  0  0  0  0  0  0
    0.4904   -0.9513    0.8791 H   0  0  0  0  0  0  0  0  0  0  0  0
    0.2832   -0.6338   -1.2658 C   0  0  0  0  0  0  0  0  0  0  0  0
   -0.5413   -0.4727   -1.9676 H   0  0  0  0  0  0  0  0  0  0  0  0
    0.9896    0.1903   -1.4010 H   0  0  0  0  0  0  0  0  0  0  0  0
    0.9941   -1.9045   -1.6436 C   0  0  0  0  0  0  0  0  0  0  0  0
    1.0123   -2.3647   -2.9547 N   0  0  0  0  0  0  0  0  0  0  0  0
    1.6543   -3.5080   -2.9440 C   0  0  0  0  0  0  0  0  0  0  0  0
    1.8354   -4.1266   -3.8184 H   0  0  0  0  0  0  0  0  0  0  0  0
    2.0584   -3.8098   -1.6585 N   0  0  0  0  0  0  0  0  0  0  0  0
    2.5404   -4.6609   -1.3759 H   0  0  0  0  0  0  0  0  0  0  0  0
    1.6325   -2.7977   -0.8263 C   0  0  0  0  0  0  0  0  0  0  0  0
    1.7397   -2.7368    0.2533 H   0  0  0  0  0  0  0  0  0  0  0  0
   -0.6331    0.8414    0.5400 C   0  0  0  0  0  0  0  0  0  0  0  0
   -1.6523    1.3518    0.0884 O   0  0  0  0  0  0  0  0  0  0  0  0
    0.1675    1.5681    1.4023 N   0  0  0  0  0  0  0  0  0  0  0  0
    0.9751    1.1000    1.8034 H   0  0  0  0  0  0  0  0  0  0  0  0
   -0.1320    2.9344    1.8131 C   0  0  0  0  0  0  0  0  0  0  0  0
   -1.0834    2.9726    2.3539 H   0  0  0  0  0  0  0  0  0  0  0  0
    0.6562    3.3123    2.4713 H   0  0  0  0  0  0  0  0  0  0  0  0
   -0.1965    3.5923    0.9400 H   0  0  0  0  0  0  0  0  0  0  0  0
  1  2  1  0  0  0  0
  2  3  1  0  0  0  0
  2  4  1  0  0  0  0
  2  5  1  0  0  0  0
  5  6  2  0  0  0  0
  5  7  1  0  0  0  0
  7  8  1  0  0  0  0
  7  9  1  0  0  0  0
  9 10  1  0  0  0  0
  9 11  1  0  0  0  0
  9 22  1  0  0  0  0
 11 12  1  0  0  0  0
 11 13  1  0  0  0  0
 11 14  1  0  0  0  0
 14 15  1  0  0  0  0
 14 20  2  0  0  0  0
 15 16  2  0  0  0  0
 16 17  1  0  0  0  0
 16 18  1  0  0  0  0
 18 19  1  0  0  0  0
 18 20  1  0  0  0  0
 20 21  1  0  0  0  0
 22 23  2  0  0  0  0
 22 24  1  0  0  0  0
 24 25  1  0  0  0  0
 24 26  1  0  0  0  0
 26 27  1  0  0  0  0
 26 28  1  0  0  0  0
 26 29  1  0  0  0  0
M  END
$$$$

  -OEChem-04042215593D

 29 29  0     1  0  0  0  0  0999 V2000
   -2.8315   -4.4256    1.3143 H   0  0  0  0  0  0  0  0  0  0  0  0
   -2.9284   -3.4583    0.8136 C   0  0  0  0  0  0  0  0  0  0  0  0
   -3.7166   -2.8833    1.3056 H   0  0  0  0  0  0  0  0  0  0  0  0
   -3.2069   -3.6284   -0.2294 H   0  0  0  0  0  0  0  0  0  0  0  0
   -1.6163   -2.7006    0.8816 C   0  0  0  0  0  0  0  0  0  0  0  0
   -0.6784   -3.1626    1.5125 O   0  0  0  0  0  0  0  0  0  0  0  0
   -1.5097   -1.4674    0.2748 N   0  0  0  0  0  0  0  0  0  0  0  0
   -2.3509   -1.0842   -0.1526 H   0  0  0  0  0  0  0  0  0  0  0  0
   -0.2935   -0.6434    0.2021 C   0  0  1  0  0  0  0  0  0  0  0  0
    0.4588   -0.9882    0.9183 H   0  0  0  0  0  0  0  0  0  0  0  0
    0.2769   -0.6810   -1.2306 C   0  0  0  0  0  0  0  0  0  0  0  0
   -0.5391   -0.5081   -1.9392 H   0  0  0  0  0  0  0  0  0  0  0  0
    0.9926    0.1367   -1.3567 H   0  0  0  0  0  0  0  0  0  0  0  0
    0.9828   -1.9501   -1.6237 C   0  0  0  0  0  0  0  0  0  0  0  0
    1.2621   -2.2284   -2.9561 N   0  0  0  0  0  0  0  0  0  0  0  0
    1.8802   -3.3843   -2.9803 C   0  0  0  0  0  0  0  0  0  0  0  0
    2.2296   -3.8826   -3.8800 H   0  0  0  0  0  0  0  0  0  0  0  0
    2.0206   -3.8693   -1.6953 N   0  0  0  0  0  0  0  0  0  0  0  0
    2.4570   -4.7538   -1.4425 H   0  0  0  0  0  0  0  0  0  0  0  0
    1.4552   -2.9591   -0.8289 C   0  0  0  0  0  0  0  0  0  0  0  0
    1.3917   -3.0265    0.2532 H   0  0  0  0  0  0  0  0  0  0  0  0
   -0.6367    0.8212    0.5414 C   0  0  0  0  0  0  0  0  0  0  0  0
   -1.6475    1.3364    0.0763 O   0  0  0  0  0  0  0  0  0  0  0  0
    0.1675    1.5499    1.3987 N   0  0  0  0  0  0  0  0  0  0  0  0
    0.9723    1.0805    1.8045 H   0  0  0  0  0  0  0  0  0  0  0  0
   -0.1144    2.9273    1.7836 C   0  0  0  0  0  0  0  0  0  0  0  0
   -1.0823    2.9932    2.2916 H   0  0  0  0  0  0  0  0  0  0  0  0
    0.6591    3.2959    2.4644 H   0  0  0  0  0  0  0  0  0  0  0  0
   -0.1346    3.5750    0.9007 H   0  0  0  0  0  0  0  0  0  0  0  0
  1  2  1  0  0  0  0
  2  3  1  0  0  0  0
  2  4  1  0  0  0  0
  2  5  1  0  0  0  0
  5  6  2  0  0  0  0
  5  7  1  0  0  0  0
  7  8  1  0  0  0  0
  7  9  1  0  0  0  0
  9 10  1  0  0  0  0
  9 11  1  0  0  0  0
  9 22  1  0  0  0  0
 11 12  1  0  0  0  0
 11 13  1  0  0  0  0
 11 14  1  0  0  0  0
 14 15  1  0  0  0  0
 14 20  2  0  0  0  0
 15 16  2  0  0  0  0
 16 17  1  0  0  0  0
 16 18  1  0  0  0  0
 18 19  1  0  0  0  0
 18 20  1  0  0  0  0
 20 21  1  0  0  0  0
 22 23  2  0  0  0  0
 22 24  1  0  0  0  0
 24 25  1  0  0  0  0
 24 26  1  0  0  0  0
 26 27  1  0  0  0  0
 26 28  1  0  0  0  0
 26 29  1  0  0  0  0
M  END
$$$$

  -OEChem-04042215593D

 29 29  0     1  0  0  0  0  0999 V2000
   -3.0057   -4.3417    1.5962 H   0  0  0  0  0  0  0  0  0  0  0  0
   -3.0652   -3.4128    1.0221 C   0  0  0  0  0  0  0  0  0  0  0  0
   -3.8367   -2.7759    1.4616 H   0  0  0  0  0  0  0  0  0  0  0  0
   -3.3421   -3.6520   -0.0075 H   0  0  0  0  0  0  0  0  0  0  0  0
   -1.7282   -2.6969    1.0455 C   0  0  0  0  0  0  0  0  0  0  0  0
   -0.8085   -3.1484    1.7093 O   0  0  0  0  0  0  0  0  0  0  0  0
   -1.5853   -1.4961    0.3848 N   0  0  0  0  0  0  0  0  0  0  0  0
   -2.4208   -1.1073   -0.0492 H   0  0  0  0  0  0  0  0  0  0  0  0
   -0.3472   -0.7122    0.2385 C   0  0  1  0  0  0  0  0  0  0  0  0
    0.4123   -1.0655    0.9434 H   0  0  0  0  0  0  0  0  0  0  0  0
    0.2176   -0.7750   -1.2012 C   0  0  0  0  0  0  0  0  0  0  0  0
   -0.5285   -0.3450   -1.8770 H   0  0  0  0  0  0  0  0  0  0  0  0
    1.1037   -0.1352   -1.2513 H   0  0  0  0  0  0  0  0  0  0  0  0
    0.6071   -2.1083   -1.7842 C   0  0  0  0  0  0  0  0  0  0  0  0
    1.1114   -2.1651   -3.0789 N   0  0  0  0  0  0  0  0  0  0  0  0
    1.4465   -3.4110   -3.3093 C   0  0  0  0  0  0  0  0  0  0  0  0
    1.8698   -3.7797   -4.2392 H   0  0  0  0  0  0  0  0  0  0  0  0
    1.1932   -4.1762   -2.1899 N   0  0  0  0  0  0  0  0  0  0  0  0
    1.3989   -5.1690   -2.0956 H   0  0  0  0  0  0  0  0  0  0  0  0
    0.6855   -3.3490   -1.2117 C   0  0  0  0  0  0  0  0  0  0  0  0
    0.4487   -3.6200   -0.1914 H   0  0  0  0  0  0  0  0  0  0  0  0
   -0.6463    0.7739    0.5261 C   0  0  0  0  0  0  0  0  0  0  0  0
   -1.6677    1.2913    0.0861 O   0  0  0  0  0  0  0  0  0  0  0  0
    0.2028    1.5147    1.3277 N   0  0  0  0  0  0  0  0  0  0  0  0
    1.0065    1.0388    1.7281 H   0  0  0  0  0  0  0  0  0  0  0  0
   -0.0504    2.9023    1.6957 C   0  0  0  0  0  0  0  0  0  0  0  0
   -0.9860    2.9847    2.2587 H   0  0  0  0  0  0  0  0  0  0  0  0
    0.7638    3.2827    2.3201 H   0  0  0  0  0  0  0  0  0  0  0  0
   -0.1203    3.5293    0.8006 H   0  0  0  0  0  0  0  0  0  0  0  0
  1  2  1  0  0  0  0
  2  3  1  0  0  0  0
  2  4  1  0  0  0  0
  2  5  1  0  0  0  0
  5  6  2  0  0  0  0
  5  7  1  0  0  0  0
  7  8  1  0  0  0  0
  7  9  1  0  0  0  0
  9 10  1  0  0  0  0
  9 11  1  0  0  0  0
  9 22  1  0  0  0  0
 11 12  1  0  0  0  0
 11 13  1  0  0  0  0
 11 14  1  0  0  0  0
 14 15  1  0  0  0  0
 14 20  2  0  0  0  0
 15 16  2  0  0  0  0
 16 17  1  0  0  0  0
 16 18  1  0  0  0  0
 18 19  1  0  0  0  0
 18 20  1  0  0  0  0
 20 21  1  0  0  0  0
 22 23  2  0  0  0  0
 22 24  1  0  0  0  0
 24 25  1  0  0  0  0
 24 26  1  0  0  0  0
 26 27  1  0  0  0  0
 26 28  1  0  0  0  0
 26 29  1  0  0  0  0
M  END
$$$$

  -OEChem-04042215593D

 29 29  0     1  0  0  0  0  0999 V2000
   -3.1837   -4.2565    1.5954 H   0  0  0  0  0  0  0  0  0  0  0  0
   -3.2051   -3.3209    1.0296 C   0  0  0  0  0  0  0  0  0  0  0  0
   -3.9224   -2.6425    1.4981 H   0  0  0  0  0  0  0  0  0  0  0  0
   -3.5291   -3.5340    0.0080 H   0  0  0  0  0  0  0  0  0  0  0  0
   -1.8272   -2.6870    1.0144 C   0  0  0  0  0  0  0  0  0  0  0  0
   -0.9088   -3.2125    1.6229 O   0  0  0  0  0  0  0  0  0  0  0  0
   -1.6339   -1.4918    0.3567 N   0  0  0  0  0  0  0  0  0  0  0  0
   -2.4612   -1.0383   -0.0281 H   0  0  0  0  0  0  0  0  0  0  0  0
   -0.3697   -0.7453    0.2433 C   0  0  1  0  0  0  0  0  0  0  0  0
    0.3527   -1.1176    0.9772 H   0  0  0  0  0  0  0  0  0  0  0  0
    0.2665   -0.8046   -1.1675 C   0  0  0  0  0  0  0  0  0  0  0  0
   -0.4252   -0.3364   -1.8750 H   0  0  0  0  0  0  0  0  0  0  0  0
    1.1702   -0.1879   -1.1467 H   0  0  0  0  0  0  0  0  0  0  0  0
    0.6657   -2.1269   -1.7722 C   0  0  0  0  0  0  0  0  0  0  0  0
    1.5062   -2.1177   -2.8807 N   0  0  0  0  0  0  0  0  0  0  0  0
    1.7596   -3.3660   -3.1878 C   0  0  0  0  0  0  0  0  0  0  0  0
    2.3888   -3.6893   -4.0121 H   0  0  0  0  0  0  0  0  0  0  0  0
    1.1146   -4.2024   -2.3015 N   0  0  0  0  0  0  0  0  0  0  0  0
    1.1742   -5.2188   -2.3009 H   0  0  0  0  0  0  0  0  0  0  0  0
    0.4343   -3.4216   -1.3921 C   0  0  0  0  0  0  0  0  0  0  0  0
   -0.1331   -3.7720   -0.5423 H   0  0  0  0  0  0  0  0  0  0  0  0
   -0.6450    0.7470    0.5245 C   0  0  0  0  0  0  0  0  0  0  0  0
   -1.6536    1.2794    0.0722 O   0  0  0  0  0  0  0  0  0  0  0  0
    0.1954    1.4713    1.3499 N   0  0  0  0  0  0  0  0  0  0  0  0
    0.9955    0.9880    1.7489 H   0  0  0  0  0  0  0  0  0  0  0  0
   -0.0377    2.8651    1.7078 C   0  0  0  0  0  0  0  0  0  0  0  0
   -0.9787    2.9672    2.2582 H   0  0  0  0  0  0  0  0  0  0  0  0
    0.7752    3.2336    2.3407 H   0  0  0  0  0  0  0  0  0  0  0  0
   -0.0853    3.4889    0.8090 H   0  0  0  0  0  0  0  0  0  0  0  0
  1  2  1  0  0  0  0
  2  3  1  0  0  0  0
  2  4  1  0  0  0  0
  2  5  1  0  0  0  0
  5  6  2  0  0  0  0
  5  7  1  0  0  0  0
  7  8  1  0  0  0  0
  7  9  1  0  0  0  0
  9 10  1  0  0  0  0
  9 11  1  0  0  0  0
  9 22  1  0  0  0  0
 11 12  1  0  0  0  0
 11 13  1  0  0  0  0
 11 14  1  0  0  0  0
 14 15  1  0  0  0  0
 14 20  2  0  0  0  0
 15 16  2  0  0  0  0
 16 17  1  0  0  0  0
 16 18  1  0  0  0  0
 18 19  1  0  0  0  0
 18 20  1  0  0  0  0
 20 21  1  0  0  0  0
 22 23  2  0  0  0  0
 22 24  1  0  0  0  0
 24 25  1  0  0  0  0
 24 26  1  0  0  0  0
 26 27  1  0  0  0  0
 26 28  1  0  0  0  0
 26 29  1  0  0  0  0
M  END
$$$$

  -OEChem-04042215593D

 29 29  0     1  0  0  0  0  0999 V2000
   -3.1400   -4.2574    1.6654 H   0  0  0  0  0  0  0  0  0  0  0  0
   -3.1915   -3.3018    1.1362 C   0  0  0  0  0  0  0  0  0  0  0  0
   -3.8337   -2.6214    1.7009 H   0  0  0  0  0  0  0  0  0  0  0  0
   -3.6285   -3.4685    0.1487 H   0  0  0  0  0  0  0  0  0  0  0  0
   -1.8034   -2.7061    0.9955 C   0  0  0  0  0  0  0  0  0  0  0  0
   -0.8420   -3.2841    1.4749 O   0  0  0  0  0  0  0  0  0  0  0  0
   -1.6417   -1.5027    0.3431 N   0  0  0  0  0  0  0  0  0  0  0  0
   -2.4900   -1.0126    0.0622 H   0  0  0  0  0  0  0  0  0  0  0  0
   -0.3835   -0.7500    0.2087 C   0  0  1  0  0  0  0  0  0  0  0  0
    0.3465   -1.1227    0.9349 H   0  0  0  0  0  0  0  0  0  0  0  0
    0.2553   -0.7960   -1.2005 C   0  0  0  0  0  0  0  0  0  0  0  0
   -0.4329   -0.3282   -1.9109 H   0  0  0  0  0  0  0  0  0  0  0  0
    1.1562   -0.1751   -1.1702 H   0  0  0  0  0  0  0  0  0  0  0  0
    0.6630   -2.1199   -1.7958 C   0  0  0  0  0  0  0  0  0  0  0  0
    1.7363   -2.1531   -2.6806 N   0  0  0  0  0  0  0  0  0  0  0  0
    1.9063   -3.4030   -3.0356 C   0  0  0  0  0  0  0  0  0  0  0  0
    2.6738   -3.7571   -3.7178 H   0  0  0  0  0  0  0  0  0  0  0  0
    0.9668   -4.1968   -2.4118 N   0  0  0  0  0  0  0  0  0  0  0  0
    0.8979   -5.2087   -2.5006 H   0  0  0  0  0  0  0  0  0  0  0  0
    0.1767   -3.3878   -1.6239 C   0  0  0  0  0  0  0  0  0  0  0  0
   -0.6467   -3.6993   -0.9970 H   0  0  0  0  0  0  0  0  0  0  0  0
   -0.6603    0.7370    0.5111 C   0  0  0  0  0  0  0  0  0  0  0  0
   -1.6902    1.2620    0.0999 O   0  0  0  0  0  0  0  0  0  0  0  0
    0.1944    1.4580    1.3245 N   0  0  0  0  0  0  0  0  0  0  0  0
    1.0214    0.9839    1.6775 H   0  0  0  0  0  0  0  0  0  0  0  0
   -0.0336    2.8492    1.6943 C   0  0  0  0  0  0  0  0  0  0  0  0
   -0.9756    2.9499    2.2434 H   0  0  0  0  0  0  0  0  0  0  0  0
    0.7790    3.2085    2.3328 H   0  0  0  0  0  0  0  0  0  0  0  0
   -0.0762    3.4811    0.8010 H   0  0  0  0  0  0  0  0  0  0  0  0
  1  2  1  0  0  0  0
  2  3  1  0  0  0  0
  2  4  1  0  0  0  0
  2  5  1  0  0  0  0
  5  6  2  0  0  0  0
  5  7  1  0  0  0  0
  7  8  1  0  0  0  0
  7  9  1  0  0  0  0
  9 10  1  0  0  0  0
  9 11  1  0  0  0  0
  9 22  1  0  0  0  0
 11 12  1  0  0  0  0
 11 13  1  0  0  0  0
 11 14  1  0  0  0  0
 14 15  1  0  0  0  0
 14 20  2  0  0  0  0
 15 16  2  0  0  0  0
 16 17  1  0  0  0  0
 16 18  1  0  0  0  0
 18 19  1  0  0  0  0
 18 20  1  0  0  0  0
 20 21  1  0  0  0  0
 22 23  2  0  0  0  0
 22 24  1  0  0  0  0
 24 25  1  0  0  0  0
 24 26  1  0  0  0  0
 26 27  1  0  0  0  0
 26 28  1  0  0  0  0
 26 29  1  0  0  0  0
M  END
$$$$

  -OEChem-04042215593D

 29 29  0     1  0  0  0  0  0999 V2000
   -3.0415   -4.3136    1.6000 H   0  0  0  0  0  0  0  0  0  0  0  0
   -3.1236   -3.3405    1.1074 C   0  0  0  0  0  0  0  0  0  0  0  0
   -3.7449   -2.6855    1.7231 H   0  0  0  0  0  0  0  0  0  0  0  0
   -3.6030   -3.4774    0.1352 H   0  0  0  0  0  0  0  0  0  0  0  0
   -1.7481   -2.7271    0.9273 C   0  0  0  0  0  0  0  0  0  0  0  0
   -0.7632   -3.3131    1.3439 O   0  0  0  0  0  0  0  0  0  0  0  0
   -1.6263   -1.5037    0.3026 N   0  0  0  0  0  0  0  0  0  0  0  0
   -2.4897   -1.0084    0.0836 H   0  0  0  0  0  0  0  0  0  0  0  0
   -0.3814   -0.7285    0.1770 C   0  0  1  0  0  0  0  0  0  0  0  0
    0.3572   -1.1062    0.8920 H   0  0  0  0  0  0  0  0  0  0  0  0
    0.2497   -0.7597   -1.2336 C   0  0  0  0  0  0  0  0  0  0  0  0
   -0.4501   -0.3098   -1.9443 H   0  0  0  0  0  0  0  0  0  0  0  0
    1.1445   -0.1295   -1.2193 H   0  0  0  0  0  0  0  0  0  0  0  0
    0.6538   -2.1006   -1.7864 C   0  0  0  0  0  0  0  0  0  0  0  0
    1.8863   -2.2590   -2.4108 N   0  0  0  0  0  0  0  0  0  0  0  0
    1.9525   -3.5056   -2.8109 C   0  0  0  0  0  0  0  0  0  0  0  0
    2.8002   -3.9483   -3.3261 H   0  0  0  0  0  0  0  0  0  0  0  0
    0.7850   -4.1660   -2.4862 N   0  0  0  0  0  0  0  0  0  0  0  0
    0.5926   -5.1482   -2.6720 H   0  0  0  0  0  0  0  0  0  0  0  0
   -0.0491   -3.2729   -1.8493 C   0  0  0  0  0  0  0  0  0  0  0  0
   -1.0496   -3.4548   -1.4774 H   0  0  0  0  0  0  0  0  0  0  0  0
   -0.6671    0.7474    0.5182 C   0  0  0  0  0  0  0  0  0  0  0  0
   -1.7030    1.2737    0.1242 O   0  0  0  0  0  0  0  0  0  0  0  0
    0.1891    1.4565    1.3403 N   0  0  0  0  0  0  0  0  0  0  0  0
    1.0255    0.9822    1.6706 H   0  0  0  0  0  0  0  0  0  0  0  0
   -0.0371    2.8428    1.7294 C   0  0  0  0  0  0  0  0  0  0  0  0
   -0.9923    2.9426    2.2555 H   0  0  0  0  0  0  0  0  0  0  0  0
    0.7612    3.1833    2.3958 H   0  0  0  0  0  0  0  0  0  0  0  0
   -0.0507    3.4904    0.8465 H   0  0  0  0  0  0  0  0  0  0  0  0
  1  2  1  0  0  0  0
  2  3  1  0  0  0  0
  2  4  1  0  0  0  0
  2  5  1  0  0  0  0
  5  6  2  0  0  0  0
  5  7  1  0  0  0  0
  7  8  1  0  0  0  0
  7  9  1  0  0  0  0
  9 10  1  0  0  0  0
  9 11  1  0  0  0  0
  9 22  1  0  0  0  0
 11 12  1  0  0  0  0
 11 13  1  0  0  0  0
 11 14  1  0  0  0  0
 14 15  1  0  0  0  0
 14 20  2  0  0  0  0
 15 16  2  0  0  0  0
 16 17  1  0  0  0  0
 16 18  1  0  0  0  0
 18 19  1  0  0  0  0
 18 20  1  0  0  0  0
 20 21  1  0  0  0  0
 22 23  2  0  0  0  0
 22 24  1  0  0  0  0
 24 25  1  0  0  0  0
 24 26  1  0  0  0  0
 26 27  1  0  0  0  0
 26 28  1  0  0  0  0
 26 29  1  0  0  0  0
M  END
$$$$

  -OEChem-04042215593D

 29 29  0     1  0  0  0  0  0999 V2000
   -2.9448   -4.3648    1.5089 H   0  0  0  0  0  0  0  0  0  0  0  0
   -3.0508   -3.3868    1.0310 C   0  0  0  0  0  0  0  0  0  0  0  0
   -3.6920   -2.7586    1.6542 H   0  0  0  0  0  0  0  0  0  0  0  0
   -3.5221   -3.5216    0.0545 H   0  0  0  0  0  0  0  0  0  0  0  0
   -1.6905   -2.7349    0.8661 C   0  0  0  0  0  0  0  0  0  0  0  0
   -0.6931   -3.3000    1.2819 O   0  0  0  0  0  0  0  0  0  0  0  0
   -1.5992   -1.4966    0.2649 N   0  0  0  0  0  0  0  0  0  0  0  0
   -2.4734   -1.0166    0.0567 H   0  0  0  0  0  0  0  0  0  0  0  0
   -0.3689   -0.6974    0.1445 C   0  0  1  0  0  0  0  0  0  0  0  0
    0.3833   -1.0763    0.8446 H   0  0  0  0  0  0  0  0  0  0  0  0
    0.2351   -0.7253   -1.2743 C   0  0  0  0  0  0  0  0  0  0  0  0
   -0.4894   -0.3029   -1.9769 H   0  0  0  0  0  0  0  0  0  0  0  0
    1.1230   -0.0860   -1.2988 H   0  0  0  0  0  0  0  0  0  0  0  0
    0.6252   -2.0874   -1.7741 C   0  0  0  0  0  0  0  0  0  0  0  0
    1.9345   -2.3908   -2.1279 N   0  0  0  0  0  0  0  0  0  0  0  0
    1.9254   -3.6251   -2.5703 C   0  0  0  0  0  0  0  0  0  0  0  0
    2.8020   -4.1673   -2.9132 H   0  0  0  0  0  0  0  0  0  0  0  0
    0.6385   -4.1267   -2.5468 N   0  0  0  0  0  0  0  0  0  0  0  0
    0.3686   -5.0665   -2.8294 H   0  0  0  0  0  0  0  0  0  0  0  0
   -0.1958   -3.1432   -2.0607 C   0  0  0  0  0  0  0  0  0  0  0  0
   -1.2712   -3.1814   -1.9273 H   0  0  0  0  0  0  0  0  0  0  0  0
   -0.6615    0.7692    0.5144 C   0  0  0  0  0  0  0  0  0  0  0  0
   -1.7045    1.2942    0.1384 O   0  0  0  0  0  0  0  0  0  0  0  0
    0.1980    1.4701    1.3399 N   0  0  0  0  0  0  0  0  0  0  0  0
    1.0337    0.9907    1.6649 H   0  0  0  0  0  0  0  0  0  0  0  0
   -0.0451    2.8396    1.7752 C   0  0  0  0  0  0  0  0  0  0  0  0
   -0.9735    2.8992    2.3529 H   0  0  0  0  0  0  0  0  0  0  0  0
    0.7783    3.1868    2.4067 H   0  0  0  0  0  0  0  0  0  0  0  0
   -0.1228    3.5084    0.9116 H   0  0  0  0  0  0  0  0  0  0  0  0
  1  2  1  0  0  0  0
  2  3  1  0  0  0  0
  2  4  1  0  0  0  0
  2  5  1  0  0  0  0
  5  6  2  0  0  0  0
  5  7  1  0  0  0  0
  7  8  1  0  0  0  0
  7  9  1  0  0  0  0
  9 10  1  0  0  0  0
  9 11  1  0  0  0  0
  9 22  1  0  0  0  0
 11 12  1  0  0  0  0
 11 13  1  0  0  0  0
 11 14  1  0  0  0  0
 14 15  1  0  0  0  0
 14 20  2  0  0  0  0
 15 16  2  0  0  0  0
 16 17  1  0  0  0  0
 16 18  1  0  0  0  0
 18 19  1  0  0  0  0
 18 20  1  0  0  0  0
 20 21  1  0  0  0  0
 22 23  2  0  0  0  0
 22 24  1  0  0  0  0
 24 25  1  0  0  0  0
 24 26  1  0  0  0  0
 26 27  1  0  0  0  0
 26 28  1  0  0  0  0
 26 29  1  0  0  0  0
M  END
$$$$

  -OEChem-04042215593D

 29 29  0     1  0  0  0  0  0999 V2000
   -2.8748   -4.4057    1.4296 H   0  0  0  0  0  0  0  0  0  0  0  0
   -2.9994   -3.4254    0.9609 C   0  0  0  0  0  0  0  0  0  0  0  0
   -3.6587   -2.8180    1.5856 H   0  0  0  0  0  0  0  0  0  0  0  0
   -3.4601   -3.5607   -0.0204 H   0  0  0  0  0  0  0  0  0  0  0  0
   -1.6529   -2.7422    0.8125 C   0  0  0  0  0  0  0  0  0  0  0  0
   -0.6470   -3.2941    1.2253 O   0  0  0  0  0  0  0  0  0  0  0  0
   -1.5855   -1.4910    0.2351 N   0  0  0  0  0  0  0  0  0  0  0  0
   -2.4679   -1.0257    0.0299 H   0  0  0  0  0  0  0  0  0  0  0  0
   -0.3670   -0.6735    0.1171 C   0  0  1  0  0  0  0  0  0  0  0  0
    0.4003   -1.0565    0.7988 H   0  0  0  0  0  0  0  0  0  0  0  0
    0.2048   -0.6927   -1.3125 C   0  0  0  0  0  0  0  0  0  0  0  0
   -0.5412   -0.2822   -1.9998 H   0  0  0  0  0  0  0  0  0  0  0  0
    1.0900   -0.0519   -1.3663 H   0  0  0  0  0  0  0  0  0  0  0  0
    0.5813   -2.0668   -1.7813 C   0  0  0  0  0  0  0  0  0  0  0  0
    1.9010   -2.4911   -1.8631 N   0  0  0  0  0  0  0  0  0  0  0  0
    1.8670   -3.7107   -2.3435 C   0  0  0  0  0  0  0  0  0  0  0  0
    2.7402   -4.3341   -2.5130 H   0  0  0  0  0  0  0  0  0  0  0  0
    0.5623   -4.0794   -2.6130 N   0  0  0  0  0  0  0  0  0  0  0  0
    0.2719   -4.9814   -2.9846 H   0  0  0  0  0  0  0  0  0  0  0  0
   -0.2600   -3.0263   -2.2730 C   0  0  0  0  0  0  0  0  0  0  0  0
   -1.3391   -2.9570   -2.3600 H   0  0  0  0  0  0  0  0  0  0  0  0
   -0.6620    0.7839    0.5162 C   0  0  0  0  0  0  0  0  0  0  0  0
   -1.7068    1.3143    0.1530 O   0  0  0  0  0  0  0  0  0  0  0  0
    0.2058    1.4723    1.3434 N   0  0  0  0  0  0  0  0  0  0  0  0
    1.0442    0.9870    1.6526 H   0  0  0  0  0  0  0  0  0  0  0  0
   -0.0326    2.8345    1.8033 C   0  0  0  0  0  0  0  0  0  0  0  0
   -0.9579    2.8860    2.3866 H   0  0  0  0  0  0  0  0  0  0  0  0
    0.7945    3.1692    2.4369 H   0  0  0  0  0  0  0  0  0  0  0  0
   -0.1136    3.5175    0.9512 H   0  0  0  0  0  0  0  0  0  0  0  0
  1  2  1  0  0  0  0
  2  3  1  0  0  0  0
  2  4  1  0  0  0  0
  2  5  1  0  0  0  0
  5  6  2  0  0  0  0
  5  7  1  0  0  0  0
  7  8  1  0  0  0  0
  7  9  1  0  0  0  0
  9 10  1  0  0  0  0
  9 11  1  0  0  0  0
  9 22  1  0  0  0  0
 11 12  1  0  0  0  0
 11 13  1  0  0  0  0
 11 14  1  0  0  0  0
 14 15  1  0  0  0  0
 14 20  2  0  0  0  0
 15 16  2  0  0  0  0
 16 17  1  0  0  0  0
 16 18  1  0  0  0  0
 18 19  1  0  0  0  0
 18 20  1  0  0  0  0
 20 21  1  0  0  0  0
 22 23  2  0  0  0  0
 22 24  1  0  0  0  0
 24 25  1  0  0  0  0
 24 26  1  0  0  0  0
 26 27  1  0  0  0  0
 26 28  1  0  0  0  0
 26 29  1  0  0  0  0
M  END
$$$$

  -OEChem-04042215593D

 29 29  0     1  0  0  0  0  0999 V2000
   -2.8317   -4.4371    1.3568 H   0  0  0  0  0  0  0  0  0  0  0  0
   -2.9629   -3.4541    0.8959 C   0  0  0  0  0  0  0  0  0  0  0  0
   -3.6405   -2.8624    1.5162 H   0  0  0  0  0  0  0  0  0  0  0  0
   -3.4055   -3.5860   -0.0943 H   0  0  0  0  0  0  0  0  0  0  0  0
   -1.6242   -2.7506    0.7758 C   0  0  0  0  0  0  0  0  0  0  0  0
   -0.6178   -3.2927    1.2001 O   0  0  0  0  0  0  0  0  0  0  0  0
   -1.5697   -1.4903    0.2173 N   0  0  0  0  0  0  0  0  0  0  0  0
   -2.4565   -1.0390    0.0020 H   0  0  0  0  0  0  0  0  0  0  0  0
   -0.3602   -0.6594    0.1001 C   0  0  1  0  0  0  0  0  0  0  0  0
    0.4202   -1.0474    0.7640 H   0  0  0  0  0  0  0  0  0  0  0  0
    0.1805   -0.6648   -1.3402 C   0  0  0  0  0  0  0  0  0  0  0  0
   -0.5809   -0.2558   -2.0109 H   0  0  0  0  0  0  0  0  0  0  0  0
    1.0643   -0.0241   -1.4112 H   0  0  0  0  0  0  0  0  0  0  0  0
    0.5471   -2.0423   -1.8009 C   0  0  0  0  0  0  0  0  0  0  0  0
    1.8147   -2.5787   -1.6238 N   0  0  0  0  0  0  0  0  0  0  0  0
    1.7789   -3.7813   -2.1449 C   0  0  0  0  0  0  0  0  0  0  0  0
    2.6132   -4.4769   -2.1542 H   0  0  0  0  0  0  0  0  0  0  0  0
    0.5323   -4.0269   -2.6910 N   0  0  0  0  0  0  0  0  0  0  0  0
    0.2522   -4.8926   -3.1472 H   0  0  0  0  0  0  0  0  0  0  0  0
   -0.2542   -2.9132   -2.4854 C   0  0  0  0  0  0  0  0  0  0  0  0
   -1.2863   -2.7506   -2.7783 H   0  0  0  0  0  0  0  0  0  0  0  0
   -0.6582    0.7906    0.5216 C   0  0  0  0  0  0  0  0  0  0  0  0
   -1.7026    1.3249    0.1632 O   0  0  0  0  0  0  0  0  0  0  0  0
    0.2140    1.4730    1.3490 N   0  0  0  0  0  0  0  0  0  0  0  0
    1.0510    0.9829    1.6544 H   0  0  0  0  0  0  0  0  0  0  0  0
   -0.0202    2.8327    1.8178 C   0  0  0  0  0  0  0  0  0  0  0  0
   -0.9467    2.8836    2.3992 H   0  0  0  0  0  0  0  0  0  0  0  0
    0.8067    3.1598    2.4554 H   0  0  0  0  0  0  0  0  0  0  0  0
   -0.0966    3.5222    0.9706 H   0  0  0  0  0  0  0  0  0  0  0  0
  1  2  1  0  0  0  0
  2  3  1  0  0  0  0
  2  4  1  0  0  0  0
  2  5  1  0  0  0  0
  5  6  2  0  0  0  0
  5  7  1  0  0  0  0
  7  8  1  0  0  0  0
  7  9  1  0  0  0  0
  9 10  1  0  0  0  0
  9 11  1  0  0  0  0
  9 22  1  0  0  0  0
 11 12  1  0  0  0  0
 11 13  1  0  0  0  0
 11 14  1  0  0  0  0
 14 15  1  0  0  0  0
 14 20  2  0  0  0  0
 15 16  2  0  0  0  0
 16 17  1  0  0  0  0
 16 18  1  0  0  0  0
 18 19  1  0  0  0  0
 18 20  1  0  0  0  0
 20 21  1  0  0  0  0
 22 23  2  0  0  0  0
 22 24  1  0  0  0  0
 24 25  1  0  0  0  0
 24 26  1  0  0  0  0
 26 27  1  0  0  0  0
 26 28  1  0  0  0  0
 26 29  1  0  0  0  0
M  END
$$$$

  -OEChem-04042215593D

 29 29  0     1  0  0  0  0  0999 V2000
   -2.7997   -4.4687    1.2948 H   0  0  0  0  0  0  0  0  0  0  0  0
   -2.9343   -3.4850    0.8361 C   0  0  0  0  0  0  0  0  0  0  0  0
   -3.6412   -2.9094    1.4385 H   0  0  0  0  0  0  0  0  0  0  0  0
   -3.3440   -3.6183   -0.1678 H   0  0  0  0  0  0  0  0  0  0  0  0
   -1.6052   -2.7569    0.7609 C   0  0  0  0  0  0  0  0  0  0  0  0
   -0.6050   -3.2842    1.2170 O   0  0  0  0  0  0  0  0  0  0  0  0
   -1.5581   -1.4913    0.2131 N   0  0  0  0  0  0  0  0  0  0  0  0
   -2.4460   -1.0573   -0.0295 H   0  0  0  0  0  0  0  0  0  0  0  0
   -0.3554   -0.6501    0.0966 C   0  0  1  0  0  0  0  0  0  0  0  0
    0.4339   -1.0404    0.7486 H   0  0  0  0  0  0  0  0  0  0  0  0
    0.1638   -0.6435   -1.3517 C   0  0  0  0  0  0  0  0  0  0  0  0
   -0.6051   -0.2294   -2.0110 H   0  0  0  0  0  0  0  0  0  0  0  0
    1.0479   -0.0038   -1.4272 H   0  0  0  0  0  0  0  0  0  0  0  0
    0.5283   -2.0190   -1.8180 C   0  0  0  0  0  0  0  0  0  0  0  0
    1.6819   -2.6702   -1.4063 N   0  0  0  0  0  0  0  0  0  0  0  0
    1.6623   -3.8483   -1.9801 C   0  0  0  0  0  0  0  0  0  0  0  0
    2.4221   -4.6133   -1.8487 H   0  0  0  0  0  0  0  0  0  0  0  0
    0.5428   -3.9670   -2.7839 N   0  0  0  0  0  0  0  0  0  0  0  0
    0.2992   -4.7901   -3.3310 H   0  0  0  0  0  0  0  0  0  0  0  0
   -0.1817   -2.7973   -2.6891 C   0  0  0  0  0  0  0  0  0  0  0  0
   -1.1182   -2.5407   -3.1741 H   0  0  0  0  0  0  0  0  0  0  0  0
   -0.6550    0.7961    0.5299 C   0  0  0  0  0  0  0  0  0  0  0  0
   -1.6952    1.3366    0.1679 O   0  0  0  0  0  0  0  0  0  0  0  0
    0.2204    1.4752    1.3567 N   0  0  0  0  0  0  0  0  0  0  0  0
    1.0543    0.9806    1.6639 H   0  0  0  0  0  0  0  0  0  0  0  0
   -0.0051    2.8382    1.8209 C   0  0  0  0  0  0  0  0  0  0  0  0
   -0.9282    2.8963    2.4070 H   0  0  0  0  0  0  0  0  0  0  0  0
    0.8267    3.1642    2.4528 H   0  0  0  0  0  0  0  0  0  0  0  0
   -0.0825    3.5240    0.9706 H   0  0  0  0  0  0  0  0  0  0  0  0
  1  2  1  0  0  0  0
  2  3  1  0  0  0  0
  2  4  1  0  0  0  0
  2  5  1  0  0  0  0
  5  6  2  0  0  0  0
  5  7  1  0  0  0  0
  7  8  1  0  0  0  0
  7  9  1  0  0  0  0
  9 10  1  0  0  0  0
  9 11  1  0  0  0  0
  9 22  1  0  0  0  0
 11 12  1  0  0  0  0
 11 13  1  0  0  0  0
 11 14  1  0  0  0  0
 14 15  1  0  0  0  0
 14 20  2  0  0  0  0
 15 16  2  0  0  0  0
 16 17  1  0  0  0  0
 16 18  1  0  0  0  0
 18 19  1  0  0  0  0
 18 20  1  0  0  0  0
 20 21  1  0  0  0  0
 22 23  2  0  0  0  0
 22 24  1  0  0  0  0
 24 25  1  0  0  0  0
 24 26  1  0  0  0  0
 26 27  1  0  0  0  0
 26 28  1  0  0  0  0
 26 29  1  0  0  0  0
M  END
$$$$

  -OEChem-04042215593D

 29 29  0     1  0  0  0  0  0999 V2000
   -2.7685   -4.4882    1.2552 H   0  0  0  0  0  0  0  0  0  0  0  0
   -2.9010   -3.5098    0.7846 C   0  0  0  0  0  0  0  0  0  0  0  0
   -3.6630   -2.9538    1.3359 H   0  0  0  0  0  0  0  0  0  0  0  0
   -3.2379   -3.6571   -0.2441 H   0  0  0  0  0  0  0  0  0  0  0  0
   -1.5916   -2.7437    0.7949 C   0  0  0  0  0  0  0  0  0  0  0  0
   -0.6184   -3.2279    1.3468 O   0  0  0  0  0  0  0  0  0  0  0  0
   -1.5428   -1.4841    0.2339 N   0  0  0  0  0  0  0  0  0  0  0  0
   -2.4196   -1.0866   -0.0944 H   0  0  0  0  0  0  0  0  0  0  0  0
   -0.3410   -0.6427    0.1115 C   0  0  1  0  0  0  0  0  0  0  0  0
    0.4532   -1.0282    0.7603 H   0  0  0  0  0  0  0  0  0  0  0  0
    0.1612   -0.6415   -1.3446 C   0  0  0  0  0  0  0  0  0  0  0  0
   -0.6096   -0.2188   -1.9962 H   0  0  0  0  0  0  0  0  0  0  0  0
    1.0480   -0.0058   -1.4221 H   0  0  0  0  0  0  0  0  0  0  0  0
    0.5234   -2.0134   -1.8274 C   0  0  0  0  0  0  0  0  0  0  0  0
    1.5031   -2.7941   -1.2326 N   0  0  0  0  0  0  0  0  0  0  0  0
    1.5140   -3.9335   -1.8792 C   0  0  0  0  0  0  0  0  0  0  0  0
    2.1663   -4.7706   -1.6479 H   0  0  0  0  0  0  0  0  0  0  0  0
    0.5819   -3.9060   -2.9007 N   0  0  0  0  0  0  0  0  0  0  0  0
    0.3987   -4.6709   -3.5473 H   0  0  0  0  0  0  0  0  0  0  0  0
   -0.0523   -2.6812   -2.8724 C   0  0  0  0  0  0  0  0  0  0  0  0
   -0.8462   -2.3175   -3.5172 H   0  0  0  0  0  0  0  0  0  0  0  0
   -0.6428    0.8076    0.5291 C   0  0  0  0  0  0  0  0  0  0  0  0
   -1.6712    1.3535    0.1424 O   0  0  0  0  0  0  0  0  0  0  0  0
    0.2321    1.4933    1.3511 N   0  0  0  0  0  0  0  0  0  0  0  0
    1.0441    0.9865    1.6946 H   0  0  0  0  0  0  0  0  0  0  0  0
   -0.0051    2.8513    1.8235 C   0  0  0  0  0  0  0  0  0  0  0  0
   -0.9252    2.8957    2.4155 H   0  0  0  0  0  0  0  0  0  0  0  0
    0.8273    3.1829    2.4518 H   0  0  0  0  0  0  0  0  0  0  0  0
   -0.0953    3.5415    0.9781 H   0  0  0  0  0  0  0  0  0  0  0  0
  1  2  1  0  0  0  0
  2  3  1  0  0  0  0
  2  4  1  0  0  0  0
  2  5  1  0  0  0  0
  5  6  2  0  0  0  0
  5  7  1  0  0  0  0
  7  8  1  0  0  0  0
  7  9  1  0  0  0  0
  9 10  1  0  0  0  0
  9 11  1  0  0  0  0
  9 22  1  0  0  0  0
 11 12  1  0  0  0  0
 11 13  1  0  0  0  0
 11 14  1  0  0  0  0
 14 15  1  0  0  0  0
 14 20  2  0  0  0  0
 15 16  2  0  0  0  0
 16 17  1  0  0  0  0
 16 18  1  0  0  0  0
 18 19  1  0  0  0  0
 18 20  1  0  0  0  0
 20 21  1  0  0  0  0
 22 23  2  0  0  0  0
 22 24  1  0  0  0  0
 24 25  1  0  0  0  0
 24 26  1  0  0  0  0
 26 27  1  0  0  0  0
 26 28  1  0  0  0  0
 26 29  1  0  0  0  0
M  END
$$$$

  -OEChem-04042215593D

 29 29  0     1  0  0  0  0  0999 V2000
   -2.7372   -4.5133    1.2366 H   0  0  0  0  0  0  0  0  0  0  0  0
   -2.8681   -3.5436    0.7485 C   0  0  0  0  0  0  0  0  0  0  0  0
   -3.6918   -3.0133    1.2325 H   0  0  0  0  0  0  0  0  0  0  0  0
   -3.1156   -3.7096   -0.3025 H   0  0  0  0  0  0  0  0  0  0  0  0
   -1.5925   -2.7294    0.8556 C   0  0  0  0  0  0  0  0  0  0  0  0
   -0.6636   -3.1563    1.5208 O   0  0  0  0  0  0  0  0  0  0  0  0
   -1.5375   -1.4800    0.2721 N   0  0  0  0  0  0  0  0  0  0  0  0
   -2.3876   -1.1324   -0.1636 H   0  0  0  0  0  0  0  0  0  0  0  0
   -0.3312   -0.6453    0.1497 C   0  0  1  0  0  0  0  0  0  0  0  0
    0.4607   -1.0248    0.8045 H   0  0  0  0  0  0  0  0  0  0  0  0
    0.1686   -0.6534   -1.3096 C   0  0  0  0  0  0  0  0  0  0  0  0
   -0.5951   -0.2173   -1.9607 H   0  0  0  0  0  0  0  0  0  0  0  0
    1.0611   -0.0249   -1.3788 H   0  0  0  0  0  0  0  0  0  0  0  0
    0.5290   -2.0192   -1.8167 C   0  0  0  0  0  0  0  0  0  0  0  0
    1.2780   -2.9450   -1.1066 N   0  0  0  0  0  0  0  0  0  0  0  0
    1.3395   -4.0264   -1.8430 C   0  0  0  0  0  0  0  0  0  0  0  0
    1.8541   -4.9407   -1.5611 H   0  0  0  0  0  0  0  0  0  0  0  0
    0.6569   -3.8255   -3.0286 N   0  0  0  0  0  0  0  0  0  0  0  0
    0.5580   -4.5140   -3.7720 H   0  0  0  0  0  0  0  0  0  0  0  0
    0.1362   -2.5481   -3.0148 C   0  0  0  0  0  0  0  0  0  0  0  0
   -0.4660   -2.0577   -3.7736 H   0  0  0  0  0  0  0  0  0  0  0  0
   -0.6343    0.8130    0.5398 C   0  0  0  0  0  0  0  0  0  0  0  0
   -1.6418    1.3659    0.1100 O   0  0  0  0  0  0  0  0  0  0  0  0
    0.2324    1.5097    1.3612 N   0  0  0  0  0  0  0  0  0  0  0  0
    1.0254    1.0000    1.7425 H   0  0  0  0  0  0  0  0  0  0  0  0
   -0.0045    2.8790    1.7994 C   0  0  0  0  0  0  0  0  0  0  0  0
   -0.9400    2.9438    2.3649 H   0  0  0  0  0  0  0  0  0  0  0  0
    0.8132    3.2166    2.4433 H   0  0  0  0  0  0  0  0  0  0  0  0
   -0.0652    3.5511    0.9371 H   0  0  0  0  0  0  0  0  0  0  0  0
  1  2  1  0  0  0  0
  2  3  1  0  0  0  0
  2  4  1  0  0  0  0
  2  5  1  0  0  0  0
  5  6  2  0  0  0  0
  5  7  1  0  0  0  0
  7  8  1  0  0  0  0
  7  9  1  0  0  0  0
  9 10  1  0  0  0  0
  9 11  1  0  0  0  0
  9 22  1  0  0  0  0
 11 12  1  0  0  0  0
 11 13  1  0  0  0  0
 11 14  1  0  0  0  0
 14 15  1  0  0  0  0
 14 20  2  0  0  0  0
 15 16  2  0  0  0  0
 16 17  1  0  0  0  0
 16 18  1  0  0  0  0
 18 19  1  0  0  0  0
 18 20  1  0  0  0  0
 20 21  1  0  0  0  0
 22 23  2  0  0  0  0
 22 24  1  0  0  0  0
 24 25  1  0  0  0  0
 24 26  1  0  0  0  0
 26 27  1  0  0  0  0
 26 28  1  0  0  0  0
 26 29  1  0  0  0  0
M  END
$$$$

  -OEChem-04042215593D

 29 29  0     1  0  0  0  0  0999 V2000
   -2.7124   -4.5184    1.2577 H   0  0  0  0  0  0  0  0  0  0  0  0
   -2.8373   -3.5685    0.7307 C   0  0  0  0  0  0  0  0  0  0  0  0
   -3.7190   -3.0585    1.1260 H   0  0  0  0  0  0  0  0  0  0  0  0
   -2.9861   -3.7730   -0.3320 H   0  0  0  0  0  0  0  0  0  0  0  0
   -1.6069   -2.7019    0.9216 C   0  0  0  0  0  0  0  0  0  0  0  0
   -0.7332   -3.0601    1.6949 O   0  0  0  0  0  0  0  0  0  0  0  0
   -1.5475   -1.4665    0.3095 N   0  0  0  0  0  0  0  0  0  0  0  0
   -2.3554   -1.1813   -0.2362 H   0  0  0  0  0  0  0  0  0  0  0  0
   -0.3310   -0.6487    0.1851 C   0  0  1  0  0  0  0  0  0  0  0  0
    0.4550   -1.0253    0.8487 H   0  0  0  0  0  0  0  0  0  0  0  0
    0.1752   -0.6741   -1.2740 C   0  0  0  0  0  0  0  0  0  0  0  0
   -0.5782   -0.2267   -1.9297 H   0  0  0  0  0  0  0  0  0  0  0  0
    1.0747   -0.0548   -1.3348 H   0  0  0  0  0  0  0  0  0  0  0  0
    0.5290   -2.0366   -1.8007 C   0  0  0  0  0  0  0  0  0  0  0  0
    1.0049   -3.0968   -1.0446 N   0  0  0  0  0  0  0  0  0  0  0  0
    1.1487   -4.1134   -1.8577 C   0  0  0  0  0  0  0  0  0  0  0  0
    1.5074   -5.0963   -1.5657 H   0  0  0  0  0  0  0  0  0  0  0  0
    0.7754   -3.7451   -3.1362 N   0  0  0  0  0  0  0  0  0  0  0  0
    0.7932   -4.3546   -3.9518 H   0  0  0  0  0  0  0  0  0  0  0  0
    0.3759   -2.4251   -3.1032 C   0  0  0  0  0  0  0  0  0  0  0  0
    0.0098   -1.8134   -3.9225 H   0  0  0  0  0  0  0  0  0  0  0  0
   -0.6272    0.8200    0.5435 C   0  0  0  0  0  0  0  0  0  0  0  0
   -1.6091    1.3839    0.0705 O   0  0  0  0  0  0  0  0  0  0  0  0
    0.2357    1.5238    1.3630 N   0  0  0  0  0  0  0  0  0  0  0  0
    0.9924    1.0019    1.7975 H   0  0  0  0  0  0  0  0  0  0  0  0
    0.0008    2.9013    1.7770 C   0  0  0  0  0  0  0  0  0  0  0  0
   -0.9381    2.9787    2.3353 H   0  0  0  0  0  0  0  0  0  0  0  0
    0.8160    3.2465    2.4201 H   0  0  0  0  0  0  0  0  0  0  0  0
   -0.0521    3.5601    0.9040 H   0  0  0  0  0  0  0  0  0  0  0  0
  1  2  1  0  0  0  0
  2  3  1  0  0  0  0
  2  4  1  0  0  0  0
  2  5  1  0  0  0  0
  5  6  2  0  0  0  0
  5  7  1  0  0  0  0
  7  8  1  0  0  0  0
  7  9  1  0  0  0  0
  9 10  1  0  0  0  0
  9 11  1  0  0  0  0
  9 22  1  0  0  0  0
 11 12  1  0  0  0  0
 11 13  1  0  0  0  0
 11 14  1  0  0  0  0
 14 15  1  0  0  0  0
 14 20  2  0  0  0  0
 15 16  2  0  0  0  0
 16 17  1  0  0  0  0
 16 18  1  0  0  0  0
 18 19  1  0  0  0  0
 18 20  1  0  0  0  0
 20 21  1  0  0  0  0
 22 23  2  0  0  0  0
 22 24  1  0  0  0  0
 24 25  1  0  0  0  0
 24 26  1  0  0  0  0
 26 27  1  0  0  0  0
 26 28  1  0  0  0  0
 26 29  1  0  0  0  0
M  END
$$$$

  -OEChem-04042215593D

 29 29  0     1  0  0  0  0  0999 V2000
   -2.7118   -4.5158    1.2985 H   0  0  0  0  0  0  0  0  0  0  0  0
   -2.8262   -3.5891    0.7295 C   0  0  0  0  0  0  0  0  0  0  0  0
   -3.7493   -3.0942    1.0400 H   0  0  0  0  0  0  0  0  0  0  0  0
   -2.8894   -3.8347   -0.3331 H   0  0  0  0  0  0  0  0  0  0  0  0
   -1.6396   -2.6770    0.9769 C   0  0  0  0  0  0  0  0  0  0  0  0
   -0.8044   -2.9852    1.8134 O   0  0  0  0  0  0  0  0  0  0  0  0
   -1.5802   -1.4524    0.3429 N   0  0  0  0  0  0  0  0  0  0  0  0
   -2.3510   -1.2202   -0.2758 H   0  0  0  0  0  0  0  0  0  0  0  0
   -0.3529   -0.6525    0.2115 C   0  0  1  0  0  0  0  0  0  0  0  0
    0.4274   -1.0311    0.8805 H   0  0  0  0  0  0  0  0  0  0  0  0
    0.1615   -0.6947   -1.2460 C   0  0  0  0  0  0  0  0  0  0  0  0
   -0.5883   -0.2450   -1.9046 H   0  0  0  0  0  0  0  0  0  0  0  0
    1.0633   -0.0786   -1.3064 H   0  0  0  0  0  0  0  0  0  0  0  0
    0.5089   -2.0550   -1.7879 C   0  0  0  0  0  0  0  0  0  0  0  0
    0.6967   -3.2190   -1.0571 N   0  0  0  0  0  0  0  0  0  0  0  0
    0.9660   -4.1732   -1.9128 C   0  0  0  0  0  0  0  0  0  0  0  0
    1.1673   -5.2072   -1.6474 H   0  0  0  0  0  0  0  0  0  0  0  0
    0.9516   -3.6641   -3.1970 N   0  0  0  0  0  0  0  0  0  0  0  0
    1.1330   -4.2002   -4.0436 H   0  0  0  0  0  0  0  0  0  0  0  0
    0.6575   -2.3187   -3.1218 C   0  0  0  0  0  0  0  0  0  0  0  0
    0.5613   -1.6064   -3.9358 H   0  0  0  0  0  0  0  0  0  0  0  0
   -0.6298    0.8257    0.5476 C   0  0  0  0  0  0  0  0  0  0  0  0
   -1.5881    1.4056    0.0465 O   0  0  0  0  0  0  0  0  0  0  0  0
    0.2422    1.5263    1.3607 N   0  0  0  0  0  0  0  0  0  0  0  0
    0.9697    0.9913    1.8277 H   0  0  0  0  0  0  0  0  0  0  0  0
    0.0287    2.9135    1.7532 C   0  0  0  0  0  0  0  0  0  0  0  0
   -0.8956    3.0096    2.3323 H   0  0  0  0  0  0  0  0  0  0  0  0
    0.8622    3.2640    2.3693 H   0  0  0  0  0  0  0  0  0  0  0  0
   -0.0398    3.5558    0.8690 H   0  0  0  0  0  0  0  0  0  0  0  0
  1  2  1  0  0  0  0
  2  3  1  0  0  0  0
  2  4  1  0  0  0  0
  2  5  1  0  0  0  0
  5  6  2  0  0  0  0
  5  7  1  0  0  0  0
  7  8  1  0  0  0  0
  7  9  1  0  0  0  0
  9 10  1  0  0  0  0
  9 11  1  0  0  0  0
  9 22  1  0  0  0  0
 11 12  1  0  0  0  0
 11 13  1  0  0  0  0
 11 14  1  0  0  0  0
 14 15  1  0  0  0  0
 14 20  2  0  0  0  0
 15 16  2  0  0  0  0
 16 17  1  0  0  0  0
 16 18  1  0  0  0  0
 18 19  1  0  0  0  0
 18 20  1  0  0  0  0
 20 21  1  0  0  0  0
 22 23  2  0  0  0  0
 22 24  1  0  0  0  0
 24 25  1  0  0  0  0
 24 26  1  0  0  0  0
 26 27  1  0  0  0  0
 26 28  1  0  0  0  0
 26 29  1  0  0  0  0
M  END
$$$$

  -OEChem-04042215593D

 29 29  0     1  0  0  0  0  0999 V2000
   -2.7477   -4.4956    1.3537 H   0  0  0  0  0  0  0  0  0  0  0  0
   -2.8503   -3.5806    0.7638 C   0  0  0  0  0  0  0  0  0  0  0  0
   -3.7783   -3.0782    1.0468 H   0  0  0  0  0  0  0  0  0  0  0  0
   -2.8938   -3.8482   -0.2946 H   0  0  0  0  0  0  0  0  0  0  0  0
   -1.6668   -2.6647    1.0116 C   0  0  0  0  0  0  0  0  0  0  0  0
   -0.8348   -2.9625    1.8562 O   0  0  0  0  0  0  0  0  0  0  0  0
   -1.6034   -1.4467    0.3651 N   0  0  0  0  0  0  0  0  0  0  0  0
   -2.3584   -1.2371   -0.2804 H   0  0  0  0  0  0  0  0  0  0  0  0
   -0.3672   -0.6637    0.2205 C   0  0  1  0  0  0  0  0  0  0  0  0
    0.4112   -1.0443    0.8899 H   0  0  0  0  0  0  0  0  0  0  0  0
    0.1492   -0.7116   -1.2377 C   0  0  0  0  0  0  0  0  0  0  0  0
   -0.6063   -0.2639   -1.8908 H   0  0  0  0  0  0  0  0  0  0  0  0
    1.0482   -0.0916   -1.3044 H   0  0  0  0  0  0  0  0  0  0  0  0
    0.4889   -2.0670   -1.8005 C   0  0  0  0  0  0  0  0  0  0  0  0
    0.3962   -3.2985   -1.1671 N   0  0  0  0  0  0  0  0  0  0  0  0
    0.8087   -4.2044   -2.0187 C   0  0  0  0  0  0  0  0  0  0  0  0
    0.8604   -5.2704   -1.8161 H   0  0  0  0  0  0  0  0  0  0  0  0
    1.1631   -3.5983   -3.2079 N   0  0  0  0  0  0  0  0  0  0  0  0
    1.5202   -4.0811   -4.0303 H   0  0  0  0  0  0  0  0  0  0  0  0
    0.9617   -2.2408   -3.0727 C   0  0  0  0  0  0  0  0  0  0  0  0
    1.1402   -1.4608   -3.8071 H   0  0  0  0  0  0  0  0  0  0  0  0
   -0.6312    0.8197    0.5471 C   0  0  0  0  0  0  0  0  0  0  0  0
   -1.5834    1.4066    0.0426 O   0  0  0  0  0  0  0  0  0  0  0  0
    0.2499    1.5191    1.3513 N   0  0  0  0  0  0  0  0  0  0  0  0
    0.9716    0.9805    1.8230 H   0  0  0  0  0  0  0  0  0  0  0  0
    0.0459    2.9096    1.7375 C   0  0  0  0  0  0  0  0  0  0  0  0
   -0.8842    3.0169    2.3053 H   0  0  0  0  0  0  0  0  0  0  0  0
    0.8752    3.2534    2.3631 H   0  0  0  0  0  0  0  0  0  0  0  0
   -0.0058    3.5504    0.8510 H   0  0  0  0  0  0  0  0  0  0  0  0
  1  2  1  0  0  0  0
  2  3  1  0  0  0  0
  2  4  1  0  0  0  0
  2  5  1  0  0  0  0
  5  6  2  0  0  0  0
  5  7  1  0  0  0  0
  7  8  1  0  0  0  0
  7  9  1  0  0  0  0
  9 10  1  0  0  0  0
  9 11  1  0  0  0  0
  9 22  1  0  0  0  0
 11 12  1  0  0  0  0
 11 13  1  0  0  0  0
 11 14  1  0  0  0  0
 14 15  1  0  0  0  0
 14 20  2  0  0  0  0
 15 16  2  0  0  0  0
 16 17  1  0  0  0  0
 16 18  1  0  0  0  0
 18 19  1  0  0  0  0
 18 20  1  0  0  0  0
 20 21  1  0  0  0  0
 22 23  2  0  0  0  0
 22 24  1  0  0  0  0
 24 25  1  0  0  0  0
 24 26  1  0  0  0  0
 26 27  1  0  0  0  0
 26 28  1  0  0  0  0
 26 29  1  0  0  0  0
M  END
$$$$

  -OEChem-04042215593D

 29 29  0     1  0  0  0  0  0999 V2000
   -2.7587   -4.4868    1.3741 H   0  0  0  0  0  0  0  0  0  0  0  0
   -2.8607   -3.5788    0.7737 C   0  0  0  0  0  0  0  0  0  0  0  0
   -3.7889   -3.0733    1.0498 H   0  0  0  0  0  0  0  0  0  0  0  0
   -2.9028   -3.8581   -0.2819 H   0  0  0  0  0  0  0  0  0  0  0  0
   -1.6777   -2.6601    1.0123 C   0  0  0  0  0  0  0  0  0  0  0  0
   -0.8283   -2.9644    1.8378 O   0  0  0  0  0  0  0  0  0  0  0  0
   -1.6219   -1.4399    0.3688 N   0  0  0  0  0  0  0  0  0  0  0  0
   -2.3740   -1.2406   -0.2833 H   0  0  0  0  0  0  0  0  0  0  0  0
   -0.3830   -0.6641    0.2120 C   0  0  1  0  0  0  0  0  0  0  0  0
    0.3989   -1.0491    0.8746 H   0  0  0  0  0  0  0  0  0  0  0  0
    0.1295   -0.7066   -1.2487 C   0  0  0  0  0  0  0  0  0  0  0  0
   -0.6375   -0.2640   -1.8919 H   0  0  0  0  0  0  0  0  0  0  0  0
    1.0210   -0.0767   -1.3238 H   0  0  0  0  0  0  0  0  0  0  0  0
    0.4644   -2.0584   -1.8270 C   0  0  0  0  0  0  0  0  0  0  0  0
    0.1148   -3.3103   -1.3369 N   0  0  0  0  0  0  0  0  0  0  0  0
    0.6589   -4.2019   -2.1277 C   0  0  0  0  0  0  0  0  0  0  0  0
    0.5715   -5.2777   -2.0048 H   0  0  0  0  0  0  0  0  0  0  0  0
    1.3546   -3.5669   -3.1371 N   0  0  0  0  0  0  0  0  0  0  0  0
    1.8741   -4.0347   -3.8775 H   0  0  0  0  0  0  0  0  0  0  0  0
    1.2375   -2.2063   -2.9465 C   0  0  0  0  0  0  0  0  0  0  0  0
    1.6695   -1.4078   -3.5424 H   0  0  0  0  0  0  0  0  0  0  0  0
   -0.6354    0.8195    0.5483 C   0  0  0  0  0  0  0  0  0  0  0  0
   -1.5876    1.4161    0.0556 O   0  0  0  0  0  0  0  0  0  0  0  0
    0.2600    1.5098    1.3449 N   0  0  0  0  0  0  0  0  0  0  0  0
    0.9795    0.9634    1.8108 H   0  0  0  0  0  0  0  0  0  0  0  0
    0.0685    2.8995    1.7405 C   0  0  0  0  0  0  0  0  0  0  0  0
   -0.8482    3.0065    2.3298 H   0  0  0  0  0  0  0  0  0  0  0  0
    0.9130    3.2391    2.3476 H   0  0  0  0  0  0  0  0  0  0  0  0
   -0.0021    3.5439    0.8580 H   0  0  0  0  0  0  0  0  0  0  0  0
  1  2  1  0  0  0  0
  2  3  1  0  0  0  0
  2  4  1  0  0  0  0
  2  5  1  0  0  0  0
  5  6  2  0  0  0  0
  5  7  1  0  0  0  0
  7  8  1  0  0  0  0
  7  9  1  0  0  0  0
  9 10  1  0  0  0  0
  9 11  1  0  0  0  0
  9 22  1  0  0  0  0
 11 12  1  0  0  0  0
 11 13  1  0  0  0  0
 11 14  1  0  0  0  0
 14 15  1  0  0  0  0
 14 20  2  0  0  0  0
 15 16  2  0  0  0  0
 16 17  1  0  0  0  0
 16 18  1  0  0  0  0
 18 19  1  0  0  0  0
 18 20  1  0  0  0  0
 20 21  1  0  0  0  0
 22 23  2  0  0  0  0
 22 24  1  0  0  0  0
 24 25  1  0  0  0  0
 24 26  1  0  0  0  0
 26 27  1  0  0  0  0
 26 28  1  0  0  0  0
 26 29  1  0  0  0  0
M  END
$$$$

  -OEChem-04042215593D

 29 29  0     1  0  0  0  0  0999 V2000
   -2.7415   -4.4936    1.3514 H   0  0  0  0  0  0  0  0  0  0  0  0
   -2.8554   -3.5777    0.7653 C   0  0  0  0  0  0  0  0  0  0  0  0
   -3.7725   -3.0710    1.0741 H   0  0  0  0  0  0  0  0  0  0  0  0
   -2.9290   -3.8437   -0.2920 H   0  0  0  0  0  0  0  0  0  0  0  0
   -1.6609   -2.6679    0.9812 C   0  0  0  0  0  0  0  0  0  0  0  0
   -0.7826   -2.9941    1.7676 O   0  0  0  0  0  0  0  0  0  0  0  0
   -1.6167   -1.4390    0.3531 N   0  0  0  0  0  0  0  0  0  0  0  0
   -2.3755   -1.2360   -0.2904 H   0  0  0  0  0  0  0  0  0  0  0  0
   -0.3822   -0.6571    0.1935 C   0  0  1  0  0  0  0  0  0  0  0  0
    0.4053   -1.0449    0.8477 H   0  0  0  0  0  0  0  0  0  0  0  0
    0.1259   -0.6838   -1.2690 C   0  0  0  0  0  0  0  0  0  0  0  0
   -0.6494   -0.2457   -1.9049 H   0  0  0  0  0  0  0  0  0  0  0  0
    1.0097   -0.0434   -1.3454 H   0  0  0  0  0  0  0  0  0  0  0  0
    0.4629   -2.0335   -1.8529 C   0  0  0  0  0  0  0  0  0  0  0  0
   -0.1108   -3.2604   -1.5393 N   0  0  0  0  0  0  0  0  0  0  0  0
    0.5230   -4.1725   -2.2341 C   0  0  0  0  0  0  0  0  0  0  0  0
    0.3102   -5.2373   -2.2025 H   0  0  0  0  0  0  0  0  0  0  0  0
    1.4966   -3.5753   -3.0096 N   0  0  0  0  0  0  0  0  0  0  0  0
    2.1350   -4.0668   -3.6323 H   0  0  0  0  0  0  0  0  0  0  0  0
    1.4656   -2.2184   -2.7660 C   0  0  0  0  0  0  0  0  0  0  0  0
    2.1042   -1.4490   -3.1896 H   0  0  0  0  0  0  0  0  0  0  0  0
   -0.6378    0.8209    0.5518 C   0  0  0  0  0  0  0  0  0  0  0  0
   -1.5957    1.4198    0.0740 O   0  0  0  0  0  0  0  0  0  0  0  0
    0.2619    1.5060    1.3483 N   0  0  0  0  0  0  0  0  0  0  0  0
    0.9873    0.9579    1.8028 H   0  0  0  0  0  0  0  0  0  0  0  0
    0.0678    2.8909    1.7599 C   0  0  0  0  0  0  0  0  0  0  0  0
   -0.8457    2.9889    2.3557 H   0  0  0  0  0  0  0  0  0  0  0  0
    0.9149    3.2273    2.3654 H   0  0  0  0  0  0  0  0  0  0  0  0
   -0.0102    3.5442    0.8845 H   0  0  0  0  0  0  0  0  0  0  0  0
  1  2  1  0  0  0  0
  2  3  1  0  0  0  0
  2  4  1  0  0  0  0
  2  5  1  0  0  0  0
  5  6  2  0  0  0  0
  5  7  1  0  0  0  0
  7  8  1  0  0  0  0
  7  9  1  0  0  0  0
  9 10  1  0  0  0  0
  9 11  1  0  0  0  0
  9 22  1  0  0  0  0
 11 12  1  0  0  0  0
 11 13  1  0  0  0  0
 11 14  1  0  0  0  0
 14 15  1  0  0  0  0
 14 20  2  0  0  0  0
 15 16  2  0  0  0  0
 16 17  1  0  0  0  0
 16 18  1  0  0  0  0
 18 19  1  0  0  0  0
 18 20  1  0  0  0  0
 20 21  1  0  0  0  0
 22 23  2  0  0  0  0
 22 24  1  0  0  0  0
 24 25  1  0  0  0  0
 24 26  1  0  0  0  0
 26 27  1  0  0  0  0
 26 28  1  0  0  0  0
 26 29  1  0  0  0  0
M  END
$$$$

  -OEChem-04042215593D

 29 29  0     1  0  0  0  0  0999 V2000
   -2.6684   -4.5414    1.2501 H   0  0  0  0  0  0  0  0  0  0  0  0
   -2.8253   -3.5929    0.7295 C   0  0  0  0  0  0  0  0  0  0  0  0
   -3.7293   -3.1194    1.1190 H   0  0  0  0  0  0  0  0  0  0  0  0
   -2.9550   -3.7942   -0.3369 H   0  0  0  0  0  0  0  0  0  0  0  0
   -1.6312   -2.6807    0.9363 C   0  0  0  0  0  0  0  0  0  0  0  0
   -0.7251   -3.0248    1.6828 O   0  0  0  0  0  0  0  0  0  0  0  0
   -1.6078   -1.4404    0.3301 N   0  0  0  0  0  0  0  0  0  0  0  0
   -2.3758   -1.2352   -0.3021 H   0  0  0  0  0  0  0  0  0  0  0  0
   -0.3861   -0.6392    0.1748 C   0  0  1  0  0  0  0  0  0  0  0  0
    0.4076   -1.0253    0.8220 H   0  0  0  0  0  0  0  0  0  0  0  0
    0.1188   -0.6540   -1.2874 C   0  0  0  0  0  0  0  0  0  0  0  0
   -0.6607   -0.2265   -1.9257 H   0  0  0  0  0  0  0  0  0  0  0  0
    0.9958   -0.0044   -1.3647 H   0  0  0  0  0  0  0  0  0  0  0  0
    0.4681   -2.0074   -1.8540 C   0  0  0  0  0  0  0  0  0  0  0  0
   -0.2770   -3.1772   -1.7418 N   0  0  0  0  0  0  0  0  0  0  0  0
    0.4127   -4.1263   -2.3260 C   0  0  0  0  0  0  0  0  0  0  0  0
    0.1019   -5.1646   -2.4005 H   0  0  0  0  0  0  0  0  0  0  0  0
    1.5880   -3.6082   -2.8329 N   0  0  0  0  0  0  0  0  0  0  0  0
    2.3046   -4.1440   -3.3192 H   0  0  0  0  0  0  0  0  0  0  0  0
    1.6286   -2.2633   -2.5324 C   0  0  0  0  0  0  0  0  0  0  0  0
    2.4145   -1.5502   -2.7624 H   0  0  0  0  0  0  0  0  0  0  0  0
   -0.6488    0.8310    0.5579 C   0  0  0  0  0  0  0  0  0  0  0  0
   -1.6132    1.4321    0.0969 O   0  0  0  0  0  0  0  0  0  0  0  0
    0.2550    1.5079    1.3570 N   0  0  0  0  0  0  0  0  0  0  0  0
    0.9906    0.9580    1.7924 H   0  0  0  0  0  0  0  0  0  0  0  0
    0.0711    2.8915    1.7767 C   0  0  0  0  0  0  0  0  0  0  0  0
   -0.8576    2.9995    2.3469 H   0  0  0  0  0  0  0  0  0  0  0  0
    0.9055    3.2071    2.4105 H   0  0  0  0  0  0  0  0  0  0  0  0
    0.0299    3.5537    0.9056 H   0  0  0  0  0  0  0  0  0  0  0  0
  1  2  1  0  0  0  0
  2  3  1  0  0  0  0
  2  4  1  0  0  0  0
  2  5  1  0  0  0  0
  5  6  2  0  0  0  0
  5  7  1  0  0  0  0
  7  8  1  0  0  0  0
  7  9  1  0  0  0  0
  9 10  1  0  0  0  0
  9 11  1  0  0  0  0
  9 22  1  0  0  0  0
 11 12  1  0  0  0  0
 11 13  1  0  0  0  0
 11 14  1  0  0  0  0
 14 15  1  0  0  0  0
 14 20  2  0  0  0  0
 15 16  2  0  0  0  0
 16 17  1  0  0  0  0
 16 18  1  0  0  0  0
 18 19  1  0  0  0  0
 18 20  1  0  0  0  0
 20 21  1  0  0  0  0
 22 23  2  0  0  0  0
 22 24  1  0  0  0  0
 24 25  1  0  0  0  0
 24 26  1  0  0  0  0
 26 27  1  0  0  0  0
 26 28  1  0  0  0  0
 26 29  1  0  0  0  0
M  END
$$$$

  -OEChem-04042215593D

 29 29  0     1  0  0  0  0  0999 V2000
   -2.6137   -4.5590    1.1859 H   0  0  0  0  0  0  0  0  0  0  0  0
   -2.7825   -3.6019    0.6853 C   0  0  0  0  0  0  0  0  0  0  0  0
   -3.6795   -3.1376    1.1016 H   0  0  0  0  0  0  0  0  0  0  0  0
   -2.9340   -3.7848   -0.3815 H   0  0  0  0  0  0  0  0  0  0  0  0
   -1.5865   -2.6904    0.8836 C   0  0  0  0  0  0  0  0  0  0  0  0
   -0.6553   -3.0532    1.5890 O   0  0  0  0  0  0  0  0  0  0  0  0
   -1.5789   -1.4403    0.2987 N   0  0  0  0  0  0  0  0  0  0  0  0
   -2.3568   -1.2270   -0.3191 H   0  0  0  0  0  0  0  0  0  0  0  0
   -0.3703   -0.6180    0.1563 C   0  0  1  0  0  0  0  0  0  0  0  0
    0.4278   -1.0002    0.8006 H   0  0  0  0  0  0  0  0  0  0  0  0
    0.1295   -0.6271   -1.3053 C   0  0  0  0  0  0  0  0  0  0  0  0
   -0.6494   -0.2091   -1.9506 H   0  0  0  0  0  0  0  0  0  0  0  0
    1.0046    0.0244   -1.3844 H   0  0  0  0  0  0  0  0  0  0  0  0
    0.4862   -1.9901   -1.8377 C   0  0  0  0  0  0  0  0  0  0  0  0
   -0.3820   -3.0729   -1.9443 N   0  0  0  0  0  0  0  0  0  0  0  0
    0.3216   -4.0729   -2.4172 C   0  0  0  0  0  0  0  0  0  0  0  0
   -0.0667   -5.0693   -2.6073 H   0  0  0  0  0  0  0  0  0  0  0  0
    1.6238   -3.6700   -2.6406 N   0  0  0  0  0  0  0  0  0  0  0  0
    2.3708   -4.2661   -2.9919 H   0  0  0  0  0  0  0  0  0  0  0  0
    1.7327   -2.3453   -2.2744 C   0  0  0  0  0  0  0  0  0  0  0  0
    2.6141   -1.7122   -2.3044 H   0  0  0  0  0  0  0  0  0  0  0  0
   -0.6496    0.8433    0.5609 C   0  0  0  0  0  0  0  0  0  0  0  0
   -1.6245    1.4371    0.1132 O   0  0  0  0  0  0  0  0  0  0  0  0
    0.2460    1.5202    1.3690 N   0  0  0  0  0  0  0  0  0  0  0  0
    0.9928    0.9755    1.7913 H   0  0  0  0  0  0  0  0  0  0  0  0
    0.0471    2.8965    1.8060 C   0  0  0  0  0  0  0  0  0  0  0  0
   -0.8806    2.9867    2.3809 H   0  0  0  0  0  0  0  0  0  0  0  0
    0.8801    3.2147    2.4401 H   0  0  0  0  0  0  0  0  0  0  0  0
   -0.0054    3.5688    0.9432 H   0  0  0  0  0  0  0  0  0  0  0  0
  1  2  1  0  0  0  0
  2  3  1  0  0  0  0
  2  4  1  0  0  0  0
  2  5  1  0  0  0  0
  5  6  2  0  0  0  0
  5  7  1  0  0  0  0
  7  8  1  0  0  0  0
  7  9  1  0  0  0  0
  9 10  1  0  0  0  0
  9 11  1  0  0  0  0
  9 22  1  0  0  0  0
 11 12  1  0  0  0  0
 11 13  1  0  0  0  0
 11 14  1  0  0  0  0
 14 15  1  0  0  0  0
 14 20  2  0  0  0  0
 15 16  2  0  0  0  0
 16 17  1  0  0  0  0
 16 18  1  0  0  0  0
 18 19  1  0  0  0  0
 18 20  1  0  0  0  0
 20 21  1  0  0  0  0
 22 23  2  0  0  0  0
 22 24  1  0  0  0  0
 24 25  1  0  0  0  0
 24 26  1  0  0  0  0
 26 27  1  0  0  0  0
 26 28  1  0  0  0  0
 26 29  1  0  0  0  0
M  END
$$$$

  -OEChem-04042215593D

 29 29  0     1  0  0  0  0  0999 V2000
   -2.5755   -4.5641    1.1434 H   0  0  0  0  0  0  0  0  0  0  0  0
   -2.7436   -3.6074    0.6418 C   0  0  0  0  0  0  0  0  0  0  0  0
   -3.6362   -3.1387    1.0626 H   0  0  0  0  0  0  0  0  0  0  0  0
   -2.9029   -3.7913   -0.4237 H   0  0  0  0  0  0  0  0  0  0  0  0
   -1.5431   -2.6998    0.8302 C   0  0  0  0  0  0  0  0  0  0  0  0
   -0.5890   -3.0817    1.4931 O   0  0  0  0  0  0  0  0  0  0  0  0
   -1.5468   -1.4407    0.2660 N   0  0  0  0  0  0  0  0  0  0  0  0
   -2.3389   -1.2130   -0.3288 H   0  0  0  0  0  0  0  0  0  0  0  0
   -0.3504   -0.5983    0.1363 C   0  0  1  0  0  0  0  0  0  0  0  0
    0.4525   -0.9778    0.7762 H   0  0  0  0  0  0  0  0  0  0  0  0
    0.1391   -0.6043   -1.3253 C   0  0  0  0  0  0  0  0  0  0  0  0
   -0.6389   -0.1951   -1.9774 H   0  0  0  0  0  0  0  0  0  0  0  0
    1.0155    0.0449   -1.4106 H   0  0  0  0  0  0  0  0  0  0  0  0
    0.4980   -1.9793   -1.8155 C   0  0  0  0  0  0  0  0  0  0  0  0
   -0.4264   -2.9621   -2.1577 N   0  0  0  0  0  0  0  0  0  0  0  0
    0.2696   -4.0155   -2.5123 C   0  0  0  0  0  0  0  0  0  0  0  0
   -0.1578   -4.9631   -2.8274 H   0  0  0  0  0  0  0  0  0  0  0  0
    1.6217   -3.7412   -2.4300 N   0  0  0  0  0  0  0  0  0  0  0  0
    2.3684   -4.4024   -2.6349 H   0  0  0  0  0  0  0  0  0  0  0  0
    1.7717   -2.4430   -1.9914 C   0  0  0  0  0  0  0  0  0  0  0  0
    2.6924   -1.8997   -1.8031 H   0  0  0  0  0  0  0  0  0  0  0  0
   -0.6435    0.8543    0.5598 C   0  0  0  0  0  0  0  0  0  0  0  0
   -1.6327    1.4372    0.1303 O   0  0  0  0  0  0  0  0  0  0  0  0
    0.2434    1.5335    1.3758 N   0  0  0  0  0  0  0  0  0  0  0  0
    1.0053    0.9983    1.7830 H   0  0  0  0  0  0  0  0  0  0  0  0
    0.0215    2.9000    1.8325 C   0  0  0  0  0  0  0  0  0  0  0  0
   -0.8961    2.9617    2.4268 H   0  0  0  0  0  0  0  0  0  0  0  0
    0.8592    3.2320    2.4532 H   0  0  0  0  0  0  0  0  0  0  0  0
   -0.0649    3.5799    0.9785 H   0  0  0  0  0  0  0  0  0  0  0  0
  1  2  1  0  0  0  0
  2  3  1  0  0  0  0
  2  4  1  0  0  0  0
  2  5  1  0  0  0  0
  5  6  2  0  0  0  0
  5  7  1  0  0  0  0
  7  8  1  0  0  0  0
  7  9  1  0  0  0  0
  9 10  1  0  0  0  0
  9 11  1  0  0  0  0
  9 22  1  0  0  0  0
 11 12  1  0  0  0  0
 11 13  1  0  0  0  0
 11 14  1  0  0  0  0
 14 15  1  0  0  0  0
 14 20  2  0  0  0  0
 15 16  2  0  0  0  0
 16 17  1  0  0  0  0
 16 18  1  0  0  0  0
 18 19  1  0  0  0  0
 18 20  1  0  0  0  0
 20 21  1  0  0  0  0
 22 23  2  0  0  0  0
 22 24  1  0  0  0  0
 24 25  1  0  0  0  0
 24 26  1  0  0  0  0
 26 27  1  0  0  0  0
 26 28  1  0  0  0  0
 26 29  1  0  0  0  0
M  END
$$$$

  -OEChem-04042215593D

 29 29  0     1  0  0  0  0  0999 V2000
   -2.5491   -4.5716    1.0985 H   0  0  0  0  0  0  0  0  0  0  0  0
   -2.7281   -3.6020    0.6260 C   0  0  0  0  0  0  0  0  0  0  0  0
   -3.6017   -3.1379    1.0895 H   0  0  0  0  0  0  0  0  0  0  0  0
   -2.9269   -3.7595   -0.4371 H   0  0  0  0  0  0  0  0  0  0  0  0
   -1.5154   -2.7065    0.7922 C   0  0  0  0  0  0  0  0  0  0  0  0
   -0.5421   -3.1072    1.4144 O   0  0  0  0  0  0  0  0  0  0  0  0
   -1.5220   -1.4423    0.2403 N   0  0  0  0  0  0  0  0  0  0  0  0
   -2.3372   -1.1850   -0.3102 H   0  0  0  0  0  0  0  0  0  0  0  0
   -0.3342   -0.5859    0.1218 C   0  0  1  0  0  0  0  0  0  0  0  0
    0.4703   -0.9604    0.7629 H   0  0  0  0  0  0  0  0  0  0  0  0
    0.1495   -0.5973   -1.3395 C   0  0  0  0  0  0  0  0  0  0  0  0
   -0.6272   -0.1966   -1.9985 H   0  0  0  0  0  0  0  0  0  0  0  0
    1.0276    0.0480   -1.4325 H   0  0  0  0  0  0  0  0  0  0  0  0
    0.5108   -1.9817   -1.7949 C   0  0  0  0  0  0  0  0  0  0  0  0
   -0.3880   -2.8625   -2.3881 N   0  0  0  0  0  0  0  0  0  0  0  0
    0.2857   -3.9601   -2.6370 C   0  0  0  0  0  0  0  0  0  0  0  0
   -0.1318   -4.8533   -3.0927 H   0  0  0  0  0  0  0  0  0  0  0  0
    1.6010   -3.8123   -2.2390 N   0  0  0  0  0  0  0  0  0  0  0  0
    2.3188   -4.5315   -2.3050 H   0  0  0  0  0  0  0  0  0  0  0  0
    1.7506   -2.5494   -1.7069 C   0  0  0  0  0  0  0  0  0  0  0  0
    2.6443   -2.0979   -1.2877 H   0  0  0  0  0  0  0  0  0  0  0  0
   -0.6413    0.8609    0.5552 C   0  0  0  0  0  0  0  0  0  0  0  0
   -1.6428    1.4317    0.1386 O   0  0  0  0  0  0  0  0  0  0  0  0
    0.2366    1.5423    1.3790 N   0  0  0  0  0  0  0  0  0  0  0  0
    1.0104    1.0154    1.7737 H   0  0  0  0  0  0  0  0  0  0  0  0
    0.0015    2.9029    1.8470 C   0  0  0  0  0  0  0  0  0  0  0  0
   -0.9242    2.9539    2.4298 H   0  0  0  0  0  0  0  0  0  0  0  0
    0.8295    3.2317    2.4825 H   0  0  0  0  0  0  0  0  0  0  0  0
   -0.0768    3.5920    0.9995 H   0  0  0  0  0  0  0  0  0  0  0  0
  1  2  1  0  0  0  0
  2  3  1  0  0  0  0
  2  4  1  0  0  0  0
  2  5  1  0  0  0  0
  5  6  2  0  0  0  0
  5  7  1  0  0  0  0
  7  8  1  0  0  0  0
  7  9  1  0  0  0  0
  9 10  1  0  0  0  0
  9 11  1  0  0  0  0
  9 22  1  0  0  0  0
 11 12  1  0  0  0  0
 11 13  1  0  0  0  0
 11 14  1  0  0  0  0
 14 15  1  0  0  0  0
 14 20  2  0  0  0  0
 15 16  2  0  0  0  0
 16 17  1  0  0  0  0
 16 18  1  0  0  0  0
 18 19  1  0  0  0  0
 18 20  1  0  0  0  0
 20 21  1  0  0  0  0
 22 23  2  0  0  0  0
 22 24  1  0  0  0  0
 24 25  1  0  0  0  0
 24 26  1  0  0  0  0
 26 27  1  0  0  0  0
 26 28  1  0  0  0  0
 26 29  1  0  0  0  0
M  END
$$$$

  -OEChem-04042215593D

 29 29  0     1  0  0  0  0  0999 V2000
   -2.5656   -4.5552    1.1167 H   0  0  0  0  0  0  0  0  0  0  0  0
   -2.7387   -3.5846    0.6440 C   0  0  0  0  0  0  0  0  0  0  0  0
   -3.5872   -3.0995    1.1323 H   0  0  0  0  0  0  0  0  0  0  0  0
   -2.9748   -3.7434   -0.4113 H   0  0  0  0  0  0  0  0  0  0  0  0
   -1.5031   -2.7143    0.7682 C   0  0  0  0  0  0  0  0  0  0  0  0
   -0.5153   -3.1360    1.3521 O   0  0  0  0  0  0  0  0  0  0  0  0
   -1.5042   -1.4486    0.2203 N   0  0  0  0  0  0  0  0  0  0  0  0
   -2.3409   -1.1584   -0.2803 H   0  0  0  0  0  0  0  0  0  0  0  0
   -0.3197   -0.5865    0.1103 C   0  0  1  0  0  0  0  0  0  0  0  0
    0.4813   -0.9580    0.7572 H   0  0  0  0  0  0  0  0  0  0  0  0
    0.1685   -0.5961   -1.3481 C   0  0  0  0  0  0  0  0  0  0  0  0
   -0.6094   -0.2001   -2.0085 H   0  0  0  0  0  0  0  0  0  0  0  0
    1.0447    0.0513   -1.4429 H   0  0  0  0  0  0  0  0  0  0  0  0
    0.5354   -1.9801   -1.7969 C   0  0  0  0  0  0  0  0  0  0  0  0
   -0.2518   -2.7481   -2.6469 N   0  0  0  0  0  0  0  0  0  0  0  0
    0.3753   -3.8909   -2.7933 C   0  0  0  0  0  0  0  0  0  0  0  0
    0.0173   -4.7210   -3.3955 H   0  0  0  0  0  0  0  0  0  0  0  0
    1.5542   -3.8830   -2.0717 N   0  0  0  0  0  0  0  0  0  0  0  0
    2.2026   -4.6642   -1.9954 H   0  0  0  0  0  0  0  0  0  0  0  0
    1.6620   -2.6644   -1.4370 C   0  0  0  0  0  0  0  0  0  0  0  0
    2.4471   -2.3199   -0.7713 H   0  0  0  0  0  0  0  0  0  0  0  0
   -0.6352    0.8578    0.5443 C   0  0  0  0  0  0  0  0  0  0  0  0
   -1.6490    1.4156    0.1401 O   0  0  0  0  0  0  0  0  0  0  0  0
    0.2339    1.5433    1.3739 N   0  0  0  0  0  0  0  0  0  0  0  0
    1.0251    1.0294    1.7509 H   0  0  0  0  0  0  0  0  0  0  0  0
   -0.0192    2.8966    1.8529 C   0  0  0  0  0  0  0  0  0  0  0  0
   -0.9365    2.9262    2.4502 H   0  0  0  0  0  0  0  0  0  0  0  0
    0.8120    3.2383    2.4771 H   0  0  0  0  0  0  0  0  0  0  0  0
   -0.1243    3.5882    1.0104 H   0  0  0  0  0  0  0  0  0  0  0  0
  1  2  1  0  0  0  0
  2  3  1  0  0  0  0
  2  4  1  0  0  0  0
  2  5  1  0  0  0  0
  5  6  2  0  0  0  0
  5  7  1  0  0  0  0
  7  8  1  0  0  0  0
  7  9  1  0  0  0  0
  9 10  1  0  0  0  0
  9 11  1  0  0  0  0
  9 22  1  0  0  0  0
 11 12  1  0  0  0  0
 11 13  1  0  0  0  0
 11 14  1  0  0  0  0
 14 15  1  0  0  0  0
 14 20  2  0  0  0  0
 15 16  2  0  0  0  0
 16 17  1  0  0  0  0
 16 18  1  0  0  0  0
 18 19  1  0  0  0  0
 18 20  1  0  0  0  0
 20 21  1  0  0  0  0
 22 23  2  0  0  0  0
 22 24  1  0  0  0  0
 24 25  1  0  0  0  0
 24 26  1  0  0  0  0
 26 27  1  0  0  0  0
 26 28  1  0  0  0  0
 26 29  1  0  0  0  0
M  END
$$$$

  -OEChem-04042215593D

 29 29  0     1  0  0  0  0  0999 V2000
   -2.6071   -4.5269    1.1755 H   0  0  0  0  0  0  0  0  0  0  0  0
   -2.7699   -3.5566    0.6984 C   0  0  0  0  0  0  0  0  0  0  0  0
   -3.5925   -3.0471    1.2059 H   0  0  0  0  0  0  0  0  0  0  0  0
   -3.0404   -3.7195   -0.3478 H   0  0  0  0  0  0  0  0  0  0  0  0
   -1.5102   -2.7159    0.7792 C   0  0  0  0  0  0  0  0  0  0  0  0
   -0.5218   -3.1516    1.3513 O   0  0  0  0  0  0  0  0  0  0  0  0
   -1.4932   -1.4560    0.2186 N   0  0  0  0  0  0  0  0  0  0  0  0
   -2.3430   -1.1332   -0.2388 H   0  0  0  0  0  0  0  0  0  0  0  0
   -0.3046   -0.5982    0.1166 C   0  0  1  0  0  0  0  0  0  0  0  0
    0.4859   -0.9625    0.7803 H   0  0  0  0  0  0  0  0  0  0  0  0
    0.2066   -0.6110   -1.3348 C   0  0  0  0  0  0  0  0  0  0  0  0
   -0.5696   -0.2166   -1.9986 H   0  0  0  0  0  0  0  0  0  0  0  0
    1.0794    0.0416   -1.4248 H   0  0  0  0  0  0  0  0  0  0  0  0
    0.5850   -1.9873   -1.8009 C   0  0  0  0  0  0  0  0  0  0  0  0
   -0.0129   -2.6172   -2.8854 N   0  0  0  0  0  0  0  0  0  0  0  0
    0.5381   -3.8042   -2.9728 C   0  0  0  0  0  0  0  0  0  0  0  0
    0.2854   -4.5511   -3.7198 H   0  0  0  0  0  0  0  0  0  0  0  0
    1.4814   -3.9645   -1.9760 N   0  0  0  0  0  0  0  0  0  0  0  0
    2.0192   -4.8120   -1.8045 H   0  0  0  0  0  0  0  0  0  0  0  0
    1.5121   -2.8099   -1.2244 C   0  0  0  0  0  0  0  0  0  0  0  0
    2.1078   -2.6000   -0.3413 H   0  0  0  0  0  0  0  0  0  0  0  0
   -0.6321    0.8493    0.5324 C   0  0  0  0  0  0  0  0  0  0  0  0
   -1.6554    1.3892    0.1278 O   0  0  0  0  0  0  0  0  0  0  0  0
    0.2209    1.5461    1.3691 N   0  0  0  0  0  0  0  0  0  0  0  0
    1.0203    1.0455    1.7465 H   0  0  0  0  0  0  0  0  0  0  0  0
   -0.0497    2.8981    1.8423 C   0  0  0  0  0  0  0  0  0  0  0  0
   -0.9745    2.9216    2.4282 H   0  0  0  0  0  0  0  0  0  0  0  0
    0.7708    3.2473    2.4764 H   0  0  0  0  0  0  0  0  0  0  0  0
   -0.1496    3.5872    0.9973 H   0  0  0  0  0  0  0  0  0  0  0  0
  1  2  1  0  0  0  0
  2  3  1  0  0  0  0
  2  4  1  0  0  0  0
  2  5  1  0  0  0  0
  5  6  2  0  0  0  0
  5  7  1  0  0  0  0
  7  8  1  0  0  0  0
  7  9  1  0  0  0  0
  9 10  1  0  0  0  0
  9 11  1  0  0  0  0
  9 22  1  0  0  0  0
 11 12  1  0  0  0  0
 11 13  1  0  0  0  0
 11 14  1  0  0  0  0
 14 15  1  0  0  0  0
 14 20  2  0  0  0  0
 15 16  2  0  0  0  0
 16 17  1  0  0  0  0
 16 18  1  0  0  0  0
 18 19  1  0  0  0  0
 18 20  1  0  0  0  0
 20 21  1  0  0  0  0
 22 23  2  0  0  0  0
 22 24  1  0  0  0  0
 24 25  1  0  0  0  0
 24 26  1  0  0  0  0
 26 27  1  0  0  0  0
 26 28  1  0  0  0  0
 26 29  1  0  0  0  0
M  END
$$$$

  -OEChem-04042215593D

 29 29  0     1  0  0  0  0  0999 V2000
   -2.6754   -4.5049    1.2362 H   0  0  0  0  0  0  0  0  0  0  0  0
   -2.8214   -3.5329    0.7571 C   0  0  0  0  0  0  0  0  0  0  0  0
   -3.6301   -3.0051    1.2683 H   0  0  0  0  0  0  0  0  0  0  0  0
   -3.1018   -3.6938   -0.2868 H   0  0  0  0  0  0  0  0  0  0  0  0
   -1.5444   -2.7176    0.8275 C   0  0  0  0  0  0  0  0  0  0  0  0
   -0.5698   -3.1605    1.4170 O   0  0  0  0  0  0  0  0  0  0  0  0
   -1.4992   -1.4677    0.2463 N   0  0  0  0  0  0  0  0  0  0  0  0
   -2.3506   -1.1212   -0.1911 H   0  0  0  0  0  0  0  0  0  0  0  0
   -0.3018   -0.6204    0.1500 C   0  0  1  0  0  0  0  0  0  0  0  0
    0.4743   -0.9774    0.8343 H   0  0  0  0  0  0  0  0  0  0  0  0
    0.2391   -0.6407   -1.2927 C   0  0  0  0  0  0  0  0  0  0  0  0
   -0.5305   -0.2446   -1.9632 H   0  0  0  0  0  0  0  0  0  0  0  0
    1.1102    0.0156   -1.3709 H   0  0  0  0  0  0  0  0  0  0  0  0
    0.6307   -2.0066   -1.7837 C   0  0  0  0  0  0  0  0  0  0  0  0
    0.2815   -2.4803   -3.0425 N   0  0  0  0  0  0  0  0  0  0  0  0
    0.7506   -3.7023   -3.1249 C   0  0  0  0  0  0  0  0  0  0  0  0
    0.6421   -4.3514   -3.9893 H   0  0  0  0  0  0  0  0  0  0  0  0
    1.3966   -4.0410   -1.9519 N   0  0  0  0  0  0  0  0  0  0  0  0
    1.8176   -4.9457   -1.7495 H   0  0  0  0  0  0  0  0  0  0  0  0
    1.3190   -2.9659   -1.0940 C   0  0  0  0  0  0  0  0  0  0  0  0
    1.6859   -2.8964   -0.0737 H   0  0  0  0  0  0  0  0  0  0  0  0
   -0.6359    0.8341    0.5362 C   0  0  0  0  0  0  0  0  0  0  0  0
   -1.6591    1.3622    0.1153 O   0  0  0  0  0  0  0  0  0  0  0  0
    0.2009    1.5448    1.3773 N   0  0  0  0  0  0  0  0  0  0  0  0
    1.0076    1.0594    1.7592 H   0  0  0  0  0  0  0  0  0  0  0  0
   -0.0668    2.9122    1.8055 C   0  0  0  0  0  0  0  0  0  0  0  0
   -1.0099    2.9632    2.3596 H   0  0  0  0  0  0  0  0  0  0  0  0
    0.7373    3.2680    2.4569 H   0  0  0  0  0  0  0  0  0  0  0  0
   -0.1298    3.5797    0.9395 H   0  0  0  0  0  0  0  0  0  0  0  0
  1  2  1  0  0  0  0
  2  3  1  0  0  0  0
  2  4  1  0  0  0  0
  2  5  1  0  0  0  0
  5  6  2  0  0  0  0
  5  7  1  0  0  0  0
  7  8  1  0  0  0  0
  7  9  1  0  0  0  0
  9 10  1  0  0  0  0
  9 11  1  0  0  0  0
  9 22  1  0  0  0  0
 11 12  1  0  0  0  0
 11 13  1  0  0  0  0
 11 14  1  0  0  0  0
 14 15  1  0  0  0  0
 14 20  2  0  0  0  0
 15 16  2  0  0  0  0
 16 17  1  0  0  0  0
 16 18  1  0  0  0  0
 18 19  1  0  0  0  0
 18 20  1  0  0  0  0
 20 21  1  0  0  0  0
 22 23  2  0  0  0  0
 22 24  1  0  0  0  0
 24 25  1  0  0  0  0
 24 26  1  0  0  0  0
 26 27  1  0  0  0  0
 26 28  1  0  0  0  0
 26 29  1  0  0  0  0
M  END
$$$$

  -OEChem-04042215593D

 29 29  0     1  0  0  0  0  0999 V2000
   -2.8072   -4.4457    1.3421 H   0  0  0  0  0  0  0  0  0  0  0  0
   -2.9136   -3.4882    0.8250 C   0  0  0  0  0  0  0  0  0  0  0  0
   -3.7159   -2.9184    1.3001 H   0  0  0  0  0  0  0  0  0  0  0  0
   -3.1784   -3.6788   -0.2179 H   0  0  0  0  0  0  0  0  0  0  0  0
   -1.6136   -2.7096    0.8927 C   0  0  0  0  0  0  0  0  0  0  0  0
   -0.6656   -3.1598    1.5178 O   0  0  0  0  0  0  0  0  0  0  0  0
   -1.5261   -1.4750    0.2852 N   0  0  0  0  0  0  0  0  0  0  0  0
   -2.3687   -1.1125   -0.1567 H   0  0  0  0  0  0  0  0  0  0  0  0
   -0.3139   -0.6479    0.1833 C   0  0  1  0  0  0  0  0  0  0  0  0
    0.4499   -1.0031    0.8821 H   0  0  0  0  0  0  0  0  0  0  0  0
    0.2464   -0.6883   -1.2540 C   0  0  0  0  0  0  0  0  0  0  0  0
   -0.5154   -0.2890   -1.9313 H   0  0  0  0  0  0  0  0  0  0  0  0
    1.1199   -0.0340   -1.3255 H   0  0  0  0  0  0  0  0  0  0  0  0
    0.6401   -2.0475   -1.7650 C   0  0  0  0  0  0  0  0  0  0  0  0
    0.5698   -2.3747   -3.1139 N   0  0  0  0  0  0  0  0  0  0  0  0
    0.9930   -3.6111   -3.2246 C   0  0  0  0  0  0  0  0  0  0  0  0
    1.0575   -4.1638   -4.1575 H   0  0  0  0  0  0  0  0  0  0  0  0
    1.3447   -4.1016   -1.9826 N   0  0  0  0  0  0  0  0  0  0  0  0
    1.6966   -5.0385   -1.7953 H   0  0  0  0  0  0  0  0  0  0  0  0
    1.1279   -3.1082   -1.0526 C   0  0  0  0  0  0  0  0  0  0  0  0
    1.2981   -3.1497    0.0198 H   0  0  0  0  0  0  0  0  0  0  0  0
   -0.6373    0.8191    0.5318 C   0  0  0  0  0  0  0  0  0  0  0  0
   -1.6551    1.3446    0.0944 O   0  0  0  0  0  0  0  0  0  0  0  0
    0.1968    1.5395    1.3674 N   0  0  0  0  0  0  0  0  0  0  0  0
    0.9983    1.0564    1.7629 H   0  0  0  0  0  0  0  0  0  0  0  0
   -0.0699    2.9128    1.7774 C   0  0  0  0  0  0  0  0  0  0  0  0
   -1.0128    2.9720    2.3311 H   0  0  0  0  0  0  0  0  0  0  0  0
    0.7345    3.2768    2.4240 H   0  0  0  0  0  0  0  0  0  0  0  0
   -0.1324    3.5685    0.9027 H   0  0  0  0  0  0  0  0  0  0  0  0
  1  2  1  0  0  0  0
  2  3  1  0  0  0  0
  2  4  1  0  0  0  0
  2  5  1  0  0  0  0
  5  6  2  0  0  0  0
  5  7  1  0  0  0  0
  7  8  1  0  0  0  0
  7  9  1  0  0  0  0
  9 10  1  0  0  0  0
  9 11  1  0  0  0  0
  9 22  1  0  0  0  0
 11 12  1  0  0  0  0
 11 13  1  0  0  0  0
 11 14  1  0  0  0  0
 14 15  1  0  0  0  0
 14 20  2  0  0  0  0
 15 16  2  0  0  0  0
 16 17  1  0  0  0  0
 16 18  1  0  0  0  0
 18 19  1  0  0  0  0
 18 20  1  0  0  0  0
 20 21  1  0  0  0  0
 22 23  2  0  0  0  0
 22 24  1  0  0  0  0
 24 25  1  0  0  0  0
 24 26  1  0  0  0  0
 26 27  1  0  0  0  0
 26 28  1  0  0  0  0
 26 29  1  0  0  0  0
M  END
$$$$

  -OEChem-04042215593D

 29 29  0     1  0  0  0  0  0999 V2000
   -2.9461   -4.3855    1.4365 H   0  0  0  0  0  0  0  0  0  0  0  0
   -3.0124   -3.4434    0.8851 C   0  0  0  0  0  0  0  0  0  0  0  0
   -3.8083   -2.8349    1.3213 H   0  0  0  0  0  0  0  0  0  0  0  0
   -3.2593   -3.6620   -0.1567 H   0  0  0  0  0  0  0  0  0  0  0  0
   -1.6923   -2.6998    0.9588 C   0  0  0  0  0  0  0  0  0  0  0  0
   -0.7756   -3.1519    1.6267 O   0  0  0  0  0  0  0  0  0  0  0  0
   -1.5601   -1.4818    0.3273 N   0  0  0  0  0  0  0  0  0  0  0  0
   -2.3903   -1.1051   -0.1265 H   0  0  0  0  0  0  0  0  0  0  0  0
   -0.3301   -0.6803    0.2177 C   0  0  1  0  0  0  0  0  0  0  0  0
    0.4237   -1.0392    0.9257 H   0  0  0  0  0  0  0  0  0  0  0  0
    0.2398   -0.7366   -1.2177 C   0  0  0  0  0  0  0  0  0  0  0  0
   -0.5103   -0.3208   -1.8982 H   0  0  0  0  0  0  0  0  0  0  0  0
    1.1224   -0.0932   -1.2778 H   0  0  0  0  0  0  0  0  0  0  0  0
    0.6264   -2.0872   -1.7581 C   0  0  0  0  0  0  0  0  0  0  0  0
    0.8466   -2.2744   -3.1177 N   0  0  0  0  0  0  0  0  0  0  0  0
    1.2327   -3.5176   -3.2742 C   0  0  0  0  0  0  0  0  0  0  0  0
    1.4781   -3.9771   -4.2274 H   0  0  0  0  0  0  0  0  0  0  0  0
    1.2899   -4.1484   -2.0478 N   0  0  0  0  0  0  0  0  0  0  0  0
    1.5840   -5.1108   -1.8922 H   0  0  0  0  0  0  0  0  0  0  0  0
    0.9266   -3.2371   -1.0802 C   0  0  0  0  0  0  0  0  0  0  0  0
    0.9144   -3.3855   -0.0057 H   0  0  0  0  0  0  0  0  0  0  0  0
   -0.6375    0.7981    0.5319 C   0  0  0  0  0  0  0  0  0  0  0  0
   -1.6488    1.3238    0.0795 O   0  0  0  0  0  0  0  0  0  0  0  0
    0.1968    1.5265    1.3600 N   0  0  0  0  0  0  0  0  0  0  0  0
    0.9926    1.0448    1.7690 H   0  0  0  0  0  0  0  0  0  0  0  0
   -0.0624    2.9093    1.7416 C   0  0  0  0  0  0  0  0  0  0  0  0
   -1.0023    2.9836    2.2988 H   0  0  0  0  0  0  0  0  0  0  0  0
    0.7467    3.2844    2.3757 H   0  0  0  0  0  0  0  0  0  0  0  0
   -0.1277    3.5463    0.8533 H   0  0  0  0  0  0  0  0  0  0  0  0
  1  2  1  0  0  0  0
  2  3  1  0  0  0  0
  2  4  1  0  0  0  0
  2  5  1  0  0  0  0
  5  6  2  0  0  0  0
  5  7  1  0  0  0  0
  7  8  1  0  0  0  0
  7  9  1  0  0  0  0
  9 10  1  0  0  0  0
  9 11  1  0  0  0  0
  9 22  1  0  0  0  0
 11 12  1  0  0  0  0
 11 13  1  0  0  0  0
 11 14  1  0  0  0  0
 14 15  1  0  0  0  0
 14 20  2  0  0  0  0
 15 16  2  0  0  0  0
 16 17  1  0  0  0  0
 16 18  1  0  0  0  0
 18 19  1  0  0  0  0
 18 20  1  0  0  0  0
 20 21  1  0  0  0  0
 22 23  2  0  0  0  0
 22 24  1  0  0  0  0
 24 25  1  0  0  0  0
 24 26  1  0  0  0  0
 26 27  1  0  0  0  0
 26 28  1  0  0  0  0
 26 29  1  0  0  0  0
M  END
$$$$

  -OEChem-04042215593D

 29 29  0     1  0  0  0  0  0999 V2000
   -3.1740   -4.2525    1.7156 H   0  0  0  0  0  0  0  0  0  0  0  0
   -3.2172   -3.3163    1.1517 C   0  0  0  0  0  0  0  0  0  0  0  0
   -3.9107   -2.6360    1.6522 H   0  0  0  0  0  0  0  0  0  0  0  0
   -3.5873   -3.5280    0.1457 H   0  0  0  0  0  0  0  0  0  0  0  0
   -1.8389   -2.6873    1.0749 C   0  0  0  0  0  0  0  0  0  0  0  0
   -0.8955   -3.2183    1.6391 O   0  0  0  0  0  0  0  0  0  0  0  0
   -1.6676   -1.4966    0.4024 N   0  0  0  0  0  0  0  0  0  0  0  0
   -2.5069   -1.0447    0.0427 H   0  0  0  0  0  0  0  0  0  0  0  0
   -0.4065   -0.7537    0.2388 C   0  0  1  0  0  0  0  0  0  0  0  0
    0.3281   -1.1258    0.9603 H   0  0  0  0  0  0  0  0  0  0  0  0
    0.2140   -0.8342   -1.1811 C   0  0  0  0  0  0  0  0  0  0  0  0
   -0.3729   -0.1800   -1.8345 H   0  0  0  0  0  0  0  0  0  0  0  0
    1.2233   -0.4148   -1.1323 H   0  0  0  0  0  0  0  0  0  0  0  0
    0.3126   -2.1443   -1.9225 C   0  0  0  0  0  0  0  0  0  0  0  0
    0.8778   -2.1407   -3.1938 N   0  0  0  0  0  0  0  0  0  0  0  0
    0.9280   -3.3844   -3.6024 C   0  0  0  0  0  0  0  0  0  0  0  0
    1.3168   -3.7093   -4.5631 H   0  0  0  0  0  0  0  0  0  0  0  0
    0.4247   -4.2153   -2.6241 N   0  0  0  0  0  0  0  0  0  0  0  0
    0.3883   -5.2314   -2.6758 H   0  0  0  0  0  0  0  0  0  0  0  0
    0.0588   -3.4367   -1.5474 C   0  0  0  0  0  0  0  0  0  0  0  0
   -0.3010   -3.7900   -0.5918 H   0  0  0  0  0  0  0  0  0  0  0  0
   -0.6605    0.7427    0.5183 C   0  0  0  0  0  0  0  0  0  0  0  0
   -1.6838    1.2784    0.1051 O   0  0  0  0  0  0  0  0  0  0  0  0
    0.2151    1.4664    1.3066 N   0  0  0  0  0  0  0  0  0  0  0  0
    1.0257    0.9803    1.6799 H   0  0  0  0  0  0  0  0  0  0  0  0
    0.0027    2.8633    1.6647 C   0  0  0  0  0  0  0  0  0  0  0  0
   -0.9228    2.9754    2.2392 H   0  0  0  0  0  0  0  0  0  0  0  0
    0.8348    3.2281    2.2744 H   0  0  0  0  0  0  0  0  0  0  0  0
   -0.0634    3.4836    0.7646 H   0  0  0  0  0  0  0  0  0  0  0  0
  1  2  1  0  0  0  0
  2  3  1  0  0  0  0
  2  4  1  0  0  0  0
  2  5  1  0  0  0  0
  5  6  2  0  0  0  0
  5  7  1  0  0  0  0
  7  8  1  0  0  0  0
  7  9  1  0  0  0  0
  9 10  1  0  0  0  0
  9 11  1  0  0  0  0
  9 22  1  0  0  0  0
 11 12  1  0  0  0  0
 11 13  1  0  0  0  0
 11 14  1  0  0  0  0
 14 15  1  0  0  0  0
 14 20  2  0  0  0  0
 15 16  2  0  0  0  0
 16 17  1  0  0  0  0
 16 18  1  0  0  0  0
 18 19  1  0  0  0  0
 18 20  1  0  0  0  0
 20 21  1  0  0  0  0
 22 23  2  0  0  0  0
 22 24  1  0  0  0  0
 24 25  1  0  0  0  0
 24 26  1  0  0  0  0
 26 27  1  0  0  0  0
 26 28  1  0  0  0  0
 26 29  1  0  0  0  0
M  END
$$$$

  -OEChem-04042215593D

 29 29  0     1  0  0  0  0  0999 V2000
   -3.1615   -4.2256    1.8371 H   0  0  0  0  0  0  0  0  0  0  0  0
   -3.2255   -3.2760    1.2984 C   0  0  0  0  0  0  0  0  0  0  0  0
   -3.8291   -2.5789    1.8849 H   0  0  0  0  0  0  0  0  0  0  0  0
   -3.7134   -3.4483    0.3361 H   0  0  0  0  0  0  0  0  0  0  0  0
   -1.8381   -2.7026    1.0812 C   0  0  0  0  0  0  0  0  0  0  0  0
   -0.8611   -3.2902    1.5157 O   0  0  0  0  0  0  0  0  0  0  0  0
   -1.6921   -1.5105    0.4047 N   0  0  0  0  0  0  0  0  0  0  0  0
   -2.5463   -1.0146    0.1531 H   0  0  0  0  0  0  0  0  0  0  0  0
   -0.4336   -0.7704    0.2179 C   0  0  1  0  0  0  0  0  0  0  0  0
    0.3035   -1.1404    0.9381 H   0  0  0  0  0  0  0  0  0  0  0  0
    0.1982   -0.8453   -1.1973 C   0  0  0  0  0  0  0  0  0  0  0  0
   -0.3716   -0.1819   -1.8558 H   0  0  0  0  0  0  0  0  0  0  0  0
    1.2080   -0.4308   -1.1224 H   0  0  0  0  0  0  0  0  0  0  0  0
    0.3157   -2.1484   -1.9500 C   0  0  0  0  0  0  0  0  0  0  0  0
    1.1649   -2.1840   -3.0521 N   0  0  0  0  0  0  0  0  0  0  0  0
    1.1463   -3.4071   -3.5210 C   0  0  0  0  0  0  0  0  0  0  0  0
    1.7118   -3.7523   -4.3819 H   0  0  0  0  0  0  0  0  0  0  0  0
    0.3070   -4.1858   -2.7530 N   0  0  0  0  0  0  0  0  0  0  0  0
    0.1402   -5.1810   -2.8875 H   0  0  0  0  0  0  0  0  0  0  0  0
   -0.2137   -3.3959   -1.7505 C   0  0  0  0  0  0  0  0  0  0  0  0
   -0.8808   -3.7154   -0.9640 H   0  0  0  0  0  0  0  0  0  0  0  0
   -0.6861    0.7243    0.5059 C   0  0  0  0  0  0  0  0  0  0  0  0
   -1.7255    1.2532    0.1250 O   0  0  0  0  0  0  0  0  0  0  0  0
    0.2025    1.4483    1.2794 N   0  0  0  0  0  0  0  0  0  0  0  0
    1.0339    0.9697    1.6156 H   0  0  0  0  0  0  0  0  0  0  0  0
   -0.0006    2.8467    1.6372 C   0  0  0  0  0  0  0  0  0  0  0  0
   -0.9235    2.9652    2.2145 H   0  0  0  0  0  0  0  0  0  0  0  0
    0.8354    3.2066    2.2447 H   0  0  0  0  0  0  0  0  0  0  0  0
   -0.0657    3.4666    0.7369 H   0  0  0  0  0  0  0  0  0  0  0  0
  1  2  1  0  0  0  0
  2  3  1  0  0  0  0
  2  4  1  0  0  0  0
  2  5  1  0  0  0  0
  5  6  2  0  0  0  0
  5  7  1  0  0  0  0
  7  8  1  0  0  0  0
  7  9  1  0  0  0  0
  9 10  1  0  0  0  0
  9 11  1  0  0  0  0
  9 22  1  0  0  0  0
 11 12  1  0  0  0  0
 11 13  1  0  0  0  0
 11 14  1  0  0  0  0
 14 15  1  0  0  0  0
 14 20  2  0  0  0  0
 15 16  2  0  0  0  0
 16 17  1  0  0  0  0
 16 18  1  0  0  0  0
 18 19  1  0  0  0  0
 18 20  1  0  0  0  0
 20 21  1  0  0  0  0
 22 23  2  0  0  0  0
 22 24  1  0  0  0  0
 24 25  1  0  0  0  0
 24 26  1  0  0  0  0
 26 27  1  0  0  0  0
 26 28  1  0  0  0  0
 26 29  1  0  0  0  0
M  END
$$$$

  -OEChem-04042215593D

 29 29  0     1  0  0  0  0  0999 V2000
   -3.0818   -4.2790    1.7686 H   0  0  0  0  0  0  0  0  0  0  0  0
   -3.1726   -3.3049    1.2794 C   0  0  0  0  0  0  0  0  0  0  0  0
   -3.7531   -2.6402    1.9237 H   0  0  0  0  0  0  0  0  0  0  0  0
   -3.7008   -3.4352    0.3317 H   0  0  0  0  0  0  0  0  0  0  0  0
   -1.7977   -2.7131    1.0317 C   0  0  0  0  0  0  0  0  0  0  0  0
   -0.8032   -3.3082    1.4108 O   0  0  0  0  0  0  0  0  0  0  0  0
   -1.6836   -1.5043    0.3764 N   0  0  0  0  0  0  0  0  0  0  0  0
   -2.5465   -0.9972    0.1841 H   0  0  0  0  0  0  0  0  0  0  0  0
   -0.4323   -0.7524    0.1902 C   0  0  1  0  0  0  0  0  0  0  0  0
    0.3104   -1.1293    0.9010 H   0  0  0  0  0  0  0  0  0  0  0  0
    0.1983   -0.8178   -1.2241 C   0  0  0  0  0  0  0  0  0  0  0  0
   -0.3681   -0.1562   -1.8869 H   0  0  0  0  0  0  0  0  0  0  0  0
    1.2092   -0.4058   -1.1484 H   0  0  0  0  0  0  0  0  0  0  0  0
    0.3080   -2.1364   -1.9491 C   0  0  0  0  0  0  0  0  0  0  0  0
    1.3590   -2.3262   -2.8411 N   0  0  0  0  0  0  0  0  0  0  0  0
    1.2265   -3.5291   -3.3439 C   0  0  0  0  0  0  0  0  0  0  0  0
    1.9002   -3.9781   -4.0681 H   0  0  0  0  0  0  0  0  0  0  0  0
    0.1034   -4.1338   -2.8188 N   0  0  0  0  0  0  0  0  0  0  0  0
   -0.2151   -5.0755   -3.0377 H   0  0  0  0  0  0  0  0  0  0  0  0
   -0.4885   -3.2506   -1.9420 C   0  0  0  0  0  0  0  0  0  0  0  0
   -1.3964   -3.4059   -1.3760 H   0  0  0  0  0  0  0  0  0  0  0  0
   -0.6836    0.7351    0.5109 C   0  0  0  0  0  0  0  0  0  0  0  0
   -1.7319    1.2653    0.1572 O   0  0  0  0  0  0  0  0  0  0  0  0
    0.2126    1.4468    1.2872 N   0  0  0  0  0  0  0  0  0  0  0  0
    1.0559    0.9683    1.5924 H   0  0  0  0  0  0  0  0  0  0  0  0
    0.0076    2.8350    1.6812 C   0  0  0  0  0  0  0  0  0  0  0  0
   -0.9180    2.9371    2.2574 H   0  0  0  0  0  0  0  0  0  0  0  0
    0.8403    3.1786    2.3024 H   0  0  0  0  0  0  0  0  0  0  0  0
   -0.0530    3.4788    0.7975 H   0  0  0  0  0  0  0  0  0  0  0  0
  1  2  1  0  0  0  0
  2  3  1  0  0  0  0
  2  4  1  0  0  0  0
  2  5  1  0  0  0  0
  5  6  2  0  0  0  0
  5  7  1  0  0  0  0
  7  8  1  0  0  0  0
  7  9  1  0  0  0  0
  9 10  1  0  0  0  0
  9 11  1  0  0  0  0
  9 22  1  0  0  0  0
 11 12  1  0  0  0  0
 11 13  1  0  0  0  0
 11 14  1  0  0  0  0
 14 15  1  0  0  0  0
 14 20  2  0  0  0  0
 15 16  2  0  0  0  0
 16 17  1  0  0  0  0
 16 18  1  0  0  0  0
 18 19  1  0  0  0  0
 18 20  1  0  0  0  0
 20 21  1  0  0  0  0
 22 23  2  0  0  0  0
 22 24  1  0  0  0  0
 24 25  1  0  0  0  0
 24 26  1  0  0  0  0
 26 27  1  0  0  0  0
 26 28  1  0  0  0  0
 26 29  1  0  0  0  0
M  END
$$$$

  -OEChem-04042215593D

 29 29  0     1  0  0  0  0  0999 V2000
   -2.9978   -4.3279    1.6810 H   0  0  0  0  0  0  0  0  0  0  0  0
   -3.1090   -3.3544    1.1951 C   0  0  0  0  0  0  0  0  0  0  0  0
   -3.7099   -2.7068    1.8382 H   0  0  0  0  0  0  0  0  0  0  0  0
   -3.6271   -3.4930    0.2433 H   0  0  0  0  0  0  0  0  0  0  0  0
   -1.7467   -2.7294    0.9595 C   0  0  0  0  0  0  0  0  0  0  0  0
   -0.7410   -3.3071    1.3361 O   0  0  0  0  0  0  0  0  0  0  0  0
   -1.6612   -1.5016    0.3353 N   0  0  0  0  0  0  0  0  0  0  0  0
   -2.5351   -1.0082    0.1588 H   0  0  0  0  0  0  0  0  0  0  0  0
   -0.4245   -0.7233    0.1625 C   0  0  1  0  0  0  0  0  0  0  0  0
    0.3271   -1.1045    0.8617 H   0  0  0  0  0  0  0  0  0  0  0  0
    0.1920   -0.7778   -1.2557 C   0  0  0  0  0  0  0  0  0  0  0  0
   -0.3972   -0.1356   -1.9174 H   0  0  0  0  0  0  0  0  0  0  0  0
    1.1982   -0.3510   -1.2060 H   0  0  0  0  0  0  0  0  0  0  0  0
    0.2888   -2.1194   -1.9343 C   0  0  0  0  0  0  0  0  0  0  0  0
    1.4568   -2.4959   -2.5881 N   0  0  0  0  0  0  0  0  0  0  0  0
    1.2334   -3.6732   -3.1191 C   0  0  0  0  0  0  0  0  0  0  0  0
    1.9609   -4.2454   -3.6879 H   0  0  0  0  0  0  0  0  0  0  0  0
   -0.0632   -4.0687   -2.8576 N   0  0  0  0  0  0  0  0  0  0  0  0
   -0.4827   -4.9453   -3.1602 H   0  0  0  0  0  0  0  0  0  0  0  0
   -0.6740   -3.0747   -2.1236 C   0  0  0  0  0  0  0  0  0  0  0  0
   -1.6998   -3.0419   -1.7771 H   0  0  0  0  0  0  0  0  0  0  0  0
   -0.6837    0.7533    0.5187 C   0  0  0  0  0  0  0  0  0  0  0  0
   -1.7325    1.2869    0.1725 O   0  0  0  0  0  0  0  0  0  0  0  0
    0.2129    1.4530    1.3050 N   0  0  0  0  0  0  0  0  0  0  0  0
    1.0529    0.9672    1.6086 H   0  0  0  0  0  0  0  0  0  0  0  0
    0.0031    2.8319    1.7278 C   0  0  0  0  0  0  0  0  0  0  0  0
   -0.9101    2.9145    2.3262 H   0  0  0  0  0  0  0  0  0  0  0  0
    0.8468    3.1732    2.3354 H   0  0  0  0  0  0  0  0  0  0  0  0
   -0.0847    3.4903    0.8572 H   0  0  0  0  0  0  0  0  0  0  0  0
  1  2  1  0  0  0  0
  2  3  1  0  0  0  0
  2  4  1  0  0  0  0
  2  5  1  0  0  0  0
  5  6  2  0  0  0  0
  5  7  1  0  0  0  0
  7  8  1  0  0  0  0
  7  9  1  0  0  0  0
  9 10  1  0  0  0  0
  9 11  1  0  0  0  0
  9 22  1  0  0  0  0
 11 12  1  0  0  0  0
 11 13  1  0  0  0  0
 11 14  1  0  0  0  0
 14 15  1  0  0  0  0
 14 20  2  0  0  0  0
 15 16  2  0  0  0  0
 16 17  1  0  0  0  0
 16 18  1  0  0  0  0
 18 19  1  0  0  0  0
 18 20  1  0  0  0  0
 20 21  1  0  0  0  0
 22 23  2  0  0  0  0
 22 24  1  0  0  0  0
 24 25  1  0  0  0  0
 24 26  1  0  0  0  0
 26 27  1  0  0  0  0
 26 28  1  0  0  0  0
 26 29  1  0  0  0  0
M  END
$$$$

  -OEChem-04042215593D

 29 29  0     1  0  0  0  0  0999 V2000
   -2.9225   -4.3757    1.5854 H   0  0  0  0  0  0  0  0  0  0  0  0
   -3.0500   -3.4049    1.0980 C   0  0  0  0  0  0  0  0  0  0  0  0
   -3.6865   -2.7769    1.7261 H   0  0  0  0  0  0  0  0  0  0  0  0
   -3.5377   -3.5574    0.1324 H   0  0  0  0  0  0  0  0  0  0  0  0
   -1.7010   -2.7402    0.8986 C   0  0  0  0  0  0  0  0  0  0  0  0
   -0.6888   -3.2975    1.2884 O   0  0  0  0  0  0  0  0  0  0  0  0
   -1.6360   -1.4987    0.2995 N   0  0  0  0  0  0  0  0  0  0  0  0
   -2.5180   -1.0216    0.1210 H   0  0  0  0  0  0  0  0  0  0  0  0
   -0.4109   -0.6981    0.1418 C   0  0  1  0  0  0  0  0  0  0  0  0
    0.3508   -1.0825    0.8286 H   0  0  0  0  0  0  0  0  0  0  0  0
    0.1832   -0.7416   -1.2836 C   0  0  0  0  0  0  0  0  0  0  0  0
   -0.4291   -0.1135   -1.9376 H   0  0  0  0  0  0  0  0  0  0  0  0
    1.1878   -0.3089   -1.2655 H   0  0  0  0  0  0  0  0  0  0  0  0
    0.2594   -2.1012   -1.9205 C   0  0  0  0  0  0  0  0  0  0  0  0
    1.4682   -2.6578   -2.3198 N   0  0  0  0  0  0  0  0  0  0  0  0
    1.1824   -3.8038   -2.8888 C   0  0  0  0  0  0  0  0  0  0  0  0
    1.9164   -4.4927   -3.2970 H   0  0  0  0  0  0  0  0  0  0  0  0
   -0.1858   -3.9964   -2.9055 N   0  0  0  0  0  0  0  0  0  0  0  0
   -0.6602   -4.8076   -3.2966 H   0  0  0  0  0  0  0  0  0  0  0  0
   -0.7788   -2.9030   -2.3114 C   0  0  0  0  0  0  0  0  0  0  0  0
   -1.8358   -2.7011   -2.1782 H   0  0  0  0  0  0  0  0  0  0  0  0
   -0.6805    0.7691    0.5248 C   0  0  0  0  0  0  0  0  0  0  0  0
   -1.7278    1.3045    0.1770 O   0  0  0  0  0  0  0  0  0  0  0  0
    0.2117    1.4619    1.3218 N   0  0  0  0  0  0  0  0  0  0  0  0
    1.0511    0.9736    1.6228 H   0  0  0  0  0  0  0  0  0  0  0  0
   -0.0027    2.8347    1.7618 C   0  0  0  0  0  0  0  0  0  0  0  0
   -0.9238    2.9102    2.3492 H   0  0  0  0  0  0  0  0  0  0  0  0
    0.8330    3.1661    2.3859 H   0  0  0  0  0  0  0  0  0  0  0  0
   -0.0777    3.5056    0.8996 H   0  0  0  0  0  0  0  0  0  0  0  0
  1  2  1  0  0  0  0
  2  3  1  0  0  0  0
  2  4  1  0  0  0  0
  2  5  1  0  0  0  0
  5  6  2  0  0  0  0
  5  7  1  0  0  0  0
  7  8  1  0  0  0  0
  7  9  1  0  0  0  0
  9 10  1  0  0  0  0
  9 11  1  0  0  0  0
  9 22  1  0  0  0  0
 11 12  1  0  0  0  0
 11 13  1  0  0  0  0
 11 14  1  0  0  0  0
 14 15  1  0  0  0  0
 14 20  2  0  0  0  0
 15 16  2  0  0  0  0
 16 17  1  0  0  0  0
 16 18  1  0  0  0  0
 18 19  1  0  0  0  0
 18 20  1  0  0  0  0
 20 21  1  0  0  0  0
 22 23  2  0  0  0  0
 22 24  1  0  0  0  0
 24 25  1  0  0  0  0
 24 26  1  0  0  0  0
 26 27  1  0  0  0  0
 26 28  1  0  0  0  0
 26 29  1  0  0  0  0
M  END
$$$$

  -OEChem-04042215593D

 29 29  0     1  0  0  0  0  0999 V2000
   -2.8690   -4.4114    1.4811 H   0  0  0  0  0  0  0  0  0  0  0  0
   -3.0034   -3.4390    0.9991 C   0  0  0  0  0  0  0  0  0  0  0  0
   -3.6745   -2.8324    1.6120 H   0  0  0  0  0  0  0  0  0  0  0  0
   -3.4554   -3.5926    0.0164 H   0  0  0  0  0  0  0  0  0  0  0  0
   -1.6645   -2.7418    0.8498 C   0  0  0  0  0  0  0  0  0  0  0  0
   -0.6532   -3.2804    1.2671 O   0  0  0  0  0  0  0  0  0  0  0  0
   -1.6119   -1.4905    0.2706 N   0  0  0  0  0  0  0  0  0  0  0  0
   -2.4987   -1.0337    0.0675 H   0  0  0  0  0  0  0  0  0  0  0  0
   -0.3965   -0.6738    0.1191 C   0  0  1  0  0  0  0  0  0  0  0  0
    0.3777   -1.0624    0.7893 H   0  0  0  0  0  0  0  0  0  0  0  0
    0.1674   -0.7065   -1.3168 C   0  0  0  0  0  0  0  0  0  0  0  0
   -0.4659   -0.0852   -1.9573 H   0  0  0  0  0  0  0  0  0  0  0  0
    1.1712   -0.2719   -1.3280 H   0  0  0  0  0  0  0  0  0  0  0  0
    0.2228   -2.0777   -1.9256 C   0  0  0  0  0  0  0  0  0  0  0  0
    1.4087   -2.7851   -2.0686 N   0  0  0  0  0  0  0  0  0  0  0  0
    1.0995   -3.9093   -2.6680 C   0  0  0  0  0  0  0  0  0  0  0  0
    1.8077   -4.6954   -2.9137 H   0  0  0  0  0  0  0  0  0  0  0  0
   -0.2529   -3.9388   -2.9536 N   0  0  0  0  0  0  0  0  0  0  0  0
   -0.7368   -4.7021   -3.4220 H   0  0  0  0  0  0  0  0  0  0  0  0
   -0.8128   -2.7634   -2.4998 C   0  0  0  0  0  0  0  0  0  0  0  0
   -1.8448   -2.4359   -2.5685 H   0  0  0  0  0  0  0  0  0  0  0  0
   -0.6723    0.7861    0.5241 C   0  0  0  0  0  0  0  0  0  0  0  0
   -1.7194    1.3243    0.1797 O   0  0  0  0  0  0  0  0  0  0  0  0
    0.2210    1.4724    1.3253 N   0  0  0  0  0  0  0  0  0  0  0  0
    1.0540    0.9764    1.6315 H   0  0  0  0  0  0  0  0  0  0  0  0
   -0.0029    2.8336    1.7954 C   0  0  0  0  0  0  0  0  0  0  0  0
   -0.9129    2.8849    2.4022 H   0  0  0  0  0  0  0  0  0  0  0  0
    0.8405    3.1648    2.4090 H   0  0  0  0  0  0  0  0  0  0  0  0
   -0.1042    3.5199    0.9481 H   0  0  0  0  0  0  0  0  0  0  0  0
  1  2  1  0  0  0  0
  2  3  1  0  0  0  0
  2  4  1  0  0  0  0
  2  5  1  0  0  0  0
  5  6  2  0  0  0  0
  5  7  1  0  0  0  0
  7  8  1  0  0  0  0
  7  9  1  0  0  0  0
  9 10  1  0  0  0  0
  9 11  1  0  0  0  0
  9 22  1  0  0  0  0
 11 12  1  0  0  0  0
 11 13  1  0  0  0  0
 11 14  1  0  0  0  0
 14 15  1  0  0  0  0
 14 20  2  0  0  0  0
 15 16  2  0  0  0  0
 16 17  1  0  0  0  0
 16 18  1  0  0  0  0
 18 19  1  0  0  0  0
 18 20  1  0  0  0  0
 20 21  1  0  0  0  0
 22 23  2  0  0  0  0
 22 24  1  0  0  0  0
 24 25  1  0  0  0  0
 24 26  1  0  0  0  0
 26 27  1  0  0  0  0
 26 28  1  0  0  0  0
 26 29  1  0  0  0  0
M  END
$$$$

  -OEChem-04042215593D

 29 29  0     1  0  0  0  0  0999 V2000
   -2.8306   -4.4503    1.3922 H   0  0  0  0  0  0  0  0  0  0  0  0
   -2.9674   -3.4750    0.9167 C   0  0  0  0  0  0  0  0  0  0  0  0
   -3.6780   -2.8918    1.5073 H   0  0  0  0  0  0  0  0  0  0  0  0
   -3.3731   -3.6260   -0.0863 H   0  0  0  0  0  0  0  0  0  0  0  0
   -1.6402   -2.7452    0.8332 C   0  0  0  0  0  0  0  0  0  0  0  0
   -0.6394   -3.2587    1.3039 O   0  0  0  0  0  0  0  0  0  0  0  0
   -1.5919   -1.4893    0.2637 N   0  0  0  0  0  0  0  0  0  0  0  0
   -2.4773   -1.0603    0.0046 H   0  0  0  0  0  0  0  0  0  0  0  0
   -0.3826   -0.6625    0.1171 C   0  0  1  0  0  0  0  0  0  0  0  0
    0.4017   -1.0544    0.7734 H   0  0  0  0  0  0  0  0  0  0  0  0
    0.1532   -0.6819   -1.3291 C   0  0  0  0  0  0  0  0  0  0  0  0
   -0.4926   -0.0571   -1.9540 H   0  0  0  0  0  0  0  0  0  0  0  0
    1.1578   -0.2505   -1.3583 H   0  0  0  0  0  0  0  0  0  0  0  0
    0.1932   -2.0542   -1.9328 C   0  0  0  0  0  0  0  0  0  0  0  0
    1.2961   -2.8897   -1.8328 N   0  0  0  0  0  0  0  0  0  0  0  0
    0.9897   -3.9857   -2.4831 C   0  0  0  0  0  0  0  0  0  0  0  0
    1.6419   -4.8484   -2.5835 H   0  0  0  0  0  0  0  0  0  0  0  0
   -0.2752   -3.8744   -3.0313 N   0  0  0  0  0  0  0  0  0  0  0  0
   -0.7366   -4.5889   -3.5908 H   0  0  0  0  0  0  0  0  0  0  0  0
   -0.7824   -2.6370   -2.6942 C   0  0  0  0  0  0  0  0  0  0  0  0
   -1.7422   -2.2044   -2.9584 H   0  0  0  0  0  0  0  0  0  0  0  0
   -0.6634    0.7935    0.5316 C   0  0  0  0  0  0  0  0  0  0  0  0
   -1.7027    1.3378    0.1729 O   0  0  0  0  0  0  0  0  0  0  0  0
    0.2281    1.4790    1.3358 N   0  0  0  0  0  0  0  0  0  0  0  0
    1.0528    0.9775    1.6557 H   0  0  0  0  0  0  0  0  0  0  0  0
    0.0045    2.8417    1.8019 C   0  0  0  0  0  0  0  0  0  0  0  0
   -0.9113    2.8971    2.3997 H   0  0  0  0  0  0  0  0  0  0  0  0
    0.8432    3.1708    2.4228 H   0  0  0  0  0  0  0  0  0  0  0  0
   -0.0862    3.5268    0.9525 H   0  0  0  0  0  0  0  0  0  0  0  0
  1  2  1  0  0  0  0
  2  3  1  0  0  0  0
  2  4  1  0  0  0  0
  2  5  1  0  0  0  0
  5  6  2  0  0  0  0
  5  7  1  0  0  0  0
  7  8  1  0  0  0  0
  7  9  1  0  0  0  0
  9 10  1  0  0  0  0
  9 11  1  0  0  0  0
  9 22  1  0  0  0  0
 11 12  1  0  0  0  0
 11 13  1  0  0  0  0
 11 14  1  0  0  0  0
 14 15  1  0  0  0  0
 14 20  2  0  0  0  0
 15 16  2  0  0  0  0
 16 17  1  0  0  0  0
 16 18  1  0  0  0  0
 18 19  1  0  0  0  0
 18 20  1  0  0  0  0
 20 21  1  0  0  0  0
 22 23  2  0  0  0  0
 22 24  1  0  0  0  0
 24 25  1  0  0  0  0
 24 26  1  0  0  0  0
 26 27  1  0  0  0  0
 26 28  1  0  0  0  0
 26 29  1  0  0  0  0
M  END
$$$$

  -OEChem-04042215593D

 29 29  0     1  0  0  0  0  0999 V2000
   -2.7937   -4.4800    1.3231 H   0  0  0  0  0  0  0  0  0  0  0  0
   -2.9297   -3.5089    0.8388 C   0  0  0  0  0  0  0  0  0  0  0  0
   -3.6924   -2.9471    1.3833 H   0  0  0  0  0  0  0  0  0  0  0  0
   -3.2670   -3.6714   -0.1875 H   0  0  0  0  0  0  0  0  0  0  0  0
   -1.6223   -2.7395    0.8357 C   0  0  0  0  0  0  0  0  0  0  0  0
   -0.6410   -3.2182    1.3787 O   0  0  0  0  0  0  0  0  0  0  0  0
   -1.5784   -1.4832    0.2670 N   0  0  0  0  0  0  0  0  0  0  0  0
   -2.4559   -1.0893   -0.0634 H   0  0  0  0  0  0  0  0  0  0  0  0
   -0.3723   -0.6518    0.1189 C   0  0  1  0  0  0  0  0  0  0  0  0
    0.4193   -1.0437    0.7665 H   0  0  0  0  0  0  0  0  0  0  0  0
    0.1446   -0.6643   -1.3347 C   0  0  0  0  0  0  0  0  0  0  0  0
   -0.5042   -0.0333   -1.9497 H   0  0  0  0  0  0  0  0  0  0  0  0
    1.1511   -0.2380   -1.3709 H   0  0  0  0  0  0  0  0  0  0  0  0
    0.1764   -2.0355   -1.9407 C   0  0  0  0  0  0  0  0  0  0  0  0
    1.1327   -2.9867   -1.6193 N   0  0  0  0  0  0  0  0  0  0  0  0
    0.8462   -4.0544   -2.3228 C   0  0  0  0  0  0  0  0  0  0  0  0
    1.4039   -4.9859   -2.2898 H   0  0  0  0  0  0  0  0  0  0  0  0
   -0.2607   -3.8143   -3.1168 N   0  0  0  0  0  0  0  0  0  0  0  0
   -0.6753   -4.4835   -3.7625 H   0  0  0  0  0  0  0  0  0  0  0  0
   -0.6865   -2.5232   -2.8828 C   0  0  0  0  0  0  0  0  0  0  0  0
   -1.5236   -1.9962   -3.3301 H   0  0  0  0  0  0  0  0  0  0  0  0
   -0.6547    0.8035    0.5344 C   0  0  0  0  0  0  0  0  0  0  0  0
   -1.6887    1.3524    0.1672 O   0  0  0  0  0  0  0  0  0  0  0  0
    0.2383    1.4889    1.3370 N   0  0  0  0  0  0  0  0  0  0  0  0
    1.0556    0.9820    1.6676 H   0  0  0  0  0  0  0  0  0  0  0  0
    0.0129    2.8499    1.8072 C   0  0  0  0  0  0  0  0  0  0  0  0
   -0.8952    2.8986    2.4172 H   0  0  0  0  0  0  0  0  0  0  0  0
    0.8580    3.1836    2.4170 H   0  0  0  0  0  0  0  0  0  0  0  0
   -0.0935    3.5355    0.9600 H   0  0  0  0  0  0  0  0  0  0  0  0
  1  2  1  0  0  0  0
  2  3  1  0  0  0  0
  2  4  1  0  0  0  0
  2  5  1  0  0  0  0
  5  6  2  0  0  0  0
  5  7  1  0  0  0  0
  7  8  1  0  0  0  0
  7  9  1  0  0  0  0
  9 10  1  0  0  0  0
  9 11  1  0  0  0  0
  9 22  1  0  0  0  0
 11 12  1  0  0  0  0
 11 13  1  0  0  0  0
 11 14  1  0  0  0  0
 14 15  1  0  0  0  0
 14 20  2  0  0  0  0
 15 16  2  0  0  0  0
 16 17  1  0  0  0  0
 16 18  1  0  0  0  0
 18 19  1  0  0  0  0
 18 20  1  0  0  0  0
 20 21  1  0  0  0  0
 22 23  2  0  0  0  0
 22 24  1  0  0  0  0
 24 25  1  0  0  0  0
 24 26  1  0  0  0  0
 26 27  1  0  0  0  0
 26 28  1  0  0  0  0
 26 29  1  0  0  0  0
M  END
$$$$

  -OEChem-04042215593D

 29 29  0     1  0  0  0  0  0999 V2000
   -2.7523   -4.5092    1.2825 H   0  0  0  0  0  0  0  0  0  0  0  0
   -2.8871   -3.5485    0.7777 C   0  0  0  0  0  0  0  0  0  0  0  0
   -3.7141   -3.0139    1.2509 H   0  0  0  0  0  0  0  0  0  0  0  0
   -3.1323   -3.7336   -0.2707 H   0  0  0  0  0  0  0  0  0  0  0  0
   -1.6161   -2.7260    0.8737 C   0  0  0  0  0  0  0  0  0  0  0  0
   -0.6752   -3.1458    1.5270 O   0  0  0  0  0  0  0  0  0  0  0  0
   -1.5743   -1.4761    0.2900 N   0  0  0  0  0  0  0  0  0  0  0  0
   -2.4263   -1.1383   -0.1491 H   0  0  0  0  0  0  0  0  0  0  0  0
   -0.3668   -0.6474    0.1417 C   0  0  1  0  0  0  0  0  0  0  0  0
    0.4268   -1.0370    0.7881 H   0  0  0  0  0  0  0  0  0  0  0  0
    0.1390   -0.6645   -1.3174 C   0  0  0  0  0  0  0  0  0  0  0  0
   -0.5041   -0.0236   -1.9287 H   0  0  0  0  0  0  0  0  0  0  0  0
    1.1493   -0.2474   -1.3499 H   0  0  0  0  0  0  0  0  0  0  0  0
    0.1669   -2.0308   -1.9380 C   0  0  0  0  0  0  0  0  0  0  0  0
    0.9142   -3.0896   -1.4453 N   0  0  0  0  0  0  0  0  0  0  0  0
    0.6740   -4.1147   -2.2245 C   0  0  0  0  0  0  0  0  0  0  0  0
    1.1088   -5.1024   -2.1017 H   0  0  0  0  0  0  0  0  0  0  0  0
   -0.2080   -3.7486   -3.2245 N   0  0  0  0  0  0  0  0  0  0  0  0
   -0.5452   -4.3629   -3.9633 H   0  0  0  0  0  0  0  0  0  0  0  0
   -0.5326   -2.4196   -3.0468 C   0  0  0  0  0  0  0  0  0  0  0  0
   -1.1989   -1.8028   -3.6425 H   0  0  0  0  0  0  0  0  0  0  0  0
   -0.6473    0.8138    0.5395 C   0  0  0  0  0  0  0  0  0  0  0  0
   -1.6601    1.3758    0.1349 O   0  0  0  0  0  0  0  0  0  0  0  0
    0.2446    1.5022    1.3408 N   0  0  0  0  0  0  0  0  0  0  0  0
    1.0372    0.9828    1.7092 H   0  0  0  0  0  0  0  0  0  0  0  0
    0.0247    2.8693    1.7952 C   0  0  0  0  0  0  0  0  0  0  0  0
   -0.8804    2.9280    2.4087 H   0  0  0  0  0  0  0  0  0  0  0  0
    0.8737    3.2080    2.3968 H   0  0  0  0  0  0  0  0  0  0  0  0
   -0.0834    3.5450    0.9403 H   0  0  0  0  0  0  0  0  0  0  0  0
  1  2  1  0  0  0  0
  2  3  1  0  0  0  0
  2  4  1  0  0  0  0
  2  5  1  0  0  0  0
  5  6  2  0  0  0  0
  5  7  1  0  0  0  0
  7  8  1  0  0  0  0
  7  9  1  0  0  0  0
  9 10  1  0  0  0  0
  9 11  1  0  0  0  0
  9 22  1  0  0  0  0
 11 12  1  0  0  0  0
 11 13  1  0  0  0  0
 11 14  1  0  0  0  0
 14 15  1  0  0  0  0
 14 20  2  0  0  0  0
 15 16  2  0  0  0  0
 16 17  1  0  0  0  0
 16 18  1  0  0  0  0
 18 19  1  0  0  0  0
 18 20  1  0  0  0  0
 20 21  1  0  0  0  0
 22 23  2  0  0  0  0
 22 24  1  0  0  0  0
 24 25  1  0  0  0  0
 24 26  1  0  0  0  0
 26 27  1  0  0  0  0
 26 28  1  0  0  0  0
 26 29  1  0  0  0  0
M  END
$$$$

  -OEChem-04042215593D

 29 29  0     1  0  0  0  0  0999 V2000
   -2.7157   -4.5226    1.2924 H   0  0  0  0  0  0  0  0  0  0  0  0
   -2.8474   -3.5812    0.7518 C   0  0  0  0  0  0  0  0  0  0  0  0
   -3.7335   -3.0728    1.1391 H   0  0  0  0  0  0  0  0  0  0  0  0
   -2.9933   -3.8023   -0.3082 H   0  0  0  0  0  0  0  0  0  0  0  0
   -1.6241   -2.7020    0.9308 C   0  0  0  0  0  0  0  0  0  0  0  0
   -0.7292   -3.0600    1.6801 O   0  0  0  0  0  0  0  0  0  0  0  0
   -1.5831   -1.4638    0.3221 N   0  0  0  0  0  0  0  0  0  0  0  0
   -2.3983   -1.1860   -0.2163 H   0  0  0  0  0  0  0  0  0  0  0  0
   -0.3678   -0.6481    0.1700 C   0  0  1  0  0  0  0  0  0  0  0  0
    0.4217   -1.0336    0.8237 H   0  0  0  0  0  0  0  0  0  0  0  0
    0.1404   -0.6802   -1.2905 C   0  0  0  0  0  0  0  0  0  0  0  0
   -0.4872   -0.0277   -1.9059 H   0  0  0  0  0  0  0  0  0  0  0  0
    1.1561   -0.2753   -1.3124 H   0  0  0  0  0  0  0  0  0  0  0  0
    0.1662   -2.0412   -1.9293 C   0  0  0  0  0  0  0  0  0  0  0  0
    0.6470   -3.1961   -1.3300 N   0  0  0  0  0  0  0  0  0  0  0  0
    0.4770   -4.1706   -2.1884 C   0  0  0  0  0  0  0  0  0  0  0  0
    0.7564   -5.2060   -2.0157 H   0  0  0  0  0  0  0  0  0  0  0  0
   -0.1092   -3.6817   -3.3406 N   0  0  0  0  0  0  0  0  0  0  0  0
   -0.3409   -4.2366   -4.1624 H   0  0  0  0  0  0  0  0  0  0  0  0
   -0.3100   -2.3266   -3.1793 C   0  0  0  0  0  0  0  0  0  0  0  0
   -0.7510   -1.6241   -3.8804 H   0  0  0  0  0  0  0  0  0  0  0  0
   -0.6422    0.8218    0.5409 C   0  0  0  0  0  0  0  0  0  0  0  0
   -1.6348    1.3935    0.1009 O   0  0  0  0  0  0  0  0  0  0  0  0
    0.2488    1.5153    1.3390 N   0  0  0  0  0  0  0  0  0  0  0  0
    1.0131    0.9854    1.7497 H   0  0  0  0  0  0  0  0  0  0  0  0
    0.0321    2.8893    1.7732 C   0  0  0  0  0  0  0  0  0  0  0  0
   -0.8755    2.9598    2.3818 H   0  0  0  0  0  0  0  0  0  0  0  0
    0.8798    3.2334    2.3733 H   0  0  0  0  0  0  0  0  0  0  0  0
   -0.0700    3.5534    0.9086 H   0  0  0  0  0  0  0  0  0  0  0  0
  1  2  1  0  0  0  0
  2  3  1  0  0  0  0
  2  4  1  0  0  0  0
  2  5  1  0  0  0  0
  5  6  2  0  0  0  0
  5  7  1  0  0  0  0
  7  8  1  0  0  0  0
  7  9  1  0  0  0  0
  9 10  1  0  0  0  0
  9 11  1  0  0  0  0
  9 22  1  0  0  0  0
 11 12  1  0  0  0  0
 11 13  1  0  0  0  0
 11 14  1  0  0  0  0
 14 15  1  0  0  0  0
 14 20  2  0  0  0  0
 15 16  2  0  0  0  0
 16 17  1  0  0  0  0
 16 18  1  0  0  0  0
 18 19  1  0  0  0  0
 18 20  1  0  0  0  0
 20 21  1  0  0  0  0
 22 23  2  0  0  0  0
 22 24  1  0  0  0  0
 24 25  1  0  0  0  0
 24 26  1  0  0  0  0
 26 27  1  0  0  0  0
 26 28  1  0  0  0  0
 26 29  1  0  0  0  0
M  END
$$$$

  -OEChem-04042215593D

 29 29  0     1  0  0  0  0  0999 V2000
   -2.7201   -4.5140    1.3532 H   0  0  0  0  0  0  0  0  0  0  0  0
   -2.8409   -3.5939    0.7751 C   0  0  0  0  0  0  0  0  0  0  0  0
   -3.7593   -3.0945    1.0922 H   0  0  0  0  0  0  0  0  0  0  0  0
   -2.9182   -3.8518   -0.2837 H   0  0  0  0  0  0  0  0  0  0  0  0
   -1.6502   -2.6803    0.9946 C   0  0  0  0  0  0  0  0  0  0  0  0
   -0.7887   -2.9923    1.8029 O   0  0  0  0  0  0  0  0  0  0  0  0
   -1.6074   -1.4552    0.3596 N   0  0  0  0  0  0  0  0  0  0  0  0
   -2.3880   -1.2305   -0.2495 H   0  0  0  0  0  0  0  0  0  0  0  0
   -0.3824   -0.6569    0.1975 C   0  0  1  0  0  0  0  0  0  0  0  0
    0.4013   -1.0390    0.8600 H   0  0  0  0  0  0  0  0  0  0  0  0
    0.1355   -0.7082   -1.2620 C   0  0  0  0  0  0  0  0  0  0  0  0
   -0.4793   -0.0499   -1.8840 H   0  0  0  0  0  0  0  0  0  0  0  0
    1.1542   -0.3104   -1.2724 H   0  0  0  0  0  0  0  0  0  0  0  0
    0.1649   -2.0614   -1.9230 C   0  0  0  0  0  0  0  0  0  0  0  0
    0.3505   -3.2858   -1.2961 N   0  0  0  0  0  0  0  0  0  0  0  0
    0.2924   -4.2075   -2.2249 C   0  0  0  0  0  0  0  0  0  0  0  0
    0.4064   -5.2737   -2.0504 H   0  0  0  0  0  0  0  0  0  0  0  0
    0.0612   -3.6182   -3.4527 N   0  0  0  0  0  0  0  0  0  0  0  0
   -0.0210   -4.1158   -4.3374 H   0  0  0  0  0  0  0  0  0  0  0  0
   -0.0245   -2.2546   -3.2643 C   0  0  0  0  0  0  0  0  0  0  0  0
   -0.2013   -1.4844   -4.0093 H   0  0  0  0  0  0  0  0  0  0  0  0
   -0.6446    0.8230    0.5407 C   0  0  0  0  0  0  0  0  0  0  0  0
   -1.6195    1.4040    0.0744 O   0  0  0  0  0  0  0  0  0  0  0  0
    0.2511    1.5199    1.3308 N   0  0  0  0  0  0  0  0  0  0  0  0
    0.9917    0.9825    1.7736 H   0  0  0  0  0  0  0  0  0  0  0  0
    0.0449    2.9026    1.7433 C   0  0  0  0  0  0  0  0  0  0  0  0
   -0.8590    2.9886    2.3553 H   0  0  0  0  0  0  0  0  0  0  0  0
    0.8980    3.2517    2.3331 H   0  0  0  0  0  0  0  0  0  0  0  0
   -0.0580    3.5538    0.8689 H   0  0  0  0  0  0  0  0  0  0  0  0
  1  2  1  0  0  0  0
  2  3  1  0  0  0  0
  2  4  1  0  0  0  0
  2  5  1  0  0  0  0
  5  6  2  0  0  0  0
  5  7  1  0  0  0  0
  7  8  1  0  0  0  0
  7  9  1  0  0  0  0
  9 10  1  0  0  0  0
  9 11  1  0  0  0  0
  9 22  1  0  0  0  0
 11 12  1  0  0  0  0
 11 13  1  0  0  0  0
 11 14  1  0  0  0  0
 14 15  1  0  0  0  0
 14 20  2  0  0  0  0
 15 16  2  0  0  0  0
 16 17  1  0  0  0  0
 16 18  1  0  0  0  0
 18 19  1  0  0  0  0
 18 20  1  0  0  0  0
 20 21  1  0  0  0  0
 22 23  2  0  0  0  0
 22 24  1  0  0  0  0
 24 25  1  0  0  0  0
 24 26  1  0  0  0  0
 26 27  1  0  0  0  0
 26 28  1  0  0  0  0
 26 29  1  0  0  0  0
M  END
$$$$

  -OEChem-04042215593D

 29 29  0     1  0  0  0  0  0999 V2000
   -2.7547   -4.4998    1.4230 H   0  0  0  0  0  0  0  0  0  0  0  0
   -2.8718   -3.5886    0.8301 C   0  0  0  0  0  0  0  0  0  0  0  0
   -3.7919   -3.0841    1.1338 H   0  0  0  0  0  0  0  0  0  0  0  0
   -2.9423   -3.8625   -0.2253 H   0  0  0  0  0  0  0  0  0  0  0  0
   -1.6816   -2.6724    1.0424 C   0  0  0  0  0  0  0  0  0  0  0  0
   -0.8217   -2.9734    1.8576 O   0  0  0  0  0  0  0  0  0  0  0  0
   -1.6343   -1.4556    0.3914 N   0  0  0  0  0  0  0  0  0  0  0  0
   -2.4015   -1.2527   -0.2417 H   0  0  0  0  0  0  0  0  0  0  0  0
   -0.4023   -0.6718    0.2161 C   0  0  1  0  0  0  0  0  0  0  0  0
    0.3783   -1.0530    0.8823 H   0  0  0  0  0  0  0  0  0  0  0  0
    0.1231   -0.7340   -1.2418 C   0  0  0  0  0  0  0  0  0  0  0  0
   -0.4914   -0.0761   -1.8647 H   0  0  0  0  0  0  0  0  0  0  0  0
    1.1401   -0.3318   -1.2483 H   0  0  0  0  0  0  0  0  0  0  0  0
    0.1585   -2.0779   -1.9262 C   0  0  0  0  0  0  0  0  0  0  0  0
    0.0507   -3.3363   -1.3482 N   0  0  0  0  0  0  0  0  0  0  0  0
    0.1356   -4.2167   -2.3145 C   0  0  0  0  0  0  0  0  0  0  0  0
    0.0927   -5.2938   -2.1802 H   0  0  0  0  0  0  0  0  0  0  0  0
    0.2825   -3.5670   -3.5238 N   0  0  0  0  0  0  0  0  0  0  0  0
    0.3737   -4.0235   -4.4295 H   0  0  0  0  0  0  0  0  0  0  0  0
    0.2950   -2.2097   -3.2814 C   0  0  0  0  0  0  0  0  0  0  0  0
    0.3960   -1.4024   -4.0010 H   0  0  0  0  0  0  0  0  0  0  0  0
   -0.6522    0.8143    0.5432 C   0  0  0  0  0  0  0  0  0  0  0  0
   -1.6173    1.4024    0.0656 O   0  0  0  0  0  0  0  0  0  0  0  0
    0.2516    1.5125    1.3232 N   0  0  0  0  0  0  0  0  0  0  0  0
    0.9836    0.9729    1.7778 H   0  0  0  0  0  0  0  0  0  0  0  0
    0.0644    2.9058    1.7079 C   0  0  0  0  0  0  0  0  0  0  0  0
   -0.8410    3.0172    2.3135 H   0  0  0  0  0  0  0  0  0  0  0  0
    0.9199    3.2540    2.2946 H   0  0  0  0  0  0  0  0  0  0  0  0
   -0.0248    3.5404    0.8200 H   0  0  0  0  0  0  0  0  0  0  0  0
  1  2  1  0  0  0  0
  2  3  1  0  0  0  0
  2  4  1  0  0  0  0
  2  5  1  0  0  0  0
  5  6  2  0  0  0  0
  5  7  1  0  0  0  0
  7  8  1  0  0  0  0
  7  9  1  0  0  0  0
  9 10  1  0  0  0  0
  9 11  1  0  0  0  0
  9 22  1  0  0  0  0
 11 12  1  0  0  0  0
 11 13  1  0  0  0  0
 11 14  1  0  0  0  0
 14 15  1  0  0  0  0
 14 20  2  0  0  0  0
 15 16  2  0  0  0  0
 16 17  1  0  0  0  0
 16 18  1  0  0  0  0
 18 19  1  0  0  0  0
 18 20  1  0  0  0  0
 20 21  1  0  0  0  0
 22 23  2  0  0  0  0
 22 24  1  0  0  0  0
 24 25  1  0  0  0  0
 24 26  1  0  0  0  0
 26 27  1  0  0  0  0
 26 28  1  0  0  0  0
 26 29  1  0  0  0  0
M  END
$$$$

  -OEChem-04042215593D

 29 29  0     1  0  0  0  0  0999 V2000
   -2.7906   -4.4807    1.4704 H   0  0  0  0  0  0  0  0  0  0  0  0
   -2.9088   -3.5706    0.8762 C   0  0  0  0  0  0  0  0  0  0  0  0
   -3.8174   -3.0544    1.1944 H   0  0  0  0  0  0  0  0  0  0  0  0
   -3.0018   -3.8474   -0.1767 H   0  0  0  0  0  0  0  0  0  0  0  0
   -1.7052   -2.6663    1.0618 C   0  0  0  0  0  0  0  0  0  0  0  0
   -0.8270   -2.9783    1.8537 O   0  0  0  0  0  0  0  0  0  0  0  0
   -1.6587   -1.4513    0.4071 N   0  0  0  0  0  0  0  0  0  0  0  0
   -2.4243   -1.2567   -0.2306 H   0  0  0  0  0  0  0  0  0  0  0  0
   -0.4225   -0.6793    0.2146 C   0  0  1  0  0  0  0  0  0  0  0  0
    0.3602   -1.0628    0.8768 H   0  0  0  0  0  0  0  0  0  0  0  0
    0.1011   -0.7452   -1.2445 C   0  0  0  0  0  0  0  0  0  0  0  0
   -0.5264   -0.0933   -1.8608 H   0  0  0  0  0  0  0  0  0  0  0  0
    1.1130   -0.3304   -1.2600 H   0  0  0  0  0  0  0  0  0  0  0  0
    0.1356   -2.0816   -1.9469 C   0  0  0  0  0  0  0  0  0  0  0  0
   -0.2473   -3.3304   -1.4709 N   0  0  0  0  0  0  0  0  0  0  0  0
   -0.0074   -4.1998   -2.4212 C   0  0  0  0  0  0  0  0  0  0  0  0
   -0.1951   -5.2673   -2.3496 H   0  0  0  0  0  0  0  0  0  0  0  0
    0.5145   -3.5530   -3.5231 N   0  0  0  0  0  0  0  0  0  0  0  0
    0.7914   -4.0035   -4.3934 H   0  0  0  0  0  0  0  0  0  0  0  0
    0.6079   -2.2103   -3.2250 C   0  0  0  0  0  0  0  0  0  0  0  0
    0.9830   -1.4103   -3.8562 H   0  0  0  0  0  0  0  0  0  0  0  0
   -0.6578    0.8092    0.5424 C   0  0  0  0  0  0  0  0  0  0  0  0
   -1.6225    1.4055    0.0745 O   0  0  0  0  0  0  0  0  0  0  0  0
    0.2613    1.5009    1.3102 N   0  0  0  0  0  0  0  0  0  0  0  0
    0.9921    0.9556    1.7594 H   0  0  0  0  0  0  0  0  0  0  0  0
    0.0879    2.8952    1.6974 C   0  0  0  0  0  0  0  0  0  0  0  0
   -0.8133    3.0130    2.3082 H   0  0  0  0  0  0  0  0  0  0  0  0
    0.9493    3.2351    2.2804 H   0  0  0  0  0  0  0  0  0  0  0  0
   -0.0005    3.5316    0.8105 H   0  0  0  0  0  0  0  0  0  0  0  0
  1  2  1  0  0  0  0
  2  3  1  0  0  0  0
  2  4  1  0  0  0  0
  2  5  1  0  0  0  0
  5  6  2  0  0  0  0
  5  7  1  0  0  0  0
  7  8  1  0  0  0  0
  7  9  1  0  0  0  0
  9 10  1  0  0  0  0
  9 11  1  0  0  0  0
  9 22  1  0  0  0  0
 11 12  1  0  0  0  0
 11 13  1  0  0  0  0
 11 14  1  0  0  0  0
 14 15  1  0  0  0  0
 14 20  2  0  0  0  0
 15 16  2  0  0  0  0
 16 17  1  0  0  0  0
 16 18  1  0  0  0  0
 18 19  1  0  0  0  0
 18 20  1  0  0  0  0
 20 21  1  0  0  0  0
 22 23  2  0  0  0  0
 22 24  1  0  0  0  0
 24 25  1  0  0  0  0
 24 26  1  0  0  0  0
 26 27  1  0  0  0  0
 26 28  1  0  0  0  0
 26 29  1  0  0  0  0
M  END
$$$$

  -OEChem-04042215593D

 29 29  0     1  0  0  0  0  0999 V2000
   -2.7999   -4.4837    1.4530 H   0  0  0  0  0  0  0  0  0  0  0  0
   -2.9293   -3.5584    0.8854 C   0  0  0  0  0  0  0  0  0  0  0  0
   -3.8183   -3.0393    1.2507 H   0  0  0  0  0  0  0  0  0  0  0  0
   -3.0671   -3.8090   -0.1691 H   0  0  0  0  0  0  0  0  0  0  0  0
   -1.7086   -2.6722    1.0448 C   0  0  0  0  0  0  0  0  0  0  0  0
   -0.8043   -3.0116    1.7952 O   0  0  0  0  0  0  0  0  0  0  0  0
   -1.6667   -1.4505    0.4024 N   0  0  0  0  0  0  0  0  0  0  0  0
   -2.4385   -1.2502   -0.2264 H   0  0  0  0  0  0  0  0  0  0  0  0
   -0.4318   -0.6794    0.2029 C   0  0  1  0  0  0  0  0  0  0  0  0
    0.3545   -1.0675    0.8577 H   0  0  0  0  0  0  0  0  0  0  0  0
    0.0875   -0.7344   -1.2585 C   0  0  0  0  0  0  0  0  0  0  0  0
   -0.5564   -0.0890   -1.8644 H   0  0  0  0  0  0  0  0  0  0  0  0
    1.0927   -0.3038   -1.2827 H   0  0  0  0  0  0  0  0  0  0  0  0
    0.1211   -2.0647   -1.9746 C   0  0  0  0  0  0  0  0  0  0  0  0
   -0.5065   -3.2595   -1.6369 N   0  0  0  0  0  0  0  0  0  0  0  0
   -0.1423   -4.1546   -2.5217 C   0  0  0  0  0  0  0  0  0  0  0  0
   -0.4626   -5.1926   -2.5247 H   0  0  0  0  0  0  0  0  0  0  0  0
    0.7051   -3.5780   -3.4457 N   0  0  0  0  0  0  0  0  0  0  0  0
    1.1350   -4.0618   -4.2319 H   0  0  0  0  0  0  0  0  0  0  0  0
    0.8790   -2.2552   -3.0986 C   0  0  0  0  0  0  0  0  0  0  0  0
    1.4938   -1.5102   -3.5949 H   0  0  0  0  0  0  0  0  0  0  0  0
   -0.6618    0.8061    0.5487 C   0  0  0  0  0  0  0  0  0  0  0  0
   -1.6285    1.4093    0.0946 O   0  0  0  0  0  0  0  0  0  0  0  0
    0.2663    1.4903    1.3128 N   0  0  0  0  0  0  0  0  0  0  0  0
    1.0024    0.9414    1.7486 H   0  0  0  0  0  0  0  0  0  0  0  0
    0.1043    2.8850    1.7047 C   0  0  0  0  0  0  0  0  0  0  0  0
   -0.7954    3.0089    2.3164 H   0  0  0  0  0  0  0  0  0  0  0  0
    0.9690    3.2160    2.2878 H   0  0  0  0  0  0  0  0  0  0  0  0
    0.0203    3.5248    0.8199 H   0  0  0  0  0  0  0  0  0  0  0  0
  1  2  1  0  0  0  0
  2  3  1  0  0  0  0
  2  4  1  0  0  0  0
  2  5  1  0  0  0  0
  5  6  2  0  0  0  0
  5  7  1  0  0  0  0
  7  8  1  0  0  0  0
  7  9  1  0  0  0  0
  9 10  1  0  0  0  0
  9 11  1  0  0  0  0
  9 22  1  0  0  0  0
 11 12  1  0  0  0  0
 11 13  1  0  0  0  0
 11 14  1  0  0  0  0
 14 15  1  0  0  0  0
 14 20  2  0  0  0  0
 15 16  2  0  0  0  0
 16 17  1  0  0  0  0
 16 18  1  0  0  0  0
 18 19  1  0  0  0  0
 18 20  1  0  0  0  0
 20 21  1  0  0  0  0
 22 23  2  0  0  0  0
 22 24  1  0  0  0  0
 24 25  1  0  0  0  0
 24 26  1  0  0  0  0
 26 27  1  0  0  0  0
 26 28  1  0  0  0  0
 26 29  1  0  0  0  0
M  END
$$$$

  -OEChem-04042215593D

 29 29  0     1  0  0  0  0  0999 V2000
   -2.7760   -4.4952    1.4016 H   0  0  0  0  0  0  0  0  0  0  0  0
   -2.9192   -3.5581    0.8573 C   0  0  0  0  0  0  0  0  0  0  0  0
   -3.7958   -3.0448    1.2587 H   0  0  0  0  0  0  0  0  0  0  0  0
   -3.0888   -3.7867   -0.1977 H   0  0  0  0  0  0  0  0  0  0  0  0
   -1.6919   -2.6782    1.0005 C   0  0  0  0  0  0  0  0  0  0  0  0
   -0.7658   -3.0389    1.7137 O   0  0  0  0  0  0  0  0  0  0  0  0
   -1.6604   -1.4464    0.3774 N   0  0  0  0  0  0  0  0  0  0  0  0
   -2.4347   -1.2446   -0.2484 H   0  0  0  0  0  0  0  0  0  0  0  0
   -0.4316   -0.6654    0.1818 C   0  0  1  0  0  0  0  0  0  0  0  0
    0.3583   -1.0565    0.8306 H   0  0  0  0  0  0  0  0  0  0  0  0
    0.0873   -0.7079   -1.2793 C   0  0  0  0  0  0  0  0  0  0  0  0
   -0.5656   -0.0686   -1.8816 H   0  0  0  0  0  0  0  0  0  0  0  0
    1.0874   -0.2655   -1.3051 H   0  0  0  0  0  0  0  0  0  0  0  0
    0.1249   -2.0401   -1.9926 C   0  0  0  0  0  0  0  0  0  0  0  0
   -0.7079   -3.1422   -1.8177 N   0  0  0  0  0  0  0  0  0  0  0  0
   -0.2655   -4.0906   -2.6066 C   0  0  0  0  0  0  0  0  0  0  0  0
   -0.7022   -5.0815   -2.6935 H   0  0  0  0  0  0  0  0  0  0  0  0
    0.8342   -3.6396   -3.3080 N   0  0  0  0  0  0  0  0  0  0  0  0
    1.3691   -4.1876   -3.9791 H   0  0  0  0  0  0  0  0  0  0  0  0
    1.0887   -2.3428   -2.9162 C   0  0  0  0  0  0  0  0  0  0  0  0
    1.8895   -1.6900   -3.2501 H   0  0  0  0  0  0  0  0  0  0  0  0
   -0.6633    0.8142    0.5505 C   0  0  0  0  0  0  0  0  0  0  0  0
   -1.6370    1.4204    0.1162 O   0  0  0  0  0  0  0  0  0  0  0  0
    0.2684    1.4898    1.3178 N   0  0  0  0  0  0  0  0  0  0  0  0
    1.0127    0.9379    1.7353 H   0  0  0  0  0  0  0  0  0  0  0  0
    0.1035    2.8765    1.7355 C   0  0  0  0  0  0  0  0  0  0  0  0
   -0.7934    2.9858    2.3543 H   0  0  0  0  0  0  0  0  0  0  0  0
    0.9700    3.2001    2.3201 H   0  0  0  0  0  0  0  0  0  0  0  0
    0.0124    3.5319    0.8629 H   0  0  0  0  0  0  0  0  0  0  0  0
  1  2  1  0  0  0  0
  2  3  1  0  0  0  0
  2  4  1  0  0  0  0
  2  5  1  0  0  0  0
  5  6  2  0  0  0  0
  5  7  1  0  0  0  0
  7  8  1  0  0  0  0
  7  9  1  0  0  0  0
  9 10  1  0  0  0  0
  9 11  1  0  0  0  0
  9 22  1  0  0  0  0
 11 12  1  0  0  0  0
 11 13  1  0  0  0  0
 11 14  1  0  0  0  0
 14 15  1  0  0  0  0
 14 20  2  0  0  0  0
 15 16  2  0  0  0  0
 16 17  1  0  0  0  0
 16 18  1  0  0  0  0
 18 19  1  0  0  0  0
 18 20  1  0  0  0  0
 20 21  1  0  0  0  0
 22 23  2  0  0  0  0
 22 24  1  0  0  0  0
 24 25  1  0  0  0  0
 24 26  1  0  0  0  0
 26 27  1  0  0  0  0
 26 28  1  0  0  0  0
 26 29  1  0  0  0  0
M  END
$$$$

  -OEChem-04042215593D

 29 29  0     1  0  0  0  0  0999 V2000
   -2.7359   -4.5137    1.3287 H   0  0  0  0  0  0  0  0  0  0  0  0
   -2.8888   -3.5647    0.8077 C   0  0  0  0  0  0  0  0  0  0  0  0
   -3.7582   -3.0611    1.2365 H   0  0  0  0  0  0  0  0  0  0  0  0
   -3.0787   -3.7701   -0.2486 H   0  0  0  0  0  0  0  0  0  0  0  0
   -1.6592   -2.6865    0.9475 C   0  0  0  0  0  0  0  0  0  0  0  0
   -0.7174   -3.0641    1.6306 O   0  0  0  0  0  0  0  0  0  0  0  0
   -1.6372   -1.4451    0.3441 N   0  0  0  0  0  0  0  0  0  0  0  0
   -2.4118   -1.2427   -0.2818 H   0  0  0  0  0  0  0  0  0  0  0  0
   -0.4174   -0.6470    0.1631 C   0  0  1  0  0  0  0  0  0  0  0  0
    0.3735   -1.0372    0.8109 H   0  0  0  0  0  0  0  0  0  0  0  0
    0.1039   -0.6795   -1.2959 C   0  0  0  0  0  0  0  0  0  0  0  0
   -0.5512   -0.0467   -1.9031 H   0  0  0  0  0  0  0  0  0  0  0  0
    1.1014   -0.2314   -1.3205 H   0  0  0  0  0  0  0  0  0  0  0  0
    0.1471   -2.0215   -1.9878 C   0  0  0  0  0  0  0  0  0  0  0  0
   -0.8428   -3.0020   -1.9980 N   0  0  0  0  0  0  0  0  0  0  0  0
   -0.3700   -4.0141   -2.6841 C   0  0  0  0  0  0  0  0  0  0  0  0
   -0.9030   -4.9423   -2.8692 H   0  0  0  0  0  0  0  0  0  0  0  0
    0.9015   -3.7224   -3.1360 N   0  0  0  0  0  0  0  0  0  0  0  0
    1.4892   -4.3487   -3.6829 H   0  0  0  0  0  0  0  0  0  0  0  0
    1.2341   -2.4598   -2.6942 C   0  0  0  0  0  0  0  0  0  0  0  0
    2.1622   -1.9192   -2.8534 H   0  0  0  0  0  0  0  0  0  0  0  0
   -0.6612    0.8254    0.5515 C   0  0  0  0  0  0  0  0  0  0  0  0
   -1.6410    1.4282    0.1273 O   0  0  0  0  0  0  0  0  0  0  0  0
    0.2639    1.4982    1.3295 N   0  0  0  0  0  0  0  0  0  0  0  0
    1.0137    0.9475    1.7386 H   0  0  0  0  0  0  0  0  0  0  0  0
    0.0841    2.8762    1.7702 C   0  0  0  0  0  0  0  0  0  0  0  0
   -0.8125    2.9652    2.3923 H   0  0  0  0  0  0  0  0  0  0  0  0
    0.9481    3.2002    2.3581 H   0  0  0  0  0  0  0  0  0  0  0  0
   -0.0165    3.5450    0.9090 H   0  0  0  0  0  0  0  0  0  0  0  0
  1  2  1  0  0  0  0
  2  3  1  0  0  0  0
  2  4  1  0  0  0  0
  2  5  1  0  0  0  0
  5  6  2  0  0  0  0
  5  7  1  0  0  0  0
  7  8  1  0  0  0  0
  7  9  1  0  0  0  0
  9 10  1  0  0  0  0
  9 11  1  0  0  0  0
  9 22  1  0  0  0  0
 11 12  1  0  0  0  0
 11 13  1  0  0  0  0
 11 14  1  0  0  0  0
 14 15  1  0  0  0  0
 14 20  2  0  0  0  0
 15 16  2  0  0  0  0
 16 17  1  0  0  0  0
 16 18  1  0  0  0  0
 18 19  1  0  0  0  0
 18 20  1  0  0  0  0
 20 21  1  0  0  0  0
 22 23  2  0  0  0  0
 22 24  1  0  0  0  0
 24 25  1  0  0  0  0
 24 26  1  0  0  0  0
 26 27  1  0  0  0  0
 26 28  1  0  0  0  0
 26 29  1  0  0  0  0
M  END
$$$$

  -OEChem-04042215593D

 29 29  0     1  0  0  0  0  0999 V2000
   -2.6768   -4.5408    1.2334 H   0  0  0  0  0  0  0  0  0  0  0  0
   -2.8423   -3.5797    0.7392 C   0  0  0  0  0  0  0  0  0  0  0  0
   -3.7101   -3.0936    1.1909 H   0  0  0  0  0  0  0  0  0  0  0  0
   -3.0428   -3.7582   -0.3202 H   0  0  0  0  0  0  0  0  0  0  0  0
   -1.6181   -2.6963    0.8876 C   0  0  0  0  0  0  0  0  0  0  0  0
   -0.6583   -3.0905    1.5350 O   0  0  0  0  0  0  0  0  0  0  0  0
   -1.6098   -1.4445    0.3076 N   0  0  0  0  0  0  0  0  0  0  0  0
   -2.3911   -1.2343   -0.3082 H   0  0  0  0  0  0  0  0  0  0  0  0
   -0.4028   -0.6236    0.1452 C   0  0  1  0  0  0  0  0  0  0  0  0
    0.3903   -1.0117    0.7918 H   0  0  0  0  0  0  0  0  0  0  0  0
    0.1169   -0.6503   -1.3116 C   0  0  0  0  0  0  0  0  0  0  0  0
   -0.5377   -0.0260   -1.9278 H   0  0  0  0  0  0  0  0  0  0  0  0
    1.1141   -0.2022   -1.3369 H   0  0  0  0  0  0  0  0  0  0  0  0
    0.1639   -2.0089   -1.9648 C   0  0  0  0  0  0  0  0  0  0  0  0
   -0.9215   -2.8564   -2.1797 N   0  0  0  0  0  0  0  0  0  0  0  0
   -0.4460   -3.9365   -2.7516 C   0  0  0  0  0  0  0  0  0  0  0  0
   -1.0406   -4.7979   -3.0424 H   0  0  0  0  0  0  0  0  0  0  0  0
    0.9182   -3.8156   -2.9300 N   0  0  0  0  0  0  0  0  0  0  0  0
    1.5228   -4.5249   -3.3402 H   0  0  0  0  0  0  0  0  0  0  0  0
    1.3095   -2.5909   -2.4332 C   0  0  0  0  0  0  0  0  0  0  0  0
    2.3098   -2.1702   -2.4003 H   0  0  0  0  0  0  0  0  0  0  0  0
   -0.6617    0.8401    0.5551 C   0  0  0  0  0  0  0  0  0  0  0  0
   -1.6485    1.4376    0.1402 O   0  0  0  0  0  0  0  0  0  0  0  0
    0.2546    1.5107    1.3454 N   0  0  0  0  0  0  0  0  0  0  0  0
    1.0147    0.9647    1.7412 H   0  0  0  0  0  0  0  0  0  0  0  0
    0.0642    2.8824    1.8004 C   0  0  0  0  0  0  0  0  0  0  0  0
   -0.8424    2.9618    2.4094 H   0  0  0  0  0  0  0  0  0  0  0  0
    0.9178    3.2010    2.4062 H   0  0  0  0  0  0  0  0  0  0  0  0
   -0.0240    3.5614    0.9458 H   0  0  0  0  0  0  0  0  0  0  0  0
  1  2  1  0  0  0  0
  2  3  1  0  0  0  0
  2  4  1  0  0  0  0
  2  5  1  0  0  0  0
  5  6  2  0  0  0  0
  5  7  1  0  0  0  0
  7  8  1  0  0  0  0
  7  9  1  0  0  0  0
  9 10  1  0  0  0  0
  9 11  1  0  0  0  0
  9 22  1  0  0  0  0
 11 12  1  0  0  0  0
 11 13  1  0  0  0  0
 11 14  1  0  0  0  0
 14 15  1  0  0  0  0
 14 20  2  0  0  0  0
 15 16  2  0  0  0  0
 16 17  1  0  0  0  0
 16 18  1  0  0  0  0
 18 19  1  0  0  0  0
 18 20  1  0  0  0  0
 20 21  1  0  0  0  0
 22 23  2  0  0  0  0
 22 24  1  0  0  0  0
 24 25  1  0  0  0  0
 24 26  1  0  0  0  0
 26 27  1  0  0  0  0
 26 28  1  0  0  0  0
 26 29  1  0  0  0  0
M  END
$$$$

  -OEChem-04042215593D

 29 29  0     1  0  0  0  0  0999 V2000
   -2.6268   -4.5607    1.1531 H   0  0  0  0  0  0  0  0  0  0  0  0
   -2.7994   -3.5913    0.6779 C   0  0  0  0  0  0  0  0  0  0  0  0
   -3.6664   -3.1172    1.1440 H   0  0  0  0  0  0  0  0  0  0  0  0
   -3.0057   -3.7499   -0.3836 H   0  0  0  0  0  0  0  0  0  0  0  0
   -1.5784   -2.7056    0.8360 C   0  0  0  0  0  0  0  0  0  0  0  0
   -0.6086   -3.1102    1.4611 O   0  0  0  0  0  0  0  0  0  0  0  0
   -1.5766   -1.4462    0.2739 N   0  0  0  0  0  0  0  0  0  0  0  0
   -2.3666   -1.2214   -0.3260 H   0  0  0  0  0  0  0  0  0  0  0  0
   -0.3801   -0.6056    0.1310 C   0  0  1  0  0  0  0  0  0  0  0  0
    0.4149   -0.9911    0.7769 H   0  0  0  0  0  0  0  0  0  0  0  0
    0.1341   -0.6284   -1.3250 C   0  0  0  0  0  0  0  0  0  0  0  0
   -0.5199   -0.0117   -1.9496 H   0  0  0  0  0  0  0  0  0  0  0  0
    1.1330   -0.1843   -1.3559 H   0  0  0  0  0  0  0  0  0  0  0  0
    0.1780   -2.0037   -1.9351 C   0  0  0  0  0  0  0  0  0  0  0  0
   -0.9349   -2.7173   -2.3744 N   0  0  0  0  0  0  0  0  0  0  0  0
   -0.4831   -3.8601   -2.8331 C   0  0  0  0  0  0  0  0  0  0  0  0
   -1.1032   -4.6517   -3.2440 H   0  0  0  0  0  0  0  0  0  0  0  0
    0.8930   -3.9074   -2.7178 N   0  0  0  0  0  0  0  0  0  0  0  0
    1.4789   -4.6946   -2.9896 H   0  0  0  0  0  0  0  0  0  0  0  0
    1.3185   -2.7252   -2.1510 C   0  0  0  0  0  0  0  0  0  0  0  0
    2.3327   -2.4234   -1.9080 H   0  0  0  0  0  0  0  0  0  0  0  0
   -0.6562    0.8500    0.5556 C   0  0  0  0  0  0  0  0  0  0  0  0
   -1.6532    1.4363    0.1502 O   0  0  0  0  0  0  0  0  0  0  0  0
    0.2469    1.5227    1.3590 N   0  0  0  0  0  0  0  0  0  0  0  0
    1.0175    0.9853    1.7461 H   0  0  0  0  0  0  0  0  0  0  0  0
    0.0401    2.8895    1.8209 C   0  0  0  0  0  0  0  0  0  0  0  0
   -0.8725    2.9567    2.4222 H   0  0  0  0  0  0  0  0  0  0  0  0
    0.8853    3.2127    2.4360 H   0  0  0  0  0  0  0  0  0  0  0  0
   -0.0474    3.5721    0.9692 H   0  0  0  0  0  0  0  0  0  0  0  0
  1  2  1  0  0  0  0
  2  3  1  0  0  0  0
  2  4  1  0  0  0  0
  2  5  1  0  0  0  0
  5  6  2  0  0  0  0
  5  7  1  0  0  0  0
  7  8  1  0  0  0  0
  7  9  1  0  0  0  0
  9 10  1  0  0  0  0
  9 11  1  0  0  0  0
  9 22  1  0  0  0  0
 11 12  1  0  0  0  0
 11 13  1  0  0  0  0
 11 14  1  0  0  0  0
 14 15  1  0  0  0  0
 14 20  2  0  0  0  0
 15 16  2  0  0  0  0
 16 17  1  0  0  0  0
 16 18  1  0  0  0  0
 18 19  1  0  0  0  0
 18 20  1  0  0  0  0
 20 21  1  0  0  0  0
 22 23  2  0  0  0  0
 22 24  1  0  0  0  0
 24 25  1  0  0  0  0
 24 26  1  0  0  0  0
 26 27  1  0  0  0  0
 26 28  1  0  0  0  0
 26 29  1  0  0  0  0
M  END
$$$$

  -OEChem-04042215593D

 29 29  0     1  0  0  0  0  0999 V2000
   -2.6104   -4.5632    1.1234 H   0  0  0  0  0  0  0  0  0  0  0  0
   -2.7850   -3.5889    0.6588 C   0  0  0  0  0  0  0  0  0  0  0  0
   -3.6377   -3.1114    1.1475 H   0  0  0  0  0  0  0  0  0  0  0  0
   -3.0160   -3.7387   -0.3989 H   0  0  0  0  0  0  0  0  0  0  0  0
   -1.5534   -2.7144    0.7964 C   0  0  0  0  0  0  0  0  0  0  0  0
   -0.5679   -3.1367    1.3837 O   0  0  0  0  0  0  0  0  0  0  0  0
   -1.5526   -1.4501    0.2458 N   0  0  0  0  0  0  0  0  0  0  0  0
   -2.3672   -1.1917   -0.3064 H   0  0  0  0  0  0  0  0  0  0  0  0
   -0.3628   -0.5969    0.1147 C   0  0  1  0  0  0  0  0  0  0  0  0
    0.4327   -0.9799    0.7615 H   0  0  0  0  0  0  0  0  0  0  0  0
    0.1494   -0.6180   -1.3398 C   0  0  0  0  0  0  0  0  0  0  0  0
   -0.5035   -0.0069   -1.9713 H   0  0  0  0  0  0  0  0  0  0  0  0
    1.1496   -0.1769   -1.3750 H   0  0  0  0  0  0  0  0  0  0  0  0
    0.1925   -2.0035   -1.9206 C   0  0  0  0  0  0  0  0  0  0  0  0
   -0.8630   -2.5991   -2.6044 N   0  0  0  0  0  0  0  0  0  0  0  0
   -0.4465   -3.7932   -2.9531 C   0  0  0  0  0  0  0  0  0  0  0  0
   -1.0393   -4.5208   -3.5001 H   0  0  0  0  0  0  0  0  0  0  0  0
    0.8524   -3.9884   -2.5233 N   0  0  0  0  0  0  0  0  0  0  0  0
    1.3921   -4.8425   -2.6496 H   0  0  0  0  0  0  0  0  0  0  0  0
    1.2656   -2.8474   -1.8698 C   0  0  0  0  0  0  0  0  0  0  0  0
    2.2222   -2.6529   -1.3948 H   0  0  0  0  0  0  0  0  0  0  0  0
   -0.6512    0.8535    0.5484 C   0  0  0  0  0  0  0  0  0  0  0  0
   -1.6603    1.4280    0.1563 O   0  0  0  0  0  0  0  0  0  0  0  0
    0.2427    1.5285    1.3601 N   0  0  0  0  0  0  0  0  0  0  0  0
    1.0280    1.0015    1.7314 H   0  0  0  0  0  0  0  0  0  0  0  0
    0.0201    2.8886    1.8349 C   0  0  0  0  0  0  0  0  0  0  0  0
   -0.8968    2.9414    2.4312 H   0  0  0  0  0  0  0  0  0  0  0  0
    0.8581    3.2133    2.4590 H   0  0  0  0  0  0  0  0  0  0  0  0
   -0.0683    3.5793    0.9897 H   0  0  0  0  0  0  0  0  0  0  0  0
  1  2  1  0  0  0  0
  2  3  1  0  0  0  0
  2  4  1  0  0  0  0
  2  5  1  0  0  0  0
  5  6  2  0  0  0  0
  5  7  1  0  0  0  0
  7  8  1  0  0  0  0
  7  9  1  0  0  0  0
  9 10  1  0  0  0  0
  9 11  1  0  0  0  0
  9 22  1  0  0  0  0
 11 12  1  0  0  0  0
 11 13  1  0  0  0  0
 11 14  1  0  0  0  0
 14 15  1  0  0  0  0
 14 20  2  0  0  0  0
 15 16  2  0  0  0  0
 16 17  1  0  0  0  0
 16 18  1  0  0  0  0
 18 19  1  0  0  0  0
 18 20  1  0  0  0  0
 20 21  1  0  0  0  0
 22 23  2  0  0  0  0
 22 24  1  0  0  0  0
 24 25  1  0  0  0  0
 24 26  1  0  0  0  0
 26 27  1  0  0  0  0
 26 28  1  0  0  0  0
 26 29  1  0  0  0  0
M  END
$$$$

  -OEChem-04042215593D

 29 29  0     1  0  0  0  0  0999 V2000
   -2.6316   -4.5462    1.1501 H   0  0  0  0  0  0  0  0  0  0  0  0
   -2.8007   -3.5709    0.6859 C   0  0  0  0  0  0  0  0  0  0  0  0
   -3.6278   -3.0743    1.1987 H   0  0  0  0  0  0  0  0  0  0  0  0
   -3.0677   -3.7208   -0.3632 H   0  0  0  0  0  0  0  0  0  0  0  0
   -1.5476   -2.7219    0.7805 C   0  0  0  0  0  0  0  0  0  0  0  0
   -0.5511   -3.1637    1.3336 O   0  0  0  0  0  0  0  0  0  0  0  0
   -1.5393   -1.4575    0.2303 N   0  0  0  0  0  0  0  0  0  0  0  0
   -2.3810   -1.1564   -0.2562 H   0  0  0  0  0  0  0  0  0  0  0  0
   -0.3507   -0.6012    0.1051 C   0  0  1  0  0  0  0  0  0  0  0  0
    0.4411   -0.9806    0.7588 H   0  0  0  0  0  0  0  0  0  0  0  0
    0.1704   -0.6214   -1.3454 C   0  0  0  0  0  0  0  0  0  0  0  0
   -0.4812   -0.0116   -1.9797 H   0  0  0  0  0  0  0  0  0  0  0  0
    1.1701   -0.1799   -1.3776 H   0  0  0  0  0  0  0  0  0  0  0  0
    0.2207   -2.0062   -1.9249 C   0  0  0  0  0  0  0  0  0  0  0  0
   -0.6890   -2.4933   -2.8562 N   0  0  0  0  0  0  0  0  0  0  0  0
   -0.3275   -3.7282   -3.1121 C   0  0  0  0  0  0  0  0  0  0  0  0
   -0.8387   -4.3932   -3.8025 H   0  0  0  0  0  0  0  0  0  0  0  0
    0.7941   -4.0577   -2.3750 N   0  0  0  0  0  0  0  0  0  0  0  0
    1.2527   -4.9669   -2.3739 H   0  0  0  0  0  0  0  0  0  0  0  0
    1.1482   -2.9616   -1.6182 C   0  0  0  0  0  0  0  0  0  0  0  0
    1.9633   -2.8700   -0.9067 H   0  0  0  0  0  0  0  0  0  0  0  0
   -0.6482    0.8479    0.5368 C   0  0  0  0  0  0  0  0  0  0  0  0
   -1.6700    1.4084    0.1576 O   0  0  0  0  0  0  0  0  0  0  0  0
    0.2375    1.5276    1.3535 N   0  0  0  0  0  0  0  0  0  0  0  0
    1.0357    1.0112    1.7118 H   0  0  0  0  0  0  0  0  0  0  0  0
    0.0012    2.8825    1.8362 C   0  0  0  0  0  0  0  0  0  0  0  0
   -0.9083    2.9192    2.4450 H   0  0  0  0  0  0  0  0  0  0  0  0
    0.8428    3.2170    2.4503 H   0  0  0  0  0  0  0  0  0  0  0  0
   -0.1088    3.5750    0.9949 H   0  0  0  0  0  0  0  0  0  0  0  0
  1  2  1  0  0  0  0
  2  3  1  0  0  0  0
  2  4  1  0  0  0  0
  2  5  1  0  0  0  0
  5  6  2  0  0  0  0
  5  7  1  0  0  0  0
  7  8  1  0  0  0  0
  7  9  1  0  0  0  0
  9 10  1  0  0  0  0
  9 11  1  0  0  0  0
  9 22  1  0  0  0  0
 11 12  1  0  0  0  0
 11 13  1  0  0  0  0
 11 14  1  0  0  0  0
 14 15  1  0  0  0  0
 14 20  2  0  0  0  0
 15 16  2  0  0  0  0
 16 17  1  0  0  0  0
 16 18  1  0  0  0  0
 18 19  1  0  0  0  0
 18 20  1  0  0  0  0
 20 21  1  0  0  0  0
 22 23  2  0  0  0  0
 22 24  1  0  0  0  0
 24 25  1  0  0  0  0
 24 26  1  0  0  0  0
 26 27  1  0  0  0  0
 26 28  1  0  0  0  0
 26 29  1  0  0  0  0
M  END
$$$$

  -OEChem-04042215593D

 29 29  0     1  0  0  0  0  0999 V2000
   -2.6844   -4.5203    1.2239 H   0  0  0  0  0  0  0  0  0  0  0  0
   -2.8379   -3.5481    0.7479 C   0  0  0  0  0  0  0  0  0  0  0  0
   -3.6440   -3.0242    1.2670 H   0  0  0  0  0  0  0  0  0  0  0  0
   -3.1268   -3.7072   -0.2941 H   0  0  0  0  0  0  0  0  0  0  0  0
   -1.5637   -2.7279    0.8092 C   0  0  0  0  0  0  0  0  0  0  0  0
   -0.5714   -3.1812    1.3606 O   0  0  0  0  0  0  0  0  0  0  0  0
   -1.5356   -1.4704    0.2437 N   0  0  0  0  0  0  0  0  0  0  0  0
   -2.3894   -1.1371   -0.1992 H   0  0  0  0  0  0  0  0  0  0  0  0
   -0.3415   -0.6206    0.1214 C   0  0  1  0  0  0  0  0  0  0  0  0
    0.4418   -0.9951    0.7878 H   0  0  0  0  0  0  0  0  0  0  0  0
    0.1970   -0.6441   -1.3239 C   0  0  0  0  0  0  0  0  0  0  0  0
   -0.4544   -0.0340   -1.9583 H   0  0  0  0  0  0  0  0  0  0  0  0
    1.1942   -0.1969   -1.3512 H   0  0  0  0  0  0  0  0  0  0  0  0
    0.2599   -2.0196   -1.9258 C   0  0  0  0  0  0  0  0  0  0  0  0
   -0.4298   -2.3911   -3.0735 N   0  0  0  0  0  0  0  0  0  0  0  0
   -0.1432   -3.6534   -3.2857 C   0  0  0  0  0  0  0  0  0  0  0  0
   -0.5295   -4.2467   -4.1096 H   0  0  0  0  0  0  0  0  0  0  0  0
    0.7157   -4.1156   -2.3070 N   0  0  0  0  0  0  0  0  0  0  0  0
    1.0660   -5.0686   -2.2308 H   0  0  0  0  0  0  0  0  0  0  0  0
    0.9754   -3.0775   -1.4391 C   0  0  0  0  0  0  0  0  0  0  0  0
    1.5835   -3.0894   -0.5387 H   0  0  0  0  0  0  0  0  0  0  0  0
   -0.6468    0.8333    0.5330 C   0  0  0  0  0  0  0  0  0  0  0  0
   -1.6751    1.3789    0.1494 O   0  0  0  0  0  0  0  0  0  0  0  0
    0.2258    1.5257    1.3531 N   0  0  0  0  0  0  0  0  0  0  0  0
    1.0332    1.0237    1.7114 H   0  0  0  0  0  0  0  0  0  0  0  0
   -0.0193    2.8869    1.8139 C   0  0  0  0  0  0  0  0  0  0  0  0
   -0.9335    2.9293    2.4152 H   0  0  0  0  0  0  0  0  0  0  0  0
    0.8163    3.2335    2.4294 H   0  0  0  0  0  0  0  0  0  0  0  0
   -0.1250    3.5666    0.9618 H   0  0  0  0  0  0  0  0  0  0  0  0
  1  2  1  0  0  0  0
  2  3  1  0  0  0  0
  2  4  1  0  0  0  0
  2  5  1  0  0  0  0
  5  6  2  0  0  0  0
  5  7  1  0  0  0  0
  7  8  1  0  0  0  0
  7  9  1  0  0  0  0
  9 10  1  0  0  0  0
  9 11  1  0  0  0  0
  9 22  1  0  0  0  0
 11 12  1  0  0  0  0
 11 13  1  0  0  0  0
 11 14  1  0  0  0  0
 14 15  1  0  0  0  0
 14 20  2  0  0  0  0
 15 16  2  0  0  0  0
 16 17  1  0  0  0  0
 16 18  1  0  0  0  0
 18 19  1  0  0  0  0
 18 20  1  0  0  0  0
 20 21  1  0  0  0  0
 22 23  2  0  0  0  0
 22 24  1  0  0  0  0
 24 25  1  0  0  0  0
 24 26  1  0  0  0  0
 26 27  1  0  0  0  0
 26 28  1  0  0  0  0
 26 29  1  0  0  0  0
M  END
$$$$

  -OEChem-04042215593D

 29 29  0     1  0  0  0  0  0999 V2000
   -2.7878   -4.4652    1.3524 H   0  0  0  0  0  0  0  0  0  0  0  0
   -2.9126   -3.5059    0.8425 C   0  0  0  0  0  0  0  0  0  0  0  0
   -3.7026   -2.9406    1.3430 H   0  0  0  0  0  0  0  0  0  0  0  0
   -3.2068   -3.6927   -0.1934 H   0  0  0  0  0  0  0  0  0  0  0  0
   -1.6146   -2.7223    0.8759 C   0  0  0  0  0  0  0  0  0  0  0  0
   -0.6387   -3.1828    1.4494 O   0  0  0  0  0  0  0  0  0  0  0  0
   -1.5530   -1.4797    0.2815 N   0  0  0  0  0  0  0  0  0  0  0  0
   -2.4078   -1.1203   -0.1391 H   0  0  0  0  0  0  0  0  0  0  0  0
   -0.3460   -0.6484    0.1513 C   0  0  1  0  0  0  0  0  0  0  0  0
    0.4266   -1.0176    0.8332 H   0  0  0  0  0  0  0  0  0  0  0  0
    0.2103   -0.6877   -1.2893 C   0  0  0  0  0  0  0  0  0  0  0  0
   -0.4363   -0.0753   -1.9264 H   0  0  0  0  0  0  0  0  0  0  0  0
    1.2070   -0.2387   -1.3102 H   0  0  0  0  0  0  0  0  0  0  0  0
    0.2820   -2.0522   -1.9176 C   0  0  0  0  0  0  0  0  0  0  0  0
   -0.1350   -2.3094   -3.2180 N   0  0  0  0  0  0  0  0  0  0  0  0
    0.0936   -3.5817   -3.4398 C   0  0  0  0  0  0  0  0  0  0  0  0
   -0.1246   -4.0984   -4.3701 H   0  0  0  0  0  0  0  0  0  0  0  0
    0.6526   -4.1635   -2.3183 N   0  0  0  0  0  0  0  0  0  0  0  0
    0.9184   -5.1424   -2.2304 H   0  0  0  0  0  0  0  0  0  0  0  0
    0.7818   -3.1915   -1.3506 C   0  0  0  0  0  0  0  0  0  0  0  0
    1.1796   -3.2948   -0.3442 H   0  0  0  0  0  0  0  0  0  0  0  0
   -0.6481    0.8164    0.5266 C   0  0  0  0  0  0  0  0  0  0  0  0
   -1.6794    1.3513    0.1354 O   0  0  0  0  0  0  0  0  0  0  0  0
    0.2184    1.5225    1.3412 N   0  0  0  0  0  0  0  0  0  0  0  0
    1.0292    1.0301    1.7051 H   0  0  0  0  0  0  0  0  0  0  0  0
   -0.0325    2.8890    1.7822 C   0  0  0  0  0  0  0  0  0  0  0  0
   -0.9520    2.9377    2.3749 H   0  0  0  0  0  0  0  0  0  0  0  0
    0.7971    3.2450    2.4004 H   0  0  0  0  0  0  0  0  0  0  0  0
   -0.1319    3.5572    0.9205 H   0  0  0  0  0  0  0  0  0  0  0  0
  1  2  1  0  0  0  0
  2  3  1  0  0  0  0
  2  4  1  0  0  0  0
  2  5  1  0  0  0  0
  5  6  2  0  0  0  0
  5  7  1  0  0  0  0
  7  8  1  0  0  0  0
  7  9  1  0  0  0  0
  9 10  1  0  0  0  0
  9 11  1  0  0  0  0
  9 22  1  0  0  0  0
 11 12  1  0  0  0  0
 11 13  1  0  0  0  0
 11 14  1  0  0  0  0
 14 15  1  0  0  0  0
 14 20  2  0  0  0  0
 15 16  2  0  0  0  0
 16 17  1  0  0  0  0
 16 18  1  0  0  0  0
 18 19  1  0  0  0  0
 18 20  1  0  0  0  0
 20 21  1  0  0  0  0
 22 23  2  0  0  0  0
 22 24  1  0  0  0  0
 24 25  1  0  0  0  0
 24 26  1  0  0  0  0
 26 27  1  0  0  0  0
 26 28  1  0  0  0  0
 26 29  1  0  0  0  0
M  END
$$$$

  -OEChem-04042215593D

 29 29  0     1  0  0  0  0  0999 V2000
   -2.9158   -4.4071    1.4768 H   0  0  0  0  0  0  0  0  0  0  0  0
   -3.0082   -3.4602    0.9374 C   0  0  0  0  0  0  0  0  0  0  0  0
   -3.7822   -2.8558    1.4167 H   0  0  0  0  0  0  0  0  0  0  0  0
   -3.3044   -3.6692   -0.0936 H   0  0  0  0  0  0  0  0  0  0  0  0
   -1.6861   -2.7167    0.9548 C   0  0  0  0  0  0  0  0  0  0  0  0
   -0.7329   -3.1834    1.5594 O   0  0  0  0  0  0  0  0  0  0  0  0
   -1.5855   -1.4905    0.3326 N   0  0  0  0  0  0  0  0  0  0  0  0
   -2.4335   -1.1131   -0.0865 H   0  0  0  0  0  0  0  0  0  0  0  0
   -0.3638   -0.6816    0.1892 C   0  0  1  0  0  0  0  0  0  0  0  0
    0.4008   -1.0493    0.8810 H   0  0  0  0  0  0  0  0  0  0  0  0
    0.2011   -0.7352   -1.2505 C   0  0  0  0  0  0  0  0  0  0  0  0
   -0.4400   -0.1165   -1.8872 H   0  0  0  0  0  0  0  0  0  0  0  0
    1.1987   -0.2879   -1.2657 H   0  0  0  0  0  0  0  0  0  0  0  0
    0.2762   -2.0856   -1.9105 C   0  0  0  0  0  0  0  0  0  0  0  0
    0.1599   -2.2377   -3.2871 N   0  0  0  0  0  0  0  0  0  0  0  0
    0.3462   -3.5097   -3.5454 C   0  0  0  0  0  0  0  0  0  0  0  0
    0.3128   -3.9540   -4.5362 H   0  0  0  0  0  0  0  0  0  0  0  0
    0.6001   -4.1948   -2.3738 N   0  0  0  0  0  0  0  0  0  0  0  0
    0.8034   -5.1901   -2.3037 H   0  0  0  0  0  0  0  0  0  0  0  0
    0.5788   -3.2892   -1.3357 C   0  0  0  0  0  0  0  0  0  0  0  0
    0.7860   -3.4756   -0.2861 H   0  0  0  0  0  0  0  0  0  0  0  0
   -0.6558    0.7942    0.5288 C   0  0  0  0  0  0  0  0  0  0  0  0
   -1.6841    1.3257    0.1246 O   0  0  0  0  0  0  0  0  0  0  0  0
    0.2111    1.5111    1.3333 N   0  0  0  0  0  0  0  0  0  0  0  0
    1.0210    1.0230    1.7052 H   0  0  0  0  0  0  0  0  0  0  0  0
   -0.0259    2.8920    1.7358 C   0  0  0  0  0  0  0  0  0  0  0  0
   -0.9469    2.9677    2.3229 H   0  0  0  0  0  0  0  0  0  0  0  0
    0.8054    3.2547    2.3480 H   0  0  0  0  0  0  0  0  0  0  0  0
   -0.1144    3.5381    0.8559 H   0  0  0  0  0  0  0  0  0  0  0  0
  1  2  1  0  0  0  0
  2  3  1  0  0  0  0
  2  4  1  0  0  0  0
  2  5  1  0  0  0  0
  5  6  2  0  0  0  0
  5  7  1  0  0  0  0
  7  8  1  0  0  0  0
  7  9  1  0  0  0  0
  9 10  1  0  0  0  0
  9 11  1  0  0  0  0
  9 22  1  0  0  0  0
 11 12  1  0  0  0  0
 11 13  1  0  0  0  0
 11 14  1  0  0  0  0
 14 15  1  0  0  0  0
 14 20  2  0  0  0  0
 15 16  2  0  0  0  0
 16 17  1  0  0  0  0
 16 18  1  0  0  0  0
 18 19  1  0  0  0  0
 18 20  1  0  0  0  0
 20 21  1  0  0  0  0
 22 23  2  0  0  0  0
 22 24  1  0  0  0  0
 24 25  1  0  0  0  0
 24 26  1  0  0  0  0
 26 27  1  0  0  0  0
 26 28  1  0  0  0  0
 26 29  1  0  0  0  0
M  END
$$$$

  -OEChem-04042215593D

 29 29  0     1  0  0  0  0  0999 V2000
   -2.9628   -4.3756    1.6369 H   0  0  0  0  0  0  0  0  0  0  0  0
   -3.0523   -3.4346    1.0871 C   0  0  0  0  0  0  0  0  0  0  0  0
   -3.8047   -2.8110    1.5759 H   0  0  0  0  0  0  0  0  0  0  0  0
   -3.3766   -3.6523    0.0666 H   0  0  0  0  0  0  0  0  0  0  0  0
   -1.7179   -2.7141    1.0627 C   0  0  0  0  0  0  0  0  0  0  0  0
   -0.7623   -3.1804    1.6631 O   0  0  0  0  0  0  0  0  0  0  0  0
   -1.6080   -1.5062    0.4088 N   0  0  0  0  0  0  0  0  0  0  0  0
   -2.4621   -1.1175    0.0129 H   0  0  0  0  0  0  0  0  0  0  0  0
   -0.3809   -0.7140    0.2214 C   0  0  1  0  0  0  0  0  0  0  0  0
    0.3943   -1.0733    0.9061 H   0  0  0  0  0  0  0  0  0  0  0  0
    0.1659   -0.7771   -1.2277 C   0  0  0  0  0  0  0  0  0  0  0  0
   -0.4804   -0.1515   -1.8525 H   0  0  0  0  0  0  0  0  0  0  0  0
    1.1629   -0.3282   -1.2484 H   0  0  0  0  0  0  0  0  0  0  0  0
    0.2452   -2.1069   -1.9316 C   0  0  0  0  0  0  0  0  0  0  0  0
    0.4259   -2.1568   -3.3093 N   0  0  0  0  0  0  0  0  0  0  0  0
    0.5620   -3.4188   -3.6356 C   0  0  0  0  0  0  0  0  0  0  0  0
    0.7141   -3.7870   -4.6462 H   0  0  0  0  0  0  0  0  0  0  0  0
    0.4986   -4.2031   -2.5023 N   0  0  0  0  0  0  0  0  0  0  0  0
    0.6224   -5.2134   -2.4775 H   0  0  0  0  0  0  0  0  0  0  0  0
    0.3293   -3.3720   -1.4160 C   0  0  0  0  0  0  0  0  0  0  0  0
    0.3261   -3.6545   -0.3700 H   0  0  0  0  0  0  0  0  0  0  0  0
   -0.6653    0.7703    0.5325 C   0  0  0  0  0  0  0  0  0  0  0  0
   -1.7061    1.2903    0.1444 O   0  0  0  0  0  0  0  0  0  0  0  0
    0.2163    1.5049    1.3045 N   0  0  0  0  0  0  0  0  0  0  0  0
    1.0423    1.0301    1.6578 H   0  0  0  0  0  0  0  0  0  0  0  0
   -0.0142    2.8940    1.6817 C   0  0  0  0  0  0  0  0  0  0  0  0
   -0.9460    2.9881    2.2493 H   0  0  0  0  0  0  0  0  0  0  0  0
    0.8080    3.2577    2.3054 H   0  0  0  0  0  0  0  0  0  0  0  0
   -0.0784    3.5270    0.7904 H   0  0  0  0  0  0  0  0  0  0  0  0
  1  2  1  0  0  0  0
  2  3  1  0  0  0  0
  2  4  1  0  0  0  0
  2  5  1  0  0  0  0
  5  6  2  0  0  0  0
  5  7  1  0  0  0  0
  7  8  1  0  0  0  0
  7  9  1  0  0  0  0
  9 10  1  0  0  0  0
  9 11  1  0  0  0  0
  9 22  1  0  0  0  0
 11 12  1  0  0  0  0
 11 13  1  0  0  0  0
 11 14  1  0  0  0  0
 14 15  1  0  0  0  0
 14 20  2  0  0  0  0
 15 16  2  0  0  0  0
 16 17  1  0  0  0  0
 16 18  1  0  0  0  0
 18 19  1  0  0  0  0
 18 20  1  0  0  0  0
 20 21  1  0  0  0  0
 22 23  2  0  0  0  0
 22 24  1  0  0  0  0
 24 25  1  0  0  0  0
 24 26  1  0  0  0  0
 26 27  1  0  0  0  0
 26 28  1  0  0  0  0
 26 29  1  0  0  0  0
M  END
$$$$

  -OEChem-04042215593D

 29 29  0     1  0  0  0  0  0999 V2000
   -3.0605   -4.2499    1.9599 H   0  0  0  0  0  0  0  0  0  0  0  0
   -3.1666   -3.2998    1.4289 C   0  0  0  0  0  0  0  0  0  0  0  0
   -3.7393   -2.6099    2.0535 H   0  0  0  0  0  0  0  0  0  0  0  0
   -3.7112   -3.4751    0.4981 H   0  0  0  0  0  0  0  0  0  0  0  0
   -1.8004   -2.7128    1.1286 C   0  0  0  0  0  0  0  0  0  0  0  0
   -0.7930   -3.3019    1.4849 O   0  0  0  0  0  0  0  0  0  0  0  0
   -1.7045   -1.5164    0.4503 N   0  0  0  0  0  0  0  0  0  0  0  0
   -2.5750   -1.0236    0.2544 H   0  0  0  0  0  0  0  0  0  0  0  0
   -0.4636   -0.7657    0.1999 C   0  0  1  0  0  0  0  0  0  0  0  0
    0.3036   -1.1299    0.8911 H   0  0  0  0  0  0  0  0  0  0  0  0
    0.1256   -0.8475   -1.2372 C   0  0  0  0  0  0  0  0  0  0  0  0
   -0.3056   -0.0251   -1.8177 H   0  0  0  0  0  0  0  0  0  0  0  0
    1.2000   -0.6547   -1.1651 H   0  0  0  0  0  0  0  0  0  0  0  0
   -0.0497   -2.0615   -2.1185 C   0  0  0  0  0  0  0  0  0  0  0  0
    0.5188   -2.0237   -3.3885 N   0  0  0  0  0  0  0  0  0  0  0  0
    0.3024   -3.1874   -3.9498 C   0  0  0  0  0  0  0  0  0  0  0  0
    0.6273   -3.4680   -4.9476 H   0  0  0  0  0  0  0  0  0  0  0  0
   -0.3895   -4.0013   -3.0787 N   0  0  0  0  0  0  0  0  0  0  0  0
   -0.6470   -4.9699   -3.2572 H   0  0  0  0  0  0  0  0  0  0  0  0
   -0.5992   -3.2996   -1.9112 C   0  0  0  0  0  0  0  0  0  0  0  0
   -1.0621   -3.6769   -1.0117 H   0  0  0  0  0  0  0  0  0  0  0  0
   -0.7133    0.7261    0.5083 C   0  0  0  0  0  0  0  0  0  0  0  0
   -1.7787    1.2454    0.1922 O   0  0  0  0  0  0  0  0  0  0  0  0
    0.2088    1.4549    1.2370 N   0  0  0  0  0  0  0  0  0  0  0  0
    1.0596    0.9819    1.5290 H   0  0  0  0  0  0  0  0  0  0  0  0
    0.0046    2.8444    1.6278 C   0  0  0  0  0  0  0  0  0  0  0  0
   -0.8886    2.9393    2.2542 H   0  0  0  0  0  0  0  0  0  0  0  0
    0.8660    3.2071    2.1969 H   0  0  0  0  0  0  0  0  0  0  0  0
   -0.1160    3.4776    0.7425 H   0  0  0  0  0  0  0  0  0  0  0  0
  1  2  1  0  0  0  0
  2  3  1  0  0  0  0
  2  4  1  0  0  0  0
  2  5  1  0  0  0  0
  5  6  2  0  0  0  0
  5  7  1  0  0  0  0
  7  8  1  0  0  0  0
  7  9  1  0  0  0  0
  9 10  1  0  0  0  0
  9 11  1  0  0  0  0
  9 22  1  0  0  0  0
 11 12  1  0  0  0  0
 11 13  1  0  0  0  0
 11 14  1  0  0  0  0
 14 15  1  0  0  0  0
 14 20  2  0  0  0  0
 15 16  2  0  0  0  0
 16 17  1  0  0  0  0
 16 18  1  0  0  0  0
 18 19  1  0  0  0  0
 18 20  1  0  0  0  0
 20 21  1  0  0  0  0
 22 23  2  0  0  0  0
 22 24  1  0  0  0  0
 24 25  1  0  0  0  0
 24 26  1  0  0  0  0
 26 27  1  0  0  0  0
 26 28  1  0  0  0  0
 26 29  1  0  0  0  0
M  END
$$$$

  -OEChem-04042215593D

 29 29  0     1  0  0  0  0  0999 V2000
   -3.0461   -4.2712    1.9224 H   0  0  0  0  0  0  0  0  0  0  0  0
   -3.1612   -3.2965    1.4399 C   0  0  0  0  0  0  0  0  0  0  0  0
   -3.6938   -2.6272    2.1202 H   0  0  0  0  0  0  0  0  0  0  0  0
   -3.7509   -3.4227    0.5288 H   0  0  0  0  0  0  0  0  0  0  0  0
   -1.8005   -2.7168    1.1023 C   0  0  0  0  0  0  0  0  0  0  0  0
   -0.7885   -3.3235    1.4102 O   0  0  0  0  0  0  0  0  0  0  0  0
   -1.7179   -1.5102    0.4380 N   0  0  0  0  0  0  0  0  0  0  0  0
   -2.5871   -0.9973    0.2948 H   0  0  0  0  0  0  0  0  0  0  0  0
   -0.4748   -0.7638    0.1899 C   0  0  1  0  0  0  0  0  0  0  0  0
    0.2883   -1.1383    0.8802 H   0  0  0  0  0  0  0  0  0  0  0  0
    0.1243   -0.8447   -1.2419 C   0  0  0  0  0  0  0  0  0  0  0  0
   -0.2818   -0.0143   -1.8281 H   0  0  0  0  0  0  0  0  0  0  0  0
    1.2005   -0.6708   -1.1500 H   0  0  0  0  0  0  0  0  0  0  0  0
   -0.0528   -2.0615   -2.1196 C   0  0  0  0  0  0  0  0  0  0  0  0
    0.7689   -2.1784   -3.2368 N   0  0  0  0  0  0  0  0  0  0  0  0
    0.4517   -3.2973   -3.8398 C   0  0  0  0  0  0  0  0  0  0  0  0
    0.9218   -3.6718   -4.7447 H   0  0  0  0  0  0  0  0  0  0  0  0
   -0.5673   -3.9230   -3.1532 N   0  0  0  0  0  0  0  0  0  0  0  0
   -0.9859   -4.8157   -3.4067 H   0  0  0  0  0  0  0  0  0  0  0  0
   -0.8922   -3.1437   -2.0636 C   0  0  0  0  0  0  0  0  0  0  0  0
   -1.6516   -3.3539   -1.3250 H   0  0  0  0  0  0  0  0  0  0  0  0
   -0.7087    0.7254    0.5187 C   0  0  0  0  0  0  0  0  0  0  0  0
   -1.7737    1.2549    0.2186 O   0  0  0  0  0  0  0  0  0  0  0  0
    0.2239    1.4383    1.2498 N   0  0  0  0  0  0  0  0  0  0  0  0
    1.0781    0.9587    1.5205 H   0  0  0  0  0  0  0  0  0  0  0  0
    0.0373    2.8275    1.6499 C   0  0  0  0  0  0  0  0  0  0  0  0
   -0.8521    2.9287    2.2807 H   0  0  0  0  0  0  0  0  0  0  0  0
    0.9049    3.1771    2.2177 H   0  0  0  0  0  0  0  0  0  0  0  0
   -0.0799    3.4672    0.7688 H   0  0  0  0  0  0  0  0  0  0  0  0
  1  2  1  0  0  0  0
  2  3  1  0  0  0  0
  2  4  1  0  0  0  0
  2  5  1  0  0  0  0
  5  6  2  0  0  0  0
  5  7  1  0  0  0  0
  7  8  1  0  0  0  0
  7  9  1  0  0  0  0
  9 10  1  0  0  0  0
  9 11  1  0  0  0  0
  9 22  1  0  0  0  0
 11 12  1  0  0  0  0
 11 13  1  0  0  0  0
 11 14  1  0  0  0  0
 14 15  1  0  0  0  0
 14 20  2  0  0  0  0
 15 16  2  0  0  0  0
 16 17  1  0  0  0  0
 16 18  1  0  0  0  0
 18 19  1  0  0  0  0
 18 20  1  0  0  0  0
 20 21  1  0  0  0  0
 22 23  2  0  0  0  0
 22 24  1  0  0  0  0
 24 25  1  0  0  0  0
 24 26  1  0  0  0  0
 26 27  1  0  0  0  0
 26 28  1  0  0  0  0
 26 29  1  0  0  0  0
M  END
$$$$

  -OEChem-04042215593D

 29 29  0     1  0  0  0  0  0999 V2000
   -2.9807   -4.3091    1.8614 H   0  0  0  0  0  0  0  0  0  0  0  0
   -3.1137   -3.3402    1.3715 C   0  0  0  0  0  0  0  0  0  0  0  0
   -3.6652   -2.6788    2.0445 H   0  0  0  0  0  0  0  0  0  0  0  0
   -3.6939   -3.4847    0.4572 H   0  0  0  0  0  0  0  0  0  0  0  0
   -1.7635   -2.7326    1.0397 C   0  0  0  0  0  0  0  0  0  0  0  0
   -0.7412   -3.3233    1.3449 O   0  0  0  0  0  0  0  0  0  0  0  0
   -1.7048   -1.5080    0.4055 N   0  0  0  0  0  0  0  0  0  0  0  0
   -2.5818   -1.0022    0.2891 H   0  0  0  0  0  0  0  0  0  0  0  0
   -0.4726   -0.7405    0.1683 C   0  0  1  0  0  0  0  0  0  0  0  0
    0.2964   -1.1212    0.8485 H   0  0  0  0  0  0  0  0  0  0  0  0
    0.1197   -0.8091   -1.2652 C   0  0  0  0  0  0  0  0  0  0  0  0
   -0.2930    0.0164   -1.8533 H   0  0  0  0  0  0  0  0  0  0  0  0
    1.1962   -0.6317   -1.1809 H   0  0  0  0  0  0  0  0  0  0  0  0
   -0.0700   -2.0439   -2.1134 C   0  0  0  0  0  0  0  0  0  0  0  0
    0.9050   -2.3774   -3.0481 N   0  0  0  0  0  0  0  0  0  0  0  0
    0.4940   -3.4567   -3.6669 C   0  0  0  0  0  0  0  0  0  0  0  0
    1.0420   -3.9704   -4.4516 H   0  0  0  0  0  0  0  0  0  0  0  0
   -0.7397   -3.8348   -3.1787 N   0  0  0  0  0  0  0  0  0  0  0  0
   -1.2740   -4.6423   -3.4926 H   0  0  0  0  0  0  0  0  0  0  0  0
   -1.1097   -2.9328   -2.2044 C   0  0  0  0  0  0  0  0  0  0  0  0
   -2.0342   -2.9191   -1.6419 H   0  0  0  0  0  0  0  0  0  0  0  0
   -0.7092    0.7392    0.5316 C   0  0  0  0  0  0  0  0  0  0  0  0
   -1.7752    1.2722    0.2421 O   0  0  0  0  0  0  0  0  0  0  0  0
    0.2259    1.4400    1.2708 N   0  0  0  0  0  0  0  0  0  0  0  0
    1.0823    0.9567    1.5284 H   0  0  0  0  0  0  0  0  0  0  0  0
    0.0428    2.8233    1.6921 C   0  0  0  0  0  0  0  0  0  0  0  0
   -0.8358    2.9138    2.3394 H   0  0  0  0  0  0  0  0  0  0  0  0
    0.9193    3.1677    2.2492 H   0  0  0  0  0  0  0  0  0  0  0  0
   -0.0903    3.4746    0.8218 H   0  0  0  0  0  0  0  0  0  0  0  0
  1  2  1  0  0  0  0
  2  3  1  0  0  0  0
  2  4  1  0  0  0  0
  2  5  1  0  0  0  0
  5  6  2  0  0  0  0
  5  7  1  0  0  0  0
  7  8  1  0  0  0  0
  7  9  1  0  0  0  0
  9 10  1  0  0  0  0
  9 11  1  0  0  0  0
  9 22  1  0  0  0  0
 11 12  1  0  0  0  0
 11 13  1  0  0  0  0
 11 14  1  0  0  0  0
 14 15  1  0  0  0  0
 14 20  2  0  0  0  0
 15 16  2  0  0  0  0
 16 17  1  0  0  0  0
 16 18  1  0  0  0  0
 18 19  1  0  0  0  0
 18 20  1  0  0  0  0
 20 21  1  0  0  0  0
 22 23  2  0  0  0  0
 22 24  1  0  0  0  0
 24 25  1  0  0  0  0
 24 26  1  0  0  0  0
 26 27  1  0  0  0  0
 26 28  1  0  0  0  0
 26 29  1  0  0  0  0
M  END
$$$$

  -OEChem-04042215593D

 29 29  0     1  0  0  0  0  0999 V2000
   -2.9168   -4.3498    1.7477 H   0  0  0  0  0  0  0  0  0  0  0  0
   -3.0610   -3.3874    1.2486 C   0  0  0  0  0  0  0  0  0  0  0  0
   -3.6634   -2.7434    1.8939 H   0  0  0  0  0  0  0  0  0  0  0  0
   -3.5945   -3.5540    0.3099 H   0  0  0  0  0  0  0  0  0  0  0  0
   -1.7191   -2.7358    0.9732 C   0  0  0  0  0  0  0  0  0  0  0  0
   -0.6911   -3.3019    1.3050 O   0  0  0  0  0  0  0  0  0  0  0  0
   -1.6760   -1.4983    0.3640 N   0  0  0  0  0  0  0  0  0  0  0  0
   -2.5613   -1.0110    0.2370 H   0  0  0  0  0  0  0  0  0  0  0  0
   -0.4546   -0.7084    0.1448 C   0  0  1  0  0  0  0  0  0  0  0  0
    0.3199   -1.0906    0.8181 H   0  0  0  0  0  0  0  0  0  0  0  0
    0.1271   -0.7729   -1.2910 C   0  0  0  0  0  0  0  0  0  0  0  0
   -0.3091    0.0375   -1.8827 H   0  0  0  0  0  0  0  0  0  0  0  0
    1.2031   -0.5828   -1.2323 H   0  0  0  0  0  0  0  0  0  0  0  0
   -0.0843   -2.0338   -2.0898 C   0  0  0  0  0  0  0  0  0  0  0  0
    0.9605   -2.6065   -2.8059 N   0  0  0  0  0  0  0  0  0  0  0  0
    0.4652   -3.6404   -3.4411 C   0  0  0  0  0  0  0  0  0  0  0  0
    1.0365   -4.3087   -4.0789 H   0  0  0  0  0  0  0  0  0  0  0  0
   -0.8887   -3.7432   -3.1899 N   0  0  0  0  0  0  0  0  0  0  0  0
   -1.5055   -4.4547   -3.5767 H   0  0  0  0  0  0  0  0  0  0  0  0
   -1.2473   -2.7095   -2.3515 C   0  0  0  0  0  0  0  0  0  0  0  0
   -2.2367   -2.4620   -1.9840 H   0  0  0  0  0  0  0  0  0  0  0  0
   -0.7014    0.7622    0.5321 C   0  0  0  0  0  0  0  0  0  0  0  0
   -1.7673    1.2948    0.2413 O   0  0  0  0  0  0  0  0  0  0  0  0
    0.2287    1.4560    1.2840 N   0  0  0  0  0  0  0  0  0  0  0  0
    1.0805    0.9674    1.5469 H   0  0  0  0  0  0  0  0  0  0  0  0
    0.0289    2.8238    1.7456 C   0  0  0  0  0  0  0  0  0  0  0  0
   -0.8575    2.8869    2.3855 H   0  0  0  0  0  0  0  0  0  0  0  0
    0.8963    3.1581    2.3230 H   0  0  0  0  0  0  0  0  0  0  0  0
   -0.1010    3.5001    0.8943 H   0  0  0  0  0  0  0  0  0  0  0  0
  1  2  1  0  0  0  0
  2  3  1  0  0  0  0
  2  4  1  0  0  0  0
  2  5  1  0  0  0  0
  5  6  2  0  0  0  0
  5  7  1  0  0  0  0
  7  8  1  0  0  0  0
  7  9  1  0  0  0  0
  9 10  1  0  0  0  0
  9 11  1  0  0  0  0
  9 22  1  0  0  0  0
 11 12  1  0  0  0  0
 11 13  1  0  0  0  0
 11 14  1  0  0  0  0
 14 15  1  0  0  0  0
 14 20  2  0  0  0  0
 15 16  2  0  0  0  0
 16 17  1  0  0  0  0
 16 18  1  0  0  0  0
 18 19  1  0  0  0  0
 18 20  1  0  0  0  0
 20 21  1  0  0  0  0
 22 23  2  0  0  0  0
 22 24  1  0  0  0  0
 24 25  1  0  0  0  0
 24 26  1  0  0  0  0
 26 27  1  0  0  0  0
 26 28  1  0  0  0  0
 26 29  1  0  0  0  0
M  END
$$$$

  -OEChem-04042215593D

 29 29  0     1  0  0  0  0  0999 V2000
   -2.8764   -4.3953    1.6386 H   0  0  0  0  0  0  0  0  0  0  0  0
   -3.0223   -3.4312    1.1434 C   0  0  0  0  0  0  0  0  0  0  0  0
   -3.6662   -2.8082    1.7691 H   0  0  0  0  0  0  0  0  0  0  0  0
   -3.5113   -3.6004    0.1812 H   0  0  0  0  0  0  0  0  0  0  0  0
   -1.6854   -2.7466    0.9304 C   0  0  0  0  0  0  0  0  0  0  0  0
   -0.6606   -3.2886    1.3089 O   0  0  0  0  0  0  0  0  0  0  0  0
   -1.6466   -1.5019    0.3362 N   0  0  0  0  0  0  0  0  0  0  0  0
   -2.5369   -1.0374    0.1697 H   0  0  0  0  0  0  0  0  0  0  0  0
   -0.4319   -0.6952    0.1384 C   0  0  1  0  0  0  0  0  0  0  0  0
    0.3473   -1.0797    0.8049 H   0  0  0  0  0  0  0  0  0  0  0  0
    0.1337   -0.7442   -1.3019 C   0  0  0  0  0  0  0  0  0  0  0  0
   -0.3219    0.0612   -1.8861 H   0  0  0  0  0  0  0  0  0  0  0  0
    1.2098   -0.5496   -1.2690 H   0  0  0  0  0  0  0  0  0  0  0  0
   -0.1037   -2.0158   -2.0693 C   0  0  0  0  0  0  0  0  0  0  0  0
    0.9393   -2.7967   -2.5507 N   0  0  0  0  0  0  0  0  0  0  0  0
    0.3924   -3.7756   -3.2294 C   0  0  0  0  0  0  0  0  0  0  0  0
    0.9438   -4.5698   -3.7244 H   0  0  0  0  0  0  0  0  0  0  0  0
   -0.9827   -3.6377   -3.2346 N   0  0  0  0  0  0  0  0  0  0  0  0
   -1.6330   -4.2593   -3.7109 H   0  0  0  0  0  0  0  0  0  0  0  0
   -1.3018   -2.5043   -2.5176 C   0  0  0  0  0  0  0  0  0  0  0  0
   -2.2805   -2.0693   -2.3446 H   0  0  0  0  0  0  0  0  0  0  0  0
   -0.6926    0.7692    0.5377 C   0  0  0  0  0  0  0  0  0  0  0  0
   -1.7514    1.3031    0.2240 O   0  0  0  0  0  0  0  0  0  0  0  0
    0.2245    1.4628    1.3049 N   0  0  0  0  0  0  0  0  0  0  0  0
    1.0692    0.9722    1.5865 H   0  0  0  0  0  0  0  0  0  0  0  0
    0.0160    2.8305    1.7632 C   0  0  0  0  0  0  0  0  0  0  0  0
   -0.8811    2.8931    2.3881 H   0  0  0  0  0  0  0  0  0  0  0  0
    0.8735    3.1654    2.3549 H   0  0  0  0  0  0  0  0  0  0  0  0
   -0.1003    3.5065    0.9097 H   0  0  0  0  0  0  0  0  0  0  0  0
  1  2  1  0  0  0  0
  2  3  1  0  0  0  0
  2  4  1  0  0  0  0
  2  5  1  0  0  0  0
  5  6  2  0  0  0  0
  5  7  1  0  0  0  0
  7  8  1  0  0  0  0
  7  9  1  0  0  0  0
  9 10  1  0  0  0  0
  9 11  1  0  0  0  0
  9 22  1  0  0  0  0
 11 12  1  0  0  0  0
 11 13  1  0  0  0  0
 11 14  1  0  0  0  0
 14 15  1  0  0  0  0
 14 20  2  0  0  0  0
 15 16  2  0  0  0  0
 16 17  1  0  0  0  0
 16 18  1  0  0  0  0
 18 19  1  0  0  0  0
 18 20  1  0  0  0  0
 20 21  1  0  0  0  0
 22 23  2  0  0  0  0
 22 24  1  0  0  0  0
 24 25  1  0  0  0  0
 24 26  1  0  0  0  0
 26 27  1  0  0  0  0
 26 28  1  0  0  0  0
 26 29  1  0  0  0  0
M  END
$$$$

  -OEChem-04042215593D

 29 29  0     1  0  0  0  0  0999 V2000
   -2.8402   -4.4324    1.5200 H   0  0  0  0  0  0  0  0  0  0  0  0
   -2.9850   -3.4665    1.0281 C   0  0  0  0  0  0  0  0  0  0  0  0
   -3.6780   -2.8677    1.6241 H   0  0  0  0  0  0  0  0  0  0  0  0
   -3.4160   -3.6370    0.0388 H   0  0  0  0  0  0  0  0  0  0  0  0
   -1.6575   -2.7447    0.8947 C   0  0  0  0  0  0  0  0  0  0  0  0
   -0.6418   -3.2598    1.3312 O   0  0  0  0  0  0  0  0  0  0  0  0
   -1.6215   -1.4941    0.3129 N   0  0  0  0  0  0  0  0  0  0  0  0
   -2.5123   -1.0600    0.0825 H   0  0  0  0  0  0  0  0  0  0  0  0
   -0.4120   -0.6757    0.1283 C   0  0  1  0  0  0  0  0  0  0  0  0
    0.3743   -1.0632    0.7849 H   0  0  0  0  0  0  0  0  0  0  0  0
    0.1318   -0.7138   -1.3197 C   0  0  0  0  0  0  0  0  0  0  0  0
   -0.3385    0.0904   -1.8937 H   0  0  0  0  0  0  0  0  0  0  0  0
    1.2083   -0.5198   -1.3117 H   0  0  0  0  0  0  0  0  0  0  0  0
   -0.1305   -1.9927   -2.0625 C   0  0  0  0  0  0  0  0  0  0  0  0
    0.8499   -2.9455   -2.3016 N   0  0  0  0  0  0  0  0  0  0  0  0
    0.2858   -3.8890   -3.0152 C   0  0  0  0  0  0  0  0  0  0  0  0
    0.7877   -4.7888   -3.3592 H   0  0  0  0  0  0  0  0  0  0  0  0
   -1.0322   -3.5622   -3.2763 N   0  0  0  0  0  0  0  0  0  0  0  0
   -1.6764   -4.1220   -3.8313 H   0  0  0  0  0  0  0  0  0  0  0  0
   -1.2965   -2.3435   -2.6877 C   0  0  0  0  0  0  0  0  0  0  0  0
   -2.2164   -1.7675   -2.7081 H   0  0  0  0  0  0  0  0  0  0  0  0
   -0.6810    0.7842    0.5389 C   0  0  0  0  0  0  0  0  0  0  0  0
   -1.7314    1.3239    0.2066 O   0  0  0  0  0  0  0  0  0  0  0  0
    0.2300    1.4755    1.3158 N   0  0  0  0  0  0  0  0  0  0  0  0
    1.0630    0.9771    1.6181 H   0  0  0  0  0  0  0  0  0  0  0  0
    0.0123    2.8374    1.7868 C   0  0  0  0  0  0  0  0  0  0  0  0
   -0.8691    2.8825    2.4349 H   0  0  0  0  0  0  0  0  0  0  0  0
    0.8796    3.1829    2.3576 H   0  0  0  0  0  0  0  0  0  0  0  0
   -0.1361    3.5166    0.9407 H   0  0  0  0  0  0  0  0  0  0  0  0
  1  2  1  0  0  0  0
  2  3  1  0  0  0  0
  2  4  1  0  0  0  0
  2  5  1  0  0  0  0
  5  6  2  0  0  0  0
  5  7  1  0  0  0  0
  7  8  1  0  0  0  0
  7  9  1  0  0  0  0
  9 10  1  0  0  0  0
  9 11  1  0  0  0  0
  9 22  1  0  0  0  0
 11 12  1  0  0  0  0
 11 13  1  0  0  0  0
 11 14  1  0  0  0  0
 14 15  1  0  0  0  0
 14 20  2  0  0  0  0
 15 16  2  0  0  0  0
 16 17  1  0  0  0  0
 16 18  1  0  0  0  0
 18 19  1  0  0  0  0
 18 20  1  0  0  0  0
 20 21  1  0  0  0  0
 22 23  2  0  0  0  0
 22 24  1  0  0  0  0
 24 25  1  0  0  0  0
 24 26  1  0  0  0  0
 26 27  1  0  0  0  0
 26 28  1  0  0  0  0
 26 29  1  0  0  0  0
M  END
$$$$

  -OEChem-04042215593D

 29 29  0     1  0  0  0  0  0999 V2000
   -2.7965   -4.4791    1.4174 H   0  0  0  0  0  0  0  0  0  0  0  0
   -2.9466   -3.5126    0.9280 C   0  0  0  0  0  0  0  0  0  0  0  0
   -3.6968   -2.9476    1.4862 H   0  0  0  0  0  0  0  0  0  0  0  0
   -3.3095   -3.6850   -0.0880 H   0  0  0  0  0  0  0  0  0  0  0  0
   -1.6411   -2.7411    0.8852 C   0  0  0  0  0  0  0  0  0  0  0  0
   -0.6421   -3.2163    1.3992 O   0  0  0  0  0  0  0  0  0  0  0  0
   -1.6124   -1.4873    0.3097 N   0  0  0  0  0  0  0  0  0  0  0  0
   -2.4969   -1.0936   -0.0012 H   0  0  0  0  0  0  0  0  0  0  0  0
   -0.4068   -0.6612    0.1310 C   0  0  1  0  0  0  0  0  0  0  0  0
    0.3859   -1.0511    0.7780 H   0  0  0  0  0  0  0  0  0  0  0  0
    0.1187   -0.6881   -1.3242 C   0  0  0  0  0  0  0  0  0  0  0  0
   -0.3571    0.1200   -1.8885 H   0  0  0  0  0  0  0  0  0  0  0  0
    1.1959   -0.4991   -1.3294 H   0  0  0  0  0  0  0  0  0  0  0  0
   -0.1584   -1.9677   -2.0587 C   0  0  0  0  0  0  0  0  0  0  0  0
    0.7059   -3.0527   -2.0620 N   0  0  0  0  0  0  0  0  0  0  0  0
    0.1565   -3.9644   -2.8264 C   0  0  0  0  0  0  0  0  0  0  0  0
    0.5838   -4.9422   -3.0295 H   0  0  0  0  0  0  0  0  0  0  0  0
   -1.0366   -3.4924   -3.3426 N   0  0  0  0  0  0  0  0  0  0  0  0
   -1.6410   -4.0026   -3.9837 H   0  0  0  0  0  0  0  0  0  0  0  0
   -1.2342   -2.2129   -2.8674 C   0  0  0  0  0  0  0  0  0  0  0  0
   -2.0530   -1.5320   -3.0786 H   0  0  0  0  0  0  0  0  0  0  0  0
   -0.6774    0.7967    0.5477 C   0  0  0  0  0  0  0  0  0  0  0  0
   -1.7150    1.3480    0.1948 O   0  0  0  0  0  0  0  0  0  0  0  0
    0.2340    1.4837    1.3281 N   0  0  0  0  0  0  0  0  0  0  0  0
    1.0553    0.9755    1.6459 H   0  0  0  0  0  0  0  0  0  0  0  0
    0.0294    2.8517    1.7872 C   0  0  0  0  0  0  0  0  0  0  0  0
   -0.8645    2.9151    2.4164 H   0  0  0  0  0  0  0  0  0  0  0  0
    0.8905    3.1850    2.3743 H   0  0  0  0  0  0  0  0  0  0  0  0
   -0.0895    3.5285    0.9347 H   0  0  0  0  0  0  0  0  0  0  0  0
  1  2  1  0  0  0  0
  2  3  1  0  0  0  0
  2  4  1  0  0  0  0
  2  5  1  0  0  0  0
  5  6  2  0  0  0  0
  5  7  1  0  0  0  0
  7  8  1  0  0  0  0
  7  9  1  0  0  0  0
  9 10  1  0  0  0  0
  9 11  1  0  0  0  0
  9 22  1  0  0  0  0
 11 12  1  0  0  0  0
 11 13  1  0  0  0  0
 11 14  1  0  0  0  0
 14 15  1  0  0  0  0
 14 20  2  0  0  0  0
 15 16  2  0  0  0  0
 16 17  1  0  0  0  0
 16 18  1  0  0  0  0
 18 19  1  0  0  0  0
 18 20  1  0  0  0  0
 20 21  1  0  0  0  0
 22 23  2  0  0  0  0
 22 24  1  0  0  0  0
 24 25  1  0  0  0  0
 24 26  1  0  0  0  0
 26 27  1  0  0  0  0
 26 28  1  0  0  0  0
 26 29  1  0  0  0  0
M  END
$$$$

  -OEChem-04042215593D

 29 29  0     1  0  0  0  0  0999 V2000
   -2.7548   -4.5093    1.3371 H   0  0  0  0  0  0  0  0  0  0  0  0
   -2.9056   -3.5455    0.8426 C   0  0  0  0  0  0  0  0  0  0  0  0
   -3.7132   -3.0115    1.3490 H   0  0  0  0  0  0  0  0  0  0  0  0
   -3.1892   -3.7243   -0.1972 H   0  0  0  0  0  0  0  0  0  0  0  0
   -1.6294   -2.7271    0.8946 C   0  0  0  0  0  0  0  0  0  0  0  0
   -0.6606   -3.1574    1.4990 O   0  0  0  0  0  0  0  0  0  0  0  0
   -1.6035   -1.4753    0.3140 N   0  0  0  0  0  0  0  0  0  0  0  0
   -2.4669   -1.1342   -0.0998 H   0  0  0  0  0  0  0  0  0  0  0  0
   -0.3973   -0.6500    0.1371 C   0  0  1  0  0  0  0  0  0  0  0  0
    0.3991   -1.0411    0.7787 H   0  0  0  0  0  0  0  0  0  0  0  0
    0.1128   -0.6751   -1.3244 C   0  0  0  0  0  0  0  0  0  0  0  0
   -0.3590    0.1398   -1.8823 H   0  0  0  0  0  0  0  0  0  0  0  0
    1.1915   -0.4964   -1.3352 H   0  0  0  0  0  0  0  0  0  0  0  0
   -0.1761   -1.9518   -2.0607 C   0  0  0  0  0  0  0  0  0  0  0  0
    0.5124   -3.1375   -1.8512 N   0  0  0  0  0  0  0  0  0  0  0  0
   -0.0030   -4.0206   -2.6703 C   0  0  0  0  0  0  0  0  0  0  0  0
    0.3189   -5.0552   -2.7487 H   0  0  0  0  0  0  0  0  0  0  0  0
   -1.0081   -3.4373   -3.4199 N   0  0  0  0  0  0  0  0  0  0  0  0
   -1.5505   -3.9084   -4.1414 H   0  0  0  0  0  0  0  0  0  0  0  0
   -1.1167   -2.1156   -3.0402 C   0  0  0  0  0  0  0  0  0  0  0  0
   -1.7926   -1.3566   -3.4228 H   0  0  0  0  0  0  0  0  0  0  0  0
   -0.6655    0.8103    0.5476 C   0  0  0  0  0  0  0  0  0  0  0  0
   -1.6887    1.3730    0.1714 O   0  0  0  0  0  0  0  0  0  0  0  0
    0.2464    1.4963    1.3284 N   0  0  0  0  0  0  0  0  0  0  0  0
    1.0495    0.9771    1.6738 H   0  0  0  0  0  0  0  0  0  0  0  0
    0.0389    2.8633    1.7892 C   0  0  0  0  0  0  0  0  0  0  0  0
   -0.8679    2.9282    2.3996 H   0  0  0  0  0  0  0  0  0  0  0  0
    0.8887    3.1902    2.3962 H   0  0  0  0  0  0  0  0  0  0  0  0
   -0.0592    3.5441    0.9373 H   0  0  0  0  0  0  0  0  0  0  0  0
  1  2  1  0  0  0  0
  2  3  1  0  0  0  0
  2  4  1  0  0  0  0
  2  5  1  0  0  0  0
  5  6  2  0  0  0  0
  5  7  1  0  0  0  0
  7  8  1  0  0  0  0
  7  9  1  0  0  0  0
  9 10  1  0  0  0  0
  9 11  1  0  0  0  0
  9 22  1  0  0  0  0
 11 12  1  0  0  0  0
 11 13  1  0  0  0  0
 11 14  1  0  0  0  0
 14 15  1  0  0  0  0
 14 20  2  0  0  0  0
 15 16  2  0  0  0  0
 16 17  1  0  0  0  0
 16 18  1  0  0  0  0
 18 19  1  0  0  0  0
 18 20  1  0  0  0  0
 20 21  1  0  0  0  0
 22 23  2  0  0  0  0
 22 24  1  0  0  0  0
 24 25  1  0  0  0  0
 24 26  1  0  0  0  0
 26 27  1  0  0  0  0
 26 28  1  0  0  0  0
 26 29  1  0  0  0  0
M  END
$$$$

  -OEChem-04042215593D

 29 29  0     1  0  0  0  0  0999 V2000
   -2.7168   -4.5284    1.3185 H   0  0  0  0  0  0  0  0  0  0  0  0
   -2.8674   -3.5776    0.7999 C   0  0  0  0  0  0  0  0  0  0  0  0
   -3.7300   -3.0692    1.2369 H   0  0  0  0  0  0  0  0  0  0  0  0
   -3.0647   -3.7801   -0.2555 H   0  0  0  0  0  0  0  0  0  0  0  0
   -1.6309   -2.7093    0.9336 C   0  0  0  0  0  0  0  0  0  0  0  0
   -0.6987   -3.0863    1.6263 O   0  0  0  0  0  0  0  0  0  0  0  0
   -1.6083   -1.4653    0.3360 N   0  0  0  0  0  0  0  0  0  0  0  0
   -2.4419   -1.1778   -0.1680 H   0  0  0  0  0  0  0  0  0  0  0  0
   -0.3970   -0.6489    0.1573 C   0  0  1  0  0  0  0  0  0  0  0  0
    0.3991   -1.0375    0.8008 H   0  0  0  0  0  0  0  0  0  0  0  0
    0.1093   -0.6833   -1.3073 C   0  0  0  0  0  0  0  0  0  0  0  0
   -0.3450    0.1410   -1.8660 H   0  0  0  0  0  0  0  0  0  0  0  0
    1.1905   -0.5208   -1.3093 H   0  0  0  0  0  0  0  0  0  0  0  0
   -0.1823   -1.9540   -2.0575 C   0  0  0  0  0  0  0  0  0  0  0  0
    0.2661   -3.2141   -1.6871 N   0  0  0  0  0  0  0  0  0  0  0  0
   -0.1876   -4.0563   -2.5822 C   0  0  0  0  0  0  0  0  0  0  0  0
   -0.0053   -5.1273   -2.5753 H   0  0  0  0  0  0  0  0  0  0  0  0
   -0.9279   -3.3776   -3.5319 N   0  0  0  0  0  0  0  0  0  0  0  0
   -1.3759   -3.8028   -4.3415 H   0  0  0  0  0  0  0  0  0  0  0  0
   -0.9245   -2.0380   -3.2032 C   0  0  0  0  0  0  0  0  0  0  0  0
   -1.4001   -1.2147   -3.7281 H   0  0  0  0  0  0  0  0  0  0  0  0
   -0.6617    0.8176    0.5499 C   0  0  0  0  0  0  0  0  0  0  0  0
   -1.6655    1.3919    0.1399 O   0  0  0  0  0  0  0  0  0  0  0  0
    0.2495    1.5059    1.3295 N   0  0  0  0  0  0  0  0  0  0  0  0
    1.0296    0.9768    1.7105 H   0  0  0  0  0  0  0  0  0  0  0  0
    0.0470    2.8795    1.7722 C   0  0  0  0  0  0  0  0  0  0  0  0
   -0.8556    2.9546    2.3877 H   0  0  0  0  0  0  0  0  0  0  0  0
    0.9016    3.2143    2.3681 H   0  0  0  0  0  0  0  0  0  0  0  0
   -0.0561    3.5480    0.9111 H   0  0  0  0  0  0  0  0  0  0  0  0
  1  2  1  0  0  0  0
  2  3  1  0  0  0  0
  2  4  1  0  0  0  0
  2  5  1  0  0  0  0
  5  6  2  0  0  0  0
  5  7  1  0  0  0  0
  7  8  1  0  0  0  0
  7  9  1  0  0  0  0
  9 10  1  0  0  0  0
  9 11  1  0  0  0  0
  9 22  1  0  0  0  0
 11 12  1  0  0  0  0
 11 13  1  0  0  0  0
 11 14  1  0  0  0  0
 14 15  1  0  0  0  0
 14 20  2  0  0  0  0
 15 16  2  0  0  0  0
 16 17  1  0  0  0  0
 16 18  1  0  0  0  0
 18 19  1  0  0  0  0
 18 20  1  0  0  0  0
 20 21  1  0  0  0  0
 22 23  2  0  0  0  0
 22 24  1  0  0  0  0
 24 25  1  0  0  0  0
 24 26  1  0  0  0  0
 26 27  1  0  0  0  0
 26 28  1  0  0  0  0
 26 29  1  0  0  0  0
M  END
$$$$

  -OEChem-04042215593D

 29 29  0     1  0  0  0  0  0999 V2000
   -2.7079   -4.5304    1.3656 H   0  0  0  0  0  0  0  0  0  0  0  0
   -2.8587   -3.5935    0.8225 C   0  0  0  0  0  0  0  0  0  0  0  0
   -3.7487   -3.0961    1.2150 H   0  0  0  0  0  0  0  0  0  0  0  0
   -3.0093   -3.8214   -0.2354 H   0  0  0  0  0  0  0  0  0  0  0  0
   -1.6472   -2.6955    0.9869 C   0  0  0  0  0  0  0  0  0  0  0  0
   -0.7396   -3.0334    1.7319 O   0  0  0  0  0  0  0  0  0  0  0  0
   -1.6250   -1.4620    0.3669 N   0  0  0  0  0  0  0  0  0  0  0  0
   -2.4305   -1.2224   -0.2031 H   0  0  0  0  0  0  0  0  0  0  0  0
   -0.4073   -0.6576    0.1784 C   0  0  1  0  0  0  0  0  0  0  0  0
    0.3855   -1.0423    0.8280 H   0  0  0  0  0  0  0  0  0  0  0  0
    0.1049   -0.7038   -1.2863 C   0  0  0  0  0  0  0  0  0  0  0  0
   -0.3323    0.1278   -1.8481 H   0  0  0  0  0  0  0  0  0  0  0  0
    1.1875   -0.5503   -1.2720 H   0  0  0  0  0  0  0  0  0  0  0  0
   -0.1761   -1.9649   -2.0621 C   0  0  0  0  0  0  0  0  0  0  0  0
   -0.0060   -3.2639   -1.6010 N   0  0  0  0  0  0  0  0  0  0  0  0
   -0.3648   -4.0662   -2.5724 C   0  0  0  0  0  0  0  0  0  0  0  0
   -0.3409   -5.1510   -2.5226 H   0  0  0  0  0  0  0  0  0  0  0  0
   -0.7792   -3.3247   -3.6617 N   0  0  0  0  0  0  0  0  0  0  0  0
   -1.1022   -3.7110   -4.5469 H   0  0  0  0  0  0  0  0  0  0  0  0
   -0.6620   -1.9885   -3.3409 C   0  0  0  0  0  0  0  0  0  0  0  0
   -0.8987   -1.1269   -3.9584 H   0  0  0  0  0  0  0  0  0  0  0  0
   -0.6645    0.8171    0.5475 C   0  0  0  0  0  0  0  0  0  0  0  0
   -1.6550    1.3984    0.1159 O   0  0  0  0  0  0  0  0  0  0  0  0
    0.2501    1.5098    1.3195 N   0  0  0  0  0  0  0  0  0  0  0  0
    1.0104    0.9740    1.7297 H   0  0  0  0  0  0  0  0  0  0  0  0
    0.0548    2.8907    1.7430 C   0  0  0  0  0  0  0  0  0  0  0  0
   -0.8477    2.9793    2.3567 H   0  0  0  0  0  0  0  0  0  0  0  0
    0.9109    3.2286    2.3347 H   0  0  0  0  0  0  0  0  0  0  0  0
   -0.0438    3.5483    0.8729 H   0  0  0  0  0  0  0  0  0  0  0  0
  1  2  1  0  0  0  0
  2  3  1  0  0  0  0
  2  4  1  0  0  0  0
  2  5  1  0  0  0  0
  5  6  2  0  0  0  0
  5  7  1  0  0  0  0
  7  8  1  0  0  0  0
  7  9  1  0  0  0  0
  9 10  1  0  0  0  0
  9 11  1  0  0  0  0
  9 22  1  0  0  0  0
 11 12  1  0  0  0  0
 11 13  1  0  0  0  0
 11 14  1  0  0  0  0
 14 15  1  0  0  0  0
 14 20  2  0  0  0  0
 15 16  2  0  0  0  0
 16 17  1  0  0  0  0
 16 18  1  0  0  0  0
 18 19  1  0  0  0  0
 18 20  1  0  0  0  0
 20 21  1  0  0  0  0
 22 23  2  0  0  0  0
 22 24  1  0  0  0  0
 24 25  1  0  0  0  0
 24 26  1  0  0  0  0
 26 27  1  0  0  0  0
 26 28  1  0  0  0  0
 26 29  1  0  0  0  0
M  END
$$$$

  -OEChem-04042215593D

 29 29  0     1  0  0  0  0  0999 V2000
   -2.7352   -4.5086    1.4666 H   0  0  0  0  0  0  0  0  0  0  0  0
   -2.8766   -3.5910    0.8890 C   0  0  0  0  0  0  0  0  0  0  0  0
   -3.7764   -3.0838    1.2444 H   0  0  0  0  0  0  0  0  0  0  0  0
   -3.0036   -3.8544   -0.1636 H   0  0  0  0  0  0  0  0  0  0  0  0
   -1.6709   -2.6840    1.0480 C   0  0  0  0  0  0  0  0  0  0  0  0
   -0.7672   -3.0037    1.8068 O   0  0  0  0  0  0  0  0  0  0  0  0
   -1.6478   -1.4617    0.4055 N   0  0  0  0  0  0  0  0  0  0  0  0
   -2.4377   -1.2533   -0.1975 H   0  0  0  0  0  0  0  0  0  0  0  0
   -0.4245   -0.6721    0.1979 C   0  0  1  0  0  0  0  0  0  0  0  0
    0.3669   -1.0505    0.8527 H   0  0  0  0  0  0  0  0  0  0  0  0
    0.0924   -0.7345   -1.2666 C   0  0  0  0  0  0  0  0  0  0  0  0
   -0.3348    0.1005   -1.8316 H   0  0  0  0  0  0  0  0  0  0  0  0
    1.1753   -0.5843   -1.2405 H   0  0  0  0  0  0  0  0  0  0  0  0
   -0.1753   -1.9861   -2.0683 C   0  0  0  0  0  0  0  0  0  0  0  0
   -0.3005   -3.2885   -1.5982 N   0  0  0  0  0  0  0  0  0  0  0  0
   -0.5306   -4.0554   -2.6353 C   0  0  0  0  0  0  0  0  0  0  0  0
   -0.6696   -5.1322   -2.5942 H   0  0  0  0  0  0  0  0  0  0  0  0
   -0.5755   -3.2870   -3.7815 N   0  0  0  0  0  0  0  0  0  0  0  0
   -0.7365   -3.6429   -4.7219 H   0  0  0  0  0  0  0  0  0  0  0  0
   -0.3546   -1.9733   -3.4253 C   0  0  0  0  0  0  0  0  0  0  0  0
   -0.3213   -1.1015   -4.0723 H   0  0  0  0  0  0  0  0  0  0  0  0
   -0.6719    0.8102    0.5447 C   0  0  0  0  0  0  0  0  0  0  0  0
   -1.6563    1.3950    0.1041 O   0  0  0  0  0  0  0  0  0  0  0  0
    0.2512    1.5082    1.3021 N   0  0  0  0  0  0  0  0  0  0  0  0
    1.0032    0.9711    1.7257 H   0  0  0  0  0  0  0  0  0  0  0  0
    0.0652    2.8957    1.7077 C   0  0  0  0  0  0  0  0  0  0  0  0
   -0.8194    2.9927    2.3457 H   0  0  0  0  0  0  0  0  0  0  0  0
    0.9375    3.2456    2.2680 H   0  0  0  0  0  0  0  0  0  0  0  0
   -0.0604    3.5389    0.8305 H   0  0  0  0  0  0  0  0  0  0  0  0
  1  2  1  0  0  0  0
  2  3  1  0  0  0  0
  2  4  1  0  0  0  0
  2  5  1  0  0  0  0
  5  6  2  0  0  0  0
  5  7  1  0  0  0  0
  7  8  1  0  0  0  0
  7  9  1  0  0  0  0
  9 10  1  0  0  0  0
  9 11  1  0  0  0  0
  9 22  1  0  0  0  0
 11 12  1  0  0  0  0
 11 13  1  0  0  0  0
 11 14  1  0  0  0  0
 14 15  1  0  0  0  0
 14 20  2  0  0  0  0
 15 16  2  0  0  0  0
 16 17  1  0  0  0  0
 16 18  1  0  0  0  0
 18 19  1  0  0  0  0
 18 20  1  0  0  0  0
 20 21  1  0  0  0  0
 22 23  2  0  0  0  0
 22 24  1  0  0  0  0
 24 25  1  0  0  0  0
 24 26  1  0  0  0  0
 26 27  1  0  0  0  0
 26 28  1  0  0  0  0
 26 29  1  0  0  0  0
M  END
$$$$

  -OEChem-04042215593D

 29 29  0     1  0  0  0  0  0999 V2000
   -2.7567   -4.5039    1.5175 H   0  0  0  0  0  0  0  0  0  0  0  0
   -2.9125   -3.5749    0.9625 C   0  0  0  0  0  0  0  0  0  0  0  0
   -3.7898   -3.0639    1.3655 H   0  0  0  0  0  0  0  0  0  0  0  0
   -3.0886   -3.8185   -0.0879 H   0  0  0  0  0  0  0  0  0  0  0  0
   -1.6908   -2.6836    1.0837 C   0  0  0  0  0  0  0  0  0  0  0  0
   -0.7713   -3.0112    1.8206 O   0  0  0  0  0  0  0  0  0  0  0  0
   -1.6691   -1.4654    0.4330 N   0  0  0  0  0  0  0  0  0  0  0  0
   -2.4569   -1.2699   -0.1771 H   0  0  0  0  0  0  0  0  0  0  0  0
   -0.4443   -0.6845    0.2061 C   0  0  1  0  0  0  0  0  0  0  0  0
    0.3491   -1.0611    0.8594 H   0  0  0  0  0  0  0  0  0  0  0  0
    0.0713   -0.7552   -1.2601 C   0  0  0  0  0  0  0  0  0  0  0  0
   -0.3649    0.0759   -1.8237 H   0  0  0  0  0  0  0  0  0  0  0  0
    1.1527   -0.5939   -1.2358 H   0  0  0  0  0  0  0  0  0  0  0  0
   -0.1857   -1.9985   -2.0816 C   0  0  0  0  0  0  0  0  0  0  0  0
   -0.5905   -3.2612   -1.6607 N   0  0  0  0  0  0  0  0  0  0  0  0
   -0.6744   -4.0193   -2.7261 C   0  0  0  0  0  0  0  0  0  0  0  0
   -0.9617   -5.0670   -2.7234 H   0  0  0  0  0  0  0  0  0  0  0  0
   -0.3488   -3.2841   -3.8475 N   0  0  0  0  0  0  0  0  0  0  0  0
   -0.3327   -3.6409   -4.8013 H   0  0  0  0  0  0  0  0  0  0  0  0
   -0.0411   -2.0026   -3.4431 C   0  0  0  0  0  0  0  0  0  0  0  0
    0.2606   -1.1622   -4.0613 H   0  0  0  0  0  0  0  0  0  0  0  0
   -0.6818    0.8014    0.5469 C   0  0  0  0  0  0  0  0  0  0  0  0
   -1.6646    1.3906    0.1088 O   0  0  0  0  0  0  0  0  0  0  0  0
    0.2531    1.4996    1.2898 N   0  0  0  0  0  0  0  0  0  0  0  0
    1.0053    0.9613    1.7113 H   0  0  0  0  0  0  0  0  0  0  0  0
    0.0847    2.8944    1.6787 C   0  0  0  0  0  0  0  0  0  0  0  0
   -0.8168    3.0162    2.2883 H   0  0  0  0  0  0  0  0  0  0  0  0
    0.9465    3.2298    2.2636 H   0  0  0  0  0  0  0  0  0  0  0  0
    0.0000    3.5324    0.7928 H   0  0  0  0  0  0  0  0  0  0  0  0
  1  2  1  0  0  0  0
  2  3  1  0  0  0  0
  2  4  1  0  0  0  0
  2  5  1  0  0  0  0
  5  6  2  0  0  0  0
  5  7  1  0  0  0  0
  7  8  1  0  0  0  0
  7  9  1  0  0  0  0
  9 10  1  0  0  0  0
  9 11  1  0  0  0  0
  9 22  1  0  0  0  0
 11 12  1  0  0  0  0
 11 13  1  0  0  0  0
 11 14  1  0  0  0  0
 14 15  1  0  0  0  0
 14 20  2  0  0  0  0
 15 16  2  0  0  0  0
 16 17  1  0  0  0  0
 16 18  1  0  0  0  0
 18 19  1  0  0  0  0
 18 20  1  0  0  0  0
 20 21  1  0  0  0  0
 22 23  2  0  0  0  0
 22 24  1  0  0  0  0
 24 25  1  0  0  0  0
 24 26  1  0  0  0  0
 26 27  1  0  0  0  0
 26 28  1  0  0  0  0
 26 29  1  0  0  0  0
M  END
$$$$

  -OEChem-04042215593D

 29 29  0     1  0  0  0  0  0999 V2000
   -2.7863   -4.4828    1.5528 H   0  0  0  0  0  0  0  0  0  0  0  0
   -2.9428   -3.5538    0.9981 C   0  0  0  0  0  0  0  0  0  0  0  0
   -3.8023   -3.0283    1.4207 H   0  0  0  0  0  0  0  0  0  0  0  0
   -3.1492   -3.7989   -0.0464 H   0  0  0  0  0  0  0  0  0  0  0  0
   -1.7061   -2.6791    1.0854 C   0  0  0  0  0  0  0  0  0  0  0  0
   -0.7662   -3.0258    1.7873 O   0  0  0  0  0  0  0  0  0  0  0  0
   -1.6872   -1.4587    0.4393 N   0  0  0  0  0  0  0  0  0  0  0  0
   -2.4775   -1.2651   -0.1684 H   0  0  0  0  0  0  0  0  0  0  0  0
   -0.4612   -0.6855    0.1981 C   0  0  1  0  0  0  0  0  0  0  0  0
    0.3359   -1.0670    0.8438 H   0  0  0  0  0  0  0  0  0  0  0  0
    0.0484   -0.7568   -1.2703 C   0  0  0  0  0  0  0  0  0  0  0  0
   -0.4054    0.0688   -1.8278 H   0  0  0  0  0  0  0  0  0  0  0  0
    1.1274   -0.5789   -1.2573 H   0  0  0  0  0  0  0  0  0  0  0  0
   -0.2101   -1.9927   -2.1038 C   0  0  0  0  0  0  0  0  0  0  0  0
   -0.8734   -3.1710   -1.7720 N   0  0  0  0  0  0  0  0  0  0  0  0
   -0.8114   -3.9609   -2.8158 C   0  0  0  0  0  0  0  0  0  0  0  0
   -1.2351   -4.9599   -2.8662 H   0  0  0  0  0  0  0  0  0  0  0  0
   -0.1315   -3.3302   -3.8375 N   0  0  0  0  0  0  0  0  0  0  0  0
    0.0580   -3.7314   -4.7542 H   0  0  0  0  0  0  0  0  0  0  0  0
    0.2522   -2.0846   -3.3890 C   0  0  0  0  0  0  0  0  0  0  0  0
    0.8121   -1.3252   -3.9267 H   0  0  0  0  0  0  0  0  0  0  0  0
   -0.6843    0.8004    0.5477 C   0  0  0  0  0  0  0  0  0  0  0  0
   -1.6684    1.3986    0.1258 O   0  0  0  0  0  0  0  0  0  0  0  0
    0.2657    1.4893    1.2799 N   0  0  0  0  0  0  0  0  0  0  0  0
    1.0167    0.9435    1.6935 H   0  0  0  0  0  0  0  0  0  0  0  0
    0.1064    2.8813    1.6818 C   0  0  0  0  0  0  0  0  0  0  0  0
   -0.7725    2.9958    2.3249 H   0  0  0  0  0  0  0  0  0  0  0  0
    0.9881    3.2179    2.2357 H   0  0  0  0  0  0  0  0  0  0  0  0
   -0.0136    3.5231    0.8027 H   0  0  0  0  0  0  0  0  0  0  0  0
  1  2  1  0  0  0  0
  2  3  1  0  0  0  0
  2  4  1  0  0  0  0
  2  5  1  0  0  0  0
  5  6  2  0  0  0  0
  5  7  1  0  0  0  0
  7  8  1  0  0  0  0
  7  9  1  0  0  0  0
  9 10  1  0  0  0  0
  9 11  1  0  0  0  0
  9 22  1  0  0  0  0
 11 12  1  0  0  0  0
 11 13  1  0  0  0  0
 11 14  1  0  0  0  0
 14 15  1  0  0  0  0
 14 20  2  0  0  0  0
 15 16  2  0  0  0  0
 16 17  1  0  0  0  0
 16 18  1  0  0  0  0
 18 19  1  0  0  0  0
 18 20  1  0  0  0  0
 20 21  1  0  0  0  0
 22 23  2  0  0  0  0
 22 24  1  0  0  0  0
 24 25  1  0  0  0  0
 24 26  1  0  0  0  0
 26 27  1  0  0  0  0
 26 28  1  0  0  0  0
 26 29  1  0  0  0  0
M  END
$$$$

  -OEChem-04042215593D

 29 29  0     1  0  0  0  0  0999 V2000
   -2.7823   -4.4924    1.4993 H   0  0  0  0  0  0  0  0  0  0  0  0
   -2.9504   -3.5460    0.9786 C   0  0  0  0  0  0  0  0  0  0  0  0
   -3.7922   -3.0288    1.4447 H   0  0  0  0  0  0  0  0  0  0  0  0
   -3.1932   -3.7576   -0.0654 H   0  0  0  0  0  0  0  0  0  0  0  0
   -1.7063   -2.6808    1.0528 C   0  0  0  0  0  0  0  0  0  0  0  0
   -0.7502   -3.0506    1.7203 O   0  0  0  0  0  0  0  0  0  0  0  0
   -1.6939   -1.4509    0.4251 N   0  0  0  0  0  0  0  0  0  0  0  0
   -2.4801   -1.2633   -0.1908 H   0  0  0  0  0  0  0  0  0  0  0  0
   -0.4705   -0.6748    0.1842 C   0  0  1  0  0  0  0  0  0  0  0  0
    0.3288   -1.0636    0.8224 H   0  0  0  0  0  0  0  0  0  0  0  0
    0.0351   -0.7360   -1.2858 C   0  0  0  0  0  0  0  0  0  0  0  0
   -0.4401    0.0837   -1.8340 H   0  0  0  0  0  0  0  0  0  0  0  0
    1.1107   -0.5379   -1.2831 H   0  0  0  0  0  0  0  0  0  0  0  0
   -0.2246   -1.9686   -2.1261 C   0  0  0  0  0  0  0  0  0  0  0  0
   -1.1100   -3.0227   -1.9106 N   0  0  0  0  0  0  0  0  0  0  0  0
   -0.9381   -3.8811   -2.8859 C   0  0  0  0  0  0  0  0  0  0  0  0
   -1.4820   -4.8150   -2.9956 H   0  0  0  0  0  0  0  0  0  0  0  0
    0.0337   -3.4186   -3.7488 N   0  0  0  0  0  0  0  0  0  0  0  0
    0.3599   -3.9039   -4.5825 H   0  0  0  0  0  0  0  0  0  0  0  0
    0.4912   -2.2108   -3.2679 C   0  0  0  0  0  0  0  0  0  0  0  0
    1.2661   -1.5769   -3.6886 H   0  0  0  0  0  0  0  0  0  0  0  0
   -0.6858    0.8071    0.5566 C   0  0  0  0  0  0  0  0  0  0  0  0
   -1.6714    1.4151    0.1527 O   0  0  0  0  0  0  0  0  0  0  0  0
    0.2732    1.4835    1.2892 N   0  0  0  0  0  0  0  0  0  0  0  0
    1.0291    0.9317    1.6856 H   0  0  0  0  0  0  0  0  0  0  0  0
    0.1247    2.8728    1.7048 C   0  0  0  0  0  0  0  0  0  0  0  0
   -0.7581    2.9894    2.3421 H   0  0  0  0  0  0  0  0  0  0  0  0
    1.0045    3.1949    2.2698 H   0  0  0  0  0  0  0  0  0  0  0  0
    0.0188    3.5247    0.8312 H   0  0  0  0  0  0  0  0  0  0  0  0
  1  2  1  0  0  0  0
  2  3  1  0  0  0  0
  2  4  1  0  0  0  0
  2  5  1  0  0  0  0
  5  6  2  0  0  0  0
  5  7  1  0  0  0  0
  7  8  1  0  0  0  0
  7  9  1  0  0  0  0
  9 10  1  0  0  0  0
  9 11  1  0  0  0  0
  9 22  1  0  0  0  0
 11 12  1  0  0  0  0
 11 13  1  0  0  0  0
 11 14  1  0  0  0  0
 14 15  1  0  0  0  0
 14 20  2  0  0  0  0
 15 16  2  0  0  0  0
 16 17  1  0  0  0  0
 16 18  1  0  0  0  0
 18 19  1  0  0  0  0
 18 20  1  0  0  0  0
 20 21  1  0  0  0  0
 22 23  2  0  0  0  0
 22 24  1  0  0  0  0
 24 25  1  0  0  0  0
 24 26  1  0  0  0  0
 26 27  1  0  0  0  0
 26 28  1  0  0  0  0
 26 29  1  0  0  0  0
M  END
$$$$

  -OEChem-04042215593D

 29 29  0     1  0  0  0  0  0999 V2000
   -2.7627   -4.5104    1.4179 H   0  0  0  0  0  0  0  0  0  0  0  0
   -2.9349   -3.5542    0.9169 C   0  0  0  0  0  0  0  0  0  0  0  0
   -3.7770   -3.0495    1.3958 H   0  0  0  0  0  0  0  0  0  0  0  0
   -3.1809   -3.7452   -0.1303 H   0  0  0  0  0  0  0  0  0  0  0  0
   -1.6934   -2.6861    1.0041 C   0  0  0  0  0  0  0  0  0  0  0  0
   -0.7277   -3.0725    1.6480 O   0  0  0  0  0  0  0  0  0  0  0  0
   -1.6860   -1.4462    0.3971 N   0  0  0  0  0  0  0  0  0  0  0  0
   -2.4657   -1.2625   -0.2291 H   0  0  0  0  0  0  0  0  0  0  0  0
   -0.4680   -0.6578    0.1705 C   0  0  1  0  0  0  0  0  0  0  0  0
    0.3310   -1.0508    0.8066 H   0  0  0  0  0  0  0  0  0  0  0  0
    0.0423   -0.7075   -1.2969 C   0  0  0  0  0  0  0  0  0  0  0  0
   -0.4437    0.1065   -1.8439 H   0  0  0  0  0  0  0  0  0  0  0  0
    1.1155   -0.4964   -1.2951 H   0  0  0  0  0  0  0  0  0  0  0  0
   -0.2143   -1.9456   -2.1295 C   0  0  0  0  0  0  0  0  0  0  0  0
   -1.2770   -2.8454   -2.0573 N   0  0  0  0  0  0  0  0  0  0  0  0
   -1.0482   -3.7845   -2.9429 C   0  0  0  0  0  0  0  0  0  0  0  0
   -1.6959   -4.6372   -3.1266 H   0  0  0  0  0  0  0  0  0  0  0  0
    0.1348   -3.5261   -3.6041 N   0  0  0  0  0  0  0  0  0  0  0  0
    0.5410   -4.1099   -4.3329 H   0  0  0  0  0  0  0  0  0  0  0  0
    0.6683   -2.3649   -3.0881 C   0  0  0  0  0  0  0  0  0  0  0  0
    1.5984   -1.8778   -3.3649 H   0  0  0  0  0  0  0  0  0  0  0  0
   -0.6855    0.8184    0.5633 C   0  0  0  0  0  0  0  0  0  0  0  0
   -1.6726    1.4302    0.1697 O   0  0  0  0  0  0  0  0  0  0  0  0
    0.2726    1.4858    1.3055 N   0  0  0  0  0  0  0  0  0  0  0  0
    1.0312    0.9308    1.6919 H   0  0  0  0  0  0  0  0  0  0  0  0
    0.1272    2.8710    1.7354 C   0  0  0  0  0  0  0  0  0  0  0  0
   -0.7457    2.9797    2.3875 H   0  0  0  0  0  0  0  0  0  0  0  0
    1.0156    3.1902    2.2888 H   0  0  0  0  0  0  0  0  0  0  0  0
    0.0056    3.5308    0.8699 H   0  0  0  0  0  0  0  0  0  0  0  0
  1  2  1  0  0  0  0
  2  3  1  0  0  0  0
  2  4  1  0  0  0  0
  2  5  1  0  0  0  0
  5  6  2  0  0  0  0
  5  7  1  0  0  0  0
  7  8  1  0  0  0  0
  7  9  1  0  0  0  0
  9 10  1  0  0  0  0
  9 11  1  0  0  0  0
  9 22  1  0  0  0  0
 11 12  1  0  0  0  0
 11 13  1  0  0  0  0
 11 14  1  0  0  0  0
 14 15  1  0  0  0  0
 14 20  2  0  0  0  0
 15 16  2  0  0  0  0
 16 17  1  0  0  0  0
 16 18  1  0  0  0  0
 18 19  1  0  0  0  0
 18 20  1  0  0  0  0
 20 21  1  0  0  0  0
 22 23  2  0  0  0  0
 22 24  1  0  0  0  0
 24 25  1  0  0  0  0
 24 26  1  0  0  0  0
 26 27  1  0  0  0  0
 26 28  1  0  0  0  0
 26 29  1  0  0  0  0
M  END
$$$$

  -OEChem-04042215593D

 29 29  0     1  0  0  0  0  0999 V2000
   -2.7198   -4.5319    1.3205 H   0  0  0  0  0  0  0  0  0  0  0  0
   -2.8994   -3.5676    0.8378 C   0  0  0  0  0  0  0  0  0  0  0  0
   -3.7460   -3.0794    1.3259 H   0  0  0  0  0  0  0  0  0  0  0  0
   -3.1433   -3.7395   -0.2133 H   0  0  0  0  0  0  0  0  0  0  0  0
   -1.6656   -2.6909    0.9449 C   0  0  0  0  0  0  0  0  0  0  0  0
   -0.6945   -3.0859    1.5744 O   0  0  0  0  0  0  0  0  0  0  0  0
   -1.6640   -1.4422    0.3577 N   0  0  0  0  0  0  0  0  0  0  0  0
   -2.4371   -1.2592   -0.2780 H   0  0  0  0  0  0  0  0  0  0  0  0
   -0.4536   -0.6360    0.1541 C   0  0  1  0  0  0  0  0  0  0  0  0
    0.3437   -1.0284    0.7925 H   0  0  0  0  0  0  0  0  0  0  0  0
    0.0647   -0.6778   -1.3090 C   0  0  0  0  0  0  0  0  0  0  0  0
   -0.4231    0.1301   -1.8636 H   0  0  0  0  0  0  0  0  0  0  0  0
    1.1370   -0.4633   -1.3040 H   0  0  0  0  0  0  0  0  0  0  0  0
   -0.1903   -1.9310   -2.1162 C   0  0  0  0  0  0  0  0  0  0  0  0
   -1.3781   -2.6567   -2.2104 N   0  0  0  0  0  0  0  0  0  0  0  0
   -1.1370   -3.6804   -2.9937 C   0  0  0  0  0  0  0  0  0  0  0  0
   -1.8643   -4.4407   -3.2642 H   0  0  0  0  0  0  0  0  0  0  0  0
    0.1750   -3.6474   -3.4209 N   0  0  0  0  0  0  0  0  0  0  0  0
    0.6135   -4.3378   -4.0276 H   0  0  0  0  0  0  0  0  0  0  0  0
    0.7794   -2.5405   -2.8649 C   0  0  0  0  0  0  0  0  0  0  0  0
    1.8087   -2.2138   -2.9785 H   0  0  0  0  0  0  0  0  0  0  0  0
   -0.6838    0.8331    0.5644 C   0  0  0  0  0  0  0  0  0  0  0  0
   -1.6733    1.4431    0.1753 O   0  0  0  0  0  0  0  0  0  0  0  0
    0.2652    1.4952    1.3228 N   0  0  0  0  0  0  0  0  0  0  0  0
    1.0271    0.9401    1.7021 H   0  0  0  0  0  0  0  0  0  0  0  0
    0.1104    2.8734    1.7708 C   0  0  0  0  0  0  0  0  0  0  0  0
   -0.7731    2.9714    2.4102 H   0  0  0  0  0  0  0  0  0  0  0  0
    0.9894    3.1854    2.3432 H   0  0  0  0  0  0  0  0  0  0  0  0
    0.0017    3.5454    0.9131 H   0  0  0  0  0  0  0  0  0  0  0  0
  1  2  1  0  0  0  0
  2  3  1  0  0  0  0
  2  4  1  0  0  0  0
  2  5  1  0  0  0  0
  5  6  2  0  0  0  0
  5  7  1  0  0  0  0
  7  8  1  0  0  0  0
  7  9  1  0  0  0  0
  9 10  1  0  0  0  0
  9 11  1  0  0  0  0
  9 22  1  0  0  0  0
 11 12  1  0  0  0  0
 11 13  1  0  0  0  0
 11 14  1  0  0  0  0
 14 15  1  0  0  0  0
 14 20  2  0  0  0  0
 15 16  2  0  0  0  0
 16 17  1  0  0  0  0
 16 18  1  0  0  0  0
 18 19  1  0  0  0  0
 18 20  1  0  0  0  0
 20 21  1  0  0  0  0
 22 23  2  0  0  0  0
 22 24  1  0  0  0  0
 24 25  1  0  0  0  0
 24 26  1  0  0  0  0
 26 27  1  0  0  0  0
 26 28  1  0  0  0  0
 26 29  1  0  0  0  0
M  END
$$$$

  -OEChem-04042215593D

 29 29  0     1  0  0  0  0  0999 V2000
   -2.6758   -4.5513    1.2231 H   0  0  0  0  0  0  0  0  0  0  0  0
   -2.8574   -3.5799    0.7557 C   0  0  0  0  0  0  0  0  0  0  0  0
   -3.7123   -3.1063    1.2440 H   0  0  0  0  0  0  0  0  0  0  0  0
   -3.0900   -3.7349   -0.3006 H   0  0  0  0  0  0  0  0  0  0  0  0
   -1.6314   -2.6965    0.8898 C   0  0  0  0  0  0  0  0  0  0  0  0
   -0.6558   -3.1007    1.5062 O   0  0  0  0  0  0  0  0  0  0  0  0
   -1.6329   -1.4413    0.3186 N   0  0  0  0  0  0  0  0  0  0  0  0
   -2.4071   -1.2479   -0.3135 H   0  0  0  0  0  0  0  0  0  0  0  0
   -0.4306   -0.6168    0.1401 C   0  0  1  0  0  0  0  0  0  0  0  0
    0.3637   -1.0069    0.7836 H   0  0  0  0  0  0  0  0  0  0  0  0
    0.0936   -0.6560   -1.3183 C   0  0  0  0  0  0  0  0  0  0  0  0
   -0.3917    0.1449   -1.8853 H   0  0  0  0  0  0  0  0  0  0  0  0
    1.1664   -0.4447   -1.3117 H   0  0  0  0  0  0  0  0  0  0  0  0
   -0.1645   -1.9292   -2.0868 C   0  0  0  0  0  0  0  0  0  0  0  0
   -1.4142   -2.4785   -2.3738 N   0  0  0  0  0  0  0  0  0  0  0  0
   -1.1922   -3.5799   -3.0506 C   0  0  0  0  0  0  0  0  0  0  0  0
   -1.9653   -4.2461   -3.4229 H   0  0  0  0  0  0  0  0  0  0  0  0
    0.1660   -3.7669   -3.2172 N   0  0  0  0  0  0  0  0  0  0  0  0
    0.5968   -4.5545   -3.6980 H   0  0  0  0  0  0  0  0  0  0  0  0
    0.8225   -2.7192   -2.6080 C   0  0  0  0  0  0  0  0  0  0  0  0
    1.8926   -2.5483   -2.5391 H   0  0  0  0  0  0  0  0  0  0  0  0
   -0.6773    0.8460    0.5618 C   0  0  0  0  0  0  0  0  0  0  0  0
   -1.6720    1.4486    0.1750 O   0  0  0  0  0  0  0  0  0  0  0  0
    0.2570    1.5088    1.3379 N   0  0  0  0  0  0  0  0  0  0  0  0
    1.0254    0.9594    1.7127 H   0  0  0  0  0  0  0  0  0  0  0  0
    0.0830    2.8805    1.7995 C   0  0  0  0  0  0  0  0  0  0  0  0
   -0.8087    2.9624    2.4297 H   0  0  0  0  0  0  0  0  0  0  0  0
    0.9520    3.1950    2.3854 H   0  0  0  0  0  0  0  0  0  0  0  0
   -0.0229    3.5608    0.9480 H   0  0  0  0  0  0  0  0  0  0  0  0
  1  2  1  0  0  0  0
  2  3  1  0  0  0  0
  2  4  1  0  0  0  0
  2  5  1  0  0  0  0
  5  6  2  0  0  0  0
  5  7  1  0  0  0  0
  7  8  1  0  0  0  0
  7  9  1  0  0  0  0
  9 10  1  0  0  0  0
  9 11  1  0  0  0  0
  9 22  1  0  0  0  0
 11 12  1  0  0  0  0
 11 13  1  0  0  0  0
 11 14  1  0  0  0  0
 14 15  1  0  0  0  0
 14 20  2  0  0  0  0
 15 16  2  0  0  0  0
 16 17  1  0  0  0  0
 16 18  1  0  0  0  0
 18 19  1  0  0  0  0
 18 20  1  0  0  0  0
 20 21  1  0  0  0  0
 22 23  2  0  0  0  0
 22 24  1  0  0  0  0
 24 25  1  0  0  0  0
 24 26  1  0  0  0  0
 26 27  1  0  0  0  0
 26 28  1  0  0  0  0
 26 29  1  0  0  0  0
M  END
$$$$

  -OEChem-04042215593D

 29 29  0     1  0  0  0  0  0999 V2000
   -2.6470   -4.5615    1.1566 H   0  0  0  0  0  0  0  0  0  0  0  0
   -2.8311   -3.5825    0.7059 C   0  0  0  0  0  0  0  0  0  0  0  0
   -3.6805   -3.1149    1.2096 H   0  0  0  0  0  0  0  0  0  0  0  0
   -3.0727   -3.7197   -0.3510 H   0  0  0  0  0  0  0  0  0  0  0  0
   -1.6027   -2.7036    0.8424 C   0  0  0  0  0  0  0  0  0  0  0  0
   -0.6177   -3.1215    1.4335 O   0  0  0  0  0  0  0  0  0  0  0  0
   -1.6038   -1.4437    0.2824 N   0  0  0  0  0  0  0  0  0  0  0  0
   -2.3942   -1.2223   -0.3204 H   0  0  0  0  0  0  0  0  0  0  0  0
   -0.4080   -0.6039    0.1245 C   0  0  1  0  0  0  0  0  0  0  0  0
    0.3829   -0.9912    0.7742 H   0  0  0  0  0  0  0  0  0  0  0  0
    0.1213   -0.6435   -1.3293 C   0  0  0  0  0  0  0  0  0  0  0  0
   -0.3573    0.1512   -1.9105 H   0  0  0  0  0  0  0  0  0  0  0  0
    1.1957   -0.4404   -1.3198 H   0  0  0  0  0  0  0  0  0  0  0  0
   -0.1420   -1.9357   -2.0568 C   0  0  0  0  0  0  0  0  0  0  0  0
   -1.3792   -2.3276   -2.5637 N   0  0  0  0  0  0  0  0  0  0  0  0
   -1.1919   -3.4934   -3.1354 C   0  0  0  0  0  0  0  0  0  0  0  0
   -1.9666   -4.0739   -3.6281 H   0  0  0  0  0  0  0  0  0  0  0  0
    0.1313   -3.8733   -3.0167 N   0  0  0  0  0  0  0  0  0  0  0  0
    0.5277   -4.7433   -3.3676 H   0  0  0  0  0  0  0  0  0  0  0  0
    0.8041   -2.8817   -2.3354 C   0  0  0  0  0  0  0  0  0  0  0  0
    1.8545   -2.8474   -2.0625 H   0  0  0  0  0  0  0  0  0  0  0  0
   -0.6702    0.8540    0.5525 C   0  0  0  0  0  0  0  0  0  0  0  0
   -1.6739    1.4448    0.1711 O   0  0  0  0  0  0  0  0  0  0  0  0
    0.2494    1.5203    1.3428 N   0  0  0  0  0  0  0  0  0  0  0  0
    1.0281    0.9802    1.7090 H   0  0  0  0  0  0  0  0  0  0  0  0
    0.0546    2.8843    1.8187 C   0  0  0  0  0  0  0  0  0  0  0  0
   -0.8514    2.9513    2.4302 H   0  0  0  0  0  0  0  0  0  0  0  0
    0.9079    3.1970    2.4283 H   0  0  0  0  0  0  0  0  0  0  0  0
   -0.0381    3.5754    0.9742 H   0  0  0  0  0  0  0  0  0  0  0  0
  1  2  1  0  0  0  0
  2  3  1  0  0  0  0
  2  4  1  0  0  0  0
  2  5  1  0  0  0  0
  5  6  2  0  0  0  0
  5  7  1  0  0  0  0
  7  8  1  0  0  0  0
  7  9  1  0  0  0  0
  9 10  1  0  0  0  0
  9 11  1  0  0  0  0
  9 22  1  0  0  0  0
 11 12  1  0  0  0  0
 11 13  1  0  0  0  0
 11 14  1  0  0  0  0
 14 15  1  0  0  0  0
 14 20  2  0  0  0  0
 15 16  2  0  0  0  0
 16 17  1  0  0  0  0
 16 18  1  0  0  0  0
 18 19  1  0  0  0  0
 18 20  1  0  0  0  0
 20 21  1  0  0  0  0
 22 23  2  0  0  0  0
 22 24  1  0  0  0  0
 24 25  1  0  0  0  0
 24 26  1  0  0  0  0
 26 27  1  0  0  0  0
 26 28  1  0  0  0  0
 26 29  1  0  0  0  0
M  END
$$$$

  -OEChem-04042215593D

 29 29  0     1  0  0  0  0  0999 V2000
   -2.6560   -4.5591    1.1432 H   0  0  0  0  0  0  0  0  0  0  0  0
   -2.8359   -3.5745    0.7028 C   0  0  0  0  0  0  0  0  0  0  0  0
   -3.6619   -3.0951    1.2335 H   0  0  0  0  0  0  0  0  0  0  0  0
   -3.1111   -3.7021   -0.3472 H   0  0  0  0  0  0  0  0  0  0  0  0
   -1.5886   -2.7181    0.8059 C   0  0  0  0  0  0  0  0  0  0  0  0
   -0.5862   -3.1626    1.3458 O   0  0  0  0  0  0  0  0  0  0  0  0
   -1.5867   -1.4532    0.2579 N   0  0  0  0  0  0  0  0  0  0  0  0
   -2.4148   -1.1782   -0.2668 H   0  0  0  0  0  0  0  0  0  0  0  0
   -0.3967   -0.6021    0.1096 C   0  0  1  0  0  0  0  0  0  0  0  0
    0.3925   -0.9880    0.7624 H   0  0  0  0  0  0  0  0  0  0  0  0
    0.1384   -0.6366   -1.3405 C   0  0  0  0  0  0  0  0  0  0  0  0
   -0.3383    0.1550   -1.9280 H   0  0  0  0  0  0  0  0  0  0  0  0
    1.2129   -0.4349   -1.3291 H   0  0  0  0  0  0  0  0  0  0  0  0
   -0.1214   -1.9375   -2.0490 C   0  0  0  0  0  0  0  0  0  0  0  0
   -1.2612   -2.2093   -2.7987 N   0  0  0  0  0  0  0  0  0  0  0  0
   -1.1133   -3.4262   -3.2657 C   0  0  0  0  0  0  0  0  0  0  0  0
   -1.8344   -3.9402   -3.8949 H   0  0  0  0  0  0  0  0  0  0  0  0
    0.0901   -3.9557   -2.8391 N   0  0  0  0  0  0  0  0  0  0  0  0
    0.4322   -4.8904   -3.0544 H   0  0  0  0  0  0  0  0  0  0  0  0
    0.7278   -3.0076   -2.0680 C   0  0  0  0  0  0  0  0  0  0  0  0
    1.6863   -3.0829   -1.5629 H   0  0  0  0  0  0  0  0  0  0  0  0
   -0.6706    0.8502    0.5477 C   0  0  0  0  0  0  0  0  0  0  0  0
   -1.6907    1.4257    0.1876 O   0  0  0  0  0  0  0  0  0  0  0  0
    0.2410    1.5190    1.3449 N   0  0  0  0  0  0  0  0  0  0  0  0
    1.0393    0.9918    1.6870 H   0  0  0  0  0  0  0  0  0  0  0  0
    0.0391    2.8814    1.8228 C   0  0  0  0  0  0  0  0  0  0  0  0
   -0.8665    2.9428    2.4355 H   0  0  0  0  0  0  0  0  0  0  0  0
    0.8911    3.1982    2.4318 H   0  0  0  0  0  0  0  0  0  0  0  0
   -0.0576    3.5729    0.9791 H   0  0  0  0  0  0  0  0  0  0  0  0
  1  2  1  0  0  0  0
  2  3  1  0  0  0  0
  2  4  1  0  0  0  0
  2  5  1  0  0  0  0
  5  6  2  0  0  0  0
  5  7  1  0  0  0  0
  7  8  1  0  0  0  0
  7  9  1  0  0  0  0
  9 10  1  0  0  0  0
  9 11  1  0  0  0  0
  9 22  1  0  0  0  0
 11 12  1  0  0  0  0
 11 13  1  0  0  0  0
 11 14  1  0  0  0  0
 14 15  1  0  0  0  0
 14 20  2  0  0  0  0
 15 16  2  0  0  0  0
 16 17  1  0  0  0  0
 16 18  1  0  0  0  0
 18 19  1  0  0  0  0
 18 20  1  0  0  0  0
 20 21  1  0  0  0  0
 22 23  2  0  0  0  0
 22 24  1  0  0  0  0
 24 25  1  0  0  0  0
 24 26  1  0  0  0  0
 26 27  1  0  0  0  0
 26 28  1  0  0  0  0
 26 29  1  0  0  0  0
M  END
$$$$

  -OEChem-04042215593D

 29 29  0     1  0  0  0  0  0999 V2000
   -2.7024   -4.5228    1.2194 H   0  0  0  0  0  0  0  0  0  0  0  0
   -2.8675   -3.5435    0.7621 C   0  0  0  0  0  0  0  0  0  0  0  0
   -3.6557   -3.0248    1.3131 H   0  0  0  0  0  0  0  0  0  0  0  0
   -3.1884   -3.6866   -0.2727 H   0  0  0  0  0  0  0  0  0  0  0  0
   -1.5897   -2.7275    0.7963 C   0  0  0  0  0  0  0  0  0  0  0  0
   -0.5769   -3.1981    1.2933 O   0  0  0  0  0  0  0  0  0  0  0  0
   -1.5756   -1.4637    0.2453 N   0  0  0  0  0  0  0  0  0  0  0  0
   -2.4341   -1.1341   -0.1918 H   0  0  0  0  0  0  0  0  0  0  0  0
   -0.3836   -0.6145    0.0991 C   0  0  1  0  0  0  0  0  0  0  0  0
    0.4013   -0.9985    0.7580 H   0  0  0  0  0  0  0  0  0  0  0  0
    0.1622   -0.6472   -1.3467 C   0  0  0  0  0  0  0  0  0  0  0  0
   -0.3118    0.1459   -1.9341 H   0  0  0  0  0  0  0  0  0  0  0  0
    1.2367   -0.4452   -1.3312 H   0  0  0  0  0  0  0  0  0  0  0  0
   -0.0899   -1.9448   -2.0627 C   0  0  0  0  0  0  0  0  0  0  0  0
   -1.0518   -2.1202   -3.0507 N   0  0  0  0  0  0  0  0  0  0  0  0
   -0.9613   -3.3708   -3.4361 C   0  0  0  0  0  0  0  0  0  0  0  0
   -1.5805   -3.8297   -4.2016 H   0  0  0  0  0  0  0  0  0  0  0  0
    0.0327   -4.0159   -2.7249 N   0  0  0  0  0  0  0  0  0  0  0  0
    0.2895   -4.9960   -2.8260 H   0  0  0  0  0  0  0  0  0  0  0  0
    0.5936   -3.1091   -1.8520 C   0  0  0  0  0  0  0  0  0  0  0  0
    1.3870   -3.2714   -1.1277 H   0  0  0  0  0  0  0  0  0  0  0  0
   -0.6670    0.8372    0.5339 C   0  0  0  0  0  0  0  0  0  0  0  0
   -1.7027    1.3945    0.1892 O   0  0  0  0  0  0  0  0  0  0  0  0
    0.2353    1.5138    1.3350 N   0  0  0  0  0  0  0  0  0  0  0  0
    1.0459    0.9994    1.6675 H   0  0  0  0  0  0  0  0  0  0  0  0
    0.0126    2.8690    1.8237 C   0  0  0  0  0  0  0  0  0  0  0  0
   -0.8828    2.9073    2.4527 H   0  0  0  0  0  0  0  0  0  0  0  0
    0.8686    3.2012    2.4189 H   0  0  0  0  0  0  0  0  0  0  0  0
   -0.1149    3.5622    0.9856 H   0  0  0  0  0  0  0  0  0  0  0  0
  1  2  1  0  0  0  0
  2  3  1  0  0  0  0
  2  4  1  0  0  0  0
  2  5  1  0  0  0  0
  5  6  2  0  0  0  0
  5  7  1  0  0  0  0
  7  8  1  0  0  0  0
  7  9  1  0  0  0  0
  9 10  1  0  0  0  0
  9 11  1  0  0  0  0
  9 22  1  0  0  0  0
 11 12  1  0  0  0  0
 11 13  1  0  0  0  0
 11 14  1  0  0  0  0
 14 15  1  0  0  0  0
 14 20  2  0  0  0  0
 15 16  2  0  0  0  0
 16 17  1  0  0  0  0
 16 18  1  0  0  0  0
 18 19  1  0  0  0  0
 18 20  1  0  0  0  0
 20 21  1  0  0  0  0
 22 23  2  0  0  0  0
 22 24  1  0  0  0  0
 24 25  1  0  0  0  0
 24 26  1  0  0  0  0
 26 27  1  0  0  0  0
 26 28  1  0  0  0  0
 26 29  1  0  0  0  0
M  END
$$$$

  -OEChem-04042215593D

 29 29  0     1  0  0  0  0  0999 V2000
   -2.7721   -4.4836    1.3464 H   0  0  0  0  0  0  0  0  0  0  0  0
   -2.9214   -3.5128    0.8660 C   0  0  0  0  0  0  0  0  0  0  0  0
   -3.6792   -2.9567    1.4231 H   0  0  0  0  0  0  0  0  0  0  0  0
   -3.2753   -3.6753   -0.1550 H   0  0  0  0  0  0  0  0  0  0  0  0
   -1.6200   -2.7338    0.8429 C   0  0  0  0  0  0  0  0  0  0  0  0
   -0.6091   -3.2199    1.3283 O   0  0  0  0  0  0  0  0  0  0  0  0
   -1.5862   -1.4793    0.2712 N   0  0  0  0  0  0  0  0  0  0  0  0
   -2.4565   -1.1151   -0.1123 H   0  0  0  0  0  0  0  0  0  0  0  0
   -0.3869   -0.6406    0.1164 C   0  0  1  0  0  0  0  0  0  0  0  0
    0.3924   -1.0202    0.7847 H   0  0  0  0  0  0  0  0  0  0  0  0
    0.1723   -0.6776   -1.3253 C   0  0  0  0  0  0  0  0  0  0  0  0
   -0.3001    0.1183   -1.9107 H   0  0  0  0  0  0  0  0  0  0  0  0
    1.2455   -0.4705   -1.3032 H   0  0  0  0  0  0  0  0  0  0  0  0
   -0.0644   -1.9638   -2.0676 C   0  0  0  0  0  0  0  0  0  0  0  0
   -0.7808   -2.0510   -3.2550 N   0  0  0  0  0  0  0  0  0  0  0  0
   -0.7494   -3.3113   -3.6169 C   0  0  0  0  0  0  0  0  0  0  0  0
   -1.2218   -3.7121   -4.5090 H   0  0  0  0  0  0  0  0  0  0  0  0
   -0.0288   -4.0501   -2.6981 N   0  0  0  0  0  0  0  0  0  0  0  0
    0.1391   -5.0531   -2.7479 H   0  0  0  0  0  0  0  0  0  0  0  0
    0.4161   -3.1940   -1.7143 C   0  0  0  0  0  0  0  0  0  0  0  0
    1.0043   -3.4289   -0.8304 H   0  0  0  0  0  0  0  0  0  0  0  0
   -0.6713    0.8179    0.5274 C   0  0  0  0  0  0  0  0  0  0  0  0
   -1.7155    1.3615    0.1866 O   0  0  0  0  0  0  0  0  0  0  0  0
    0.2262    1.5068    1.3233 N   0  0  0  0  0  0  0  0  0  0  0  0
    1.0505    1.0072    1.6444 H   0  0  0  0  0  0  0  0  0  0  0  0
   -0.0017    2.8670    1.7955 C   0  0  0  0  0  0  0  0  0  0  0  0
   -0.9039    2.9119    2.4145 H   0  0  0  0  0  0  0  0  0  0  0  0
    0.8476    3.2051    2.3970 H   0  0  0  0  0  0  0  0  0  0  0  0
   -0.1199    3.5520    0.9493 H   0  0  0  0  0  0  0  0  0  0  0  0
  1  2  1  0  0  0  0
  2  3  1  0  0  0  0
  2  4  1  0  0  0  0
  2  5  1  0  0  0  0
  5  6  2  0  0  0  0
  5  7  1  0  0  0  0
  7  8  1  0  0  0  0
  7  9  1  0  0  0  0
  9 10  1  0  0  0  0
  9 11  1  0  0  0  0
  9 22  1  0  0  0  0
 11 12  1  0  0  0  0
 11 13  1  0  0  0  0
 11 14  1  0  0  0  0
 14 15  1  0  0  0  0
 14 20  2  0  0  0  0
 15 16  2  0  0  0  0
 16 17  1  0  0  0  0
 16 18  1  0  0  0  0
 18 19  1  0  0  0  0
 18 20  1  0  0  0  0
 20 21  1  0  0  0  0
 22 23  2  0  0  0  0
 22 24  1  0  0  0  0
 24 25  1  0  0  0  0
 24 26  1  0  0  0  0
 26 27  1  0  0  0  0
 26 28  1  0  0  0  0
 26 29  1  0  0  0  0
M  END
$$$$

  -OEChem-04042215593D

 29 29  0     1  0  0  0  0  0999 V2000
   -2.8713   -4.4230    1.5008 H   0  0  0  0  0  0  0  0  0  0  0  0
   -2.9954   -3.4670    0.9845 C   0  0  0  0  0  0  0  0  0  0  0  0
   -3.7329   -2.8682    1.5242 H   0  0  0  0  0  0  0  0  0  0  0  0
   -3.3616   -3.6572   -0.0273 H   0  0  0  0  0  0  0  0  0  0  0  0
   -1.6717   -2.7286    0.9245 C   0  0  0  0  0  0  0  0  0  0  0  0
   -0.6734   -3.2245    1.4249 O   0  0  0  0  0  0  0  0  0  0  0  0
   -1.6080   -1.4899    0.3223 N   0  0  0  0  0  0  0  0  0  0  0  0
   -2.4780   -1.0998   -0.0362 H   0  0  0  0  0  0  0  0  0  0  0  0
   -0.3962   -0.6725    0.1482 C   0  0  1  0  0  0  0  0  0  0  0  0
    0.3795   -1.0466    0.8239 H   0  0  0  0  0  0  0  0  0  0  0  0
    0.1650   -0.7232   -1.2952 C   0  0  0  0  0  0  0  0  0  0  0  0
   -0.3059    0.0770   -1.8759 H   0  0  0  0  0  0  0  0  0  0  0  0
    1.2381   -0.5154   -1.2732 H   0  0  0  0  0  0  0  0  0  0  0  0
   -0.0656   -1.9940   -2.0680 C   0  0  0  0  0  0  0  0  0  0  0  0
   -0.4961   -2.0058   -3.3895 N   0  0  0  0  0  0  0  0  0  0  0  0
   -0.5104   -3.2607   -3.7700 C   0  0  0  0  0  0  0  0  0  0  0  0
   -0.8049   -3.6068   -4.7568 H   0  0  0  0  0  0  0  0  0  0  0  0
   -0.0882   -4.0723   -2.7350 N   0  0  0  0  0  0  0  0  0  0  0  0
    0.0122   -5.0845   -2.7818 H   0  0  0  0  0  0  0  0  0  0  0  0
    0.2151   -3.2682   -1.6576 C   0  0  0  0  0  0  0  0  0  0  0  0
    0.6090   -3.5639   -0.6886 H   0  0  0  0  0  0  0  0  0  0  0  0
   -0.6766    0.7965    0.5262 C   0  0  0  0  0  0  0  0  0  0  0  0
   -1.7260    1.3296    0.1836 O   0  0  0  0  0  0  0  0  0  0  0  0
    0.2204    1.5000    1.3097 N   0  0  0  0  0  0  0  0  0  0  0  0
    1.0482    1.0086    1.6348 H   0  0  0  0  0  0  0  0  0  0  0  0
   -0.0078    2.8688    1.7566 C   0  0  0  0  0  0  0  0  0  0  0  0
   -0.8971    2.9206    2.3933 H   0  0  0  0  0  0  0  0  0  0  0  0
    0.8516    3.2271    2.3318 H   0  0  0  0  0  0  0  0  0  0  0  0
   -0.1494    3.5336    0.8980 H   0  0  0  0  0  0  0  0  0  0  0  0
  1  2  1  0  0  0  0
  2  3  1  0  0  0  0
  2  4  1  0  0  0  0
  2  5  1  0  0  0  0
  5  6  2  0  0  0  0
  5  7  1  0  0  0  0
  7  8  1  0  0  0  0
  7  9  1  0  0  0  0
  9 10  1  0  0  0  0
  9 11  1  0  0  0  0
  9 22  1  0  0  0  0
 11 12  1  0  0  0  0
 11 13  1  0  0  0  0
 11 14  1  0  0  0  0
 14 15  1  0  0  0  0
 14 20  2  0  0  0  0
 15 16  2  0  0  0  0
 16 17  1  0  0  0  0
 16 18  1  0  0  0  0
 18 19  1  0  0  0  0
 18 20  1  0  0  0  0
 20 21  1  0  0  0  0
 22 23  2  0  0  0  0
 22 24  1  0  0  0  0
 24 25  1  0  0  0  0
 24 26  1  0  0  0  0
 26 27  1  0  0  0  0
 26 28  1  0  0  0  0
 26 29  1  0  0  0  0
M  END
$$$$

  -OEChem-04042215593D

 29 29  0     1  0  0  0  0  0999 V2000
   -2.9529   -4.3744    1.6508 H   0  0  0  0  0  0  0  0  0  0  0  0
   -3.0615   -3.4261    1.1171 C   0  0  0  0  0  0  0  0  0  0  0  0
   -3.7739   -2.7977    1.6573 H   0  0  0  0  0  0  0  0  0  0  0  0
   -3.4500   -3.6275    0.1158 H   0  0  0  0  0  0  0  0  0  0  0  0
   -1.7207   -2.7233    1.0197 C   0  0  0  0  0  0  0  0  0  0  0  0
   -0.7303   -3.2261    1.5275 O   0  0  0  0  0  0  0  0  0  0  0  0
   -1.6350   -1.5021    0.3859 N   0  0  0  0  0  0  0  0  0  0  0  0
   -2.5045   -1.0933    0.0474 H   0  0  0  0  0  0  0  0  0  0  0  0
   -0.4132   -0.7059    0.1823 C   0  0  1  0  0  0  0  0  0  0  0  0
    0.3636   -1.0748    0.8598 H   0  0  0  0  0  0  0  0  0  0  0  0
    0.1425   -0.7667   -1.2658 C   0  0  0  0  0  0  0  0  0  0  0  0
   -0.3291    0.0386   -1.8393 H   0  0  0  0  0  0  0  0  0  0  0  0
    1.2151   -0.5559   -1.2454 H   0  0  0  0  0  0  0  0  0  0  0  0
   -0.0790   -2.0168   -2.0767 C   0  0  0  0  0  0  0  0  0  0  0  0
   -0.1955   -1.9666   -3.4612 N   0  0  0  0  0  0  0  0  0  0  0  0
   -0.2635   -3.2051   -3.8850 C   0  0  0  0  0  0  0  0  0  0  0  0
   -0.3634   -3.5010   -4.9254 H   0  0  0  0  0  0  0  0  0  0  0  0
   -0.1725   -4.0725   -2.8150 N   0  0  0  0  0  0  0  0  0  0  0  0
   -0.1546   -5.0886   -2.8799 H   0  0  0  0  0  0  0  0  0  0  0  0
   -0.0222   -3.3221   -1.6690 C   0  0  0  0  0  0  0  0  0  0  0  0
    0.1593   -3.6818   -0.6614 H   0  0  0  0  0  0  0  0  0  0  0  0
   -0.6852    0.7730    0.5276 C   0  0  0  0  0  0  0  0  0  0  0  0
   -1.7387    1.2991    0.1858 O   0  0  0  0  0  0  0  0  0  0  0  0
    0.2186    1.4909    1.2894 N   0  0  0  0  0  0  0  0  0  0  0  0
    1.0561    1.0101    1.6056 H   0  0  0  0  0  0  0  0  0  0  0  0
   -0.0022    2.8706    1.7042 C   0  0  0  0  0  0  0  0  0  0  0  0
   -0.9121    2.9484    2.3084 H   0  0  0  0  0  0  0  0  0  0  0  0
    0.8420    3.2248    2.3034 H   0  0  0  0  0  0  0  0  0  0  0  0
   -0.1029    3.5220    0.8297 H   0  0  0  0  0  0  0  0  0  0  0  0
  1  2  1  0  0  0  0
  2  3  1  0  0  0  0
  2  4  1  0  0  0  0
  2  5  1  0  0  0  0
  5  6  2  0  0  0  0
  5  7  1  0  0  0  0
  7  8  1  0  0  0  0
  7  9  1  0  0  0  0
  9 10  1  0  0  0  0
  9 11  1  0  0  0  0
  9 22  1  0  0  0  0
 11 12  1  0  0  0  0
 11 13  1  0  0  0  0
 11 14  1  0  0  0  0
 14 15  1  0  0  0  0
 14 20  2  0  0  0  0
 15 16  2  0  0  0  0
 16 17  1  0  0  0  0
 16 18  1  0  0  0  0
 18 19  1  0  0  0  0
 18 20  1  0  0  0  0
 20 21  1  0  0  0  0
 22 23  2  0  0  0  0
 22 24  1  0  0  0  0
 24 25  1  0  0  0  0
 24 26  1  0  0  0  0
 26 27  1  0  0  0  0
 26 28  1  0  0  0  0
 26 29  1  0  0  0  0
M  END
$$$$

  -OEChem-04042215593D

 29 29  0     1  0  0  0  0  0999 V2000
   -3.0198   -4.3106    1.8200 H   0  0  0  0  0  0  0  0  0  0  0  0
   -3.1220   -3.3677    1.2755 C   0  0  0  0  0  0  0  0  0  0  0  0
   -3.7834   -2.7056    1.8392 H   0  0  0  0  0  0  0  0  0  0  0  0
   -3.5676   -3.5710    0.2988 H   0  0  0  0  0  0  0  0  0  0  0  0
   -1.7642   -2.7147    1.0997 C   0  0  0  0  0  0  0  0  0  0  0  0
   -0.7681   -3.2448    1.5659 O   0  0  0  0  0  0  0  0  0  0  0  0
   -1.6653   -1.5109    0.4359 N   0  0  0  0  0  0  0  0  0  0  0  0
   -2.5363   -1.0689    0.1457 H   0  0  0  0  0  0  0  0  0  0  0  0
   -0.4324   -0.7400    0.2028 C   0  0  1  0  0  0  0  0  0  0  0  0
    0.3429   -1.1042    0.8844 H   0  0  0  0  0  0  0  0  0  0  0  0
    0.1299   -0.8126   -1.2452 C   0  0  0  0  0  0  0  0  0  0  0  0
   -0.3283    0.0014   -1.8172 H   0  0  0  0  0  0  0  0  0  0  0  0
    1.2035   -0.6077   -1.2093 H   0  0  0  0  0  0  0  0  0  0  0  0
   -0.0738   -2.0398   -2.0987 C   0  0  0  0  0  0  0  0  0  0  0  0
    0.1528   -1.9582   -3.4689 N   0  0  0  0  0  0  0  0  0  0  0  0
    0.0110   -3.1646   -3.9601 C   0  0  0  0  0  0  0  0  0  0  0  0
    0.1194   -3.4265   -5.0087 H   0  0  0  0  0  0  0  0  0  0  0  0
   -0.2792   -4.0497   -2.9429 N   0  0  0  0  0  0  0  0  0  0  0  0
   -0.3840   -5.0566   -3.0512 H   0  0  0  0  0  0  0  0  0  0  0  0
   -0.3001   -3.3468   -1.7575 C   0  0  0  0  0  0  0  0  0  0  0  0
   -0.4030   -3.7578   -0.7619 H   0  0  0  0  0  0  0  0  0  0  0  0
   -0.6956    0.7474    0.5211 C   0  0  0  0  0  0  0  0  0  0  0  0
   -1.7542    1.2681    0.1854 O   0  0  0  0  0  0  0  0  0  0  0  0
    0.2162    1.4768    1.2623 N   0  0  0  0  0  0  0  0  0  0  0  0
    1.0575    1.0007    1.5759 H   0  0  0  0  0  0  0  0  0  0  0  0
    0.0012    2.8634    1.6581 C   0  0  0  0  0  0  0  0  0  0  0  0
   -0.9070    2.9538    2.2633 H   0  0  0  0  0  0  0  0  0  0  0  0
    0.8479    3.2228    2.2506 H   0  0  0  0  0  0  0  0  0  0  0  0
   -0.0988    3.5028    0.7747 H   0  0  0  0  0  0  0  0  0  0  0  0
  1  2  1  0  0  0  0
  2  3  1  0  0  0  0
  2  4  1  0  0  0  0
  2  5  1  0  0  0  0
  5  6  2  0  0  0  0
  5  7  1  0  0  0  0
  7  8  1  0  0  0  0
  7  9  1  0  0  0  0
  9 10  1  0  0  0  0
  9 11  1  0  0  0  0
  9 22  1  0  0  0  0
 11 12  1  0  0  0  0
 11 13  1  0  0  0  0
 11 14  1  0  0  0  0
 14 15  1  0  0  0  0
 14 20  2  0  0  0  0
 15 16  2  0  0  0  0
 16 17  1  0  0  0  0
 16 18  1  0  0  0  0
 18 19  1  0  0  0  0
 18 20  1  0  0  0  0
 20 21  1  0  0  0  0
 22 23  2  0  0  0  0
 22 24  1  0  0  0  0
 24 25  1  0  0  0  0
 24 26  1  0  0  0  0
 26 27  1  0  0  0  0
 26 28  1  0  0  0  0
 26 29  1  0  0  0  0
M  END
$$$$

  -OEChem-04042215593D

 29 29  0     1  0  0  0  0  0999 V2000
   -2.9230   -4.3123    2.0041 H   0  0  0  0  0  0  0  0  0  0  0  0
   -3.0749   -3.3339    1.5395 C   0  0  0  0  0  0  0  0  0  0  0  0
   -3.5694   -2.6755    2.2582 H   0  0  0  0  0  0  0  0  0  0  0  0
   -3.7185   -3.4555    0.6649 H   0  0  0  0  0  0  0  0  0  0  0  0
   -1.7419   -2.7390    1.1259 C   0  0  0  0  0  0  0  0  0  0  0  0
   -0.7070   -3.3396    1.3620 O   0  0  0  0  0  0  0  0  0  0  0  0
   -1.7108   -1.5247    0.4717 N   0  0  0  0  0  0  0  0  0  0  0  0
   -2.5919   -1.0191    0.3846 H   0  0  0  0  0  0  0  0  0  0  0  0
   -0.4913   -0.7601    0.1716 C   0  0  1  0  0  0  0  0  0  0  0  0
    0.3045   -1.1234    0.8305 H   0  0  0  0  0  0  0  0  0  0  0  0
    0.0562   -0.8312   -1.2844 C   0  0  0  0  0  0  0  0  0  0  0  0
   -0.1600    0.1238   -1.7741 H   0  0  0  0  0  0  0  0  0  0  0  0
    1.1451   -0.9086   -1.2170 H   0  0  0  0  0  0  0  0  0  0  0  0
   -0.3948   -1.8799   -2.2758 C   0  0  0  0  0  0  0  0  0  0  0  0
    0.1660   -1.8410   -3.5493 N   0  0  0  0  0  0  0  0  0  0  0  0
   -0.3407   -2.8376   -4.2319 C   0  0  0  0  0  0  0  0  0  0  0  0
   -0.0973   -3.0734   -5.2640 H   0  0  0  0  0  0  0  0  0  0  0  0
   -1.2240   -3.5408   -3.4407 N   0  0  0  0  0  0  0  0  0  0  0  0
   -1.7350   -4.3732   -3.7274 H   0  0  0  0  0  0  0  0  0  0  0  0
   -1.2584   -2.9426   -2.1992 C   0  0  0  0  0  0  0  0  0  0  0  0
   -1.8360   -3.2663   -1.3456 H   0  0  0  0  0  0  0  0  0  0  0  0
   -0.7351    0.7213    0.5300 C   0  0  0  0  0  0  0  0  0  0  0  0
   -1.8233    1.2350    0.2920 O   0  0  0  0  0  0  0  0  0  0  0  0
    0.2193    1.4418    1.2245 N   0  0  0  0  0  0  0  0  0  0  0  0
    1.0947    0.9751    1.4456 H   0  0  0  0  0  0  0  0  0  0  0  0
    0.0284    2.8230    1.6500 C   0  0  0  0  0  0  0  0  0  0  0  0
   -0.8234    2.8988    2.3340 H   0  0  0  0  0  0  0  0  0  0  0  0
    0.9211    3.1863    2.1685 H   0  0  0  0  0  0  0  0  0  0  0  0
   -0.1551    3.4686    0.7846 H   0  0  0  0  0  0  0  0  0  0  0  0
  1  2  1  0  0  0  0
  2  3  1  0  0  0  0
  2  4  1  0  0  0  0
  2  5  1  0  0  0  0
  5  6  2  0  0  0  0
  5  7  1  0  0  0  0
  7  8  1  0  0  0  0
  7  9  1  0  0  0  0
  9 10  1  0  0  0  0
  9 11  1  0  0  0  0
  9 22  1  0  0  0  0
 11 12  1  0  0  0  0
 11 13  1  0  0  0  0
 11 14  1  0  0  0  0
 14 15  1  0  0  0  0
 14 20  2  0  0  0  0
 15 16  2  0  0  0  0
 16 17  1  0  0  0  0
 16 18  1  0  0  0  0
 18 19  1  0  0  0  0
 18 20  1  0  0  0  0
 20 21  1  0  0  0  0
 22 23  2  0  0  0  0
 22 24  1  0  0  0  0
 24 25  1  0  0  0  0
 24 26  1  0  0  0  0
 26 27  1  0  0  0  0
 26 28  1  0  0  0  0
 26 29  1  0  0  0  0
M  END
$$$$

  -OEChem-04042215593D

 29 29  0     1  0  0  0  0  0999 V2000
   -2.8758   -4.3227    1.9974 H   0  0  0  0  0  0  0  0  0  0  0  0
   -3.0471   -3.3634    1.5009 C   0  0  0  0  0  0  0  0  0  0  0  0
   -3.5723   -2.6991    2.1915 H   0  0  0  0  0  0  0  0  0  0  0  0
   -3.6716   -3.5297    0.6202 H   0  0  0  0  0  0  0  0  0  0  0  0
   -1.7237   -2.7445    1.0912 C   0  0  0  0  0  0  0  0  0  0  0  0
   -0.6808   -3.3304    1.3286 O   0  0  0  0  0  0  0  0  0  0  0  0
   -1.7094   -1.5177    0.4586 N   0  0  0  0  0  0  0  0  0  0  0  0
   -2.5928   -1.0128    0.3984 H   0  0  0  0  0  0  0  0  0  0  0  0
   -0.4958   -0.7441    0.1605 C   0  0  1  0  0  0  0  0  0  0  0  0
    0.3037   -1.1139    0.8112 H   0  0  0  0  0  0  0  0  0  0  0  0
    0.0443   -0.8124   -1.2970 C   0  0  0  0  0  0  0  0  0  0  0  0
   -0.1619    0.1425   -1.7905 H   0  0  0  0  0  0  0  0  0  0  0  0
    1.1324   -0.9018   -1.2282 H   0  0  0  0  0  0  0  0  0  0  0  0
   -0.4186   -1.8705   -2.2729 C   0  0  0  0  0  0  0  0  0  0  0  0
    0.3312   -2.0609   -3.4296 N   0  0  0  0  0  0  0  0  0  0  0  0
   -0.2573   -3.0009   -4.1267 C   0  0  0  0  0  0  0  0  0  0  0  0
    0.0946   -3.3791   -5.0824 H   0  0  0  0  0  0  0  0  0  0  0  0
   -1.3899   -3.4300   -3.4669 N   0  0  0  0  0  0  0  0  0  0  0  0
   -2.0254   -4.1521   -3.8001 H   0  0  0  0  0  0  0  0  0  0  0  0
   -1.5029   -2.7111   -2.2959 C   0  0  0  0  0  0  0  0  0  0  0  0
   -2.2927   -2.7893   -1.5611 H   0  0  0  0  0  0  0  0  0  0  0  0
   -0.7306    0.7316    0.5433 C   0  0  0  0  0  0  0  0  0  0  0  0
   -1.8187    1.2516    0.3196 O   0  0  0  0  0  0  0  0  0  0  0  0
    0.2332    1.4390    1.2381 N   0  0  0  0  0  0  0  0  0  0  0  0
    1.1093    0.9662    1.4432 H   0  0  0  0  0  0  0  0  0  0  0  0
    0.0530    2.8152    1.6833 C   0  0  0  0  0  0  0  0  0  0  0  0
   -0.7990    2.8888    2.3674 H   0  0  0  0  0  0  0  0  0  0  0  0
    0.9480    3.1628    2.2082 H   0  0  0  0  0  0  0  0  0  0  0  0
   -0.1238    3.4748    0.8272 H   0  0  0  0  0  0  0  0  0  0  0  0
  1  2  1  0  0  0  0
  2  3  1  0  0  0  0
  2  4  1  0  0  0  0
  2  5  1  0  0  0  0
  5  6  2  0  0  0  0
  5  7  1  0  0  0  0
  7  8  1  0  0  0  0
  7  9  1  0  0  0  0
  9 10  1  0  0  0  0
  9 11  1  0  0  0  0
  9 22  1  0  0  0  0
 11 12  1  0  0  0  0
 11 13  1  0  0  0  0
 11 14  1  0  0  0  0
 14 15  1  0  0  0  0
 14 20  2  0  0  0  0
 15 16  2  0  0  0  0
 16 17  1  0  0  0  0
 16 18  1  0  0  0  0
 18 19  1  0  0  0  0
 18 20  1  0  0  0  0
 20 21  1  0  0  0  0
 22 23  2  0  0  0  0
 22 24  1  0  0  0  0
 24 25  1  0  0  0  0
 24 26  1  0  0  0  0
 26 27  1  0  0  0  0
 26 28  1  0  0  0  0
 26 29  1  0  0  0  0
M  END
$$$$

  -OEChem-04042215593D

 29 29  0     1  0  0  0  0  0999 V2000
   -2.8483   -4.3472    1.9140 H   0  0  0  0  0  0  0  0  0  0  0  0
   -3.0208   -3.3952    1.4039 C   0  0  0  0  0  0  0  0  0  0  0  0
   -3.5828   -2.7361    2.0702 H   0  0  0  0  0  0  0  0  0  0  0  0
   -3.6099   -3.5805    0.5027 H   0  0  0  0  0  0  0  0  0  0  0  0
   -1.6968   -2.7529    1.0345 C   0  0  0  0  0  0  0  0  0  0  0  0
   -0.6512   -3.3241    1.2954 O   0  0  0  0  0  0  0  0  0  0  0  0
   -1.6871   -1.5157    0.4236 N   0  0  0  0  0  0  0  0  0  0  0  0
   -2.5752   -1.0202    0.3626 H   0  0  0  0  0  0  0  0  0  0  0  0
   -0.4782   -0.7268    0.1456 C   0  0  1  0  0  0  0  0  0  0  0  0
    0.3223   -1.1007    0.7926 H   0  0  0  0  0  0  0  0  0  0  0  0
    0.0612   -0.7852   -1.3114 C   0  0  0  0  0  0  0  0  0  0  0  0
   -0.1467    0.1672   -1.8089 H   0  0  0  0  0  0  0  0  0  0  0  0
    1.1497   -0.8760   -1.2490 H   0  0  0  0  0  0  0  0  0  0  0  0
   -0.4217   -1.8579   -2.2584 C   0  0  0  0  0  0  0  0  0  0  0  0
    0.4261   -2.3199   -3.2596 N   0  0  0  0  0  0  0  0  0  0  0  0
   -0.2489   -3.1947   -3.9638 C   0  0  0  0  0  0  0  0  0  0  0  0
    0.1443   -3.7419   -4.8158 H   0  0  0  0  0  0  0  0  0  0  0  0
   -1.5322   -3.3054   -3.4682 N   0  0  0  0  0  0  0  0  0  0  0  0
   -2.2597   -3.9063   -3.8502 H   0  0  0  0  0  0  0  0  0  0  0  0
   -1.6535   -2.4446   -2.3983 C   0  0  0  0  0  0  0  0  0  0  0  0
   -2.5402   -2.2493   -1.8074 H   0  0  0  0  0  0  0  0  0  0  0  0
   -0.7224    0.7406    0.5495 C   0  0  0  0  0  0  0  0  0  0  0  0
   -1.8095    1.2595    0.3181 O   0  0  0  0  0  0  0  0  0  0  0  0
    0.2325    1.4439    1.2603 N   0  0  0  0  0  0  0  0  0  0  0  0
    1.1052    0.9694    1.4763 H   0  0  0  0  0  0  0  0  0  0  0  0
    0.0395    2.8118    1.7251 C   0  0  0  0  0  0  0  0  0  0  0  0
   -0.8120    2.8669    2.4114 H   0  0  0  0  0  0  0  0  0  0  0  0
    0.9322    3.1607    2.2530 H   0  0  0  0  0  0  0  0  0  0  0  0
   -0.1454    3.4813    0.8784 H   0  0  0  0  0  0  0  0  0  0  0  0
  1  2  1  0  0  0  0
  2  3  1  0  0  0  0
  2  4  1  0  0  0  0
  2  5  1  0  0  0  0
  5  6  2  0  0  0  0
  5  7  1  0  0  0  0
  7  8  1  0  0  0  0
  7  9  1  0  0  0  0
  9 10  1  0  0  0  0
  9 11  1  0  0  0  0
  9 22  1  0  0  0  0
 11 12  1  0  0  0  0
 11 13  1  0  0  0  0
 11 14  1  0  0  0  0
 14 15  1  0  0  0  0
 14 20  2  0  0  0  0
 15 16  2  0  0  0  0
 16 17  1  0  0  0  0
 16 18  1  0  0  0  0
 18 19  1  0  0  0  0
 18 20  1  0  0  0  0
 20 21  1  0  0  0  0
 22 23  2  0  0  0  0
 22 24  1  0  0  0  0
 24 25  1  0  0  0  0
 24 26  1  0  0  0  0
 26 27  1  0  0  0  0
 26 28  1  0  0  0  0
 26 29  1  0  0  0  0
M  END
$$$$

  -OEChem-04042215593D

 29 29  0     1  0  0  0  0  0999 V2000
   -2.8241   -4.3911    1.7752 H   0  0  0  0  0  0  0  0  0  0  0  0
   -2.9920   -3.4318    1.2777 C   0  0  0  0  0  0  0  0  0  0  0  0
   -3.5986   -2.7988    1.9299 H   0  0  0  0  0  0  0  0  0  0  0  0
   -3.5325   -3.6086    0.3449 H   0  0  0  0  0  0  0  0  0  0  0  0
   -1.6656   -2.7561    0.9858 C   0  0  0  0  0  0  0  0  0  0  0  0
   -0.6229   -3.3024    1.3054 O   0  0  0  0  0  0  0  0  0  0  0  0
   -1.6526   -1.5144    0.3849 N   0  0  0  0  0  0  0  0  0  0  0  0
   -2.5467   -1.0392    0.2787 H   0  0  0  0  0  0  0  0  0  0  0  0
   -0.4451   -0.7124    0.1364 C   0  0  1  0  0  0  0  0  0  0  0  0
    0.3534   -1.0860    0.7860 H   0  0  0  0  0  0  0  0  0  0  0  0
    0.0919   -0.7643   -1.3203 C   0  0  0  0  0  0  0  0  0  0  0  0
   -0.1308    0.1830   -1.8208 H   0  0  0  0  0  0  0  0  0  0  0  0
    1.1816   -0.8509   -1.2754 H   0  0  0  0  0  0  0  0  0  0  0  0
   -0.4210   -1.8522   -2.2288 C   0  0  0  0  0  0  0  0  0  0  0  0
    0.4360   -2.5883   -3.0384 N   0  0  0  0  0  0  0  0  0  0  0  0
   -0.3135   -3.3839   -3.7614 C   0  0  0  0  0  0  0  0  0  0  0  0
    0.0618   -4.0971   -4.4898 H   0  0  0  0  0  0  0  0  0  0  0  0
   -1.6466   -3.1685   -3.4709 N   0  0  0  0  0  0  0  0  0  0  0  0
   -2.4292   -3.6412   -3.9187 H   0  0  0  0  0  0  0  0  0  0  0  0
   -1.7211   -2.1767   -2.5163 C   0  0  0  0  0  0  0  0  0  0  0  0
   -2.6092   -1.7207   -2.0917 H   0  0  0  0  0  0  0  0  0  0  0  0
   -0.7066    0.7501    0.5450 C   0  0  0  0  0  0  0  0  0  0  0  0
   -1.7849    1.2694    0.2753 O   0  0  0  0  0  0  0  0  0  0  0  0
    0.2288    1.4557    1.2788 N   0  0  0  0  0  0  0  0  0  0  0  0
    1.0879    0.9754    1.5333 H   0  0  0  0  0  0  0  0  0  0  0  0
    0.0116    2.8152    1.7574 C   0  0  0  0  0  0  0  0  0  0  0  0
   -0.8579    2.8530    2.4222 H   0  0  0  0  0  0  0  0  0  0  0  0
    0.8871    3.1646    2.3131 H   0  0  0  0  0  0  0  0  0  0  0  0
   -0.1574    3.4954    0.9161 H   0  0  0  0  0  0  0  0  0  0  0  0
  1  2  1  0  0  0  0
  2  3  1  0  0  0  0
  2  4  1  0  0  0  0
  2  5  1  0  0  0  0
  5  6  2  0  0  0  0
  5  7  1  0  0  0  0
  7  8  1  0  0  0  0
  7  9  1  0  0  0  0
  9 10  1  0  0  0  0
  9 11  1  0  0  0  0
  9 22  1  0  0  0  0
 11 12  1  0  0  0  0
 11 13  1  0  0  0  0
 11 14  1  0  0  0  0
 14 15  1  0  0  0  0
 14 20  2  0  0  0  0
 15 16  2  0  0  0  0
 16 17  1  0  0  0  0
 16 18  1  0  0  0  0
 18 19  1  0  0  0  0
 18 20  1  0  0  0  0
 20 21  1  0  0  0  0
 22 23  2  0  0  0  0
 22 24  1  0  0  0  0
 24 25  1  0  0  0  0
 24 26  1  0  0  0  0
 26 27  1  0  0  0  0
 26 28  1  0  0  0  0
 26 29  1  0  0  0  0
M  END
$$$$

  -OEChem-04042215593D

 29 29  0     1  0  0  0  0  0999 V2000
   -2.8010   -4.4366    1.6580 H   0  0  0  0  0  0  0  0  0  0  0  0
   -2.9668   -3.4773    1.1595 C   0  0  0  0  0  0  0  0  0  0  0  0
   -3.6286   -2.8681    1.7797 H   0  0  0  0  0  0  0  0  0  0  0  0
   -3.4461   -3.6598    0.1948 H   0  0  0  0  0  0  0  0  0  0  0  0
   -1.6455   -2.7618    0.9526 C   0  0  0  0  0  0  0  0  0  0  0  0
   -0.6106   -3.2758    1.3438 O   0  0  0  0  0  0  0  0  0  0  0  0
   -1.6314   -1.5158    0.3607 N   0  0  0  0  0  0  0  0  0  0  0  0
   -2.5296   -1.0753    0.1751 H   0  0  0  0  0  0  0  0  0  0  0  0
   -0.4260   -0.7013    0.1382 C   0  0  1  0  0  0  0  0  0  0  0  0
    0.3725   -1.0769    0.7868 H   0  0  0  0  0  0  0  0  0  0  0  0
    0.1046   -0.7403   -1.3195 C   0  0  0  0  0  0  0  0  0  0  0  0
   -0.1332    0.2050   -1.8169 H   0  0  0  0  0  0  0  0  0  0  0  0
    1.1951   -0.8219   -1.2944 H   0  0  0  0  0  0  0  0  0  0  0  0
   -0.4344   -1.8354   -2.1984 C   0  0  0  0  0  0  0  0  0  0  0  0
    0.3714   -2.7986   -2.7913 N   0  0  0  0  0  0  0  0  0  0  0  0
   -0.4095   -3.5237   -3.5544 C   0  0  0  0  0  0  0  0  0  0  0  0
   -0.0808   -4.3704   -4.1505 H   0  0  0  0  0  0  0  0  0  0  0  0
   -1.7041   -3.0422   -3.4998 N   0  0  0  0  0  0  0  0  0  0  0  0
   -2.4903   -3.4116   -4.0309 H   0  0  0  0  0  0  0  0  0  0  0  0
   -1.7198   -1.9516   -2.6561 C   0  0  0  0  0  0  0  0  0  0  0  0
   -2.5513   -1.2980   -2.4110 H   0  0  0  0  0  0  0  0  0  0  0  0
   -0.6994    0.7577    0.5505 C   0  0  0  0  0  0  0  0  0  0  0  0
   -1.7621    1.2854    0.2383 O   0  0  0  0  0  0  0  0  0  0  0  0
    0.2216    1.4626    1.3030 N   0  0  0  0  0  0  0  0  0  0  0  0
    1.0667    0.9753    1.5893 H   0  0  0  0  0  0  0  0  0  0  0  0
    0.0039    2.8287    1.7625 C   0  0  0  0  0  0  0  0  0  0  0  0
   -0.8624    2.8742    2.4308 H   0  0  0  0  0  0  0  0  0  0  0  0
    0.8816    3.1885    2.3078 H   0  0  0  0  0  0  0  0  0  0  0  0
   -0.1703    3.4961    0.9120 H   0  0  0  0  0  0  0  0  0  0  0  0
  1  2  1  0  0  0  0
  2  3  1  0  0  0  0
  2  4  1  0  0  0  0
  2  5  1  0  0  0  0
  5  6  2  0  0  0  0
  5  7  1  0  0  0  0
  7  8  1  0  0  0  0
  7  9  1  0  0  0  0
  9 10  1  0  0  0  0
  9 11  1  0  0  0  0
  9 22  1  0  0  0  0
 11 12  1  0  0  0  0
 11 13  1  0  0  0  0
 11 14  1  0  0  0  0
 14 15  1  0  0  0  0
 14 20  2  0  0  0  0
 15 16  2  0  0  0  0
 16 17  1  0  0  0  0
 16 18  1  0  0  0  0
 18 19  1  0  0  0  0
 18 20  1  0  0  0  0
 20 21  1  0  0  0  0
 22 23  2  0  0  0  0
 22 24  1  0  0  0  0
 24 25  1  0  0  0  0
 24 26  1  0  0  0  0
 26 27  1  0  0  0  0
 26 28  1  0  0  0  0
 26 29  1  0  0  0  0
M  END
$$$$

  -OEChem-04042215593D

 29 29  0     1  0  0  0  0  0999 V2000
   -2.7689   -4.4805    1.5070 H   0  0  0  0  0  0  0  0  0  0  0  0
   -2.9328   -3.5174    1.0156 C   0  0  0  0  0  0  0  0  0  0  0  0
   -3.6654   -2.9473    1.5918 H   0  0  0  0  0  0  0  0  0  0  0  0
   -3.3256   -3.6970    0.0119 H   0  0  0  0  0  0  0  0  0  0  0  0
   -1.6284   -2.7480    0.9281 C   0  0  0  0  0  0  0  0  0  0  0  0
   -0.6108   -3.2232    1.4048 O   0  0  0  0  0  0  0  0  0  0  0  0
   -1.6143   -1.4984    0.3440 N   0  0  0  0  0  0  0  0  0  0  0  0
   -2.5061   -1.1046    0.0552 H   0  0  0  0  0  0  0  0  0  0  0  0
   -0.4114   -0.6762    0.1357 C   0  0  1  0  0  0  0  0  0  0  0  0
    0.3907   -1.0541    0.7779 H   0  0  0  0  0  0  0  0  0  0  0  0
    0.1038   -0.7100   -1.3272 C   0  0  0  0  0  0  0  0  0  0  0  0
   -0.1437    0.2351   -1.8205 H   0  0  0  0  0  0  0  0  0  0  0  0
    1.1943   -0.7935   -1.3227 H   0  0  0  0  0  0  0  0  0  0  0  0
   -0.4596   -1.8110   -2.1809 C   0  0  0  0  0  0  0  0  0  0  0  0
    0.2460   -2.9505   -2.5416 N   0  0  0  0  0  0  0  0  0  0  0  0
   -0.5378   -3.6396   -3.3346 C   0  0  0  0  0  0  0  0  0  0  0  0
   -0.2785   -4.5928   -3.7865 H   0  0  0  0  0  0  0  0  0  0  0  0
   -1.7330   -2.9688   -3.5184 N   0  0  0  0  0  0  0  0  0  0  0  0
   -2.4959   -3.2818   -4.1158 H   0  0  0  0  0  0  0  0  0  0  0  0
   -1.6798   -1.7929   -2.7999 C   0  0  0  0  0  0  0  0  0  0  0  0
   -2.4236   -1.0040   -2.7359 H   0  0  0  0  0  0  0  0  0  0  0  0
   -0.6888    0.7807    0.5532 C   0  0  0  0  0  0  0  0  0  0  0  0
   -1.7364    1.3215    0.2133 O   0  0  0  0  0  0  0  0  0  0  0  0
    0.2287    1.4796    1.3156 N   0  0  0  0  0  0  0  0  0  0  0  0
    1.0582    0.9801    1.6255 H   0  0  0  0  0  0  0  0  0  0  0  0
    0.0142    2.8451    1.7779 C   0  0  0  0  0  0  0  0  0  0  0  0
   -0.8723    2.8987    2.4185 H   0  0  0  0  0  0  0  0  0  0  0  0
    0.8789    3.1885    2.3541 H   0  0  0  0  0  0  0  0  0  0  0  0
   -0.1238    3.5204    0.9270 H   0  0  0  0  0  0  0  0  0  0  0  0
  1  2  1  0  0  0  0
  2  3  1  0  0  0  0
  2  4  1  0  0  0  0
  2  5  1  0  0  0  0
  5  6  2  0  0  0  0
  5  7  1  0  0  0  0
  7  8  1  0  0  0  0
  7  9  1  0  0  0  0
  9 10  1  0  0  0  0
  9 11  1  0  0  0  0
  9 22  1  0  0  0  0
 11 12  1  0  0  0  0
 11 13  1  0  0  0  0
 11 14  1  0  0  0  0
 14 15  1  0  0  0  0
 14 20  2  0  0  0  0
 15 16  2  0  0  0  0
 16 17  1  0  0  0  0
 16 18  1  0  0  0  0
 18 19  1  0  0  0  0
 18 20  1  0  0  0  0
 20 21  1  0  0  0  0
 22 23  2  0  0  0  0
 22 24  1  0  0  0  0
 24 25  1  0  0  0  0
 24 26  1  0  0  0  0
 26 27  1  0  0  0  0
 26 28  1  0  0  0  0
 26 29  1  0  0  0  0
M  END
$$$$

  -OEChem-04042215593D

 29 29  0     1  0  0  0  0  0999 V2000
   -2.7374   -4.5119    1.4023 H   0  0  0  0  0  0  0  0  0  0  0  0
   -2.9001   -3.5501    0.9081 C   0  0  0  0  0  0  0  0  0  0  0  0
   -3.6922   -3.0120    1.4342 H   0  0  0  0  0  0  0  0  0  0  0  0
   -3.2125   -3.7327   -0.1228 H   0  0  0  0  0  0  0  0  0  0  0  0
   -1.6216   -2.7343    0.9214 C   0  0  0  0  0  0  0  0  0  0  0  0
   -0.6294   -3.1702    1.4828 O   0  0  0  0  0  0  0  0  0  0  0  0
   -1.6090   -1.4837    0.3390 N   0  0  0  0  0  0  0  0  0  0  0  0
   -2.4811   -1.1406   -0.0545 H   0  0  0  0  0  0  0  0  0  0  0  0
   -0.4047   -0.6612    0.1401 C   0  0  1  0  0  0  0  0  0  0  0  0
    0.3989   -1.0436    0.7778 H   0  0  0  0  0  0  0  0  0  0  0  0
    0.0990   -0.6911   -1.3269 C   0  0  0  0  0  0  0  0  0  0  0  0
   -0.1463    0.2573   -1.8149 H   0  0  0  0  0  0  0  0  0  0  0  0
    1.1889   -0.7830   -1.3322 H   0  0  0  0  0  0  0  0  0  0  0  0
   -0.4813   -1.7901   -2.1717 C   0  0  0  0  0  0  0  0  0  0  0  0
    0.0768   -3.0539   -2.3011 N   0  0  0  0  0  0  0  0  0  0  0  0
   -0.6798   -3.7121   -3.1448 C   0  0  0  0  0  0  0  0  0  0  0  0
   -0.5096   -4.7376   -3.4599 H   0  0  0  0  0  0  0  0  0  0  0  0
   -1.7172   -2.9064   -3.5770 N   0  0  0  0  0  0  0  0  0  0  0  0
   -2.4268   -3.1764   -4.2557 H   0  0  0  0  0  0  0  0  0  0  0  0
   -1.5873   -1.6755   -2.9686 C   0  0  0  0  0  0  0  0  0  0  0  0
   -2.2091   -0.7926   -3.0879 H   0  0  0  0  0  0  0  0  0  0  0  0
   -0.6783    0.7969    0.5574 C   0  0  0  0  0  0  0  0  0  0  0  0
   -1.7074    1.3533    0.1877 O   0  0  0  0  0  0  0  0  0  0  0  0
    0.2378    1.4916    1.3257 N   0  0  0  0  0  0  0  0  0  0  0  0
    1.0468    0.9789    1.6666 H   0  0  0  0  0  0  0  0  0  0  0  0
    0.0287    2.8607    1.7796 C   0  0  0  0  0  0  0  0  0  0  0  0
   -0.8637    2.9229    2.4110 H   0  0  0  0  0  0  0  0  0  0  0  0
    0.8899    3.2005    2.3626 H   0  0  0  0  0  0  0  0  0  0  0  0
   -0.0959    3.5334    0.9246 H   0  0  0  0  0  0  0  0  0  0  0  0
  1  2  1  0  0  0  0
  2  3  1  0  0  0  0
  2  4  1  0  0  0  0
  2  5  1  0  0  0  0
  5  6  2  0  0  0  0
  5  7  1  0  0  0  0
  7  8  1  0  0  0  0
  7  9  1  0  0  0  0
  9 10  1  0  0  0  0
  9 11  1  0  0  0  0
  9 22  1  0  0  0  0
 11 12  1  0  0  0  0
 11 13  1  0  0  0  0
 11 14  1  0  0  0  0
 14 15  1  0  0  0  0
 14 20  2  0  0  0  0
 15 16  2  0  0  0  0
 16 17  1  0  0  0  0
 16 18  1  0  0  0  0
 18 19  1  0  0  0  0
 18 20  1  0  0  0  0
 20 21  1  0  0  0  0
 22 23  2  0  0  0  0
 22 24  1  0  0  0  0
 24 25  1  0  0  0  0
 24 26  1  0  0  0  0
 26 27  1  0  0  0  0
 26 28  1  0  0  0  0
 26 29  1  0  0  0  0
M  END
$$$$

  -OEChem-04042215593D

 29 29  0     1  0  0  0  0  0999 V2000
   -2.7045   -4.5331    1.3420 H   0  0  0  0  0  0  0  0  0  0  0  0
   -2.8705   -3.5762    0.8396 C   0  0  0  0  0  0  0  0  0  0  0  0
   -3.7109   -3.0667    1.3168 H   0  0  0  0  0  0  0  0  0  0  0  0
   -3.1130   -3.7662   -0.2086 H   0  0  0  0  0  0  0  0  0  0  0  0
   -1.6242   -2.7168    0.9300 C   0  0  0  0  0  0  0  0  0  0  0  0
   -0.6582   -3.1126    1.5636 O   0  0  0  0  0  0  0  0  0  0  0  0
   -1.6188   -1.4677    0.3440 N   0  0  0  0  0  0  0  0  0  0  0  0
   -2.4659   -1.1762   -0.1353 H   0  0  0  0  0  0  0  0  0  0  0  0
   -0.4130   -0.6475    0.1464 C   0  0  1  0  0  0  0  0  0  0  0  0
    0.3912   -1.0317    0.7823 H   0  0  0  0  0  0  0  0  0  0  0  0
    0.0866   -0.6801   -1.3230 C   0  0  0  0  0  0  0  0  0  0  0  0
   -0.1483    0.2719   -1.8097 H   0  0  0  0  0  0  0  0  0  0  0  0
    1.1755   -0.7826   -1.3259 H   0  0  0  0  0  0  0  0  0  0  0  0
   -0.4966   -1.7774   -2.1704 C   0  0  0  0  0  0  0  0  0  0  0  0
   -0.1334   -3.1147   -2.0874 N   0  0  0  0  0  0  0  0  0  0  0  0
   -0.8328   -3.7518   -2.9940 C   0  0  0  0  0  0  0  0  0  0  0  0
   -0.7741   -4.8196   -3.1854 H   0  0  0  0  0  0  0  0  0  0  0  0
   -1.6501   -2.8634   -3.6677 N   0  0  0  0  0  0  0  0  0  0  0  0
   -2.2777   -3.1064   -4.4319 H   0  0  0  0  0  0  0  0  0  0  0  0
   -1.4337   -1.6030   -3.1509 C   0  0  0  0  0  0  0  0  0  0  0  0
   -1.8927   -0.6640   -3.4471 H   0  0  0  0  0  0  0  0  0  0  0  0
   -0.6786    0.8134    0.5594 C   0  0  0  0  0  0  0  0  0  0  0  0
   -1.6909    1.3866    0.1697 O   0  0  0  0  0  0  0  0  0  0  0  0
    0.2444    1.4993    1.3272 N   0  0  0  0  0  0  0  0  0  0  0  0
    1.0356    0.9717    1.6864 H   0  0  0  0  0  0  0  0  0  0  0  0
    0.0502    2.8713    1.7785 C   0  0  0  0  0  0  0  0  0  0  0  0
   -0.8459    2.9457    2.4034 H   0  0  0  0  0  0  0  0  0  0  0  0
    0.9118    3.1997    2.3678 H   0  0  0  0  0  0  0  0  0  0  0  0
   -0.0593    3.5447    0.9219 H   0  0  0  0  0  0  0  0  0  0  0  0
  1  2  1  0  0  0  0
  2  3  1  0  0  0  0
  2  4  1  0  0  0  0
  2  5  1  0  0  0  0
  5  6  2  0  0  0  0
  5  7  1  0  0  0  0
  7  8  1  0  0  0  0
  7  9  1  0  0  0  0
  9 10  1  0  0  0  0
  9 11  1  0  0  0  0
  9 22  1  0  0  0  0
 11 12  1  0  0  0  0
 11 13  1  0  0  0  0
 11 14  1  0  0  0  0
 14 15  1  0  0  0  0
 14 20  2  0  0  0  0
 15 16  2  0  0  0  0
 16 17  1  0  0  0  0
 16 18  1  0  0  0  0
 18 19  1  0  0  0  0
 18 20  1  0  0  0  0
 20 21  1  0  0  0  0
 22 23  2  0  0  0  0
 22 24  1  0  0  0  0
 24 25  1  0  0  0  0
 24 26  1  0  0  0  0
 26 27  1  0  0  0  0
 26 28  1  0  0  0  0
 26 29  1  0  0  0  0
M  END
$$$$

  -OEChem-04042215593D

 29 29  0     1  0  0  0  0  0999 V2000
   -2.6885   -4.5403    1.3632 H   0  0  0  0  0  0  0  0  0  0  0  0
   -2.8539   -3.5955    0.8384 C   0  0  0  0  0  0  0  0  0  0  0  0
   -3.7269   -3.0991    1.2685 H   0  0  0  0  0  0  0  0  0  0  0  0
   -3.0429   -3.8076   -0.2165 H   0  0  0  0  0  0  0  0  0  0  0  0
   -1.6330   -2.7055    0.9707 C   0  0  0  0  0  0  0  0  0  0  0  0
   -0.6876   -3.0687    1.6543 O   0  0  0  0  0  0  0  0  0  0  0  0
   -1.6304   -1.4632    0.3693 N   0  0  0  0  0  0  0  0  0  0  0  0
   -2.4523   -1.2150   -0.1733 H   0  0  0  0  0  0  0  0  0  0  0  0
   -0.4195   -0.6534    0.1643 C   0  0  1  0  0  0  0  0  0  0  0  0
    0.3838   -1.0359    0.8020 H   0  0  0  0  0  0  0  0  0  0  0  0
    0.0779   -0.6934   -1.3075 C   0  0  0  0  0  0  0  0  0  0  0  0
   -0.1370    0.2643   -1.7921 H   0  0  0  0  0  0  0  0  0  0  0  0
    1.1651   -0.8113   -1.2997 H   0  0  0  0  0  0  0  0  0  0  0  0
   -0.4998   -1.7811   -2.1760 C   0  0  0  0  0  0  0  0  0  0  0  0
   -0.3878   -3.1468   -1.9446 N   0  0  0  0  0  0  0  0  0  0  0  0
   -1.0037   -3.7512   -2.9308 C   0  0  0  0  0  0  0  0  0  0  0  0
   -1.0881   -4.8284   -3.0428 H   0  0  0  0  0  0  0  0  0  0  0  0
   -1.5283   -2.8146   -3.8006 N   0  0  0  0  0  0  0  0  0  0  0  0
   -2.0440   -3.0272   -4.6528 H   0  0  0  0  0  0  0  0  0  0  0  0
   -1.2078   -1.5603   -3.3254 C   0  0  0  0  0  0  0  0  0  0  0  0
   -1.4519   -0.5944   -3.7585 H   0  0  0  0  0  0  0  0  0  0  0  0
   -0.6787    0.8137    0.5623 C   0  0  0  0  0  0  0  0  0  0  0  0
   -1.6789    1.3945    0.1531 O   0  0  0  0  0  0  0  0  0  0  0  0
    0.2460    1.5042    1.3246 N   0  0  0  0  0  0  0  0  0  0  0  0
    1.0232    0.9729    1.7080 H   0  0  0  0  0  0  0  0  0  0  0  0
    0.0567    2.8836    1.7555 C   0  0  0  0  0  0  0  0  0  0  0  0
   -0.8275    2.9667    2.3961 H   0  0  0  0  0  0  0  0  0  0  0  0
    0.9284    3.2260    2.3214 H   0  0  0  0  0  0  0  0  0  0  0  0
   -0.0716    3.5418    0.8897 H   0  0  0  0  0  0  0  0  0  0  0  0
  1  2  1  0  0  0  0
  2  3  1  0  0  0  0
  2  4  1  0  0  0  0
  2  5  1  0  0  0  0
  5  6  2  0  0  0  0
  5  7  1  0  0  0  0
  7  8  1  0  0  0  0
  7  9  1  0  0  0  0
  9 10  1  0  0  0  0
  9 11  1  0  0  0  0
  9 22  1  0  0  0  0
 11 12  1  0  0  0  0
 11 13  1  0  0  0  0
 11 14  1  0  0  0  0
 14 15  1  0  0  0  0
 14 20  2  0  0  0  0
 15 16  2  0  0  0  0
 16 17  1  0  0  0  0
 16 18  1  0  0  0  0
 18 19  1  0  0  0  0
 18 20  1  0  0  0  0
 20 21  1  0  0  0  0
 22 23  2  0  0  0  0
 22 24  1  0  0  0  0
 24 25  1  0  0  0  0
 24 26  1  0  0  0  0
 26 27  1  0  0  0  0
 26 28  1  0  0  0  0
 26 29  1  0  0  0  0
M  END
$$$$

  -OEChem-04042215593D

 29 29  0     1  0  0  0  0  0999 V2000
   -2.6909   -4.5375    1.4393 H   0  0  0  0  0  0  0  0  0  0  0  0
   -2.8609   -3.6003    0.9025 C   0  0  0  0  0  0  0  0  0  0  0  0
   -3.7363   -3.1029    1.3260 H   0  0  0  0  0  0  0  0  0  0  0  0
   -3.0495   -3.8271   -0.1494 H   0  0  0  0  0  0  0  0  0  0  0  0
   -1.6447   -2.7017    1.0230 C   0  0  0  0  0  0  0  0  0  0  0  0
   -0.7027   -3.0449    1.7226 O   0  0  0  0  0  0  0  0  0  0  0  0
   -1.6459   -1.4683    0.4025 N   0  0  0  0  0  0  0  0  0  0  0  0
   -2.4520   -1.2545   -0.1767 H   0  0  0  0  0  0  0  0  0  0  0  0
   -0.4332   -0.6673    0.1796 C   0  0  1  0  0  0  0  0  0  0  0  0
    0.3723   -1.0425    0.8189 H   0  0  0  0  0  0  0  0  0  0  0  0
    0.0656   -0.7144   -1.2935 C   0  0  0  0  0  0  0  0  0  0  0  0
   -0.1310    0.2481   -1.7767 H   0  0  0  0  0  0  0  0  0  0  0  0
    1.1514   -0.8420   -1.2695 H   0  0  0  0  0  0  0  0  0  0  0  0
   -0.4930   -1.7923   -2.1917 C   0  0  0  0  0  0  0  0  0  0  0  0
   -0.6550   -3.1395   -1.8846 N   0  0  0  0  0  0  0  0  0  0  0  0
   -1.1622   -3.7174   -2.9459 C   0  0  0  0  0  0  0  0  0  0  0  0
   -1.3982   -4.7749   -3.0249 H   0  0  0  0  0  0  0  0  0  0  0  0
   -1.3546   -2.7806   -3.9417 N   0  0  0  0  0  0  0  0  0  0  0  0
   -1.7321   -2.9748   -4.8674 H   0  0  0  0  0  0  0  0  0  0  0  0
   -0.9326   -1.5572   -3.4661 C   0  0  0  0  0  0  0  0  0  0  0  0
   -0.9370   -0.6008   -3.9812 H   0  0  0  0  0  0  0  0  0  0  0  0
   -0.6895    0.8056    0.5598 C   0  0  0  0  0  0  0  0  0  0  0  0
   -1.6839    1.3889    0.1400 O   0  0  0  0  0  0  0  0  0  0  0  0
    0.2417    1.5015    1.3090 N   0  0  0  0  0  0  0  0  0  0  0  0
    1.0099    0.9676    1.7068 H   0  0  0  0  0  0  0  0  0  0  0  0
    0.0615    2.8881    1.7205 C   0  0  0  0  0  0  0  0  0  0  0  0
   -0.8203    2.9850    2.3625 H   0  0  0  0  0  0  0  0  0  0  0  0
    0.9372    3.2330    2.2787 H   0  0  0  0  0  0  0  0  0  0  0  0
   -0.0657    3.5348    0.8459 H   0  0  0  0  0  0  0  0  0  0  0  0
  1  2  1  0  0  0  0
  2  3  1  0  0  0  0
  2  4  1  0  0  0  0
  2  5  1  0  0  0  0
  5  6  2  0  0  0  0
  5  7  1  0  0  0  0
  7  8  1  0  0  0  0
  7  9  1  0  0  0  0
  9 10  1  0  0  0  0
  9 11  1  0  0  0  0
  9 22  1  0  0  0  0
 11 12  1  0  0  0  0
 11 13  1  0  0  0  0
 11 14  1  0  0  0  0
 14 15  1  0  0  0  0
 14 20  2  0  0  0  0
 15 16  2  0  0  0  0
 16 17  1  0  0  0  0
 16 18  1  0  0  0  0
 18 19  1  0  0  0  0
 18 20  1  0  0  0  0
 20 21  1  0  0  0  0
 22 23  2  0  0  0  0
 22 24  1  0  0  0  0
 24 25  1  0  0  0  0
 24 26  1  0  0  0  0
 26 27  1  0  0  0  0
 26 28  1  0  0  0  0
 26 29  1  0  0  0  0
M  END
$$$$

  -OEChem-04042215593D

 29 29  0     1  0  0  0  0  0999 V2000
   -2.7015   -4.5232    1.5276 H   0  0  0  0  0  0  0  0  0  0  0  0
   -2.8790   -3.5912    0.9840 C   0  0  0  0  0  0  0  0  0  0  0  0
   -3.7426   -3.0846    1.4209 H   0  0  0  0  0  0  0  0  0  0  0  0
   -3.0926   -3.8294   -0.0606 H   0  0  0  0  0  0  0  0  0  0  0  0
   -1.6560   -2.6971    1.0679 C   0  0  0  0  0  0  0  0  0  0  0  0
   -0.7046   -3.0353    1.7579 O   0  0  0  0  0  0  0  0  0  0  0  0
   -1.6618   -1.4710    0.4327 N   0  0  0  0  0  0  0  0  0  0  0  0
   -2.4604   -1.2825   -0.1658 H   0  0  0  0  0  0  0  0  0  0  0  0
   -0.4482   -0.6793    0.1877 C   0  0  1  0  0  0  0  0  0  0  0  0
    0.3599   -1.0487    0.8269 H   0  0  0  0  0  0  0  0  0  0  0  0
    0.0485   -0.7377   -1.2880 C   0  0  0  0  0  0  0  0  0  0  0  0
   -0.1421    0.2256   -1.7723 H   0  0  0  0  0  0  0  0  0  0  0  0
    1.1339   -0.8657   -1.2559 H   0  0  0  0  0  0  0  0  0  0  0  0
   -0.4940   -1.8089   -2.2092 C   0  0  0  0  0  0  0  0  0  0  0  0
   -0.9332   -3.0906   -1.8881 N   0  0  0  0  0  0  0  0  0  0  0  0
   -1.3146   -3.6616   -3.0043 C   0  0  0  0  0  0  0  0  0  0  0  0
   -1.7033   -4.6728   -3.0844 H   0  0  0  0  0  0  0  0  0  0  0  0
   -1.1541   -2.7834   -4.0563 N   0  0  0  0  0  0  0  0  0  0  0  0
   -1.3782   -2.9832   -5.0295 H   0  0  0  0  0  0  0  0  0  0  0  0
   -0.6380   -1.6072   -3.5559 C   0  0  0  0  0  0  0  0  0  0  0  0
   -0.3887   -0.7022   -4.1024 H   0  0  0  0  0  0  0  0  0  0  0  0
   -0.6974    0.7986    0.5552 C   0  0  0  0  0  0  0  0  0  0  0  0
   -1.6918    1.3834    0.1382 O   0  0  0  0  0  0  0  0  0  0  0  0
    0.2441    1.4989    1.2878 N   0  0  0  0  0  0  0  0  0  0  0  0
    1.0089    0.9640    1.6904 H   0  0  0  0  0  0  0  0  0  0  0  0
    0.0682    2.8874    1.6955 C   0  0  0  0  0  0  0  0  0  0  0  0
   -0.8048    2.9866    2.3488 H   0  0  0  0  0  0  0  0  0  0  0  0
    0.9507    3.2357    2.2405 H   0  0  0  0  0  0  0  0  0  0  0  0
   -0.0713    3.5304    0.8200 H   0  0  0  0  0  0  0  0  0  0  0  0
  1  2  1  0  0  0  0
  2  3  1  0  0  0  0
  2  4  1  0  0  0  0
  2  5  1  0  0  0  0
  5  6  2  0  0  0  0
  5  7  1  0  0  0  0
  7  8  1  0  0  0  0
  7  9  1  0  0  0  0
  9 10  1  0  0  0  0
  9 11  1  0  0  0  0
  9 22  1  0  0  0  0
 11 12  1  0  0  0  0
 11 13  1  0  0  0  0
 11 14  1  0  0  0  0
 14 15  1  0  0  0  0
 14 20  2  0  0  0  0
 15 16  2  0  0  0  0
 16 17  1  0  0  0  0
 16 18  1  0  0  0  0
 18 19  1  0  0  0  0
 18 20  1  0  0  0  0
 20 21  1  0  0  0  0
 22 23  2  0  0  0  0
 22 24  1  0  0  0  0
 24 25  1  0  0  0  0
 24 26  1  0  0  0  0
 26 27  1  0  0  0  0
 26 28  1  0  0  0  0
 26 29  1  0  0  0  0
M  END
$$$$

  -OEChem-04042215593D

 29 29  0     1  0  0  0  0  0999 V2000
   -2.7191   -4.5131    1.5731 H   0  0  0  0  0  0  0  0  0  0  0  0
   -2.9028   -3.5751    1.0425 C   0  0  0  0  0  0  0  0  0  0  0  0
   -3.7442   -3.0608    1.5124 H   0  0  0  0  0  0  0  0  0  0  0  0
   -3.1560   -3.8020    0.0043 H   0  0  0  0  0  0  0  0  0  0  0  0
   -1.6665   -2.6967    1.0906 C   0  0  0  0  0  0  0  0  0  0  0  0
   -0.6978   -3.0489    1.7490 O   0  0  0  0  0  0  0  0  0  0  0  0
   -1.6760   -1.4713    0.4545 N   0  0  0  0  0  0  0  0  0  0  0  0
   -2.4729   -1.2956   -0.1508 H   0  0  0  0  0  0  0  0  0  0  0  0
   -0.4639   -0.6849    0.1906 C   0  0  1  0  0  0  0  0  0  0  0  0
    0.3491   -1.0550    0.8230 H   0  0  0  0  0  0  0  0  0  0  0  0
    0.0241   -0.7493   -1.2887 C   0  0  0  0  0  0  0  0  0  0  0  0
   -0.1806    0.2119   -1.7713 H   0  0  0  0  0  0  0  0  0  0  0  0
    1.1113   -0.8637   -1.2628 H   0  0  0  0  0  0  0  0  0  0  0  0
   -0.5117   -1.8153   -2.2226 C   0  0  0  0  0  0  0  0  0  0  0  0
   -1.2078   -2.9875   -1.9340 N   0  0  0  0  0  0  0  0  0  0  0  0
   -1.4532   -3.5866   -3.0737 C   0  0  0  0  0  0  0  0  0  0  0  0
   -1.9771   -4.5324   -3.1796 H   0  0  0  0  0  0  0  0  0  0  0  0
   -0.9509   -2.8327   -4.1139 N   0  0  0  0  0  0  0  0  0  0  0  0
   -1.0123   -3.0760   -5.1009 H   0  0  0  0  0  0  0  0  0  0  0  0
   -0.3564   -1.7102   -3.5790 C   0  0  0  0  0  0  0  0  0  0  0  0
    0.1399   -0.9022   -4.1085 H   0  0  0  0  0  0  0  0  0  0  0  0
   -0.7026    0.7945    0.5601 C   0  0  0  0  0  0  0  0  0  0  0  0
   -1.6993    1.3837    0.1552 O   0  0  0  0  0  0  0  0  0  0  0  0
    0.2517    1.4928    1.2780 N   0  0  0  0  0  0  0  0  0  0  0  0
    1.0204    0.9568    1.6714 H   0  0  0  0  0  0  0  0  0  0  0  0
    0.0867    2.8839    1.6809 C   0  0  0  0  0  0  0  0  0  0  0  0
   -0.7933    2.9956    2.3231 H   0  0  0  0  0  0  0  0  0  0  0  0
    0.9662    3.2234    2.2362 H   0  0  0  0  0  0  0  0  0  0  0  0
   -0.0346    3.5255    0.8018 H   0  0  0  0  0  0  0  0  0  0  0  0
  1  2  1  0  0  0  0
  2  3  1  0  0  0  0
  2  4  1  0  0  0  0
  2  5  1  0  0  0  0
  5  6  2  0  0  0  0
  5  7  1  0  0  0  0
  7  8  1  0  0  0  0
  7  9  1  0  0  0  0
  9 10  1  0  0  0  0
  9 11  1  0  0  0  0
  9 22  1  0  0  0  0
 11 12  1  0  0  0  0
 11 13  1  0  0  0  0
 11 14  1  0  0  0  0
 14 15  1  0  0  0  0
 14 20  2  0  0  0  0
 15 16  2  0  0  0  0
 16 17  1  0  0  0  0
 16 18  1  0  0  0  0
 18 19  1  0  0  0  0
 18 20  1  0  0  0  0
 20 21  1  0  0  0  0
 22 23  2  0  0  0  0
 22 24  1  0  0  0  0
 24 25  1  0  0  0  0
 24 26  1  0  0  0  0
 26 27  1  0  0  0  0
 26 28  1  0  0  0  0
 26 29  1  0  0  0  0
M  END
$$$$

  -OEChem-04042215593D

 29 29  0     1  0  0  0  0  0999 V2000
   -2.7320   -4.5034    1.5701 H   0  0  0  0  0  0  0  0  0  0  0  0
   -2.9170   -3.5644    1.0417 C   0  0  0  0  0  0  0  0  0  0  0  0
   -3.7548   -3.0491    1.5170 H   0  0  0  0  0  0  0  0  0  0  0  0
   -3.1775   -3.7897    0.0048 H   0  0  0  0  0  0  0  0  0  0  0  0
   -1.6789   -2.6877    1.0849 C   0  0  0  0  0  0  0  0  0  0  0  0
   -0.7016   -3.0513    1.7245 O   0  0  0  0  0  0  0  0  0  0  0  0
   -1.6915   -1.4581    0.4575 N   0  0  0  0  0  0  0  0  0  0  0  0
   -2.4789   -1.2983   -0.1656 H   0  0  0  0  0  0  0  0  0  0  0  0
   -0.4790   -0.6760    0.1852 C   0  0  1  0  0  0  0  0  0  0  0  0
    0.3367   -1.0533    0.8097 H   0  0  0  0  0  0  0  0  0  0  0  0
   -0.0002   -0.7406   -1.2973 C   0  0  0  0  0  0  0  0  0  0  0  0
   -0.2270    0.2174   -1.7764 H   0  0  0  0  0  0  0  0  0  0  0  0
    1.0891   -0.8366   -1.2842 H   0  0  0  0  0  0  0  0  0  0  0  0
   -0.5397   -1.8009   -2.2369 C   0  0  0  0  0  0  0  0  0  0  0  0
   -1.4645   -2.8199   -2.0116 N   0  0  0  0  0  0  0  0  0  0  0  0
   -1.5850   -3.4915   -3.1308 C   0  0  0  0  0  0  0  0  0  0  0  0
   -2.2322   -4.3522   -3.2736 H   0  0  0  0  0  0  0  0  0  0  0  0
   -0.7694   -2.9399   -4.0966 N   0  0  0  0  0  0  0  0  0  0  0  0
   -0.6766   -3.2785   -5.0527 H   0  0  0  0  0  0  0  0  0  0  0  0
   -0.1065   -1.8705   -3.5340 C   0  0  0  0  0  0  0  0  0  0  0  0
    0.6166   -1.2121   -4.0060 H   0  0  0  0  0  0  0  0  0  0  0  0
   -0.7013    0.8033    0.5661 C   0  0  0  0  0  0  0  0  0  0  0  0
   -1.6978    1.4038    0.1788 O   0  0  0  0  0  0  0  0  0  0  0  0
    0.2675    1.4898    1.2763 N   0  0  0  0  0  0  0  0  0  0  0  0
    1.0343    0.9446    1.6604 H   0  0  0  0  0  0  0  0  0  0  0  0
    0.1141    2.8772    1.6973 C   0  0  0  0  0  0  0  0  0  0  0  0
   -0.7399    2.9794    2.3749 H   0  0  0  0  0  0  0  0  0  0  0  0
    1.0140    3.2153    2.2199 H   0  0  0  0  0  0  0  0  0  0  0  0
   -0.0443    3.5263    0.8297 H   0  0  0  0  0  0  0  0  0  0  0  0
  1  2  1  0  0  0  0
  2  3  1  0  0  0  0
  2  4  1  0  0  0  0
  2  5  1  0  0  0  0
  5  6  2  0  0  0  0
  5  7  1  0  0  0  0
  7  8  1  0  0  0  0
  7  9  1  0  0  0  0
  9 10  1  0  0  0  0
  9 11  1  0  0  0  0
  9 22  1  0  0  0  0
 11 12  1  0  0  0  0
 11 13  1  0  0  0  0
 11 14  1  0  0  0  0
 14 15  1  0  0  0  0
 14 20  2  0  0  0  0
 15 16  2  0  0  0  0
 16 17  1  0  0  0  0
 16 18  1  0  0  0  0
 18 19  1  0  0  0  0
 18 20  1  0  0  0  0
 20 21  1  0  0  0  0
 22 23  2  0  0  0  0
 22 24  1  0  0  0  0
 24 25  1  0  0  0  0
 24 26  1  0  0  0  0
 26 27  1  0  0  0  0
 26 28  1  0  0  0  0
 26 29  1  0  0  0  0
M  END
$$$$

  -OEChem-04042215593D

 29 29  0     1  0  0  0  0  0999 V2000
   -2.7336   -4.5047    1.5191 H   0  0  0  0  0  0  0  0  0  0  0  0
   -2.9169   -3.5632    0.9946 C   0  0  0  0  0  0  0  0  0  0  0  0
   -3.7586   -3.0520    1.4676 H   0  0  0  0  0  0  0  0  0  0  0  0
   -3.1711   -3.7834   -0.0448 H   0  0  0  0  0  0  0  0  0  0  0  0
   -1.6811   -2.6842    1.0497 C   0  0  0  0  0  0  0  0  0  0  0  0
   -0.6980   -3.0617    1.6719 O   0  0  0  0  0  0  0  0  0  0  0  0
   -1.6957   -1.4468    0.4390 N   0  0  0  0  0  0  0  0  0  0  0  0
   -2.4708   -1.2970   -0.2037 H   0  0  0  0  0  0  0  0  0  0  0  0
   -0.4839   -0.6613    0.1757 C   0  0  1  0  0  0  0  0  0  0  0  0
    0.3308   -1.0462    0.7967 H   0  0  0  0  0  0  0  0  0  0  0  0
   -0.0037   -0.7170   -1.3063 C   0  0  0  0  0  0  0  0  0  0  0  0
   -0.2528    0.2382   -1.7793 H   0  0  0  0  0  0  0  0  0  0  0  0
    1.0876   -0.7916   -1.3012 H   0  0  0  0  0  0  0  0  0  0  0  0
   -0.5457   -1.7749   -2.2477 C   0  0  0  0  0  0  0  0  0  0  0  0
   -1.6586   -2.6061   -2.1139 N   0  0  0  0  0  0  0  0  0  0  0  0
   -1.6981   -3.3758   -3.1745 C   0  0  0  0  0  0  0  0  0  0  0  0
   -2.4520   -4.1343   -3.3654 H   0  0  0  0  0  0  0  0  0  0  0  0
   -0.6404   -3.0775   -4.0081 N   0  0  0  0  0  0  0  0  0  0  0  0
   -0.4415   -3.5381   -4.8945 H   0  0  0  0  0  0  0  0  0  0  0  0
    0.0931   -2.0681   -3.4227 C   0  0  0  0  0  0  0  0  0  0  0  0
    0.9958   -1.5964   -3.7994 H   0  0  0  0  0  0  0  0  0  0  0  0
   -0.7002    0.8145    0.5744 C   0  0  0  0  0  0  0  0  0  0  0  0
   -1.6963    1.4241    0.2006 O   0  0  0  0  0  0  0  0  0  0  0  0
    0.2735    1.4876    1.2909 N   0  0  0  0  0  0  0  0  0  0  0  0
    1.0432    0.9358    1.6594 H   0  0  0  0  0  0  0  0  0  0  0  0
    0.1300    2.8714    1.7265 C   0  0  0  0  0  0  0  0  0  0  0  0
   -0.7148    2.9701    2.4162 H   0  0  0  0  0  0  0  0  0  0  0  0
    1.0380    3.2019    2.2400 H   0  0  0  0  0  0  0  0  0  0  0  0
   -0.0380    3.5293    0.8673 H   0  0  0  0  0  0  0  0  0  0  0  0
  1  2  1  0  0  0  0
  2  3  1  0  0  0  0
  2  4  1  0  0  0  0
  2  5  1  0  0  0  0
  5  6  2  0  0  0  0
  5  7  1  0  0  0  0
  7  8  1  0  0  0  0
  7  9  1  0  0  0  0
  9 10  1  0  0  0  0
  9 11  1  0  0  0  0
  9 22  1  0  0  0  0
 11 12  1  0  0  0  0
 11 13  1  0  0  0  0
 11 14  1  0  0  0  0
 14 15  1  0  0  0  0
 14 20  2  0  0  0  0
 15 16  2  0  0  0  0
 16 17  1  0  0  0  0
 16 18  1  0  0  0  0
 18 19  1  0  0  0  0
 18 20  1  0  0  0  0
 20 21  1  0  0  0  0
 22 23  2  0  0  0  0
 22 24  1  0  0  0  0
 24 25  1  0  0  0  0
 24 26  1  0  0  0  0
 26 27  1  0  0  0  0
 26 28  1  0  0  0  0
 26 29  1  0  0  0  0
M  END
$$$$

  -OEChem-04042215593D

 29 29  0     1  0  0  0  0  0999 V2000
   -2.7117   -4.5238    1.4052 H   0  0  0  0  0  0  0  0  0  0  0  0
   -2.8986   -3.5665    0.9112 C   0  0  0  0  0  0  0  0  0  0  0  0
   -3.7429   -3.0746    1.3998 H   0  0  0  0  0  0  0  0  0  0  0  0
   -3.1514   -3.7533   -0.1352 H   0  0  0  0  0  0  0  0  0  0  0  0
   -1.6677   -2.6833    0.9966 C   0  0  0  0  0  0  0  0  0  0  0  0
   -0.6854   -3.0705    1.6134 O   0  0  0  0  0  0  0  0  0  0  0  0
   -1.6817   -1.4381    0.4034 N   0  0  0  0  0  0  0  0  0  0  0  0
   -2.4444   -1.2905   -0.2561 H   0  0  0  0  0  0  0  0  0  0  0  0
   -0.4736   -0.6404    0.1626 C   0  0  1  0  0  0  0  0  0  0  0  0
    0.3370   -1.0287    0.7866 H   0  0  0  0  0  0  0  0  0  0  0  0
    0.0146   -0.6910   -1.3157 C   0  0  0  0  0  0  0  0  0  0  0  0
   -0.2489    0.2587   -1.7920 H   0  0  0  0  0  0  0  0  0  0  0  0
    1.1065   -0.7513   -1.3111 H   0  0  0  0  0  0  0  0  0  0  0  0
   -0.5282   -1.7596   -2.2435 C   0  0  0  0  0  0  0  0  0  0  0  0
   -1.7781   -2.3818   -2.2253 N   0  0  0  0  0  0  0  0  0  0  0  0
   -1.7855   -3.2576   -3.2011 C   0  0  0  0  0  0  0  0  0  0  0  0
   -2.6214   -3.9060   -3.4479 H   0  0  0  0  0  0  0  0  0  0  0  0
   -0.5752   -3.2330   -3.8629 N   0  0  0  0  0  0  0  0  0  0  0  0
   -0.3255   -3.8221   -4.6553 H   0  0  0  0  0  0  0  0  0  0  0  0
    0.2248   -2.2886   -3.2568 C   0  0  0  0  0  0  0  0  0  0  0  0
    1.2431   -2.0132   -3.5146 H   0  0  0  0  0  0  0  0  0  0  0  0
   -0.6946    0.8307    0.5758 C   0  0  0  0  0  0  0  0  0  0  0  0
   -1.6896    1.4439    0.2060 O   0  0  0  0  0  0  0  0  0  0  0  0
    0.2738    1.4947    1.3078 N   0  0  0  0  0  0  0  0  0  0  0  0
    1.0433    0.9394    1.6709 H   0  0  0  0  0  0  0  0  0  0  0  0
    0.1250    2.8711    1.7642 C   0  0  0  0  0  0  0  0  0  0  0  0
   -0.7487    2.9661    2.4176 H   0  0  0  0  0  0  0  0  0  0  0  0
    1.0121    3.1811    2.3248 H   0  0  0  0  0  0  0  0  0  0  0  0
    0.0026    3.5468    0.9111 H   0  0  0  0  0  0  0  0  0  0  0  0
  1  2  1  0  0  0  0
  2  3  1  0  0  0  0
  2  4  1  0  0  0  0
  2  5  1  0  0  0  0
  5  6  2  0  0  0  0
  5  7  1  0  0  0  0
  7  8  1  0  0  0  0
  7  9  1  0  0  0  0
  9 10  1  0  0  0  0
  9 11  1  0  0  0  0
  9 22  1  0  0  0  0
 11 12  1  0  0  0  0
 11 13  1  0  0  0  0
 11 14  1  0  0  0  0
 14 15  1  0  0  0  0
 14 20  2  0  0  0  0
 15 16  2  0  0  0  0
 16 17  1  0  0  0  0
 16 18  1  0  0  0  0
 18 19  1  0  0  0  0
 18 20  1  0  0  0  0
 20 21  1  0  0  0  0
 22 23  2  0  0  0  0
 22 24  1  0  0  0  0
 24 25  1  0  0  0  0
 24 26  1  0  0  0  0
 26 27  1  0  0  0  0
 26 28  1  0  0  0  0
 26 29  1  0  0  0  0
M  END
$$$$

  -OEChem-04042215593D

 29 29  0     1  0  0  0  0  0999 V2000
   -2.6902   -4.5406    1.2985 H   0  0  0  0  0  0  0  0  0  0  0  0
   -2.8741   -3.5760    0.8179 C   0  0  0  0  0  0  0  0  0  0  0  0
   -3.7274   -3.0956    1.3024 H   0  0  0  0  0  0  0  0  0  0  0  0
   -3.1106   -3.7453   -0.2353 H   0  0  0  0  0  0  0  0  0  0  0  0
   -1.6485   -2.6898    0.9358 C   0  0  0  0  0  0  0  0  0  0  0  0
   -0.6641   -3.0922    1.5389 O   0  0  0  0  0  0  0  0  0  0  0  0
   -1.6595   -1.4369    0.3608 N   0  0  0  0  0  0  0  0  0  0  0  0
   -2.4211   -1.2728   -0.2974 H   0  0  0  0  0  0  0  0  0  0  0  0
   -0.4566   -0.6224    0.1501 C   0  0  1  0  0  0  0  0  0  0  0  0
    0.3473   -1.0113    0.7824 H   0  0  0  0  0  0  0  0  0  0  0  0
    0.0477   -0.6677   -1.3205 C   0  0  0  0  0  0  0  0  0  0  0  0
   -0.2185    0.2766   -1.8063 H   0  0  0  0  0  0  0  0  0  0  0  0
    1.1396   -0.7248   -1.3089 H   0  0  0  0  0  0  0  0  0  0  0  0
   -0.4954   -1.7543   -2.2229 C   0  0  0  0  0  0  0  0  0  0  0  0
   -1.8254   -2.1592   -2.3537 N   0  0  0  0  0  0  0  0  0  0  0  0
   -1.8404   -3.1327   -3.2324 C   0  0  0  0  0  0  0  0  0  0  0  0
   -2.7313   -3.6630   -3.5565 H   0  0  0  0  0  0  0  0  0  0  0  0
   -0.5586   -3.3838   -3.6792 N   0  0  0  0  0  0  0  0  0  0  0  0
   -0.3018   -4.0965   -4.3599 H   0  0  0  0  0  0  0  0  0  0  0  0
    0.2974   -2.5125   -3.0405 C   0  0  0  0  0  0  0  0  0  0  0  0
    1.3750   -2.4349   -3.1489 H   0  0  0  0  0  0  0  0  0  0  0  0
   -0.6903    0.8425    0.5762 C   0  0  0  0  0  0  0  0  0  0  0  0
   -1.6870    1.4524    0.2065 O   0  0  0  0  0  0  0  0  0  0  0  0
    0.2642    1.5033    1.3294 N   0  0  0  0  0  0  0  0  0  0  0  0
    1.0374    0.9513    1.6897 H   0  0  0  0  0  0  0  0  0  0  0  0
    0.1065    2.8773    1.7905 C   0  0  0  0  0  0  0  0  0  0  0  0
   -0.7701    2.9648    2.4408 H   0  0  0  0  0  0  0  0  0  0  0  0
    0.9899    3.1899    2.3553 H   0  0  0  0  0  0  0  0  0  0  0  0
   -0.0161    3.5557    0.9396 H   0  0  0  0  0  0  0  0  0  0  0  0
  1  2  1  0  0  0  0
  2  3  1  0  0  0  0
  2  4  1  0  0  0  0
  2  5  1  0  0  0  0
  5  6  2  0  0  0  0
  5  7  1  0  0  0  0
  7  8  1  0  0  0  0
  7  9  1  0  0  0  0
  9 10  1  0  0  0  0
  9 11  1  0  0  0  0
  9 22  1  0  0  0  0
 11 12  1  0  0  0  0
 11 13  1  0  0  0  0
 11 14  1  0  0  0  0
 14 15  1  0  0  0  0
 14 20  2  0  0  0  0
 15 16  2  0  0  0  0
 16 17  1  0  0  0  0
 16 18  1  0  0  0  0
 18 19  1  0  0  0  0
 18 20  1  0  0  0  0
 20 21  1  0  0  0  0
 22 23  2  0  0  0  0
 22 24  1  0  0  0  0
 24 25  1  0  0  0  0
 24 26  1  0  0  0  0
 26 27  1  0  0  0  0
 26 28  1  0  0  0  0
 26 29  1  0  0  0  0
M  END
$$$$

  -OEChem-04042215593D

 29 29  0     1  0  0  0  0  0999 V2000
   -2.6665   -4.5564    1.2006 H   0  0  0  0  0  0  0  0  0  0  0  0
   -2.8534   -3.5783    0.7491 C   0  0  0  0  0  0  0  0  0  0  0  0
   -3.7026   -3.1119    1.2542 H   0  0  0  0  0  0  0  0  0  0  0  0
   -3.0980   -3.7171   -0.3068 H   0  0  0  0  0  0  0  0  0  0  0  0
   -1.6262   -2.6968    0.8823 C   0  0  0  0  0  0  0  0  0  0  0  0
   -0.6385   -3.1131    1.4698 O   0  0  0  0  0  0  0  0  0  0  0  0
   -1.6314   -1.4392    0.3187 N   0  0  0  0  0  0  0  0  0  0  0  0
   -2.4036   -1.2467   -0.3193 H   0  0  0  0  0  0  0  0  0  0  0  0
   -0.4336   -0.6089    0.1348 C   0  0  1  0  0  0  0  0  0  0  0  0
    0.3630   -0.9951    0.7778 H   0  0  0  0  0  0  0  0  0  0  0  0
    0.0863   -0.6556   -1.3277 C   0  0  0  0  0  0  0  0  0  0  0  0
   -0.1765    0.2811   -1.8296 H   0  0  0  0  0  0  0  0  0  0  0  0
    1.1780   -0.7163   -1.3081 H   0  0  0  0  0  0  0  0  0  0  0  0
   -0.4606   -1.7655   -2.1930 C   0  0  0  0  0  0  0  0  0  0  0  0
   -1.8047   -1.9668   -2.5074 N   0  0  0  0  0  0  0  0  0  0  0  0
   -1.8518   -3.0205   -3.2873 C   0  0  0  0  0  0  0  0  0  0  0  0
   -2.7605   -3.4391   -3.7103 H   0  0  0  0  0  0  0  0  0  0  0  0
   -0.5791   -3.5189   -3.4866 N   0  0  0  0  0  0  0  0  0  0  0  0
   -0.3484   -4.3357   -4.0494 H   0  0  0  0  0  0  0  0  0  0  0  0
    0.3083   -2.7221   -2.7953 C   0  0  0  0  0  0  0  0  0  0  0  0
    1.3878   -2.8204   -2.7297 H   0  0  0  0  0  0  0  0  0  0  0  0
   -0.6835    0.8516    0.5657 C   0  0  0  0  0  0  0  0  0  0  0  0
   -1.6876    1.4508    0.1991 O   0  0  0  0  0  0  0  0  0  0  0  0
    0.2541    1.5146    1.3378 N   0  0  0  0  0  0  0  0  0  0  0  0
    1.0377    0.9720    1.6894 H   0  0  0  0  0  0  0  0  0  0  0  0
    0.0772    2.8821    1.8107 C   0  0  0  0  0  0  0  0  0  0  0  0
   -0.8208    2.9592    2.4326 H   0  0  0  0  0  0  0  0  0  0  0  0
    0.9401    3.1899    2.4089 H   0  0  0  0  0  0  0  0  0  0  0  0
   -0.0194    3.5706    0.9646 H   0  0  0  0  0  0  0  0  0  0  0  0
  1  2  1  0  0  0  0
  2  3  1  0  0  0  0
  2  4  1  0  0  0  0
  2  5  1  0  0  0  0
  5  6  2  0  0  0  0
  5  7  1  0  0  0  0
  7  8  1  0  0  0  0
  7  9  1  0  0  0  0
  9 10  1  0  0  0  0
  9 11  1  0  0  0  0
  9 22  1  0  0  0  0
 11 12  1  0  0  0  0
 11 13  1  0  0  0  0
 11 14  1  0  0  0  0
 14 15  1  0  0  0  0
 14 20  2  0  0  0  0
 15 16  2  0  0  0  0
 16 17  1  0  0  0  0
 16 18  1  0  0  0  0
 18 19  1  0  0  0  0
 18 20  1  0  0  0  0
 20 21  1  0  0  0  0
 22 23  2  0  0  0  0
 22 24  1  0  0  0  0
 24 25  1  0  0  0  0
 24 26  1  0  0  0  0
 26 27  1  0  0  0  0
 26 28  1  0  0  0  0
 26 29  1  0  0  0  0
M  END
$$$$

  -OEChem-04042215593D

 29 29  0     1  0  0  0  0  0999 V2000
   -2.6769   -4.5496    1.1717 H   0  0  0  0  0  0  0  0  0  0  0  0
   -2.8560   -3.5656    0.7299 C   0  0  0  0  0  0  0  0  0  0  0  0
   -3.6820   -3.0850    1.2596 H   0  0  0  0  0  0  0  0  0  0  0  0
   -3.1309   -3.6941   -0.3199 H   0  0  0  0  0  0  0  0  0  0  0  0
   -1.6088   -2.7092    0.8340 C   0  0  0  0  0  0  0  0  0  0  0  0
   -0.6078   -3.1518    1.3774 O   0  0  0  0  0  0  0  0  0  0  0  0
   -1.6074   -1.4467    0.2822 N   0  0  0  0  0  0  0  0  0  0  0  0
   -2.4158   -1.1992   -0.2872 H   0  0  0  0  0  0  0  0  0  0  0  0
   -0.4149   -0.6039    0.1144 C   0  0  1  0  0  0  0  0  0  0  0  0
    0.3765   -0.9887    0.7650 H   0  0  0  0  0  0  0  0  0  0  0  0
    0.1183   -0.6490   -1.3409 C   0  0  0  0  0  0  0  0  0  0  0  0
   -0.1392    0.2824   -1.8551 H   0  0  0  0  0  0  0  0  0  0  0  0
    1.2095   -0.7149   -1.3140 H   0  0  0  0  0  0  0  0  0  0  0  0
   -0.4299   -1.7760   -2.1766 C   0  0  0  0  0  0  0  0  0  0  0  0
   -1.7149   -1.8141   -2.7116 N   0  0  0  0  0  0  0  0  0  0  0  0
   -1.8010   -2.9339   -3.3891 C   0  0  0  0  0  0  0  0  0  0  0  0
   -2.6823   -3.2637   -3.9318 H   0  0  0  0  0  0  0  0  0  0  0  0
   -0.6100   -3.6301   -3.3075 N   0  0  0  0  0  0  0  0  0  0  0  0
   -0.4227   -4.5303   -3.7455 H   0  0  0  0  0  0  0  0  0  0  0  0
    0.2674   -2.8933   -2.5409 C   0  0  0  0  0  0  0  0  0  0  0  0
    1.2908   -3.1348   -2.2693 H   0  0  0  0  0  0  0  0  0  0  0  0
   -0.6791    0.8512    0.5534 C   0  0  0  0  0  0  0  0  0  0  0  0
   -1.6995    1.4332    0.2047 O   0  0  0  0  0  0  0  0  0  0  0  0
    0.2457    1.5183    1.3373 N   0  0  0  0  0  0  0  0  0  0  0  0
    1.0435    0.9874    1.6747 H   0  0  0  0  0  0  0  0  0  0  0  0
    0.0490    2.8786    1.8233 C   0  0  0  0  0  0  0  0  0  0  0  0
   -0.8477    2.9362    2.4491 H   0  0  0  0  0  0  0  0  0  0  0  0
    0.9094    3.1941    2.4212 H   0  0  0  0  0  0  0  0  0  0  0  0
   -0.0614    3.5732    0.9839 H   0  0  0  0  0  0  0  0  0  0  0  0
  1  2  1  0  0  0  0
  2  3  1  0  0  0  0
  2  4  1  0  0  0  0
  2  5  1  0  0  0  0
  5  6  2  0  0  0  0
  5  7  1  0  0  0  0
  7  8  1  0  0  0  0
  7  9  1  0  0  0  0
  9 10  1  0  0  0  0
  9 11  1  0  0  0  0
  9 22  1  0  0  0  0
 11 12  1  0  0  0  0
 11 13  1  0  0  0  0
 11 14  1  0  0  0  0
 14 15  1  0  0  0  0
 14 20  2  0  0  0  0
 15 16  2  0  0  0  0
 16 17  1  0  0  0  0
 16 18  1  0  0  0  0
 18 19  1  0  0  0  0
 18 20  1  0  0  0  0
 20 21  1  0  0  0  0
 22 23  2  0  0  0  0
 22 24  1  0  0  0  0
 24 25  1  0  0  0  0
 24 26  1  0  0  0  0
 26 27  1  0  0  0  0
 26 28  1  0  0  0  0
 26 29  1  0  0  0  0
M  END
$$$$

  -OEChem-04042215593D

 29 29  0     1  0  0  0  0  0999 V2000
   -2.7126   -4.5170    1.2311 H   0  0  0  0  0  0  0  0  0  0  0  0
   -2.8842   -3.5344    0.7834 C   0  0  0  0  0  0  0  0  0  0  0  0
   -3.6616   -3.0181    1.3519 H   0  0  0  0  0  0  0  0  0  0  0  0
   -3.2238   -3.6694   -0.2465 H   0  0  0  0  0  0  0  0  0  0  0  0
   -1.6047   -2.7206    0.8004 C   0  0  0  0  0  0  0  0  0  0  0  0
   -0.5820   -3.1998    1.2669 O   0  0  0  0  0  0  0  0  0  0  0  0
   -1.5970   -1.4554    0.2545 N   0  0  0  0  0  0  0  0  0  0  0  0
   -2.4522   -1.1355   -0.1973 H   0  0  0  0  0  0  0  0  0  0  0  0
   -0.4055   -0.6090    0.0894 C   0  0  1  0  0  0  0  0  0  0  0  0
    0.3818   -0.9931    0.7455 H   0  0  0  0  0  0  0  0  0  0  0  0
    0.1415   -0.6502   -1.3590 C   0  0  0  0  0  0  0  0  0  0  0  0
   -0.1070    0.2814   -1.8776 H   0  0  0  0  0  0  0  0  0  0  0  0
    1.2321   -0.7212   -1.3223 H   0  0  0  0  0  0  0  0  0  0  0  0
   -0.3998   -1.7816   -2.1891 C   0  0  0  0  0  0  0  0  0  0  0  0
   -1.5485   -1.7063   -2.9684 N   0  0  0  0  0  0  0  0  0  0  0  0
   -1.6773   -2.8743   -3.5510 C   0  0  0  0  0  0  0  0  0  0  0  0
   -2.4805   -3.1424   -4.2315 H   0  0  0  0  0  0  0  0  0  0  0  0
   -0.6448   -3.7108   -3.1702 N   0  0  0  0  0  0  0  0  0  0  0  0
   -0.5190   -4.6719   -3.4823 H   0  0  0  0  0  0  0  0  0  0  0  0
    0.1746   -3.0159   -2.3065 C   0  0  0  0  0  0  0  0  0  0  0  0
    1.0750   -3.3602   -1.8056 H   0  0  0  0  0  0  0  0  0  0  0  0
   -0.6787    0.8416    0.5348 C   0  0  0  0  0  0  0  0  0  0  0  0
   -1.7214    1.4022    0.2183 O   0  0  0  0  0  0  0  0  0  0  0  0
    0.2402    1.5125    1.3219 N   0  0  0  0  0  0  0  0  0  0  0  0
    1.0585    0.9965    1.6322 H   0  0  0  0  0  0  0  0  0  0  0  0
    0.0213    2.8595    1.8338 C   0  0  0  0  0  0  0  0  0  0  0  0
   -0.8669    2.8864    2.4737 H   0  0  0  0  0  0  0  0  0  0  0  0
    0.8835    3.1844    2.4242 H   0  0  0  0  0  0  0  0  0  0  0  0
   -0.1173    3.5653    1.0080 H   0  0  0  0  0  0  0  0  0  0  0  0
  1  2  1  0  0  0  0
  2  3  1  0  0  0  0
  2  4  1  0  0  0  0
  2  5  1  0  0  0  0
  5  6  2  0  0  0  0
  5  7  1  0  0  0  0
  7  8  1  0  0  0  0
  7  9  1  0  0  0  0
  9 10  1  0  0  0  0
  9 11  1  0  0  0  0
  9 22  1  0  0  0  0
 11 12  1  0  0  0  0
 11 13  1  0  0  0  0
 11 14  1  0  0  0  0
 14 15  1  0  0  0  0
 14 20  2  0  0  0  0
 15 16  2  0  0  0  0
 16 17  1  0  0  0  0
 16 18  1  0  0  0  0
 18 19  1  0  0  0  0
 18 20  1  0  0  0  0
 20 21  1  0  0  0  0
 22 23  2  0  0  0  0
 22 24  1  0  0  0  0
 24 25  1  0  0  0  0
 24 26  1  0  0  0  0
 26 27  1  0  0  0  0
 26 28  1  0  0  0  0
 26 29  1  0  0  0  0
M  END
$$$$

  -OEChem-04042215593D

 29 29  0     1  0  0  0  0  0999 V2000
   -2.7548   -4.4860    1.3293 H   0  0  0  0  0  0  0  0  0  0  0  0
   -2.9219   -3.5050    0.8763 C   0  0  0  0  0  0  0  0  0  0  0  0
   -3.6464   -2.9550    1.4817 H   0  0  0  0  0  0  0  0  0  0  0  0
   -3.3274   -3.6445   -0.1289 H   0  0  0  0  0  0  0  0  0  0  0  0
   -1.6183   -2.7338    0.8029 C   0  0  0  0  0  0  0  0  0  0  0  0
   -0.5819   -3.2459    1.1992 O   0  0  0  0  0  0  0  0  0  0  0  0
   -1.6050   -1.4693    0.2548 N   0  0  0  0  0  0  0  0  0  0  0  0
   -2.4888   -1.0915   -0.0828 H   0  0  0  0  0  0  0  0  0  0  0  0
   -0.4122   -0.6253    0.0848 C   0  0  1  0  0  0  0  0  0  0  0  0
    0.3717   -1.0083    0.7458 H   0  0  0  0  0  0  0  0  0  0  0  0
    0.1465   -0.6646   -1.3592 C   0  0  0  0  0  0  0  0  0  0  0  0
   -0.1000    0.2689   -1.8753 H   0  0  0  0  0  0  0  0  0  0  0  0
    1.2369   -0.7327   -1.3154 H   0  0  0  0  0  0  0  0  0  0  0  0
   -0.3787   -1.7914   -2.2047 C   0  0  0  0  0  0  0  0  0  0  0  0
   -1.3220   -1.6426   -3.2137 N   0  0  0  0  0  0  0  0  0  0  0  0
   -1.4958   -2.8326   -3.7369 C   0  0  0  0  0  0  0  0  0  0  0  0
   -2.1743   -3.0566   -4.5552 H   0  0  0  0  0  0  0  0  0  0  0  0
   -0.6911   -3.7553   -3.0951 N   0  0  0  0  0  0  0  0  0  0  0  0
   -0.6413   -4.7485   -3.3145 H   0  0  0  0  0  0  0  0  0  0  0  0
    0.0279   -3.0939   -2.1229 C   0  0  0  0  0  0  0  0  0  0  0  0
    0.7508   -3.5006   -1.4201 H   0  0  0  0  0  0  0  0  0  0  0  0
   -0.6890    0.8249    0.5295 C   0  0  0  0  0  0  0  0  0  0  0  0
   -1.7487    1.3677    0.2395 O   0  0  0  0  0  0  0  0  0  0  0  0
    0.2279    1.5006    1.3145 N   0  0  0  0  0  0  0  0  0  0  0  0
    1.0666    1.0004    1.5947 H   0  0  0  0  0  0  0  0  0  0  0  0
    0.0080    2.8487    1.8234 C   0  0  0  0  0  0  0  0  0  0  0  0
   -0.8789    2.8766    2.4650 H   0  0  0  0  0  0  0  0  0  0  0  0
    0.8708    3.1759    2.4115 H   0  0  0  0  0  0  0  0  0  0  0  0
   -0.1326    3.5521    0.9959 H   0  0  0  0  0  0  0  0  0  0  0  0
  1  2  1  0  0  0  0
  2  3  1  0  0  0  0
  2  4  1  0  0  0  0
  2  5  1  0  0  0  0
  5  6  2  0  0  0  0
  5  7  1  0  0  0  0
  7  8  1  0  0  0  0
  7  9  1  0  0  0  0
  9 10  1  0  0  0  0
  9 11  1  0  0  0  0
  9 22  1  0  0  0  0
 11 12  1  0  0  0  0
 11 13  1  0  0  0  0
 11 14  1  0  0  0  0
 14 15  1  0  0  0  0
 14 20  2  0  0  0  0
 15 16  2  0  0  0  0
 16 17  1  0  0  0  0
 16 18  1  0  0  0  0
 18 19  1  0  0  0  0
 18 20  1  0  0  0  0
 20 21  1  0  0  0  0
 22 23  2  0  0  0  0
 22 24  1  0  0  0  0
 24 25  1  0  0  0  0
 24 26  1  0  0  0  0
 26 27  1  0  0  0  0
 26 28  1  0  0  0  0
 26 29  1  0  0  0  0
M  END
$$$$

  -OEChem-04042215593D

 29 29  0     1  0  0  0  0  0999 V2000
   -2.8156   -4.4405    1.4793 H   0  0  0  0  0  0  0  0  0  0  0  0
   -2.9691   -3.4681    1.0032 C   0  0  0  0  0  0  0  0  0  0  0  0
   -3.6555   -2.8795    1.6168 H   0  0  0  0  0  0  0  0  0  0  0  0
   -3.4144   -3.6240    0.0176 H   0  0  0  0  0  0  0  0  0  0  0  0
   -1.6465   -2.7393    0.8626 C   0  0  0  0  0  0  0  0  0  0  0  0
   -0.6130   -3.2694    1.2418 O   0  0  0  0  0  0  0  0  0  0  0  0
   -1.6160   -1.4856    0.2906 N   0  0  0  0  0  0  0  0  0  0  0  0
   -2.5045   -1.0754    0.0074 H   0  0  0  0  0  0  0  0  0  0  0  0
   -0.4149   -0.6565    0.1035 C   0  0  1  0  0  0  0  0  0  0  0  0
    0.3687   -1.0348    0.7678 H   0  0  0  0  0  0  0  0  0  0  0  0
    0.1437   -0.6983   -1.3423 C   0  0  0  0  0  0  0  0  0  0  0  0
   -0.0986    0.2407   -1.8507 H   0  0  0  0  0  0  0  0  0  0  0  0
    1.2341   -0.7678   -1.3000 H   0  0  0  0  0  0  0  0  0  0  0  0
   -0.3739   -1.8102   -2.2135 C   0  0  0  0  0  0  0  0  0  0  0  0
   -1.0622   -1.6038   -3.4026 N   0  0  0  0  0  0  0  0  0  0  0  0
   -1.2873   -2.7901   -3.9143 C   0  0  0  0  0  0  0  0  0  0  0  0
   -1.8107   -2.9727   -4.8485 H   0  0  0  0  0  0  0  0  0  0  0  0
   -0.7557   -3.7680   -3.0952 N   0  0  0  0  0  0  0  0  0  0  0  0
   -0.7802   -4.7692   -3.2790 H   0  0  0  0  0  0  0  0  0  0  0  0
   -0.1590   -3.1468   -2.0195 C   0  0  0  0  0  0  0  0  0  0  0  0
    0.3722   -3.5991   -1.1853 H   0  0  0  0  0  0  0  0  0  0  0  0
   -0.6943    0.8001    0.5258 C   0  0  0  0  0  0  0  0  0  0  0  0
   -1.7627    1.3284    0.2401 O   0  0  0  0  0  0  0  0  0  0  0  0
    0.2190    1.4909    1.3016 N   0  0  0  0  0  0  0  0  0  0  0  0
    1.0661    1.0036    1.5793 H   0  0  0  0  0  0  0  0  0  0  0  0
   -0.0096    2.8442    1.7927 C   0  0  0  0  0  0  0  0  0  0  0  0
   -0.8881    2.8718    2.4459 H   0  0  0  0  0  0  0  0  0  0  0  0
    0.8571    3.1908    2.3638 H   0  0  0  0  0  0  0  0  0  0  0  0
   -0.1698    3.5327    0.9563 H   0  0  0  0  0  0  0  0  0  0  0  0
  1  2  1  0  0  0  0
  2  3  1  0  0  0  0
  2  4  1  0  0  0  0
  2  5  1  0  0  0  0
  5  6  2  0  0  0  0
  5  7  1  0  0  0  0
  7  8  1  0  0  0  0
  7  9  1  0  0  0  0
  9 10  1  0  0  0  0
  9 11  1  0  0  0  0
  9 22  1  0  0  0  0
 11 12  1  0  0  0  0
 11 13  1  0  0  0  0
 11 14  1  0  0  0  0
 14 15  1  0  0  0  0
 14 20  2  0  0  0  0
 15 16  2  0  0  0  0
 16 17  1  0  0  0  0
 16 18  1  0  0  0  0
 18 19  1  0  0  0  0
 18 20  1  0  0  0  0
 20 21  1  0  0  0  0
 22 23  2  0  0  0  0
 22 24  1  0  0  0  0
 24 25  1  0  0  0  0
 24 26  1  0  0  0  0
 26 27  1  0  0  0  0
 26 28  1  0  0  0  0
 26 29  1  0  0  0  0
M  END
$$$$

  -OEChem-04042215593D

 29 29  0     1  0  0  0  0  0999 V2000
   -2.8711   -4.3991    1.6249 H   0  0  0  0  0  0  0  0  0  0  0  0
   -3.0142   -3.4339    1.1314 C   0  0  0  0  0  0  0  0  0  0  0  0
   -3.6772   -2.8191    1.7449 H   0  0  0  0  0  0  0  0  0  0  0  0
   -3.4809   -3.6009    0.1575 H   0  0  0  0  0  0  0  0  0  0  0  0
   -1.6801   -2.7353    0.9516 C   0  0  0  0  0  0  0  0  0  0  0  0
   -0.6525   -3.2723    1.3357 O   0  0  0  0  0  0  0  0  0  0  0  0
   -1.6341   -1.4965    0.3494 N   0  0  0  0  0  0  0  0  0  0  0  0
   -2.5219   -1.0677    0.0921 H   0  0  0  0  0  0  0  0  0  0  0  0
   -0.4250   -0.6863    0.1313 C   0  0  1  0  0  0  0  0  0  0  0  0
    0.3639   -1.0584    0.7929 H   0  0  0  0  0  0  0  0  0  0  0  0
    0.1208   -0.7354   -1.3220 C   0  0  0  0  0  0  0  0  0  0  0  0
   -0.1214    0.2089   -1.8207 H   0  0  0  0  0  0  0  0  0  0  0  0
    1.2112   -0.8045   -1.2872 H   0  0  0  0  0  0  0  0  0  0  0  0
   -0.3917   -1.8292   -2.2215 C   0  0  0  0  0  0  0  0  0  0  0  0
   -0.7912   -1.5940   -3.5319 N   0  0  0  0  0  0  0  0  0  0  0  0
   -1.0677   -2.7617   -4.0597 C   0  0  0  0  0  0  0  0  0  0  0  0
   -1.4141   -2.9161   -5.0776 H   0  0  0  0  0  0  0  0  0  0  0  0
   -0.8395   -3.7623   -3.1354 N   0  0  0  0  0  0  0  0  0  0  0  0
   -0.9433   -4.7601   -3.3091 H   0  0  0  0  0  0  0  0  0  0  0  0
   -0.3807   -3.1756   -1.9758 C   0  0  0  0  0  0  0  0  0  0  0  0
   -0.0438   -3.6637   -1.0652 H   0  0  0  0  0  0  0  0  0  0  0  0
   -0.7012    0.7795    0.5266 C   0  0  0  0  0  0  0  0  0  0  0  0
   -1.7753    1.2987    0.2440 O   0  0  0  0  0  0  0  0  0  0  0  0
    0.2167    1.4867    1.2819 N   0  0  0  0  0  0  0  0  0  0  0  0
    1.0718    1.0100    1.5533 H   0  0  0  0  0  0  0  0  0  0  0  0
   -0.0130    2.8469    1.7531 C   0  0  0  0  0  0  0  0  0  0  0  0
   -0.9053    2.8872    2.3867 H   0  0  0  0  0  0  0  0  0  0  0  0
    0.8433    3.1936    2.3394 H   0  0  0  0  0  0  0  0  0  0  0  0
   -0.1504    3.5277    0.9064 H   0  0  0  0  0  0  0  0  0  0  0  0
  1  2  1  0  0  0  0
  2  3  1  0  0  0  0
  2  4  1  0  0  0  0
  2  5  1  0  0  0  0
  5  6  2  0  0  0  0
  5  7  1  0  0  0  0
  7  8  1  0  0  0  0
  7  9  1  0  0  0  0
  9 10  1  0  0  0  0
  9 11  1  0  0  0  0
  9 22  1  0  0  0  0
 11 12  1  0  0  0  0
 11 13  1  0  0  0  0
 11 14  1  0  0  0  0
 14 15  1  0  0  0  0
 14 20  2  0  0  0  0
 15 16  2  0  0  0  0
 16 17  1  0  0  0  0
 16 18  1  0  0  0  0
 18 19  1  0  0  0  0
 18 20  1  0  0  0  0
 20 21  1  0  0  0  0
 22 23  2  0  0  0  0
 22 24  1  0  0  0  0
 24 25  1  0  0  0  0
 24 26  1  0  0  0  0
 26 27  1  0  0  0  0
 26 28  1  0  0  0  0
 26 29  1  0  0  0  0
M  END
$$$$

  -OEChem-04042215593D

 29 29  0     1  0  0  0  0  0999 V2000
   -2.9213   -4.3471    1.8036 H   0  0  0  0  0  0  0  0  0  0  0  0
   -3.0604   -3.3887    1.2956 C   0  0  0  0  0  0  0  0  0  0  0  0
   -3.6773   -2.7427    1.9251 H   0  0  0  0  0  0  0  0  0  0  0  0
   -3.5762   -3.5632    0.3482 H   0  0  0  0  0  0  0  0  0  0  0  0
   -1.7171   -2.7323    1.0404 C   0  0  0  0  0  0  0  0  0  0  0  0
   -0.6889   -3.2883    1.3933 O   0  0  0  0  0  0  0  0  0  0  0  0
   -1.6638   -1.5087    0.4083 N   0  0  0  0  0  0  0  0  0  0  0  0
   -2.5512   -1.0542    0.1970 H   0  0  0  0  0  0  0  0  0  0  0  0
   -0.4484   -0.7183    0.1548 C   0  0  1  0  0  0  0  0  0  0  0  0
    0.3446   -1.0837    0.8150 H   0  0  0  0  0  0  0  0  0  0  0  0
    0.0916   -0.7737   -1.3037 C   0  0  0  0  0  0  0  0  0  0  0  0
   -0.1515    0.1753   -1.7933 H   0  0  0  0  0  0  0  0  0  0  0  0
    1.1826   -0.8371   -1.2686 H   0  0  0  0  0  0  0  0  0  0  0  0
   -0.4010   -1.8453   -2.2443 C   0  0  0  0  0  0  0  0  0  0  0  0
   -0.4725   -1.6092   -3.6131 N   0  0  0  0  0  0  0  0  0  0  0  0
   -0.8073   -2.7406   -4.1836 C   0  0  0  0  0  0  0  0  0  0  0  0
   -0.9489   -2.8803   -5.2515 H   0  0  0  0  0  0  0  0  0  0  0  0
   -0.9331   -3.7274   -3.2272 N   0  0  0  0  0  0  0  0  0  0  0  0
   -1.1313   -4.7080   -3.4160 H   0  0  0  0  0  0  0  0  0  0  0  0
   -0.6404   -3.1717   -2.0005 C   0  0  0  0  0  0  0  0  0  0  0  0
   -0.5490   -3.6851   -1.0502 H   0  0  0  0  0  0  0  0  0  0  0  0
   -0.7179    0.7560    0.5247 C   0  0  0  0  0  0  0  0  0  0  0  0
   -1.7978    1.2691    0.2516 O   0  0  0  0  0  0  0  0  0  0  0  0
    0.2108    1.4751    1.2549 N   0  0  0  0  0  0  0  0  0  0  0  0
    1.0718    1.0035    1.5171 H   0  0  0  0  0  0  0  0  0  0  0  0
   -0.0092    2.8439    1.7054 C   0  0  0  0  0  0  0  0  0  0  0  0
   -0.8818    2.8950    2.3650 H   0  0  0  0  0  0  0  0  0  0  0  0
    0.8635    3.2045    2.2584 H   0  0  0  0  0  0  0  0  0  0  0  0
   -0.1744    3.5071    0.8498 H   0  0  0  0  0  0  0  0  0  0  0  0
  1  2  1  0  0  0  0
  2  3  1  0  0  0  0
  2  4  1  0  0  0  0
  2  5  1  0  0  0  0
  5  6  2  0  0  0  0
  5  7  1  0  0  0  0
  7  8  1  0  0  0  0
  7  9  1  0  0  0  0
  9 10  1  0  0  0  0
  9 11  1  0  0  0  0
  9 22  1  0  0  0  0
 11 12  1  0  0  0  0
 11 13  1  0  0  0  0
 11 14  1  0  0  0  0
 14 15  1  0  0  0  0
 14 20  2  0  0  0  0
 15 16  2  0  0  0  0
 16 17  1  0  0  0  0
 16 18  1  0  0  0  0
 18 19  1  0  0  0  0
 18 20  1  0  0  0  0
 20 21  1  0  0  0  0
 22 23  2  0  0  0  0
 22 24  1  0  0  0  0
 24 25  1  0  0  0  0
 24 26  1  0  0  0  0
 26 27  1  0  0  0  0
 26 28  1  0  0  0  0
 26 29  1  0  0  0  0
M  END
$$$$

  -OEChem-04042215593D

 29 29  0     1  0  0  0  0  0999 V2000
   -2.9309   -4.3139    1.9684 H   0  0  0  0  0  0  0  0  0  0  0  0
   -3.0786   -3.3524    1.4685 C   0  0  0  0  0  0  0  0  0  0  0  0
   -3.6257   -2.6867    2.1405 H   0  0  0  0  0  0  0  0  0  0  0  0
   -3.6705   -3.5125    0.5642 H   0  0  0  0  0  0  0  0  0  0  0  0
   -1.7388   -2.7380    1.1095 C   0  0  0  0  0  0  0  0  0  0  0  0
   -0.7054   -3.3273    1.3808 O   0  0  0  0  0  0  0  0  0  0  0  0
   -1.6958   -1.5239    0.4576 N   0  0  0  0  0  0  0  0  0  0  0  0
   -2.5816   -1.0385    0.3199 H   0  0  0  0  0  0  0  0  0  0  0  0
   -0.4789   -0.7479    0.1692 C   0  0  1  0  0  0  0  0  0  0  0  0
    0.3172   -1.1086    0.8285 H   0  0  0  0  0  0  0  0  0  0  0  0
    0.0659   -0.8093   -1.2892 C   0  0  0  0  0  0  0  0  0  0  0  0
   -0.1754    0.1422   -1.7751 H   0  0  0  0  0  0  0  0  0  0  0  0
    1.1569   -0.8662   -1.2403 H   0  0  0  0  0  0  0  0  0  0  0  0
   -0.3926   -1.8632   -2.2695 C   0  0  0  0  0  0  0  0  0  0  0  0
   -0.1208   -1.6753   -3.6214 N   0  0  0  0  0  0  0  0  0  0  0  0
   -0.5326   -2.7454   -4.2553 C   0  0  0  0  0  0  0  0  0  0  0  0
   -0.4605   -2.8997   -5.3281 H   0  0  0  0  0  0  0  0  0  0  0  0
   -1.0560   -3.6480   -3.3536 N   0  0  0  0  0  0  0  0  0  0  0  0
   -1.4018   -4.5771   -3.5853 H   0  0  0  0  0  0  0  0  0  0  0  0
   -0.9450   -3.1047   -2.0917 C   0  0  0  0  0  0  0  0  0  0  0  0
   -1.1870   -3.5887   -1.1559 H   0  0  0  0  0  0  0  0  0  0  0  0
   -0.7386    0.7318    0.5261 C   0  0  0  0  0  0  0  0  0  0  0  0
   -1.8280    1.2381    0.2787 O   0  0  0  0  0  0  0  0  0  0  0  0
    0.2045    1.4581    1.2303 N   0  0  0  0  0  0  0  0  0  0  0  0
    1.0798    0.9962    1.4610 H   0  0  0  0  0  0  0  0  0  0  0  0
    0.0007    2.8370    1.6571 C   0  0  0  0  0  0  0  0  0  0  0  0
   -0.8773    2.9115    2.3072 H   0  0  0  0  0  0  0  0  0  0  0  0
    0.8729    3.1936    2.2134 H   0  0  0  0  0  0  0  0  0  0  0  0
   -0.1462    3.4887    0.7894 H   0  0  0  0  0  0  0  0  0  0  0  0
  1  2  1  0  0  0  0
  2  3  1  0  0  0  0
  2  4  1  0  0  0  0
  2  5  1  0  0  0  0
  5  6  2  0  0  0  0
  5  7  1  0  0  0  0
  7  8  1  0  0  0  0
  7  9  1  0  0  0  0
  9 10  1  0  0  0  0
  9 11  1  0  0  0  0
  9 22  1  0  0  0  0
 11 12  1  0  0  0  0
 11 13  1  0  0  0  0
 11 14  1  0  0  0  0
 14 15  1  0  0  0  0
 14 20  2  0  0  0  0
 15 16  2  0  0  0  0
 16 17  1  0  0  0  0
 16 18  1  0  0  0  0
 18 19  1  0  0  0  0
 18 20  1  0  0  0  0
 20 21  1  0  0  0  0
 22 23  2  0  0  0  0
 22 24  1  0  0  0  0
 24 25  1  0  0  0  0
 24 26  1  0  0  0  0
 26 27  1  0  0  0  0
 26 28  1  0  0  0  0
 26 29  1  0  0  0  0
M  END
$$$$

  -OEChem-04042215593D

 29 29  0     1  0  0  0  0  0999 V2000
   -2.7422   -4.3647    2.0391 H   0  0  0  0  0  0  0  0  0  0  0  0
   -2.9457   -3.4121    1.5419 C   0  0  0  0  0  0  0  0  0  0  0  0
   -3.4626   -2.7528    2.2435 H   0  0  0  0  0  0  0  0  0  0  0  0
   -3.5921   -3.5957    0.6807 H   0  0  0  0  0  0  0  0  0  0  0  0
   -1.6474   -2.7711    1.0894 C   0  0  0  0  0  0  0  0  0  0  0  0
   -0.5880   -3.3462    1.2751 O   0  0  0  0  0  0  0  0  0  0  0  0
   -1.6738   -1.5389    0.4696 N   0  0  0  0  0  0  0  0  0  0  0  0
   -2.5641   -1.0427    0.4527 H   0  0  0  0  0  0  0  0  0  0  0  0
   -0.4828   -0.7458    0.1393 C   0  0  1  0  0  0  0  0  0  0  0  0
    0.3477   -1.0986    0.7596 H   0  0  0  0  0  0  0  0  0  0  0  0
    0.0019   -0.7902   -1.3396 C   0  0  0  0  0  0  0  0  0  0  0  0
    0.0393    0.2329   -1.7270 H   0  0  0  0  0  0  0  0  0  0  0  0
    1.0335   -1.1534   -1.3231 H   0  0  0  0  0  0  0  0  0  0  0  0
   -0.7085   -1.6051   -2.3984 C   0  0  0  0  0  0  0  0  0  0  0  0
   -0.1885   -1.5723   -3.6889 N   0  0  0  0  0  0  0  0  0  0  0  0
   -0.9495   -2.3309   -4.4379 C   0  0  0  0  0  0  0  0  0  0  0  0
   -0.7987   -2.5093   -5.4987 H   0  0  0  0  0  0  0  0  0  0  0  0
   -1.9678   -2.8648   -3.6767 N   0  0  0  0  0  0  0  0  0  0  0  0
   -2.6931   -3.4905   -4.0215 H   0  0  0  0  0  0  0  0  0  0  0  0
   -1.8230   -2.4069   -2.3844 C   0  0  0  0  0  0  0  0  0  0  0  0
   -2.4618   -2.6392   -1.5434 H   0  0  0  0  0  0  0  0  0  0  0  0
   -0.7438    0.7187    0.5508 C   0  0  0  0  0  0  0  0  0  0  0  0
   -1.8528    1.2120    0.3729 O   0  0  0  0  0  0  0  0  0  0  0  0
    0.2215    1.4428    1.2261 N   0  0  0  0  0  0  0  0  0  0  0  0
    1.1149    0.9911    1.4013 H   0  0  0  0  0  0  0  0  0  0  0  0
    0.0158    2.8069    1.6978 C   0  0  0  0  0  0  0  0  0  0  0  0
   -0.8136    2.8448    2.4119 H   0  0  0  0  0  0  0  0  0  0  0  0
    0.9179    3.1747    2.1961 H   0  0  0  0  0  0  0  0  0  0  0  0
   -0.2109    3.4724    0.8581 H   0  0  0  0  0  0  0  0  0  0  0  0
  1  2  1  0  0  0  0
  2  3  1  0  0  0  0
  2  4  1  0  0  0  0
  2  5  1  0  0  0  0
  5  6  2  0  0  0  0
  5  7  1  0  0  0  0
  7  8  1  0  0  0  0
  7  9  1  0  0  0  0
  9 10  1  0  0  0  0
  9 11  1  0  0  0  0
  9 22  1  0  0  0  0
 11 12  1  0  0  0  0
 11 13  1  0  0  0  0
 11 14  1  0  0  0  0
 14 15  1  0  0  0  0
 14 20  2  0  0  0  0
 15 16  2  0  0  0  0
 16 17  1  0  0  0  0
 16 18  1  0  0  0  0
 18 19  1  0  0  0  0
 18 20  1  0  0  0  0
 20 21  1  0  0  0  0
 22 23  2  0  0  0  0
 22 24  1  0  0  0  0
 24 25  1  0  0  0  0
 24 26  1  0  0  0  0
 26 27  1  0  0  0  0
 26 28  1  0  0  0  0
 26 29  1  0  0  0  0
M  END
$$$$

  -OEChem-04042215593D

 29 29  0     1  0  0  0  0  0999 V2000
   -2.7294   -4.3812    1.9839 H   0  0  0  0  0  0  0  0  0  0  0  0
   -2.9340   -3.4297    1.4851 C   0  0  0  0  0  0  0  0  0  0  0  0
   -3.4695   -2.7770    2.1789 H   0  0  0  0  0  0  0  0  0  0  0  0
   -3.5634   -3.6181    0.6121 H   0  0  0  0  0  0  0  0  0  0  0  0
   -1.6344   -2.7757    1.0549 C   0  0  0  0  0  0  0  0  0  0  0  0
   -0.5724   -3.3397    1.2602 O   0  0  0  0  0  0  0  0  0  0  0  0
   -1.6621   -1.5372    0.4482 N   0  0  0  0  0  0  0  0  0  0  0  0
   -2.5528   -1.0421    0.4414 H   0  0  0  0  0  0  0  0  0  0  0  0
   -0.4716   -0.7378    0.1303 C   0  0  1  0  0  0  0  0  0  0  0  0
    0.3593   -1.0947    0.7481 H   0  0  0  0  0  0  0  0  0  0  0  0
    0.0099   -0.7763   -1.3488 C   0  0  0  0  0  0  0  0  0  0  0  0
    0.0626    0.2446   -1.7395 H   0  0  0  0  0  0  0  0  0  0  0  0
    1.0359   -1.1559   -1.3310 H   0  0  0  0  0  0  0  0  0  0  0  0
   -0.7177   -1.5939   -2.3926 C   0  0  0  0  0  0  0  0  0  0  0  0
   -0.0753   -1.8463   -3.6006 N   0  0  0  0  0  0  0  0  0  0  0  0
   -0.9080   -2.5250   -4.3503 C   0  0  0  0  0  0  0  0  0  0  0  0
   -0.6949   -2.8761   -5.3557 H   0  0  0  0  0  0  0  0  0  0  0  0
   -2.0951   -2.7167   -3.6745 N   0  0  0  0  0  0  0  0  0  0  0  0
   -2.9100   -3.2017   -4.0449 H   0  0  0  0  0  0  0  0  0  0  0  0
   -1.9870   -2.1145   -2.4393 C   0  0  0  0  0  0  0  0  0  0  0  0
   -2.7546   -2.0462   -1.6792 H   0  0  0  0  0  0  0  0  0  0  0  0
   -0.7348    0.7216    0.5545 C   0  0  0  0  0  0  0  0  0  0  0  0
   -1.8418    1.2167    0.3689 O   0  0  0  0  0  0  0  0  0  0  0  0
    0.2272    1.4406    1.2399 N   0  0  0  0  0  0  0  0  0  0  0  0
    1.1169    0.9838    1.4218 H   0  0  0  0  0  0  0  0  0  0  0  0
    0.0150    2.7954    1.7344 C   0  0  0  0  0  0  0  0  0  0  0  0
   -0.7994    2.8132    2.4661 H   0  0  0  0  0  0  0  0  0  0  0  0
    0.9231    3.1673    2.2185 H   0  0  0  0  0  0  0  0  0  0  0  0
   -0.2372    3.4694    0.9091 H   0  0  0  0  0  0  0  0  0  0  0  0
  1  2  1  0  0  0  0
  2  3  1  0  0  0  0
  2  4  1  0  0  0  0
  2  5  1  0  0  0  0
  5  6  2  0  0  0  0
  5  7  1  0  0  0  0
  7  8  1  0  0  0  0
  7  9  1  0  0  0  0
  9 10  1  0  0  0  0
  9 11  1  0  0  0  0
  9 22  1  0  0  0  0
 11 12  1  0  0  0  0
 11 13  1  0  0  0  0
 11 14  1  0  0  0  0
 14 15  1  0  0  0  0
 14 20  2  0  0  0  0
 15 16  2  0  0  0  0
 16 17  1  0  0  0  0
 16 18  1  0  0  0  0
 18 19  1  0  0  0  0
 18 20  1  0  0  0  0
 20 21  1  0  0  0  0
 22 23  2  0  0  0  0
 22 24  1  0  0  0  0
 24 25  1  0  0  0  0
 24 26  1  0  0  0  0
 26 27  1  0  0  0  0
 26 28  1  0  0  0  0
 26 29  1  0  0  0  0
M  END
$$$$

  -OEChem-04042215593D

 29 29  0     1  0  0  0  0  0999 V2000
   -2.7282   -4.4270    1.8504 H   0  0  0  0  0  0  0  0  0  0  0  0
   -2.9239   -3.4679    1.3627 C   0  0  0  0  0  0  0  0  0  0  0  0
   -3.5062   -2.8400    2.0414 H   0  0  0  0  0  0  0  0  0  0  0  0
   -3.5030   -3.6473    0.4537 H   0  0  0  0  0  0  0  0  0  0  0  0
   -1.6161   -2.7827    1.0147 C   0  0  0  0  0  0  0  0  0  0  0  0
   -0.5558   -3.3241    1.2813 O   0  0  0  0  0  0  0  0  0  0  0  0
   -1.6362   -1.5406    0.4157 N   0  0  0  0  0  0  0  0  0  0  0  0
   -2.5342   -1.0634    0.3648 H   0  0  0  0  0  0  0  0  0  0  0  0
   -0.4432   -0.7312    0.1285 C   0  0  1  0  0  0  0  0  0  0  0  0
    0.3827   -1.0888    0.7527 H   0  0  0  0  0  0  0  0  0  0  0  0
    0.0452   -0.7619   -1.3477 C   0  0  0  0  0  0  0  0  0  0  0  0
    0.1014    0.2569   -1.7429 H   0  0  0  0  0  0  0  0  0  0  0  0
    1.0687   -1.1485   -1.3334 H   0  0  0  0  0  0  0  0  0  0  0  0
   -0.7081   -1.5874   -2.3625 C   0  0  0  0  0  0  0  0  0  0  0  0
   -0.0459   -2.1500   -3.4479 N   0  0  0  0  0  0  0  0  0  0  0  0
   -0.9539   -2.7318   -4.1927 C   0  0  0  0  0  0  0  0  0  0  0  0
   -0.7496   -3.2698   -5.1140 H   0  0  0  0  0  0  0  0  0  0  0  0
   -2.2050   -2.5457   -3.6394 N   0  0  0  0  0  0  0  0  0  0  0  0
   -3.0805   -2.8717   -4.0439 H   0  0  0  0  0  0  0  0  0  0  0  0
   -2.0571   -1.7974   -2.4913 C   0  0  0  0  0  0  0  0  0  0  0  0
   -2.8372   -1.4174   -1.8412 H   0  0  0  0  0  0  0  0  0  0  0  0
   -0.7216    0.7241    0.5549 C   0  0  0  0  0  0  0  0  0  0  0  0
   -1.8207    1.2208    0.3292 O   0  0  0  0  0  0  0  0  0  0  0  0
    0.2213    1.4443    1.2648 N   0  0  0  0  0  0  0  0  0  0  0  0
    1.1042    0.9865    1.4750 H   0  0  0  0  0  0  0  0  0  0  0  0
   -0.0040    2.8001    1.7508 C   0  0  0  0  0  0  0  0  0  0  0  0
   -0.8702    2.8288    2.4203 H   0  0  0  0  0  0  0  0  0  0  0  0
    0.8715    3.1535    2.3040 H   0  0  0  0  0  0  0  0  0  0  0  0
   -0.1824    3.4828    0.9133 H   0  0  0  0  0  0  0  0  0  0  0  0
  1  2  1  0  0  0  0
  2  3  1  0  0  0  0
  2  4  1  0  0  0  0
  2  5  1  0  0  0  0
  5  6  2  0  0  0  0
  5  7  1  0  0  0  0
  7  8  1  0  0  0  0
  7  9  1  0  0  0  0
  9 10  1  0  0  0  0
  9 11  1  0  0  0  0
  9 22  1  0  0  0  0
 11 12  1  0  0  0  0
 11 13  1  0  0  0  0
 11 14  1  0  0  0  0
 14 15  1  0  0  0  0
 14 20  2  0  0  0  0
 15 16  2  0  0  0  0
 16 17  1  0  0  0  0
 16 18  1  0  0  0  0
 18 19  1  0  0  0  0
 18 20  1  0  0  0  0
 20 21  1  0  0  0  0
 22 23  2  0  0  0  0
 22 24  1  0  0  0  0
 24 25  1  0  0  0  0
 24 26  1  0  0  0  0
 26 27  1  0  0  0  0
 26 28  1  0  0  0  0
 26 29  1  0  0  0  0
M  END
$$$$

  -OEChem-04042215593D

 29 29  0     1  0  0  0  0  0999 V2000
   -2.7281   -4.4641    1.7150 H   0  0  0  0  0  0  0  0  0  0  0  0
   -2.9127   -3.5028    1.2273 C   0  0  0  0  0  0  0  0  0  0  0  0
   -3.5553   -2.8983    1.8718 H   0  0  0  0  0  0  0  0  0  0  0  0
   -3.4231   -3.6822    0.2780 H   0  0  0  0  0  0  0  0  0  0  0  0
   -1.6008   -2.7827    0.9799 C   0  0  0  0  0  0  0  0  0  0  0  0
   -0.5506   -3.2939    1.3328 O   0  0  0  0  0  0  0  0  0  0  0  0
   -1.6079   -1.5400    0.3821 N   0  0  0  0  0  0  0  0  0  0  0  0
   -2.5117   -1.0994    0.2278 H   0  0  0  0  0  0  0  0  0  0  0  0
   -0.4110   -0.7229    0.1300 C   0  0  1  0  0  0  0  0  0  0  0  0
    0.4079   -1.0799    0.7630 H   0  0  0  0  0  0  0  0  0  0  0  0
    0.0824   -0.7494   -1.3434 C   0  0  0  0  0  0  0  0  0  0  0  0
    0.1288    0.2676   -1.7443 H   0  0  0  0  0  0  0  0  0  0  0  0
    1.1066   -1.1343   -1.3414 H   0  0  0  0  0  0  0  0  0  0  0  0
   -0.7022   -1.5833   -2.3222 C   0  0  0  0  0  0  0  0  0  0  0  0
   -0.0964   -2.4317   -3.2408 N   0  0  0  0  0  0  0  0  0  0  0  0
   -1.0521   -2.9147   -3.9967 C   0  0  0  0  0  0  0  0  0  0  0  0
   -0.9023   -3.6186   -4.8104 H   0  0  0  0  0  0  0  0  0  0  0  0
   -2.2698   -2.3840   -3.6162 N   0  0  0  0  0  0  0  0  0  0  0  0
   -3.1599   -2.5690   -4.0744 H   0  0  0  0  0  0  0  0  0  0  0  0
   -2.0481   -1.5147   -2.5696 C   0  0  0  0  0  0  0  0  0  0  0  0
   -2.7639   -0.8760   -2.0612 H   0  0  0  0  0  0  0  0  0  0  0  0
   -0.7067    0.7307    0.5489 C   0  0  0  0  0  0  0  0  0  0  0  0
   -1.7875    1.2350    0.2596 O   0  0  0  0  0  0  0  0  0  0  0  0
    0.2125    1.4543    1.2859 N   0  0  0  0  0  0  0  0  0  0  0  0
    1.0752    0.9868    1.5520 H   0  0  0  0  0  0  0  0  0  0  0  0
   -0.0294    2.8117    1.7589 C   0  0  0  0  0  0  0  0  0  0  0  0
   -0.9052    2.8389    2.4158 H   0  0  0  0  0  0  0  0  0  0  0  0
    0.8358    3.1754    2.3214 H   0  0  0  0  0  0  0  0  0  0  0  0
   -0.2007    3.4866    0.9138 H   0  0  0  0  0  0  0  0  0  0  0  0
  1  2  1  0  0  0  0
  2  3  1  0  0  0  0
  2  4  1  0  0  0  0
  2  5  1  0  0  0  0
  5  6  2  0  0  0  0
  5  7  1  0  0  0  0
  7  8  1  0  0  0  0
  7  9  1  0  0  0  0
  9 10  1  0  0  0  0
  9 11  1  0  0  0  0
  9 22  1  0  0  0  0
 11 12  1  0  0  0  0
 11 13  1  0  0  0  0
 11 14  1  0  0  0  0
 14 15  1  0  0  0  0
 14 20  2  0  0  0  0
 15 16  2  0  0  0  0
 16 17  1  0  0  0  0
 16 18  1  0  0  0  0
 18 19  1  0  0  0  0
 18 20  1  0  0  0  0
 20 21  1  0  0  0  0
 22 23  2  0  0  0  0
 22 24  1  0  0  0  0
 24 25  1  0  0  0  0
 24 26  1  0  0  0  0
 26 27  1  0  0  0  0
 26 28  1  0  0  0  0
 26 29  1  0  0  0  0
M  END
$$$$

  -OEChem-04042215593D

 29 29  0     1  0  0  0  0  0999 V2000
   -2.7252   -4.4990    1.5812 H   0  0  0  0  0  0  0  0  0  0  0  0
   -2.8982   -3.5409    1.0832 C   0  0  0  0  0  0  0  0  0  0  0  0
   -3.6160   -2.9630    1.6701 H   0  0  0  0  0  0  0  0  0  0  0  0
   -3.3152   -3.7300    0.0911 H   0  0  0  0  0  0  0  0  0  0  0  0
   -1.5945   -2.7756    0.9569 C   0  0  0  0  0  0  0  0  0  0  0  0
   -0.5641   -3.2499    1.4071 O   0  0  0  0  0  0  0  0  0  0  0  0
   -1.5895   -1.5318    0.3614 N   0  0  0  0  0  0  0  0  0  0  0  0
   -2.4848   -1.1409    0.0792 H   0  0  0  0  0  0  0  0  0  0  0  0
   -0.3887   -0.7107    0.1369 C   0  0  1  0  0  0  0  0  0  0  0  0
    0.4267   -1.0702    0.7732 H   0  0  0  0  0  0  0  0  0  0  0  0
    0.1037   -0.7286   -1.3362 C   0  0  0  0  0  0  0  0  0  0  0  0
    0.1407    0.2898   -1.7353 H   0  0  0  0  0  0  0  0  0  0  0  0
    1.1282   -1.1120   -1.3505 H   0  0  0  0  0  0  0  0  0  0  0  0
   -0.7092   -1.5625   -2.2873 C   0  0  0  0  0  0  0  0  0  0  0  0
   -0.2065   -2.6378   -3.0075 N   0  0  0  0  0  0  0  0  0  0  0  0
   -1.1765   -3.0522   -3.7861 C   0  0  0  0  0  0  0  0  0  0  0  0
   -1.1029   -3.8883   -4.4758 H   0  0  0  0  0  0  0  0  0  0  0  0
   -2.2973   -2.2622   -3.6083 N   0  0  0  0  0  0  0  0  0  0  0  0
   -3.1698   -2.3554   -4.1249 H   0  0  0  0  0  0  0  0  0  0  0  0
   -1.9964   -1.2976   -2.6703 C   0  0  0  0  0  0  0  0  0  0  0  0
   -2.6168   -0.4791   -2.3148 H   0  0  0  0  0  0  0  0  0  0  0  0
   -0.6937    0.7422    0.5511 C   0  0  0  0  0  0  0  0  0  0  0  0
   -1.7484    1.2625    0.2000 O   0  0  0  0  0  0  0  0  0  0  0  0
    0.2089    1.4651    1.3087 N   0  0  0  0  0  0  0  0  0  0  0  0
    1.0471    0.9854    1.6261 H   0  0  0  0  0  0  0  0  0  0  0  0
   -0.0317    2.8328    1.7512 C   0  0  0  0  0  0  0  0  0  0  0  0
   -0.9145    2.8765    2.3977 H   0  0  0  0  0  0  0  0  0  0  0  0
    0.8294    3.2048    2.3147 H   0  0  0  0  0  0  0  0  0  0  0  0
   -0.1909    3.4912    0.8908 H   0  0  0  0  0  0  0  0  0  0  0  0
  1  2  1  0  0  0  0
  2  3  1  0  0  0  0
  2  4  1  0  0  0  0
  2  5  1  0  0  0  0
  5  6  2  0  0  0  0
  5  7  1  0  0  0  0
  7  8  1  0  0  0  0
  7  9  1  0  0  0  0
  9 10  1  0  0  0  0
  9 11  1  0  0  0  0
  9 22  1  0  0  0  0
 11 12  1  0  0  0  0
 11 13  1  0  0  0  0
 11 14  1  0  0  0  0
 14 15  1  0  0  0  0
 14 20  2  0  0  0  0
 15 16  2  0  0  0  0
 16 17  1  0  0  0  0
 16 18  1  0  0  0  0
 18 19  1  0  0  0  0
 18 20  1  0  0  0  0
 20 21  1  0  0  0  0
 22 23  2  0  0  0  0
 22 24  1  0  0  0  0
 24 25  1  0  0  0  0
 24 26  1  0  0  0  0
 26 27  1  0  0  0  0
 26 28  1  0  0  0  0
 26 29  1  0  0  0  0
M  END
$$$$

  -OEChem-04042215593D

 29 29  0     1  0  0  0  0  0999 V2000
   -2.7070   -4.5294    1.4536 H   0  0  0  0  0  0  0  0  0  0  0  0
   -2.8763   -3.5718    0.9535 C   0  0  0  0  0  0  0  0  0  0  0  0
   -3.6600   -3.0285    1.4866 H   0  0  0  0  0  0  0  0  0  0  0  0
   -3.2043   -3.7627   -0.0710 H   0  0  0  0  0  0  0  0  0  0  0  0
   -1.5968   -2.7574    0.9400 C   0  0  0  0  0  0  0  0  0  0  0  0
   -0.5906   -3.1959    1.4745 O   0  0  0  0  0  0  0  0  0  0  0  0
   -1.5893   -1.5117    0.3485 N   0  0  0  0  0  0  0  0  0  0  0  0
   -2.4622   -1.1743   -0.0491 H   0  0  0  0  0  0  0  0  0  0  0  0
   -0.3855   -0.6903    0.1424 C   0  0  1  0  0  0  0  0  0  0  0  0
    0.4267   -1.0554    0.7792 H   0  0  0  0  0  0  0  0  0  0  0  0
    0.1055   -0.7061   -1.3303 C   0  0  0  0  0  0  0  0  0  0  0  0
    0.1393    0.3133   -1.7274 H   0  0  0  0  0  0  0  0  0  0  0  0
    1.1290   -1.0911   -1.3547 H   0  0  0  0  0  0  0  0  0  0  0  0
   -0.7245   -1.5399   -2.2652 C   0  0  0  0  0  0  0  0  0  0  0  0
   -0.3523   -2.7821   -2.7601 N   0  0  0  0  0  0  0  0  0  0  0  0
   -1.3053   -3.1567   -3.5787 C   0  0  0  0  0  0  0  0  0  0  0  0
   -1.3144   -4.0916   -4.1319 H   0  0  0  0  0  0  0  0  0  0  0  0
   -2.2887   -2.1861   -3.6372 N   0  0  0  0  0  0  0  0  0  0  0  0
   -3.1193   -2.2256   -4.2251 H   0  0  0  0  0  0  0  0  0  0  0  0
   -1.9158   -1.1471   -2.8108 C   0  0  0  0  0  0  0  0  0  0  0  0
   -2.4297   -0.2069   -2.6268 H   0  0  0  0  0  0  0  0  0  0  0  0
   -0.6863    0.7637    0.5560 C   0  0  0  0  0  0  0  0  0  0  0  0
   -1.7158    1.3055    0.1650 O   0  0  0  0  0  0  0  0  0  0  0  0
    0.2135    1.4776    1.3258 N   0  0  0  0  0  0  0  0  0  0  0  0
    1.0300    0.9821    1.6742 H   0  0  0  0  0  0  0  0  0  0  0  0
   -0.0114    2.8536    1.7503 C   0  0  0  0  0  0  0  0  0  0  0  0
   -0.9022    2.9179    2.3837 H   0  0  0  0  0  0  0  0  0  0  0  0
    0.8475    3.2179    2.3219 H   0  0  0  0  0  0  0  0  0  0  0  0
   -0.1480    3.5053    0.8809 H   0  0  0  0  0  0  0  0  0  0  0  0
  1  2  1  0  0  0  0
  2  3  1  0  0  0  0
  2  4  1  0  0  0  0
  2  5  1  0  0  0  0
  5  6  2  0  0  0  0
  5  7  1  0  0  0  0
  7  8  1  0  0  0  0
  7  9  1  0  0  0  0
  9 10  1  0  0  0  0
  9 11  1  0  0  0  0
  9 22  1  0  0  0  0
 11 12  1  0  0  0  0
 11 13  1  0  0  0  0
 11 14  1  0  0  0  0
 14 15  1  0  0  0  0
 14 20  2  0  0  0  0
 15 16  2  0  0  0  0
 16 17  1  0  0  0  0
 16 18  1  0  0  0  0
 18 19  1  0  0  0  0
 18 20  1  0  0  0  0
 20 21  1  0  0  0  0
 22 23  2  0  0  0  0
 22 24  1  0  0  0  0
 24 25  1  0  0  0  0
 24 26  1  0  0  0  0
 26 27  1  0  0  0  0
 26 28  1  0  0  0  0
 26 29  1  0  0  0  0
M  END
$$$$

  -OEChem-04042215593D

 29 29  0     1  0  0  0  0  0999 V2000
   -2.6894   -4.5401    1.3690 H   0  0  0  0  0  0  0  0  0  0  0  0
   -2.8563   -3.5851    0.8631 C   0  0  0  0  0  0  0  0  0  0  0  0
   -3.6856   -3.0670    1.3502 H   0  0  0  0  0  0  0  0  0  0  0  0
   -3.1173   -3.7800   -0.1800 H   0  0  0  0  0  0  0  0  0  0  0  0
   -1.6026   -2.7340    0.9278 C   0  0  0  0  0  0  0  0  0  0  0  0
   -0.6188   -3.1427    1.5248 O   0  0  0  0  0  0  0  0  0  0  0  0
   -1.5975   -1.4865    0.3400 N   0  0  0  0  0  0  0  0  0  0  0  0
   -2.4477   -1.1904   -0.1317 H   0  0  0  0  0  0  0  0  0  0  0  0
   -0.3916   -0.6669    0.1413 C   0  0  1  0  0  0  0  0  0  0  0  0
    0.4189   -1.0376    0.7772 H   0  0  0  0  0  0  0  0  0  0  0  0
    0.0982   -0.6896   -1.3320 C   0  0  0  0  0  0  0  0  0  0  0  0
    0.1331    0.3291   -1.7312 H   0  0  0  0  0  0  0  0  0  0  0  0
    1.1203   -1.0779   -1.3582 H   0  0  0  0  0  0  0  0  0  0  0  0
   -0.7385   -1.5266   -2.2592 C   0  0  0  0  0  0  0  0  0  0  0  0
   -0.5304   -2.8748   -2.5187 N   0  0  0  0  0  0  0  0  0  0  0  0
   -1.4388   -3.2308   -3.3942 C   0  0  0  0  0  0  0  0  0  0  0  0
   -1.5439   -4.2302   -3.8071 H   0  0  0  0  0  0  0  0  0  0  0  0
   -2.2386   -2.1485   -3.7119 N   0  0  0  0  0  0  0  0  0  0  0  0
   -3.0056   -2.1604   -4.3820 H   0  0  0  0  0  0  0  0  0  0  0  0
   -1.7903   -1.0583   -2.9962 C   0  0  0  0  0  0  0  0  0  0  0  0
   -2.1710   -0.0402   -3.0020 H   0  0  0  0  0  0  0  0  0  0  0  0
   -0.6805    0.7892    0.5567 C   0  0  0  0  0  0  0  0  0  0  0  0
   -1.6932    1.3506    0.1504 O   0  0  0  0  0  0  0  0  0  0  0  0
    0.2262    1.4908    1.3299 N   0  0  0  0  0  0  0  0  0  0  0  0
    1.0231    0.9773    1.6971 H   0  0  0  0  0  0  0  0  0  0  0  0
    0.0134    2.8658    1.7642 C   0  0  0  0  0  0  0  0  0  0  0  0
   -0.8863    2.9368    2.3843 H   0  0  0  0  0  0  0  0  0  0  0  0
    0.8681    3.2125    2.3529 H   0  0  0  0  0  0  0  0  0  0  0  0
   -0.1006    3.5279    0.8995 H   0  0  0  0  0  0  0  0  0  0  0  0
  1  2  1  0  0  0  0
  2  3  1  0  0  0  0
  2  4  1  0  0  0  0
  2  5  1  0  0  0  0
  5  6  2  0  0  0  0
  5  7  1  0  0  0  0
  7  8  1  0  0  0  0
  7  9  1  0  0  0  0
  9 10  1  0  0  0  0
  9 11  1  0  0  0  0
  9 22  1  0  0  0  0
 11 12  1  0  0  0  0
 11 13  1  0  0  0  0
 11 14  1  0  0  0  0
 14 15  1  0  0  0  0
 14 20  2  0  0  0  0
 15 16  2  0  0  0  0
 16 17  1  0  0  0  0
 16 18  1  0  0  0  0
 18 19  1  0  0  0  0
 18 20  1  0  0  0  0
 20 21  1  0  0  0  0
 22 23  2  0  0  0  0
 22 24  1  0  0  0  0
 24 25  1  0  0  0  0
 24 26  1  0  0  0  0
 26 27  1  0  0  0  0
 26 28  1  0  0  0  0
 26 29  1  0  0  0  0
M  END
$$$$

  -OEChem-04042215593D

 29 29  0     1  0  0  0  0  0999 V2000
   -2.6638   -4.5506    1.3483 H   0  0  0  0  0  0  0  0  0  0  0  0
   -2.8373   -3.6003    0.8360 C   0  0  0  0  0  0  0  0  0  0  0  0
   -3.6987   -3.1052    1.2900 H   0  0  0  0  0  0  0  0  0  0  0  0
   -3.0515   -3.8021   -0.2164 H   0  0  0  0  0  0  0  0  0  0  0  0
   -1.6109   -2.7152    0.9489 C   0  0  0  0  0  0  0  0  0  0  0  0
   -0.6460   -3.0918    1.5968 O   0  0  0  0  0  0  0  0  0  0  0  0
   -1.6134   -1.4705    0.3542 N   0  0  0  0  0  0  0  0  0  0  0  0
   -2.4376   -1.2216   -0.1852 H   0  0  0  0  0  0  0  0  0  0  0  0
   -0.4044   -0.6575    0.1494 C   0  0  1  0  0  0  0  0  0  0  0  0
    0.4073   -1.0291    0.7829 H   0  0  0  0  0  0  0  0  0  0  0  0
    0.0803   -0.6870   -1.3267 C   0  0  0  0  0  0  0  0  0  0  0  0
    0.1286    0.3315   -1.7248 H   0  0  0  0  0  0  0  0  0  0  0  0
    1.0980   -1.0865   -1.3489 H   0  0  0  0  0  0  0  0  0  0  0  0
   -0.7552   -1.5203   -2.2616 C   0  0  0  0  0  0  0  0  0  0  0  0
   -0.7557   -2.9092   -2.3157 N   0  0  0  0  0  0  0  0  0  0  0  0
   -1.5869   -3.2476   -3.2713 C   0  0  0  0  0  0  0  0  0  0  0  0
   -1.8082   -4.2689   -3.5687 H   0  0  0  0  0  0  0  0  0  0  0  0
   -2.1390   -2.1145   -3.8385 N   0  0  0  0  0  0  0  0  0  0  0  0
   -2.8056   -2.1069   -4.6084 H   0  0  0  0  0  0  0  0  0  0  0  0
   -1.6086   -1.0127   -3.2010 C   0  0  0  0  0  0  0  0  0  0  0  0
   -1.8102    0.0383   -3.3896 H   0  0  0  0  0  0  0  0  0  0  0  0
   -0.6818    0.8031    0.5590 C   0  0  0  0  0  0  0  0  0  0  0  0
   -1.6813    1.3794    0.1414 O   0  0  0  0  0  0  0  0  0  0  0  0
    0.2350    1.4980    1.3266 N   0  0  0  0  0  0  0  0  0  0  0  0
    1.0145    0.9706    1.7108 H   0  0  0  0  0  0  0  0  0  0  0  0
    0.0342    2.8743    1.7624 C   0  0  0  0  0  0  0  0  0  0  0  0
   -0.8676    2.9535    2.3786 H   0  0  0  0  0  0  0  0  0  0  0  0
    0.8898    3.2109    2.3556 H   0  0  0  0  0  0  0  0  0  0  0  0
   -0.0689    3.5390    0.8982 H   0  0  0  0  0  0  0  0  0  0  0  0
  1  2  1  0  0  0  0
  2  3  1  0  0  0  0
  2  4  1  0  0  0  0
  2  5  1  0  0  0  0
  5  6  2  0  0  0  0
  5  7  1  0  0  0  0
  7  8  1  0  0  0  0
  7  9  1  0  0  0  0
  9 10  1  0  0  0  0
  9 11  1  0  0  0  0
  9 22  1  0  0  0  0
 11 12  1  0  0  0  0
 11 13  1  0  0  0  0
 11 14  1  0  0  0  0
 14 15  1  0  0  0  0
 14 20  2  0  0  0  0
 15 16  2  0  0  0  0
 16 17  1  0  0  0  0
 16 18  1  0  0  0  0
 18 19  1  0  0  0  0
 18 20  1  0  0  0  0
 20 21  1  0  0  0  0
 22 23  2  0  0  0  0
 22 24  1  0  0  0  0
 24 25  1  0  0  0  0
 24 26  1  0  0  0  0
 26 27  1  0  0  0  0
 26 28  1  0  0  0  0
 26 29  1  0  0  0  0
M  END
$$$$

  -OEChem-04042215593D

 29 29  0     1  0  0  0  0  0999 V2000
   -2.6531   -4.5589    1.3845 H   0  0  0  0  0  0  0  0  0  0  0  0
   -2.8335   -3.6116    0.8692 C   0  0  0  0  0  0  0  0  0  0  0  0
   -3.7027   -3.1242    1.3170 H   0  0  0  0  0  0  0  0  0  0  0  0
   -3.0396   -3.8176   -0.1838 H   0  0  0  0  0  0  0  0  0  0  0  0
   -1.6165   -2.7137    0.9858 C   0  0  0  0  0  0  0  0  0  0  0  0
   -0.6560   -3.0736    1.6506 O   0  0  0  0  0  0  0  0  0  0  0  0
   -1.6266   -1.4736    0.3815 N   0  0  0  0  0  0  0  0  0  0  0  0
   -2.4320   -1.2626   -0.2005 H   0  0  0  0  0  0  0  0  0  0  0  0
   -0.4182   -0.6653    0.1641 C   0  0  1  0  0  0  0  0  0  0  0  0
    0.3964   -1.0335    0.7958 H   0  0  0  0  0  0  0  0  0  0  0  0
    0.0628   -0.6951   -1.3149 C   0  0  0  0  0  0  0  0  0  0  0  0
    0.1280    0.3249   -1.7069 H   0  0  0  0  0  0  0  0  0  0  0  0
    1.0768   -1.1041   -1.3272 H   0  0  0  0  0  0  0  0  0  0  0  0
   -0.7569   -1.5205   -2.2761 C   0  0  0  0  0  0  0  0  0  0  0  0
   -0.9981   -2.8886   -2.1894 N   0  0  0  0  0  0  0  0  0  0  0  0
   -1.7339   -3.2106   -3.2256 C   0  0  0  0  0  0  0  0  0  0  0  0
   -2.0869   -4.2133   -3.4492 H   0  0  0  0  0  0  0  0  0  0  0  0
   -1.9957   -2.0860   -3.9836 N   0  0  0  0  0  0  0  0  0  0  0  0
   -2.5452   -2.0686   -4.8410 H   0  0  0  0  0  0  0  0  0  0  0  0
   -1.3758   -1.0104   -3.3837 C   0  0  0  0  0  0  0  0  0  0  0  0
   -1.3689    0.0270   -3.7059 H   0  0  0  0  0  0  0  0  0  0  0  0
   -0.6922    0.7984    0.5659 C   0  0  0  0  0  0  0  0  0  0  0  0
   -1.6850    1.3797    0.1399 O   0  0  0  0  0  0  0  0  0  0  0  0
    0.2306    1.4963    1.3239 N   0  0  0  0  0  0  0  0  0  0  0  0
    1.0065    0.9685    1.7147 H   0  0  0  0  0  0  0  0  0  0  0  0
    0.0439    2.8821    1.7355 C   0  0  0  0  0  0  0  0  0  0  0  0
   -0.8579    2.9817    2.3487 H   0  0  0  0  0  0  0  0  0  0  0  0
    0.9021    3.2204    2.3240 H   0  0  0  0  0  0  0  0  0  0  0  0
   -0.0512    3.5322    0.8595 H   0  0  0  0  0  0  0  0  0  0  0  0
  1  2  1  0  0  0  0
  2  3  1  0  0  0  0
  2  4  1  0  0  0  0
  2  5  1  0  0  0  0
  5  6  2  0  0  0  0
  5  7  1  0  0  0  0
  7  8  1  0  0  0  0
  7  9  1  0  0  0  0
  9 10  1  0  0  0  0
  9 11  1  0  0  0  0
  9 22  1  0  0  0  0
 11 12  1  0  0  0  0
 11 13  1  0  0  0  0
 11 14  1  0  0  0  0
 14 15  1  0  0  0  0
 14 20  2  0  0  0  0
 15 16  2  0  0  0  0
 16 17  1  0  0  0  0
 16 18  1  0  0  0  0
 18 19  1  0  0  0  0
 18 20  1  0  0  0  0
 20 21  1  0  0  0  0
 22 23  2  0  0  0  0
 22 24  1  0  0  0  0
 24 25  1  0  0  0  0
 24 26  1  0  0  0  0
 26 27  1  0  0  0  0
 26 28  1  0  0  0  0
 26 29  1  0  0  0  0
M  END
$$$$

  -OEChem-04042215593D

 29 29  0     1  0  0  0  0  0999 V2000
   -2.6583   -4.5400    1.4904 H   0  0  0  0  0  0  0  0  0  0  0  0
   -2.8372   -3.6125    0.9399 C   0  0  0  0  0  0  0  0  0  0  0  0
   -3.7088   -3.1101    1.3659 H   0  0  0  0  0  0  0  0  0  0  0  0
   -3.0394   -3.8576   -0.1053 H   0  0  0  0  0  0  0  0  0  0  0  0
   -1.6220   -2.7087    1.0305 C   0  0  0  0  0  0  0  0  0  0  0  0
   -0.6567   -3.0551    1.6961 O   0  0  0  0  0  0  0  0  0  0  0  0
   -1.6404   -1.4758    0.4110 N   0  0  0  0  0  0  0  0  0  0  0  0
   -2.4312   -1.3018   -0.2030 H   0  0  0  0  0  0  0  0  0  0  0  0
   -0.4321   -0.6752    0.1710 C   0  0  1  0  0  0  0  0  0  0  0  0
    0.3869   -1.0374    0.8003 H   0  0  0  0  0  0  0  0  0  0  0  0
    0.0442   -0.7123   -1.3111 C   0  0  0  0  0  0  0  0  0  0  0  0
    0.1272    0.3075   -1.7006 H   0  0  0  0  0  0  0  0  0  0  0  0
    1.0541   -1.1319   -1.3117 H   0  0  0  0  0  0  0  0  0  0  0  0
   -0.7572   -1.5312   -2.2982 C   0  0  0  0  0  0  0  0  0  0  0  0
   -1.2569   -2.8208   -2.1292 N   0  0  0  0  0  0  0  0  0  0  0  0
   -1.8836   -3.1381   -3.2361 C   0  0  0  0  0  0  0  0  0  0  0  0
   -2.3786   -4.0876   -3.4198 H   0  0  0  0  0  0  0  0  0  0  0  0
   -1.8243   -2.0848   -4.1262 N   0  0  0  0  0  0  0  0  0  0  0  0
   -2.2386   -2.0756   -5.0566 H   0  0  0  0  0  0  0  0  0  0  0  0
   -1.1125   -1.0636   -3.5341 C   0  0  0  0  0  0  0  0  0  0  0  0
   -0.8752   -0.0872   -3.9465 H   0  0  0  0  0  0  0  0  0  0  0  0
   -0.6995    0.7940    0.5601 C   0  0  0  0  0  0  0  0  0  0  0  0
   -1.6933    1.3763    0.1382 O   0  0  0  0  0  0  0  0  0  0  0  0
    0.2340    1.4963    1.3009 N   0  0  0  0  0  0  0  0  0  0  0  0
    1.0044    0.9660    1.6987 H   0  0  0  0  0  0  0  0  0  0  0  0
    0.0462    2.8805    1.7172 C   0  0  0  0  0  0  0  0  0  0  0  0
   -0.8287    2.9687    2.3698 H   0  0  0  0  0  0  0  0  0  0  0  0
    0.9251    3.2322    2.2659 H   0  0  0  0  0  0  0  0  0  0  0  0
   -0.0968    3.5276    0.8455 H   0  0  0  0  0  0  0  0  0  0  0  0
  1  2  1  0  0  0  0
  2  3  1  0  0  0  0
  2  4  1  0  0  0  0
  2  5  1  0  0  0  0
  5  6  2  0  0  0  0
  5  7  1  0  0  0  0
  7  8  1  0  0  0  0
  7  9  1  0  0  0  0
  9 10  1  0  0  0  0
  9 11  1  0  0  0  0
  9 22  1  0  0  0  0
 11 12  1  0  0  0  0
 11 13  1  0  0  0  0
 11 14  1  0  0  0  0
 14 15  1  0  0  0  0
 14 20  2  0  0  0  0
 15 16  2  0  0  0  0
 16 17  1  0  0  0  0
 16 18  1  0  0  0  0
 18 19  1  0  0  0  0
 18 20  1  0  0  0  0
 20 21  1  0  0  0  0
 22 23  2  0  0  0  0
 22 24  1  0  0  0  0
 24 25  1  0  0  0  0
 24 26  1  0  0  0  0
 26 27  1  0  0  0  0
 26 28  1  0  0  0  0
 26 29  1  0  0  0  0
M  END
$$$$

  -OEChem-04042215593D

 29 29  0     1  0  0  0  0  0999 V2000
   -2.6633   -4.5213    1.5828 H   0  0  0  0  0  0  0  0  0  0  0  0
   -2.8423   -3.6074    1.0103 C   0  0  0  0  0  0  0  0  0  0  0  0
   -3.7086   -3.0908    1.4297 H   0  0  0  0  0  0  0  0  0  0  0  0
   -3.0536   -3.8775   -0.0269 H   0  0  0  0  0  0  0  0  0  0  0  0
   -1.6239   -2.7053    1.0701 C   0  0  0  0  0  0  0  0  0  0  0  0
   -0.6477   -3.0477    1.7224 O   0  0  0  0  0  0  0  0  0  0  0  0
   -1.6515   -1.4779    0.4401 N   0  0  0  0  0  0  0  0  0  0  0  0
   -2.4292   -1.3383   -0.2003 H   0  0  0  0  0  0  0  0  0  0  0  0
   -0.4448   -0.6839    0.1776 C   0  0  1  0  0  0  0  0  0  0  0  0
    0.3807   -1.0416    0.8010 H   0  0  0  0  0  0  0  0  0  0  0  0
    0.0191   -0.7281   -1.3099 C   0  0  0  0  0  0  0  0  0  0  0  0
    0.1082    0.2913   -1.6990 H   0  0  0  0  0  0  0  0  0  0  0  0
    1.0276   -1.1506   -1.3081 H   0  0  0  0  0  0  0  0  0  0  0  0
   -0.7722   -1.5411   -2.3143 C   0  0  0  0  0  0  0  0  0  0  0  0
   -1.5214   -2.7005   -2.1154 N   0  0  0  0  0  0  0  0  0  0  0  0
   -2.0290   -3.0376   -3.2763 C   0  0  0  0  0  0  0  0  0  0  0  0
   -2.6594   -3.9048   -3.4518 H   0  0  0  0  0  0  0  0  0  0  0  0
   -1.6466   -2.1240   -4.2367 N   0  0  0  0  0  0  0  0  0  0  0  0
   -1.9112   -2.1566   -5.2197 H   0  0  0  0  0  0  0  0  0  0  0  0
   -0.8545   -1.1732   -3.6303 C   0  0  0  0  0  0  0  0  0  0  0  0
   -0.3852   -0.3067   -4.0870 H   0  0  0  0  0  0  0  0  0  0  0  0
   -0.7058    0.7886    0.5594 C   0  0  0  0  0  0  0  0  0  0  0  0
   -1.7011    1.3733    0.1445 O   0  0  0  0  0  0  0  0  0  0  0  0
    0.2394    1.4932    1.2832 N   0  0  0  0  0  0  0  0  0  0  0  0
    1.0082    0.9611    1.6819 H   0  0  0  0  0  0  0  0  0  0  0  0
    0.0549    2.8778    1.7001 C   0  0  0  0  0  0  0  0  0  0  0  0
   -0.8113    2.9652    2.3643 H   0  0  0  0  0  0  0  0  0  0  0  0
    0.9405    3.2322    2.2364 H   0  0  0  0  0  0  0  0  0  0  0  0
   -0.1014    3.5236    0.8296 H   0  0  0  0  0  0  0  0  0  0  0  0
  1  2  1  0  0  0  0
  2  3  1  0  0  0  0
  2  4  1  0  0  0  0
  2  5  1  0  0  0  0
  5  6  2  0  0  0  0
  5  7  1  0  0  0  0
  7  8  1  0  0  0  0
  7  9  1  0  0  0  0
  9 10  1  0  0  0  0
  9 11  1  0  0  0  0
  9 22  1  0  0  0  0
 11 12  1  0  0  0  0
 11 13  1  0  0  0  0
 11 14  1  0  0  0  0
 14 15  1  0  0  0  0
 14 20  2  0  0  0  0
 15 16  2  0  0  0  0
 16 17  1  0  0  0  0
 16 18  1  0  0  0  0
 18 19  1  0  0  0  0
 18 20  1  0  0  0  0
 20 21  1  0  0  0  0
 22 23  2  0  0  0  0
 22 24  1  0  0  0  0
 24 25  1  0  0  0  0
 24 26  1  0  0  0  0
 26 27  1  0  0  0  0
 26 28  1  0  0  0  0
 26 29  1  0  0  0  0
M  END
$$$$

  -OEChem-04042215593D

 29 29  0     1  0  0  0  0  0999 V2000
   -2.6632   -4.5267    1.5919 H   0  0  0  0  0  0  0  0  0  0  0  0
   -2.8480   -3.6084    1.0283 C   0  0  0  0  0  0  0  0  0  0  0  0
   -3.7140   -3.0984    1.4563 H   0  0  0  0  0  0  0  0  0  0  0  0
   -3.0641   -3.8702   -0.0101 H   0  0  0  0  0  0  0  0  0  0  0  0
   -1.6330   -2.7020    1.0901 C   0  0  0  0  0  0  0  0  0  0  0  0
   -0.6520   -3.0469    1.7338 O   0  0  0  0  0  0  0  0  0  0  0  0
   -1.6648   -1.4751    0.4602 N   0  0  0  0  0  0  0  0  0  0  0  0
   -2.4272   -1.3619   -0.2054 H   0  0  0  0  0  0  0  0  0  0  0  0
   -0.4589   -0.6848    0.1866 C   0  0  1  0  0  0  0  0  0  0  0  0
    0.3705   -1.0442    0.8038 H   0  0  0  0  0  0  0  0  0  0  0  0
   -0.0044   -0.7327   -1.3045 C   0  0  0  0  0  0  0  0  0  0  0  0
    0.0774    0.2872   -1.6944 H   0  0  0  0  0  0  0  0  0  0  0  0
    1.0067   -1.1490   -1.3063 H   0  0  0  0  0  0  0  0  0  0  0  0
   -0.7923   -1.5411   -2.3176 C   0  0  0  0  0  0  0  0  0  0  0  0
   -1.7625   -2.5255   -2.1238 N   0  0  0  0  0  0  0  0  0  0  0  0
   -2.1598   -2.9189   -3.3097 C   0  0  0  0  0  0  0  0  0  0  0  0
   -2.9109   -3.6821   -3.4930 H   0  0  0  0  0  0  0  0  0  0  0  0
   -1.4848   -2.2155   -4.2853 N   0  0  0  0  0  0  0  0  0  0  0  0
   -1.6167   -2.3261   -5.2890 H   0  0  0  0  0  0  0  0  0  0  0  0
   -0.6221   -1.3407   -3.6612 C   0  0  0  0  0  0  0  0  0  0  0  0
    0.0573   -0.6311   -4.1240 H   0  0  0  0  0  0  0  0  0  0  0  0
   -0.7094    0.7899    0.5697 C   0  0  0  0  0  0  0  0  0  0  0  0
   -1.7052    1.3806    0.1654 O   0  0  0  0  0  0  0  0  0  0  0  0
    0.2465    1.4905    1.2837 N   0  0  0  0  0  0  0  0  0  0  0  0
    1.0215    0.9577    1.6686 H   0  0  0  0  0  0  0  0  0  0  0  0
    0.0793    2.8804    1.6899 C   0  0  0  0  0  0  0  0  0  0  0  0
   -0.7888    2.9851    2.3489 H   0  0  0  0  0  0  0  0  0  0  0  0
    0.9672    3.2265    2.2278 H   0  0  0  0  0  0  0  0  0  0  0  0
   -0.0637    3.5212    0.8135 H   0  0  0  0  0  0  0  0  0  0  0  0
  1  2  1  0  0  0  0
  2  3  1  0  0  0  0
  2  4  1  0  0  0  0
  2  5  1  0  0  0  0
  5  6  2  0  0  0  0
  5  7  1  0  0  0  0
  7  8  1  0  0  0  0
  7  9  1  0  0  0  0
  9 10  1  0  0  0  0
  9 11  1  0  0  0  0
  9 22  1  0  0  0  0
 11 12  1  0  0  0  0
 11 13  1  0  0  0  0
 11 14  1  0  0  0  0
 14 15  1  0  0  0  0
 14 20  2  0  0  0  0
 15 16  2  0  0  0  0
 16 17  1  0  0  0  0
 16 18  1  0  0  0  0
 18 19  1  0  0  0  0
 18 20  1  0  0  0  0
 20 21  1  0  0  0  0
 22 23  2  0  0  0  0
 22 24  1  0  0  0  0
 24 25  1  0  0  0  0
 24 26  1  0  0  0  0
 26 27  1  0  0  0  0
 26 28  1  0  0  0  0
 26 29  1  0  0  0  0
M  END
$$$$

  -OEChem-04042215593D

 29 29  0     1  0  0  0  0  0999 V2000
   -2.6683   -4.5285    1.5531 H   0  0  0  0  0  0  0  0  0  0  0  0
   -2.8536   -3.6037    1.0002 C   0  0  0  0  0  0  0  0  0  0  0  0
   -3.7233   -3.1018    1.4306 H   0  0  0  0  0  0  0  0  0  0  0  0
   -3.0649   -3.8531   -0.0423 H   0  0  0  0  0  0  0  0  0  0  0  0
   -1.6415   -2.6942    1.0778 C   0  0  0  0  0  0  0  0  0  0  0  0
   -0.6561   -3.0501    1.7087 O   0  0  0  0  0  0  0  0  0  0  0  0
   -1.6732   -1.4617    0.4596 N   0  0  0  0  0  0  0  0  0  0  0  0
   -2.4293   -1.3511   -0.2160 H   0  0  0  0  0  0  0  0  0  0  0  0
   -0.4676   -0.6719    0.1856 C   0  0  1  0  0  0  0  0  0  0  0  0
    0.3629   -1.0393    0.7960 H   0  0  0  0  0  0  0  0  0  0  0  0
   -0.0207   -0.7191   -1.3084 C   0  0  0  0  0  0  0  0  0  0  0  0
    0.0366    0.3027   -1.6976 H   0  0  0  0  0  0  0  0  0  0  0  0
    0.9984   -1.1161   -1.3213 H   0  0  0  0  0  0  0  0  0  0  0  0
   -0.8129   -1.5247   -2.3218 C   0  0  0  0  0  0  0  0  0  0  0  0
   -1.9650   -2.2977   -2.1602 N   0  0  0  0  0  0  0  0  0  0  0  0
   -2.2685   -2.7925   -3.3361 C   0  0  0  0  0  0  0  0  0  0  0  0
   -3.1186   -3.4376   -3.5395 H   0  0  0  0  0  0  0  0  0  0  0  0
   -1.3487   -2.3695   -4.2727 N   0  0  0  0  0  0  0  0  0  0  0  0
   -1.3620   -2.6111   -5.2621 H   0  0  0  0  0  0  0  0  0  0  0  0
   -0.4280   -1.5663   -3.6351 C   0  0  0  0  0  0  0  0  0  0  0  0
    0.4298   -1.0615   -4.0698 H   0  0  0  0  0  0  0  0  0  0  0  0
   -0.7060    0.8017    0.5816 C   0  0  0  0  0  0  0  0  0  0  0  0
   -1.6998    1.4039    0.1902 O   0  0  0  0  0  0  0  0  0  0  0  0
    0.2600    1.4902    1.2941 N   0  0  0  0  0  0  0  0  0  0  0  0
    1.0308    0.9479    1.6743 H   0  0  0  0  0  0  0  0  0  0  0  0
    0.1052    2.8785    1.7114 C   0  0  0  0  0  0  0  0  0  0  0  0
   -0.7529    2.9829    2.3838 H   0  0  0  0  0  0  0  0  0  0  0  0
    1.0023    3.2171    2.2385 H   0  0  0  0  0  0  0  0  0  0  0  0
   -0.0478    3.5257    0.8414 H   0  0  0  0  0  0  0  0  0  0  0  0
  1  2  1  0  0  0  0
  2  3  1  0  0  0  0
  2  4  1  0  0  0  0
  2  5  1  0  0  0  0
  5  6  2  0  0  0  0
  5  7  1  0  0  0  0
  7  8  1  0  0  0  0
  7  9  1  0  0  0  0
  9 10  1  0  0  0  0
  9 11  1  0  0  0  0
  9 22  1  0  0  0  0
 11 12  1  0  0  0  0
 11 13  1  0  0  0  0
 11 14  1  0  0  0  0
 14 15  1  0  0  0  0
 14 20  2  0  0  0  0
 15 16  2  0  0  0  0
 16 17  1  0  0  0  0
 16 18  1  0  0  0  0
 18 19  1  0  0  0  0
 18 20  1  0  0  0  0
 20 21  1  0  0  0  0
 22 23  2  0  0  0  0
 22 24  1  0  0  0  0
 24 25  1  0  0  0  0
 24 26  1  0  0  0  0
 26 27  1  0  0  0  0
 26 28  1  0  0  0  0
 26 29  1  0  0  0  0
M  END
$$$$

  -OEChem-04042215593D

 29 29  0     1  0  0  0  0  0999 V2000
   -2.6766   -4.5290    1.4531 H   0  0  0  0  0  0  0  0  0  0  0  0
   -2.8587   -3.5873    0.9284 C   0  0  0  0  0  0  0  0  0  0  0  0
   -3.7243   -3.0939    1.3766 H   0  0  0  0  0  0  0  0  0  0  0  0
   -3.0745   -3.8030   -0.1208 H   0  0  0  0  0  0  0  0  0  0  0  0
   -1.6422   -2.6869    1.0289 C   0  0  0  0  0  0  0  0  0  0  0  0
   -0.6527   -3.0675    1.6380 O   0  0  0  0  0  0  0  0  0  0  0  0
   -1.6672   -1.4449    0.4321 N   0  0  0  0  0  0  0  0  0  0  0  0
   -2.4257   -1.3141   -0.2390 H   0  0  0  0  0  0  0  0  0  0  0  0
   -0.4646   -0.6477    0.1727 C   0  0  1  0  0  0  0  0  0  0  0  0
    0.3630   -1.0239    0.7821 H   0  0  0  0  0  0  0  0  0  0  0  0
   -0.0150   -0.6935   -1.3198 C   0  0  0  0  0  0  0  0  0  0  0  0
    0.0120    0.3290   -1.7097 H   0  0  0  0  0  0  0  0  0  0  0  0
    1.0139   -1.0638   -1.3395 H   0  0  0  0  0  0  0  0  0  0  0  0
   -0.8097   -1.5064   -2.3258 C   0  0  0  0  0  0  0  0  0  0  0  0
   -2.0949   -2.0456   -2.2224 N   0  0  0  0  0  0  0  0  0  0  0  0
   -2.3430   -2.6721   -3.3472 C   0  0  0  0  0  0  0  0  0  0  0  0
   -3.2669   -3.1953   -3.5770 H   0  0  0  0  0  0  0  0  0  0  0  0
   -1.2559   -2.5688   -4.1900 N   0  0  0  0  0  0  0  0  0  0  0  0
   -1.1960   -2.9683   -5.1248 H   0  0  0  0  0  0  0  0  0  0  0  0
   -0.2835   -1.8343   -3.5462 C   0  0  0  0  0  0  0  0  0  0  0  0
    0.7001   -1.5616   -3.9170 H   0  0  0  0  0  0  0  0  0  0  0  0
   -0.6986    0.8210    0.5888 C   0  0  0  0  0  0  0  0  0  0  0  0
   -1.6944    1.4292    0.2131 O   0  0  0  0  0  0  0  0  0  0  0  0
    0.2696    1.4964    1.3108 N   0  0  0  0  0  0  0  0  0  0  0  0
    1.0392    0.9466    1.6819 H   0  0  0  0  0  0  0  0  0  0  0  0
    0.1139    2.8751    1.7577 C   0  0  0  0  0  0  0  0  0  0  0  0
   -0.7350    2.9616    2.4439 H   0  0  0  0  0  0  0  0  0  0  0  0
    1.0167    3.2076    2.2786 H   0  0  0  0  0  0  0  0  0  0  0  0
   -0.0542    3.5387    0.9030 H   0  0  0  0  0  0  0  0  0  0  0  0
  1  2  1  0  0  0  0
  2  3  1  0  0  0  0
  2  4  1  0  0  0  0
  2  5  1  0  0  0  0
  5  6  2  0  0  0  0
  5  7  1  0  0  0  0
  7  8  1  0  0  0  0
  7  9  1  0  0  0  0
  9 10  1  0  0  0  0
  9 11  1  0  0  0  0
  9 22  1  0  0  0  0
 11 12  1  0  0  0  0
 11 13  1  0  0  0  0
 11 14  1  0  0  0  0
 14 15  1  0  0  0  0
 14 20  2  0  0  0  0
 15 16  2  0  0  0  0
 16 17  1  0  0  0  0
 16 18  1  0  0  0  0
 18 19  1  0  0  0  0
 18 20  1  0  0  0  0
 20 21  1  0  0  0  0
 22 23  2  0  0  0  0
 22 24  1  0  0  0  0
 24 25  1  0  0  0  0
 24 26  1  0  0  0  0
 26 27  1  0  0  0  0
 26 28  1  0  0  0  0
 26 29  1  0  0  0  0
M  END
$$$$

  -OEChem-04042215593D

 29 29  0     1  0  0  0  0  0999 V2000
   -2.6704   -4.5428    1.3330 H   0  0  0  0  0  0  0  0  0  0  0  0
   -2.8591   -3.5794    0.8515 C   0  0  0  0  0  0  0  0  0  0  0  0
   -3.7133   -3.1019    1.3373 H   0  0  0  0  0  0  0  0  0  0  0  0
   -3.0970   -3.7502   -0.2013 H   0  0  0  0  0  0  0  0  0  0  0  0
   -1.6370   -2.6882    0.9654 C   0  0  0  0  0  0  0  0  0  0  0  0
   -0.6434   -3.0897    1.5536 O   0  0  0  0  0  0  0  0  0  0  0  0
   -1.6561   -1.4370    0.3894 N   0  0  0  0  0  0  0  0  0  0  0  0
   -2.4225   -1.2760   -0.2669 H   0  0  0  0  0  0  0  0  0  0  0  0
   -0.4575   -0.6256    0.1556 C   0  0  1  0  0  0  0  0  0  0  0  0
    0.3628   -1.0059    0.7722 H   0  0  0  0  0  0  0  0  0  0  0  0
    0.0105   -0.6675   -1.3294 C   0  0  0  0  0  0  0  0  0  0  0  0
    0.0146    0.3537   -1.7235 H   0  0  0  0  0  0  0  0  0  0  0  0
    1.0469   -1.0165   -1.3442 H   0  0  0  0  0  0  0  0  0  0  0  0
   -0.7811   -1.4964   -2.3227 C   0  0  0  0  0  0  0  0  0  0  0  0
   -2.1470   -1.7915   -2.3153 N   0  0  0  0  0  0  0  0  0  0  0  0
   -2.3818   -2.5445   -3.3632 C   0  0  0  0  0  0  0  0  0  0  0  0
   -3.3556   -2.9384   -3.6402 H   0  0  0  0  0  0  0  0  0  0  0  0
   -1.2083   -2.7646   -4.0553 N   0  0  0  0  0  0  0  0  0  0  0  0
   -1.1214   -3.3194   -4.9050 H   0  0  0  0  0  0  0  0  0  0  0  0
   -0.1923   -2.1048   -3.3979 C   0  0  0  0  0  0  0  0  0  0  0  0
    0.8596   -2.0648   -3.6645 H   0  0  0  0  0  0  0  0  0  0  0  0
   -0.6959    0.8373    0.5882 C   0  0  0  0  0  0  0  0  0  0  0  0
   -1.6963    1.4464    0.2274 O   0  0  0  0  0  0  0  0  0  0  0  0
    0.2667    1.5023    1.3270 N   0  0  0  0  0  0  0  0  0  0  0  0
    1.0447    0.9521    1.6795 H   0  0  0  0  0  0  0  0  0  0  0  0
    0.1086    2.8744    1.7927 C   0  0  0  0  0  0  0  0  0  0  0  0
   -0.7631    2.9575    2.4504 H   0  0  0  0  0  0  0  0  0  0  0  0
    0.9956    3.1881    2.3512 H   0  0  0  0  0  0  0  0  0  0  0  0
   -0.0231    3.5543    0.9444 H   0  0  0  0  0  0  0  0  0  0  0  0
  1  2  1  0  0  0  0
  2  3  1  0  0  0  0
  2  4  1  0  0  0  0
  2  5  1  0  0  0  0
  5  6  2  0  0  0  0
  5  7  1  0  0  0  0
  7  8  1  0  0  0  0
  7  9  1  0  0  0  0
  9 10  1  0  0  0  0
  9 11  1  0  0  0  0
  9 22  1  0  0  0  0
 11 12  1  0  0  0  0
 11 13  1  0  0  0  0
 11 14  1  0  0  0  0
 14 15  1  0  0  0  0
 14 20  2  0  0  0  0
 15 16  2  0  0  0  0
 16 17  1  0  0  0  0
 16 18  1  0  0  0  0
 18 19  1  0  0  0  0
 18 20  1  0  0  0  0
 20 21  1  0  0  0  0
 22 23  2  0  0  0  0
 22 24  1  0  0  0  0
 24 25  1  0  0  0  0
 24 26  1  0  0  0  0
 26 27  1  0  0  0  0
 26 28  1  0  0  0  0
 26 29  1  0  0  0  0
M  END
$$$$

  -OEChem-04042215593D

 29 29  0     1  0  0  0  0  0999 V2000
   -2.6726   -4.5482    1.2344 H   0  0  0  0  0  0  0  0  0  0  0  0
   -2.8568   -3.5717    0.7783 C   0  0  0  0  0  0  0  0  0  0  0  0
   -3.7014   -3.0980    1.2841 H   0  0  0  0  0  0  0  0  0  0  0  0
   -3.1063   -3.7148   -0.2759 H   0  0  0  0  0  0  0  0  0  0  0  0
   -1.6256   -2.6946    0.9009 C   0  0  0  0  0  0  0  0  0  0  0  0
   -0.6297   -3.1166    1.4701 O   0  0  0  0  0  0  0  0  0  0  0  0
   -1.6343   -1.4369    0.3400 N   0  0  0  0  0  0  0  0  0  0  0  0
   -2.4120   -1.2404   -0.2932 H   0  0  0  0  0  0  0  0  0  0  0  0
   -0.4391   -0.6103    0.1368 C   0  0  1  0  0  0  0  0  0  0  0  0
    0.3703   -0.9913    0.7669 H   0  0  0  0  0  0  0  0  0  0  0  0
    0.0540   -0.6532   -1.3375 C   0  0  0  0  0  0  0  0  0  0  0  0
    0.0514    0.3634   -1.7432 H   0  0  0  0  0  0  0  0  0  0  0  0
    1.0927   -0.9959   -1.3400 H   0  0  0  0  0  0  0  0  0  0  0  0
   -0.7371   -1.5047   -2.3067 C   0  0  0  0  0  0  0  0  0  0  0  0
   -2.1264   -1.5577   -2.4336 N   0  0  0  0  0  0  0  0  0  0  0  0
   -2.3865   -2.4162   -3.3903 C   0  0  0  0  0  0  0  0  0  0  0  0
   -3.3825   -2.6788   -3.7354 H   0  0  0  0  0  0  0  0  0  0  0  0
   -1.2089   -2.9388   -3.8870 N   0  0  0  0  0  0  0  0  0  0  0  0
   -1.1396   -3.6261   -4.6355 H   0  0  0  0  0  0  0  0  0  0  0  0
   -0.1603   -2.3638   -3.2011 C   0  0  0  0  0  0  0  0  0  0  0  0
    0.9030   -2.5422   -3.3311 H   0  0  0  0  0  0  0  0  0  0  0  0
   -0.6897    0.8481    0.5774 C   0  0  0  0  0  0  0  0  0  0  0  0
   -1.6981    1.4487    0.2258 O   0  0  0  0  0  0  0  0  0  0  0  0
    0.2577    1.5113    1.3375 N   0  0  0  0  0  0  0  0  0  0  0  0
    1.0440    0.9676    1.6813 H   0  0  0  0  0  0  0  0  0  0  0  0
    0.0844    2.8770    1.8164 C   0  0  0  0  0  0  0  0  0  0  0  0
   -0.7995    2.9482    2.4586 H   0  0  0  0  0  0  0  0  0  0  0  0
    0.9592    3.1882    2.3952 H   0  0  0  0  0  0  0  0  0  0  0  0
   -0.0346    3.5667    0.9741 H   0  0  0  0  0  0  0  0  0  0  0  0
  1  2  1  0  0  0  0
  2  3  1  0  0  0  0
  2  4  1  0  0  0  0
  2  5  1  0  0  0  0
  5  6  2  0  0  0  0
  5  7  1  0  0  0  0
  7  8  1  0  0  0  0
  7  9  1  0  0  0  0
  9 10  1  0  0  0  0
  9 11  1  0  0  0  0
  9 22  1  0  0  0  0
 11 12  1  0  0  0  0
 11 13  1  0  0  0  0
 11 14  1  0  0  0  0
 14 15  1  0  0  0  0
 14 20  2  0  0  0  0
 15 16  2  0  0  0  0
 16 17  1  0  0  0  0
 16 18  1  0  0  0  0
 18 19  1  0  0  0  0
 18 20  1  0  0  0  0
 20 21  1  0  0  0  0
 22 23  2  0  0  0  0
 22 24  1  0  0  0  0
 24 25  1  0  0  0  0
 24 26  1  0  0  0  0
 26 27  1  0  0  0  0
 26 28  1  0  0  0  0
 26 29  1  0  0  0  0
M  END
$$$$

  -OEChem-04042215593D

 29 29  0     1  0  0  0  0  0999 V2000
   -2.6825   -4.5432    1.1924 H   0  0  0  0  0  0  0  0  0  0  0  0
   -2.8619   -3.5606    0.7476 C   0  0  0  0  0  0  0  0  0  0  0  0
   -3.6860   -3.0776    1.2783 H   0  0  0  0  0  0  0  0  0  0  0  0
   -3.1404   -3.6923   -0.3008 H   0  0  0  0  0  0  0  0  0  0  0  0
   -1.6131   -2.7052    0.8452 C   0  0  0  0  0  0  0  0  0  0  0  0
   -0.6086   -3.1500    1.3801 O   0  0  0  0  0  0  0  0  0  0  0  0
   -1.6120   -1.4431    0.2942 N   0  0  0  0  0  0  0  0  0  0  0  0
   -2.4141   -1.1996   -0.2887 H   0  0  0  0  0  0  0  0  0  0  0  0
   -0.4193   -0.6046    0.1158 C   0  0  1  0  0  0  0  0  0  0  0  0
    0.3801   -0.9834    0.7605 H   0  0  0  0  0  0  0  0  0  0  0  0
    0.0992   -0.6486   -1.3471 C   0  0  0  0  0  0  0  0  0  0  0  0
    0.0995    0.3626   -1.7660 H   0  0  0  0  0  0  0  0  0  0  0  0
    1.1369   -0.9934   -1.3357 H   0  0  0  0  0  0  0  0  0  0  0  0
   -0.6929   -1.5202   -2.2910 C   0  0  0  0  0  0  0  0  0  0  0  0
   -2.0423   -1.3577   -2.5986 N   0  0  0  0  0  0  0  0  0  0  0  0
   -2.3454   -2.2974   -3.4617 C   0  0  0  0  0  0  0  0  0  0  0  0
   -3.3271   -2.4399   -3.9049 H   0  0  0  0  0  0  0  0  0  0  0  0
   -1.2353   -3.0791   -3.7175 N   0  0  0  0  0  0  0  0  0  0  0  0
   -1.2098   -3.8748   -4.3527 H   0  0  0  0  0  0  0  0  0  0  0  0
   -0.1816   -2.5865   -2.9772 C   0  0  0  0  0  0  0  0  0  0  0  0
    0.8399   -2.9531   -2.9355 H   0  0  0  0  0  0  0  0  0  0  0  0
   -0.6855    0.8493    0.5606 C   0  0  0  0  0  0  0  0  0  0  0  0
   -1.7078    1.4338    0.2227 O   0  0  0  0  0  0  0  0  0  0  0  0
    0.2449    1.5153    1.3390 N   0  0  0  0  0  0  0  0  0  0  0  0
    1.0450    0.9838    1.6695 H   0  0  0  0  0  0  0  0  0  0  0  0
    0.0524    2.8749    1.8281 C   0  0  0  0  0  0  0  0  0  0  0  0
   -0.8381    2.9315    2.4628 H   0  0  0  0  0  0  0  0  0  0  0  0
    0.9185    3.1910    2.4174 H   0  0  0  0  0  0  0  0  0  0  0  0
   -0.0666    3.5698    0.9902 H   0  0  0  0  0  0  0  0  0  0  0  0
  1  2  1  0  0  0  0
  2  3  1  0  0  0  0
  2  4  1  0  0  0  0
  2  5  1  0  0  0  0
  5  6  2  0  0  0  0
  5  7  1  0  0  0  0
  7  8  1  0  0  0  0
  7  9  1  0  0  0  0
  9 10  1  0  0  0  0
  9 11  1  0  0  0  0
  9 22  1  0  0  0  0
 11 12  1  0  0  0  0
 11 13  1  0  0  0  0
 11 14  1  0  0  0  0
 14 15  1  0  0  0  0
 14 20  2  0  0  0  0
 15 16  2  0  0  0  0
 16 17  1  0  0  0  0
 16 18  1  0  0  0  0
 18 19  1  0  0  0  0
 18 20  1  0  0  0  0
 20 21  1  0  0  0  0
 22 23  2  0  0  0  0
 22 24  1  0  0  0  0
 24 25  1  0  0  0  0
 24 26  1  0  0  0  0
 26 27  1  0  0  0  0
 26 28  1  0  0  0  0
 26 29  1  0  0  0  0
M  END
$$$$

  -OEChem-04042215593D

 29 29  0     1  0  0  0  0  0999 V2000
   -2.7116   -4.5233    1.2264 H   0  0  0  0  0  0  0  0  0  0  0  0
   -2.8843   -3.5366    0.7878 C   0  0  0  0  0  0  0  0  0  0  0  0
   -3.6618   -3.0261    1.3613 H   0  0  0  0  0  0  0  0  0  0  0  0
   -3.2250   -3.6622   -0.2429 H   0  0  0  0  0  0  0  0  0  0  0  0
   -1.6055   -2.7214    0.8112 C   0  0  0  0  0  0  0  0  0  0  0  0
   -0.5824   -3.2008    1.2760 O   0  0  0  0  0  0  0  0  0  0  0  0
   -1.5980   -1.4566    0.2666 N   0  0  0  0  0  0  0  0  0  0  0  0
   -2.4448   -1.1467   -0.2093 H   0  0  0  0  0  0  0  0  0  0  0  0
   -0.4078   -0.6113    0.0955 C   0  0  1  0  0  0  0  0  0  0  0  0
    0.3860   -0.9879    0.7481 H   0  0  0  0  0  0  0  0  0  0  0  0
    0.1281   -0.6523   -1.3592 C   0  0  0  0  0  0  0  0  0  0  0  0
    0.1356    0.3562   -1.7848 H   0  0  0  0  0  0  0  0  0  0  0  0
    1.1642   -1.0015   -1.3361 H   0  0  0  0  0  0  0  0  0  0  0  0
   -0.6599   -1.5344   -2.2913 C   0  0  0  0  0  0  0  0  0  0  0  0
   -1.9045   -1.2119   -2.8210 N   0  0  0  0  0  0  0  0  0  0  0  0
   -2.2471   -2.2085   -3.6013 C   0  0  0  0  0  0  0  0  0  0  0  0
   -3.1703   -2.2615   -4.1710 H   0  0  0  0  0  0  0  0  0  0  0  0
   -1.2630   -3.1789   -3.5887 N   0  0  0  0  0  0  0  0  0  0  0  0
   -1.2887   -4.0503   -4.1152 H   0  0  0  0  0  0  0  0  0  0  0  0
   -0.2479   -2.7509   -2.7594 C   0  0  0  0  0  0  0  0  0  0  0  0
    0.6819   -3.2565   -2.5155 H   0  0  0  0  0  0  0  0  0  0  0  0
   -0.6869    0.8383    0.5454 C   0  0  0  0  0  0  0  0  0  0  0  0
   -1.7313    1.3994    0.2363 O   0  0  0  0  0  0  0  0  0  0  0  0
    0.2332    1.5105    1.3305 N   0  0  0  0  0  0  0  0  0  0  0  0
    1.0545    0.9965    1.6357 H   0  0  0  0  0  0  0  0  0  0  0  0
    0.0222    2.8634    1.8306 C   0  0  0  0  0  0  0  0  0  0  0  0
   -0.8652    2.9019    2.4711 H   0  0  0  0  0  0  0  0  0  0  0  0
    0.8868    3.1883    2.4171 H   0  0  0  0  0  0  0  0  0  0  0  0
   -0.1129    3.5625    0.9986 H   0  0  0  0  0  0  0  0  0  0  0  0
  1  2  1  0  0  0  0
  2  3  1  0  0  0  0
  2  4  1  0  0  0  0
  2  5  1  0  0  0  0
  5  6  2  0  0  0  0
  5  7  1  0  0  0  0
  7  8  1  0  0  0  0
  7  9  1  0  0  0  0
  9 10  1  0  0  0  0
  9 11  1  0  0  0  0
  9 22  1  0  0  0  0
 11 12  1  0  0  0  0
 11 13  1  0  0  0  0
 11 14  1  0  0  0  0
 14 15  1  0  0  0  0
 14 20  2  0  0  0  0
 15 16  2  0  0  0  0
 16 17  1  0  0  0  0
 16 18  1  0  0  0  0
 18 19  1  0  0  0  0
 18 20  1  0  0  0  0
 20 21  1  0  0  0  0
 22 23  2  0  0  0  0
 22 24  1  0  0  0  0
 24 25  1  0  0  0  0
 24 26  1  0  0  0  0
 26 27  1  0  0  0  0
 26 28  1  0  0  0  0
 26 29  1  0  0  0  0
M  END
$$$$

  -OEChem-04042215593D

 29 29  0     1  0  0  0  0  0999 V2000
   -2.7445   -4.4856    1.3200 H   0  0  0  0  0  0  0  0  0  0  0  0
   -2.9146   -3.5003    0.8774 C   0  0  0  0  0  0  0  0  0  0  0  0
   -3.6279   -2.9530    1.4984 H   0  0  0  0  0  0  0  0  0  0  0  0
   -3.3361   -3.6294   -0.1224 H   0  0  0  0  0  0  0  0  0  0  0  0
   -1.6093   -2.7331    0.7904 C   0  0  0  0  0  0  0  0  0  0  0  0
   -0.5685   -3.2508    1.1662 O   0  0  0  0  0  0  0  0  0  0  0  0
   -1.5990   -1.4670    0.2481 N   0  0  0  0  0  0  0  0  0  0  0  0
   -2.4819   -1.0891   -0.0930 H   0  0  0  0  0  0  0  0  0  0  0  0
   -0.4079   -0.6224    0.0747 C   0  0  1  0  0  0  0  0  0  0  0  0
    0.3822   -0.9989    0.7323 H   0  0  0  0  0  0  0  0  0  0  0  0
    0.1413   -0.6603   -1.3739 C   0  0  0  0  0  0  0  0  0  0  0  0
    0.1585    0.3483   -1.7988 H   0  0  0  0  0  0  0  0  0  0  0  0
    1.1749   -1.0156   -1.3415 H   0  0  0  0  0  0  0  0  0  0  0  0
   -0.6363   -1.5422   -2.3114 C   0  0  0  0  0  0  0  0  0  0  0  0
   -1.7139   -1.1194   -3.0789 N   0  0  0  0  0  0  0  0  0  0  0  0
   -2.0979   -2.1567   -3.7832 C   0  0  0  0  0  0  0  0  0  0  0  0
   -2.9234   -2.1551   -4.4893 H   0  0  0  0  0  0  0  0  0  0  0  0
   -1.2994   -3.2476   -3.4943 N   0  0  0  0  0  0  0  0  0  0  0  0
   -1.3884   -4.1705   -3.9153 H   0  0  0  0  0  0  0  0  0  0  0  0
   -0.3618   -2.8579   -2.5617 C   0  0  0  0  0  0  0  0  0  0  0  0
    0.4261   -3.4506   -2.1048 H   0  0  0  0  0  0  0  0  0  0  0  0
   -0.6922    0.8239    0.5294 C   0  0  0  0  0  0  0  0  0  0  0  0
   -1.7580    1.3624    0.2546 O   0  0  0  0  0  0  0  0  0  0  0  0
    0.2246    1.5001    1.3146 N   0  0  0  0  0  0  0  0  0  0  0  0
    1.0647    1.0012    1.5928 H   0  0  0  0  0  0  0  0  0  0  0  0
   -0.0042    2.8419    1.8362 C   0  0  0  0  0  0  0  0  0  0  0  0
   -0.8760    2.8518    2.4988 H   0  0  0  0  0  0  0  0  0  0  0  0
    0.8675    3.1800    2.4048 H   0  0  0  0  0  0  0  0  0  0  0  0
   -0.1758    3.5473    1.0163 H   0  0  0  0  0  0  0  0  0  0  0  0
  1  2  1  0  0  0  0
  2  3  1  0  0  0  0
  2  4  1  0  0  0  0
  2  5  1  0  0  0  0
  5  6  2  0  0  0  0
  5  7  1  0  0  0  0
  7  8  1  0  0  0  0
  7  9  1  0  0  0  0
  9 10  1  0  0  0  0
  9 11  1  0  0  0  0
  9 22  1  0  0  0  0
 11 12  1  0  0  0  0
 11 13  1  0  0  0  0
 11 14  1  0  0  0  0
 14 15  1  0  0  0  0
 14 20  2  0  0  0  0
 15 16  2  0  0  0  0
 16 17  1  0  0  0  0
 16 18  1  0  0  0  0
 18 19  1  0  0  0  0
 18 20  1  0  0  0  0
 20 21  1  0  0  0  0
 22 23  2  0  0  0  0
 22 24  1  0  0  0  0
 24 25  1  0  0  0  0
 24 26  1  0  0  0  0
 26 27  1  0  0  0  0
 26 28  1  0  0  0  0
 26 29  1  0  0  0  0
M  END
$$$$

  -OEChem-04042215593D

 29 29  0     1  0  0  0  0  0999 V2000
   -2.7698   -4.4485    1.4463 H   0  0  0  0  0  0  0  0  0  0  0  0
   -2.9419   -3.4658    0.9986 C   0  0  0  0  0  0  0  0  0  0  0  0
   -3.5922   -2.8868    1.6588 H   0  0  0  0  0  0  0  0  0  0  0  0
   -3.4382   -3.5981    0.0341 H   0  0  0  0  0  0  0  0  0  0  0  0
   -1.6237   -2.7414    0.8046 C   0  0  0  0  0  0  0  0  0  0  0  0
   -0.5741   -3.2893    1.1055 O   0  0  0  0  0  0  0  0  0  0  0  0
   -1.6119   -1.4791    0.2529 N   0  0  0  0  0  0  0  0  0  0  0  0
   -2.5085   -1.0553    0.0179 H   0  0  0  0  0  0  0  0  0  0  0  0
   -0.4167   -0.6417    0.0685 C   0  0  1  0  0  0  0  0  0  0  0  0
    0.3711   -1.0160    0.7301 H   0  0  0  0  0  0  0  0  0  0  0  0
    0.1408   -0.6785   -1.3769 C   0  0  0  0  0  0  0  0  0  0  0  0
    0.1674    0.3321   -1.7966 H   0  0  0  0  0  0  0  0  0  0  0  0
    1.1726   -1.0385   -1.3386 H   0  0  0  0  0  0  0  0  0  0  0  0
   -0.6237   -1.5532   -2.3311 C   0  0  0  0  0  0  0  0  0  0  0  0
   -1.4788   -1.0746   -3.3150 N   0  0  0  0  0  0  0  0  0  0  0  0
   -1.9114   -2.1231   -3.9730 C   0  0  0  0  0  0  0  0  0  0  0  0
   -2.6019   -2.0868   -4.8107 H   0  0  0  0  0  0  0  0  0  0  0  0
   -1.3568   -3.2754   -3.4477 N   0  0  0  0  0  0  0  0  0  0  0  0
   -1.5237   -4.2194   -3.7910 H   0  0  0  0  0  0  0  0  0  0  0  0
   -0.5254   -2.9151   -2.4088 C   0  0  0  0  0  0  0  0  0  0  0  0
    0.0808   -3.5539   -1.7709 H   0  0  0  0  0  0  0  0  0  0  0  0
   -0.7043    0.8057    0.5179 C   0  0  0  0  0  0  0  0  0  0  0  0
   -1.7877    1.3241    0.2735 O   0  0  0  0  0  0  0  0  0  0  0  0
    0.2121    1.4883    1.2977 N   0  0  0  0  0  0  0  0  0  0  0  0
    1.0736    1.0083    1.5416 H   0  0  0  0  0  0  0  0  0  0  0  0
   -0.0261    2.8241    1.8301 C   0  0  0  0  0  0  0  0  0  0  0  0
   -0.8833    2.8180    2.5114 H   0  0  0  0  0  0  0  0  0  0  0  0
    0.8522    3.1727    2.3817 H   0  0  0  0  0  0  0  0  0  0  0  0
   -0.2259    3.5305    1.0176 H   0  0  0  0  0  0  0  0  0  0  0  0
  1  2  1  0  0  0  0
  2  3  1  0  0  0  0
  2  4  1  0  0  0  0
  2  5  1  0  0  0  0
  5  6  2  0  0  0  0
  5  7  1  0  0  0  0
  7  8  1  0  0  0  0
  7  9  1  0  0  0  0
  9 10  1  0  0  0  0
  9 11  1  0  0  0  0
  9 22  1  0  0  0  0
 11 12  1  0  0  0  0
 11 13  1  0  0  0  0
 11 14  1  0  0  0  0
 14 15  1  0  0  0  0
 14 20  2  0  0  0  0
 15 16  2  0  0  0  0
 16 17  1  0  0  0  0
 16 18  1  0  0  0  0
 18 19  1  0  0  0  0
 18 20  1  0  0  0  0
 20 21  1  0  0  0  0
 22 23  2  0  0  0  0
 22 24  1  0  0  0  0
 24 25  1  0  0  0  0
 24 26  1  0  0  0  0
 26 27  1  0  0  0  0
 26 28  1  0  0  0  0
 26 29  1  0  0  0  0
M  END
$$$$

  -OEChem-04042215593D

 29 29  0     1  0  0  0  0  0999 V2000
   -2.7991   -4.4171    1.5845 H   0  0  0  0  0  0  0  0  0  0  0  0
   -2.9673   -3.4382    1.1270 C   0  0  0  0  0  0  0  0  0  0  0  0
   -3.5748   -2.8328    1.8043 H   0  0  0  0  0  0  0  0  0  0  0  0
   -3.5081   -3.5753    0.1874 H   0  0  0  0  0  0  0  0  0  0  0  0
   -1.6420   -2.7487    0.8646 C   0  0  0  0  0  0  0  0  0  0  0  0
   -0.5935   -3.3150    1.1323 O   0  0  0  0  0  0  0  0  0  0  0  0
   -1.6249   -1.4947    0.2945 N   0  0  0  0  0  0  0  0  0  0  0  0
   -2.5223   -1.0443    0.1197 H   0  0  0  0  0  0  0  0  0  0  0  0
   -0.4256   -0.6694    0.0846 C   0  0  1  0  0  0  0  0  0  0  0  0
    0.3691   -1.0388    0.7408 H   0  0  0  0  0  0  0  0  0  0  0  0
    0.1194   -0.7040   -1.3678 C   0  0  0  0  0  0  0  0  0  0  0  0
    0.1483    0.3113   -1.7769 H   0  0  0  0  0  0  0  0  0  0  0  0
    1.1511   -1.0647   -1.3390 H   0  0  0  0  0  0  0  0  0  0  0  0
   -0.6394   -1.5630   -2.3426 C   0  0  0  0  0  0  0  0  0  0  0  0
   -1.2385   -1.0694   -3.4944 N   0  0  0  0  0  0  0  0  0  0  0  0
   -1.7174   -2.1045   -4.1412 C   0  0  0  0  0  0  0  0  0  0  0  0
   -2.2517   -2.0525   -5.0856 H   0  0  0  0  0  0  0  0  0  0  0  0
   -1.4329   -3.2672   -3.4504 N   0  0  0  0  0  0  0  0  0  0  0  0
   -1.6728   -4.2081   -3.7566 H   0  0  0  0  0  0  0  0  0  0  0  0
   -0.7265   -2.9285   -2.3163 C   0  0  0  0  0  0  0  0  0  0  0  0
   -0.3061   -3.5853   -1.5582 H   0  0  0  0  0  0  0  0  0  0  0  0
   -0.7138    0.7820    0.5211 C   0  0  0  0  0  0  0  0  0  0  0  0
   -1.8054    1.2881    0.2869 O   0  0  0  0  0  0  0  0  0  0  0  0
    0.2048    1.4787    1.2855 N   0  0  0  0  0  0  0  0  0  0  0  0
    1.0770    1.0119    1.5170 H   0  0  0  0  0  0  0  0  0  0  0  0
   -0.0368    2.8202    1.8022 C   0  0  0  0  0  0  0  0  0  0  0  0
   -0.9017    2.8223    2.4740 H   0  0  0  0  0  0  0  0  0  0  0  0
    0.8358    3.1729    2.3603 H   0  0  0  0  0  0  0  0  0  0  0  0
   -0.2269    3.5188    0.9805 H   0  0  0  0  0  0  0  0  0  0  0  0
  1  2  1  0  0  0  0
  2  3  1  0  0  0  0
  2  4  1  0  0  0  0
  2  5  1  0  0  0  0
  5  6  2  0  0  0  0
  5  7  1  0  0  0  0
  7  8  1  0  0  0  0
  7  9  1  0  0  0  0
  9 10  1  0  0  0  0
  9 11  1  0  0  0  0
  9 22  1  0  0  0  0
 11 12  1  0  0  0  0
 11 13  1  0  0  0  0
 11 14  1  0  0  0  0
 14 15  1  0  0  0  0
 14 20  2  0  0  0  0
 15 16  2  0  0  0  0
 16 17  1  0  0  0  0
 16 18  1  0  0  0  0
 18 19  1  0  0  0  0
 18 20  1  0  0  0  0
 20 21  1  0  0  0  0
 22 23  2  0  0  0  0
 22 24  1  0  0  0  0
 24 25  1  0  0  0  0
 24 26  1  0  0  0  0
 26 27  1  0  0  0  0
 26 28  1  0  0  0  0
 26 29  1  0  0  0  0
M  END
$$$$

  -OEChem-04042215593D

 29 29  0     1  0  0  0  0  0999 V2000
   -2.8198   -4.3908    1.7255 H   0  0  0  0  0  0  0  0  0  0  0  0
   -2.9898   -3.4141    1.2639 C   0  0  0  0  0  0  0  0  0  0  0  0
   -3.5623   -2.7922    1.9566 H   0  0  0  0  0  0  0  0  0  0  0  0
   -3.5680   -3.5530    0.3472 H   0  0  0  0  0  0  0  0  0  0  0  0
   -1.6647   -2.7490    0.9442 C   0  0  0  0  0  0  0  0  0  0  0  0
   -0.6165   -3.3269    1.1847 O   0  0  0  0  0  0  0  0  0  0  0  0
   -1.6480   -1.5052    0.3519 N   0  0  0  0  0  0  0  0  0  0  0  0
   -2.5443   -1.0396    0.2136 H   0  0  0  0  0  0  0  0  0  0  0  0
   -0.4462   -0.6938    0.1041 C   0  0  1  0  0  0  0  0  0  0  0  0
    0.3589   -1.0594    0.7497 H   0  0  0  0  0  0  0  0  0  0  0  0
    0.0803   -0.7255   -1.3580 C   0  0  0  0  0  0  0  0  0  0  0  0
    0.1077    0.2947   -1.7546 H   0  0  0  0  0  0  0  0  0  0  0  0
    1.1131   -1.0839   -1.3416 H   0  0  0  0  0  0  0  0  0  0  0  0
   -0.6690   -1.5656   -2.3592 C   0  0  0  0  0  0  0  0  0  0  0  0
   -0.9842   -1.0999   -3.6305 N   0  0  0  0  0  0  0  0  0  0  0  0
   -1.5088   -2.1069   -4.2858 C   0  0  0  0  0  0  0  0  0  0  0  0
   -1.8665   -2.0615   -5.3105 H   0  0  0  0  0  0  0  0  0  0  0  0
   -1.5216   -3.2333   -3.4865 N   0  0  0  0  0  0  0  0  0  0  0  0
   -1.8368   -4.1570   -3.7762 H   0  0  0  0  0  0  0  0  0  0  0  0
   -0.9568   -2.9018   -2.2738 C   0  0  0  0  0  0  0  0  0  0  0  0
   -0.7352   -3.5566   -1.4359 H   0  0  0  0  0  0  0  0  0  0  0  0
   -0.7286    0.7636    0.5267 C   0  0  0  0  0  0  0  0  0  0  0  0
   -1.8260    1.2642    0.3060 O   0  0  0  0  0  0  0  0  0  0  0  0
    0.2025    1.4714    1.2651 N   0  0  0  0  0  0  0  0  0  0  0  0
    1.0795    1.0087    1.4871 H   0  0  0  0  0  0  0  0  0  0  0  0
   -0.0312    2.8194    1.7689 C   0  0  0  0  0  0  0  0  0  0  0  0
   -0.8842    2.8298    2.4556 H   0  0  0  0  0  0  0  0  0  0  0  0
    0.8505    3.1796    2.3075 H   0  0  0  0  0  0  0  0  0  0  0  0
   -0.2356    3.5072    0.9415 H   0  0  0  0  0  0  0  0  0  0  0  0
  1  2  1  0  0  0  0
  2  3  1  0  0  0  0
  2  4  1  0  0  0  0
  2  5  1  0  0  0  0
  5  6  2  0  0  0  0
  5  7  1  0  0  0  0
  7  8  1  0  0  0  0
  7  9  1  0  0  0  0
  9 10  1  0  0  0  0
  9 11  1  0  0  0  0
  9 22  1  0  0  0  0
 11 12  1  0  0  0  0
 11 13  1  0  0  0  0
 11 14  1  0  0  0  0
 14 15  1  0  0  0  0
 14 20  2  0  0  0  0
 15 16  2  0  0  0  0
 16 17  1  0  0  0  0
 16 18  1  0  0  0  0
 18 19  1  0  0  0  0
 18 20  1  0  0  0  0
 20 21  1  0  0  0  0
 22 23  2  0  0  0  0
 22 24  1  0  0  0  0
 24 25  1  0  0  0  0
 24 26  1  0  0  0  0
 26 27  1  0  0  0  0
 26 28  1  0  0  0  0
 26 29  1  0  0  0  0
M  END
$$$$

  -OEChem-04042215593D

 29 29  0     1  0  0  0  0  0999 V2000
   -2.8159   -4.3711    1.8874 H   0  0  0  0  0  0  0  0  0  0  0  0
   -2.9921   -3.3958    1.4252 C   0  0  0  0  0  0  0  0  0  0  0  0
   -3.5148   -2.7571    2.1412 H   0  0  0  0  0  0  0  0  0  0  0  0
   -3.6211   -3.5317    0.5422 H   0  0  0  0  0  0  0  0  0  0  0  0
   -1.6739   -2.7580    1.0295 C   0  0  0  0  0  0  0  0  0  0  0  0
   -0.6245   -3.3460    1.2342 O   0  0  0  0  0  0  0  0  0  0  0  0
   -1.6680   -1.5257    0.4124 N   0  0  0  0  0  0  0  0  0  0  0  0
   -2.5622   -1.0442    0.3213 H   0  0  0  0  0  0  0  0  0  0  0  0
   -0.4675   -0.7259    0.1245 C   0  0  1  0  0  0  0  0  0  0  0  0
    0.3474   -1.0823    0.7632 H   0  0  0  0  0  0  0  0  0  0  0  0
    0.0474   -0.7548   -1.3447 C   0  0  0  0  0  0  0  0  0  0  0  0
    0.0702    0.2709   -1.7277 H   0  0  0  0  0  0  0  0  0  0  0  0
    1.0837   -1.1035   -1.3314 H   0  0  0  0  0  0  0  0  0  0  0  0
   -0.6759   -1.5752   -2.3848 C   0  0  0  0  0  0  0  0  0  0  0  0
   -0.6731   -1.1727   -3.7163 N   0  0  0  0  0  0  0  0  0  0  0  0
   -1.2709   -2.1127   -4.4062 C   0  0  0  0  0  0  0  0  0  0  0  0
   -1.4332   -2.0881   -5.4800 H   0  0  0  0  0  0  0  0  0  0  0  0
   -1.6451   -3.1425   -3.5675 N   0  0  0  0  0  0  0  0  0  0  0  0
   -2.0815   -4.0130   -3.8642 H   0  0  0  0  0  0  0  0  0  0  0  0
   -1.2395   -2.8209   -2.2901 C   0  0  0  0  0  0  0  0  0  0  0  0
   -1.2937   -3.4444   -1.4057 H   0  0  0  0  0  0  0  0  0  0  0  0
   -0.7481    0.7372    0.5302 C   0  0  0  0  0  0  0  0  0  0  0  0
   -1.8524    1.2293    0.3236 O   0  0  0  0  0  0  0  0  0  0  0  0
    0.1943    1.4590    1.2399 N   0  0  0  0  0  0  0  0  0  0  0  0
    1.0821    1.0071    1.4405 H   0  0  0  0  0  0  0  0  0  0  0  0
   -0.0298    2.8172    1.7194 C   0  0  0  0  0  0  0  0  0  0  0  0
   -0.8780    2.8450    2.4114 H   0  0  0  0  0  0  0  0  0  0  0  0
    0.8575    3.1828    2.2450 H   0  0  0  0  0  0  0  0  0  0  0  0
   -0.2365    3.4900    0.8805 H   0  0  0  0  0  0  0  0  0  0  0  0
  1  2  1  0  0  0  0
  2  3  1  0  0  0  0
  2  4  1  0  0  0  0
  2  5  1  0  0  0  0
  5  6  2  0  0  0  0
  5  7  1  0  0  0  0
  7  8  1  0  0  0  0
  7  9  1  0  0  0  0
  9 10  1  0  0  0  0
  9 11  1  0  0  0  0
  9 22  1  0  0  0  0
 11 12  1  0  0  0  0
 11 13  1  0  0  0  0
 11 14  1  0  0  0  0
 14 15  1  0  0  0  0
 14 20  2  0  0  0  0
 15 16  2  0  0  0  0
 16 17  1  0  0  0  0
 16 18  1  0  0  0  0
 18 19  1  0  0  0  0
 18 20  1  0  0  0  0
 20 21  1  0  0  0  0
 22 23  2  0  0  0  0
 22 24  1  0  0  0  0
 24 25  1  0  0  0  0
 24 26  1  0  0  0  0
 26 27  1  0  0  0  0
 26 28  1  0  0  0  0
 26 29  1  0  0  0  0
M  END
$$$$

  -OEChem-04042215593D

 29 29  0     1  0  0  0  0  0999 V2000
   -2.7781   -4.3797    1.9762 H   0  0  0  0  0  0  0  0  0  0  0  0
   -2.9663   -3.3973    1.5340 C   0  0  0  0  0  0  0  0  0  0  0  0
   -3.4526   -2.7635    2.2796 H   0  0  0  0  0  0  0  0  0  0  0  0
   -3.6338   -3.5183    0.6774 H   0  0  0  0  0  0  0  0  0  0  0  0
   -1.6608   -2.7648    1.0902 C   0  0  0  0  0  0  0  0  0  0  0  0
   -0.6060   -3.3468    1.2801 O   0  0  0  0  0  0  0  0  0  0  0  0
   -1.6751   -1.5397    0.4571 N   0  0  0  0  0  0  0  0  0  0  0  0
   -2.5675   -1.0492    0.4056 H   0  0  0  0  0  0  0  0  0  0  0  0
   -0.4786   -0.7478    0.1392 C   0  0  1  0  0  0  0  0  0  0  0  0
    0.3435   -1.0956    0.7735 H   0  0  0  0  0  0  0  0  0  0  0  0
    0.0268   -0.7894   -1.3339 C   0  0  0  0  0  0  0  0  0  0  0  0
    0.0524    0.2356   -1.7180 H   0  0  0  0  0  0  0  0  0  0  0  0
    1.0634   -1.1379   -1.3143 H   0  0  0  0  0  0  0  0  0  0  0  0
   -0.6741   -1.6048   -2.3970 C   0  0  0  0  0  0  0  0  0  0  0  0
   -0.3655   -1.3449   -3.7288 N   0  0  0  0  0  0  0  0  0  0  0  0
   -1.0558   -2.1834   -4.4610 C   0  0  0  0  0  0  0  0  0  0  0  0
   -1.0309   -2.2280   -5.5459 H   0  0  0  0  0  0  0  0  0  0  0  0
   -1.8092   -3.0024   -3.6466 N   0  0  0  0  0  0  0  0  0  0  0  0
   -2.4134   -3.7560   -3.9683 H   0  0  0  0  0  0  0  0  0  0  0  0
   -1.5619   -2.6488   -2.3374 C   0  0  0  0  0  0  0  0  0  0  0  0
   -1.9629   -3.1227   -1.4521 H   0  0  0  0  0  0  0  0  0  0  0  0
   -0.7539    0.7194    0.5333 C   0  0  0  0  0  0  0  0  0  0  0  0
   -1.8620    1.2075    0.3369 O   0  0  0  0  0  0  0  0  0  0  0  0
    0.1982    1.4509    1.2195 N   0  0  0  0  0  0  0  0  0  0  0  0
    1.0922    1.0050    1.4057 H   0  0  0  0  0  0  0  0  0  0  0  0
   -0.0211    2.8145    1.6857 C   0  0  0  0  0  0  0  0  0  0  0  0
   -0.8547    2.8474    2.3950 H   0  0  0  0  0  0  0  0  0  0  0  0
    0.8753    3.1911    2.1879 H   0  0  0  0  0  0  0  0  0  0  0  0
   -0.2488    3.4757    0.8430 H   0  0  0  0  0  0  0  0  0  0  0  0
  1  2  1  0  0  0  0
  2  3  1  0  0  0  0
  2  4  1  0  0  0  0
  2  5  1  0  0  0  0
  5  6  2  0  0  0  0
  5  7  1  0  0  0  0
  7  8  1  0  0  0  0
  7  9  1  0  0  0  0
  9 10  1  0  0  0  0
  9 11  1  0  0  0  0
  9 22  1  0  0  0  0
 11 12  1  0  0  0  0
 11 13  1  0  0  0  0
 11 14  1  0  0  0  0
 14 15  1  0  0  0  0
 14 20  2  0  0  0  0
 15 16  2  0  0  0  0
 16 17  1  0  0  0  0
 16 18  1  0  0  0  0
 18 19  1  0  0  0  0
 18 20  1  0  0  0  0
 20 21  1  0  0  0  0
 22 23  2  0  0  0  0
 22 24  1  0  0  0  0
 24 25  1  0  0  0  0
 24 26  1  0  0  0  0
 26 27  1  0  0  0  0
 26 28  1  0  0  0  0
 26 29  1  0  0  0  0
M  END
$$$$

  -OEChem-04042215593D

 29 29  0     1  0  0  0  0  0999 V2000
   -2.6118   -4.4361    1.9894 H   0  0  0  0  0  0  0  0  0  0  0  0
   -2.8437   -3.4888    1.4944 C   0  0  0  0  0  0  0  0  0  0  0  0
   -3.3741   -2.8447    2.2000 H   0  0  0  0  0  0  0  0  0  0  0  0
   -3.4890   -3.6891    0.6359 H   0  0  0  0  0  0  0  0  0  0  0  0
   -1.5654   -2.8138    1.0341 C   0  0  0  0  0  0  0  0  0  0  0  0
   -0.4905   -3.3649    1.2048 O   0  0  0  0  0  0  0  0  0  0  0  0
   -1.6251   -1.5732    0.4350 N   0  0  0  0  0  0  0  0  0  0  0  0
   -2.5195   -1.0856    0.4643 H   0  0  0  0  0  0  0  0  0  0  0  0
   -0.4512   -0.7540    0.1066 C   0  0  1  0  0  0  0  0  0  0  0  0
    0.4026   -1.0933    0.7029 H   0  0  0  0  0  0  0  0  0  0  0  0
   -0.0111   -0.7575   -1.3833 C   0  0  0  0  0  0  0  0  0  0  0  0
    0.2983    0.2528   -1.6685 H   0  0  0  0  0  0  0  0  0  0  0  0
    0.8836   -1.3845   -1.4383 H   0  0  0  0  0  0  0  0  0  0  0  0
   -0.9235   -1.2671   -2.4768 C   0  0  0  0  0  0  0  0  0  0  0  0
   -0.4514   -1.2368   -3.7853 N   0  0  0  0  0  0  0  0  0  0  0  0
   -1.4145   -1.6731   -4.5585 C   0  0  0  0  0  0  0  0  0  0  0  0
   -1.3500   -1.7687   -5.6386 H   0  0  0  0  0  0  0  0  0  0  0  0
   -2.5204   -1.9838   -3.7951 N   0  0  0  0  0  0  0  0  0  0  0  0
   -3.4084   -2.3235   -4.1589 H   0  0  0  0  0  0  0  0  0  0  0  0
   -2.2206   -1.7167   -2.4762 C   0  0  0  0  0  0  0  0  0  0  0  0
   -2.8840   -1.8212   -1.6277 H   0  0  0  0  0  0  0  0  0  0  0  0
   -0.7464    0.6948    0.5478 C   0  0  0  0  0  0  0  0  0  0  0  0
   -1.8711    1.1601    0.3914 O   0  0  0  0  0  0  0  0  0  0  0  0
    0.2047    1.4312    1.2301 N   0  0  0  0  0  0  0  0  0  0  0  0
    1.1133    1.0025    1.3844 H   0  0  0  0  0  0  0  0  0  0  0  0
   -0.0362    2.7765    1.7371 C   0  0  0  0  0  0  0  0  0  0  0  0
   -0.8586    2.7721    2.4601 H   0  0  0  0  0  0  0  0  0  0  0  0
    0.8598    3.1588    2.2355 H   0  0  0  0  0  0  0  0  0  0  0  0
   -0.2912    3.4550    0.9162 H   0  0  0  0  0  0  0  0  0  0  0  0
  1  2  1  0  0  0  0
  2  3  1  0  0  0  0
  2  4  1  0  0  0  0
  2  5  1  0  0  0  0
  5  6  2  0  0  0  0
  5  7  1  0  0  0  0
  7  8  1  0  0  0  0
  7  9  1  0  0  0  0
  9 10  1  0  0  0  0
  9 11  1  0  0  0  0
  9 22  1  0  0  0  0
 11 12  1  0  0  0  0
 11 13  1  0  0  0  0
 11 14  1  0  0  0  0
 14 15  1  0  0  0  0
 14 20  2  0  0  0  0
 15 16  2  0  0  0  0
 16 17  1  0  0  0  0
 16 18  1  0  0  0  0
 18 19  1  0  0  0  0
 18 20  1  0  0  0  0
 20 21  1  0  0  0  0
 22 23  2  0  0  0  0
 22 24  1  0  0  0  0
 24 25  1  0  0  0  0
 24 26  1  0  0  0  0
 26 27  1  0  0  0  0
 26 28  1  0  0  0  0
 26 29  1  0  0  0  0
M  END
$$$$

  -OEChem-04042215593D

 29 29  0     1  0  0  0  0  0999 V2000
   -2.6324   -4.4686    1.8743 H   0  0  0  0  0  0  0  0  0  0  0  0
   -2.8515   -3.5051    1.4055 C   0  0  0  0  0  0  0  0  0  0  0  0
   -3.3991   -2.8830    2.1174 H   0  0  0  0  0  0  0  0  0  0  0  0
   -3.4755   -3.6759    0.5250 H   0  0  0  0  0  0  0  0  0  0  0  0
   -1.5620   -2.8170    0.9996 C   0  0  0  0  0  0  0  0  0  0  0  0
   -0.4890   -3.3555    1.2175 O   0  0  0  0  0  0  0  0  0  0  0  0
   -1.6102   -1.5742    0.4041 N   0  0  0  0  0  0  0  0  0  0  0  0
   -2.5093   -1.0965    0.4017 H   0  0  0  0  0  0  0  0  0  0  0  0
   -0.4298   -0.7514    0.1037 C   0  0  1  0  0  0  0  0  0  0  0  0
    0.4164   -1.0935    0.7088 H   0  0  0  0  0  0  0  0  0  0  0  0
    0.0197   -0.7556   -1.3828 C   0  0  0  0  0  0  0  0  0  0  0  0
    0.3446    0.2471   -1.6765 H   0  0  0  0  0  0  0  0  0  0  0  0
    0.9038   -1.3984   -1.4326 H   0  0  0  0  0  0  0  0  0  0  0  0
   -0.9125   -1.2678   -2.4551 C   0  0  0  0  0  0  0  0  0  0  0  0
   -0.4126   -1.5666   -3.7180 N   0  0  0  0  0  0  0  0  0  0  0  0
   -1.4339   -1.8963   -4.4699 C   0  0  0  0  0  0  0  0  0  0  0  0
   -1.3679   -2.1889   -5.5140 H   0  0  0  0  0  0  0  0  0  0  0  0
   -2.6022   -1.8013   -3.7412 N   0  0  0  0  0  0  0  0  0  0  0  0
   -3.5379   -1.9651   -4.1073 H   0  0  0  0  0  0  0  0  0  0  0  0
   -2.2796   -1.3763   -2.4703 C   0  0  0  0  0  0  0  0  0  0  0  0
   -2.9618   -1.1298   -1.6652 H   0  0  0  0  0  0  0  0  0  0  0  0
   -0.7339    0.6956    0.5429 C   0  0  0  0  0  0  0  0  0  0  0  0
   -1.8505    1.1655    0.3464 O   0  0  0  0  0  0  0  0  0  0  0  0
    0.2015    1.4310    1.2475 N   0  0  0  0  0  0  0  0  0  0  0  0
    1.0973    0.9918    1.4424 H   0  0  0  0  0  0  0  0  0  0  0  0
   -0.0512    2.7734    1.7568 C   0  0  0  0  0  0  0  0  0  0  0  0
   -0.8804    2.7627    2.4719 H   0  0  0  0  0  0  0  0  0  0  0  0
    0.8382    3.1581    2.2650 H   0  0  0  0  0  0  0  0  0  0  0  0
   -0.3015    3.4543    0.9365 H   0  0  0  0  0  0  0  0  0  0  0  0
  1  2  1  0  0  0  0
  2  3  1  0  0  0  0
  2  4  1  0  0  0  0
  2  5  1  0  0  0  0
  5  6  2  0  0  0  0
  5  7  1  0  0  0  0
  7  8  1  0  0  0  0
  7  9  1  0  0  0  0
  9 10  1  0  0  0  0
  9 11  1  0  0  0  0
  9 22  1  0  0  0  0
 11 12  1  0  0  0  0
 11 13  1  0  0  0  0
 11 14  1  0  0  0  0
 14 15  1  0  0  0  0
 14 20  2  0  0  0  0
 15 16  2  0  0  0  0
 16 17  1  0  0  0  0
 16 18  1  0  0  0  0
 18 19  1  0  0  0  0
 18 20  1  0  0  0  0
 20 21  1  0  0  0  0
 22 23  2  0  0  0  0
 22 24  1  0  0  0  0
 24 25  1  0  0  0  0
 24 26  1  0  0  0  0
 26 27  1  0  0  0  0
 26 28  1  0  0  0  0
 26 29  1  0  0  0  0
M  END
$$$$

  -OEChem-04042215593D

 29 29  0     1  0  0  0  0  0999 V2000
   -2.6556   -4.4984    1.7532 H   0  0  0  0  0  0  0  0  0  0  0  0
   -2.8594   -3.5381    1.2709 C   0  0  0  0  0  0  0  0  0  0  0  0
   -3.4764   -2.9328    1.9393 H   0  0  0  0  0  0  0  0  0  0  0  0
   -3.4075   -3.7195    0.3432 H   0  0  0  0  0  0  0  0  0  0  0  0
   -1.5582   -2.8178    0.9705 C   0  0  0  0  0  0  0  0  0  0  0  0
   -0.4941   -3.3280    1.2813 O   0  0  0  0  0  0  0  0  0  0  0  0
   -1.5869   -1.5752    0.3736 N   0  0  0  0  0  0  0  0  0  0  0  0
   -2.4960   -1.1352    0.2533 H   0  0  0  0  0  0  0  0  0  0  0  0
   -0.3994   -0.7473    0.1113 C   0  0  1  0  0  0  0  0  0  0  0  0
    0.4374   -1.0891    0.7295 H   0  0  0  0  0  0  0  0  0  0  0  0
    0.0607   -0.7473   -1.3708 C   0  0  0  0  0  0  0  0  0  0  0  0
    0.3880    0.2530   -1.6701 H   0  0  0  0  0  0  0  0  0  0  0  0
    0.9404   -1.3957   -1.4251 H   0  0  0  0  0  0  0  0  0  0  0  0
   -0.9015   -1.2610   -2.4115 C   0  0  0  0  0  0  0  0  0  0  0  0
   -0.4646   -1.8734   -3.5801 N   0  0  0  0  0  0  0  0  0  0  0  0
   -1.5279   -2.0943   -4.3144 C   0  0  0  0  0  0  0  0  0  0  0  0
   -1.5196   -2.5694   -5.2914 H   0  0  0  0  0  0  0  0  0  0  0  0
   -2.6531   -1.6184   -3.6702 N   0  0  0  0  0  0  0  0  0  0  0  0
   -3.5963   -1.6250   -4.0534 H   0  0  0  0  0  0  0  0  0  0  0  0
   -2.2558   -1.0599   -2.4744 C   0  0  0  0  0  0  0  0  0  0  0  0
   -2.8618   -0.5227   -1.7511 H   0  0  0  0  0  0  0  0  0  0  0  0
   -0.7195    0.6991    0.5387 C   0  0  0  0  0  0  0  0  0  0  0  0
   -1.8151    1.1821    0.2684 O   0  0  0  0  0  0  0  0  0  0  0  0
    0.1918    1.4359    1.2723 N   0  0  0  0  0  0  0  0  0  0  0  0
    1.0692    0.9870    1.5212 H   0  0  0  0  0  0  0  0  0  0  0  0
   -0.0697    2.7877    1.7509 C   0  0  0  0  0  0  0  0  0  0  0  0
   -0.9317    2.7952    2.4261 H   0  0  0  0  0  0  0  0  0  0  0  0
    0.7989    3.1706    2.2954 H   0  0  0  0  0  0  0  0  0  0  0  0
   -0.2738    3.4592    0.9102 H   0  0  0  0  0  0  0  0  0  0  0  0
  1  2  1  0  0  0  0
  2  3  1  0  0  0  0
  2  4  1  0  0  0  0
  2  5  1  0  0  0  0
  5  6  2  0  0  0  0
  5  7  1  0  0  0  0
  7  8  1  0  0  0  0
  7  9  1  0  0  0  0
  9 10  1  0  0  0  0
  9 11  1  0  0  0  0
  9 22  1  0  0  0  0
 11 12  1  0  0  0  0
 11 13  1  0  0  0  0
 11 14  1  0  0  0  0
 14 15  1  0  0  0  0
 14 20  2  0  0  0  0
 15 16  2  0  0  0  0
 16 17  1  0  0  0  0
 16 18  1  0  0  0  0
 18 19  1  0  0  0  0
 18 20  1  0  0  0  0
 20 21  1  0  0  0  0
 22 23  2  0  0  0  0
 22 24  1  0  0  0  0
 24 25  1  0  0  0  0
 24 26  1  0  0  0  0
 26 27  1  0  0  0  0
 26 28  1  0  0  0  0
 26 29  1  0  0  0  0
M  END
$$$$

  -OEChem-04042215593D

 29 29  0     1  0  0  0  0  0999 V2000
   -2.6718   -4.5297    1.5827 H   0  0  0  0  0  0  0  0  0  0  0  0
   -2.8622   -3.5697    1.0948 C   0  0  0  0  0  0  0  0  0  0  0  0
   -3.5695   -2.9996    1.7019 H   0  0  0  0  0  0  0  0  0  0  0  0
   -3.3010   -3.7559    0.1115 H   0  0  0  0  0  0  0  0  0  0  0  0
   -1.5668   -2.7956    0.9428 C   0  0  0  0  0  0  0  0  0  0  0  0
   -0.5212   -3.2692    1.3575 O   0  0  0  0  0  0  0  0  0  0  0  0
   -1.5820   -1.5489    0.3548 N   0  0  0  0  0  0  0  0  0  0  0  0
   -2.4845   -1.1658    0.0854 H   0  0  0  0  0  0  0  0  0  0  0  0
   -0.3912   -0.7157    0.1239 C   0  0  1  0  0  0  0  0  0  0  0  0
    0.4384   -1.0641    0.7479 H   0  0  0  0  0  0  0  0  0  0  0  0
    0.0758   -0.7188   -1.3552 C   0  0  0  0  0  0  0  0  0  0  0  0
    0.3915    0.2830   -1.6617 H   0  0  0  0  0  0  0  0  0  0  0  0
    0.9587   -1.3623   -1.4157 H   0  0  0  0  0  0  0  0  0  0  0  0
   -0.9098   -1.2412   -2.3666 C   0  0  0  0  0  0  0  0  0  0  0  0
   -0.5686   -2.1256   -3.3819 N   0  0  0  0  0  0  0  0  0  0  0  0
   -1.6424   -2.2863   -4.1169 C   0  0  0  0  0  0  0  0  0  0  0  0
   -1.7036   -2.9252   -4.9932 H   0  0  0  0  0  0  0  0  0  0  0  0
   -2.6761   -1.5154   -3.6197 N   0  0  0  0  0  0  0  0  0  0  0  0
   -3.6009   -1.4319   -4.0375 H   0  0  0  0  0  0  0  0  0  0  0  0
   -2.2072   -0.8297   -2.5196 C   0  0  0  0  0  0  0  0  0  0  0  0
   -2.7233   -0.0883   -1.9145 H   0  0  0  0  0  0  0  0  0  0  0  0
   -0.7075    0.7317    0.5501 C   0  0  0  0  0  0  0  0  0  0  0  0
   -1.7739    1.2437    0.2223 O   0  0  0  0  0  0  0  0  0  0  0  0
    0.1973    1.4560    1.3039 N   0  0  0  0  0  0  0  0  0  0  0  0
    1.0490    0.9848    1.5971 H   0  0  0  0  0  0  0  0  0  0  0  0
   -0.0436    2.8215    1.7527 C   0  0  0  0  0  0  0  0  0  0  0  0
   -0.9369    2.8661    2.3844 H   0  0  0  0  0  0  0  0  0  0  0  0
    0.8097    3.1834    2.3343 H   0  0  0  0  0  0  0  0  0  0  0  0
   -0.1842    3.4874    0.8947 H   0  0  0  0  0  0  0  0  0  0  0  0
  1  2  1  0  0  0  0
  2  3  1  0  0  0  0
  2  4  1  0  0  0  0
  2  5  1  0  0  0  0
  5  6  2  0  0  0  0
  5  7  1  0  0  0  0
  7  8  1  0  0  0  0
  7  9  1  0  0  0  0
  9 10  1  0  0  0  0
  9 11  1  0  0  0  0
  9 22  1  0  0  0  0
 11 12  1  0  0  0  0
 11 13  1  0  0  0  0
 11 14  1  0  0  0  0
 14 15  1  0  0  0  0
 14 20  2  0  0  0  0
 15 16  2  0  0  0  0
 16 17  1  0  0  0  0
 16 18  1  0  0  0  0
 18 19  1  0  0  0  0
 18 20  1  0  0  0  0
 20 21  1  0  0  0  0
 22 23  2  0  0  0  0
 22 24  1  0  0  0  0
 24 25  1  0  0  0  0
 24 26  1  0  0  0  0
 26 27  1  0  0  0  0
 26 28  1  0  0  0  0
 26 29  1  0  0  0  0
M  END
$$$$

  -OEChem-04042215593D

 29 29  0     1  0  0  0  0  0999 V2000
   -2.6805   -4.5428    1.4497 H   0  0  0  0  0  0  0  0  0  0  0  0
   -2.8593   -3.5839    0.9551 C   0  0  0  0  0  0  0  0  0  0  0  0
   -3.6320   -3.0414    1.5048 H   0  0  0  0  0  0  0  0  0  0  0  0
   -3.2088   -3.7723   -0.0630 H   0  0  0  0  0  0  0  0  0  0  0  0
   -1.5800   -2.7696    0.9182 C   0  0  0  0  0  0  0  0  0  0  0  0
   -0.5595   -3.2139    1.4195 O   0  0  0  0  0  0  0  0  0  0  0  0
   -1.5832   -1.5213    0.3332 N   0  0  0  0  0  0  0  0  0  0  0  0
   -2.4614   -1.1856   -0.0540 H   0  0  0  0  0  0  0  0  0  0  0  0
   -0.3861   -0.6905    0.1280 C   0  0  1  0  0  0  0  0  0  0  0  0
    0.4349   -1.0455    0.7595 H   0  0  0  0  0  0  0  0  0  0  0  0
    0.0908   -0.6982   -1.3472 C   0  0  0  0  0  0  0  0  0  0  0  0
    0.4004    0.3048   -1.6565 H   0  0  0  0  0  0  0  0  0  0  0  0
    0.9751   -1.3393   -1.4116 H   0  0  0  0  0  0  0  0  0  0  0  0
   -0.9104   -1.2223   -2.3399 C   0  0  0  0  0  0  0  0  0  0  0  0
   -0.6987   -2.3228   -3.1598 N   0  0  0  0  0  0  0  0  0  0  0  0
   -1.7635   -2.4344   -3.9166 C   0  0  0  0  0  0  0  0  0  0  0  0
   -1.9093   -3.2015   -4.6718 H   0  0  0  0  0  0  0  0  0  0  0  0
   -2.6660   -1.4309   -3.6157 N   0  0  0  0  0  0  0  0  0  0  0  0
   -3.5568   -1.2803   -4.0858 H   0  0  0  0  0  0  0  0  0  0  0  0
   -2.1200   -0.6477   -2.6209 C   0  0  0  0  0  0  0  0  0  0  0  0
   -2.5305    0.2472   -2.1581 H   0  0  0  0  0  0  0  0  0  0  0  0
   -0.6958    0.7597    0.5493 C   0  0  0  0  0  0  0  0  0  0  0  0
   -1.7334    1.2973    0.1739 O   0  0  0  0  0  0  0  0  0  0  0  0
    0.2040    1.4725    1.3198 N   0  0  0  0  0  0  0  0  0  0  0  0
    1.0293    0.9809    1.6524 H   0  0  0  0  0  0  0  0  0  0  0  0
   -0.0245    2.8437    1.7576 C   0  0  0  0  0  0  0  0  0  0  0  0
   -0.9162    2.9010    2.3905 H   0  0  0  0  0  0  0  0  0  0  0  0
    0.8331    3.2035    2.3342 H   0  0  0  0  0  0  0  0  0  0  0  0
   -0.1607    3.5039    0.8947 H   0  0  0  0  0  0  0  0  0  0  0  0
  1  2  1  0  0  0  0
  2  3  1  0  0  0  0
  2  4  1  0  0  0  0
  2  5  1  0  0  0  0
  5  6  2  0  0  0  0
  5  7  1  0  0  0  0
  7  8  1  0  0  0  0
  7  9  1  0  0  0  0
  9 10  1  0  0  0  0
  9 11  1  0  0  0  0
  9 22  1  0  0  0  0
 11 12  1  0  0  0  0
 11 13  1  0  0  0  0
 11 14  1  0  0  0  0
 14 15  1  0  0  0  0
 14 20  2  0  0  0  0
 15 16  2  0  0  0  0
 16 17  1  0  0  0  0
 16 18  1  0  0  0  0
 18 19  1  0  0  0  0
 18 20  1  0  0  0  0
 20 21  1  0  0  0  0
 22 23  2  0  0  0  0
 22 24  1  0  0  0  0
 24 25  1  0  0  0  0
 24 26  1  0  0  0  0
 26 27  1  0  0  0  0
 26 28  1  0  0  0  0
 26 29  1  0  0  0  0
M  END
$$$$

  -OEChem-04042215593D

 29 29  0     1  0  0  0  0  0999 V2000
   -2.6711   -4.5549    1.3553 H   0  0  0  0  0  0  0  0  0  0  0  0
   -2.8450   -3.5954    0.8604 C   0  0  0  0  0  0  0  0  0  0  0  0
   -3.6648   -3.0804    1.3666 H   0  0  0  0  0  0  0  0  0  0  0  0
   -3.1248   -3.7816   -0.1794 H   0  0  0  0  0  0  0  0  0  0  0  0
   -1.5885   -2.7473    0.9103 C   0  0  0  0  0  0  0  0  0  0  0  0
   -0.5947   -3.1623    1.4858 O   0  0  0  0  0  0  0  0  0  0  0  0
   -1.5840   -1.5013    0.3204 N   0  0  0  0  0  0  0  0  0  0  0  0
   -2.4323   -1.2087   -0.1578 H   0  0  0  0  0  0  0  0  0  0  0  0
   -0.3797   -0.6770    0.1305 C   0  0  1  0  0  0  0  0  0  0  0  0
    0.4353   -1.0355    0.7676 H   0  0  0  0  0  0  0  0  0  0  0  0
    0.1020   -0.6915   -1.3430 C   0  0  0  0  0  0  0  0  0  0  0  0
    0.4122    0.3112   -1.6533 H   0  0  0  0  0  0  0  0  0  0  0  0
    0.9839   -1.3352   -1.4115 H   0  0  0  0  0  0  0  0  0  0  0  0
   -0.9126   -1.2130   -2.3224 C   0  0  0  0  0  0  0  0  0  0  0  0
   -0.8683   -2.4645   -2.9226 N   0  0  0  0  0  0  0  0  0  0  0  0
   -1.9029   -2.5281   -3.7260 C   0  0  0  0  0  0  0  0  0  0  0  0
   -2.1522   -3.3825   -4.3490 H   0  0  0  0  0  0  0  0  0  0  0  0
   -2.6254   -1.3507   -3.6617 N   0  0  0  0  0  0  0  0  0  0  0  0
   -3.4610   -1.1421   -4.2053 H   0  0  0  0  0  0  0  0  0  0  0  0
   -1.9937   -0.5077   -2.7723 C   0  0  0  0  0  0  0  0  0  0  0  0
   -2.2713    0.5019   -2.4771 H   0  0  0  0  0  0  0  0  0  0  0  0
   -0.6848    0.7776    0.5419 C   0  0  0  0  0  0  0  0  0  0  0  0
   -1.6953    1.3344    0.1231 O   0  0  0  0  0  0  0  0  0  0  0  0
    0.2101    1.4853    1.3233 N   0  0  0  0  0  0  0  0  0  0  0  0
    1.0078    0.9778    1.6966 H   0  0  0  0  0  0  0  0  0  0  0  0
   -0.0135    2.8596    1.7538 C   0  0  0  0  0  0  0  0  0  0  0  0
   -0.9305    2.9306    2.3481 H   0  0  0  0  0  0  0  0  0  0  0  0
    0.8242    3.2038    2.3678 H   0  0  0  0  0  0  0  0  0  0  0  0
   -0.1014    3.5232    0.8873 H   0  0  0  0  0  0  0  0  0  0  0  0
  1  2  1  0  0  0  0
  2  3  1  0  0  0  0
  2  4  1  0  0  0  0
  2  5  1  0  0  0  0
  5  6  2  0  0  0  0
  5  7  1  0  0  0  0
  7  8  1  0  0  0  0
  7  9  1  0  0  0  0
  9 10  1  0  0  0  0
  9 11  1  0  0  0  0
  9 22  1  0  0  0  0
 11 12  1  0  0  0  0
 11 13  1  0  0  0  0
 11 14  1  0  0  0  0
 14 15  1  0  0  0  0
 14 20  2  0  0  0  0
 15 16  2  0  0  0  0
 16 17  1  0  0  0  0
 16 18  1  0  0  0  0
 18 19  1  0  0  0  0
 18 20  1  0  0  0  0
 20 21  1  0  0  0  0
 22 23  2  0  0  0  0
 22 24  1  0  0  0  0
 24 25  1  0  0  0  0
 24 26  1  0  0  0  0
 26 27  1  0  0  0  0
 26 28  1  0  0  0  0
 26 29  1  0  0  0  0
M  END
$$$$

  -OEChem-04042215593D

 29 29  0     1  0  0  0  0  0999 V2000
   -2.6677   -4.5581    1.3144 H   0  0  0  0  0  0  0  0  0  0  0  0
   -2.8301   -3.6085    0.7973 C   0  0  0  0  0  0  0  0  0  0  0  0
   -3.6928   -3.1066    1.2415 H   0  0  0  0  0  0  0  0  0  0  0  0
   -3.0361   -3.8120   -0.2564 H   0  0  0  0  0  0  0  0  0  0  0  0
   -1.5995   -2.7302    0.9181 C   0  0  0  0  0  0  0  0  0  0  0  0
   -0.6290   -3.1213    1.5485 O   0  0  0  0  0  0  0  0  0  0  0  0
   -1.5926   -1.4860    0.3245 N   0  0  0  0  0  0  0  0  0  0  0  0
   -2.4092   -1.2376   -0.2278 H   0  0  0  0  0  0  0  0  0  0  0  0
   -0.3832   -0.6686    0.1395 C   0  0  1  0  0  0  0  0  0  0  0  0
    0.4284   -1.0316    0.7779 H   0  0  0  0  0  0  0  0  0  0  0  0
    0.0993   -0.6878   -1.3342 C   0  0  0  0  0  0  0  0  0  0  0  0
    0.4154    0.3137   -1.6428 H   0  0  0  0  0  0  0  0  0  0  0  0
    0.9769   -1.3370   -1.4047 H   0  0  0  0  0  0  0  0  0  0  0  0
   -0.9216   -1.2049   -2.3102 C   0  0  0  0  0  0  0  0  0  0  0  0
   -1.0675   -2.5350   -2.6851 N   0  0  0  0  0  0  0  0  0  0  0  0
   -2.0452   -2.5699   -3.5585 C   0  0  0  0  0  0  0  0  0  0  0  0
   -2.4048   -3.4689   -4.0512 H   0  0  0  0  0  0  0  0  0  0  0  0
   -2.5496   -1.2978   -3.7544 N   0  0  0  0  0  0  0  0  0  0  0  0
   -3.3076   -1.0559   -4.3902 H   0  0  0  0  0  0  0  0  0  0  0  0
   -1.8340   -0.4251   -2.9626 C   0  0  0  0  0  0  0  0  0  0  0  0
   -1.9551    0.6503   -2.8564 H   0  0  0  0  0  0  0  0  0  0  0  0
   -0.6790    0.7897    0.5453 C   0  0  0  0  0  0  0  0  0  0  0  0
   -1.6697    1.3619    0.1010 O   0  0  0  0  0  0  0  0  0  0  0  0
    0.2175    1.4928    1.3292 N   0  0  0  0  0  0  0  0  0  0  0  0
    0.9987    0.9757    1.7240 H   0  0  0  0  0  0  0  0  0  0  0  0
    0.0046    2.8734    1.7459 C   0  0  0  0  0  0  0  0  0  0  0  0
   -0.9049    2.9549    2.3504 H   0  0  0  0  0  0  0  0  0  0  0  0
    0.8513    3.2225    2.3448 H   0  0  0  0  0  0  0  0  0  0  0  0
   -0.0924    3.5272    0.8726 H   0  0  0  0  0  0  0  0  0  0  0  0
  1  2  1  0  0  0  0
  2  3  1  0  0  0  0
  2  4  1  0  0  0  0
  2  5  1  0  0  0  0
  5  6  2  0  0  0  0
  5  7  1  0  0  0  0
  7  8  1  0  0  0  0
  7  9  1  0  0  0  0
  9 10  1  0  0  0  0
  9 11  1  0  0  0  0
  9 22  1  0  0  0  0
 11 12  1  0  0  0  0
 11 13  1  0  0  0  0
 11 14  1  0  0  0  0
 14 15  1  0  0  0  0
 14 20  2  0  0  0  0
 15 16  2  0  0  0  0
 16 17  1  0  0  0  0
 16 18  1  0  0  0  0
 18 19  1  0  0  0  0
 18 20  1  0  0  0  0
 20 21  1  0  0  0  0
 22 23  2  0  0  0  0
 22 24  1  0  0  0  0
 24 25  1  0  0  0  0
 24 26  1  0  0  0  0
 26 27  1  0  0  0  0
 26 28  1  0  0  0  0
 26 29  1  0  0  0  0
M  END
$$$$

  -OEChem-04042215593D

 29 29  0     1  0  0  0  0  0999 V2000
   -2.6427   -4.5673    1.3072 H   0  0  0  0  0  0  0  0  0  0  0  0
   -2.8160   -3.6168    0.7955 C   0  0  0  0  0  0  0  0  0  0  0  0
   -3.6940   -3.1343    1.2311 H   0  0  0  0  0  0  0  0  0  0  0  0
   -3.0030   -3.8159   -0.2628 H   0  0  0  0  0  0  0  0  0  0  0  0
   -1.6044   -2.7161    0.9412 C   0  0  0  0  0  0  0  0  0  0  0  0
   -0.6453   -3.0839    1.6033 O   0  0  0  0  0  0  0  0  0  0  0  0
   -1.6072   -1.4745    0.3425 N   0  0  0  0  0  0  0  0  0  0  0  0
   -2.3965   -1.2730   -0.2657 H   0  0  0  0  0  0  0  0  0  0  0  0
   -0.3974   -0.6621    0.1486 C   0  0  1  0  0  0  0  0  0  0  0  0
    0.4176   -1.0255    0.7828 H   0  0  0  0  0  0  0  0  0  0  0  0
    0.0776   -0.6853   -1.3284 C   0  0  0  0  0  0  0  0  0  0  0  0
    0.4031    0.3137   -1.6352 H   0  0  0  0  0  0  0  0  0  0  0  0
    0.9509   -1.3402   -1.3957 H   0  0  0  0  0  0  0  0  0  0  0  0
   -0.9378   -1.1991   -2.3159 C   0  0  0  0  0  0  0  0  0  0  0  0
   -1.2940   -2.5331   -2.4901 N   0  0  0  0  0  0  0  0  0  0  0  0
   -2.1862   -2.5599   -3.4511 C   0  0  0  0  0  0  0  0  0  0  0  0
   -2.6619   -3.4592   -3.8320 H   0  0  0  0  0  0  0  0  0  0  0  0
   -2.4341   -1.2770   -3.9003 N   0  0  0  0  0  0  0  0  0  0  0  0
   -3.0897   -1.0275   -4.6388 H   0  0  0  0  0  0  0  0  0  0  0  0
   -1.6396   -0.4090   -3.1819 C   0  0  0  0  0  0  0  0  0  0  0  0
   -1.5761    0.6727   -3.2639 H   0  0  0  0  0  0  0  0  0  0  0  0
   -0.6834    0.7991    0.5512 C   0  0  0  0  0  0  0  0  0  0  0  0
   -1.6622    1.3842    0.0987 O   0  0  0  0  0  0  0  0  0  0  0  0
    0.2242    1.4962    1.3280 N   0  0  0  0  0  0  0  0  0  0  0  0
    0.9905    0.9667    1.7352 H   0  0  0  0  0  0  0  0  0  0  0  0
    0.0248    2.8785    1.7453 C   0  0  0  0  0  0  0  0  0  0  0  0
   -0.8944    2.9730    2.3328 H   0  0  0  0  0  0  0  0  0  0  0  0
    0.8652    3.2122    2.3614 H   0  0  0  0  0  0  0  0  0  0  0  0
   -0.0447    3.5360    0.8726 H   0  0  0  0  0  0  0  0  0  0  0  0
  1  2  1  0  0  0  0
  2  3  1  0  0  0  0
  2  4  1  0  0  0  0
  2  5  1  0  0  0  0
  5  6  2  0  0  0  0
  5  7  1  0  0  0  0
  7  8  1  0  0  0  0
  7  9  1  0  0  0  0
  9 10  1  0  0  0  0
  9 11  1  0  0  0  0
  9 22  1  0  0  0  0
 11 12  1  0  0  0  0
 11 13  1  0  0  0  0
 11 14  1  0  0  0  0
 14 15  1  0  0  0  0
 14 20  2  0  0  0  0
 15 16  2  0  0  0  0
 16 17  1  0  0  0  0
 16 18  1  0  0  0  0
 18 19  1  0  0  0  0
 18 20  1  0  0  0  0
 20 21  1  0  0  0  0
 22 23  2  0  0  0  0
 22 24  1  0  0  0  0
 24 25  1  0  0  0  0
 24 26  1  0  0  0  0
 26 27  1  0  0  0  0
 26 28  1  0  0  0  0
 26 29  1  0  0  0  0
M  END
$$$$

  -OEChem-04042215593D

 29 29  0     1  0  0  0  0  0999 V2000
   -2.6223   -4.5711    1.3744 H   0  0  0  0  0  0  0  0  0  0  0  0
   -2.7997   -3.6383    0.8323 C   0  0  0  0  0  0  0  0  0  0  0  0
   -3.7003   -3.1637    1.2285 H   0  0  0  0  0  0  0  0  0  0  0  0
   -2.9511   -3.8690   -0.2250 H   0  0  0  0  0  0  0  0  0  0  0  0
   -1.6117   -2.7082    0.9893 C   0  0  0  0  0  0  0  0  0  0  0  0
   -0.6605   -3.0475    1.6783 O   0  0  0  0  0  0  0  0  0  0  0  0
   -1.6269   -1.4733    0.3759 N   0  0  0  0  0  0  0  0  0  0  0  0
   -2.3805   -1.3317   -0.2926 H   0  0  0  0  0  0  0  0  0  0  0  0
   -0.4146   -0.6702    0.1644 C   0  0  1  0  0  0  0  0  0  0  0  0
    0.4054   -1.0310    0.7933 H   0  0  0  0  0  0  0  0  0  0  0  0
    0.0512   -0.6940   -1.3176 C   0  0  0  0  0  0  0  0  0  0  0  0
    0.3985    0.2996   -1.6184 H   0  0  0  0  0  0  0  0  0  0  0  0
    0.9138   -1.3632   -1.3795 H   0  0  0  0  0  0  0  0  0  0  0  0
   -0.9524   -1.1964   -2.3286 C   0  0  0  0  0  0  0  0  0  0  0  0
   -1.5440   -2.4578   -2.3582 N   0  0  0  0  0  0  0  0  0  0  0  0
   -2.3362   -2.4793   -3.4034 C   0  0  0  0  0  0  0  0  0  0  0  0
   -2.9415   -3.3289   -3.7066 H   0  0  0  0  0  0  0  0  0  0  0  0
   -2.2897   -1.2625   -4.0542 N   0  0  0  0  0  0  0  0  0  0  0  0
   -2.8186   -1.0210   -4.8904 H   0  0  0  0  0  0  0  0  0  0  0  0
   -1.4124   -0.4452   -3.3743 C   0  0  0  0  0  0  0  0  0  0  0  0
   -1.1373    0.5810   -3.6013 H   0  0  0  0  0  0  0  0  0  0  0  0
   -0.6927    0.7963    0.5562 C   0  0  0  0  0  0  0  0  0  0  0  0
   -1.6665    1.3871    0.1007 O   0  0  0  0  0  0  0  0  0  0  0  0
    0.2247    1.4955    1.3199 N   0  0  0  0  0  0  0  0  0  0  0  0
    0.9826    0.9628    1.7381 H   0  0  0  0  0  0  0  0  0  0  0  0
    0.0367    2.8837    1.7231 C   0  0  0  0  0  0  0  0  0  0  0  0
   -0.8581    2.9836    2.3462 H   0  0  0  0  0  0  0  0  0  0  0  0
    0.9005    3.2303    2.2986 H   0  0  0  0  0  0  0  0  0  0  0  0
   -0.0715    3.5271    0.8437 H   0  0  0  0  0  0  0  0  0  0  0  0
  1  2  1  0  0  0  0
  2  3  1  0  0  0  0
  2  4  1  0  0  0  0
  2  5  1  0  0  0  0
  5  6  2  0  0  0  0
  5  7  1  0  0  0  0
  7  8  1  0  0  0  0
  7  9  1  0  0  0  0
  9 10  1  0  0  0  0
  9 11  1  0  0  0  0
  9 22  1  0  0  0  0
 11 12  1  0  0  0  0
 11 13  1  0  0  0  0
 11 14  1  0  0  0  0
 14 15  1  0  0  0  0
 14 20  2  0  0  0  0
 15 16  2  0  0  0  0
 16 17  1  0  0  0  0
 16 18  1  0  0  0  0
 18 19  1  0  0  0  0
 18 20  1  0  0  0  0
 20 21  1  0  0  0  0
 22 23  2  0  0  0  0
 22 24  1  0  0  0  0
 24 25  1  0  0  0  0
 24 26  1  0  0  0  0
 26 27  1  0  0  0  0
 26 28  1  0  0  0  0
 26 29  1  0  0  0  0
M  END
$$$$

  -OEChem-04042215593D

 29 29  0     1  0  0  0  0  0999 V2000
   -2.6173   -4.5649    1.4498 H   0  0  0  0  0  0  0  0  0  0  0  0
   -2.7945   -3.6449    0.8861 C   0  0  0  0  0  0  0  0  0  0  0  0
   -3.6987   -3.1646    1.2674 H   0  0  0  0  0  0  0  0  0  0  0  0
   -2.9410   -3.8996   -0.1664 H   0  0  0  0  0  0  0  0  0  0  0  0
   -1.6106   -2.7068    1.0285 C   0  0  0  0  0  0  0  0  0  0  0  0
   -0.6524   -3.0371    1.7124 O   0  0  0  0  0  0  0  0  0  0  0  0
   -1.6374   -1.4767    0.4062 N   0  0  0  0  0  0  0  0  0  0  0  0
   -2.3742   -1.3723   -0.2896 H   0  0  0  0  0  0  0  0  0  0  0  0
   -0.4285   -0.6767    0.1738 C   0  0  1  0  0  0  0  0  0  0  0  0
    0.3984   -1.0325    0.7965 H   0  0  0  0  0  0  0  0  0  0  0  0
    0.0255   -0.7030   -1.3139 C   0  0  0  0  0  0  0  0  0  0  0  0
    0.3859    0.2867   -1.6125 H   0  0  0  0  0  0  0  0  0  0  0  0
    0.8828   -1.3797   -1.3689 H   0  0  0  0  0  0  0  0  0  0  0  0
   -0.9625   -1.2023   -2.3475 C   0  0  0  0  0  0  0  0  0  0  0  0
   -1.7800   -2.3310   -2.2806 N   0  0  0  0  0  0  0  0  0  0  0  0
   -2.4701   -2.3707   -3.3955 C   0  0  0  0  0  0  0  0  0  0  0  0
   -3.1974   -3.1365   -3.6498 H   0  0  0  0  0  0  0  0  0  0  0  0
   -2.1379   -1.2934   -4.1914 N   0  0  0  0  0  0  0  0  0  0  0  0
   -2.5403   -1.0889   -5.1044 H   0  0  0  0  0  0  0  0  0  0  0  0
   -1.1851   -0.5496   -3.5292 C   0  0  0  0  0  0  0  0  0  0  0  0
   -0.7062    0.3679   -3.8588 H   0  0  0  0  0  0  0  0  0  0  0  0
   -0.7015    0.7928    0.5596 C   0  0  0  0  0  0  0  0  0  0  0  0
   -1.6775    1.3850    0.1114 O   0  0  0  0  0  0  0  0  0  0  0  0
    0.2275    1.4943    1.3073 N   0  0  0  0  0  0  0  0  0  0  0  0
    0.9844    0.9601    1.7251 H   0  0  0  0  0  0  0  0  0  0  0  0
    0.0456    2.8843    1.7070 C   0  0  0  0  0  0  0  0  0  0  0  0
   -0.8383    2.9866    2.3452 H   0  0  0  0  0  0  0  0  0  0  0  0
    0.9192    3.2342    2.2651 H   0  0  0  0  0  0  0  0  0  0  0  0
   -0.0792    3.5239    0.8269 H   0  0  0  0  0  0  0  0  0  0  0  0
  1  2  1  0  0  0  0
  2  3  1  0  0  0  0
  2  4  1  0  0  0  0
  2  5  1  0  0  0  0
  5  6  2  0  0  0  0
  5  7  1  0  0  0  0
  7  8  1  0  0  0  0
  7  9  1  0  0  0  0
  9 10  1  0  0  0  0
  9 11  1  0  0  0  0
  9 22  1  0  0  0  0
 11 12  1  0  0  0  0
 11 13  1  0  0  0  0
 11 14  1  0  0  0  0
 14 15  1  0  0  0  0
 14 20  2  0  0  0  0
 15 16  2  0  0  0  0
 16 17  1  0  0  0  0
 16 18  1  0  0  0  0
 18 19  1  0  0  0  0
 18 20  1  0  0  0  0
 20 21  1  0  0  0  0
 22 23  2  0  0  0  0
 22 24  1  0  0  0  0
 24 25  1  0  0  0  0
 24 26  1  0  0  0  0
 26 27  1  0  0  0  0
 26 28  1  0  0  0  0
 26 29  1  0  0  0  0
M  END
$$$$

  -OEChem-04042215593D

 29 29  0     1  0  0  0  0  0999 V2000
   -2.6097   -4.5647    1.4832 H   0  0  0  0  0  0  0  0  0  0  0  0
   -2.7974   -3.6404    0.9303 C   0  0  0  0  0  0  0  0  0  0  0  0
   -3.6896   -3.1592    1.3373 H   0  0  0  0  0  0  0  0  0  0  0  0
   -2.9715   -3.8865   -0.1199 H   0  0  0  0  0  0  0  0  0  0  0  0
   -1.6075   -2.7070    1.0495 C   0  0  0  0  0  0  0  0  0  0  0  0
   -0.6344   -3.0435    1.7088 O   0  0  0  0  0  0  0  0  0  0  0  0
   -1.6435   -1.4772    0.4282 N   0  0  0  0  0  0  0  0  0  0  0  0
   -2.3836   -1.3817   -0.2675 H   0  0  0  0  0  0  0  0  0  0  0  0
   -0.4417   -0.6750    0.1763 C   0  0  1  0  0  0  0  0  0  0  0  0
    0.3929   -1.0280    0.7901 H   0  0  0  0  0  0  0  0  0  0  0  0
   -0.0012   -0.7058   -1.3162 C   0  0  0  0  0  0  0  0  0  0  0  0
    0.3587    0.2833   -1.6171 H   0  0  0  0  0  0  0  0  0  0  0  0
    0.8576   -1.3809   -1.3670 H   0  0  0  0  0  0  0  0  0  0  0  0
   -0.9770   -1.2101   -2.3630 C   0  0  0  0  0  0  0  0  0  0  0  0
   -1.9938   -2.1594   -2.2377 N   0  0  0  0  0  0  0  0  0  0  0  0
   -2.5825   -2.2503   -3.4062 C   0  0  0  0  0  0  0  0  0  0  0  0
   -3.4152   -2.9099   -3.6336 H   0  0  0  0  0  0  0  0  0  0  0  0
   -1.9891   -1.3818   -4.2985 N   0  0  0  0  0  0  0  0  0  0  0  0
   -2.2698   -1.2513   -5.2687 H   0  0  0  0  0  0  0  0  0  0  0  0
   -0.9764   -0.7183   -3.6404 C   0  0  0  0  0  0  0  0  0  0  0  0
   -0.3118    0.0440   -4.0362 H   0  0  0  0  0  0  0  0  0  0  0  0
   -0.7089    0.7949    0.5653 C   0  0  0  0  0  0  0  0  0  0  0  0
   -1.6932    1.3884    0.1382 O   0  0  0  0  0  0  0  0  0  0  0  0
    0.2348    1.4941    1.2968 N   0  0  0  0  0  0  0  0  0  0  0  0
    0.9981    0.9578    1.6998 H   0  0  0  0  0  0  0  0  0  0  0  0
    0.0603    2.8822    1.7059 C   0  0  0  0  0  0  0  0  0  0  0  0
   -0.8277    2.9864    2.3381 H   0  0  0  0  0  0  0  0  0  0  0  0
    0.9320    3.2204    2.2742 H   0  0  0  0  0  0  0  0  0  0  0  0
   -0.0524    3.5291    0.8294 H   0  0  0  0  0  0  0  0  0  0  0  0
  1  2  1  0  0  0  0
  2  3  1  0  0  0  0
  2  4  1  0  0  0  0
  2  5  1  0  0  0  0
  5  6  2  0  0  0  0
  5  7  1  0  0  0  0
  7  8  1  0  0  0  0
  7  9  1  0  0  0  0
  9 10  1  0  0  0  0
  9 11  1  0  0  0  0
  9 22  1  0  0  0  0
 11 12  1  0  0  0  0
 11 13  1  0  0  0  0
 11 14  1  0  0  0  0
 14 15  1  0  0  0  0
 14 20  2  0  0  0  0
 15 16  2  0  0  0  0
 16 17  1  0  0  0  0
 16 18  1  0  0  0  0
 18 19  1  0  0  0  0
 18 20  1  0  0  0  0
 20 21  1  0  0  0  0
 22 23  2  0  0  0  0
 22 24  1  0  0  0  0
 24 25  1  0  0  0  0
 24 26  1  0  0  0  0
 26 27  1  0  0  0  0
 26 28  1  0  0  0  0
 26 29  1  0  0  0  0
M  END
$$$$

  -OEChem-04042215593D

 29 29  0     1  0  0  0  0  0999 V2000
   -2.6173   -4.5620    1.4751 H   0  0  0  0  0  0  0  0  0  0  0  0
   -2.8094   -3.6263    0.9433 C   0  0  0  0  0  0  0  0  0  0  0  0
   -3.6866   -3.1437    1.3807 H   0  0  0  0  0  0  0  0  0  0  0  0
   -3.0121   -3.8517   -0.1066 H   0  0  0  0  0  0  0  0  0  0  0  0
   -1.6078   -2.7065    1.0488 C   0  0  0  0  0  0  0  0  0  0  0  0
   -0.6198   -3.0638    1.6742 O   0  0  0  0  0  0  0  0  0  0  0  0
   -1.6437   -1.4725    0.4373 N   0  0  0  0  0  0  0  0  0  0  0  0
   -2.3981   -1.3598   -0.2424 H   0  0  0  0  0  0  0  0  0  0  0  0
   -0.4469   -0.6683    0.1745 C   0  0  1  0  0  0  0  0  0  0  0  0
    0.3924   -1.0244    0.7800 H   0  0  0  0  0  0  0  0  0  0  0  0
   -0.0184   -0.7019   -1.3217 C   0  0  0  0  0  0  0  0  0  0  0  0
    0.3294    0.2905   -1.6264 H   0  0  0  0  0  0  0  0  0  0  0  0
    0.8471   -1.3684   -1.3760 H   0  0  0  0  0  0  0  0  0  0  0  0
   -0.9913   -1.2094   -2.3715 C   0  0  0  0  0  0  0  0  0  0  0  0
   -2.1741   -1.9388   -2.2210 N   0  0  0  0  0  0  0  0  0  0  0  0
   -2.6746   -2.1162   -3.4201 C   0  0  0  0  0  0  0  0  0  0  0  0
   -3.5963   -2.6488   -3.6373 H   0  0  0  0  0  0  0  0  0  0  0  0
   -1.8565   -1.5257   -4.3606 N   0  0  0  0  0  0  0  0  0  0  0  0
   -2.0273   -1.5128   -5.3645 H   0  0  0  0  0  0  0  0  0  0  0  0
   -0.7942   -0.9468   -3.7005 C   0  0  0  0  0  0  0  0  0  0  0  0
    0.0323   -0.3885   -4.1302 H   0  0  0  0  0  0  0  0  0  0  0  0
   -0.7072    0.7998    0.5756 C   0  0  0  0  0  0  0  0  0  0  0  0
   -1.7010    1.3952    0.1744 O   0  0  0  0  0  0  0  0  0  0  0  0
    0.2464    1.4953    1.2979 N   0  0  0  0  0  0  0  0  0  0  0  0
    1.0187    0.9587    1.6826 H   0  0  0  0  0  0  0  0  0  0  0  0
    0.0734    2.8791    1.7226 C   0  0  0  0  0  0  0  0  0  0  0  0
   -0.8064    2.9743    2.3675 H   0  0  0  0  0  0  0  0  0  0  0  0
    0.9517    3.2153    2.2820 H   0  0  0  0  0  0  0  0  0  0  0  0
   -0.0533    3.5338    0.8540 H   0  0  0  0  0  0  0  0  0  0  0  0
  1  2  1  0  0  0  0
  2  3  1  0  0  0  0
  2  4  1  0  0  0  0
  2  5  1  0  0  0  0
  5  6  2  0  0  0  0
  5  7  1  0  0  0  0
  7  8  1  0  0  0  0
  7  9  1  0  0  0  0
  9 10  1  0  0  0  0
  9 11  1  0  0  0  0
  9 22  1  0  0  0  0
 11 12  1  0  0  0  0
 11 13  1  0  0  0  0
 11 14  1  0  0  0  0
 14 15  1  0  0  0  0
 14 20  2  0  0  0  0
 15 16  2  0  0  0  0
 16 17  1  0  0  0  0
 16 18  1  0  0  0  0
 18 19  1  0  0  0  0
 18 20  1  0  0  0  0
 20 21  1  0  0  0  0
 22 23  2  0  0  0  0
 22 24  1  0  0  0  0
 24 25  1  0  0  0  0
 24 26  1  0  0  0  0
 26 27  1  0  0  0  0
 26 28  1  0  0  0  0
 26 29  1  0  0  0  0
M  END
$$$$

  -OEChem-04042215593D

 29 29  0     1  0  0  0  0  0999 V2000
   -2.6319   -4.5619    1.4195 H   0  0  0  0  0  0  0  0  0  0  0  0
   -2.8269   -3.6079    0.9225 C   0  0  0  0  0  0  0  0  0  0  0  0
   -3.6854   -3.1290    1.3993 H   0  0  0  0  0  0  0  0  0  0  0  0
   -3.0616   -3.7971   -0.1280 H   0  0  0  0  0  0  0  0  0  0  0  0
   -1.6120   -2.7057    1.0226 C   0  0  0  0  0  0  0  0  0  0  0  0
   -0.6158   -3.0865    1.6203 O   0  0  0  0  0  0  0  0  0  0  0  0
   -1.6415   -1.4650    0.4262 N   0  0  0  0  0  0  0  0  0  0  0  0
   -2.4105   -1.3218   -0.2323 H   0  0  0  0  0  0  0  0  0  0  0  0
   -0.4477   -0.6560    0.1683 C   0  0  1  0  0  0  0  0  0  0  0  0
    0.3911   -1.0179    0.7710 H   0  0  0  0  0  0  0  0  0  0  0  0
   -0.0195   -0.6891   -1.3278 C   0  0  0  0  0  0  0  0  0  0  0  0
    0.3067    0.3100   -1.6338 H   0  0  0  0  0  0  0  0  0  0  0  0
    0.8585   -1.3387   -1.3861 H   0  0  0  0  0  0  0  0  0  0  0  0
   -0.9915   -1.2014   -2.3763 C   0  0  0  0  0  0  0  0  0  0  0  0
   -2.2959   -1.6833   -2.2317 N   0  0  0  0  0  0  0  0  0  0  0  0
   -2.7345   -1.9780   -3.4318 C   0  0  0  0  0  0  0  0  0  0  0  0
   -3.7216   -2.3734   -3.6538 H   0  0  0  0  0  0  0  0  0  0  0  0
   -1.7553   -1.7116   -4.3662 N   0  0  0  0  0  0  0  0  0  0  0  0
   -1.8493   -1.8455   -5.3713 H   0  0  0  0  0  0  0  0  0  0  0  0
   -0.6531   -1.2172   -3.7026 C   0  0  0  0  0  0  0  0  0  0  0  0
    0.2917   -0.8934   -4.1291 H   0  0  0  0  0  0  0  0  0  0  0  0
   -0.7029    0.8091    0.5842 C   0  0  0  0  0  0  0  0  0  0  0  0
   -1.7028    1.4075    0.2043 O   0  0  0  0  0  0  0  0  0  0  0  0
    0.2557    1.4955    1.3089 N   0  0  0  0  0  0  0  0  0  0  0  0
    1.0311    0.9546    1.6813 H   0  0  0  0  0  0  0  0  0  0  0  0
    0.0856    2.8743    1.7508 C   0  0  0  0  0  0  0  0  0  0  0  0
   -0.7756    2.9577    2.4220 H   0  0  0  0  0  0  0  0  0  0  0  0
    0.9776    3.2123    2.2869 H   0  0  0  0  0  0  0  0  0  0  0  0
   -0.0712    3.5356    0.8921 H   0  0  0  0  0  0  0  0  0  0  0  0
  1  2  1  0  0  0  0
  2  3  1  0  0  0  0
  2  4  1  0  0  0  0
  2  5  1  0  0  0  0
  5  6  2  0  0  0  0
  5  7  1  0  0  0  0
  7  8  1  0  0  0  0
  7  9  1  0  0  0  0
  9 10  1  0  0  0  0
  9 11  1  0  0  0  0
  9 22  1  0  0  0  0
 11 12  1  0  0  0  0
 11 13  1  0  0  0  0
 11 14  1  0  0  0  0
 14 15  1  0  0  0  0
 14 20  2  0  0  0  0
 15 16  2  0  0  0  0
 16 17  1  0  0  0  0
 16 18  1  0  0  0  0
 18 19  1  0  0  0  0
 18 20  1  0  0  0  0
 20 21  1  0  0  0  0
 22 23  2  0  0  0  0
 22 24  1  0  0  0  0
 24 25  1  0  0  0  0
 24 26  1  0  0  0  0
 26 27  1  0  0  0  0
 26 28  1  0  0  0  0
 26 29  1  0  0  0  0
M  END
$$$$

  -OEChem-04042215593D

 29 29  0     1  0  0  0  0  0999 V2000
   -2.6495   -4.5531    1.3387 H   0  0  0  0  0  0  0  0  0  0  0  0
   -2.8440   -3.5840    0.8714 C   0  0  0  0  0  0  0  0  0  0  0  0
   -3.6830   -3.1066    1.3828 H   0  0  0  0  0  0  0  0  0  0  0  0
   -3.1086   -3.7426   -0.1770 H   0  0  0  0  0  0  0  0  0  0  0  0
   -1.6144   -2.7010    0.9637 C   0  0  0  0  0  0  0  0  0  0  0  0
   -0.6099   -3.1096    1.5279 O   0  0  0  0  0  0  0  0  0  0  0  0
   -1.6360   -1.4500    0.3893 N   0  0  0  0  0  0  0  0  0  0  0  0
   -2.4201   -1.2672   -0.2420 H   0  0  0  0  0  0  0  0  0  0  0  0
   -0.4441   -0.6318    0.1509 C   0  0  1  0  0  0  0  0  0  0  0  0
    0.3885   -1.0011    0.7576 H   0  0  0  0  0  0  0  0  0  0  0  0
   -0.0031   -0.6618   -1.3404 C   0  0  0  0  0  0  0  0  0  0  0  0
    0.2933    0.3469   -1.6454 H   0  0  0  0  0  0  0  0  0  0  0  0
    0.8921   -1.2873   -1.3995 H   0  0  0  0  0  0  0  0  0  0  0  0
   -0.9748   -1.1827   -2.3833 C   0  0  0  0  0  0  0  0  0  0  0  0
   -2.3511   -1.4004   -2.2756 N   0  0  0  0  0  0  0  0  0  0  0  0
   -2.7626   -1.8451   -3.4384 C   0  0  0  0  0  0  0  0  0  0  0  0
   -3.7909   -2.1018   -3.6775 H   0  0  0  0  0  0  0  0  0  0  0  0
   -1.6950   -1.9418   -4.3073 N   0  0  0  0  0  0  0  0  0  0  0  0
   -1.7502   -2.2571   -5.2741 H   0  0  0  0  0  0  0  0  0  0  0  0
   -0.5618   -1.5247   -3.6426 C   0  0  0  0  0  0  0  0  0  0  0  0
    0.4527   -1.4661   -4.0256 H   0  0  0  0  0  0  0  0  0  0  0  0
   -0.6977    0.8276    0.5873 C   0  0  0  0  0  0  0  0  0  0  0  0
   -1.7037    1.4297    0.2310 O   0  0  0  0  0  0  0  0  0  0  0  0
    0.2608    1.5001    1.3249 N   0  0  0  0  0  0  0  0  0  0  0  0
    1.0420    0.9549    1.6781 H   0  0  0  0  0  0  0  0  0  0  0  0
    0.0892    2.8683    1.7976 C   0  0  0  0  0  0  0  0  0  0  0  0
   -0.7688    2.9347    2.4746 H   0  0  0  0  0  0  0  0  0  0  0  0
    0.9830    3.1969    2.3366 H   0  0  0  0  0  0  0  0  0  0  0  0
   -0.0733    3.5475    0.9542 H   0  0  0  0  0  0  0  0  0  0  0  0
  1  2  1  0  0  0  0
  2  3  1  0  0  0  0
  2  4  1  0  0  0  0
  2  5  1  0  0  0  0
  5  6  2  0  0  0  0
  5  7  1  0  0  0  0
  7  8  1  0  0  0  0
  7  9  1  0  0  0  0
  9 10  1  0  0  0  0
  9 11  1  0  0  0  0
  9 22  1  0  0  0  0
 11 12  1  0  0  0  0
 11 13  1  0  0  0  0
 11 14  1  0  0  0  0
 14 15  1  0  0  0  0
 14 20  2  0  0  0  0
 15 16  2  0  0  0  0
 16 17  1  0  0  0  0
 16 18  1  0  0  0  0
 18 19  1  0  0  0  0
 18 20  1  0  0  0  0
 20 21  1  0  0  0  0
 22 23  2  0  0  0  0
 22 24  1  0  0  0  0
 24 25  1  0  0  0  0
 24 26  1  0  0  0  0
 26 27  1  0  0  0  0
 26 28  1  0  0  0  0
 26 29  1  0  0  0  0
M  END
$$$$

  -OEChem-04042215593D

 29 29  0     1  0  0  0  0  0999 V2000
   -2.6724   -4.5385    1.2592 H   0  0  0  0  0  0  0  0  0  0  0  0
   -2.8581   -3.5592    0.8102 C   0  0  0  0  0  0  0  0  0  0  0  0
   -3.6805   -3.0756    1.3430 H   0  0  0  0  0  0  0  0  0  0  0  0
   -3.1425   -3.6975   -0.2358 H   0  0  0  0  0  0  0  0  0  0  0  0
   -1.6122   -2.6986    0.8948 C   0  0  0  0  0  0  0  0  0  0  0  0
   -0.6041   -3.1325    1.4323 O   0  0  0  0  0  0  0  0  0  0  0  0
   -1.6212   -1.4398    0.3381 N   0  0  0  0  0  0  0  0  0  0  0  0
   -2.4193   -1.2149   -0.2609 H   0  0  0  0  0  0  0  0  0  0  0  0
   -0.4312   -0.6101    0.1272 C   0  0  1  0  0  0  0  0  0  0  0  0
    0.3901   -0.9837    0.7466 H   0  0  0  0  0  0  0  0  0  0  0  0
    0.0362   -0.6435   -1.3539 C   0  0  0  0  0  0  0  0  0  0  0  0
    0.3110    0.3695   -1.6638 H   0  0  0  0  0  0  0  0  0  0  0  0
    0.9444   -1.2509   -1.4030 H   0  0  0  0  0  0  0  0  0  0  0  0
   -0.9342   -1.1837   -2.3846 C   0  0  0  0  0  0  0  0  0  0  0  0
   -2.3293   -1.1340   -2.3534 N   0  0  0  0  0  0  0  0  0  0  0  0
   -2.7567   -1.7150   -3.4483 C   0  0  0  0  0  0  0  0  0  0  0  0
   -3.8013   -1.8299   -3.7235 H   0  0  0  0  0  0  0  0  0  0  0  0
   -1.6831   -2.1628   -4.1917 N   0  0  0  0  0  0  0  0  0  0  0  0
   -1.7478   -2.6467   -5.0854 H   0  0  0  0  0  0  0  0  0  0  0  0
   -0.5264   -1.8301   -3.5196 C   0  0  0  0  0  0  0  0  0  0  0  0
    0.4994   -2.0261   -3.8172 H   0  0  0  0  0  0  0  0  0  0  0  0
   -0.6902    0.8454    0.5756 C   0  0  0  0  0  0  0  0  0  0  0  0
   -1.7105    1.4394    0.2484 O   0  0  0  0  0  0  0  0  0  0  0  0
    0.2598    1.5100    1.3316 N   0  0  0  0  0  0  0  0  0  0  0  0
    1.0545    0.9694    1.6605 H   0  0  0  0  0  0  0  0  0  0  0  0
    0.0744    2.8646    1.8372 C   0  0  0  0  0  0  0  0  0  0  0  0
   -0.8007    2.9120    2.4937 H   0  0  0  0  0  0  0  0  0  0  0  0
    0.9535    3.1780    2.4086 H   0  0  0  0  0  0  0  0  0  0  0  0
   -0.0676    3.5670    1.0092 H   0  0  0  0  0  0  0  0  0  0  0  0
  1  2  1  0  0  0  0
  2  3  1  0  0  0  0
  2  4  1  0  0  0  0
  2  5  1  0  0  0  0
  5  6  2  0  0  0  0
  5  7  1  0  0  0  0
  7  8  1  0  0  0  0
  7  9  1  0  0  0  0
  9 10  1  0  0  0  0
  9 11  1  0  0  0  0
  9 22  1  0  0  0  0
 11 12  1  0  0  0  0
 11 13  1  0  0  0  0
 11 14  1  0  0  0  0
 14 15  1  0  0  0  0
 14 20  2  0  0  0  0
 15 16  2  0  0  0  0
 16 17  1  0  0  0  0
 16 18  1  0  0  0  0
 18 19  1  0  0  0  0
 18 20  1  0  0  0  0
 20 21  1  0  0  0  0
 22 23  2  0  0  0  0
 22 24  1  0  0  0  0
 24 25  1  0  0  0  0
 24 26  1  0  0  0  0
 26 27  1  0  0  0  0
 26 28  1  0  0  0  0
 26 29  1  0  0  0  0
M  END
$$$$

  -OEChem-04042215593D

 29 29  0     1  0  0  0  0  0999 V2000
   -2.6937   -4.5240    1.2098 H   0  0  0  0  0  0  0  0  0  0  0  0
   -2.8702   -3.5411    0.7647 C   0  0  0  0  0  0  0  0  0  0  0  0
   -3.6750   -3.0442    1.3119 H   0  0  0  0  0  0  0  0  0  0  0  0
   -3.1743   -3.6737   -0.2764 H   0  0  0  0  0  0  0  0  0  0  0  0
   -1.6082   -2.7028    0.8308 C   0  0  0  0  0  0  0  0  0  0  0  0
   -0.5955   -3.1608    1.3383 O   0  0  0  0  0  0  0  0  0  0  0  0
   -1.6052   -1.4385    0.2868 N   0  0  0  0  0  0  0  0  0  0  0  0
   -2.4218   -1.1680   -0.2652 H   0  0  0  0  0  0  0  0  0  0  0  0
   -0.4158   -0.5990    0.1056 C   0  0  1  0  0  0  0  0  0  0  0  0
    0.3918   -0.9734    0.7428 H   0  0  0  0  0  0  0  0  0  0  0  0
    0.0841   -0.6378   -1.3624 C   0  0  0  0  0  0  0  0  0  0  0  0
    0.3514    0.3742   -1.6812 H   0  0  0  0  0  0  0  0  0  0  0  0
    0.9973   -1.2386   -1.3948 H   0  0  0  0  0  0  0  0  0  0  0  0
   -0.8854   -1.1979   -2.3777 C   0  0  0  0  0  0  0  0  0  0  0  0
   -2.2425   -0.8957   -2.4745 N   0  0  0  0  0  0  0  0  0  0  0  0
   -2.7127   -1.5833   -3.4870 C   0  0  0  0  0  0  0  0  0  0  0  0
   -3.7440   -1.5604   -3.8282 H   0  0  0  0  0  0  0  0  0  0  0  0
   -1.7048   -2.3438   -4.0471 N   0  0  0  0  0  0  0  0  0  0  0  0
   -1.8122   -2.9648   -4.8472 H   0  0  0  0  0  0  0  0  0  0  0  0
   -0.5431   -2.1029   -3.3446 C   0  0  0  0  0  0  0  0  0  0  0  0
    0.4418   -2.5288   -3.5117 H   0  0  0  0  0  0  0  0  0  0  0  0
   -0.6860    0.8519    0.5602 C   0  0  0  0  0  0  0  0  0  0  0  0
   -1.7186    1.4333    0.2501 O   0  0  0  0  0  0  0  0  0  0  0  0
    0.2484    1.5137    1.3377 N   0  0  0  0  0  0  0  0  0  0  0  0
    1.0535    0.9818    1.6550 H   0  0  0  0  0  0  0  0  0  0  0  0
    0.0486    2.8627    1.8528 C   0  0  0  0  0  0  0  0  0  0  0  0
   -0.8212    2.8941    2.5174 H   0  0  0  0  0  0  0  0  0  0  0  0
    0.9284    3.1861    2.4172 H   0  0  0  0  0  0  0  0  0  0  0  0
   -0.1108    3.5668    1.0293 H   0  0  0  0  0  0  0  0  0  0  0  0
  1  2  1  0  0  0  0
  2  3  1  0  0  0  0
  2  4  1  0  0  0  0
  2  5  1  0  0  0  0
  5  6  2  0  0  0  0
  5  7  1  0  0  0  0
  7  8  1  0  0  0  0
  7  9  1  0  0  0  0
  9 10  1  0  0  0  0
  9 11  1  0  0  0  0
  9 22  1  0  0  0  0
 11 12  1  0  0  0  0
 11 13  1  0  0  0  0
 11 14  1  0  0  0  0
 14 15  1  0  0  0  0
 14 20  2  0  0  0  0
 15 16  2  0  0  0  0
 16 17  1  0  0  0  0
 16 18  1  0  0  0  0
 18 19  1  0  0  0  0
 18 20  1  0  0  0  0
 20 21  1  0  0  0  0
 22 23  2  0  0  0  0
 22 24  1  0  0  0  0
 24 25  1  0  0  0  0
 24 26  1  0  0  0  0
 26 27  1  0  0  0  0
 26 28  1  0  0  0  0
 26 29  1  0  0  0  0
M  END
$$$$

  -OEChem-04042215593D

 29 29  0     1  0  0  0  0  0999 V2000
   -2.7133   -4.5065    1.2301 H   0  0  0  0  0  0  0  0  0  0  0  0
   -2.8867   -3.5199    0.7916 C   0  0  0  0  0  0  0  0  0  0  0  0
   -3.6525   -3.0035    1.3756 H   0  0  0  0  0  0  0  0  0  0  0  0
   -3.2434   -3.6461   -0.2335 H   0  0  0  0  0  0  0  0  0  0  0  0
   -1.6024   -2.7128    0.7945 C   0  0  0  0  0  0  0  0  0  0  0  0
   -0.5760   -3.1979    1.2455 O   0  0  0  0  0  0  0  0  0  0  0  0
   -1.5932   -1.4474    0.2524 N   0  0  0  0  0  0  0  0  0  0  0  0
   -2.4446   -1.1221   -0.2071 H   0  0  0  0  0  0  0  0  0  0  0  0
   -0.4038   -0.6027    0.0814 C   0  0  1  0  0  0  0  0  0  0  0  0
    0.3949   -0.9737    0.7315 H   0  0  0  0  0  0  0  0  0  0  0  0
    0.1213   -0.6452   -1.3755 C   0  0  0  0  0  0  0  0  0  0  0  0
    0.3926    0.3633   -1.7022 H   0  0  0  0  0  0  0  0  0  0  0  0
    1.0332   -1.2486   -1.3921 H   0  0  0  0  0  0  0  0  0  0  0  0
   -0.8451   -1.2188   -2.3802 C   0  0  0  0  0  0  0  0  0  0  0  0
   -2.1074   -0.7068   -2.6585 N   0  0  0  0  0  0  0  0  0  0  0  0
   -2.6234   -1.4655   -3.5949 C   0  0  0  0  0  0  0  0  0  0  0  0
   -3.6046   -1.3230   -4.0389 H   0  0  0  0  0  0  0  0  0  0  0  0
   -1.7370   -2.4722   -3.9271 N   0  0  0  0  0  0  0  0  0  0  0  0
   -1.8993   -3.1905   -4.6306 H   0  0  0  0  0  0  0  0  0  0  0  0
   -0.6035   -2.3176   -3.1574 C   0  0  0  0  0  0  0  0  0  0  0  0
    0.2965   -2.9253   -3.1556 H   0  0  0  0  0  0  0  0  0  0  0  0
   -0.6858    0.8462    0.5353 C   0  0  0  0  0  0  0  0  0  0  0  0
   -1.7427    1.4011    0.2606 O   0  0  0  0  0  0  0  0  0  0  0  0
    0.2372    1.5140    1.3215 N   0  0  0  0  0  0  0  0  0  0  0  0
    1.0634    0.9999    1.6131 H   0  0  0  0  0  0  0  0  0  0  0  0
    0.0144    2.8513    1.8575 C   0  0  0  0  0  0  0  0  0  0  0  0
   -0.8633    2.8609    2.5122 H   0  0  0  0  0  0  0  0  0  0  0  0
    0.8834    3.1752    2.4383 H   0  0  0  0  0  0  0  0  0  0  0  0
   -0.1441    3.5680    1.0449 H   0  0  0  0  0  0  0  0  0  0  0  0
  1  2  1  0  0  0  0
  2  3  1  0  0  0  0
  2  4  1  0  0  0  0
  2  5  1  0  0  0  0
  5  6  2  0  0  0  0
  5  7  1  0  0  0  0
  7  8  1  0  0  0  0
  7  9  1  0  0  0  0
  9 10  1  0  0  0  0
  9 11  1  0  0  0  0
  9 22  1  0  0  0  0
 11 12  1  0  0  0  0
 11 13  1  0  0  0  0
 11 14  1  0  0  0  0
 14 15  1  0  0  0  0
 14 20  2  0  0  0  0
 15 16  2  0  0  0  0
 16 17  1  0  0  0  0
 16 18  1  0  0  0  0
 18 19  1  0  0  0  0
 18 20  1  0  0  0  0
 20 21  1  0  0  0  0
 22 23  2  0  0  0  0
 22 24  1  0  0  0  0
 24 25  1  0  0  0  0
 24 26  1  0  0  0  0
 26 27  1  0  0  0  0
 26 28  1  0  0  0  0
 26 29  1  0  0  0  0
M  END
$$$$

  -OEChem-04042215593D

 29 29  0     1  0  0  0  0  0999 V2000
   -2.7355   -4.4778    1.3096 H   0  0  0  0  0  0  0  0  0  0  0  0
   -2.9074   -3.4921    0.8687 C   0  0  0  0  0  0  0  0  0  0  0  0
   -3.6137   -2.9433    1.4965 H   0  0  0  0  0  0  0  0  0  0  0  0
   -3.3385   -3.6207   -0.1272 H   0  0  0  0  0  0  0  0  0  0  0  0
   -1.6007   -2.7282    0.7704 C   0  0  0  0  0  0  0  0  0  0  0  0
   -0.5588   -3.2482    1.1394 O   0  0  0  0  0  0  0  0  0  0  0  0
   -1.5893   -1.4623    0.2292 N   0  0  0  0  0  0  0  0  0  0  0  0
   -2.4724   -1.0766   -0.1044 H   0  0  0  0  0  0  0  0  0  0  0  0
   -0.3991   -0.6168    0.0604 C   0  0  1  0  0  0  0  0  0  0  0  0
    0.3940   -0.9856    0.7184 H   0  0  0  0  0  0  0  0  0  0  0  0
    0.1440   -0.6560   -1.3879 C   0  0  0  0  0  0  0  0  0  0  0  0
    0.4275    0.3492   -1.7146 H   0  0  0  0  0  0  0  0  0  0  0  0
    1.0508   -1.2673   -1.3935 H   0  0  0  0  0  0  0  0  0  0  0  0
   -0.8143   -1.2316   -2.3945 C   0  0  0  0  0  0  0  0  0  0  0  0
   -1.9291   -0.5674   -2.8886 N   0  0  0  0  0  0  0  0  0  0  0  0
   -2.4924   -1.3747   -3.7541 C   0  0  0  0  0  0  0  0  0  0  0  0
   -3.3890   -1.1456   -4.3231 H   0  0  0  0  0  0  0  0  0  0  0  0
   -1.7774   -2.5551   -3.8333 N   0  0  0  0  0  0  0  0  0  0  0  0
   -2.0053   -3.3415   -4.4388 H   0  0  0  0  0  0  0  0  0  0  0  0
   -0.7044   -2.4662   -2.9718 C   0  0  0  0  0  0  0  0  0  0  0  0
    0.0683   -3.2043   -2.7767 H   0  0  0  0  0  0  0  0  0  0  0  0
   -0.6928    0.8287    0.5168 C   0  0  0  0  0  0  0  0  0  0  0  0
   -1.7747    1.3531    0.2806 O   0  0  0  0  0  0  0  0  0  0  0  0
    0.2212    1.5037    1.3070 N   0  0  0  0  0  0  0  0  0  0  0  0
    1.0735    1.0137    1.5623 H   0  0  0  0  0  0  0  0  0  0  0  0
   -0.0209    2.8319    1.8573 C   0  0  0  0  0  0  0  0  0  0  0  0
   -0.8761    2.8133    2.5410 H   0  0  0  0  0  0  0  0  0  0  0  0
    0.8576    3.1778    2.4106 H   0  0  0  0  0  0  0  0  0  0  0  0
   -0.2263    3.5482    1.0546 H   0  0  0  0  0  0  0  0  0  0  0  0
  1  2  1  0  0  0  0
  2  3  1  0  0  0  0
  2  4  1  0  0  0  0
  2  5  1  0  0  0  0
  5  6  2  0  0  0  0
  5  7  1  0  0  0  0
  7  8  1  0  0  0  0
  7  9  1  0  0  0  0
  9 10  1  0  0  0  0
  9 11  1  0  0  0  0
  9 22  1  0  0  0  0
 11 12  1  0  0  0  0
 11 13  1  0  0  0  0
 11 14  1  0  0  0  0
 14 15  1  0  0  0  0
 14 20  2  0  0  0  0
 15 16  2  0  0  0  0
 16 17  1  0  0  0  0
 16 18  1  0  0  0  0
 18 19  1  0  0  0  0
 18 20  1  0  0  0  0
 20 21  1  0  0  0  0
 22 23  2  0  0  0  0
 22 24  1  0  0  0  0
 24 25  1  0  0  0  0
 24 26  1  0  0  0  0
 26 27  1  0  0  0  0
 26 28  1  0  0  0  0
 26 29  1  0  0  0  0
M  END
$$$$

  -OEChem-04042215593D

 29 29  0     1  0  0  0  0  0999 V2000
   -2.7424   -4.4576    1.3967 H   0  0  0  0  0  0  0  0  0  0  0  0
   -2.9164   -3.4709    0.9583 C   0  0  0  0  0  0  0  0  0  0  0  0
   -3.5688   -2.8998    1.6234 H   0  0  0  0  0  0  0  0  0  0  0  0
   -3.4114   -3.5956   -0.0078 H   0  0  0  0  0  0  0  0  0  0  0  0
   -1.6002   -2.7405    0.7730 C   0  0  0  0  0  0  0  0  0  0  0  0
   -0.5498   -3.2846    1.0766 O   0  0  0  0  0  0  0  0  0  0  0  0
   -1.5918   -1.4764    0.2272 N   0  0  0  0  0  0  0  0  0  0  0  0
   -2.4887   -1.0515   -0.0060 H   0  0  0  0  0  0  0  0  0  0  0  0
   -0.4000   -0.6339    0.0518 C   0  0  1  0  0  0  0  0  0  0  0  0
    0.3934   -0.9996    0.7116 H   0  0  0  0  0  0  0  0  0  0  0  0
    0.1463   -0.6683   -1.3954 C   0  0  0  0  0  0  0  0  0  0  0  0
    0.4420    0.3347   -1.7182 H   0  0  0  0  0  0  0  0  0  0  0  0
    1.0470   -1.2885   -1.3993 H   0  0  0  0  0  0  0  0  0  0  0  0
   -0.8074   -1.2389   -2.4075 C   0  0  0  0  0  0  0  0  0  0  0  0
   -1.7327   -0.4895   -3.1204 N   0  0  0  0  0  0  0  0  0  0  0  0
   -2.3472   -1.3231   -3.9242 C   0  0  0  0  0  0  0  0  0  0  0  0
   -3.1343   -1.0461   -4.6198 H   0  0  0  0  0  0  0  0  0  0  0  0
   -1.8434   -2.6000   -3.7574 N   0  0  0  0  0  0  0  0  0  0  0  0
   -2.1448   -3.4239   -4.2742 H   0  0  0  0  0  0  0  0  0  0  0  0
   -0.8544   -2.5487   -2.7981 C   0  0  0  0  0  0  0  0  0  0  0  0
   -0.2371   -3.3575   -2.4166 H   0  0  0  0  0  0  0  0  0  0  0  0
   -0.7015    0.8097    0.5075 C   0  0  0  0  0  0  0  0  0  0  0  0
   -1.7966    1.3148    0.2889 O   0  0  0  0  0  0  0  0  0  0  0  0
    0.2081    1.4923    1.2960 N   0  0  0  0  0  0  0  0  0  0  0  0
    1.0787    1.0219    1.5258 H   0  0  0  0  0  0  0  0  0  0  0  0
   -0.0451    2.8166    1.8503 C   0  0  0  0  0  0  0  0  0  0  0  0
   -0.9237    2.7976    2.5036 H   0  0  0  0  0  0  0  0  0  0  0  0
    0.8153    3.1507    2.4382 H   0  0  0  0  0  0  0  0  0  0  0  0
   -0.2174    3.5413    1.0476 H   0  0  0  0  0  0  0  0  0  0  0  0
  1  2  1  0  0  0  0
  2  3  1  0  0  0  0
  2  4  1  0  0  0  0
  2  5  1  0  0  0  0
  5  6  2  0  0  0  0
  5  7  1  0  0  0  0
  7  8  1  0  0  0  0
  7  9  1  0  0  0  0
  9 10  1  0  0  0  0
  9 11  1  0  0  0  0
  9 22  1  0  0  0  0
 11 12  1  0  0  0  0
 11 13  1  0  0  0  0
 11 14  1  0  0  0  0
 14 15  1  0  0  0  0
 14 20  2  0  0  0  0
 15 16  2  0  0  0  0
 16 17  1  0  0  0  0
 16 18  1  0  0  0  0
 18 19  1  0  0  0  0
 18 20  1  0  0  0  0
 20 21  1  0  0  0  0
 22 23  2  0  0  0  0
 22 24  1  0  0  0  0
 24 25  1  0  0  0  0
 24 26  1  0  0  0  0
 26 27  1  0  0  0  0
 26 28  1  0  0  0  0
 26 29  1  0  0  0  0
M  END
$$$$

  -OEChem-04042215593D

 29 29  0     1  0  0  0  0  0999 V2000
   -2.7498   -4.4377    1.5085 H   0  0  0  0  0  0  0  0  0  0  0  0
   -2.9274   -3.4515    1.0704 C   0  0  0  0  0  0  0  0  0  0  0  0
   -3.5281   -2.8601    1.7656 H   0  0  0  0  0  0  0  0  0  0  0  0
   -3.4798   -3.5744    0.1357 H   0  0  0  0  0  0  0  0  0  0  0  0
   -1.6084   -2.7521    0.8033 C   0  0  0  0  0  0  0  0  0  0  0  0
   -0.5544   -3.3168    1.0504 O   0  0  0  0  0  0  0  0  0  0  0  0
   -1.6029   -1.4919    0.2483 N   0  0  0  0  0  0  0  0  0  0  0  0
   -2.5028   -1.0392    0.0920 H   0  0  0  0  0  0  0  0  0  0  0  0
   -0.4085   -0.6566    0.0556 C   0  0  1  0  0  0  0  0  0  0  0  0
    0.3895   -1.0205    0.7110 H   0  0  0  0  0  0  0  0  0  0  0  0
    0.1314   -0.6843   -1.3948 C   0  0  0  0  0  0  0  0  0  0  0  0
    0.4356    0.3190   -1.7093 H   0  0  0  0  0  0  0  0  0  0  0  0
    1.0282   -1.3100   -1.4050 H   0  0  0  0  0  0  0  0  0  0  0  0
   -0.8165   -1.2432   -2.4190 C   0  0  0  0  0  0  0  0  0  0  0  0
   -1.5162   -0.4668   -3.3325 N   0  0  0  0  0  0  0  0  0  0  0  0
   -2.1773   -1.2988   -4.1004 C   0  0  0  0  0  0  0  0  0  0  0  0
   -2.8280   -1.0024   -4.9182 H   0  0  0  0  0  0  0  0  0  0  0  0
   -1.9170   -2.6027   -3.7209 N   0  0  0  0  0  0  0  0  0  0  0  0
   -2.2910   -3.4336   -4.1752 H   0  0  0  0  0  0  0  0  0  0  0  0
   -1.0368   -2.5719   -2.6600 C   0  0  0  0  0  0  0  0  0  0  0  0
   -0.5950   -3.4046   -2.1190 H   0  0  0  0  0  0  0  0  0  0  0  0
   -0.7117    0.7874    0.5080 C   0  0  0  0  0  0  0  0  0  0  0  0
   -1.8160    1.2786    0.3024 O   0  0  0  0  0  0  0  0  0  0  0  0
    0.1986    1.4798    1.2867 N   0  0  0  0  0  0  0  0  0  0  0  0
    1.0794    1.0220    1.5032 H   0  0  0  0  0  0  0  0  0  0  0  0
   -0.0614    2.8056    1.8344 C   0  0  0  0  0  0  0  0  0  0  0  0
   -0.9212    2.7786    2.5120 H   0  0  0  0  0  0  0  0  0  0  0  0
    0.8092    3.1609    2.3940 H   0  0  0  0  0  0  0  0  0  0  0  0
   -0.2692    3.5184    1.0294 H   0  0  0  0  0  0  0  0  0  0  0  0
  1  2  1  0  0  0  0
  2  3  1  0  0  0  0
  2  4  1  0  0  0  0
  2  5  1  0  0  0  0
  5  6  2  0  0  0  0
  5  7  1  0  0  0  0
  7  8  1  0  0  0  0
  7  9  1  0  0  0  0
  9 10  1  0  0  0  0
  9 11  1  0  0  0  0
  9 22  1  0  0  0  0
 11 12  1  0  0  0  0
 11 13  1  0  0  0  0
 11 14  1  0  0  0  0
 14 15  1  0  0  0  0
 14 20  2  0  0  0  0
 15 16  2  0  0  0  0
 16 17  1  0  0  0  0
 16 18  1  0  0  0  0
 18 19  1  0  0  0  0
 18 20  1  0  0  0  0
 20 21  1  0  0  0  0
 22 23  2  0  0  0  0
 22 24  1  0  0  0  0
 24 25  1  0  0  0  0
 24 26  1  0  0  0  0
 26 27  1  0  0  0  0
 26 28  1  0  0  0  0
 26 29  1  0  0  0  0
M  END
$$$$

  -OEChem-04042215593D

 29 29  0     1  0  0  0  0  0999 V2000
   -2.7552   -4.4265    1.6042 H   0  0  0  0  0  0  0  0  0  0  0  0
   -2.9359   -3.4371    1.1746 C   0  0  0  0  0  0  0  0  0  0  0  0
   -3.5003   -2.8385    1.8937 H   0  0  0  0  0  0  0  0  0  0  0  0
   -3.5265   -3.5504    0.2623 H   0  0  0  0  0  0  0  0  0  0  0  0
   -1.6186   -2.7561    0.8563 C   0  0  0  0  0  0  0  0  0  0  0  0
   -0.5635   -3.3321    1.0681 O   0  0  0  0  0  0  0  0  0  0  0  0
   -1.6183   -1.5012    0.2894 N   0  0  0  0  0  0  0  0  0  0  0  0
   -2.5184   -1.0360    0.1762 H   0  0  0  0  0  0  0  0  0  0  0  0
   -0.4240   -0.6730    0.0656 C   0  0  1  0  0  0  0  0  0  0  0  0
    0.3843   -1.0342    0.7098 H   0  0  0  0  0  0  0  0  0  0  0  0
    0.0987   -0.6933   -1.3932 C   0  0  0  0  0  0  0  0  0  0  0  0
    0.4029    0.3128   -1.6987 H   0  0  0  0  0  0  0  0  0  0  0  0
    0.9959   -1.3182   -1.4168 H   0  0  0  0  0  0  0  0  0  0  0  0
   -0.8443   -1.2406   -2.4297 C   0  0  0  0  0  0  0  0  0  0  0  0
   -1.2996   -0.4987   -3.5118 N   0  0  0  0  0  0  0  0  0  0  0  0
   -2.0056   -1.3146   -4.2565 C   0  0  0  0  0  0  0  0  0  0  0  0
   -2.5067   -1.0346   -5.1788 H   0  0  0  0  0  0  0  0  0  0  0  0
   -2.0052   -2.5809   -3.7025 N   0  0  0  0  0  0  0  0  0  0  0  0
   -2.4531   -3.4005   -4.1078 H   0  0  0  0  0  0  0  0  0  0  0  0
   -1.2440   -2.5439   -2.5537 C   0  0  0  0  0  0  0  0  0  0  0  0
   -0.9821   -3.3613   -1.8870 H   0  0  0  0  0  0  0  0  0  0  0  0
   -0.7238    0.7731    0.5139 C   0  0  0  0  0  0  0  0  0  0  0  0
   -1.8350    1.2564    0.3259 O   0  0  0  0  0  0  0  0  0  0  0  0
    0.1973    1.4741    1.2715 N   0  0  0  0  0  0  0  0  0  0  0  0
    1.0865    1.0240    1.4687 H   0  0  0  0  0  0  0  0  0  0  0  0
   -0.0598    2.7998    1.8205 C   0  0  0  0  0  0  0  0  0  0  0  0
   -0.9032    2.7685    2.5183 H   0  0  0  0  0  0  0  0  0  0  0  0
    0.8207    3.1638    2.3585 H   0  0  0  0  0  0  0  0  0  0  0  0
   -0.2916    3.5082    1.0181 H   0  0  0  0  0  0  0  0  0  0  0  0
  1  2  1  0  0  0  0
  2  3  1  0  0  0  0
  2  4  1  0  0  0  0
  2  5  1  0  0  0  0
  5  6  2  0  0  0  0
  5  7  1  0  0  0  0
  7  8  1  0  0  0  0
  7  9  1  0  0  0  0
  9 10  1  0  0  0  0
  9 11  1  0  0  0  0
  9 22  1  0  0  0  0
 11 12  1  0  0  0  0
 11 13  1  0  0  0  0
 11 14  1  0  0  0  0
 14 15  1  0  0  0  0
 14 20  2  0  0  0  0
 15 16  2  0  0  0  0
 16 17  1  0  0  0  0
 16 18  1  0  0  0  0
 18 19  1  0  0  0  0
 18 20  1  0  0  0  0
 20 21  1  0  0  0  0
 22 23  2  0  0  0  0
 22 24  1  0  0  0  0
 24 25  1  0  0  0  0
 24 26  1  0  0  0  0
 26 27  1  0  0  0  0
 26 28  1  0  0  0  0
 26 29  1  0  0  0  0
M  END
$$$$

  -OEChem-04042215593D

 29 29  0     1  0  0  0  0  0999 V2000
   -2.7390   -4.4215    1.7415 H   0  0  0  0  0  0  0  0  0  0  0  0
   -2.9294   -3.4340    1.3118 C   0  0  0  0  0  0  0  0  0  0  0  0
   -3.4547   -2.8239    2.0508 H   0  0  0  0  0  0  0  0  0  0  0  0
   -3.5623   -3.5491    0.4285 H   0  0  0  0  0  0  0  0  0  0  0  0
   -1.6209   -2.7695    0.9285 C   0  0  0  0  0  0  0  0  0  0  0  0
   -0.5632   -3.3504    1.1091 O   0  0  0  0  0  0  0  0  0  0  0  0
   -1.6328   -1.5223    0.3437 N   0  0  0  0  0  0  0  0  0  0  0  0
   -2.5319   -1.0463    0.2729 H   0  0  0  0  0  0  0  0  0  0  0  0
   -0.4410   -0.7018    0.0823 C   0  0  1  0  0  0  0  0  0  0  0  0
    0.3808   -1.0561    0.7136 H   0  0  0  0  0  0  0  0  0  0  0  0
    0.0608   -0.7079   -1.3867 C   0  0  0  0  0  0  0  0  0  0  0  0
    0.3627    0.3043   -1.6746 H   0  0  0  0  0  0  0  0  0  0  0  0
    0.9611   -1.3272   -1.4265 H   0  0  0  0  0  0  0  0  0  0  0  0
   -0.8676   -1.2348   -2.4505 C   0  0  0  0  0  0  0  0  0  0  0  0
   -1.0497   -0.5670   -3.6558 N   0  0  0  0  0  0  0  0  0  0  0  0
   -1.8121   -1.3282   -4.4023 C   0  0  0  0  0  0  0  0  0  0  0  0
   -2.1444   -1.0795   -5.4062 H   0  0  0  0  0  0  0  0  0  0  0  0
   -2.1134   -2.4962   -3.7297 N   0  0  0  0  0  0  0  0  0  0  0  0
   -2.6561   -3.2697   -4.1085 H   0  0  0  0  0  0  0  0  0  0  0  0
   -1.4881   -2.4548   -2.5021 C   0  0  0  0  0  0  0  0  0  0  0  0
   -1.4473   -3.2307   -1.7444 H   0  0  0  0  0  0  0  0  0  0  0  0
   -0.7406    0.7471    0.5227 C   0  0  0  0  0  0  0  0  0  0  0  0
   -1.8565    1.2238    0.3442 O   0  0  0  0  0  0  0  0  0  0  0  0
    0.1903    1.4616    1.2548 N   0  0  0  0  0  0  0  0  0  0  0  0
    1.0880    1.0213    1.4360 H   0  0  0  0  0  0  0  0  0  0  0  0
   -0.0612    2.7960    1.7852 C   0  0  0  0  0  0  0  0  0  0  0  0
   -0.8924    2.7743    2.4978 H   0  0  0  0  0  0  0  0  0  0  0  0
    0.8272    3.1718    2.3017 H   0  0  0  0  0  0  0  0  0  0  0  0
   -0.3088    3.4898    0.9750 H   0  0  0  0  0  0  0  0  0  0  0  0
  1  2  1  0  0  0  0
  2  3  1  0  0  0  0
  2  4  1  0  0  0  0
  2  5  1  0  0  0  0
  5  6  2  0  0  0  0
  5  7  1  0  0  0  0
  7  8  1  0  0  0  0
  7  9  1  0  0  0  0
  9 10  1  0  0  0  0
  9 11  1  0  0  0  0
  9 22  1  0  0  0  0
 11 12  1  0  0  0  0
 11 13  1  0  0  0  0
 11 14  1  0  0  0  0
 14 15  1  0  0  0  0
 14 20  2  0  0  0  0
 15 16  2  0  0  0  0
 16 17  1  0  0  0  0
 16 18  1  0  0  0  0
 18 19  1  0  0  0  0
 18 20  1  0  0  0  0
 20 21  1  0  0  0  0
 22 23  2  0  0  0  0
 22 24  1  0  0  0  0
 24 25  1  0  0  0  0
 24 26  1  0  0  0  0
 26 27  1  0  0  0  0
 26 28  1  0  0  0  0
 26 29  1  0  0  0  0
M  END
$$$$

  -OEChem-04042215593D

 29 29  0     1  0  0  0  0  0999 V2000
   -2.6888   -4.4343    1.8720 H   0  0  0  0  0  0  0  0  0  0  0  0
   -2.8965   -3.4517    1.4392 C   0  0  0  0  0  0  0  0  0  0  0  0
   -3.3977   -2.8357    2.1897 H   0  0  0  0  0  0  0  0  0  0  0  0
   -3.5593   -3.5781    0.5801 H   0  0  0  0  0  0  0  0  0  0  0  0
   -1.6034   -2.7879    1.0048 C   0  0  0  0  0  0  0  0  0  0  0  0
   -0.5379   -3.3560    1.1777 O   0  0  0  0  0  0  0  0  0  0  0  0
   -1.6389   -1.5490    0.4010 N   0  0  0  0  0  0  0  0  0  0  0  0
   -2.5379   -1.0689    0.3653 H   0  0  0  0  0  0  0  0  0  0  0  0
   -0.4548   -0.7322    0.1011 C   0  0  1  0  0  0  0  0  0  0  0  0
    0.3807   -1.0739    0.7209 H   0  0  0  0  0  0  0  0  0  0  0  0
    0.0279   -0.7367   -1.3769 C   0  0  0  0  0  0  0  0  0  0  0  0
    0.3214    0.2807   -1.6551 H   0  0  0  0  0  0  0  0  0  0  0  0
    0.9360   -1.3443   -1.4223 H   0  0  0  0  0  0  0  0  0  0  0  0
   -0.8744   -1.2545   -2.4725 C   0  0  0  0  0  0  0  0  0  0  0  0
   -0.7665   -0.7231   -3.7535 N   0  0  0  0  0  0  0  0  0  0  0  0
   -1.6082   -1.3758   -4.5165 C   0  0  0  0  0  0  0  0  0  0  0  0
   -1.7621   -1.1875   -5.5751 H   0  0  0  0  0  0  0  0  0  0  0  0
   -2.2579   -2.3420   -3.7760 N   0  0  0  0  0  0  0  0  0  0  0  0
   -2.9406   -3.0026   -4.1420 H   0  0  0  0  0  0  0  0  0  0  0  0
   -1.7806   -2.2836   -2.4841 C   0  0  0  0  0  0  0  0  0  0  0  0
   -2.0361   -2.9377   -1.6597 H   0  0  0  0  0  0  0  0  0  0  0  0
   -0.7560    0.7201    0.5305 C   0  0  0  0  0  0  0  0  0  0  0  0
   -1.8760    1.1894    0.3571 O   0  0  0  0  0  0  0  0  0  0  0  0
    0.1836    1.4515    1.2344 N   0  0  0  0  0  0  0  0  0  0  0  0
    1.0868    1.0187    1.4060 H   0  0  0  0  0  0  0  0  0  0  0  0
   -0.0600    2.7979    1.7372 C   0  0  0  0  0  0  0  0  0  0  0  0
   -0.8939    2.7973    2.4469 H   0  0  0  0  0  0  0  0  0  0  0  0
    0.8299    3.1760    2.2497 H   0  0  0  0  0  0  0  0  0  0  0  0
   -0.2990    3.4778    0.9127 H   0  0  0  0  0  0  0  0  0  0  0  0
  1  2  1  0  0  0  0
  2  3  1  0  0  0  0
  2  4  1  0  0  0  0
  2  5  1  0  0  0  0
  5  6  2  0  0  0  0
  5  7  1  0  0  0  0
  7  8  1  0  0  0  0
  7  9  1  0  0  0  0
  9 10  1  0  0  0  0
  9 11  1  0  0  0  0
  9 22  1  0  0  0  0
 11 12  1  0  0  0  0
 11 13  1  0  0  0  0
 11 14  1  0  0  0  0
 14 15  1  0  0  0  0
 14 20  2  0  0  0  0
 15 16  2  0  0  0  0
 16 17  1  0  0  0  0
 16 18  1  0  0  0  0
 18 19  1  0  0  0  0
 18 20  1  0  0  0  0
 20 21  1  0  0  0  0
 22 23  2  0  0  0  0
 22 24  1  0  0  0  0
 24 25  1  0  0  0  0
 24 26  1  0  0  0  0
 26 27  1  0  0  0  0
 26 28  1  0  0  0  0
 26 29  1  0  0  0  0
M  END
$$$$

  -OEChem-04042215593D

 29 29  0     1  0  0  0  0  0999 V2000
   -2.6328   -4.4265    1.9829 H   0  0  0  0  0  0  0  0  0  0  0  0
   -2.8601   -3.4711    1.5017 C   0  0  0  0  0  0  0  0  0  0  0  0
   -3.3772   -2.8304    2.2202 H   0  0  0  0  0  0  0  0  0  0  0  0
   -3.5166   -3.6539    0.6478 H   0  0  0  0  0  0  0  0  0  0  0  0
   -1.5796   -2.8024    1.0385 C   0  0  0  0  0  0  0  0  0  0  0  0
   -0.5070   -3.3601    1.2014 O   0  0  0  0  0  0  0  0  0  0  0  0
   -1.6353   -1.5636    0.4353 N   0  0  0  0  0  0  0  0  0  0  0  0
   -2.5330   -1.0801    0.4415 H   0  0  0  0  0  0  0  0  0  0  0  0
   -0.4615   -0.7447    0.1074 C   0  0  1  0  0  0  0  0  0  0  0  0
    0.3879   -1.0825    0.7107 H   0  0  0  0  0  0  0  0  0  0  0  0
   -0.0062   -0.7518   -1.3790 C   0  0  0  0  0  0  0  0  0  0  0  0
    0.2831    0.2659   -1.6596 H   0  0  0  0  0  0  0  0  0  0  0  0
    0.9025   -1.3581   -1.4309 H   0  0  0  0  0  0  0  0  0  0  0  0
   -0.9040   -1.2693   -2.4814 C   0  0  0  0  0  0  0  0  0  0  0  0
   -0.5680   -0.9557   -3.7949 N   0  0  0  0  0  0  0  0  0  0  0  0
   -1.4721   -1.4999   -4.5710 C   0  0  0  0  0  0  0  0  0  0  0  0
   -1.4848   -1.4312   -5.6551 H   0  0  0  0  0  0  0  0  0  0  0  0
   -2.4004   -2.1720   -3.8039 N   0  0  0  0  0  0  0  0  0  0  0  0
   -3.2021   -2.6836   -4.1669 H   0  0  0  0  0  0  0  0  0  0  0  0
   -2.0452   -2.0324   -2.4791 C   0  0  0  0  0  0  0  0  0  0  0  0
   -2.5585   -2.4520   -1.6242 H   0  0  0  0  0  0  0  0  0  0  0  0
   -0.7572    0.7064    0.5433 C   0  0  0  0  0  0  0  0  0  0  0  0
   -1.8821    1.1719    0.3913 O   0  0  0  0  0  0  0  0  0  0  0  0
    0.1951    1.4422    1.2248 N   0  0  0  0  0  0  0  0  0  0  0  0
    1.1039    1.0131    1.3762 H   0  0  0  0  0  0  0  0  0  0  0  0
   -0.0412    2.7902    1.7268 C   0  0  0  0  0  0  0  0  0  0  0  0
   -0.8580    2.7900    2.4561 H   0  0  0  0  0  0  0  0  0  0  0  0
    0.8590    3.1742    2.2162 H   0  0  0  0  0  0  0  0  0  0  0  0
   -0.3020    3.4651    0.9047 H   0  0  0  0  0  0  0  0  0  0  0  0
  1  2  1  0  0  0  0
  2  3  1  0  0  0  0
  2  4  1  0  0  0  0
  2  5  1  0  0  0  0
  5  6  2  0  0  0  0
  5  7  1  0  0  0  0
  7  8  1  0  0  0  0
  7  9  1  0  0  0  0
  9 10  1  0  0  0  0
  9 11  1  0  0  0  0
  9 22  1  0  0  0  0
 11 12  1  0  0  0  0
 11 13  1  0  0  0  0
 11 14  1  0  0  0  0
 14 15  1  0  0  0  0
 14 20  2  0  0  0  0
 15 16  2  0  0  0  0
 16 17  1  0  0  0  0
 16 18  1  0  0  0  0
 18 19  1  0  0  0  0
 18 20  1  0  0  0  0
 20 21  1  0  0  0  0
 22 23  2  0  0  0  0
 22 24  1  0  0  0  0
 24 25  1  0  0  0  0
 24 26  1  0  0  0  0
 26 27  1  0  0  0  0
 26 28  1  0  0  0  0
 26 29  1  0  0  0  0
M  END
$$$$

  -OEChem-04042215593D

 29 29  0     1  0  0  0  0  0999 V2000
   -2.5670   -4.5143    1.8043 H   0  0  0  0  0  0  0  0  0  0  0  0
   -2.8024   -3.5444    1.3572 C   0  0  0  0  0  0  0  0  0  0  0  0
   -3.3403   -2.9398    2.0914 H   0  0  0  0  0  0  0  0  0  0  0  0
   -3.4425   -3.7044    0.4863 H   0  0  0  0  0  0  0  0  0  0  0  0
   -1.5265   -2.8391    0.9376 C   0  0  0  0  0  0  0  0  0  0  0  0
   -0.4450   -3.3734    1.1222 O   0  0  0  0  0  0  0  0  0  0  0  0
   -1.5960   -1.5884    0.3616 N   0  0  0  0  0  0  0  0  0  0  0  0
   -2.4979   -1.1170    0.3921 H   0  0  0  0  0  0  0  0  0  0  0  0
   -0.4271   -0.7448    0.0738 C   0  0  1  0  0  0  0  0  0  0  0  0
    0.4284   -1.0842    0.6673 H   0  0  0  0  0  0  0  0  0  0  0  0
    0.0039   -0.7290   -1.4136 C   0  0  0  0  0  0  0  0  0  0  0  0
    0.5498    0.1961   -1.6219 H   0  0  0  0  0  0  0  0  0  0  0  0
    0.7138   -1.5516   -1.5414 H   0  0  0  0  0  0  0  0  0  0  0  0
   -1.0298   -0.9117   -2.5003 C   0  0  0  0  0  0  0  0  0  0  0  0
   -0.6215   -0.8979   -3.8298 N   0  0  0  0  0  0  0  0  0  0  0  0
   -1.7008   -0.9829   -4.5678 C   0  0  0  0  0  0  0  0  0  0  0  0
   -1.7115   -1.0000   -5.6538 H   0  0  0  0  0  0  0  0  0  0  0  0
   -2.8177   -1.0339   -3.7594 N   0  0  0  0  0  0  0  0  0  0  0  0
   -3.7806   -1.0607   -4.0890 H   0  0  0  0  0  0  0  0  0  0  0  0
   -2.3999   -0.9620   -2.4478 C   0  0  0  0  0  0  0  0  0  0  0  0
   -3.0245   -0.9055   -1.5647 H   0  0  0  0  0  0  0  0  0  0  0  0
   -0.7456    0.6928    0.5336 C   0  0  0  0  0  0  0  0  0  0  0  0
   -1.8738    1.1466    0.3660 O   0  0  0  0  0  0  0  0  0  0  0  0
    0.1838    1.4270    1.2474 N   0  0  0  0  0  0  0  0  0  0  0  0
    1.0921    1.0028    1.4159 H   0  0  0  0  0  0  0  0  0  0  0  0
   -0.0820    2.7580    1.7790 C   0  0  0  0  0  0  0  0  0  0  0  0
   -0.9034    2.7251    2.5024 H   0  0  0  0  0  0  0  0  0  0  0  0
    0.8077    3.1470    2.2833 H   0  0  0  0  0  0  0  0  0  0  0  0
   -0.3501    3.4473    0.9714 H   0  0  0  0  0  0  0  0  0  0  0  0
  1  2  1  0  0  0  0
  2  3  1  0  0  0  0
  2  4  1  0  0  0  0
  2  5  1  0  0  0  0
  5  6  2  0  0  0  0
  5  7  1  0  0  0  0
  7  8  1  0  0  0  0
  7  9  1  0  0  0  0
  9 10  1  0  0  0  0
  9 11  1  0  0  0  0
  9 22  1  0  0  0  0
 11 12  1  0  0  0  0
 11 13  1  0  0  0  0
 11 14  1  0  0  0  0
 14 15  1  0  0  0  0
 14 20  2  0  0  0  0
 15 16  2  0  0  0  0
 16 17  1  0  0  0  0
 16 18  1  0  0  0  0
 18 19  1  0  0  0  0
 18 20  1  0  0  0  0
 20 21  1  0  0  0  0
 22 23  2  0  0  0  0
 22 24  1  0  0  0  0
 24 25  1  0  0  0  0
 24 26  1  0  0  0  0
 26 27  1  0  0  0  0
 26 28  1  0  0  0  0
 26 29  1  0  0  0  0
M  END
$$$$

  -OEChem-04042215593D

 29 29  0     1  0  0  0  0  0999 V2000
   -2.5954   -4.5284    1.6966 H   0  0  0  0  0  0  0  0  0  0  0  0
   -2.8211   -3.5629    1.2352 C   0  0  0  0  0  0  0  0  0  0  0  0
   -3.4244   -2.9734    1.9297 H   0  0  0  0  0  0  0  0  0  0  0  0
   -3.3928   -3.7348    0.3201 H   0  0  0  0  0  0  0  0  0  0  0  0
   -1.5355   -2.8270    0.9088 C   0  0  0  0  0  0  0  0  0  0  0  0
   -0.4578   -3.3399    1.1632 O   0  0  0  0  0  0  0  0  0  0  0  0
   -1.5925   -1.5711    0.3430 N   0  0  0  0  0  0  0  0  0  0  0  0
   -2.5071   -1.1304    0.2807 H   0  0  0  0  0  0  0  0  0  0  0  0
   -0.4197   -0.7218    0.0843 C   0  0  1  0  0  0  0  0  0  0  0  0
    0.4291   -1.0678    0.6834 H   0  0  0  0  0  0  0  0  0  0  0  0
    0.0181   -0.7098   -1.4004 C   0  0  0  0  0  0  0  0  0  0  0  0
    0.5696    0.2090   -1.6202 H   0  0  0  0  0  0  0  0  0  0  0  0
    0.7204   -1.5398   -1.5245 H   0  0  0  0  0  0  0  0  0  0  0  0
   -1.0355   -0.8975   -2.4645 C   0  0  0  0  0  0  0  0  0  0  0  0
   -0.6743   -1.2068   -3.7709 N   0  0  0  0  0  0  0  0  0  0  0  0
   -1.7754   -1.2119   -4.4818 C   0  0  0  0  0  0  0  0  0  0  0  0
   -1.8267   -1.4236   -5.5461 H   0  0  0  0  0  0  0  0  0  0  0  0
   -2.8537   -0.8941   -3.6806 N   0  0  0  0  0  0  0  0  0  0  0  0
   -3.8131   -0.7850   -4.0032 H   0  0  0  0  0  0  0  0  0  0  0  0
   -2.3856   -0.6665   -2.4043 C   0  0  0  0  0  0  0  0  0  0  0  0
   -2.9478   -0.3207   -1.5431 H   0  0  0  0  0  0  0  0  0  0  0  0
   -0.7339    0.7159    0.5460 C   0  0  0  0  0  0  0  0  0  0  0  0
   -1.8452    1.1937    0.3382 O   0  0  0  0  0  0  0  0  0  0  0  0
    0.1919    1.4361    1.2782 N   0  0  0  0  0  0  0  0  0  0  0  0
    1.0835    0.9909    1.4788 H   0  0  0  0  0  0  0  0  0  0  0  0
   -0.0584    2.7772    1.7918 C   0  0  0  0  0  0  0  0  0  0  0  0
   -0.9302    2.7787    2.4543 H   0  0  0  0  0  0  0  0  0  0  0  0
    0.8069    3.1318    2.3599 H   0  0  0  0  0  0  0  0  0  0  0  0
   -0.2405    3.4744    0.9674 H   0  0  0  0  0  0  0  0  0  0  0  0
  1  2  1  0  0  0  0
  2  3  1  0  0  0  0
  2  4  1  0  0  0  0
  2  5  1  0  0  0  0
  5  6  2  0  0  0  0
  5  7  1  0  0  0  0
  7  8  1  0  0  0  0
  7  9  1  0  0  0  0
  9 10  1  0  0  0  0
  9 11  1  0  0  0  0
  9 22  1  0  0  0  0
 11 12  1  0  0  0  0
 11 13  1  0  0  0  0
 11 14  1  0  0  0  0
 14 15  1  0  0  0  0
 14 20  2  0  0  0  0
 15 16  2  0  0  0  0
 16 17  1  0  0  0  0
 16 18  1  0  0  0  0
 18 19  1  0  0  0  0
 18 20  1  0  0  0  0
 20 21  1  0  0  0  0
 22 23  2  0  0  0  0
 22 24  1  0  0  0  0
 24 25  1  0  0  0  0
 24 26  1  0  0  0  0
 26 27  1  0  0  0  0
 26 28  1  0  0  0  0
 26 29  1  0  0  0  0
M  END
$$$$

  -OEChem-04042215593D

 29 29  0     1  0  0  0  0  0999 V2000
   -2.6375   -4.5273    1.5413 H   0  0  0  0  0  0  0  0  0  0  0  0
   -2.8492   -3.5560    1.0855 C   0  0  0  0  0  0  0  0  0  0  0  0
   -3.5160   -2.9949    1.7444 H   0  0  0  0  0  0  0  0  0  0  0  0
   -3.3459   -3.7190    0.1261 H   0  0  0  0  0  0  0  0  0  0  0  0
   -1.5593   -2.7859    0.8755 C   0  0  0  0  0  0  0  0  0  0  0  0
   -0.4943   -3.2781    1.2116 O   0  0  0  0  0  0  0  0  0  0  0  0
   -1.5986   -1.5231    0.3238 N   0  0  0  0  0  0  0  0  0  0  0  0
   -2.5134   -1.1211    0.1349 H   0  0  0  0  0  0  0  0  0  0  0  0
   -0.4206   -0.6727    0.0917 C   0  0  1  0  0  0  0  0  0  0  0  0
    0.4182   -1.0311    0.6975 H   0  0  0  0  0  0  0  0  0  0  0  0
    0.0282   -0.6775   -1.3889 C   0  0  0  0  0  0  0  0  0  0  0  0
    0.5801    0.2381   -1.6210 H   0  0  0  0  0  0  0  0  0  0  0  0
    0.7284   -1.5105   -1.5029 H   0  0  0  0  0  0  0  0  0  0  0  0
   -1.0394   -0.8778   -2.4358 C   0  0  0  0  0  0  0  0  0  0  0  0
   -0.7625   -1.4946   -3.6499 N   0  0  0  0  0  0  0  0  0  0  0  0
   -1.8669   -1.4600   -4.3549 C   0  0  0  0  0  0  0  0  0  0  0  0
   -1.9758   -1.8646   -5.3570 H   0  0  0  0  0  0  0  0  0  0  0  0
   -2.8633   -0.8258   -3.6392 N   0  0  0  0  0  0  0  0  0  0  0  0
   -3.8032   -0.6353   -3.9815 H   0  0  0  0  0  0  0  0  0  0  0  0
   -2.3376   -0.4383   -2.4254 C   0  0  0  0  0  0  0  0  0  0  0  0
   -2.8250    0.1307   -1.6392 H   0  0  0  0  0  0  0  0  0  0  0  0
   -0.7129    0.7689    0.5577 C   0  0  0  0  0  0  0  0  0  0  0  0
   -1.8045    1.2801    0.3284 O   0  0  0  0  0  0  0  0  0  0  0  0
    0.2201    1.4662    1.3031 N   0  0  0  0  0  0  0  0  0  0  0  0
    1.0864    0.9888    1.5375 H   0  0  0  0  0  0  0  0  0  0  0  0
   -0.0131    2.8028    1.8362 C   0  0  0  0  0  0  0  0  0  0  0  0
   -0.8531    2.7944    2.5386 H   0  0  0  0  0  0  0  0  0  0  0  0
    0.8764    3.1586    2.3648 H   0  0  0  0  0  0  0  0  0  0  0  0
   -0.2367    3.5051    1.0263 H   0  0  0  0  0  0  0  0  0  0  0  0
  1  2  1  0  0  0  0
  2  3  1  0  0  0  0
  2  4  1  0  0  0  0
  2  5  1  0  0  0  0
  5  6  2  0  0  0  0
  5  7  1  0  0  0  0
  7  8  1  0  0  0  0
  7  9  1  0  0  0  0
  9 10  1  0  0  0  0
  9 11  1  0  0  0  0
  9 22  1  0  0  0  0
 11 12  1  0  0  0  0
 11 13  1  0  0  0  0
 11 14  1  0  0  0  0
 14 15  1  0  0  0  0
 14 20  2  0  0  0  0
 15 16  2  0  0  0  0
 16 17  1  0  0  0  0
 16 18  1  0  0  0  0
 18 19  1  0  0  0  0
 18 20  1  0  0  0  0
 20 21  1  0  0  0  0
 22 23  2  0  0  0  0
 22 24  1  0  0  0  0
 24 25  1  0  0  0  0
 24 26  1  0  0  0  0
 26 27  1  0  0  0  0
 26 28  1  0  0  0  0
 26 29  1  0  0  0  0
M  END
$$$$

  -OEChem-04042215593D

 29 29  0     1  0  0  0  0  0999 V2000
   -2.6636   -4.5302    1.3994 H   0  0  0  0  0  0  0  0  0  0  0  0
   -2.8622   -3.5549    0.9463 C   0  0  0  0  0  0  0  0  0  0  0  0
   -3.5914   -3.0222    1.5613 H   0  0  0  0  0  0  0  0  0  0  0  0
   -3.2788   -3.7093   -0.0521 H   0  0  0  0  0  0  0  0  0  0  0  0
   -1.5786   -2.7521    0.8510 C   0  0  0  0  0  0  0  0  0  0  0  0
   -0.5322   -3.2238    1.2664 O   0  0  0  0  0  0  0  0  0  0  0  0
   -1.6046   -1.4854    0.3074 N   0  0  0  0  0  0  0  0  0  0  0  0
   -2.5038   -1.1243   -0.0014 H   0  0  0  0  0  0  0  0  0  0  0  0
   -0.4214   -0.6361    0.1000 C   0  0  1  0  0  0  0  0  0  0  0  0
    0.4070   -1.0032    0.7148 H   0  0  0  0  0  0  0  0  0  0  0  0
    0.0423   -0.6569   -1.3752 C   0  0  0  0  0  0  0  0  0  0  0  0
    0.5881    0.2600   -1.6151 H   0  0  0  0  0  0  0  0  0  0  0  0
    0.7467   -1.4877   -1.4817 H   0  0  0  0  0  0  0  0  0  0  0  0
   -1.0371   -0.8675   -2.4062 C   0  0  0  0  0  0  0  0  0  0  0  0
   -0.8900   -1.7478   -3.4710 N   0  0  0  0  0  0  0  0  0  0  0  0
   -1.9850   -1.6631   -4.1866 C   0  0  0  0  0  0  0  0  0  0  0  0
   -2.1790   -2.2290   -5.0934 H   0  0  0  0  0  0  0  0  0  0  0  0
   -2.8483   -0.7456   -3.6198 N   0  0  0  0  0  0  0  0  0  0  0  0
   -3.7538   -0.4763   -4.0001 H   0  0  0  0  0  0  0  0  0  0  0  0
   -2.2451   -0.2279   -2.4939 C   0  0  0  0  0  0  0  0  0  0  0  0
   -2.6251    0.5416   -1.8275 H   0  0  0  0  0  0  0  0  0  0  0  0
   -0.6989    0.8087    0.5655 C   0  0  0  0  0  0  0  0  0  0  0  0
   -1.7693    1.3495    0.3083 O   0  0  0  0  0  0  0  0  0  0  0  0
    0.2370    1.4874    1.3244 N   0  0  0  0  0  0  0  0  0  0  0  0
    1.0835    0.9875    1.5828 H   0  0  0  0  0  0  0  0  0  0  0  0
    0.0223    2.8284    1.8539 C   0  0  0  0  0  0  0  0  0  0  0  0
   -0.8360    2.8397    2.5338 H   0  0  0  0  0  0  0  0  0  0  0  0
    0.9059    3.1616    2.4065 H   0  0  0  0  0  0  0  0  0  0  0  0
   -0.1628    3.5372    1.0399 H   0  0  0  0  0  0  0  0  0  0  0  0
  1  2  1  0  0  0  0
  2  3  1  0  0  0  0
  2  4  1  0  0  0  0
  2  5  1  0  0  0  0
  5  6  2  0  0  0  0
  5  7  1  0  0  0  0
  7  8  1  0  0  0  0
  7  9  1  0  0  0  0
  9 10  1  0  0  0  0
  9 11  1  0  0  0  0
  9 22  1  0  0  0  0
 11 12  1  0  0  0  0
 11 13  1  0  0  0  0
 11 14  1  0  0  0  0
 14 15  1  0  0  0  0
 14 20  2  0  0  0  0
 15 16  2  0  0  0  0
 16 17  1  0  0  0  0
 16 18  1  0  0  0  0
 18 19  1  0  0  0  0
 18 20  1  0  0  0  0
 20 21  1  0  0  0  0
 22 23  2  0  0  0  0
 22 24  1  0  0  0  0
 24 25  1  0  0  0  0
 24 26  1  0  0  0  0
 26 27  1  0  0  0  0
 26 28  1  0  0  0  0
 26 29  1  0  0  0  0
M  END
$$$$

  -OEChem-04042215593D

 29 29  0     1  0  0  0  0  0999 V2000
   -2.6715   -4.5358    1.3101 H   0  0  0  0  0  0  0  0  0  0  0  0
   -2.8602   -3.5611    0.8519 C   0  0  0  0  0  0  0  0  0  0  0  0
   -3.6356   -3.0462    1.4238 H   0  0  0  0  0  0  0  0  0  0  0  0
   -3.2113   -3.7157   -0.1712 H   0  0  0  0  0  0  0  0  0  0  0  0
   -1.5884   -2.7345    0.8406 C   0  0  0  0  0  0  0  0  0  0  0  0
   -0.5621   -3.1877    1.3221 O   0  0  0  0  0  0  0  0  0  0  0  0
   -1.6021   -1.4691    0.2940 N   0  0  0  0  0  0  0  0  0  0  0  0
   -2.4809   -1.1354   -0.0944 H   0  0  0  0  0  0  0  0  0  0  0  0
   -0.4124   -0.6249    0.1060 C   0  0  1  0  0  0  0  0  0  0  0  0
    0.4080   -0.9946    0.7297 H   0  0  0  0  0  0  0  0  0  0  0  0
    0.0609   -0.6560   -1.3658 C   0  0  0  0  0  0  0  0  0  0  0  0
    0.6020    0.2634   -1.6081 H   0  0  0  0  0  0  0  0  0  0  0  0
    0.7667   -1.4853   -1.4744 H   0  0  0  0  0  0  0  0  0  0  0  0
   -1.0327   -0.8665   -2.3801 C   0  0  0  0  0  0  0  0  0  0  0  0
   -1.0627   -1.9436   -3.2572 N   0  0  0  0  0  0  0  0  0  0  0  0
   -2.1270   -1.7889   -4.0071 C   0  0  0  0  0  0  0  0  0  0  0  0
   -2.4330   -2.4679   -4.7979 H   0  0  0  0  0  0  0  0  0  0  0  0
   -2.7968   -0.6364   -3.6430 N   0  0  0  0  0  0  0  0  0  0  0  0
   -3.6425   -0.2814   -4.0857 H   0  0  0  0  0  0  0  0  0  0  0  0
   -2.0993   -0.0418   -2.6133 C   0  0  0  0  0  0  0  0  0  0  0  0
   -2.3273    0.8873   -2.0965 H   0  0  0  0  0  0  0  0  0  0  0  0
   -0.6900    0.8225    0.5632 C   0  0  0  0  0  0  0  0  0  0  0  0
   -1.7383    1.3814    0.2582 O   0  0  0  0  0  0  0  0  0  0  0  0
    0.2366    1.4972    1.3371 N   0  0  0  0  0  0  0  0  0  0  0  0
    1.0631    0.9842    1.6324 H   0  0  0  0  0  0  0  0  0  0  0  0
    0.0278    2.8474    1.8456 C   0  0  0  0  0  0  0  0  0  0  0  0
   -0.8563    2.8819    2.4911 H   0  0  0  0  0  0  0  0  0  0  0  0
    0.8953    3.1691    2.4298 H   0  0  0  0  0  0  0  0  0  0  0  0
   -0.1108    3.5514    1.0182 H   0  0  0  0  0  0  0  0  0  0  0  0
  1  2  1  0  0  0  0
  2  3  1  0  0  0  0
  2  4  1  0  0  0  0
  2  5  1  0  0  0  0
  5  6  2  0  0  0  0
  5  7  1  0  0  0  0
  7  8  1  0  0  0  0
  7  9  1  0  0  0  0
  9 10  1  0  0  0  0
  9 11  1  0  0  0  0
  9 22  1  0  0  0  0
 11 12  1  0  0  0  0
 11 13  1  0  0  0  0
 11 14  1  0  0  0  0
 14 15  1  0  0  0  0
 14 20  2  0  0  0  0
 15 16  2  0  0  0  0
 16 17  1  0  0  0  0
 16 18  1  0  0  0  0
 18 19  1  0  0  0  0
 18 20  1  0  0  0  0
 20 21  1  0  0  0  0
 22 23  2  0  0  0  0
 22 24  1  0  0  0  0
 24 25  1  0  0  0  0
 24 26  1  0  0  0  0
 26 27  1  0  0  0  0
 26 28  1  0  0  0  0
 26 29  1  0  0  0  0
M  END
$$$$

  -OEChem-04042215593D

 29 29  0     1  0  0  0  0  0999 V2000
   -2.6637   -4.5511    1.2511 H   0  0  0  0  0  0  0  0  0  0  0  0
   -2.8439   -3.5829    0.7760 C   0  0  0  0  0  0  0  0  0  0  0  0
   -3.6754   -3.0890    1.2839 H   0  0  0  0  0  0  0  0  0  0  0  0
   -3.1098   -3.7486   -0.2709 H   0  0  0  0  0  0  0  0  0  0  0  0
   -1.5989   -2.7208    0.8596 C   0  0  0  0  0  0  0  0  0  0  0  0
   -0.6044   -3.1384    1.4327 O   0  0  0  0  0  0  0  0  0  0  0  0
   -1.6014   -1.4639    0.2938 N   0  0  0  0  0  0  0  0  0  0  0  0
   -2.4399   -1.1850   -0.2100 H   0  0  0  0  0  0  0  0  0  0  0  0
   -0.4023   -0.6305    0.1196 C   0  0  1  0  0  0  0  0  0  0  0  0
    0.4116   -0.9986    0.7524 H   0  0  0  0  0  0  0  0  0  0  0  0
    0.0756   -0.6660   -1.3506 C   0  0  0  0  0  0  0  0  0  0  0  0
    0.6190    0.2529   -1.5905 H   0  0  0  0  0  0  0  0  0  0  0  0
    0.7769   -1.4980   -1.4679 H   0  0  0  0  0  0  0  0  0  0  0  0
   -1.0322   -0.8640   -2.3504 C   0  0  0  0  0  0  0  0  0  0  0  0
   -1.2759   -2.0570   -3.0199 N   0  0  0  0  0  0  0  0  0  0  0  0
   -2.2897   -1.8349   -3.8219 C   0  0  0  0  0  0  0  0  0  0  0  0
   -2.7249   -2.5721   -4.4906 H   0  0  0  0  0  0  0  0  0  0  0  0
   -2.7202   -0.5286   -3.6881 N   0  0  0  0  0  0  0  0  0  0  0  0
   -3.4880   -0.1045   -4.2058 H   0  0  0  0  0  0  0  0  0  0  0  0
   -1.9178    0.0943   -2.7565 C   0  0  0  0  0  0  0  0  0  0  0  0
   -1.9647    1.1218   -2.4028 H   0  0  0  0  0  0  0  0  0  0  0  0
   -0.6828    0.8241    0.5512 C   0  0  0  0  0  0  0  0  0  0  0  0
   -1.6955    1.4030    0.1718 O   0  0  0  0  0  0  0  0  0  0  0  0
    0.2310    1.5026    1.3368 N   0  0  0  0  0  0  0  0  0  0  0  0
    1.0214    0.9733    1.6951 H   0  0  0  0  0  0  0  0  0  0  0  0
    0.0264    2.8662    1.8097 C   0  0  0  0  0  0  0  0  0  0  0  0
   -0.8630    2.9222    2.4460 H   0  0  0  0  0  0  0  0  0  0  0  0
    0.8911    3.1967    2.3932 H   0  0  0  0  0  0  0  0  0  0  0  0
   -0.1004    3.5506    0.9644 H   0  0  0  0  0  0  0  0  0  0  0  0
  1  2  1  0  0  0  0
  2  3  1  0  0  0  0
  2  4  1  0  0  0  0
  2  5  1  0  0  0  0
  5  6  2  0  0  0  0
  5  7  1  0  0  0  0
  7  8  1  0  0  0  0
  7  9  1  0  0  0  0
  9 10  1  0  0  0  0
  9 11  1  0  0  0  0
  9 22  1  0  0  0  0
 11 12  1  0  0  0  0
 11 13  1  0  0  0  0
 11 14  1  0  0  0  0
 14 15  1  0  0  0  0
 14 20  2  0  0  0  0
 15 16  2  0  0  0  0
 16 17  1  0  0  0  0
 16 18  1  0  0  0  0
 18 19  1  0  0  0  0
 18 20  1  0  0  0  0
 20 21  1  0  0  0  0
 22 23  2  0  0  0  0
 22 24  1  0  0  0  0
 24 25  1  0  0  0  0
 24 26  1  0  0  0  0
 26 27  1  0  0  0  0
 26 28  1  0  0  0  0
 26 29  1  0  0  0  0
M  END
$$$$

  -OEChem-04042215593D

 29 29  0     1  0  0  0  0  0999 V2000
   -2.6489   -4.5688    1.2002 H   0  0  0  0  0  0  0  0  0  0  0  0
   -2.8241   -3.6049    0.7151 C   0  0  0  0  0  0  0  0  0  0  0  0
   -3.7009   -3.1354    1.1666 H   0  0  0  0  0  0  0  0  0  0  0  0
   -3.0152   -3.7754   -0.3474 H   0  0  0  0  0  0  0  0  0  0  0  0
   -1.6125   -2.7080    0.8812 C   0  0  0  0  0  0  0  0  0  0  0  0
   -0.6499   -3.0937    1.5271 O   0  0  0  0  0  0  0  0  0  0  0  0
   -1.6092   -1.4582    0.3006 N   0  0  0  0  0  0  0  0  0  0  0  0
   -2.3969   -1.2418   -0.3058 H   0  0  0  0  0  0  0  0  0  0  0  0
   -0.4023   -0.6344    0.1370 C   0  0  1  0  0  0  0  0  0  0  0  0
    0.4065   -1.0030    0.7761 H   0  0  0  0  0  0  0  0  0  0  0  0
    0.0786   -0.6708   -1.3326 C   0  0  0  0  0  0  0  0  0  0  0  0
    0.6305    0.2444   -1.5674 H   0  0  0  0  0  0  0  0  0  0  0  0
    0.7720   -1.5079   -1.4544 H   0  0  0  0  0  0  0  0  0  0  0  0
   -1.0351   -0.8556   -2.3290 C   0  0  0  0  0  0  0  0  0  0  0  0
   -1.4940   -2.0877   -2.7825 N   0  0  0  0  0  0  0  0  0  0  0  0
   -2.4458   -1.8342   -3.6491 C   0  0  0  0  0  0  0  0  0  0  0  0
   -3.0079   -2.5890   -4.1921 H   0  0  0  0  0  0  0  0  0  0  0  0
   -2.6297   -0.4693   -3.7632 N   0  0  0  0  0  0  0  0  0  0  0  0
   -3.3157   -0.0145   -4.3633 H   0  0  0  0  0  0  0  0  0  0  0  0
   -1.7310    0.1567   -2.9262 C   0  0  0  0  0  0  0  0  0  0  0  0
   -1.5995    1.2212   -2.7486 H   0  0  0  0  0  0  0  0  0  0  0  0
   -0.6802    0.8264    0.5489 C   0  0  0  0  0  0  0  0  0  0  0  0
   -1.6559    1.4245    0.1073 O   0  0  0  0  0  0  0  0  0  0  0  0
    0.2267    1.5051    1.3425 N   0  0  0  0  0  0  0  0  0  0  0  0
    0.9877    0.9650    1.7460 H   0  0  0  0  0  0  0  0  0  0  0  0
    0.0396    2.8852    1.7727 C   0  0  0  0  0  0  0  0  0  0  0  0
   -0.8674    2.9780    2.3793 H   0  0  0  0  0  0  0  0  0  0  0  0
    0.8938    3.2121    2.3735 H   0  0  0  0  0  0  0  0  0  0  0  0
   -0.0459    3.5495    0.9064 H   0  0  0  0  0  0  0  0  0  0  0  0
  1  2  1  0  0  0  0
  2  3  1  0  0  0  0
  2  4  1  0  0  0  0
  2  5  1  0  0  0  0
  5  6  2  0  0  0  0
  5  7  1  0  0  0  0
  7  8  1  0  0  0  0
  7  9  1  0  0  0  0
  9 10  1  0  0  0  0
  9 11  1  0  0  0  0
  9 22  1  0  0  0  0
 11 12  1  0  0  0  0
 11 13  1  0  0  0  0
 11 14  1  0  0  0  0
 14 15  1  0  0  0  0
 14 20  2  0  0  0  0
 15 16  2  0  0  0  0
 16 17  1  0  0  0  0
 16 18  1  0  0  0  0
 18 19  1  0  0  0  0
 18 20  1  0  0  0  0
 20 21  1  0  0  0  0
 22 23  2  0  0  0  0
 22 24  1  0  0  0  0
 24 25  1  0  0  0  0
 24 26  1  0  0  0  0
 26 27  1  0  0  0  0
 26 28  1  0  0  0  0
 26 29  1  0  0  0  0
M  END
$$$$

  -OEChem-04042215593D

 29 29  0     1  0  0  0  0  0999 V2000
   -2.6364   -4.5703    1.2292 H   0  0  0  0  0  0  0  0  0  0  0  0
   -2.8054   -3.6198    0.7158 C   0  0  0  0  0  0  0  0  0  0  0  0
   -3.7095   -3.1563    1.1174 H   0  0  0  0  0  0  0  0  0  0  0  0
   -2.9460   -3.8152   -0.3504 H   0  0  0  0  0  0  0  0  0  0  0  0
   -1.6178   -2.6974    0.9155 C   0  0  0  0  0  0  0  0  0  0  0  0
   -0.6712   -3.0587    1.5988 O   0  0  0  0  0  0  0  0  0  0  0  0
   -1.6187   -1.4540    0.3218 N   0  0  0  0  0  0  0  0  0  0  0  0
   -2.3634   -1.2967   -0.3547 H   0  0  0  0  0  0  0  0  0  0  0  0
   -0.4073   -0.6398    0.1486 C   0  0  1  0  0  0  0  0  0  0  0  0
    0.4049   -1.0085    0.7830 H   0  0  0  0  0  0  0  0  0  0  0  0
    0.0631   -0.6740   -1.3257 C   0  0  0  0  0  0  0  0  0  0  0  0
    0.6288    0.2338   -1.5570 H   0  0  0  0  0  0  0  0  0  0  0  0
    0.7442   -1.5206   -1.4503 H   0  0  0  0  0  0  0  0  0  0  0  0
   -1.0498   -0.8455   -2.3289 C   0  0  0  0  0  0  0  0  0  0  0  0
   -1.7268   -2.0359   -2.5832 N   0  0  0  0  0  0  0  0  0  0  0  0
   -2.5948   -1.7758   -3.5321 C   0  0  0  0  0  0  0  0  0  0  0  0
   -3.2812   -2.5006   -3.9607 H   0  0  0  0  0  0  0  0  0  0  0  0
   -2.5102   -0.4467   -3.8986 N   0  0  0  0  0  0  0  0  0  0  0  0
   -3.0872    0.0083   -4.6038 H   0  0  0  0  0  0  0  0  0  0  0  0
   -1.5270    0.1475   -3.1369 C   0  0  0  0  0  0  0  0  0  0  0  0
   -1.1980    1.1829   -3.1492 H   0  0  0  0  0  0  0  0  0  0  0  0
   -0.6797    0.8253    0.5492 C   0  0  0  0  0  0  0  0  0  0  0  0
   -1.6444    1.4293    0.0922 O   0  0  0  0  0  0  0  0  0  0  0  0
    0.2312    1.5066    1.3367 N   0  0  0  0  0  0  0  0  0  0  0  0
    0.9819    0.9633    1.7544 H   0  0  0  0  0  0  0  0  0  0  0  0
    0.0459    2.8890    1.7603 C   0  0  0  0  0  0  0  0  0  0  0  0
   -0.8667    2.9874    2.3577 H   0  0  0  0  0  0  0  0  0  0  0  0
    0.8952    3.2146    2.3687 H   0  0  0  0  0  0  0  0  0  0  0  0
   -0.0284    3.5502    0.8905 H   0  0  0  0  0  0  0  0  0  0  0  0
  1  2  1  0  0  0  0
  2  3  1  0  0  0  0
  2  4  1  0  0  0  0
  2  5  1  0  0  0  0
  5  6  2  0  0  0  0
  5  7  1  0  0  0  0
  7  8  1  0  0  0  0
  7  9  1  0  0  0  0
  9 10  1  0  0  0  0
  9 11  1  0  0  0  0
  9 22  1  0  0  0  0
 11 12  1  0  0  0  0
 11 13  1  0  0  0  0
 11 14  1  0  0  0  0
 14 15  1  0  0  0  0
 14 20  2  0  0  0  0
 15 16  2  0  0  0  0
 16 17  1  0  0  0  0
 16 18  1  0  0  0  0
 18 19  1  0  0  0  0
 18 20  1  0  0  0  0
 20 21  1  0  0  0  0
 22 23  2  0  0  0  0
 22 24  1  0  0  0  0
 24 25  1  0  0  0  0
 24 26  1  0  0  0  0
 26 27  1  0  0  0  0
 26 28  1  0  0  0  0
 26 29  1  0  0  0  0
M  END
$$$$

  -OEChem-04042215593D

 29 29  0     1  0  0  0  0  0999 V2000
   -2.6166   -4.5741    1.2907 H   0  0  0  0  0  0  0  0  0  0  0  0
   -2.7937   -3.6324    0.7640 C   0  0  0  0  0  0  0  0  0  0  0  0
   -3.7011   -3.1701    1.1597 H   0  0  0  0  0  0  0  0  0  0  0  0
   -2.9338   -3.8437   -0.2991 H   0  0  0  0  0  0  0  0  0  0  0  0
   -1.6138   -2.6980    0.9503 C   0  0  0  0  0  0  0  0  0  0  0  0
   -0.6642   -3.0445    1.6376 O   0  0  0  0  0  0  0  0  0  0  0  0
   -1.6262   -1.4601    0.3453 N   0  0  0  0  0  0  0  0  0  0  0  0
   -2.3496   -1.3416   -0.3643 H   0  0  0  0  0  0  0  0  0  0  0  0
   -0.4163   -0.6502    0.1547 C   0  0  1  0  0  0  0  0  0  0  0  0
    0.4024   -1.0142    0.7834 H   0  0  0  0  0  0  0  0  0  0  0  0
    0.0435   -0.6787   -1.3245 C   0  0  0  0  0  0  0  0  0  0  0  0
    0.6247    0.2208   -1.5500 H   0  0  0  0  0  0  0  0  0  0  0  0
    0.7140   -1.5344   -1.4459 H   0  0  0  0  0  0  0  0  0  0  0  0
   -1.0564   -0.8429   -2.3484 C   0  0  0  0  0  0  0  0  0  0  0  0
   -1.9427   -1.9153   -2.4517 N   0  0  0  0  0  0  0  0  0  0  0  0
   -2.7206   -1.6619   -3.4776 C   0  0  0  0  0  0  0  0  0  0  0  0
   -3.5218   -2.3085   -3.8243 H   0  0  0  0  0  0  0  0  0  0  0  0
   -2.3732   -0.4528   -4.0463 N   0  0  0  0  0  0  0  0  0  0  0  0
   -2.8364   -0.0226   -4.8447 H   0  0  0  0  0  0  0  0  0  0  0  0
   -1.3170    0.0700   -3.3319 C   0  0  0  0  0  0  0  0  0  0  0  0
   -0.7985    1.0109   -3.4927 H   0  0  0  0  0  0  0  0  0  0  0  0
   -0.6883    0.8174    0.5478 C   0  0  0  0  0  0  0  0  0  0  0  0
   -1.6545    1.4207    0.0935 O   0  0  0  0  0  0  0  0  0  0  0  0
    0.2295    1.5032    1.3231 N   0  0  0  0  0  0  0  0  0  0  0  0
    0.9785    0.9600    1.7437 H   0  0  0  0  0  0  0  0  0  0  0  0
    0.0443    2.8860    1.7449 C   0  0  0  0  0  0  0  0  0  0  0  0
   -0.8674    2.9848    2.3435 H   0  0  0  0  0  0  0  0  0  0  0  0
    0.8943    3.2126    2.3517 H   0  0  0  0  0  0  0  0  0  0  0  0
   -0.0317    3.5459    0.8743 H   0  0  0  0  0  0  0  0  0  0  0  0
  1  2  1  0  0  0  0
  2  3  1  0  0  0  0
  2  4  1  0  0  0  0
  2  5  1  0  0  0  0
  5  6  2  0  0  0  0
  5  7  1  0  0  0  0
  7  8  1  0  0  0  0
  7  9  1  0  0  0  0
  9 10  1  0  0  0  0
  9 11  1  0  0  0  0
  9 22  1  0  0  0  0
 11 12  1  0  0  0  0
 11 13  1  0  0  0  0
 11 14  1  0  0  0  0
 14 15  1  0  0  0  0
 14 20  2  0  0  0  0
 15 16  2  0  0  0  0
 16 17  1  0  0  0  0
 16 18  1  0  0  0  0
 18 19  1  0  0  0  0
 18 20  1  0  0  0  0
 20 21  1  0  0  0  0
 22 23  2  0  0  0  0
 22 24  1  0  0  0  0
 24 25  1  0  0  0  0
 24 26  1  0  0  0  0
 26 27  1  0  0  0  0
 26 28  1  0  0  0  0
 26 29  1  0  0  0  0
M  END
$$$$

  -OEChem-04042215593D

 29 29  0     1  0  0  0  0  0999 V2000
   -2.5997   -4.5882    1.3126 H   0  0  0  0  0  0  0  0  0  0  0  0
   -2.7923   -3.6379    0.8071 C   0  0  0  0  0  0  0  0  0  0  0  0
   -3.6887   -3.1835    1.2357 H   0  0  0  0  0  0  0  0  0  0  0  0
   -2.9619   -3.8308   -0.2554 H   0  0  0  0  0  0  0  0  0  0  0  0
   -1.6088   -2.7047    0.9769 C   0  0  0  0  0  0  0  0  0  0  0  0
   -0.6460   -3.0557    1.6434 O   0  0  0  0  0  0  0  0  0  0  0  0
   -1.6283   -1.4683    0.3698 N   0  0  0  0  0  0  0  0  0  0  0  0
   -2.3579   -1.3528   -0.3360 H   0  0  0  0  0  0  0  0  0  0  0  0
   -0.4243   -0.6571    0.1599 C   0  0  1  0  0  0  0  0  0  0  0  0
    0.4013   -1.0167    0.7819 H   0  0  0  0  0  0  0  0  0  0  0  0
    0.0253   -0.6847   -1.3239 C   0  0  0  0  0  0  0  0  0  0  0  0
    0.6140    0.2103   -1.5481 H   0  0  0  0  0  0  0  0  0  0  0  0
    0.6923   -1.5437   -1.4379 H   0  0  0  0  0  0  0  0  0  0  0  0
   -1.0592   -0.8529   -2.3686 C   0  0  0  0  0  0  0  0  0  0  0  0
   -2.1286   -1.7515   -2.3592 N   0  0  0  0  0  0  0  0  0  0  0  0
   -2.8222   -1.5273   -3.4500 C   0  0  0  0  0  0  0  0  0  0  0  0
   -3.7230   -2.0633   -3.7350 H   0  0  0  0  0  0  0  0  0  0  0  0
   -2.2398   -0.5098   -4.1778 N   0  0  0  0  0  0  0  0  0  0  0  0
   -2.5984   -0.1322   -5.0531 H   0  0  0  0  0  0  0  0  0  0  0  0
   -1.1238   -0.0781   -3.4941 C   0  0  0  0  0  0  0  0  0  0  0  0
   -0.4385    0.7181   -3.7690 H   0  0  0  0  0  0  0  0  0  0  0  0
   -0.6959    0.8107    0.5537 C   0  0  0  0  0  0  0  0  0  0  0  0
   -1.6693    1.4111    0.1113 O   0  0  0  0  0  0  0  0  0  0  0  0
    0.2301    1.5022    1.3146 N   0  0  0  0  0  0  0  0  0  0  0  0
    0.9860    0.9633    1.7282 H   0  0  0  0  0  0  0  0  0  0  0  0
    0.0457    2.8868    1.7315 C   0  0  0  0  0  0  0  0  0  0  0  0
   -0.8572    2.9850    2.3434 H   0  0  0  0  0  0  0  0  0  0  0  0
    0.9038    3.2205    2.3228 H   0  0  0  0  0  0  0  0  0  0  0  0
   -0.0468    3.5414    0.8584 H   0  0  0  0  0  0  0  0  0  0  0  0
  1  2  1  0  0  0  0
  2  3  1  0  0  0  0
  2  4  1  0  0  0  0
  2  5  1  0  0  0  0
  5  6  2  0  0  0  0
  5  7  1  0  0  0  0
  7  8  1  0  0  0  0
  7  9  1  0  0  0  0
  9 10  1  0  0  0  0
  9 11  1  0  0  0  0
  9 22  1  0  0  0  0
 11 12  1  0  0  0  0
 11 13  1  0  0  0  0
 11 14  1  0  0  0  0
 14 15  1  0  0  0  0
 14 20  2  0  0  0  0
 15 16  2  0  0  0  0
 16 17  1  0  0  0  0
 16 18  1  0  0  0  0
 18 19  1  0  0  0  0
 18 20  1  0  0  0  0
 20 21  1  0  0  0  0
 22 23  2  0  0  0  0
 22 24  1  0  0  0  0
 24 25  1  0  0  0  0
 24 26  1  0  0  0  0
 26 27  1  0  0  0  0
 26 28  1  0  0  0  0
 26 29  1  0  0  0  0
M  END
$$$$

  -OEChem-04042215593D

 29 29  0     1  0  0  0  0  0999 V2000
   -2.6032   -4.5861    1.3435 H   0  0  0  0  0  0  0  0  0  0  0  0
   -2.8010   -3.6300    0.8512 C   0  0  0  0  0  0  0  0  0  0  0  0
   -3.6752   -3.1667    1.3148 H   0  0  0  0  0  0  0  0  0  0  0  0
   -3.0119   -3.8134   -0.2054 H   0  0  0  0  0  0  0  0  0  0  0  0
   -1.6006   -2.7126    0.9835 C   0  0  0  0  0  0  0  0  0  0  0  0
   -0.6167   -3.0802    1.6092 O   0  0  0  0  0  0  0  0  0  0  0  0
   -1.6269   -1.4733    0.3840 N   0  0  0  0  0  0  0  0  0  0  0  0
   -2.3821   -1.3352   -0.2916 H   0  0  0  0  0  0  0  0  0  0  0  0
   -0.4328   -0.6548    0.1570 C   0  0  1  0  0  0  0  0  0  0  0  0
    0.4001   -1.0118    0.7708 H   0  0  0  0  0  0  0  0  0  0  0  0
    0.0063   -0.6825   -1.3305 C   0  0  0  0  0  0  0  0  0  0  0  0
    0.5914    0.2140   -1.5578 H   0  0  0  0  0  0  0  0  0  0  0  0
    0.6780   -1.5388   -1.4392 H   0  0  0  0  0  0  0  0  0  0  0  0
   -1.0660   -0.8623   -2.3892 C   0  0  0  0  0  0  0  0  0  0  0  0
   -2.2809   -1.5479   -2.3013 N   0  0  0  0  0  0  0  0  0  0  0  0
   -2.8937   -1.3894   -3.4502 C   0  0  0  0  0  0  0  0  0  0  0  0
   -3.8685   -1.8007   -3.6968 H   0  0  0  0  0  0  0  0  0  0  0  0
   -2.1176   -0.6226   -4.2949 N   0  0  0  0  0  0  0  0  0  0  0  0
   -2.3775   -0.3389   -5.2379 H   0  0  0  0  0  0  0  0  0  0  0  0
   -0.9632   -0.2816   -3.6241 C   0  0  0  0  0  0  0  0  0  0  0  0
   -0.1418    0.3322   -3.9810 H   0  0  0  0  0  0  0  0  0  0  0  0
   -0.7022    0.8107    0.5607 C   0  0  0  0  0  0  0  0  0  0  0  0
   -1.6924    1.4068    0.1523 O   0  0  0  0  0  0  0  0  0  0  0  0
    0.2364    1.5011    1.3074 N   0  0  0  0  0  0  0  0  0  0  0  0
    1.0055    0.9636    1.6976 H   0  0  0  0  0  0  0  0  0  0  0  0
    0.0534    2.8807    1.7415 C   0  0  0  0  0  0  0  0  0  0  0  0
   -0.8319    2.9669    2.3804 H   0  0  0  0  0  0  0  0  0  0  0  0
    0.9256    3.2171    2.3103 H   0  0  0  0  0  0  0  0  0  0  0  0
   -0.0699    3.5417    0.8771 H   0  0  0  0  0  0  0  0  0  0  0  0
  1  2  1  0  0  0  0
  2  3  1  0  0  0  0
  2  4  1  0  0  0  0
  2  5  1  0  0  0  0
  5  6  2  0  0  0  0
  5  7  1  0  0  0  0
  7  8  1  0  0  0  0
  7  9  1  0  0  0  0
  9 10  1  0  0  0  0
  9 11  1  0  0  0  0
  9 22  1  0  0  0  0
 11 12  1  0  0  0  0
 11 13  1  0  0  0  0
 11 14  1  0  0  0  0
 14 15  1  0  0  0  0
 14 20  2  0  0  0  0
 15 16  2  0  0  0  0
 16 17  1  0  0  0  0
 16 18  1  0  0  0  0
 18 19  1  0  0  0  0
 18 20  1  0  0  0  0
 20 21  1  0  0  0  0
 22 23  2  0  0  0  0
 22 24  1  0  0  0  0
 24 25  1  0  0  0  0
 24 26  1  0  0  0  0
 26 27  1  0  0  0  0
 26 28  1  0  0  0  0
 26 29  1  0  0  0  0
M  END
$$$$

  -OEChem-04042215593D

 29 29  0     1  0  0  0  0  0999 V2000
   -2.6186   -4.5769    1.3426 H   0  0  0  0  0  0  0  0  0  0  0  0
   -2.8186   -3.6104    0.8721 C   0  0  0  0  0  0  0  0  0  0  0  0
   -3.6608   -3.1359    1.3813 H   0  0  0  0  0  0  0  0  0  0  0  0
   -3.0814   -3.7739   -0.1761 H   0  0  0  0  0  0  0  0  0  0  0  0
   -1.5943   -2.7198    0.9624 C   0  0  0  0  0  0  0  0  0  0  0  0
   -0.5919   -3.1146    1.5398 O   0  0  0  0  0  0  0  0  0  0  0  0
   -1.6207   -1.4729    0.3801 N   0  0  0  0  0  0  0  0  0  0  0  0
   -2.4035   -1.2972   -0.2552 H   0  0  0  0  0  0  0  0  0  0  0  0
   -0.4349   -0.6445    0.1486 C   0  0  1  0  0  0  0  0  0  0  0  0
    0.4025   -1.0038    0.7548 H   0  0  0  0  0  0  0  0  0  0  0  0
   -0.0022   -0.6687   -1.3408 C   0  0  0  0  0  0  0  0  0  0  0  0
    0.5672    0.2375   -1.5703 H   0  0  0  0  0  0  0  0  0  0  0  0
    0.6829   -1.5140   -1.4510 H   0  0  0  0  0  0  0  0  0  0  0  0
   -1.0709   -0.8584   -2.4020 C   0  0  0  0  0  0  0  0  0  0  0  0
   -2.3896   -1.2999   -2.2622 N   0  0  0  0  0  0  0  0  0  0  0  0
   -2.9410   -1.2476   -3.4508 C   0  0  0  0  0  0  0  0  0  0  0  0
   -3.9683   -1.5226   -3.6724 H   0  0  0  0  0  0  0  0  0  0  0  0
   -2.0220   -0.7937   -4.3743 N   0  0  0  0  0  0  0  0  0  0  0  0
   -2.2061   -0.6507   -5.3657 H   0  0  0  0  0  0  0  0  0  0  0  0
   -0.8400   -0.5388   -3.7126 C   0  0  0  0  0  0  0  0  0  0  0  0
    0.0857   -0.1512   -4.1273 H   0  0  0  0  0  0  0  0  0  0  0  0
   -0.7040    0.8154    0.5720 C   0  0  0  0  0  0  0  0  0  0  0  0
   -1.7076    1.4105    0.1970 O   0  0  0  0  0  0  0  0  0  0  0  0
    0.2430    1.4993    1.3141 N   0  0  0  0  0  0  0  0  0  0  0  0
    1.0237    0.9614    1.6796 H   0  0  0  0  0  0  0  0  0  0  0  0
    0.0619    2.8720    1.7696 C   0  0  0  0  0  0  0  0  0  0  0  0
   -0.8186    2.9485    2.4163 H   0  0  0  0  0  0  0  0  0  0  0  0
    0.9381    3.2005    2.3367 H   0  0  0  0  0  0  0  0  0  0  0  0
   -0.0678    3.5450    0.9155 H   0  0  0  0  0  0  0  0  0  0  0  0
  1  2  1  0  0  0  0
  2  3  1  0  0  0  0
  2  4  1  0  0  0  0
  2  5  1  0  0  0  0
  5  6  2  0  0  0  0
  5  7  1  0  0  0  0
  7  8  1  0  0  0  0
  7  9  1  0  0  0  0
  9 10  1  0  0  0  0
  9 11  1  0  0  0  0
  9 22  1  0  0  0  0
 11 12  1  0  0  0  0
 11 13  1  0  0  0  0
 11 14  1  0  0  0  0
 14 15  1  0  0  0  0
 14 20  2  0  0  0  0
 15 16  2  0  0  0  0
 16 17  1  0  0  0  0
 16 18  1  0  0  0  0
 18 19  1  0  0  0  0
 18 20  1  0  0  0  0
 20 21  1  0  0  0  0
 22 23  2  0  0  0  0
 22 24  1  0  0  0  0
 24 25  1  0  0  0  0
 24 26  1  0  0  0  0
 26 27  1  0  0  0  0
 26 28  1  0  0  0  0
 26 29  1  0  0  0  0
M  END
$$$$

  -OEChem-04042215593D

 29 29  0     1  0  0  0  0  0999 V2000
   -2.6421   -4.5608    1.3054 H   0  0  0  0  0  0  0  0  0  0  0  0
   -2.8375   -3.5845    0.8535 C   0  0  0  0  0  0  0  0  0  0  0  0
   -3.6586   -3.1033    1.3903 H   0  0  0  0  0  0  0  0  0  0  0  0
   -3.1295   -3.7291   -0.1898 H   0  0  0  0  0  0  0  0  0  0  0  0
   -1.5967   -2.7154    0.9258 C   0  0  0  0  0  0  0  0  0  0  0  0
   -0.5848   -3.1361    1.4670 O   0  0  0  0  0  0  0  0  0  0  0  0
   -1.6162   -1.4610    0.3600 N   0  0  0  0  0  0  0  0  0  0  0  0
   -2.4183   -1.2458   -0.2384 H   0  0  0  0  0  0  0  0  0  0  0  0
   -0.4329   -0.6270    0.1370 C   0  0  1  0  0  0  0  0  0  0  0  0
    0.4018   -0.9924    0.7436 H   0  0  0  0  0  0  0  0  0  0  0  0
    0.0040   -0.6534   -1.3501 C   0  0  0  0  0  0  0  0  0  0  0  0
    0.5546    0.2635   -1.5816 H   0  0  0  0  0  0  0  0  0  0  0  0
    0.7051   -1.4858   -1.4603 H   0  0  0  0  0  0  0  0  0  0  0  0
   -1.0655   -0.8512   -2.4074 C   0  0  0  0  0  0  0  0  0  0  0  0
   -2.4429   -1.0215   -2.2477 N   0  0  0  0  0  0  0  0  0  0  0  0
   -2.9617   -1.1048   -3.4489 C   0  0  0  0  0  0  0  0  0  0  0  0
   -4.0193   -1.2323   -3.6618 H   0  0  0  0  0  0  0  0  0  0  0  0
   -1.9641   -1.0097   -4.3979 N   0  0  0  0  0  0  0  0  0  0  0  0
   -2.1072   -1.0359   -5.4059 H   0  0  0  0  0  0  0  0  0  0  0  0
   -0.7629   -0.8444   -3.7419 C   0  0  0  0  0  0  0  0  0  0  0  0
    0.2238   -0.7185   -4.1776 H   0  0  0  0  0  0  0  0  0  0  0  0
   -0.6970    0.8301    0.5761 C   0  0  0  0  0  0  0  0  0  0  0  0
   -1.7137    1.4241    0.2373 O   0  0  0  0  0  0  0  0  0  0  0  0
    0.2539    1.5043    1.3224 N   0  0  0  0  0  0  0  0  0  0  0  0
    1.0446    0.9654    1.6638 H   0  0  0  0  0  0  0  0  0  0  0  0
    0.0681    2.8653    1.8104 C   0  0  0  0  0  0  0  0  0  0  0  0
   -0.7977    2.9177    2.4787 H   0  0  0  0  0  0  0  0  0  0  0  0
    0.9534    3.1924    2.3637 H   0  0  0  0  0  0  0  0  0  0  0  0
   -0.0898    3.5541    0.9739 H   0  0  0  0  0  0  0  0  0  0  0  0
  1  2  1  0  0  0  0
  2  3  1  0  0  0  0
  2  4  1  0  0  0  0
  2  5  1  0  0  0  0
  5  6  2  0  0  0  0
  5  7  1  0  0  0  0
  7  8  1  0  0  0  0
  7  9  1  0  0  0  0
  9 10  1  0  0  0  0
  9 11  1  0  0  0  0
  9 22  1  0  0  0  0
 11 12  1  0  0  0  0
 11 13  1  0  0  0  0
 11 14  1  0  0  0  0
 14 15  1  0  0  0  0
 14 20  2  0  0  0  0
 15 16  2  0  0  0  0
 16 17  1  0  0  0  0
 16 18  1  0  0  0  0
 18 19  1  0  0  0  0
 18 20  1  0  0  0  0
 20 21  1  0  0  0  0
 22 23  2  0  0  0  0
 22 24  1  0  0  0  0
 24 25  1  0  0  0  0
 24 26  1  0  0  0  0
 26 27  1  0  0  0  0
 26 28  1  0  0  0  0
 26 29  1  0  0  0  0
M  END
$$$$

  -OEChem-04042215593D

 29 29  0     1  0  0  0  0  0999 V2000
   -2.6724   -4.5325    1.2473 H   0  0  0  0  0  0  0  0  0  0  0  0
   -2.8584   -3.5489    0.8074 C   0  0  0  0  0  0  0  0  0  0  0  0
   -3.6603   -3.0580    1.3643 H   0  0  0  0  0  0  0  0  0  0  0  0
   -3.1730   -3.6790   -0.2311 H   0  0  0  0  0  0  0  0  0  0  0  0
   -1.6003   -2.7038    0.8625 C   0  0  0  0  0  0  0  0  0  0  0  0
   -0.5826   -3.1529    1.3682 O   0  0  0  0  0  0  0  0  0  0  0  0
   -1.6090   -1.4401    0.3180 N   0  0  0  0  0  0  0  0  0  0  0  0
   -2.4283   -1.1793   -0.2367 H   0  0  0  0  0  0  0  0  0  0  0  0
   -0.4262   -0.5990    0.1170 C   0  0  1  0  0  0  0  0  0  0  0  0
    0.3994   -0.9714    0.7314 H   0  0  0  0  0  0  0  0  0  0  0  0
    0.0301   -0.6312   -1.3629 C   0  0  0  0  0  0  0  0  0  0  0  0
    0.5583    0.2985   -1.5944 H   0  0  0  0  0  0  0  0  0  0  0  0
    0.7506   -1.4476   -1.4674 H   0  0  0  0  0  0  0  0  0  0  0  0
   -1.0390   -0.8419   -2.4155 C   0  0  0  0  0  0  0  0  0  0  0  0
   -2.4231   -0.7324   -2.2745 N   0  0  0  0  0  0  0  0  0  0  0  0
   -2.9488   -0.9757   -3.4504 C   0  0  0  0  0  0  0  0  0  0  0  0
   -4.0123   -0.9583   -3.6713 H   0  0  0  0  0  0  0  0  0  0  0  0
   -1.9503   -1.2624   -4.3597 N   0  0  0  0  0  0  0  0  0  0  0  0
   -2.0964   -1.4804   -5.3438 H   0  0  0  0  0  0  0  0  0  0  0  0
   -0.7385   -1.1787   -3.7072 C   0  0  0  0  0  0  0  0  0  0  0  0
    0.2545   -1.3323   -4.1191 H   0  0  0  0  0  0  0  0  0  0  0  0
   -0.6884    0.8532    0.5746 C   0  0  0  0  0  0  0  0  0  0  0  0
   -1.7197    1.4429    0.2766 O   0  0  0  0  0  0  0  0  0  0  0  0
    0.2612    1.5133    1.3352 N   0  0  0  0  0  0  0  0  0  0  0  0
    1.0619    0.9742    1.6518 H   0  0  0  0  0  0  0  0  0  0  0  0
    0.0671    2.8587    1.8620 C   0  0  0  0  0  0  0  0  0  0  0  0
   -0.7928    2.8842    2.5397 H   0  0  0  0  0  0  0  0  0  0  0  0
    0.9547    3.1799    2.4154 H   0  0  0  0  0  0  0  0  0  0  0  0
   -0.1058    3.5682    1.0460 H   0  0  0  0  0  0  0  0  0  0  0  0
  1  2  1  0  0  0  0
  2  3  1  0  0  0  0
  2  4  1  0  0  0  0
  2  5  1  0  0  0  0
  5  6  2  0  0  0  0
  5  7  1  0  0  0  0
  7  8  1  0  0  0  0
  7  9  1  0  0  0  0
  9 10  1  0  0  0  0
  9 11  1  0  0  0  0
  9 22  1  0  0  0  0
 11 12  1  0  0  0  0
 11 13  1  0  0  0  0
 11 14  1  0  0  0  0
 14 15  1  0  0  0  0
 14 20  2  0  0  0  0
 15 16  2  0  0  0  0
 16 17  1  0  0  0  0
 16 18  1  0  0  0  0
 18 19  1  0  0  0  0
 18 20  1  0  0  0  0
 20 21  1  0  0  0  0
 22 23  2  0  0  0  0
 22 24  1  0  0  0  0
 24 25  1  0  0  0  0
 24 26  1  0  0  0  0
 26 27  1  0  0  0  0
 26 28  1  0  0  0  0
 26 29  1  0  0  0  0
M  END
$$$$

  -OEChem-04042215593D

 29 29  0     1  0  0  0  0  0999 V2000
   -2.7021   -4.5051    1.1968 H   0  0  0  0  0  0  0  0  0  0  0  0
   -2.8784   -3.5153    0.7675 C   0  0  0  0  0  0  0  0  0  0  0  0
   -3.6571   -3.0127    1.3461 H   0  0  0  0  0  0  0  0  0  0  0  0
   -3.2194   -3.6324   -0.2639 H   0  0  0  0  0  0  0  0  0  0  0  0
   -1.6027   -2.6958    0.7984 C   0  0  0  0  0  0  0  0  0  0  0  0
   -0.5796   -3.1721    1.2667 O   0  0  0  0  0  0  0  0  0  0  0  0
   -1.5998   -1.4259    0.2685 N   0  0  0  0  0  0  0  0  0  0  0  0
   -2.4377   -1.1194   -0.2309 H   0  0  0  0  0  0  0  0  0  0  0  0
   -0.4166   -0.5786    0.0911 C   0  0  1  0  0  0  0  0  0  0  0  0
    0.3955   -0.9542    0.7215 H   0  0  0  0  0  0  0  0  0  0  0  0
    0.0715   -0.6203   -1.3762 C   0  0  0  0  0  0  0  0  0  0  0  0
    0.5855    0.3170   -1.6095 H   0  0  0  0  0  0  0  0  0  0  0  0
    0.8057   -1.4260   -1.4658 H   0  0  0  0  0  0  0  0  0  0  0  0
   -0.9951   -0.8480   -2.4232 C   0  0  0  0  0  0  0  0  0  0  0  0
   -2.3330   -0.4665   -2.3532 N   0  0  0  0  0  0  0  0  0  0  0  0
   -2.8981   -0.8469   -3.4728 C   0  0  0  0  0  0  0  0  0  0  0  0
   -3.9415   -0.6847   -3.7282 H   0  0  0  0  0  0  0  0  0  0  0  0
   -1.9713   -1.4887   -4.2706 N   0  0  0  0  0  0  0  0  0  0  0  0
   -2.1580   -1.8747   -5.1943 H   0  0  0  0  0  0  0  0  0  0  0  0
   -0.7628   -1.4943   -3.6063 C   0  0  0  0  0  0  0  0  0  0  0  0
    0.1833   -1.9104   -3.9397 H   0  0  0  0  0  0  0  0  0  0  0  0
   -0.6827    0.8700    0.5589 C   0  0  0  0  0  0  0  0  0  0  0  0
   -1.7355    1.4429    0.3076 O   0  0  0  0  0  0  0  0  0  0  0  0
    0.2597    1.5220    1.3357 N   0  0  0  0  0  0  0  0  0  0  0  0
    1.0771    0.9913    1.6223 H   0  0  0  0  0  0  0  0  0  0  0  0
    0.0513    2.8516    1.8966 C   0  0  0  0  0  0  0  0  0  0  0  0
   -0.7989    2.8469    2.5869 H   0  0  0  0  0  0  0  0  0  0  0  0
    0.9416    3.1746    2.4443 H   0  0  0  0  0  0  0  0  0  0  0  0
   -0.1453    3.5771    1.1001 H   0  0  0  0  0  0  0  0  0  0  0  0
  1  2  1  0  0  0  0
  2  3  1  0  0  0  0
  2  4  1  0  0  0  0
  2  5  1  0  0  0  0
  5  6  2  0  0  0  0
  5  7  1  0  0  0  0
  7  8  1  0  0  0  0
  7  9  1  0  0  0  0
  9 10  1  0  0  0  0
  9 11  1  0  0  0  0
  9 22  1  0  0  0  0
 11 12  1  0  0  0  0
 11 13  1  0  0  0  0
 11 14  1  0  0  0  0
 14 15  1  0  0  0  0
 14 20  2  0  0  0  0
 15 16  2  0  0  0  0
 16 17  1  0  0  0  0
 16 18  1  0  0  0  0
 18 19  1  0  0  0  0
 18 20  1  0  0  0  0
 20 21  1  0  0  0  0
 22 23  2  0  0  0  0
 22 24  1  0  0  0  0
 24 25  1  0  0  0  0
 24 26  1  0  0  0  0
 26 27  1  0  0  0  0
 26 28  1  0  0  0  0
 26 29  1  0  0  0  0
M  END
$$$$

  -OEChem-04042215593D

 29 29  0     1  0  0  0  0  0999 V2000
   -2.7211   -4.4824    1.2069 H   0  0  0  0  0  0  0  0  0  0  0  0
   -2.8956   -3.4886    0.7855 C   0  0  0  0  0  0  0  0  0  0  0  0
   -3.6342   -2.9689    1.4006 H   0  0  0  0  0  0  0  0  0  0  0  0
   -3.2883   -3.5988   -0.2282 H   0  0  0  0  0  0  0  0  0  0  0  0
   -1.6014   -2.6981    0.7548 C   0  0  0  0  0  0  0  0  0  0  0  0
   -0.5677   -3.1997    1.1698 O   0  0  0  0  0  0  0  0  0  0  0  0
   -1.5931   -1.4261    0.2286 N   0  0  0  0  0  0  0  0  0  0  0  0
   -2.4596   -1.0684   -0.1756 H   0  0  0  0  0  0  0  0  0  0  0  0
   -0.4086   -0.5759    0.0627 C   0  0  1  0  0  0  0  0  0  0  0  0
    0.3927   -0.9502    0.7076 H   0  0  0  0  0  0  0  0  0  0  0  0
    0.1093   -0.6246   -1.3926 C   0  0  0  0  0  0  0  0  0  0  0  0
    0.6200    0.3139   -1.6269 H   0  0  0  0  0  0  0  0  0  0  0  0
    0.8488   -1.4273   -1.4656 H   0  0  0  0  0  0  0  0  0  0  0  0
   -0.9503   -0.8643   -2.4389 C   0  0  0  0  0  0  0  0  0  0  0  0
   -2.1900   -0.2385   -2.4997 N   0  0  0  0  0  0  0  0  0  0  0  0
   -2.8056   -0.7144   -3.5540 C   0  0  0  0  0  0  0  0  0  0  0  0
   -3.7976   -0.4159   -3.8811 H   0  0  0  0  0  0  0  0  0  0  0  0
   -2.0069   -1.6522   -4.1794 N   0  0  0  0  0  0  0  0  0  0  0  0
   -2.2540   -2.1660   -5.0232 H   0  0  0  0  0  0  0  0  0  0  0  0
   -0.8274   -1.7524   -3.4719 C   0  0  0  0  0  0  0  0  0  0  0  0
    0.0268   -2.3909   -3.6772 H   0  0  0  0  0  0  0  0  0  0  0  0
   -0.6839    0.8704    0.5329 C   0  0  0  0  0  0  0  0  0  0  0  0
   -1.7627    1.4139    0.3303 O   0  0  0  0  0  0  0  0  0  0  0  0
    0.2499    1.5234    1.3191 N   0  0  0  0  0  0  0  0  0  0  0  0
    1.0895    1.0110    1.5720 H   0  0  0  0  0  0  0  0  0  0  0  0
    0.0207    2.8359    1.9107 C   0  0  0  0  0  0  0  0  0  0  0  0
   -0.8270    2.8012    2.6030 H   0  0  0  0  0  0  0  0  0  0  0  0
    0.9068    3.1615    2.4637 H   0  0  0  0  0  0  0  0  0  0  0  0
   -0.1906    3.5757    1.1314 H   0  0  0  0  0  0  0  0  0  0  0  0
  1  2  1  0  0  0  0
  2  3  1  0  0  0  0
  2  4  1  0  0  0  0
  2  5  1  0  0  0  0
  5  6  2  0  0  0  0
  5  7  1  0  0  0  0
  7  8  1  0  0  0  0
  7  9  1  0  0  0  0
  9 10  1  0  0  0  0
  9 11  1  0  0  0  0
  9 22  1  0  0  0  0
 11 12  1  0  0  0  0
 11 13  1  0  0  0  0
 11 14  1  0  0  0  0
 14 15  1  0  0  0  0
 14 20  2  0  0  0  0
 15 16  2  0  0  0  0
 16 17  1  0  0  0  0
 16 18  1  0  0  0  0
 18 19  1  0  0  0  0
 18 20  1  0  0  0  0
 20 21  1  0  0  0  0
 22 23  2  0  0  0  0
 22 24  1  0  0  0  0
 24 25  1  0  0  0  0
 24 26  1  0  0  0  0
 26 27  1  0  0  0  0
 26 28  1  0  0  0  0
 26 29  1  0  0  0  0
M  END
$$$$

  -OEChem-04042215593D

 29 29  0     1  0  0  0  0  0999 V2000
   -2.7390   -4.4558    1.2764 H   0  0  0  0  0  0  0  0  0  0  0  0
   -2.9106   -3.4635    0.8501 C   0  0  0  0  0  0  0  0  0  0  0  0
   -3.5921   -2.9121    1.5024 H   0  0  0  0  0  0  0  0  0  0  0  0
   -3.3713   -3.5766   -0.1342 H   0  0  0  0  0  0  0  0  0  0  0  0
   -1.5978   -2.7142    0.7232 C   0  0  0  0  0  0  0  0  0  0  0  0
   -0.5529   -3.2466    1.0648 O   0  0  0  0  0  0  0  0  0  0  0  0
   -1.5868   -1.4425    0.1965 N   0  0  0  0  0  0  0  0  0  0  0  0
   -2.4762   -1.0322   -0.0881 H   0  0  0  0  0  0  0  0  0  0  0  0
   -0.3994   -0.5929    0.0389 C   0  0  1  0  0  0  0  0  0  0  0  0
    0.3937   -0.9642    0.6957 H   0  0  0  0  0  0  0  0  0  0  0  0
    0.1416   -0.6381   -1.4066 C   0  0  0  0  0  0  0  0  0  0  0  0
    0.6621    0.2960   -1.6375 H   0  0  0  0  0  0  0  0  0  0  0  0
    0.8755   -1.4467   -1.4692 H   0  0  0  0  0  0  0  0  0  0  0  0
   -0.9112   -0.8769   -2.4554 C   0  0  0  0  0  0  0  0  0  0  0  0
   -2.0048   -0.0545   -2.6881 N   0  0  0  0  0  0  0  0  0  0  0  0
   -2.6792   -0.5921   -3.6746 C   0  0  0  0  0  0  0  0  0  0  0  0
   -3.5929   -0.1835   -4.0971 H   0  0  0  0  0  0  0  0  0  0  0  0
   -2.0563   -1.7530   -4.0922 N   0  0  0  0  0  0  0  0  0  0  0  0
   -2.3794   -2.3548   -4.8473 H   0  0  0  0  0  0  0  0  0  0  0  0
   -0.9294   -1.9374   -3.3189 C   0  0  0  0  0  0  0  0  0  0  0  0
   -0.2037   -2.7440   -3.3672 H   0  0  0  0  0  0  0  0  0  0  0  0
   -0.6915    0.8493    0.5099 C   0  0  0  0  0  0  0  0  0  0  0  0
   -1.7928    1.3587    0.3397 O   0  0  0  0  0  0  0  0  0  0  0  0
    0.2277    1.5104    1.3065 N   0  0  0  0  0  0  0  0  0  0  0  0
    1.0927    1.0262    1.5275 H   0  0  0  0  0  0  0  0  0  0  0  0
   -0.0227    2.8161    1.9047 C   0  0  0  0  0  0  0  0  0  0  0  0
   -0.8595    2.7604    2.6088 H   0  0  0  0  0  0  0  0  0  0  0  0
    0.8637    3.1610    2.4456 H   0  0  0  0  0  0  0  0  0  0  0  0
   -0.2618    3.5522    1.1300 H   0  0  0  0  0  0  0  0  0  0  0  0
  1  2  1  0  0  0  0
  2  3  1  0  0  0  0
  2  4  1  0  0  0  0
  2  5  1  0  0  0  0
  5  6  2  0  0  0  0
  5  7  1  0  0  0  0
  7  8  1  0  0  0  0
  7  9  1  0  0  0  0
  9 10  1  0  0  0  0
  9 11  1  0  0  0  0
  9 22  1  0  0  0  0
 11 12  1  0  0  0  0
 11 13  1  0  0  0  0
 11 14  1  0  0  0  0
 14 15  1  0  0  0  0
 14 20  2  0  0  0  0
 15 16  2  0  0  0  0
 16 17  1  0  0  0  0
 16 18  1  0  0  0  0
 18 19  1  0  0  0  0
 18 20  1  0  0  0  0
 20 21  1  0  0  0  0
 22 23  2  0  0  0  0
 22 24  1  0  0  0  0
 24 25  1  0  0  0  0
 24 26  1  0  0  0  0
 26 27  1  0  0  0  0
 26 28  1  0  0  0  0
 26 29  1  0  0  0  0
M  END
$$$$

  -OEChem-04042215593D

 29 29  0     1  0  0  0  0  0999 V2000
   -2.7402   -4.4379    1.3616 H   0  0  0  0  0  0  0  0  0  0  0  0
   -2.9141   -3.4487    0.9291 C   0  0  0  0  0  0  0  0  0  0  0  0
   -3.5484   -2.8735    1.6081 H   0  0  0  0  0  0  0  0  0  0  0  0
   -3.4288   -3.5663   -0.0276 H   0  0  0  0  0  0  0  0  0  0  0  0
   -1.5950   -2.7298    0.7209 C   0  0  0  0  0  0  0  0  0  0  0  0
   -0.5440   -3.2829    1.0055 O   0  0  0  0  0  0  0  0  0  0  0  0
   -1.5861   -1.4612    0.1861 N   0  0  0  0  0  0  0  0  0  0  0  0
   -2.4841   -1.0188   -0.0086 H   0  0  0  0  0  0  0  0  0  0  0  0
   -0.3960   -0.6147    0.0267 C   0  0  1  0  0  0  0  0  0  0  0  0
    0.3944   -0.9821    0.6892 H   0  0  0  0  0  0  0  0  0  0  0  0
    0.1539   -0.6558   -1.4143 C   0  0  0  0  0  0  0  0  0  0  0  0
    0.6854    0.2728   -1.6429 H   0  0  0  0  0  0  0  0  0  0  0  0
    0.8793   -1.4721   -1.4735 H   0  0  0  0  0  0  0  0  0  0  0  0
   -0.8955   -0.8899   -2.4642 C   0  0  0  0  0  0  0  0  0  0  0  0
   -1.8048    0.0664   -2.8919 N   0  0  0  0  0  0  0  0  0  0  0  0
   -2.5373   -0.5009   -3.8189 C   0  0  0  0  0  0  0  0  0  0  0  0
   -3.3457   -0.0126   -4.3555 H   0  0  0  0  0  0  0  0  0  0  0  0
   -2.1258   -1.8066   -4.0120 N   0  0  0  0  0  0  0  0  0  0  0  0
   -2.5285   -2.4567   -4.6844 H   0  0  0  0  0  0  0  0  0  0  0  0
   -1.0754   -2.0568   -3.1541 C   0  0  0  0  0  0  0  0  0  0  0  0
   -0.5048   -2.9732   -3.0329 H   0  0  0  0  0  0  0  0  0  0  0  0
   -0.7003    0.8263    0.4920 C   0  0  0  0  0  0  0  0  0  0  0  0
   -1.8151    1.3111    0.3342 O   0  0  0  0  0  0  0  0  0  0  0  0
    0.2089    1.4978    1.2908 N   0  0  0  0  0  0  0  0  0  0  0  0
    1.0905    1.0352    1.4920 H   0  0  0  0  0  0  0  0  0  0  0  0
   -0.0584    2.7993    1.8908 C   0  0  0  0  0  0  0  0  0  0  0  0
   -0.8954    2.7322    2.5937 H   0  0  0  0  0  0  0  0  0  0  0  0
    0.8229    3.1532    2.4341 H   0  0  0  0  0  0  0  0  0  0  0  0
   -0.3052    3.5343    1.1173 H   0  0  0  0  0  0  0  0  0  0  0  0
  1  2  1  0  0  0  0
  2  3  1  0  0  0  0
  2  4  1  0  0  0  0
  2  5  1  0  0  0  0
  5  6  2  0  0  0  0
  5  7  1  0  0  0  0
  7  8  1  0  0  0  0
  7  9  1  0  0  0  0
  9 10  1  0  0  0  0
  9 11  1  0  0  0  0
  9 22  1  0  0  0  0
 11 12  1  0  0  0  0
 11 13  1  0  0  0  0
 11 14  1  0  0  0  0
 14 15  1  0  0  0  0
 14 20  2  0  0  0  0
 15 16  2  0  0  0  0
 16 17  1  0  0  0  0
 16 18  1  0  0  0  0
 18 19  1  0  0  0  0
 18 20  1  0  0  0  0
 20 21  1  0  0  0  0
 22 23  2  0  0  0  0
 22 24  1  0  0  0  0
 24 25  1  0  0  0  0
 24 26  1  0  0  0  0
 26 27  1  0  0  0  0
 26 28  1  0  0  0  0
 26 29  1  0  0  0  0
M  END
$$$$

  -OEChem-04042215593D

 29 29  0     1  0  0  0  0  0999 V2000
   -2.7313   -4.4389    1.4315 H   0  0  0  0  0  0  0  0  0  0  0  0
   -2.9099   -3.4505    0.9989 C   0  0  0  0  0  0  0  0  0  0  0  0
   -3.5157   -2.8652    1.6949 H   0  0  0  0  0  0  0  0  0  0  0  0
   -3.4573   -3.5691    0.0608 H   0  0  0  0  0  0  0  0  0  0  0  0
   -1.5913   -2.7458    0.7432 C   0  0  0  0  0  0  0  0  0  0  0  0
   -0.5372   -3.3063    0.9995 O   0  0  0  0  0  0  0  0  0  0  0  0
   -1.5866   -1.4818    0.1973 N   0  0  0  0  0  0  0  0  0  0  0  0
   -2.4865   -1.0253    0.0502 H   0  0  0  0  0  0  0  0  0  0  0  0
   -0.3942   -0.6389    0.0291 C   0  0  1  0  0  0  0  0  0  0  0  0
    0.3995   -1.0013    0.6907 H   0  0  0  0  0  0  0  0  0  0  0  0
    0.1511   -0.6717   -1.4139 C   0  0  0  0  0  0  0  0  0  0  0  0
    0.6932    0.2516   -1.6393 H   0  0  0  0  0  0  0  0  0  0  0  0
    0.8678   -1.4953   -1.4812 H   0  0  0  0  0  0  0  0  0  0  0  0
   -0.8994   -0.8955   -2.4634 C   0  0  0  0  0  0  0  0  0  0  0  0
   -1.5988    0.1256   -3.0898 N   0  0  0  0  0  0  0  0  0  0  0  0
   -2.3923   -0.4465   -3.9621 C   0  0  0  0  0  0  0  0  0  0  0  0
   -3.0793    0.0833   -4.6159 H   0  0  0  0  0  0  0  0  0  0  0  0
   -2.2199   -1.8182   -3.9301 N   0  0  0  0  0  0  0  0  0  0  0  0
   -2.7106   -2.4860   -4.5215 H   0  0  0  0  0  0  0  0  0  0  0  0
   -1.2588   -2.1078   -2.9844 C   0  0  0  0  0  0  0  0  0  0  0  0
   -0.8592   -3.0765   -2.6976 H   0  0  0  0  0  0  0  0  0  0  0  0
   -0.7083    0.8020    0.4867 C   0  0  0  0  0  0  0  0  0  0  0  0
   -1.8282    1.2739    0.3228 O   0  0  0  0  0  0  0  0  0  0  0  0
    0.1937    1.4863    1.2826 N   0  0  0  0  0  0  0  0  0  0  0  0
    1.0853    1.0395    1.4757 H   0  0  0  0  0  0  0  0  0  0  0  0
   -0.0803    2.7944    1.8650 C   0  0  0  0  0  0  0  0  0  0  0  0
   -0.9388    2.7401    2.5426 H   0  0  0  0  0  0  0  0  0  0  0  0
    0.7869    3.1444    2.4331 H   0  0  0  0  0  0  0  0  0  0  0  0
   -0.2964    3.5254    1.0788 H   0  0  0  0  0  0  0  0  0  0  0  0
  1  2  1  0  0  0  0
  2  3  1  0  0  0  0
  2  4  1  0  0  0  0
  2  5  1  0  0  0  0
  5  6  2  0  0  0  0
  5  7  1  0  0  0  0
  7  8  1  0  0  0  0
  7  9  1  0  0  0  0
  9 10  1  0  0  0  0
  9 11  1  0  0  0  0
  9 22  1  0  0  0  0
 11 12  1  0  0  0  0
 11 13  1  0  0  0  0
 11 14  1  0  0  0  0
 14 15  1  0  0  0  0
 14 20  2  0  0  0  0
 15 16  2  0  0  0  0
 16 17  1  0  0  0  0
 16 18  1  0  0  0  0
 18 19  1  0  0  0  0
 18 20  1  0  0  0  0
 20 21  1  0  0  0  0
 22 23  2  0  0  0  0
 22 24  1  0  0  0  0
 24 25  1  0  0  0  0
 24 26  1  0  0  0  0
 26 27  1  0  0  0  0
 26 28  1  0  0  0  0
 26 29  1  0  0  0  0
M  END
$$$$

  -OEChem-04042215593D

 29 29  0     1  0  0  0  0  0999 V2000
   -2.7222   -4.4402    1.5189 H   0  0  0  0  0  0  0  0  0  0  0  0
   -2.9047   -3.4533    1.0848 C   0  0  0  0  0  0  0  0  0  0  0  0
   -3.4830   -2.8574    1.7951 H   0  0  0  0  0  0  0  0  0  0  0  0
   -3.4825   -3.5731    0.1652 H   0  0  0  0  0  0  0  0  0  0  0  0
   -1.5883   -2.7633    0.7826 C   0  0  0  0  0  0  0  0  0  0  0  0
   -0.5322   -3.3326    1.0075 O   0  0  0  0  0  0  0  0  0  0  0  0
   -1.5889   -1.5037    0.2266 N   0  0  0  0  0  0  0  0  0  0  0  0
   -2.4887   -1.0361    0.1188 H   0  0  0  0  0  0  0  0  0  0  0  0
   -0.3964   -0.6653    0.0389 C   0  0  1  0  0  0  0  0  0  0  0  0
    0.4067   -1.0241    0.6908 H   0  0  0  0  0  0  0  0  0  0  0  0
    0.1324   -0.6823   -1.4118 C   0  0  0  0  0  0  0  0  0  0  0  0
    0.6805    0.2394   -1.6298 H   0  0  0  0  0  0  0  0  0  0  0  0
    0.8434   -1.5091   -1.4960 H   0  0  0  0  0  0  0  0  0  0  0  0
   -0.9200   -0.8909   -2.4636 C   0  0  0  0  0  0  0  0  0  0  0  0
   -1.3974    0.1256   -3.2789 N   0  0  0  0  0  0  0  0  0  0  0  0
   -2.2446   -0.4298   -4.1108 C   0  0  0  0  0  0  0  0  0  0  0  0
   -2.7987    0.1032   -4.8780 H   0  0  0  0  0  0  0  0  0  0  0  0
   -2.3176   -1.7901   -3.8743 N   0  0  0  0  0  0  0  0  0  0  0  0
   -2.8888   -2.4484   -4.4005 H   0  0  0  0  0  0  0  0  0  0  0  0
   -1.4594   -2.0913   -2.8379 C   0  0  0  0  0  0  0  0  0  0  0  0
   -1.2363   -3.0607   -2.4011 H   0  0  0  0  0  0  0  0  0  0  0  0
   -0.7164    0.7754    0.4925 C   0  0  0  0  0  0  0  0  0  0  0  0
   -1.8387    1.2394    0.3208 O   0  0  0  0  0  0  0  0  0  0  0  0
    0.1839    1.4736    1.2774 N   0  0  0  0  0  0  0  0  0  0  0  0
    1.0821    1.0383    1.4662 H   0  0  0  0  0  0  0  0  0  0  0  0
   -0.0935    2.7906    1.8373 C   0  0  0  0  0  0  0  0  0  0  0  0
   -0.9625    2.7493    2.5025 H   0  0  0  0  0  0  0  0  0  0  0  0
    0.7663    3.1449    2.4139 H   0  0  0  0  0  0  0  0  0  0  0  0
   -0.2949    3.5116    1.0379 H   0  0  0  0  0  0  0  0  0  0  0  0
  1  2  1  0  0  0  0
  2  3  1  0  0  0  0
  2  4  1  0  0  0  0
  2  5  1  0  0  0  0
  5  6  2  0  0  0  0
  5  7  1  0  0  0  0
  7  8  1  0  0  0  0
  7  9  1  0  0  0  0
  9 10  1  0  0  0  0
  9 11  1  0  0  0  0
  9 22  1  0  0  0  0
 11 12  1  0  0  0  0
 11 13  1  0  0  0  0
 11 14  1  0  0  0  0
 14 15  1  0  0  0  0
 14 20  2  0  0  0  0
 15 16  2  0  0  0  0
 16 17  1  0  0  0  0
 16 18  1  0  0  0  0
 18 19  1  0  0  0  0
 18 20  1  0  0  0  0
 20 21  1  0  0  0  0
 22 23  2  0  0  0  0
 22 24  1  0  0  0  0
 24 25  1  0  0  0  0
 24 26  1  0  0  0  0
 26 27  1  0  0  0  0
 26 28  1  0  0  0  0
 26 29  1  0  0  0  0
M  END
$$$$

  -OEChem-04042215593D

 29 29  0     1  0  0  0  0  0999 V2000
   -2.7044   -4.4516    1.5947 H   0  0  0  0  0  0  0  0  0  0  0  0
   -2.8976   -3.4617    1.1718 C   0  0  0  0  0  0  0  0  0  0  0  0
   -3.4526   -2.8687    1.9028 H   0  0  0  0  0  0  0  0  0  0  0  0
   -3.5037   -3.5753    0.2699 H   0  0  0  0  0  0  0  0  0  0  0  0
   -1.5891   -2.7732    0.8329 C   0  0  0  0  0  0  0  0  0  0  0  0
   -0.5282   -3.3415    1.0346 O   0  0  0  0  0  0  0  0  0  0  0  0
   -1.6030   -1.5165    0.2694 N   0  0  0  0  0  0  0  0  0  0  0  0
   -2.5044   -1.0461    0.1908 H   0  0  0  0  0  0  0  0  0  0  0  0
   -0.4139   -0.6802    0.0510 C   0  0  1  0  0  0  0  0  0  0  0  0
    0.4022   -1.0363    0.6884 H   0  0  0  0  0  0  0  0  0  0  0  0
    0.0944   -0.6817   -1.4093 C   0  0  0  0  0  0  0  0  0  0  0  0
    0.6417    0.2430   -1.6175 H   0  0  0  0  0  0  0  0  0  0  0  0
    0.8069   -1.5053   -1.5094 H   0  0  0  0  0  0  0  0  0  0  0  0
   -0.9514   -0.8789   -2.4725 C   0  0  0  0  0  0  0  0  0  0  0  0
   -1.1999    0.0630   -3.4623 N   0  0  0  0  0  0  0  0  0  0  0  0
   -2.0931   -0.4616   -4.2655 C   0  0  0  0  0  0  0  0  0  0  0  0
   -2.5073    0.0333   -5.1393 H   0  0  0  0  0  0  0  0  0  0  0  0
   -2.4162   -1.7377   -3.8442 N   0  0  0  0  0  0  0  0  0  0  0  0
   -3.0644   -2.3658   -4.3153 H   0  0  0  0  0  0  0  0  0  0  0  0
   -1.6711   -2.0172   -2.7185 C   0  0  0  0  0  0  0  0  0  0  0  0
   -1.6297   -2.9393   -2.1468 H   0  0  0  0  0  0  0  0  0  0  0  0
   -0.7286    0.7613    0.5053 C   0  0  0  0  0  0  0  0  0  0  0  0
   -1.8515    1.2255    0.3371 O   0  0  0  0  0  0  0  0  0  0  0  0
    0.1843    1.4670    1.2685 N   0  0  0  0  0  0  0  0  0  0  0  0
    1.0856    1.0335    1.4470 H   0  0  0  0  0  0  0  0  0  0  0  0
   -0.0858    2.7876    1.8236 C   0  0  0  0  0  0  0  0  0  0  0  0
   -0.9335    2.7462    2.5157 H   0  0  0  0  0  0  0  0  0  0  0  0
    0.7887    3.1543    2.3695 H   0  0  0  0  0  0  0  0  0  0  0  0
   -0.3173    3.4991    1.0239 H   0  0  0  0  0  0  0  0  0  0  0  0
  1  2  1  0  0  0  0
  2  3  1  0  0  0  0
  2  4  1  0  0  0  0
  2  5  1  0  0  0  0
  5  6  2  0  0  0  0
  5  7  1  0  0  0  0
  7  8  1  0  0  0  0
  7  9  1  0  0  0  0
  9 10  1  0  0  0  0
  9 11  1  0  0  0  0
  9 22  1  0  0  0  0
 11 12  1  0  0  0  0
 11 13  1  0  0  0  0
 11 14  1  0  0  0  0
 14 15  1  0  0  0  0
 14 20  2  0  0  0  0
 15 16  2  0  0  0  0
 16 17  1  0  0  0  0
 16 18  1  0  0  0  0
 18 19  1  0  0  0  0
 18 20  1  0  0  0  0
 20 21  1  0  0  0  0
 22 23  2  0  0  0  0
 22 24  1  0  0  0  0
 24 25  1  0  0  0  0
 24 26  1  0  0  0  0
 26 27  1  0  0  0  0
 26 28  1  0  0  0  0
 26 29  1  0  0  0  0
M  END
$$$$

  -OEChem-04042215593D

 29 29  0     1  0  0  0  0  0999 V2000
   -2.6557   -4.4621    1.7294 H   0  0  0  0  0  0  0  0  0  0  0  0
   -2.8685   -3.4829    1.2914 C   0  0  0  0  0  0  0  0  0  0  0  0
   -3.4009   -2.8762    2.0282 H   0  0  0  0  0  0  0  0  0  0  0  0
   -3.5053   -3.6201    0.4142 H   0  0  0  0  0  0  0  0  0  0  0  0
   -1.5747   -2.7981    0.8927 C   0  0  0  0  0  0  0  0  0  0  0  0
   -0.5067   -3.3609    1.0691 O   0  0  0  0  0  0  0  0  0  0  0  0
   -1.6098   -1.5463    0.3175 N   0  0  0  0  0  0  0  0  0  0  0  0
   -2.5113   -1.0709    0.2816 H   0  0  0  0  0  0  0  0  0  0  0  0
   -0.4276   -0.7111    0.0635 C   0  0  1  0  0  0  0  0  0  0  0  0
    0.4043   -1.0586    0.6850 H   0  0  0  0  0  0  0  0  0  0  0  0
    0.0585   -0.6937   -1.4067 C   0  0  0  0  0  0  0  0  0  0  0  0
    0.5989    0.2387   -1.5978 H   0  0  0  0  0  0  0  0  0  0  0  0
    0.7801   -1.5070   -1.5249 H   0  0  0  0  0  0  0  0  0  0  0  0
   -0.9705   -0.8768   -2.4936 C   0  0  0  0  0  0  0  0  0  0  0  0
   -0.9701   -0.0611   -3.6189 N   0  0  0  0  0  0  0  0  0  0  0  0
   -1.9210   -0.4980   -4.4079 C   0  0  0  0  0  0  0  0  0  0  0  0
   -2.1799   -0.0615   -5.3685 H   0  0  0  0  0  0  0  0  0  0  0  0
   -2.5320   -1.5998   -3.8425 N   0  0  0  0  0  0  0  0  0  0  0  0
   -3.2839   -2.1377   -4.2687 H   0  0  0  0  0  0  0  0  0  0  0  0
   -1.9152   -1.8590   -2.6370 C   0  0  0  0  0  0  0  0  0  0  0  0
   -2.1057   -2.6790   -1.9534 H   0  0  0  0  0  0  0  0  0  0  0  0
   -0.7466    0.7299    0.5166 C   0  0  0  0  0  0  0  0  0  0  0  0
   -1.8731    1.1876    0.3527 O   0  0  0  0  0  0  0  0  0  0  0  0
    0.1736    1.4509    1.2558 N   0  0  0  0  0  0  0  0  0  0  0  0
    1.0811    1.0260    1.4238 H   0  0  0  0  0  0  0  0  0  0  0  0
   -0.0905    2.7832    1.7851 C   0  0  0  0  0  0  0  0  0  0  0  0
   -0.9326    2.7583    2.4846 H   0  0  0  0  0  0  0  0  0  0  0  0
    0.7889    3.1597    2.3162 H   0  0  0  0  0  0  0  0  0  0  0  0
   -0.3271    3.4779    0.9723 H   0  0  0  0  0  0  0  0  0  0  0  0
  1  2  1  0  0  0  0
  2  3  1  0  0  0  0
  2  4  1  0  0  0  0
  2  5  1  0  0  0  0
  5  6  2  0  0  0  0
  5  7  1  0  0  0  0
  7  8  1  0  0  0  0
  7  9  1  0  0  0  0
  9 10  1  0  0  0  0
  9 11  1  0  0  0  0
  9 22  1  0  0  0  0
 11 12  1  0  0  0  0
 11 13  1  0  0  0  0
 11 14  1  0  0  0  0
 14 15  1  0  0  0  0
 14 20  2  0  0  0  0
 15 16  2  0  0  0  0
 16 17  1  0  0  0  0
 16 18  1  0  0  0  0
 18 19  1  0  0  0  0
 18 20  1  0  0  0  0
 20 21  1  0  0  0  0
 22 23  2  0  0  0  0
 22 24  1  0  0  0  0
 24 25  1  0  0  0  0
 24 26  1  0  0  0  0
 26 27  1  0  0  0  0
 26 28  1  0  0  0  0
 26 29  1  0  0  0  0
M  END
$$$$

  -OEChem-04042215593D

 29 29  0     1  0  0  0  0  0999 V2000
   -2.5970   -4.4748    1.8331 H   0  0  0  0  0  0  0  0  0  0  0  0
   -2.8279   -3.5080    1.3770 C   0  0  0  0  0  0  0  0  0  0  0  0
   -3.3574   -2.8919    2.1079 H   0  0  0  0  0  0  0  0  0  0  0  0
   -3.4746   -3.6727    0.5119 H   0  0  0  0  0  0  0  0  0  0  0  0
   -1.5492   -2.8157    0.9445 C   0  0  0  0  0  0  0  0  0  0  0  0
   -0.4724   -3.3641    1.1127 O   0  0  0  0  0  0  0  0  0  0  0  0
   -1.6098   -1.5680    0.3612 N   0  0  0  0  0  0  0  0  0  0  0  0
   -2.5116   -1.0919    0.3653 H   0  0  0  0  0  0  0  0  0  0  0  0
   -0.4387   -0.7309    0.0705 C   0  0  1  0  0  0  0  0  0  0  0  0
    0.4096   -1.0698    0.6743 H   0  0  0  0  0  0  0  0  0  0  0  0
    0.0195   -0.7106   -1.4099 C   0  0  0  0  0  0  0  0  0  0  0  0
    0.5494    0.2287   -1.5980 H   0  0  0  0  0  0  0  0  0  0  0  0
    0.7505   -1.5143   -1.5361 H   0  0  0  0  0  0  0  0  0  0  0  0
   -0.9951   -0.8941   -2.5148 C   0  0  0  0  0  0  0  0  0  0  0  0
   -0.7700   -0.2839   -3.7444 N   0  0  0  0  0  0  0  0  0  0  0  0
   -1.7734   -0.6021   -4.5243 C   0  0  0  0  0  0  0  0  0  0  0  0
   -1.8895   -0.2732   -5.5531 H   0  0  0  0  0  0  0  0  0  0  0  0
   -2.6527   -1.4199   -3.8446 N   0  0  0  0  0  0  0  0  0  0  0  0
   -3.5089   -1.8120   -4.2315 H   0  0  0  0  0  0  0  0  0  0  0  0
   -2.1599   -1.6165   -2.5722 C   0  0  0  0  0  0  0  0  0  0  0  0
   -2.5919   -2.2295   -1.7911 H   0  0  0  0  0  0  0  0  0  0  0  0
   -0.7565    0.7100    0.5236 C   0  0  0  0  0  0  0  0  0  0  0  0
   -1.8884    1.1603    0.3761 O   0  0  0  0  0  0  0  0  0  0  0  0
    0.1763    1.4423    1.2353 N   0  0  0  0  0  0  0  0  0  0  0  0
    1.0891    1.0225    1.3882 H   0  0  0  0  0  0  0  0  0  0  0  0
   -0.0868    2.7728    1.7696 C   0  0  0  0  0  0  0  0  0  0  0  0
   -0.8974    2.7370    2.5048 H   0  0  0  0  0  0  0  0  0  0  0  0
    0.8082    3.1662    2.2608 H   0  0  0  0  0  0  0  0  0  0  0  0
   -0.3696    3.4601    0.9652 H   0  0  0  0  0  0  0  0  0  0  0  0
  1  2  1  0  0  0  0
  2  3  1  0  0  0  0
  2  4  1  0  0  0  0
  2  5  1  0  0  0  0
  5  6  2  0  0  0  0
  5  7  1  0  0  0  0
  7  8  1  0  0  0  0
  7  9  1  0  0  0  0
  9 10  1  0  0  0  0
  9 11  1  0  0  0  0
  9 22  1  0  0  0  0
 11 12  1  0  0  0  0
 11 13  1  0  0  0  0
 11 14  1  0  0  0  0
 14 15  1  0  0  0  0
 14 20  2  0  0  0  0
 15 16  2  0  0  0  0
 16 17  1  0  0  0  0
 16 18  1  0  0  0  0
 18 19  1  0  0  0  0
 18 20  1  0  0  0  0
 20 21  1  0  0  0  0
 22 23  2  0  0  0  0
 22 24  1  0  0  0  0
 24 25  1  0  0  0  0
 24 26  1  0  0  0  0
 26 27  1  0  0  0  0
 26 28  1  0  0  0  0
 26 29  1  0  0  0  0
M  END
$$$$

  -OEChem-04042215593D

 29 29  0     1  0  0  0  0  0999 V2000
   -2.5573   -4.4891    1.8795 H   0  0  0  0  0  0  0  0  0  0  0  0
   -2.7991   -3.5303    1.4120 C   0  0  0  0  0  0  0  0  0  0  0  0
   -3.3253   -2.9076    2.1396 H   0  0  0  0  0  0  0  0  0  0  0  0
   -3.4530   -3.7113    0.5556 H   0  0  0  0  0  0  0  0  0  0  0  0
   -1.5290   -2.8368    0.9562 C   0  0  0  0  0  0  0  0  0  0  0  0
   -0.4480   -3.3804    1.1123 O   0  0  0  0  0  0  0  0  0  0  0  0
   -1.6029   -1.5879    0.3769 N   0  0  0  0  0  0  0  0  0  0  0  0
   -2.5009   -1.1082    0.4230 H   0  0  0  0  0  0  0  0  0  0  0  0
   -0.4385   -0.7465    0.0725 C   0  0  1  0  0  0  0  0  0  0  0  0
    0.4201   -1.0836    0.6629 H   0  0  0  0  0  0  0  0  0  0  0  0
   -0.0052   -0.7217   -1.4148 C   0  0  0  0  0  0  0  0  0  0  0  0
    0.5256    0.2159   -1.6078 H   0  0  0  0  0  0  0  0  0  0  0  0
    0.7218   -1.5278   -1.5491 H   0  0  0  0  0  0  0  0  0  0  0  0
   -1.0238   -0.9017   -2.5177 C   0  0  0  0  0  0  0  0  0  0  0  0
   -0.6530   -0.5612   -3.8146 N   0  0  0  0  0  0  0  0  0  0  0  0
   -1.6962   -0.7580   -4.5821 C   0  0  0  0  0  0  0  0  0  0  0  0
   -1.7224   -0.5805   -5.6533 H   0  0  0  0  0  0  0  0  0  0  0  0
   -2.7523   -1.2203   -3.8249 N   0  0  0  0  0  0  0  0  0  0  0  0
   -3.6805   -1.4372   -4.1822 H   0  0  0  0  0  0  0  0  0  0  0  0
   -2.3361   -1.3041   -2.5133 C   0  0  0  0  0  0  0  0  0  0  0  0
   -2.9301   -1.6133   -1.6635 H   0  0  0  0  0  0  0  0  0  0  0  0
   -0.7562    0.6912    0.5334 C   0  0  0  0  0  0  0  0  0  0  0  0
   -1.8908    1.1374    0.3936 O   0  0  0  0  0  0  0  0  0  0  0  0
    0.1805    1.4279    1.2349 N   0  0  0  0  0  0  0  0  0  0  0  0
    1.0985    1.0146    1.3748 H   0  0  0  0  0  0  0  0  0  0  0  0
   -0.0814    2.7603    1.7648 C   0  0  0  0  0  0  0  0  0  0  0  0
   -0.8976    2.7293    2.4939 H   0  0  0  0  0  0  0  0  0  0  0  0
    0.8115    3.1512    2.2619 H   0  0  0  0  0  0  0  0  0  0  0  0
   -0.3555    3.4467    0.9570 H   0  0  0  0  0  0  0  0  0  0  0  0
  1  2  1  0  0  0  0
  2  3  1  0  0  0  0
  2  4  1  0  0  0  0
  2  5  1  0  0  0  0
  5  6  2  0  0  0  0
  5  7  1  0  0  0  0
  7  8  1  0  0  0  0
  7  9  1  0  0  0  0
  9 10  1  0  0  0  0
  9 11  1  0  0  0  0
  9 22  1  0  0  0  0
 11 12  1  0  0  0  0
 11 13  1  0  0  0  0
 11 14  1  0  0  0  0
 14 15  1  0  0  0  0
 14 20  2  0  0  0  0
 15 16  2  0  0  0  0
 16 17  1  0  0  0  0
 16 18  1  0  0  0  0
 18 19  1  0  0  0  0
 18 20  1  0  0  0  0
 20 21  1  0  0  0  0
 22 23  2  0  0  0  0
 22 24  1  0  0  0  0
 24 25  1  0  0  0  0
 24 26  1  0  0  0  0
 26 27  1  0  0  0  0
 26 28  1  0  0  0  0
 26 29  1  0  0  0  0
M  END
$$$$

  -OEChem-04042215593D

 29 29  0     1  0  0  0  0  0999 V2000
   -2.5671   -4.5372    1.5890 H   0  0  0  0  0  0  0  0  0  0  0  0
   -2.8062   -3.5565    1.1678 C   0  0  0  0  0  0  0  0  0  0  0  0
   -3.3880   -2.9912    1.8996 H   0  0  0  0  0  0  0  0  0  0  0  0
   -3.4055   -3.6974    0.2651 H   0  0  0  0  0  0  0  0  0  0  0  0
   -1.5307   -2.8090    0.8286 C   0  0  0  0  0  0  0  0  0  0  0  0
   -0.4464   -3.3282    1.0380 O   0  0  0  0  0  0  0  0  0  0  0  0
   -1.6041   -1.5392    0.2962 N   0  0  0  0  0  0  0  0  0  0  0  0
   -2.5193   -1.0951    0.2858 H   0  0  0  0  0  0  0  0  0  0  0  0
   -0.4410   -0.6723    0.0536 C   0  0  1  0  0  0  0  0  0  0  0  0
    0.4074   -1.0302    0.6462 H   0  0  0  0  0  0  0  0  0  0  0  0
   -0.0029   -0.6687   -1.4269 C   0  0  0  0  0  0  0  0  0  0  0  0
    0.7306    0.1282   -1.5805 H   0  0  0  0  0  0  0  0  0  0  0  0
    0.5084   -1.6173   -1.6161 H   0  0  0  0  0  0  0  0  0  0  0  0
   -1.0657   -0.5353   -2.4909 C   0  0  0  0  0  0  0  0  0  0  0  0
   -0.7024   -0.5316   -3.8328 N   0  0  0  0  0  0  0  0  0  0  0  0
   -1.7964   -0.3337   -4.5267 C   0  0  0  0  0  0  0  0  0  0  0  0
   -1.8434   -0.2808   -5.6106 H   0  0  0  0  0  0  0  0  0  0  0  0
   -2.8731   -0.1926   -3.6750 N   0  0  0  0  0  0  0  0  0  0  0  0
   -3.8277    0.0124   -3.9633 H   0  0  0  0  0  0  0  0  0  0  0  0
   -2.4117   -0.2985   -2.3805 C   0  0  0  0  0  0  0  0  0  0  0  0
   -2.9801   -0.1708   -1.4659 H   0  0  0  0  0  0  0  0  0  0  0  0
   -0.7389    0.7590    0.5460 C   0  0  0  0  0  0  0  0  0  0  0  0
   -1.8641    1.2300    0.4120 O   0  0  0  0  0  0  0  0  0  0  0  0
    0.2030    1.4544    1.2819 N   0  0  0  0  0  0  0  0  0  0  0  0
    1.1032    1.0086    1.4367 H   0  0  0  0  0  0  0  0  0  0  0  0
   -0.0461    2.7629    1.8737 C   0  0  0  0  0  0  0  0  0  0  0  0
   -0.8888    2.7146    2.5712 H   0  0  0  0  0  0  0  0  0  0  0  0
    0.8367    3.1034    2.4231 H   0  0  0  0  0  0  0  0  0  0  0  0
   -0.2735    3.4980    1.0949 H   0  0  0  0  0  0  0  0  0  0  0  0
  1  2  1  0  0  0  0
  2  3  1  0  0  0  0
  2  4  1  0  0  0  0
  2  5  1  0  0  0  0
  5  6  2  0  0  0  0
  5  7  1  0  0  0  0
  7  8  1  0  0  0  0
  7  9  1  0  0  0  0
  9 10  1  0  0  0  0
  9 11  1  0  0  0  0
  9 22  1  0  0  0  0
 11 12  1  0  0  0  0
 11 13  1  0  0  0  0
 11 14  1  0  0  0  0
 14 15  1  0  0  0  0
 14 20  2  0  0  0  0
 15 16  2  0  0  0  0
 16 17  1  0  0  0  0
 16 18  1  0  0  0  0
 18 19  1  0  0  0  0
 18 20  1  0  0  0  0
 20 21  1  0  0  0  0
 22 23  2  0  0  0  0
 22 24  1  0  0  0  0
 24 25  1  0  0  0  0
 24 26  1  0  0  0  0
 26 27  1  0  0  0  0
 26 28  1  0  0  0  0
 26 29  1  0  0  0  0
M  END
$$$$

  -OEChem-04042215593D

 29 29  0     1  0  0  0  0  0999 V2000
   -2.6066   -4.5208    1.4723 H   0  0  0  0  0  0  0  0  0  0  0  0
   -2.8360   -3.5347    1.0591 C   0  0  0  0  0  0  0  0  0  0  0  0
   -3.4581   -2.9895    1.7729 H   0  0  0  0  0  0  0  0  0  0  0  0
   -3.3900   -3.6639    0.1262 H   0  0  0  0  0  0  0  0  0  0  0  0
   -1.5541   -2.7678    0.7962 C   0  0  0  0  0  0  0  0  0  0  0  0
   -0.4747   -3.2811    1.0426 O   0  0  0  0  0  0  0  0  0  0  0  0
   -1.6170   -1.4867    0.2907 N   0  0  0  0  0  0  0  0  0  0  0  0
   -2.5386   -1.0660    0.2015 H   0  0  0  0  0  0  0  0  0  0  0  0
   -0.4526   -0.6164    0.0665 C   0  0  1  0  0  0  0  0  0  0  0  0
    0.3894   -0.9911    0.6579 H   0  0  0  0  0  0  0  0  0  0  0  0
   -0.0075   -0.6245   -1.4113 C   0  0  0  0  0  0  0  0  0  0  0  0
    0.7291    0.1672   -1.5746 H   0  0  0  0  0  0  0  0  0  0  0  0
    0.4991   -1.5781   -1.5885 H   0  0  0  0  0  0  0  0  0  0  0  0
   -1.0757   -0.5022   -2.4710 C   0  0  0  0  0  0  0  0  0  0  0  0
   -0.7876   -0.8121   -3.7951 N   0  0  0  0  0  0  0  0  0  0  0  0
   -1.8794   -0.5940   -4.4868 C   0  0  0  0  0  0  0  0  0  0  0  0
   -1.9763   -0.7421   -5.5587 H   0  0  0  0  0  0  0  0  0  0  0  0
   -2.8819   -0.1443   -3.6512 N   0  0  0  0  0  0  0  0  0  0  0  0
   -3.8191    0.1216   -3.9470 H   0  0  0  0  0  0  0  0  0  0  0  0
   -2.3746   -0.0753   -2.3714 C   0  0  0  0  0  0  0  0  0  0  0  0
   -2.8831    0.2712   -1.4780 H   0  0  0  0  0  0  0  0  0  0  0  0
   -0.7192    0.8147    0.5791 C   0  0  0  0  0  0  0  0  0  0  0  0
   -1.8299    1.3196    0.4537 O   0  0  0  0  0  0  0  0  0  0  0  0
    0.2420    1.4788    1.3191 N   0  0  0  0  0  0  0  0  0  0  0  0
    1.1262    1.0029    1.4768 H   0  0  0  0  0  0  0  0  0  0  0  0
    0.0245    2.7821    1.9347 C   0  0  0  0  0  0  0  0  0  0  0  0
   -0.7917    2.7310    2.6628 H   0  0  0  0  0  0  0  0  0  0  0  0
    0.9304    3.1106    2.4532 H   0  0  0  0  0  0  0  0  0  0  0  0
   -0.2277    3.5282    1.1737 H   0  0  0  0  0  0  0  0  0  0  0  0
  1  2  1  0  0  0  0
  2  3  1  0  0  0  0
  2  4  1  0  0  0  0
  2  5  1  0  0  0  0
  5  6  2  0  0  0  0
  5  7  1  0  0  0  0
  7  8  1  0  0  0  0
  7  9  1  0  0  0  0
  9 10  1  0  0  0  0
  9 11  1  0  0  0  0
  9 22  1  0  0  0  0
 11 12  1  0  0  0  0
 11 13  1  0  0  0  0
 11 14  1  0  0  0  0
 14 15  1  0  0  0  0
 14 20  2  0  0  0  0
 15 16  2  0  0  0  0
 16 17  1  0  0  0  0
 16 18  1  0  0  0  0
 18 19  1  0  0  0  0
 18 20  1  0  0  0  0
 20 21  1  0  0  0  0
 22 23  2  0  0  0  0
 22 24  1  0  0  0  0
 24 25  1  0  0  0  0
 24 26  1  0  0  0  0
 26 27  1  0  0  0  0
 26 28  1  0  0  0  0
 26 29  1  0  0  0  0
M  END
$$$$

  -OEChem-04042215593D

 29 29  0     1  0  0  0  0  0999 V2000
   -2.6381   -4.5110    1.3583 H   0  0  0  0  0  0  0  0  0  0  0  0
   -2.8590   -3.5208    0.9500 C   0  0  0  0  0  0  0  0  0  0  0  0
   -3.5260   -2.9968    1.6387 H   0  0  0  0  0  0  0  0  0  0  0  0
   -3.3604   -3.6411   -0.0135 H   0  0  0  0  0  0  0  0  0  0  0  0
   -1.5760   -2.7319    0.7700 C   0  0  0  0  0  0  0  0  0  0  0  0
   -0.5043   -3.2352    1.0666 O   0  0  0  0  0  0  0  0  0  0  0  0
   -1.6301   -1.4421    0.2855 N   0  0  0  0  0  0  0  0  0  0  0  0
   -2.5498   -1.0451    0.1097 H   0  0  0  0  0  0  0  0  0  0  0  0
   -0.4640   -0.5705    0.0790 C   0  0  1  0  0  0  0  0  0  0  0  0
    0.3705   -0.9584    0.6724 H   0  0  0  0  0  0  0  0  0  0  0  0
   -0.0073   -0.5931   -1.3944 C   0  0  0  0  0  0  0  0  0  0  0  0
    0.7324    0.1941   -1.5644 H   0  0  0  0  0  0  0  0  0  0  0  0
    0.4975   -1.5504   -1.5570 H   0  0  0  0  0  0  0  0  0  0  0  0
   -1.0763   -0.4826   -2.4538 C   0  0  0  0  0  0  0  0  0  0  0  0
   -0.9043   -1.0833   -3.6956 N   0  0  0  0  0  0  0  0  0  0  0  0
   -1.9806   -0.8273   -4.3979 C   0  0  0  0  0  0  0  0  0  0  0  0
   -2.1493   -1.1583   -5.4186 H   0  0  0  0  0  0  0  0  0  0  0  0
   -2.8622   -0.0759   -3.6471 N   0  0  0  0  0  0  0  0  0  0  0  0
   -3.7654    0.2673   -3.9683 H   0  0  0  0  0  0  0  0  0  0  0  0
   -2.2929    0.1470   -2.4119 C   0  0  0  0  0  0  0  0  0  0  0  0
   -2.7128    0.7146   -1.5884 H   0  0  0  0  0  0  0  0  0  0  0  0
   -0.7051    0.8604    0.6066 C   0  0  0  0  0  0  0  0  0  0  0  0
   -1.8035    1.3925    0.4906 O   0  0  0  0  0  0  0  0  0  0  0  0
    0.2711    1.4976    1.3512 N   0  0  0  0  0  0  0  0  0  0  0  0
    1.1418    0.9980    1.5104 H   0  0  0  0  0  0  0  0  0  0  0  0
    0.0855    2.8027    1.9738 C   0  0  0  0  0  0  0  0  0  0  0  0
   -0.7173    2.7623    2.7173 H   0  0  0  0  0  0  0  0  0  0  0  0
    1.0064    3.1160    2.4748 H   0  0  0  0  0  0  0  0  0  0  0  0
   -0.1692    3.5546    1.2196 H   0  0  0  0  0  0  0  0  0  0  0  0
  1  2  1  0  0  0  0
  2  3  1  0  0  0  0
  2  4  1  0  0  0  0
  2  5  1  0  0  0  0
  5  6  2  0  0  0  0
  5  7  1  0  0  0  0
  7  8  1  0  0  0  0
  7  9  1  0  0  0  0
  9 10  1  0  0  0  0
  9 11  1  0  0  0  0
  9 22  1  0  0  0  0
 11 12  1  0  0  0  0
 11 13  1  0  0  0  0
 11 14  1  0  0  0  0
 14 15  1  0  0  0  0
 14 20  2  0  0  0  0
 15 16  2  0  0  0  0
 16 17  1  0  0  0  0
 16 18  1  0  0  0  0
 18 19  1  0  0  0  0
 18 20  1  0  0  0  0
 20 21  1  0  0  0  0
 22 23  2  0  0  0  0
 22 24  1  0  0  0  0
 24 25  1  0  0  0  0
 24 26  1  0  0  0  0
 26 27  1  0  0  0  0
 26 28  1  0  0  0  0
 26 29  1  0  0  0  0
M  END
$$$$

  -OEChem-04042215593D

 29 29  0     1  0  0  0  0  0999 V2000
   -2.6583   -4.5002    1.2807 H   0  0  0  0  0  0  0  0  0  0  0  0
   -2.8680   -3.5075    0.8728 C   0  0  0  0  0  0  0  0  0  0  0  0
   -3.5741   -2.9975    1.5323 H   0  0  0  0  0  0  0  0  0  0  0  0
   -3.3188   -3.6215   -0.1161 H   0  0  0  0  0  0  0  0  0  0  0  0
   -1.5854   -2.7047    0.7658 C   0  0  0  0  0  0  0  0  0  0  0  0
   -0.5266   -3.1961    1.1236 O   0  0  0  0  0  0  0  0  0  0  0  0
   -1.6261   -1.4164    0.2763 N   0  0  0  0  0  0  0  0  0  0  0  0
   -2.5352   -1.0394    0.0190 H   0  0  0  0  0  0  0  0  0  0  0  0
   -0.4535   -0.5521    0.0810 C   0  0  1  0  0  0  0  0  0  0  0  0
    0.3735   -0.9413    0.6836 H   0  0  0  0  0  0  0  0  0  0  0  0
    0.0100   -0.5991   -1.3896 C   0  0  0  0  0  0  0  0  0  0  0  0
    0.7503    0.1852   -1.5702 H   0  0  0  0  0  0  0  0  0  0  0  0
    0.5132   -1.5591   -1.5416 H   0  0  0  0  0  0  0  0  0  0  0  0
   -1.0713   -0.4949   -2.4366 C   0  0  0  0  0  0  0  0  0  0  0  0
   -1.0886   -1.3398   -3.5404 N   0  0  0  0  0  0  0  0  0  0  0  0
   -2.1276   -1.0026   -4.2644 C   0  0  0  0  0  0  0  0  0  0  0  0
   -2.4147   -1.4778   -5.1982 H   0  0  0  0  0  0  0  0  0  0  0  0
   -2.7970    0.0447   -3.6637 N   0  0  0  0  0  0  0  0  0  0  0  0
   -3.6282    0.5021   -4.0336 H   0  0  0  0  0  0  0  0  0  0  0  0
   -2.1274    0.3748   -2.5052 C   0  0  0  0  0  0  0  0  0  0  0  0
   -2.3749    1.1670   -1.8062 H   0  0  0  0  0  0  0  0  0  0  0  0
   -0.6913    0.8820    0.6003 C   0  0  0  0  0  0  0  0  0  0  0  0
   -1.7822    1.4253    0.4677 O   0  0  0  0  0  0  0  0  0  0  0  0
    0.2822    1.5129    1.3536 N   0  0  0  0  0  0  0  0  0  0  0  0
    1.1371    0.9958    1.5412 H   0  0  0  0  0  0  0  0  0  0  0  0
    0.0899    2.8077    1.9954 C   0  0  0  0  0  0  0  0  0  0  0  0
   -0.7247    2.7563    2.7254 H   0  0  0  0  0  0  0  0  0  0  0  0
    1.0035    3.1098    2.5165 H   0  0  0  0  0  0  0  0  0  0  0  0
   -0.1509    3.5731    1.2502 H   0  0  0  0  0  0  0  0  0  0  0  0
  1  2  1  0  0  0  0
  2  3  1  0  0  0  0
  2  4  1  0  0  0  0
  2  5  1  0  0  0  0
  5  6  2  0  0  0  0
  5  7  1  0  0  0  0
  7  8  1  0  0  0  0
  7  9  1  0  0  0  0
  9 10  1  0  0  0  0
  9 11  1  0  0  0  0
  9 22  1  0  0  0  0
 11 12  1  0  0  0  0
 11 13  1  0  0  0  0
 11 14  1  0  0  0  0
 14 15  1  0  0  0  0
 14 20  2  0  0  0  0
 15 16  2  0  0  0  0
 16 17  1  0  0  0  0
 16 18  1  0  0  0  0
 18 19  1  0  0  0  0
 18 20  1  0  0  0  0
 20 21  1  0  0  0  0
 22 23  2  0  0  0  0
 22 24  1  0  0  0  0
 24 25  1  0  0  0  0
 24 26  1  0  0  0  0
 26 27  1  0  0  0  0
 26 28  1  0  0  0  0
 26 29  1  0  0  0  0
M  END
$$$$

  -OEChem-04042215593D

 29 29  0     1  0  0  0  0  0999 V2000
   -2.6712   -4.5137    1.2273 H   0  0  0  0  0  0  0  0  0  0  0  0
   -2.8665   -3.5246    0.8040 C   0  0  0  0  0  0  0  0  0  0  0  0
   -3.6239   -3.0237    1.4115 H   0  0  0  0  0  0  0  0  0  0  0  0
   -3.2459   -3.6459   -0.2137 H   0  0  0  0  0  0  0  0  0  0  0  0
   -1.5912   -2.7034    0.7839 C   0  0  0  0  0  0  0  0  0  0  0  0
   -0.5543   -3.1744    1.2246 O   0  0  0  0  0  0  0  0  0  0  0  0
   -1.6138   -1.4230    0.2739 N   0  0  0  0  0  0  0  0  0  0  0  0
   -2.5005   -1.0777   -0.0860 H   0  0  0  0  0  0  0  0  0  0  0  0
   -0.4325   -0.5676    0.0939 C   0  0  1  0  0  0  0  0  0  0  0  0
    0.3876   -0.9531    0.7084 H   0  0  0  0  0  0  0  0  0  0  0  0
    0.0345   -0.6227   -1.3753 C   0  0  0  0  0  0  0  0  0  0  0  0
    0.7703    0.1655   -1.5570 H   0  0  0  0  0  0  0  0  0  0  0  0
    0.5380   -1.5808   -1.5373 H   0  0  0  0  0  0  0  0  0  0  0  0
   -1.0668   -0.5065   -2.3974 C   0  0  0  0  0  0  0  0  0  0  0  0
   -1.3263   -1.5041   -3.3298 N   0  0  0  0  0  0  0  0  0  0  0  0
   -2.3054   -1.0705   -4.0863 C   0  0  0  0  0  0  0  0  0  0  0  0
   -2.7421   -1.6224   -4.9139 H   0  0  0  0  0  0  0  0  0  0  0  0
   -2.6940    0.1894   -3.6757 N   0  0  0  0  0  0  0  0  0  0  0  0
   -3.4281    0.7494   -4.1052 H   0  0  0  0  0  0  0  0  0  0  0  0
   -1.9013    0.5568   -2.6097 C   0  0  0  0  0  0  0  0  0  0  0  0
   -1.9222    1.4915   -2.0559 H   0  0  0  0  0  0  0  0  0  0  0  0
   -0.6830    0.8733    0.5872 C   0  0  0  0  0  0  0  0  0  0  0  0
   -1.7527    1.4336    0.3752 O   0  0  0  0  0  0  0  0  0  0  0  0
    0.2694    1.5160    1.3573 N   0  0  0  0  0  0  0  0  0  0  0  0
    1.1029    0.9897    1.6057 H   0  0  0  0  0  0  0  0  0  0  0  0
    0.0671    2.8322    1.9508 C   0  0  0  0  0  0  0  0  0  0  0  0
   -0.7721    2.8105    2.6540 H   0  0  0  0  0  0  0  0  0  0  0  0
    0.9651    3.1442    2.4928 H   0  0  0  0  0  0  0  0  0  0  0  0
   -0.1419    3.5751    1.1739 H   0  0  0  0  0  0  0  0  0  0  0  0
  1  2  1  0  0  0  0
  2  3  1  0  0  0  0
  2  4  1  0  0  0  0
  2  5  1  0  0  0  0
  5  6  2  0  0  0  0
  5  7  1  0  0  0  0
  7  8  1  0  0  0  0
  7  9  1  0  0  0  0
  9 10  1  0  0  0  0
  9 11  1  0  0  0  0
  9 22  1  0  0  0  0
 11 12  1  0  0  0  0
 11 13  1  0  0  0  0
 11 14  1  0  0  0  0
 14 15  1  0  0  0  0
 14 20  2  0  0  0  0
 15 16  2  0  0  0  0
 16 17  1  0  0  0  0
 16 18  1  0  0  0  0
 18 19  1  0  0  0  0
 18 20  1  0  0  0  0
 20 21  1  0  0  0  0
 22 23  2  0  0  0  0
 22 24  1  0  0  0  0
 24 25  1  0  0  0  0
 24 26  1  0  0  0  0
 26 27  1  0  0  0  0
 26 28  1  0  0  0  0
 26 29  1  0  0  0  0
M  END
$$$$

  -OEChem-04042215593D

 29 29  0     1  0  0  0  0  0999 V2000
   -2.6701   -4.5328    1.1619 H   0  0  0  0  0  0  0  0  0  0  0  0
   -2.8559   -3.5477    0.7251 C   0  0  0  0  0  0  0  0  0  0  0  0
   -3.6702   -3.0662    1.2718 H   0  0  0  0  0  0  0  0  0  0  0  0
   -3.1518   -3.6758   -0.3193 H   0  0  0  0  0  0  0  0  0  0  0  0
   -1.6031   -2.6959    0.8044 C   0  0  0  0  0  0  0  0  0  0  0  0
   -0.5973   -3.1368    1.3391 O   0  0  0  0  0  0  0  0  0  0  0  0
   -1.6101   -1.4247    0.2720 N   0  0  0  0  0  0  0  0  0  0  0  0
   -2.4544   -1.1334   -0.2153 H   0  0  0  0  0  0  0  0  0  0  0  0
   -0.4187   -0.5796    0.1114 C   0  0  1  0  0  0  0  0  0  0  0  0
    0.3930   -0.9628    0.7380 H   0  0  0  0  0  0  0  0  0  0  0  0
    0.0542   -0.6381   -1.3552 C   0  0  0  0  0  0  0  0  0  0  0  0
    0.7914    0.1501   -1.5323 H   0  0  0  0  0  0  0  0  0  0  0  0
    0.5517   -1.5970   -1.5290 H   0  0  0  0  0  0  0  0  0  0  0  0
   -1.0620   -0.5044   -2.3568 C   0  0  0  0  0  0  0  0  0  0  0  0
   -1.5650   -1.5752   -3.0868 N   0  0  0  0  0  0  0  0  0  0  0  0
   -2.4826   -1.0855   -3.8858 C   0  0  0  0  0  0  0  0  0  0  0  0
   -3.0684   -1.6696   -4.5897 H   0  0  0  0  0  0  0  0  0  0  0  0
   -2.5921    0.2787   -3.6983 N   0  0  0  0  0  0  0  0  0  0  0  0
   -3.2374    0.8924   -4.1922 H   0  0  0  0  0  0  0  0  0  0  0  0
   -1.6819    0.6539   -2.7339 C   0  0  0  0  0  0  0  0  0  0  0  0
   -1.4938    1.6481   -2.3364 H   0  0  0  0  0  0  0  0  0  0  0  0
   -0.6745    0.8708    0.5740 C   0  0  0  0  0  0  0  0  0  0  0  0
   -1.7047    1.4593    0.2649 O   0  0  0  0  0  0  0  0  0  0  0  0
    0.2595    1.5203    1.3609 N   0  0  0  0  0  0  0  0  0  0  0  0
    1.0623    0.9811    1.6741 H   0  0  0  0  0  0  0  0  0  0  0  0
    0.0632    2.8627    1.8944 C   0  0  0  0  0  0  0  0  0  0  0  0
   -0.8255    2.8950    2.5334 H   0  0  0  0  0  0  0  0  0  0  0  0
    0.9297    3.1626    2.4915 H   0  0  0  0  0  0  0  0  0  0  0  0
   -0.0607    3.5842    1.0801 H   0  0  0  0  0  0  0  0  0  0  0  0
  1  2  1  0  0  0  0
  2  3  1  0  0  0  0
  2  4  1  0  0  0  0
  2  5  1  0  0  0  0
  5  6  2  0  0  0  0
  5  7  1  0  0  0  0
  7  8  1  0  0  0  0
  7  9  1  0  0  0  0
  9 10  1  0  0  0  0
  9 11  1  0  0  0  0
  9 22  1  0  0  0  0
 11 12  1  0  0  0  0
 11 13  1  0  0  0  0
 11 14  1  0  0  0  0
 14 15  1  0  0  0  0
 14 20  2  0  0  0  0
 15 16  2  0  0  0  0
 16 17  1  0  0  0  0
 16 18  1  0  0  0  0
 18 19  1  0  0  0  0
 18 20  1  0  0  0  0
 20 21  1  0  0  0  0
 22 23  2  0  0  0  0
 22 24  1  0  0  0  0
 24 25  1  0  0  0  0
 24 26  1  0  0  0  0
 26 27  1  0  0  0  0
 26 28  1  0  0  0  0
 26 29  1  0  0  0  0
M  END
$$$$

  -OEChem-04042215593D

 29 29  0     1  0  0  0  0  0999 V2000
   -2.6315   -4.5698    1.0573 H   0  0  0  0  0  0  0  0  0  0  0  0
   -2.8315   -3.5770    0.6449 C   0  0  0  0  0  0  0  0  0  0  0  0
   -3.7000   -3.1505    1.1521 H   0  0  0  0  0  0  0  0  0  0  0  0
   -3.0523   -3.6763   -0.4210 H   0  0  0  0  0  0  0  0  0  0  0  0
   -1.6257   -2.6777    0.8386 C   0  0  0  0  0  0  0  0  0  0  0  0
   -0.6628   -3.0760    1.4764 O   0  0  0  0  0  0  0  0  0  0  0  0
   -1.6225   -1.4175    0.2811 N   0  0  0  0  0  0  0  0  0  0  0  0
   -2.3945   -1.2079   -0.3493 H   0  0  0  0  0  0  0  0  0  0  0  0
   -0.4186   -0.5869    0.1370 C   0  0  1  0  0  0  0  0  0  0  0  0
    0.3849   -0.9701    0.7737 H   0  0  0  0  0  0  0  0  0  0  0  0
    0.0579   -0.6534   -1.3284 C   0  0  0  0  0  0  0  0  0  0  0  0
    0.8063    0.1247   -1.5042 H   0  0  0  0  0  0  0  0  0  0  0  0
    0.5394   -1.6197   -1.5060 H   0  0  0  0  0  0  0  0  0  0  0  0
   -1.0656   -0.5007   -2.3196 C   0  0  0  0  0  0  0  0  0  0  0  0
   -1.8029   -1.5651   -2.8287 N   0  0  0  0  0  0  0  0  0  0  0  0
   -2.6522   -1.0500   -3.6863 C   0  0  0  0  0  0  0  0  0  0  0  0
   -3.3786   -1.6202   -4.2583 H   0  0  0  0  0  0  0  0  0  0  0  0
   -2.4882    0.3202   -3.7511 N   0  0  0  0  0  0  0  0  0  0  0  0
   -3.0374    0.9539   -4.3288 H   0  0  0  0  0  0  0  0  0  0  0  0
   -1.4730    0.6723   -2.8885 C   0  0  0  0  0  0  0  0  0  0  0  0
   -1.0818    1.6633   -2.6753 H   0  0  0  0  0  0  0  0  0  0  0  0
   -0.6703    0.8747    0.5670 C   0  0  0  0  0  0  0  0  0  0  0  0
   -1.6553    1.4895    0.1735 O   0  0  0  0  0  0  0  0  0  0  0  0
    0.2516    1.5256    1.3670 N   0  0  0  0  0  0  0  0  0  0  0  0
    1.0126    0.9695    1.7476 H   0  0  0  0  0  0  0  0  0  0  0  0
    0.0777    2.8943    1.8380 C   0  0  0  0  0  0  0  0  0  0  0  0
   -0.8353    2.9806    2.4364 H   0  0  0  0  0  0  0  0  0  0  0  0
    0.9283    3.1911    2.4590 H   0  0  0  0  0  0  0  0  0  0  0  0
    0.0112    3.5855    0.9912 H   0  0  0  0  0  0  0  0  0  0  0  0
  1  2  1  0  0  0  0
  2  3  1  0  0  0  0
  2  4  1  0  0  0  0
  2  5  1  0  0  0  0
  5  6  2  0  0  0  0
  5  7  1  0  0  0  0
  7  8  1  0  0  0  0
  7  9  1  0  0  0  0
  9 10  1  0  0  0  0
  9 11  1  0  0  0  0
  9 22  1  0  0  0  0
 11 12  1  0  0  0  0
 11 13  1  0  0  0  0
 11 14  1  0  0  0  0
 14 15  1  0  0  0  0
 14 20  2  0  0  0  0
 15 16  2  0  0  0  0
 16 17  1  0  0  0  0
 16 18  1  0  0  0  0
 18 19  1  0  0  0  0
 18 20  1  0  0  0  0
 20 21  1  0  0  0  0
 22 23  2  0  0  0  0
 22 24  1  0  0  0  0
 24 25  1  0  0  0  0
 24 26  1  0  0  0  0
 26 27  1  0  0  0  0
 26 28  1  0  0  0  0
 26 29  1  0  0  0  0
M  END
$$$$

  -OEChem-04042215593D

 29 29  0     1  0  0  0  0  0999 V2000
   -2.6391   -4.5632    1.0940 H   0  0  0  0  0  0  0  0  0  0  0  0
   -2.8224   -3.5856    0.6399 C   0  0  0  0  0  0  0  0  0  0  0  0
   -3.7157   -3.1472    1.0907 H   0  0  0  0  0  0  0  0  0  0  0  0
   -2.9916   -3.7204   -0.4315 H   0  0  0  0  0  0  0  0  0  0  0  0
   -1.6308   -2.6736    0.8604 C   0  0  0  0  0  0  0  0  0  0  0  0
   -0.6822   -3.0574    1.5286 O   0  0  0  0  0  0  0  0  0  0  0  0
   -1.6231   -1.4207    0.2879 N   0  0  0  0  0  0  0  0  0  0  0  0
   -2.3566   -1.2528   -0.4014 H   0  0  0  0  0  0  0  0  0  0  0  0
   -0.4150   -0.5980    0.1433 C   0  0  1  0  0  0  0  0  0  0  0  0
    0.3876   -0.9789    0.7825 H   0  0  0  0  0  0  0  0  0  0  0  0
    0.0610   -0.6585   -1.3234 C   0  0  0  0  0  0  0  0  0  0  0  0
    0.8214    0.1095   -1.4927 H   0  0  0  0  0  0  0  0  0  0  0  0
    0.5302   -1.6301   -1.5026 H   0  0  0  0  0  0  0  0  0  0  0  0
   -1.0574   -0.4931   -2.3217 C   0  0  0  0  0  0  0  0  0  0  0  0
   -1.9976   -1.4746   -2.6298 N   0  0  0  0  0  0  0  0  0  0  0  0
   -2.7794   -0.9607   -3.5503 C   0  0  0  0  0  0  0  0  0  0  0  0
   -3.6228   -1.4731   -4.0043 H   0  0  0  0  0  0  0  0  0  0  0  0
   -2.3744    0.3245   -3.8540 N   0  0  0  0  0  0  0  0  0  0  0  0
   -2.8318    0.9444   -4.5199 H   0  0  0  0  0  0  0  0  0  0  0  0
   -1.2755    0.6236   -3.0780 C   0  0  0  0  0  0  0  0  0  0  0  0
   -0.7070    1.5483   -3.0452 H   0  0  0  0  0  0  0  0  0  0  0  0
   -0.6701    0.8675    0.5568 C   0  0  0  0  0  0  0  0  0  0  0  0
   -1.6408    1.4854    0.1339 O   0  0  0  0  0  0  0  0  0  0  0  0
    0.2465    1.5243    1.3584 N   0  0  0  0  0  0  0  0  0  0  0  0
    0.9967    0.9676    1.7589 H   0  0  0  0  0  0  0  0  0  0  0  0
    0.0722    2.8983    1.8133 C   0  0  0  0  0  0  0  0  0  0  0  0
   -0.8390    2.9906    2.4136 H   0  0  0  0  0  0  0  0  0  0  0  0
    0.9246    3.2035    2.4279 H   0  0  0  0  0  0  0  0  0  0  0  0
    0.0020    3.5791    0.9585 H   0  0  0  0  0  0  0  0  0  0  0  0
  1  2  1  0  0  0  0
  2  3  1  0  0  0  0
  2  4  1  0  0  0  0
  2  5  1  0  0  0  0
  5  6  2  0  0  0  0
  5  7  1  0  0  0  0
  7  8  1  0  0  0  0
  7  9  1  0  0  0  0
  9 10  1  0  0  0  0
  9 11  1  0  0  0  0
  9 22  1  0  0  0  0
 11 12  1  0  0  0  0
 11 13  1  0  0  0  0
 11 14  1  0  0  0  0
 14 15  1  0  0  0  0
 14 20  2  0  0  0  0
 15 16  2  0  0  0  0
 16 17  1  0  0  0  0
 16 18  1  0  0  0  0
 18 19  1  0  0  0  0
 18 20  1  0  0  0  0
 20 21  1  0  0  0  0
 22 23  2  0  0  0  0
 22 24  1  0  0  0  0
 24 25  1  0  0  0  0
 24 26  1  0  0  0  0
 26 27  1  0  0  0  0
 26 28  1  0  0  0  0
 26 29  1  0  0  0  0
M  END
$$$$

  -OEChem-04042215593D

 29 29  0     1  0  0  0  0  0999 V2000
   -2.6352   -4.5658    1.1461 H   0  0  0  0  0  0  0  0  0  0  0  0
   -2.8192   -3.5938    0.6802 C   0  0  0  0  0  0  0  0  0  0  0  0
   -3.7077   -3.1466    1.1321 H   0  0  0  0  0  0  0  0  0  0  0  0
   -2.9980   -3.7417   -0.3878 H   0  0  0  0  0  0  0  0  0  0  0  0
   -1.6239   -2.6819    0.8800 C   0  0  0  0  0  0  0  0  0  0  0  0
   -0.6691   -3.0624    1.5413 O   0  0  0  0  0  0  0  0  0  0  0  0
   -1.6206   -1.4327    0.3002 N   0  0  0  0  0  0  0  0  0  0  0  0
   -2.3496   -1.2762   -0.3989 H   0  0  0  0  0  0  0  0  0  0  0  0
   -0.4163   -0.6096    0.1422 C   0  0  1  0  0  0  0  0  0  0  0  0
    0.3914   -0.9853    0.7781 H   0  0  0  0  0  0  0  0  0  0  0  0
    0.0554   -0.6618   -1.3276 C   0  0  0  0  0  0  0  0  0  0  0  0
    0.8232    0.1002   -1.4916 H   0  0  0  0  0  0  0  0  0  0  0  0
    0.5189   -1.6367   -1.5036 H   0  0  0  0  0  0  0  0  0  0  0  0
   -1.0499   -0.4970   -2.3450 C   0  0  0  0  0  0  0  0  0  0  0  0
   -2.1625   -1.3272   -2.4897 N   0  0  0  0  0  0  0  0  0  0  0  0
   -2.8720   -0.8286   -3.4748 C   0  0  0  0  0  0  0  0  0  0  0  0
   -3.8089   -1.2425   -3.8364 H   0  0  0  0  0  0  0  0  0  0  0  0
   -2.2537    0.2970   -3.9824 N   0  0  0  0  0  0  0  0  0  0  0  0
   -2.6181    0.8810   -4.7330 H   0  0  0  0  0  0  0  0  0  0  0  0
   -1.0950    0.5104   -3.2677 C   0  0  0  0  0  0  0  0  0  0  0  0
   -0.3732    1.3131   -3.3844 H   0  0  0  0  0  0  0  0  0  0  0  0
   -0.6758    0.8571    0.5497 C   0  0  0  0  0  0  0  0  0  0  0  0
   -1.6478    1.4717    0.1249 O   0  0  0  0  0  0  0  0  0  0  0  0
    0.2435    1.5215    1.3424 N   0  0  0  0  0  0  0  0  0  0  0  0
    0.9892    0.9659    1.7522 H   0  0  0  0  0  0  0  0  0  0  0  0
    0.0621    2.8950    1.7960 C   0  0  0  0  0  0  0  0  0  0  0  0
   -0.8452    2.9808    2.4030 H   0  0  0  0  0  0  0  0  0  0  0  0
    0.9166    3.2080    2.4036 H   0  0  0  0  0  0  0  0  0  0  0  0
   -0.0199    3.5739    0.9406 H   0  0  0  0  0  0  0  0  0  0  0  0
  1  2  1  0  0  0  0
  2  3  1  0  0  0  0
  2  4  1  0  0  0  0
  2  5  1  0  0  0  0
  5  6  2  0  0  0  0
  5  7  1  0  0  0  0
  7  8  1  0  0  0  0
  7  9  1  0  0  0  0
  9 10  1  0  0  0  0
  9 11  1  0  0  0  0
  9 22  1  0  0  0  0
 11 12  1  0  0  0  0
 11 13  1  0  0  0  0
 11 14  1  0  0  0  0
 14 15  1  0  0  0  0
 14 20  2  0  0  0  0
 15 16  2  0  0  0  0
 16 17  1  0  0  0  0
 16 18  1  0  0  0  0
 18 19  1  0  0  0  0
 18 20  1  0  0  0  0
 20 21  1  0  0  0  0
 22 23  2  0  0  0  0
 22 24  1  0  0  0  0
 24 25  1  0  0  0  0
 24 26  1  0  0  0  0
 26 27  1  0  0  0  0
 26 28  1  0  0  0  0
 26 29  1  0  0  0  0
M  END
$$$$

  -OEChem-04042215593D

 29 29  0     1  0  0  0  0  0999 V2000
   -2.6246   -4.5815    1.1775 H   0  0  0  0  0  0  0  0  0  0  0  0
   -2.8217   -3.6039    0.7290 C   0  0  0  0  0  0  0  0  0  0  0  0
   -3.6889   -3.1564    1.2204 H   0  0  0  0  0  0  0  0  0  0  0  0
   -3.0438   -3.7411   -0.3323 H   0  0  0  0  0  0  0  0  0  0  0  0
   -1.6140   -2.7005    0.8901 C   0  0  0  0  0  0  0  0  0  0  0  0
   -0.6395   -3.0901    1.5166 O   0  0  0  0  0  0  0  0  0  0  0  0
   -1.6211   -1.4489    0.3160 N   0  0  0  0  0  0  0  0  0  0  0  0
   -2.3751   -1.2722   -0.3524 H   0  0  0  0  0  0  0  0  0  0  0  0
   -0.4270   -0.6161    0.1425 C   0  0  1  0  0  0  0  0  0  0  0  0
    0.3880   -0.9873    0.7715 H   0  0  0  0  0  0  0  0  0  0  0  0
    0.0412   -0.6561   -1.3303 C   0  0  0  0  0  0  0  0  0  0  0  0
    0.8088    0.1074   -1.4889 H   0  0  0  0  0  0  0  0  0  0  0  0
    0.5097   -1.6295   -1.5018 H   0  0  0  0  0  0  0  0  0  0  0  0
   -1.0487   -0.5014   -2.3700 C   0  0  0  0  0  0  0  0  0  0  0  0
   -2.2925   -1.1366   -2.3879 N   0  0  0  0  0  0  0  0  0  0  0  0
   -2.9312   -0.6812   -3.4396 C   0  0  0  0  0  0  0  0  0  0  0  0
   -3.9352   -0.9753   -3.7317 H   0  0  0  0  0  0  0  0  0  0  0  0
   -2.1403    0.2243   -4.1182 N   0  0  0  0  0  0  0  0  0  0  0  0
   -2.4171    0.7369   -4.9534 H   0  0  0  0  0  0  0  0  0  0  0  0
   -0.9465    0.3442   -3.4403 C   0  0  0  0  0  0  0  0  0  0  0  0
   -0.1034    0.9851   -3.6801 H   0  0  0  0  0  0  0  0  0  0  0  0
   -0.6917    0.8472    0.5589 C   0  0  0  0  0  0  0  0  0  0  0  0
   -1.6753    1.4567    0.1545 O   0  0  0  0  0  0  0  0  0  0  0  0
    0.2357    1.5149    1.3395 N   0  0  0  0  0  0  0  0  0  0  0  0
    0.9958    0.9652    1.7304 H   0  0  0  0  0  0  0  0  0  0  0  0
    0.0639    2.8924    1.7845 C   0  0  0  0  0  0  0  0  0  0  0  0
   -0.8374    2.9877    2.3993 H   0  0  0  0  0  0  0  0  0  0  0  0
    0.9253    3.2065    2.3816 H   0  0  0  0  0  0  0  0  0  0  0  0
   -0.0223    3.5646    0.9244 H   0  0  0  0  0  0  0  0  0  0  0  0
  1  2  1  0  0  0  0
  2  3  1  0  0  0  0
  2  4  1  0  0  0  0
  2  5  1  0  0  0  0
  5  6  2  0  0  0  0
  5  7  1  0  0  0  0
  7  8  1  0  0  0  0
  7  9  1  0  0  0  0
  9 10  1  0  0  0  0
  9 11  1  0  0  0  0
  9 22  1  0  0  0  0
 11 12  1  0  0  0  0
 11 13  1  0  0  0  0
 11 14  1  0  0  0  0
 14 15  1  0  0  0  0
 14 20  2  0  0  0  0
 15 16  2  0  0  0  0
 16 17  1  0  0  0  0
 16 18  1  0  0  0  0
 18 19  1  0  0  0  0
 18 20  1  0  0  0  0
 20 21  1  0  0  0  0
 22 23  2  0  0  0  0
 22 24  1  0  0  0  0
 24 25  1  0  0  0  0
 24 26  1  0  0  0  0
 26 27  1  0  0  0  0
 26 28  1  0  0  0  0
 26 29  1  0  0  0  0
M  END
$$$$

  -OEChem-04042215593D

 29 29  0     1  0  0  0  0  0999 V2000
   -2.6349   -4.5767    1.2103 H   0  0  0  0  0  0  0  0  0  0  0  0
   -2.8303   -3.5979    0.7640 C   0  0  0  0  0  0  0  0  0  0  0  0
   -3.6759   -3.1362    1.2793 H   0  0  0  0  0  0  0  0  0  0  0  0
   -3.0859   -3.7346   -0.2897 H   0  0  0  0  0  0  0  0  0  0  0  0
   -1.6054   -2.7116    0.8859 C   0  0  0  0  0  0  0  0  0  0  0  0
   -0.6111   -3.1198    1.4675 O   0  0  0  0  0  0  0  0  0  0  0  0
   -1.6178   -1.4562    0.3213 N   0  0  0  0  0  0  0  0  0  0  0  0
   -2.3993   -1.2506   -0.3068 H   0  0  0  0  0  0  0  0  0  0  0  0
   -0.4334   -0.6131    0.1367 C   0  0  1  0  0  0  0  0  0  0  0  0
    0.3864   -0.9818    0.7608 H   0  0  0  0  0  0  0  0  0  0  0  0
    0.0309   -0.6510   -1.3373 C   0  0  0  0  0  0  0  0  0  0  0  0
    0.7934    0.1171   -1.4977 H   0  0  0  0  0  0  0  0  0  0  0  0
    0.5074   -1.6217   -1.5016 H   0  0  0  0  0  0  0  0  0  0  0  0
   -1.0502   -0.5119   -2.3897 C   0  0  0  0  0  0  0  0  0  0  0  0
   -2.3853   -0.9135   -2.3053 N   0  0  0  0  0  0  0  0  0  0  0  0
   -2.9675   -0.5308   -3.4163 C   0  0  0  0  0  0  0  0  0  0  0  0
   -4.0155   -0.6888   -3.6548 H   0  0  0  0  0  0  0  0  0  0  0  0
   -2.0518    0.0985   -4.2354 N   0  0  0  0  0  0  0  0  0  0  0  0
   -2.2603    0.5085   -5.1438 H   0  0  0  0  0  0  0  0  0  0  0  0
   -0.8369    0.1190   -3.5848 C   0  0  0  0  0  0  0  0  0  0  0  0
    0.0952    0.5599   -3.9250 H   0  0  0  0  0  0  0  0  0  0  0  0
   -0.6978    0.8474    0.5633 C   0  0  0  0  0  0  0  0  0  0  0  0
   -1.6975    1.4513    0.1927 O   0  0  0  0  0  0  0  0  0  0  0  0
    0.2395    1.5139    1.3333 N   0  0  0  0  0  0  0  0  0  0  0  0
    1.0133    0.9672    1.7004 H   0  0  0  0  0  0  0  0  0  0  0  0
    0.0658    2.8849    1.7969 C   0  0  0  0  0  0  0  0  0  0  0  0
   -0.8099    2.9606    2.4500 H   0  0  0  0  0  0  0  0  0  0  0  0
    0.9473    3.2077    2.3591 H   0  0  0  0  0  0  0  0  0  0  0  0
   -0.0678    3.5625    0.9469 H   0  0  0  0  0  0  0  0  0  0  0  0
  1  2  1  0  0  0  0
  2  3  1  0  0  0  0
  2  4  1  0  0  0  0
  2  5  1  0  0  0  0
  5  6  2  0  0  0  0
  5  7  1  0  0  0  0
  7  8  1  0  0  0  0
  7  9  1  0  0  0  0
  9 10  1  0  0  0  0
  9 11  1  0  0  0  0
  9 22  1  0  0  0  0
 11 12  1  0  0  0  0
 11 13  1  0  0  0  0
 11 14  1  0  0  0  0
 14 15  1  0  0  0  0
 14 20  2  0  0  0  0
 15 16  2  0  0  0  0
 16 17  1  0  0  0  0
 16 18  1  0  0  0  0
 18 19  1  0  0  0  0
 18 20  1  0  0  0  0
 20 21  1  0  0  0  0
 22 23  2  0  0  0  0
 22 24  1  0  0  0  0
 24 25  1  0  0  0  0
 24 26  1  0  0  0  0
 26 27  1  0  0  0  0
 26 28  1  0  0  0  0
 26 29  1  0  0  0  0
M  END
$$$$

  -OEChem-04042215593D

 29 29  0     1  0  0  0  0  0999 V2000
   -2.6532   -4.5516    1.2312 H   0  0  0  0  0  0  0  0  0  0  0  0
   -2.8443   -3.5713    0.7861 C   0  0  0  0  0  0  0  0  0  0  0  0
   -3.6601   -3.0885    1.3296 H   0  0  0  0  0  0  0  0  0  0  0  0
   -3.1416   -3.7081   -0.2566 H   0  0  0  0  0  0  0  0  0  0  0  0
   -1.5972   -2.7109    0.8579 C   0  0  0  0  0  0  0  0  0  0  0  0
   -0.5841   -3.1445    1.3860 O   0  0  0  0  0  0  0  0  0  0  0  0
   -1.6115   -1.4485    0.3098 N   0  0  0  0  0  0  0  0  0  0  0  0
   -2.4214   -1.2038   -0.2665 H   0  0  0  0  0  0  0  0  0  0  0  0
   -0.4344   -0.5966    0.1222 C   0  0  1  0  0  0  0  0  0  0  0  0
    0.3879   -0.9675    0.7420 H   0  0  0  0  0  0  0  0  0  0  0  0
    0.0272   -0.6391   -1.3514 C   0  0  0  0  0  0  0  0  0  0  0  0
    0.7788    0.1382   -1.5182 H   0  0  0  0  0  0  0  0  0  0  0  0
    0.5159   -1.6048   -1.5093 H   0  0  0  0  0  0  0  0  0  0  0  0
   -1.0527   -0.5164   -2.4067 C   0  0  0  0  0  0  0  0  0  0  0  0
   -2.4329   -0.6558   -2.2486 N   0  0  0  0  0  0  0  0  0  0  0  0
   -2.9787   -0.3873   -3.4098 C   0  0  0  0  0  0  0  0  0  0  0  0
   -4.0459   -0.4003   -3.6127 H   0  0  0  0  0  0  0  0  0  0  0  0
   -1.9962   -0.0904   -4.3333 N   0  0  0  0  0  0  0  0  0  0  0  0
   -2.1617    0.1706   -5.3035 H   0  0  0  0  0  0  0  0  0  0  0  0
   -0.7745   -0.1637   -3.6989 C   0  0  0  0  0  0  0  0  0  0  0  0
    0.2077    0.0353   -4.1165 H   0  0  0  0  0  0  0  0  0  0  0  0
   -0.6946    0.8601    0.5667 C   0  0  0  0  0  0  0  0  0  0  0  0
   -1.7139    1.4592    0.2460 O   0  0  0  0  0  0  0  0  0  0  0  0
    0.2527    1.5187    1.3317 N   0  0  0  0  0  0  0  0  0  0  0  0
    1.0389    0.9716    1.6703 H   0  0  0  0  0  0  0  0  0  0  0  0
    0.0671    2.8711    1.8431 C   0  0  0  0  0  0  0  0  0  0  0  0
   -0.7935    2.9100    2.5191 H   0  0  0  0  0  0  0  0  0  0  0  0
    0.9560    3.1921    2.3945 H   0  0  0  0  0  0  0  0  0  0  0  0
   -0.0995    3.5728    1.0190 H   0  0  0  0  0  0  0  0  0  0  0  0
  1  2  1  0  0  0  0
  2  3  1  0  0  0  0
  2  4  1  0  0  0  0
  2  5  1  0  0  0  0
  5  6  2  0  0  0  0
  5  7  1  0  0  0  0
  7  8  1  0  0  0  0
  7  9  1  0  0  0  0
  9 10  1  0  0  0  0
  9 11  1  0  0  0  0
  9 22  1  0  0  0  0
 11 12  1  0  0  0  0
 11 13  1  0  0  0  0
 11 14  1  0  0  0  0
 14 15  1  0  0  0  0
 14 20  2  0  0  0  0
 15 16  2  0  0  0  0
 16 17  1  0  0  0  0
 16 18  1  0  0  0  0
 18 19  1  0  0  0  0
 18 20  1  0  0  0  0
 20 21  1  0  0  0  0
 22 23  2  0  0  0  0
 22 24  1  0  0  0  0
 24 25  1  0  0  0  0
 24 26  1  0  0  0  0
 26 27  1  0  0  0  0
 26 28  1  0  0  0  0
 26 29  1  0  0  0  0
M  END
$$$$

  -OEChem-04042215593D

 29 29  0     1  0  0  0  0  0999 V2000
   -2.6682   -4.5277    1.1995 H   0  0  0  0  0  0  0  0  0  0  0  0
   -2.8586   -3.5384    0.7746 C   0  0  0  0  0  0  0  0  0  0  0  0
   -3.6484   -3.0515    1.3517 H   0  0  0  0  0  0  0  0  0  0  0  0
   -3.1927   -3.6559   -0.2591 H   0  0  0  0  0  0  0  0  0  0  0  0
   -1.5967   -2.6980    0.8160 C   0  0  0  0  0  0  0  0  0  0  0  0
   -0.5701   -3.1576    1.2935 O   0  0  0  0  0  0  0  0  0  0  0  0
   -1.6114   -1.4267    0.2893 N   0  0  0  0  0  0  0  0  0  0  0  0
   -2.4471   -1.1400   -0.2263 H   0  0  0  0  0  0  0  0  0  0  0  0
   -0.4386   -0.5676    0.1068 C   0  0  1  0  0  0  0  0  0  0  0  0
    0.3812   -0.9441    0.7265 H   0  0  0  0  0  0  0  0  0  0  0  0
    0.0309   -0.6178   -1.3631 C   0  0  0  0  0  0  0  0  0  0  0  0
    0.7659    0.1746   -1.5317 H   0  0  0  0  0  0  0  0  0  0  0  0
    0.5393   -1.5742   -1.5153 H   0  0  0  0  0  0  0  0  0  0  0  0
   -1.0473   -0.5106   -2.4191 C   0  0  0  0  0  0  0  0  0  0  0  0
   -2.4218   -0.3735   -2.2302 N   0  0  0  0  0  0  0  0  0  0  0  0
   -2.9614   -0.2550   -3.4187 C   0  0  0  0  0  0  0  0  0  0  0  0
   -4.0227   -0.1217   -3.6086 H   0  0  0  0  0  0  0  0  0  0  0  0
   -1.9810   -0.3313   -4.3881 N   0  0  0  0  0  0  0  0  0  0  0  0
   -2.1395   -0.2557   -5.3911 H   0  0  0  0  0  0  0  0  0  0  0  0
   -0.7649   -0.4884   -3.7574 C   0  0  0  0  0  0  0  0  0  0  0  0
    0.2192   -0.5616   -4.2105 H   0  0  0  0  0  0  0  0  0  0  0  0
   -0.6911    0.8843    0.5736 C   0  0  0  0  0  0  0  0  0  0  0  0
   -1.7365    1.4720    0.3264 O   0  0  0  0  0  0  0  0  0  0  0  0
    0.2661    1.5287    1.3384 N   0  0  0  0  0  0  0  0  0  0  0  0
    1.0777    0.9878    1.6217 H   0  0  0  0  0  0  0  0  0  0  0  0
    0.0762    2.8593    1.9031 C   0  0  0  0  0  0  0  0  0  0  0  0
   -0.7747    2.8650    2.5923 H   0  0  0  0  0  0  0  0  0  0  0  0
    0.9701    3.1671    2.4536 H   0  0  0  0  0  0  0  0  0  0  0  0
   -0.1084    3.5902    1.1088 H   0  0  0  0  0  0  0  0  0  0  0  0
  1  2  1  0  0  0  0
  2  3  1  0  0  0  0
  2  4  1  0  0  0  0
  2  5  1  0  0  0  0
  5  6  2  0  0  0  0
  5  7  1  0  0  0  0
  7  8  1  0  0  0  0
  7  9  1  0  0  0  0
  9 10  1  0  0  0  0
  9 11  1  0  0  0  0
  9 22  1  0  0  0  0
 11 12  1  0  0  0  0
 11 13  1  0  0  0  0
 11 14  1  0  0  0  0
 14 15  1  0  0  0  0
 14 20  2  0  0  0  0
 15 16  2  0  0  0  0
 16 17  1  0  0  0  0
 16 18  1  0  0  0  0
 18 19  1  0  0  0  0
 18 20  1  0  0  0  0
 20 21  1  0  0  0  0
 22 23  2  0  0  0  0
 22 24  1  0  0  0  0
 24 25  1  0  0  0  0
 24 26  1  0  0  0  0
 26 27  1  0  0  0  0
 26 28  1  0  0  0  0
 26 29  1  0  0  0  0
M  END
$$$$

  -OEChem-04042215593D

 29 29  0     1  0  0  0  0  0999 V2000
   -2.6923   -4.4879    1.1762 H   0  0  0  0  0  0  0  0  0  0  0  0
   -2.8794   -3.4917    0.7661 C   0  0  0  0  0  0  0  0  0  0  0  0
   -3.6295   -2.9906    1.3825 H   0  0  0  0  0  0  0  0  0  0  0  0
   -3.2640   -3.5945   -0.2514 H   0  0  0  0  0  0  0  0  0  0  0  0
   -1.5976   -2.6810    0.7535 C   0  0  0  0  0  0  0  0  0  0  0  0
   -0.5579   -3.1722    1.1666 O   0  0  0  0  0  0  0  0  0  0  0  0
   -1.6098   -1.4003    0.2499 N   0  0  0  0  0  0  0  0  0  0  0  0
   -2.4746   -1.0624   -0.1765 H   0  0  0  0  0  0  0  0  0  0  0  0
   -0.4391   -0.5357    0.0775 C   0  0  1  0  0  0  0  0  0  0  0  0
    0.3731   -0.9183    0.7036 H   0  0  0  0  0  0  0  0  0  0  0  0
    0.0526   -0.5920   -1.3838 C   0  0  0  0  0  0  0  0  0  0  0  0
    0.7716    0.2158   -1.5468 H   0  0  0  0  0  0  0  0  0  0  0  0
    0.5827   -1.5381   -1.5277 H   0  0  0  0  0  0  0  0  0  0  0  0
   -1.0195   -0.4984   -2.4434 C   0  0  0  0  0  0  0  0  0  0  0  0
   -2.3384   -0.0870   -2.2771 N   0  0  0  0  0  0  0  0  0  0  0  0
   -2.9071   -0.1359   -3.4565 C   0  0  0  0  0  0  0  0  0  0  0  0
   -3.9396    0.1335   -3.6601 H   0  0  0  0  0  0  0  0  0  0  0  0
   -1.9995   -0.5869   -4.3947 N   0  0  0  0  0  0  0  0  0  0  0  0
   -2.1915   -0.7068   -5.3875 H   0  0  0  0  0  0  0  0  0  0  0  0
   -0.8003   -0.8194   -3.7549 C   0  0  0  0  0  0  0  0  0  0  0  0
    0.1321   -1.1713   -4.1862 H   0  0  0  0  0  0  0  0  0  0  0  0
   -0.6889    0.9092    0.5695 C   0  0  0  0  0  0  0  0  0  0  0  0
   -1.7651    1.4716    0.4112 O   0  0  0  0  0  0  0  0  0  0  0  0
    0.2746    1.5387    1.3396 N   0  0  0  0  0  0  0  0  0  0  0  0
    1.1099    1.0078    1.5676 H   0  0  0  0  0  0  0  0  0  0  0  0
    0.0747    2.8384    1.9696 C   0  0  0  0  0  0  0  0  0  0  0  0
   -0.7508    2.7933    2.6877 H   0  0  0  0  0  0  0  0  0  0  0  0
    0.9808    3.1436    2.5017 H   0  0  0  0  0  0  0  0  0  0  0  0
   -0.1548    3.5988    1.2157 H   0  0  0  0  0  0  0  0  0  0  0  0
  1  2  1  0  0  0  0
  2  3  1  0  0  0  0
  2  4  1  0  0  0  0
  2  5  1  0  0  0  0
  5  6  2  0  0  0  0
  5  7  1  0  0  0  0
  7  8  1  0  0  0  0
  7  9  1  0  0  0  0
  9 10  1  0  0  0  0
  9 11  1  0  0  0  0
  9 22  1  0  0  0  0
 11 12  1  0  0  0  0
 11 13  1  0  0  0  0
 11 14  1  0  0  0  0
 14 15  1  0  0  0  0
 14 20  2  0  0  0  0
 15 16  2  0  0  0  0
 16 17  1  0  0  0  0
 16 18  1  0  0  0  0
 18 19  1  0  0  0  0
 18 20  1  0  0  0  0
 20 21  1  0  0  0  0
 22 23  2  0  0  0  0
 22 24  1  0  0  0  0
 24 25  1  0  0  0  0
 24 26  1  0  0  0  0
 26 27  1  0  0  0  0
 26 28  1  0  0  0  0
 26 29  1  0  0  0  0
M  END
$$$$

  -OEChem-04042215593D

 29 29  0     1  0  0  0  0  0999 V2000
   -2.7135   -4.4535    1.1777 H   0  0  0  0  0  0  0  0  0  0  0  0
   -2.8982   -3.4511    0.7815 C   0  0  0  0  0  0  0  0  0  0  0  0
   -3.6001   -2.9345    1.4406 H   0  0  0  0  0  0  0  0  0  0  0  0
   -3.3415   -3.5399   -0.2131 H   0  0  0  0  0  0  0  0  0  0  0  0
   -1.5988   -2.6731    0.6991 C   0  0  0  0  0  0  0  0  0  0  0  0
   -0.5497   -3.1945    1.0454 O   0  0  0  0  0  0  0  0  0  0  0  0
   -1.6053   -1.3878    0.2068 N   0  0  0  0  0  0  0  0  0  0  0  0
   -2.4931   -0.9984   -0.1117 H   0  0  0  0  0  0  0  0  0  0  0  0
   -0.4317   -0.5237    0.0450 C   0  0  1  0  0  0  0  0  0  0  0  0
    0.3707   -0.9093    0.6821 H   0  0  0  0  0  0  0  0  0  0  0  0
    0.0862   -0.5842   -1.4058 C   0  0  0  0  0  0  0  0  0  0  0  0
    0.7971    0.2322   -1.5603 H   0  0  0  0  0  0  0  0  0  0  0  0
    0.6292   -1.5244   -1.5392 H   0  0  0  0  0  0  0  0  0  0  0  0
   -0.9759   -0.4946   -2.4722 C   0  0  0  0  0  0  0  0  0  0  0  0
   -2.1877    0.1783   -2.3820 N   0  0  0  0  0  0  0  0  0  0  0  0
   -2.8122   -0.0008   -3.5195 C   0  0  0  0  0  0  0  0  0  0  0  0
   -3.7885    0.4083   -3.7634 H   0  0  0  0  0  0  0  0  0  0  0  0
   -2.0453   -0.7906   -4.3540 N   0  0  0  0  0  0  0  0  0  0  0  0
   -2.3063   -1.0770   -5.2957 H   0  0  0  0  0  0  0  0  0  0  0  0
   -0.8796   -1.1100   -3.6900 C   0  0  0  0  0  0  0  0  0  0  0  0
   -0.0514   -1.7171   -4.0430 H   0  0  0  0  0  0  0  0  0  0  0  0
   -0.6891    0.9152    0.5510 C   0  0  0  0  0  0  0  0  0  0  0  0
   -1.7927    1.4398    0.4622 O   0  0  0  0  0  0  0  0  0  0  0  0
    0.2699    1.5396    1.3309 N   0  0  0  0  0  0  0  0  0  0  0  0
    1.1307    1.0315    1.5107 H   0  0  0  0  0  0  0  0  0  0  0  0
    0.0507    2.8135    2.0050 C   0  0  0  0  0  0  0  0  0  0  0  0
   -0.7602    2.7254    2.7354 H   0  0  0  0  0  0  0  0  0  0  0  0
    0.9586    3.1246    2.5303 H   0  0  0  0  0  0  0  0  0  0  0  0
   -0.2116    3.5906    1.2794 H   0  0  0  0  0  0  0  0  0  0  0  0
  1  2  1  0  0  0  0
  2  3  1  0  0  0  0
  2  4  1  0  0  0  0
  2  5  1  0  0  0  0
  5  6  2  0  0  0  0
  5  7  1  0  0  0  0
  7  8  1  0  0  0  0
  7  9  1  0  0  0  0
  9 10  1  0  0  0  0
  9 11  1  0  0  0  0
  9 22  1  0  0  0  0
 11 12  1  0  0  0  0
 11 13  1  0  0  0  0
 11 14  1  0  0  0  0
 14 15  1  0  0  0  0
 14 20  2  0  0  0  0
 15 16  2  0  0  0  0
 16 17  1  0  0  0  0
 16 18  1  0  0  0  0
 18 19  1  0  0  0  0
 18 20  1  0  0  0  0
 20 21  1  0  0  0  0
 22 23  2  0  0  0  0
 22 24  1  0  0  0  0
 24 25  1  0  0  0  0
 24 26  1  0  0  0  0
 26 27  1  0  0  0  0
 26 28  1  0  0  0  0
 26 29  1  0  0  0  0
M  END
$$$$

  -OEChem-04042215593D

 29 29  0     1  0  0  0  0  0999 V2000
   -2.7313   -4.4158    1.2403 H   0  0  0  0  0  0  0  0  0  0  0  0
   -2.9124   -3.4129    0.8440 C   0  0  0  0  0  0  0  0  0  0  0  0
   -3.5551   -2.8689    1.5404 H   0  0  0  0  0  0  0  0  0  0  0  0
   -3.4220   -3.5000   -0.1185 H   0  0  0  0  0  0  0  0  0  0  0  0
   -1.5993   -2.6741    0.6682 C   0  0  0  0  0  0  0  0  0  0  0  0
   -0.5449   -3.2229    0.9499 O   0  0  0  0  0  0  0  0  0  0  0  0
   -1.6009   -1.3915    0.1683 N   0  0  0  0  0  0  0  0  0  0  0  0
   -2.5007   -0.9563   -0.0340 H   0  0  0  0  0  0  0  0  0  0  0  0
   -0.4197   -0.5353    0.0113 C   0  0  1  0  0  0  0  0  0  0  0  0
    0.3726   -0.9182    0.6622 H   0  0  0  0  0  0  0  0  0  0  0  0
    0.1216   -0.6029   -1.4296 C   0  0  0  0  0  0  0  0  0  0  0  0
    0.8398    0.2081   -1.5787 H   0  0  0  0  0  0  0  0  0  0  0  0
    0.6598   -1.5475   -1.5517 H   0  0  0  0  0  0  0  0  0  0  0  0
   -0.9292   -0.5102   -2.5031 C   0  0  0  0  0  0  0  0  0  0  0  0
   -1.9811    0.3938   -2.5323 N   0  0  0  0  0  0  0  0  0  0  0  0
   -2.6728    0.1405   -3.6155 C   0  0  0  0  0  0  0  0  0  0  0  0
   -3.5604    0.6843   -3.9260 H   0  0  0  0  0  0  0  0  0  0  0  0
   -2.1043   -0.9189   -4.2966 N   0  0  0  0  0  0  0  0  0  0  0  0
   -2.4521   -1.3110   -5.1696 H   0  0  0  0  0  0  0  0  0  0  0  0
   -0.9963   -1.3376   -3.5902 C   0  0  0  0  0  0  0  0  0  0  0  0
   -0.3148   -2.1492   -3.8275 H   0  0  0  0  0  0  0  0  0  0  0  0
   -0.6929    0.9020    0.5134 C   0  0  0  0  0  0  0  0  0  0  0  0
   -1.8191    1.3843    0.4668 O   0  0  0  0  0  0  0  0  0  0  0  0
    0.2523    1.5347    1.3034 N   0  0  0  0  0  0  0  0  0  0  0  0
    1.1330    1.0527    1.4561 H   0  0  0  0  0  0  0  0  0  0  0  0
   -0.0006    2.7812    2.0166 C   0  0  0  0  0  0  0  0  0  0  0  0
   -0.7541    2.6294    2.7966 H   0  0  0  0  0  0  0  0  0  0  0  0
    0.9195    3.1405    2.4871 H   0  0  0  0  0  0  0  0  0  0  0  0
   -0.3580    3.5529    1.3263 H   0  0  0  0  0  0  0  0  0  0  0  0
  1  2  1  0  0  0  0
  2  3  1  0  0  0  0
  2  4  1  0  0  0  0
  2  5  1  0  0  0  0
  5  6  2  0  0  0  0
  5  7  1  0  0  0  0
  7  8  1  0  0  0  0
  7  9  1  0  0  0  0
  9 10  1  0  0  0  0
  9 11  1  0  0  0  0
  9 22  1  0  0  0  0
 11 12  1  0  0  0  0
 11 13  1  0  0  0  0
 11 14  1  0  0  0  0
 14 15  1  0  0  0  0
 14 20  2  0  0  0  0
 15 16  2  0  0  0  0
 16 17  1  0  0  0  0
 16 18  1  0  0  0  0
 18 19  1  0  0  0  0
 18 20  1  0  0  0  0
 20 21  1  0  0  0  0
 22 23  2  0  0  0  0
 22 24  1  0  0  0  0
 24 25  1  0  0  0  0
 24 26  1  0  0  0  0
 26 27  1  0  0  0  0
 26 28  1  0  0  0  0
 26 29  1  0  0  0  0
M  END
$$$$

  -OEChem-04042215593D

 29 29  0     1  0  0  0  0  0999 V2000
   -2.7289   -4.4069    1.3170 H   0  0  0  0  0  0  0  0  0  0  0  0
   -2.9114   -3.4112    0.9032 C   0  0  0  0  0  0  0  0  0  0  0  0
   -3.5247   -2.8433    1.6073 H   0  0  0  0  0  0  0  0  0  0  0  0
   -3.4531   -3.5143   -0.0401 H   0  0  0  0  0  0  0  0  0  0  0  0
   -1.5958   -2.6940    0.6676 C   0  0  0  0  0  0  0  0  0  0  0  0
   -0.5397   -3.2556    0.9146 O   0  0  0  0  0  0  0  0  0  0  0  0
   -1.5973   -1.4160    0.1551 N   0  0  0  0  0  0  0  0  0  0  0  0
   -2.4983   -0.9567    0.0236 H   0  0  0  0  0  0  0  0  0  0  0  0
   -0.4115   -0.5642    0.0015 C   0  0  1  0  0  0  0  0  0  0  0  0
    0.3769   -0.9409    0.6607 H   0  0  0  0  0  0  0  0  0  0  0  0
    0.1400   -0.6297   -1.4349 C   0  0  0  0  0  0  0  0  0  0  0  0
    0.8671    0.1736   -1.5829 H   0  0  0  0  0  0  0  0  0  0  0  0
    0.6687   -1.5799   -1.5550 H   0  0  0  0  0  0  0  0  0  0  0  0
   -0.9091   -0.5293   -2.5065 C   0  0  0  0  0  0  0  0  0  0  0  0
   -1.7649    0.5478   -2.6807 N   0  0  0  0  0  0  0  0  0  0  0  0
   -2.5258    0.2642   -3.7089 C   0  0  0  0  0  0  0  0  0  0  0  0
   -3.3041    0.9118   -4.1022 H   0  0  0  0  0  0  0  0  0  0  0  0
   -2.1875   -0.9763   -4.2159 N   0  0  0  0  0  0  0  0  0  0  0  0
   -2.6277   -1.4235   -5.0178 H   0  0  0  0  0  0  0  0  0  0  0  0
   -1.1569   -1.4846   -3.4534 C   0  0  0  0  0  0  0  0  0  0  0  0
   -0.6440   -2.4357   -3.5620 H   0  0  0  0  0  0  0  0  0  0  0  0
   -0.7025    0.8727    0.4924 C   0  0  0  0  0  0  0  0  0  0  0  0
   -1.8381    1.3330    0.4393 O   0  0  0  0  0  0  0  0  0  0  0  0
    0.2262    1.5186    1.2908 N   0  0  0  0  0  0  0  0  0  0  0  0
    1.1222    1.0621    1.4319 H   0  0  0  0  0  0  0  0  0  0  0  0
   -0.0413    2.7742    1.9817 C   0  0  0  0  0  0  0  0  0  0  0  0
   -0.8451    2.6446    2.7139 H   0  0  0  0  0  0  0  0  0  0  0  0
    0.8553    3.1143    2.5085 H   0  0  0  0  0  0  0  0  0  0  0  0
   -0.3364    3.5496    1.2669 H   0  0  0  0  0  0  0  0  0  0  0  0
  1  2  1  0  0  0  0
  2  3  1  0  0  0  0
  2  4  1  0  0  0  0
  2  5  1  0  0  0  0
  5  6  2  0  0  0  0
  5  7  1  0  0  0  0
  7  8  1  0  0  0  0
  7  9  1  0  0  0  0
  9 10  1  0  0  0  0
  9 11  1  0  0  0  0
  9 22  1  0  0  0  0
 11 12  1  0  0  0  0
 11 13  1  0  0  0  0
 11 14  1  0  0  0  0
 14 15  1  0  0  0  0
 14 20  2  0  0  0  0
 15 16  2  0  0  0  0
 16 17  1  0  0  0  0
 16 18  1  0  0  0  0
 18 19  1  0  0  0  0
 18 20  1  0  0  0  0
 20 21  1  0  0  0  0
 22 23  2  0  0  0  0
 22 24  1  0  0  0  0
 24 25  1  0  0  0  0
 24 26  1  0  0  0  0
 26 27  1  0  0  0  0
 26 28  1  0  0  0  0
 26 29  1  0  0  0  0
M  END
$$$$

  -OEChem-04042215593D

 29 29  0     1  0  0  0  0  0999 V2000
   -2.7303   -4.4147    1.3816 H   0  0  0  0  0  0  0  0  0  0  0  0
   -2.9100   -3.4228    0.9574 C   0  0  0  0  0  0  0  0  0  0  0  0
   -3.4982   -2.8372    1.6683 H   0  0  0  0  0  0  0  0  0  0  0  0
   -3.4765   -3.5329    0.0297 H   0  0  0  0  0  0  0  0  0  0  0  0
   -1.5916   -2.7255    0.6792 C   0  0  0  0  0  0  0  0  0  0  0  0
   -0.5368   -3.2955    0.9109 O   0  0  0  0  0  0  0  0  0  0  0  0
   -1.5891   -1.4534    0.1519 N   0  0  0  0  0  0  0  0  0  0  0  0
   -2.4879   -0.9819    0.0527 H   0  0  0  0  0  0  0  0  0  0  0  0
   -0.3982   -0.6058    0.0028 C   0  0  1  0  0  0  0  0  0  0  0  0
    0.3883   -0.9777    0.6676 H   0  0  0  0  0  0  0  0  0  0  0  0
    0.1575   -0.6567   -1.4322 C   0  0  0  0  0  0  0  0  0  0  0  0
    0.8958    0.1376   -1.5745 H   0  0  0  0  0  0  0  0  0  0  0  0
    0.6728   -1.6128   -1.5631 H   0  0  0  0  0  0  0  0  0  0  0  0
   -0.8962   -0.5383   -2.4948 C   0  0  0  0  0  0  0  0  0  0  0  0
   -1.5330    0.6471   -2.8293 N   0  0  0  0  0  0  0  0  0  0  0  0
   -2.3712    0.3621   -3.7954 C   0  0  0  0  0  0  0  0  0  0  0  0
   -3.0282    1.0801   -4.2778 H   0  0  0  0  0  0  0  0  0  0  0  0
   -2.2886   -0.9817   -4.1105 N   0  0  0  0  0  0  0  0  0  0  0  0
   -2.8301   -1.4498   -4.8347 H   0  0  0  0  0  0  0  0  0  0  0  0
   -1.3443   -1.5584   -3.2871 C   0  0  0  0  0  0  0  0  0  0  0  0
   -1.0170   -2.5933   -3.2541 H   0  0  0  0  0  0  0  0  0  0  0  0
   -0.7075    0.8322    0.4783 C   0  0  0  0  0  0  0  0  0  0  0  0
   -1.8464    1.2803    0.3918 O   0  0  0  0  0  0  0  0  0  0  0  0
    0.1988    1.4984    1.2852 N   0  0  0  0  0  0  0  0  0  0  0  0
    1.1060    1.0658    1.4318 H   0  0  0  0  0  0  0  0  0  0  0  0
   -0.0841    2.7784    1.9233 C   0  0  0  0  0  0  0  0  0  0  0  0
   -0.9064    2.6761    2.6391 H   0  0  0  0  0  0  0  0  0  0  0  0
    0.7993    3.1371    2.4598 H   0  0  0  0  0  0  0  0  0  0  0  0
   -0.3598    3.5272    1.1733 H   0  0  0  0  0  0  0  0  0  0  0  0
  1  2  1  0  0  0  0
  2  3  1  0  0  0  0
  2  4  1  0  0  0  0
  2  5  1  0  0  0  0
  5  6  2  0  0  0  0
  5  7  1  0  0  0  0
  7  8  1  0  0  0  0
  7  9  1  0  0  0  0
  9 10  1  0  0  0  0
  9 11  1  0  0  0  0
  9 22  1  0  0  0  0
 11 12  1  0  0  0  0
 11 13  1  0  0  0  0
 11 14  1  0  0  0  0
 14 15  1  0  0  0  0
 14 20  2  0  0  0  0
 15 16  2  0  0  0  0
 16 17  1  0  0  0  0
 16 18  1  0  0  0  0
 18 19  1  0  0  0  0
 18 20  1  0  0  0  0
 20 21  1  0  0  0  0
 22 23  2  0  0  0  0
 22 24  1  0  0  0  0
 24 25  1  0  0  0  0
 24 26  1  0  0  0  0
 26 27  1  0  0  0  0
 26 28  1  0  0  0  0
 26 29  1  0  0  0  0
M  END
$$$$

  -OEChem-04042215593D

 29 29  0     1  0  0  0  0  0999 V2000
   -2.7180   -4.4321    1.4169 H   0  0  0  0  0  0  0  0  0  0  0  0
   -2.9008   -3.4412    0.9918 C   0  0  0  0  0  0  0  0  0  0  0  0
   -3.4864   -2.8548    1.7040 H   0  0  0  0  0  0  0  0  0  0  0  0
   -3.4717   -3.5535    0.0670 H   0  0  0  0  0  0  0  0  0  0  0  0
   -1.5842   -2.7442    0.7062 C   0  0  0  0  0  0  0  0  0  0  0  0
   -0.5283   -3.3108    0.9391 O   0  0  0  0  0  0  0  0  0  0  0  0
   -1.5845   -1.4777    0.1656 N   0  0  0  0  0  0  0  0  0  0  0  0
   -2.4842   -1.0075    0.0685 H   0  0  0  0  0  0  0  0  0  0  0  0
   -0.3934   -0.6307    0.0113 C   0  0  1  0  0  0  0  0  0  0  0  0
    0.3972   -0.9968    0.6745 H   0  0  0  0  0  0  0  0  0  0  0  0
    0.1545   -0.6694   -1.4265 C   0  0  0  0  0  0  0  0  0  0  0  0
    0.8979    0.1201   -1.5696 H   0  0  0  0  0  0  0  0  0  0  0  0
    0.6611   -1.6283   -1.5701 H   0  0  0  0  0  0  0  0  0  0  0  0
   -0.9088   -0.5406   -2.4769 C   0  0  0  0  0  0  0  0  0  0  0  0
   -1.3286    0.6745   -2.9971 N   0  0  0  0  0  0  0  0  0  0  0  0
   -2.2364    0.3979   -3.9009 C   0  0  0  0  0  0  0  0  0  0  0  0
   -2.7697    1.1384   -4.4902 H   0  0  0  0  0  0  0  0  0  0  0  0
   -2.4053   -0.9712   -3.9986 N   0  0  0  0  0  0  0  0  0  0  0  0
   -3.0436   -1.4398   -4.6385 H   0  0  0  0  0  0  0  0  0  0  0  0
   -1.5502   -1.5747   -3.1003 C   0  0  0  0  0  0  0  0  0  0  0  0
   -1.4018   -2.6337   -2.9105 H   0  0  0  0  0  0  0  0  0  0  0  0
   -0.7125    0.8084    0.4730 C   0  0  0  0  0  0  0  0  0  0  0  0
   -1.8472    1.2582    0.3466 O   0  0  0  0  0  0  0  0  0  0  0  0
    0.1850    1.4876    1.2781 N   0  0  0  0  0  0  0  0  0  0  0  0
    1.0899    1.0567    1.4424 H   0  0  0  0  0  0  0  0  0  0  0  0
   -0.0985    2.7845    1.8802 C   0  0  0  0  0  0  0  0  0  0  0  0
   -0.9571    2.7142    2.5561 H   0  0  0  0  0  0  0  0  0  0  0  0
    0.7659    3.1312    2.4546 H   0  0  0  0  0  0  0  0  0  0  0  0
   -0.3189    3.5262    1.1053 H   0  0  0  0  0  0  0  0  0  0  0  0
  1  2  1  0  0  0  0
  2  3  1  0  0  0  0
  2  4  1  0  0  0  0
  2  5  1  0  0  0  0
  5  6  2  0  0  0  0
  5  7  1  0  0  0  0
  7  8  1  0  0  0  0
  7  9  1  0  0  0  0
  9 10  1  0  0  0  0
  9 11  1  0  0  0  0
  9 22  1  0  0  0  0
 11 12  1  0  0  0  0
 11 13  1  0  0  0  0
 11 14  1  0  0  0  0
 14 15  1  0  0  0  0
 14 20  2  0  0  0  0
 15 16  2  0  0  0  0
 16 17  1  0  0  0  0
 16 18  1  0  0  0  0
 18 19  1  0  0  0  0
 18 20  1  0  0  0  0
 20 21  1  0  0  0  0
 22 23  2  0  0  0  0
 22 24  1  0  0  0  0
 24 25  1  0  0  0  0
 24 26  1  0  0  0  0
 26 27  1  0  0  0  0
 26 28  1  0  0  0  0
 26 29  1  0  0  0  0
M  END
$$$$

  -OEChem-04042215593D

 29 29  0     1  0  0  0  0  0999 V2000
   -2.7029   -4.4481    1.4795 H   0  0  0  0  0  0  0  0  0  0  0  0
   -2.8904   -3.4592    1.0518 C   0  0  0  0  0  0  0  0  0  0  0  0
   -3.4642   -2.8680    1.7697 H   0  0  0  0  0  0  0  0  0  0  0  0
   -3.4752   -3.5758    0.1363 H   0  0  0  0  0  0  0  0  0  0  0  0
   -1.5770   -2.7658    0.7432 C   0  0  0  0  0  0  0  0  0  0  0  0
   -0.5191   -3.3316    0.9674 O   0  0  0  0  0  0  0  0  0  0  0  0
   -1.5834   -1.5029    0.1935 N   0  0  0  0  0  0  0  0  0  0  0  0
   -2.4832   -1.0293    0.1155 H   0  0  0  0  0  0  0  0  0  0  0  0
   -0.3928   -0.6581    0.0221 C   0  0  1  0  0  0  0  0  0  0  0  0
    0.4080   -1.0209    0.6748 H   0  0  0  0  0  0  0  0  0  0  0  0
    0.1361   -0.6761   -1.4243 C   0  0  0  0  0  0  0  0  0  0  0  0
    0.8834    0.1111   -1.5614 H   0  0  0  0  0  0  0  0  0  0  0  0
    0.6374   -1.6343   -1.5878 H   0  0  0  0  0  0  0  0  0  0  0  0
   -0.9303   -0.5310   -2.4717 C   0  0  0  0  0  0  0  0  0  0  0  0
   -1.1356    0.6430   -3.1826 N   0  0  0  0  0  0  0  0  0  0  0  0
   -2.1001    0.3977   -4.0359 C   0  0  0  0  0  0  0  0  0  0  0  0
   -2.5056    1.1211   -4.7375 H   0  0  0  0  0  0  0  0  0  0  0  0
   -2.5136   -0.9164   -3.9185 N   0  0  0  0  0  0  0  0  0  0  0  0
   -3.2383   -1.3567   -4.4820 H   0  0  0  0  0  0  0  0  0  0  0  0
   -1.7580   -1.5171   -2.9338 C   0  0  0  0  0  0  0  0  0  0  0  0
   -1.7908   -2.5453   -2.5866 H   0  0  0  0  0  0  0  0  0  0  0  0
   -0.7172    0.7807    0.4797 C   0  0  0  0  0  0  0  0  0  0  0  0
   -1.8484    1.2314    0.3278 O   0  0  0  0  0  0  0  0  0  0  0  0
    0.1771    1.4748    1.2751 N   0  0  0  0  0  0  0  0  0  0  0  0
    1.0846    1.0512    1.4455 H   0  0  0  0  0  0  0  0  0  0  0  0
   -0.1100    2.7842    1.8478 C   0  0  0  0  0  0  0  0  0  0  0  0
   -0.9725    2.7276    2.5202 H   0  0  0  0  0  0  0  0  0  0  0  0
    0.7509    3.1441    2.4193 H   0  0  0  0  0  0  0  0  0  0  0  0
   -0.3271    3.5090    1.0560 H   0  0  0  0  0  0  0  0  0  0  0  0
  1  2  1  0  0  0  0
  2  3  1  0  0  0  0
  2  4  1  0  0  0  0
  2  5  1  0  0  0  0
  5  6  2  0  0  0  0
  5  7  1  0  0  0  0
  7  8  1  0  0  0  0
  7  9  1  0  0  0  0
  9 10  1  0  0  0  0
  9 11  1  0  0  0  0
  9 22  1  0  0  0  0
 11 12  1  0  0  0  0
 11 13  1  0  0  0  0
 11 14  1  0  0  0  0
 14 15  1  0  0  0  0
 14 20  2  0  0  0  0
 15 16  2  0  0  0  0
 16 17  1  0  0  0  0
 16 18  1  0  0  0  0
 18 19  1  0  0  0  0
 18 20  1  0  0  0  0
 20 21  1  0  0  0  0
 22 23  2  0  0  0  0
 22 24  1  0  0  0  0
 24 25  1  0  0  0  0
 24 26  1  0  0  0  0
 26 27  1  0  0  0  0
 26 28  1  0  0  0  0
 26 29  1  0  0  0  0
M  END
$$$$

  -OEChem-04042215593D

 29 29  0     1  0  0  0  0  0999 V2000
   -2.6734   -4.4639    1.5587 H   0  0  0  0  0  0  0  0  0  0  0  0
   -2.8728   -3.4788    1.1274 C   0  0  0  0  0  0  0  0  0  0  0  0
   -3.4308   -2.8829    1.8538 H   0  0  0  0  0  0  0  0  0  0  0  0
   -3.4788   -3.6042    0.2270 H   0  0  0  0  0  0  0  0  0  0  0  0
   -1.5682   -2.7857    0.7821 C   0  0  0  0  0  0  0  0  0  0  0  0
   -0.5045   -3.3493    0.9816 O   0  0  0  0  0  0  0  0  0  0  0  0
   -1.5904   -1.5243    0.2286 N   0  0  0  0  0  0  0  0  0  0  0  0
   -2.4918   -1.0498    0.1804 H   0  0  0  0  0  0  0  0  0  0  0  0
   -0.4049   -0.6781    0.0313 C   0  0  1  0  0  0  0  0  0  0  0  0
    0.4093   -1.0377    0.6690 H   0  0  0  0  0  0  0  0  0  0  0  0
    0.1041   -0.6732   -1.4248 C   0  0  0  0  0  0  0  0  0  0  0  0
    0.8467    0.1204   -1.5517 H   0  0  0  0  0  0  0  0  0  0  0  0
    0.6120   -1.6243   -1.6088 H   0  0  0  0  0  0  0  0  0  0  0  0
   -0.9564   -0.5176   -2.4805 C   0  0  0  0  0  0  0  0  0  0  0  0
   -0.9565    0.5455   -3.3743 N   0  0  0  0  0  0  0  0  0  0  0  0
   -1.9676    0.3531   -4.1861 C   0  0  0  0  0  0  0  0  0  0  0  0
   -2.2465    1.0187   -4.9979 H   0  0  0  0  0  0  0  0  0  0  0  0
   -2.6147   -0.8248   -3.8644 N   0  0  0  0  0  0  0  0  0  0  0  0
   -3.4205   -1.2054   -4.3566 H   0  0  0  0  0  0  0  0  0  0  0  0
   -1.9617   -1.3930   -2.7912 C   0  0  0  0  0  0  0  0  0  0  0  0
   -2.1728   -2.3343   -2.2941 H   0  0  0  0  0  0  0  0  0  0  0  0
   -0.7295    0.7587    0.4930 C   0  0  0  0  0  0  0  0  0  0  0  0
   -1.8592    1.2104    0.3339 O   0  0  0  0  0  0  0  0  0  0  0  0
    0.1722    1.4624    1.2711 N   0  0  0  0  0  0  0  0  0  0  0  0
    1.0812    1.0407    1.4390 H   0  0  0  0  0  0  0  0  0  0  0  0
   -0.1094    2.7789    1.8300 C   0  0  0  0  0  0  0  0  0  0  0  0
   -0.9617    2.7298    2.5158 H   0  0  0  0  0  0  0  0  0  0  0  0
    0.7590    3.1483    2.3838 H   0  0  0  0  0  0  0  0  0  0  0  0
   -0.3392    3.4922    1.0314 H   0  0  0  0  0  0  0  0  0  0  0  0
  1  2  1  0  0  0  0
  2  3  1  0  0  0  0
  2  4  1  0  0  0  0
  2  5  1  0  0  0  0
  5  6  2  0  0  0  0
  5  7  1  0  0  0  0
  7  8  1  0  0  0  0
  7  9  1  0  0  0  0
  9 10  1  0  0  0  0
  9 11  1  0  0  0  0
  9 22  1  0  0  0  0
 11 12  1  0  0  0  0
 11 13  1  0  0  0  0
 11 14  1  0  0  0  0
 14 15  1  0  0  0  0
 14 20  2  0  0  0  0
 15 16  2  0  0  0  0
 16 17  1  0  0  0  0
 16 18  1  0  0  0  0
 18 19  1  0  0  0  0
 18 20  1  0  0  0  0
 20 21  1  0  0  0  0
 22 23  2  0  0  0  0
 22 24  1  0  0  0  0
 24 25  1  0  0  0  0
 24 26  1  0  0  0  0
 26 27  1  0  0  0  0
 26 28  1  0  0  0  0
 26 29  1  0  0  0  0
M  END
$$$$

  -OEChem-04042215593D

 29 29  0     1  0  0  0  0  0999 V2000
   -2.6219   -4.4859    1.6522 H   0  0  0  0  0  0  0  0  0  0  0  0
   -2.8416   -3.5119    1.2056 C   0  0  0  0  0  0  0  0  0  0  0  0
   -3.3947   -2.9096    1.9304 H   0  0  0  0  0  0  0  0  0  0  0  0
   -3.4608   -3.6622    0.3180 H   0  0  0  0  0  0  0  0  0  0  0  0
   -1.5524   -2.8092    0.8245 C   0  0  0  0  0  0  0  0  0  0  0  0
   -0.4795   -3.3615    1.0048 O   0  0  0  0  0  0  0  0  0  0  0  0
   -1.5993   -1.5484    0.2696 N   0  0  0  0  0  0  0  0  0  0  0  0
   -2.5020   -1.0744    0.2639 H   0  0  0  0  0  0  0  0  0  0  0  0
   -0.4236   -0.6976    0.0399 C   0  0  1  0  0  0  0  0  0  0  0  0
    0.4072   -1.0526    0.6583 H   0  0  0  0  0  0  0  0  0  0  0  0
    0.0628   -0.6724   -1.4253 C   0  0  0  0  0  0  0  0  0  0  0  0
    0.7960    0.1317   -1.5399 H   0  0  0  0  0  0  0  0  0  0  0  0
    0.5842   -1.6129   -1.6246 H   0  0  0  0  0  0  0  0  0  0  0  0
   -0.9858   -0.5129   -2.4969 C   0  0  0  0  0  0  0  0  0  0  0  0
   -0.7929    0.3732   -3.5504 N   0  0  0  0  0  0  0  0  0  0  0  0
   -1.8428    0.2731   -4.3284 C   0  0  0  0  0  0  0  0  0  0  0  0
   -1.9991    0.8476   -5.2369 H   0  0  0  0  0  0  0  0  0  0  0  0
   -2.7117   -0.6758   -3.8270 N   0  0  0  0  0  0  0  0  0  0  0  0
   -3.5950   -0.9473   -4.2538 H   0  0  0  0  0  0  0  0  0  0  0  0
   -2.1637   -1.1905   -2.6715 C   0  0  0  0  0  0  0  0  0  0  0  0
   -2.5616   -1.9764   -2.0399 H   0  0  0  0  0  0  0  0  0  0  0  0
   -0.7467    0.7367    0.5096 C   0  0  0  0  0  0  0  0  0  0  0  0
   -1.8788    1.1861    0.3608 O   0  0  0  0  0  0  0  0  0  0  0  0
    0.1683    1.4486    1.2641 N   0  0  0  0  0  0  0  0  0  0  0  0
    1.0861    1.0362    1.4056 H   0  0  0  0  0  0  0  0  0  0  0  0
   -0.1015    2.7728    1.8107 C   0  0  0  0  0  0  0  0  0  0  0  0
   -0.9606    2.7405    2.4889 H   0  0  0  0  0  0  0  0  0  0  0  0
    0.7662    3.1347    2.3705 H   0  0  0  0  0  0  0  0  0  0  0  0
   -0.3144    3.4830    1.0048 H   0  0  0  0  0  0  0  0  0  0  0  0
  1  2  1  0  0  0  0
  2  3  1  0  0  0  0
  2  4  1  0  0  0  0
  2  5  1  0  0  0  0
  5  6  2  0  0  0  0
  5  7  1  0  0  0  0
  7  8  1  0  0  0  0
  7  9  1  0  0  0  0
  9 10  1  0  0  0  0
  9 11  1  0  0  0  0
  9 22  1  0  0  0  0
 11 12  1  0  0  0  0
 11 13  1  0  0  0  0
 11 14  1  0  0  0  0
 14 15  1  0  0  0  0
 14 20  2  0  0  0  0
 15 16  2  0  0  0  0
 16 17  1  0  0  0  0
 16 18  1  0  0  0  0
 18 19  1  0  0  0  0
 18 20  1  0  0  0  0
 20 21  1  0  0  0  0
 22 23  2  0  0  0  0
 22 24  1  0  0  0  0
 24 25  1  0  0  0  0
 24 26  1  0  0  0  0
 26 27  1  0  0  0  0
 26 28  1  0  0  0  0
 26 29  1  0  0  0  0
M  END
$$$$

  -OEChem-04042215593D

 29 29  0     1  0  0  0  0  0999 V2000
   -2.5654   -4.5099    1.7225 H   0  0  0  0  0  0  0  0  0  0  0  0
   -2.8033   -3.5404    1.2758 C   0  0  0  0  0  0  0  0  0  0  0  0
   -3.3374   -2.9349    2.0121 H   0  0  0  0  0  0  0  0  0  0  0  0
   -3.4490   -3.7013    0.4093 H   0  0  0  0  0  0  0  0  0  0  0  0
   -1.5289   -2.8360    0.8495 C   0  0  0  0  0  0  0  0  0  0  0  0
   -0.4489   -3.3819    1.0047 O   0  0  0  0  0  0  0  0  0  0  0  0
   -1.5980   -1.5759    0.2944 N   0  0  0  0  0  0  0  0  0  0  0  0
   -2.4986   -1.1011    0.3387 H   0  0  0  0  0  0  0  0  0  0  0  0
   -0.4324   -0.7184    0.0401 C   0  0  1  0  0  0  0  0  0  0  0  0
    0.4124   -1.0668    0.6433 H   0  0  0  0  0  0  0  0  0  0  0  0
    0.0288   -0.6864   -1.4339 C   0  0  0  0  0  0  0  0  0  0  0  0
    0.7530    0.1261   -1.5480 H   0  0  0  0  0  0  0  0  0  0  0  0
    0.5612   -1.6193   -1.6404 H   0  0  0  0  0  0  0  0  0  0  0  0
   -1.0125   -0.5308   -2.5167 C   0  0  0  0  0  0  0  0  0  0  0  0
   -0.6666    0.1077   -3.7027 N   0  0  0  0  0  0  0  0  0  0  0  0
   -1.7421    0.1396   -4.4504 C   0  0  0  0  0  0  0  0  0  0  0  0
   -1.7969    0.5804   -5.4416 H   0  0  0  0  0  0  0  0  0  0  0  0
   -2.7899   -0.4696   -3.7909 N   0  0  0  0  0  0  0  0  0  0  0  0
   -3.7365   -0.5642   -4.1532 H   0  0  0  0  0  0  0  0  0  0  0  0
   -2.3336   -0.8961   -2.5620 C   0  0  0  0  0  0  0  0  0  0  0  0
   -2.9014   -1.4081   -1.7956 H   0  0  0  0  0  0  0  0  0  0  0  0
   -0.7580    0.7128    0.5160 C   0  0  0  0  0  0  0  0  0  0  0  0
   -1.8943    1.1549    0.3768 O   0  0  0  0  0  0  0  0  0  0  0  0
    0.1633    1.4349    1.2524 N   0  0  0  0  0  0  0  0  0  0  0  0
    1.0845    1.0272    1.3865 H   0  0  0  0  0  0  0  0  0  0  0  0
   -0.1090    2.7584    1.7995 C   0  0  0  0  0  0  0  0  0  0  0  0
   -0.9486    2.7180    2.5012 H   0  0  0  0  0  0  0  0  0  0  0  0
    0.7691    3.1348    2.3332 H   0  0  0  0  0  0  0  0  0  0  0  0
   -0.3541    3.4618    0.9967 H   0  0  0  0  0  0  0  0  0  0  0  0
  1  2  1  0  0  0  0
  2  3  1  0  0  0  0
  2  4  1  0  0  0  0
  2  5  1  0  0  0  0
  5  6  2  0  0  0  0
  5  7  1  0  0  0  0
  7  8  1  0  0  0  0
  7  9  1  0  0  0  0
  9 10  1  0  0  0  0
  9 11  1  0  0  0  0
  9 22  1  0  0  0  0
 11 12  1  0  0  0  0
 11 13  1  0  0  0  0
 11 14  1  0  0  0  0
 14 15  1  0  0  0  0
 14 20  2  0  0  0  0
 15 16  2  0  0  0  0
 16 17  1  0  0  0  0
 16 18  1  0  0  0  0
 18 19  1  0  0  0  0
 18 20  1  0  0  0  0
 20 21  1  0  0  0  0
 22 23  2  0  0  0  0
 22 24  1  0  0  0  0
 24 25  1  0  0  0  0
 24 26  1  0  0  0  0
 26 27  1  0  0  0  0
 26 28  1  0  0  0  0
 26 29  1  0  0  0  0
M  END
$$$$

  -OEChem-04042215593D

 29 29  0     1  0  0  0  0  0999 V2000
   -2.5452   -4.5337    1.6988 H   0  0  0  0  0  0  0  0  0  0  0  0
   -2.7882   -3.5596    1.2650 C   0  0  0  0  0  0  0  0  0  0  0  0
   -3.3247   -2.9664    2.0093 H   0  0  0  0  0  0  0  0  0  0  0  0
   -3.4325   -3.7121    0.3959 H   0  0  0  0  0  0  0  0  0  0  0  0
   -1.5186   -2.8421    0.8476 C   0  0  0  0  0  0  0  0  0  0  0  0
   -0.4338   -3.3764    1.0108 O   0  0  0  0  0  0  0  0  0  0  0  0
   -1.5977   -1.5801    0.2981 N   0  0  0  0  0  0  0  0  0  0  0  0
   -2.5011   -1.1137    0.3515 H   0  0  0  0  0  0  0  0  0  0  0  0
   -0.4350   -0.7175    0.0423 C   0  0  1  0  0  0  0  0  0  0  0  0
    0.4155   -1.0657    0.6377 H   0  0  0  0  0  0  0  0  0  0  0  0
    0.0088   -0.6955   -1.4366 C   0  0  0  0  0  0  0  0  0  0  0  0
    0.7363    0.1111   -1.5677 H   0  0  0  0  0  0  0  0  0  0  0  0
    0.5318   -1.6351   -1.6375 H   0  0  0  0  0  0  0  0  0  0  0  0
   -1.0392   -0.5481   -2.5139 C   0  0  0  0  0  0  0  0  0  0  0  0
   -0.6406   -0.2167   -3.8043 N   0  0  0  0  0  0  0  0  0  0  0  0
   -1.7290   -0.0697   -4.5189 C   0  0  0  0  0  0  0  0  0  0  0  0
   -1.7493    0.1898   -5.5734 H   0  0  0  0  0  0  0  0  0  0  0  0
   -2.8400   -0.2830   -3.7291 N   0  0  0  0  0  0  0  0  0  0  0  0
   -3.8059   -0.1874   -4.0357 H   0  0  0  0  0  0  0  0  0  0  0  0
   -2.4089   -0.5670   -2.4512 C   0  0  0  0  0  0  0  0  0  0  0  0
   -3.0236   -0.7268   -1.5742 H   0  0  0  0  0  0  0  0  0  0  0  0
   -0.7577    0.7121    0.5242 C   0  0  0  0  0  0  0  0  0  0  0  0
   -1.8940    1.1563    0.3881 O   0  0  0  0  0  0  0  0  0  0  0  0
    0.1674    1.4316    1.2580 N   0  0  0  0  0  0  0  0  0  0  0  0
    1.0857    1.0178    1.3949 H   0  0  0  0  0  0  0  0  0  0  0  0
   -0.1016    2.7521    1.8137 C   0  0  0  0  0  0  0  0  0  0  0  0
   -0.9368    2.7081    2.5207 H   0  0  0  0  0  0  0  0  0  0  0  0
    0.7801    3.1252    2.3436 H   0  0  0  0  0  0  0  0  0  0  0  0
   -0.3509    3.4598    1.0159 H   0  0  0  0  0  0  0  0  0  0  0  0
  1  2  1  0  0  0  0
  2  3  1  0  0  0  0
  2  4  1  0  0  0  0
  2  5  1  0  0  0  0
  5  6  2  0  0  0  0
  5  7  1  0  0  0  0
  7  8  1  0  0  0  0
  7  9  1  0  0  0  0
  9 10  1  0  0  0  0
  9 11  1  0  0  0  0
  9 22  1  0  0  0  0
 11 12  1  0  0  0  0
 11 13  1  0  0  0  0
 11 14  1  0  0  0  0
 14 15  1  0  0  0  0
 14 20  2  0  0  0  0
 15 16  2  0  0  0  0
 16 17  1  0  0  0  0
 16 18  1  0  0  0  0
 18 19  1  0  0  0  0
 18 20  1  0  0  0  0
 20 21  1  0  0  0  0
 22 23  2  0  0  0  0
 22 24  1  0  0  0  0
 24 25  1  0  0  0  0
 24 26  1  0  0  0  0
 26 27  1  0  0  0  0
 26 28  1  0  0  0  0
 26 29  1  0  0  0  0
M  END
$$$$

  -OEChem-04042215593D

 29 29  0     1  0  0  0  0  0999 V2000
   -2.5788   -4.5180    1.4162 H   0  0  0  0  0  0  0  0  0  0  0  0
   -2.8231   -3.5239    1.0314 C   0  0  0  0  0  0  0  0  0  0  0  0
   -3.4086   -2.9898    1.7835 H   0  0  0  0  0  0  0  0  0  0  0  0
   -3.4216   -3.6346    0.1239 H   0  0  0  0  0  0  0  0  0  0  0  0
   -1.5514   -2.7566    0.7225 C   0  0  0  0  0  0  0  0  0  0  0  0
   -0.4641   -3.2826    0.8973 O   0  0  0  0  0  0  0  0  0  0  0  0
   -1.6323   -1.4608    0.2578 N   0  0  0  0  0  0  0  0  0  0  0  0
   -2.5538   -1.0301    0.2500 H   0  0  0  0  0  0  0  0  0  0  0  0
   -0.4788   -0.5726    0.0499 C   0  0  1  0  0  0  0  0  0  0  0  0
    0.3591   -0.9621    0.6372 H   0  0  0  0  0  0  0  0  0  0  0  0
   -0.0181   -0.5811   -1.4209 C   0  0  0  0  0  0  0  0  0  0  0  0
    0.8649    0.0576   -1.5120 H   0  0  0  0  0  0  0  0  0  0  0  0
    0.2930   -1.5997   -1.6708 H   0  0  0  0  0  0  0  0  0  0  0  0
   -1.0063   -0.1430   -2.4729 C   0  0  0  0  0  0  0  0  0  0  0  0
   -0.6340   -0.1348   -3.8120 N   0  0  0  0  0  0  0  0  0  0  0  0
   -1.6715    0.2828   -4.4956 C   0  0  0  0  0  0  0  0  0  0  0  0
   -1.6973    0.4026   -5.5749 H   0  0  0  0  0  0  0  0  0  0  0  0
   -2.7211    0.5482   -3.6395 N   0  0  0  0  0  0  0  0  0  0  0  0
   -3.6332    0.9044   -3.9184 H   0  0  0  0  0  0  0  0  0  0  0  0
   -2.3045    0.2792   -2.3538 C   0  0  0  0  0  0  0  0  0  0  0  0
   -2.8769    0.3926   -1.4396 H   0  0  0  0  0  0  0  0  0  0  0  0
   -0.7322    0.8467    0.6023 C   0  0  0  0  0  0  0  0  0  0  0  0
   -1.8557    1.3366    0.5550 O   0  0  0  0  0  0  0  0  0  0  0  0
    0.2445    1.4853    1.3447 N   0  0  0  0  0  0  0  0  0  0  0  0
    1.1415    1.0175    1.4430 H   0  0  0  0  0  0  0  0  0  0  0  0
    0.0393    2.7638    2.0147 C   0  0  0  0  0  0  0  0  0  0  0  0
   -0.7578    2.6818    2.7609 H   0  0  0  0  0  0  0  0  0  0  0  0
    0.9571    3.0763    2.5220 H   0  0  0  0  0  0  0  0  0  0  0  0
   -0.2344    3.5369    1.2892 H   0  0  0  0  0  0  0  0  0  0  0  0
  1  2  1  0  0  0  0
  2  3  1  0  0  0  0
  2  4  1  0  0  0  0
  2  5  1  0  0  0  0
  5  6  2  0  0  0  0
  5  7  1  0  0  0  0
  7  8  1  0  0  0  0
  7  9  1  0  0  0  0
  9 10  1  0  0  0  0
  9 11  1  0  0  0  0
  9 22  1  0  0  0  0
 11 12  1  0  0  0  0
 11 13  1  0  0  0  0
 11 14  1  0  0  0  0
 14 15  1  0  0  0  0
 14 20  2  0  0  0  0
 15 16  2  0  0  0  0
 16 17  1  0  0  0  0
 16 18  1  0  0  0  0
 18 19  1  0  0  0  0
 18 20  1  0  0  0  0
 20 21  1  0  0  0  0
 22 23  2  0  0  0  0
 22 24  1  0  0  0  0
 24 25  1  0  0  0  0
 24 26  1  0  0  0  0
 26 27  1  0  0  0  0
 26 28  1  0  0  0  0
 26 29  1  0  0  0  0
M  END
$$$$

  -OEChem-04042215593D

 29 29  0     1  0  0  0  0  0999 V2000
   -2.5966   -4.5018    1.3287 H   0  0  0  0  0  0  0  0  0  0  0  0
   -2.8381   -3.5005    0.9611 C   0  0  0  0  0  0  0  0  0  0  0  0
   -3.4502   -2.9893    1.7079 H   0  0  0  0  0  0  0  0  0  0  0  0
   -3.4078   -3.5940    0.0334 H   0  0  0  0  0  0  0  0  0  0  0  0
   -1.5648   -2.7153    0.7082 C   0  0  0  0  0  0  0  0  0  0  0  0
   -0.4785   -3.2367    0.9027 O   0  0  0  0  0  0  0  0  0  0  0  0
   -1.6435   -1.4101    0.2697 N   0  0  0  0  0  0  0  0  0  0  0  0
   -2.5696   -0.9933    0.2125 H   0  0  0  0  0  0  0  0  0  0  0  0
   -0.4915   -0.5205    0.0630 C   0  0  1  0  0  0  0  0  0  0  0  0
    0.3455   -0.9233    0.6426 H   0  0  0  0  0  0  0  0  0  0  0  0
   -0.0323   -0.5413   -1.4080 C   0  0  0  0  0  0  0  0  0  0  0  0
    0.8551    0.0894   -1.5097 H   0  0  0  0  0  0  0  0  0  0  0  0
    0.2720   -1.5659   -1.6432 H   0  0  0  0  0  0  0  0  0  0  0  0
   -1.0184   -0.1163   -2.4679 C   0  0  0  0  0  0  0  0  0  0  0  0
   -0.7600   -0.4124   -3.8013 N   0  0  0  0  0  0  0  0  0  0  0  0
   -1.7743    0.0358   -4.4994 C   0  0  0  0  0  0  0  0  0  0  0  0
   -1.8680   -0.0403   -5.5789 H   0  0  0  0  0  0  0  0  0  0  0  0
   -2.7016    0.6146   -3.6575 N   0  0  0  0  0  0  0  0  0  0  0  0
   -3.5761    1.0454   -3.9514 H   0  0  0  0  0  0  0  0  0  0  0  0
   -2.2317    0.5132   -2.3658 C   0  0  0  0  0  0  0  0  0  0  0  0
   -2.7238    0.8612   -1.4649 H   0  0  0  0  0  0  0  0  0  0  0  0
   -0.7133    0.8948    0.6390 C   0  0  0  0  0  0  0  0  0  0  0  0
   -1.8304    1.3998    0.6371 O   0  0  0  0  0  0  0  0  0  0  0  0
    0.2885    1.5062    1.3712 N   0  0  0  0  0  0  0  0  0  0  0  0
    1.1764    1.0181    1.4524 H   0  0  0  0  0  0  0  0  0  0  0  0
    0.1089    2.7619    2.0896 C   0  0  0  0  0  0  0  0  0  0  0  0
   -0.6474    2.6497    2.8736 H   0  0  0  0  0  0  0  0  0  0  0  0
    1.0498    3.0676    2.5572 H   0  0  0  0  0  0  0  0  0  0  0  0
   -0.2081    3.5542    1.4032 H   0  0  0  0  0  0  0  0  0  0  0  0
  1  2  1  0  0  0  0
  2  3  1  0  0  0  0
  2  4  1  0  0  0  0
  2  5  1  0  0  0  0
  5  6  2  0  0  0  0
  5  7  1  0  0  0  0
  7  8  1  0  0  0  0
  7  9  1  0  0  0  0
  9 10  1  0  0  0  0
  9 11  1  0  0  0  0
  9 22  1  0  0  0  0
 11 12  1  0  0  0  0
 11 13  1  0  0  0  0
 11 14  1  0  0  0  0
 14 15  1  0  0  0  0
 14 20  2  0  0  0  0
 15 16  2  0  0  0  0
 16 17  1  0  0  0  0
 16 18  1  0  0  0  0
 18 19  1  0  0  0  0
 18 20  1  0  0  0  0
 20 21  1  0  0  0  0
 22 23  2  0  0  0  0
 22 24  1  0  0  0  0
 24 25  1  0  0  0  0
 24 26  1  0  0  0  0
 26 27  1  0  0  0  0
 26 28  1  0  0  0  0
 26 29  1  0  0  0  0
M  END
$$$$

  -OEChem-04042215593D

 29 29  0     1  0  0  0  0  0999 V2000
   -2.6198   -4.4815    1.2544 H   0  0  0  0  0  0  0  0  0  0  0  0
   -2.8531   -3.4745    0.8974 C   0  0  0  0  0  0  0  0  0  0  0  0
   -3.4926   -2.9794    1.6319 H   0  0  0  0  0  0  0  0  0  0  0  0
   -3.3902   -3.5529   -0.0510 H   0  0  0  0  0  0  0  0  0  0  0  0
   -1.5756   -2.6804    0.7032 C   0  0  0  0  0  0  0  0  0  0  0  0
   -0.4949   -3.1977    0.9368 O   0  0  0  0  0  0  0  0  0  0  0  0
   -1.6444   -1.3725    0.2720 N   0  0  0  0  0  0  0  0  0  0  0  0
   -2.5696   -0.9654    0.1563 H   0  0  0  0  0  0  0  0  0  0  0  0
   -0.4883   -0.4886    0.0693 C   0  0  1  0  0  0  0  0  0  0  0  0
    0.3440   -0.8974    0.6514 H   0  0  0  0  0  0  0  0  0  0  0  0
   -0.0281   -0.5332   -1.4015 C   0  0  0  0  0  0  0  0  0  0  0  0
    0.8668    0.0842   -1.5156 H   0  0  0  0  0  0  0  0  0  0  0  0
    0.2650   -1.5654   -1.6181 H   0  0  0  0  0  0  0  0  0  0  0  0
   -1.0151   -0.1178   -2.4656 C   0  0  0  0  0  0  0  0  0  0  0  0
   -0.9393   -0.6868   -3.7322 N   0  0  0  0  0  0  0  0  0  0  0  0
   -1.9139   -0.1780   -4.4448 C   0  0  0  0  0  0  0  0  0  0  0  0
   -2.1195   -0.4235   -5.4829 H   0  0  0  0  0  0  0  0  0  0  0  0
   -2.6366    0.7119   -3.6774 N   0  0  0  0  0  0  0  0  0  0  0  0
   -3.4443    1.2440   -3.9960 H   0  0  0  0  0  0  0  0  0  0  0  0
   -2.0737    0.7519   -2.4198 C   0  0  0  0  0  0  0  0  0  0  0  0
   -2.4049    1.3533   -1.5813 H   0  0  0  0  0  0  0  0  0  0  0  0
   -0.6966    0.9261    0.6515 C   0  0  0  0  0  0  0  0  0  0  0  0
   -1.8103    1.4383    0.6637 O   0  0  0  0  0  0  0  0  0  0  0  0
    0.3134    1.5238    1.3841 N   0  0  0  0  0  0  0  0  0  0  0  0
    1.1896    1.0165    1.4738 H   0  0  0  0  0  0  0  0  0  0  0  0
    0.1382    2.7586    2.1394 C   0  0  0  0  0  0  0  0  0  0  0  0
   -0.6175    2.6262    2.9206 H   0  0  0  0  0  0  0  0  0  0  0  0
    1.0804    3.0477    2.6150 H   0  0  0  0  0  0  0  0  0  0  0  0
   -0.1770    3.5720    1.4776 H   0  0  0  0  0  0  0  0  0  0  0  0
  1  2  1  0  0  0  0
  2  3  1  0  0  0  0
  2  4  1  0  0  0  0
  2  5  1  0  0  0  0
  5  6  2  0  0  0  0
  5  7  1  0  0  0  0
  7  8  1  0  0  0  0
  7  9  1  0  0  0  0
  9 10  1  0  0  0  0
  9 11  1  0  0  0  0
  9 22  1  0  0  0  0
 11 12  1  0  0  0  0
 11 13  1  0  0  0  0
 11 14  1  0  0  0  0
 14 15  1  0  0  0  0
 14 20  2  0  0  0  0
 15 16  2  0  0  0  0
 16 17  1  0  0  0  0
 16 18  1  0  0  0  0
 18 19  1  0  0  0  0
 18 20  1  0  0  0  0
 20 21  1  0  0  0  0
 22 23  2  0  0  0  0
 22 24  1  0  0  0  0
 24 25  1  0  0  0  0
 24 26  1  0  0  0  0
 26 27  1  0  0  0  0
 26 28  1  0  0  0  0
 26 29  1  0  0  0  0
M  END
$$$$

  -OEChem-04042215593D

 29 29  0     1  0  0  0  0  0999 V2000
   -2.6434   -4.4864    1.2210 H   0  0  0  0  0  0  0  0  0  0  0  0
   -2.8621   -3.4811    0.8500 C   0  0  0  0  0  0  0  0  0  0  0  0
   -3.5413   -2.9873    1.5490 H   0  0  0  0  0  0  0  0  0  0  0  0
   -3.3488   -3.5641   -0.1250 H   0  0  0  0  0  0  0  0  0  0  0  0
   -1.5799   -2.6810    0.7196 C   0  0  0  0  0  0  0  0  0  0  0  0
   -0.5109   -3.1896    1.0181 O   0  0  0  0  0  0  0  0  0  0  0  0
   -1.6308   -1.3784    0.2701 N   0  0  0  0  0  0  0  0  0  0  0  0
   -2.5483   -0.9845    0.0741 H   0  0  0  0  0  0  0  0  0  0  0  0
   -0.4664   -0.5037    0.0763 C   0  0  1  0  0  0  0  0  0  0  0  0
    0.3620   -0.9084    0.6667 H   0  0  0  0  0  0  0  0  0  0  0  0
   -0.0091   -0.5627   -1.3956 C   0  0  0  0  0  0  0  0  0  0  0  0
    0.8856    0.0537   -1.5177 H   0  0  0  0  0  0  0  0  0  0  0  0
    0.2800   -1.5958   -1.6139 H   0  0  0  0  0  0  0  0  0  0  0  0
   -1.0127   -0.1380   -2.4394 C   0  0  0  0  0  0  0  0  0  0  0  0
   -1.1982   -0.8927   -3.5925 N   0  0  0  0  0  0  0  0  0  0  0  0
   -2.0992   -0.2745   -4.3161 C   0  0  0  0  0  0  0  0  0  0  0  0
   -2.4649   -0.6176   -5.2796 H   0  0  0  0  0  0  0  0  0  0  0  0
   -2.5077    0.8752   -3.6716 N   0  0  0  0  0  0  0  0  0  0  0  0
   -3.1936    1.5383   -4.0273 H   0  0  0  0  0  0  0  0  0  0  0  0
   -1.8141    0.9719   -2.4845 C   0  0  0  0  0  0  0  0  0  0  0  0
   -1.8809    1.7693   -1.7517 H   0  0  0  0  0  0  0  0  0  0  0  0
   -0.6898    0.9155    0.6398 C   0  0  0  0  0  0  0  0  0  0  0  0
   -1.7971    1.4400    0.5940 O   0  0  0  0  0  0  0  0  0  0  0  0
    0.3030    1.5234    1.3872 N   0  0  0  0  0  0  0  0  0  0  0  0
    1.1667    1.0054    1.5260 H   0  0  0  0  0  0  0  0  0  0  0  0
    0.1101    2.7717    2.1153 C   0  0  0  0  0  0  0  0  0  0  0  0
   -0.6722    2.6563    2.8729 H   0  0  0  0  0  0  0  0  0  0  0  0
    1.0377    3.0633    2.6175 H   0  0  0  0  0  0  0  0  0  0  0  0
   -0.1783    3.5753    1.4295 H   0  0  0  0  0  0  0  0  0  0  0  0
  1  2  1  0  0  0  0
  2  3  1  0  0  0  0
  2  4  1  0  0  0  0
  2  5  1  0  0  0  0
  5  6  2  0  0  0  0
  5  7  1  0  0  0  0
  7  8  1  0  0  0  0
  7  9  1  0  0  0  0
  9 10  1  0  0  0  0
  9 11  1  0  0  0  0
  9 22  1  0  0  0  0
 11 12  1  0  0  0  0
 11 13  1  0  0  0  0
 11 14  1  0  0  0  0
 14 15  1  0  0  0  0
 14 20  2  0  0  0  0
 15 16  2  0  0  0  0
 16 17  1  0  0  0  0
 16 18  1  0  0  0  0
 18 19  1  0  0  0  0
 18 20  1  0  0  0  0
 20 21  1  0  0  0  0
 22 23  2  0  0  0  0
 22 24  1  0  0  0  0
 24 25  1  0  0  0  0
 24 26  1  0  0  0  0
 26 27  1  0  0  0  0
 26 28  1  0  0  0  0
 26 29  1  0  0  0  0
M  END
$$$$

  -OEChem-04042215593D

 29 29  0     1  0  0  0  0  0999 V2000
   -2.6641   -4.4999    1.1731 H   0  0  0  0  0  0  0  0  0  0  0  0
   -2.8669   -3.5001    0.7791 C   0  0  0  0  0  0  0  0  0  0  0  0
   -3.6045   -3.0111    1.4199 H   0  0  0  0  0  0  0  0  0  0  0  0
   -3.2758   -3.5954   -0.2299 H   0  0  0  0  0  0  0  0  0  0  0  0
   -1.5891   -2.6837    0.7426 C   0  0  0  0  0  0  0  0  0  0  0  0
   -0.5422   -3.1701    1.1412 O   0  0  0  0  0  0  0  0  0  0  0  0
   -1.6192   -1.3911    0.2644 N   0  0  0  0  0  0  0  0  0  0  0  0
   -2.5145   -1.0312   -0.0592 H   0  0  0  0  0  0  0  0  0  0  0  0
   -0.4444   -0.5269    0.0917 C   0  0  1  0  0  0  0  0  0  0  0  0
    0.3746   -0.9266    0.6982 H   0  0  0  0  0  0  0  0  0  0  0  0
    0.0177   -0.5948   -1.3773 C   0  0  0  0  0  0  0  0  0  0  0  0
    0.9112    0.0235   -1.4981 H   0  0  0  0  0  0  0  0  0  0  0  0
    0.3040   -1.6258   -1.6074 H   0  0  0  0  0  0  0  0  0  0  0  0
   -1.0048   -0.1511   -2.3910 C   0  0  0  0  0  0  0  0  0  0  0  0
   -1.4743   -1.0007   -3.3862 N   0  0  0  0  0  0  0  0  0  0  0  0
   -2.2937   -0.2970   -4.1296 C   0  0  0  0  0  0  0  0  0  0  0  0
   -2.8314   -0.6779   -4.9932 H   0  0  0  0  0  0  0  0  0  0  0  0
   -2.3659    0.9972   -3.6540 N   0  0  0  0  0  0  0  0  0  0  0  0
   -2.9305    1.7431   -4.0561 H   0  0  0  0  0  0  0  0  0  0  0  0
   -1.5354    1.0987   -2.5590 C   0  0  0  0  0  0  0  0  0  0  0  0
   -1.3389    1.9782   -1.9521 H   0  0  0  0  0  0  0  0  0  0  0  0
   -0.6816    0.9044    0.6188 C   0  0  0  0  0  0  0  0  0  0  0  0
   -1.7640    1.4598    0.4671 O   0  0  0  0  0  0  0  0  0  0  0  0
    0.2860    1.5254    1.3882 N   0  0  0  0  0  0  0  0  0  0  0  0
    1.1236    0.9915    1.6046 H   0  0  0  0  0  0  0  0  0  0  0  0
    0.0834    2.8091    2.0488 C   0  0  0  0  0  0  0  0  0  0  0  0
   -0.7253    2.7380    2.7835 H   0  0  0  0  0  0  0  0  0  0  0  0
    0.9971    3.1148    2.5674 H   0  0  0  0  0  0  0  0  0  0  0  0
   -0.1720    3.5820    1.3163 H   0  0  0  0  0  0  0  0  0  0  0  0
  1  2  1  0  0  0  0
  2  3  1  0  0  0  0
  2  4  1  0  0  0  0
  2  5  1  0  0  0  0
  5  6  2  0  0  0  0
  5  7  1  0  0  0  0
  7  8  1  0  0  0  0
  7  9  1  0  0  0  0
  9 10  1  0  0  0  0
  9 11  1  0  0  0  0
  9 22  1  0  0  0  0
 11 12  1  0  0  0  0
 11 13  1  0  0  0  0
 11 14  1  0  0  0  0
 14 15  1  0  0  0  0
 14 20  2  0  0  0  0
 15 16  2  0  0  0  0
 16 17  1  0  0  0  0
 16 18  1  0  0  0  0
 18 19  1  0  0  0  0
 18 20  1  0  0  0  0
 20 21  1  0  0  0  0
 22 23  2  0  0  0  0
 22 24  1  0  0  0  0
 24 25  1  0  0  0  0
 24 26  1  0  0  0  0
 26 27  1  0  0  0  0
 26 28  1  0  0  0  0
 26 29  1  0  0  0  0
M  END
$$$$

  -OEChem-04042215593D

 29 29  0     1  0  0  0  0  0999 V2000
   -2.6655   -4.5190    1.0720 H   0  0  0  0  0  0  0  0  0  0  0  0
   -2.8615   -3.5156    0.6843 C   0  0  0  0  0  0  0  0  0  0  0  0
   -3.6594   -3.0581    1.2739 H   0  0  0  0  0  0  0  0  0  0  0  0
   -3.1865   -3.5974   -0.3559 H   0  0  0  0  0  0  0  0  0  0  0  0
   -1.6056   -2.6688    0.7660 C   0  0  0  0  0  0  0  0  0  0  0  0
   -0.5908   -3.1279    1.2675 O   0  0  0  0  0  0  0  0  0  0  0  0
   -1.6160   -1.3859    0.2624 N   0  0  0  0  0  0  0  0  0  0  0  0
   -2.4661   -1.0805   -0.2068 H   0  0  0  0  0  0  0  0  0  0  0  0
   -0.4298   -0.5327    0.1135 C   0  0  1  0  0  0  0  0  0  0  0  0
    0.3781   -0.9309    0.7353 H   0  0  0  0  0  0  0  0  0  0  0  0
    0.0389   -0.6150   -1.3512 C   0  0  0  0  0  0  0  0  0  0  0  0
    0.9350   -0.0003   -1.4727 H   0  0  0  0  0  0  0  0  0  0  0  0
    0.3158   -1.6475   -1.5864 H   0  0  0  0  0  0  0  0  0  0  0  0
   -0.9974   -0.1557   -2.3409 C   0  0  0  0  0  0  0  0  0  0  0  0
   -1.7273   -1.0369   -3.1303 N   0  0  0  0  0  0  0  0  0  0  0  0
   -2.4818   -0.3009   -3.9110 C   0  0  0  0  0  0  0  0  0  0  0  0
   -3.1808   -0.6912   -4.6452 H   0  0  0  0  0  0  0  0  0  0  0  0
   -2.2533    1.0387   -3.6628 N   0  0  0  0  0  0  0  0  0  0  0  0
   -2.7216    1.8134   -4.1289 H   0  0  0  0  0  0  0  0  0  0  0  0
   -1.2981    1.1354   -2.6741 C   0  0  0  0  0  0  0  0  0  0  0  0
   -0.8785    2.0340   -2.2305 H   0  0  0  0  0  0  0  0  0  0  0  0
   -0.6674    0.9122    0.6040 C   0  0  0  0  0  0  0  0  0  0  0  0
   -1.7111    1.5037    0.3526 O   0  0  0  0  0  0  0  0  0  0  0  0
    0.2826    1.5362    1.3925 N   0  0  0  0  0  0  0  0  0  0  0  0
    1.0867    0.9838    1.6782 H   0  0  0  0  0  0  0  0  0  0  0  0
    0.0905    2.8533    1.9874 C   0  0  0  0  0  0  0  0  0  0  0  0
   -0.7866    2.8542    2.6431 H   0  0  0  0  0  0  0  0  0  0  0  0
    0.9666    3.1304    2.5816 H   0  0  0  0  0  0  0  0  0  0  0  0
   -0.0510    3.6091    1.2078 H   0  0  0  0  0  0  0  0  0  0  0  0
  1  2  1  0  0  0  0
  2  3  1  0  0  0  0
  2  4  1  0  0  0  0
  2  5  1  0  0  0  0
  5  6  2  0  0  0  0
  5  7  1  0  0  0  0
  7  8  1  0  0  0  0
  7  9  1  0  0  0  0
  9 10  1  0  0  0  0
  9 11  1  0  0  0  0
  9 22  1  0  0  0  0
 11 12  1  0  0  0  0
 11 13  1  0  0  0  0
 11 14  1  0  0  0  0
 14 15  1  0  0  0  0
 14 20  2  0  0  0  0
 15 16  2  0  0  0  0
 16 17  1  0  0  0  0
 16 18  1  0  0  0  0
 18 19  1  0  0  0  0
 18 20  1  0  0  0  0
 20 21  1  0  0  0  0
 22 23  2  0  0  0  0
 22 24  1  0  0  0  0
 24 25  1  0  0  0  0
 24 26  1  0  0  0  0
 26 27  1  0  0  0  0
 26 28  1  0  0  0  0
 26 29  1  0  0  0  0
M  END
$$$$

  -OEChem-04042215593D

 29 29  0     1  0  0  0  0  0999 V2000
   -2.6778   -4.5169    1.0400 H   0  0  0  0  0  0  0  0  0  0  0  0
   -2.8580   -3.5219    0.6238 C   0  0  0  0  0  0  0  0  0  0  0  0
   -3.6999   -3.0656    1.1497 H   0  0  0  0  0  0  0  0  0  0  0  0
   -3.1097   -3.6231   -0.4350 H   0  0  0  0  0  0  0  0  0  0  0  0
   -1.6215   -2.6571    0.7796 C   0  0  0  0  0  0  0  0  0  0  0  0
   -0.6396   -3.0937    1.3609 O   0  0  0  0  0  0  0  0  0  0  0  0
   -1.6128   -1.3835    0.2538 N   0  0  0  0  0  0  0  0  0  0  0  0
   -2.4074   -1.1302   -0.3320 H   0  0  0  0  0  0  0  0  0  0  0  0
   -0.4157   -0.5427    0.1251 C   0  0  1  0  0  0  0  0  0  0  0  0
    0.3814   -0.9403    0.7611 H   0  0  0  0  0  0  0  0  0  0  0  0
    0.0614   -0.6324   -1.3360 C   0  0  0  0  0  0  0  0  0  0  0  0
    0.9652   -0.0278   -1.4538 H   0  0  0  0  0  0  0  0  0  0  0  0
    0.3236   -1.6674   -1.5763 H   0  0  0  0  0  0  0  0  0  0  0  0
   -0.9797   -0.1545   -2.3109 C   0  0  0  0  0  0  0  0  0  0  0  0
   -1.9362   -0.9911   -2.8765 N   0  0  0  0  0  0  0  0  0  0  0  0
   -2.6316   -0.2471   -3.7041 C   0  0  0  0  0  0  0  0  0  0  0  0
   -3.4670   -0.5997   -4.3020 H   0  0  0  0  0  0  0  0  0  0  0  0
   -2.1452    1.0462   -3.7043 N   0  0  0  0  0  0  0  0  0  0  0  0
   -2.5278    1.8199   -4.2445 H   0  0  0  0  0  0  0  0  0  0  0  0
   -1.0834    1.1062   -2.8281 C   0  0  0  0  0  0  0  0  0  0  0  0
   -0.4676    1.9639   -2.5752 H   0  0  0  0  0  0  0  0  0  0  0  0
   -0.6559    0.9126    0.5853 C   0  0  0  0  0  0  0  0  0  0  0  0
   -1.6721    1.5208    0.2697 O   0  0  0  0  0  0  0  0  0  0  0  0
    0.2765    1.5419    1.3912 N   0  0  0  0  0  0  0  0  0  0  0  0
    1.0568    0.9827    1.7252 H   0  0  0  0  0  0  0  0  0  0  0  0
    0.0876    2.8801    1.9382 C   0  0  0  0  0  0  0  0  0  0  0  0
   -0.7988    2.9100    2.5803 H   0  0  0  0  0  0  0  0  0  0  0  0
    0.9576    3.1708    2.5346 H   0  0  0  0  0  0  0  0  0  0  0  0
   -0.0366    3.6100    1.1315 H   0  0  0  0  0  0  0  0  0  0  0  0
  1  2  1  0  0  0  0
  2  3  1  0  0  0  0
  2  4  1  0  0  0  0
  2  5  1  0  0  0  0
  5  6  2  0  0  0  0
  5  7  1  0  0  0  0
  7  8  1  0  0  0  0
  7  9  1  0  0  0  0
  9 10  1  0  0  0  0
  9 11  1  0  0  0  0
  9 22  1  0  0  0  0
 11 12  1  0  0  0  0
 11 13  1  0  0  0  0
 11 14  1  0  0  0  0
 14 15  1  0  0  0  0
 14 20  2  0  0  0  0
 15 16  2  0  0  0  0
 16 17  1  0  0  0  0
 16 18  1  0  0  0  0
 18 19  1  0  0  0  0
 18 20  1  0  0  0  0
 20 21  1  0  0  0  0
 22 23  2  0  0  0  0
 22 24  1  0  0  0  0
 24 25  1  0  0  0  0
 24 26  1  0  0  0  0
 26 27  1  0  0  0  0
 26 28  1  0  0  0  0
 26 29  1  0  0  0  0
M  END
$$$$

  -OEChem-04042215593D

 29 29  0     1  0  0  0  0  0999 V2000
   -2.6772   -4.5225    1.0128 H   0  0  0  0  0  0  0  0  0  0  0  0
   -2.8534   -3.5293    0.5909 C   0  0  0  0  0  0  0  0  0  0  0  0
   -3.7186   -3.0824    1.0863 H   0  0  0  0  0  0  0  0  0  0  0  0
   -3.0662   -3.6319   -0.4762 H   0  0  0  0  0  0  0  0  0  0  0  0
   -1.6336   -2.6504    0.7909 C   0  0  0  0  0  0  0  0  0  0  0  0
   -0.6713   -3.0721    1.4148 O   0  0  0  0  0  0  0  0  0  0  0  0
   -1.6159   -1.3835    0.2507 N   0  0  0  0  0  0  0  0  0  0  0  0
   -2.3688   -1.1666   -0.4041 H   0  0  0  0  0  0  0  0  0  0  0  0
   -0.4149   -0.5481    0.1339 C   0  0  1  0  0  0  0  0  0  0  0  0
    0.3749   -0.9438    0.7799 H   0  0  0  0  0  0  0  0  0  0  0  0
    0.0741   -0.6415   -1.3233 C   0  0  0  0  0  0  0  0  0  0  0  0
    0.9845   -0.0460   -1.4347 H   0  0  0  0  0  0  0  0  0  0  0  0
    0.3263   -1.6799   -1.5588 H   0  0  0  0  0  0  0  0  0  0  0  0
   -0.9589   -0.1589   -2.3063 C   0  0  0  0  0  0  0  0  0  0  0  0
   -2.0927   -0.8877   -2.6571 N   0  0  0  0  0  0  0  0  0  0  0  0
   -2.7379   -0.1574   -3.5363 C   0  0  0  0  0  0  0  0  0  0  0  0
   -3.6769   -0.4379   -4.0050 H   0  0  0  0  0  0  0  0  0  0  0  0
   -2.0490    1.0155   -3.7796 N   0  0  0  0  0  0  0  0  0  0  0  0
   -2.3577    1.7608   -4.4009 H   0  0  0  0  0  0  0  0  0  0  0  0
   -0.9107    1.0156   -3.0026 C   0  0  0  0  0  0  0  0  0  0  0  0
   -0.1459    1.7826   -2.9293 H   0  0  0  0  0  0  0  0  0  0  0  0
   -0.6544    0.9141    0.5731 C   0  0  0  0  0  0  0  0  0  0  0  0
   -1.6461    1.5370    0.2114 O   0  0  0  0  0  0  0  0  0  0  0  0
    0.2699    1.5443    1.3877 N   0  0  0  0  0  0  0  0  0  0  0  0
    1.0252    0.9755    1.7602 H   0  0  0  0  0  0  0  0  0  0  0  0
    0.0945    2.8985    1.8982 C   0  0  0  0  0  0  0  0  0  0  0  0
   -0.7974    2.9575    2.5310 H   0  0  0  0  0  0  0  0  0  0  0  0
    0.9632    3.1928    2.4951 H   0  0  0  0  0  0  0  0  0  0  0  0
   -0.0115    3.6087    1.0714 H   0  0  0  0  0  0  0  0  0  0  0  0
  1  2  1  0  0  0  0
  2  3  1  0  0  0  0
  2  4  1  0  0  0  0
  2  5  1  0  0  0  0
  5  6  2  0  0  0  0
  5  7  1  0  0  0  0
  7  8  1  0  0  0  0
  7  9  1  0  0  0  0
  9 10  1  0  0  0  0
  9 11  1  0  0  0  0
  9 22  1  0  0  0  0
 11 12  1  0  0  0  0
 11 13  1  0  0  0  0
 11 14  1  0  0  0  0
 14 15  1  0  0  0  0
 14 20  2  0  0  0  0
 15 16  2  0  0  0  0
 16 17  1  0  0  0  0
 16 18  1  0  0  0  0
 18 19  1  0  0  0  0
 18 20  1  0  0  0  0
 20 21  1  0  0  0  0
 22 23  2  0  0  0  0
 22 24  1  0  0  0  0
 24 25  1  0  0  0  0
 24 26  1  0  0  0  0
 26 27  1  0  0  0  0
 26 28  1  0  0  0  0
 26 29  1  0  0  0  0
M  END
$$$$

  -OEChem-04042215593D

 29 29  0     1  0  0  0  0  0999 V2000
   -2.6830   -4.5230    1.0592 H   0  0  0  0  0  0  0  0  0  0  0  0
   -2.8554   -3.5361    0.6212 C   0  0  0  0  0  0  0  0  0  0  0  0
   -3.7169   -3.0765    1.1115 H   0  0  0  0  0  0  0  0  0  0  0  0
   -3.0719   -3.6549   -0.4435 H   0  0  0  0  0  0  0  0  0  0  0  0
   -1.6300   -2.6608    0.8027 C   0  0  0  0  0  0  0  0  0  0  0  0
   -0.6607   -3.0850    1.4142 O   0  0  0  0  0  0  0  0  0  0  0  0
   -1.6130   -1.3972    0.2554 N   0  0  0  0  0  0  0  0  0  0  0  0
   -2.3739   -1.1734   -0.3900 H   0  0  0  0  0  0  0  0  0  0  0  0
   -0.4159   -0.5595    0.1278 C   0  0  1  0  0  0  0  0  0  0  0  0
    0.3750   -0.9490    0.7761 H   0  0  0  0  0  0  0  0  0  0  0  0
    0.0803   -0.6447   -1.3286 C   0  0  0  0  0  0  0  0  0  0  0  0
    0.9944   -0.0536   -1.4328 H   0  0  0  0  0  0  0  0  0  0  0  0
    0.3306   -1.6841   -1.5598 H   0  0  0  0  0  0  0  0  0  0  0  0
   -0.9405   -0.1680   -2.3306 C   0  0  0  0  0  0  0  0  0  0  0  0
   -2.2060   -0.7278   -2.5015 N   0  0  0  0  0  0  0  0  0  0  0  0
   -2.7965   -0.0199   -3.4353 C   0  0  0  0  0  0  0  0  0  0  0  0
   -3.8061   -0.1914   -3.7974 H   0  0  0  0  0  0  0  0  0  0  0  0
   -1.9476    0.9704   -3.8913 N   0  0  0  0  0  0  0  0  0  0  0  0
   -2.1830    1.6684   -4.5943 H   0  0  0  0  0  0  0  0  0  0  0  0
   -0.7642    0.8794   -3.1907 C   0  0  0  0  0  0  0  0  0  0  0  0
    0.1153    1.5107   -3.2730 H   0  0  0  0  0  0  0  0  0  0  0  0
   -0.6607    0.9042    0.5590 C   0  0  0  0  0  0  0  0  0  0  0  0
   -1.6560    1.5219    0.1988 O   0  0  0  0  0  0  0  0  0  0  0  0
    0.2647    1.5426    1.3660 N   0  0  0  0  0  0  0  0  0  0  0  0
    1.0263    0.9801    1.7347 H   0  0  0  0  0  0  0  0  0  0  0  0
    0.0815    2.8961    1.8754 C   0  0  0  0  0  0  0  0  0  0  0  0
   -0.8073    2.9482    2.5132 H   0  0  0  0  0  0  0  0  0  0  0  0
    0.9512    3.1976    2.4667 H   0  0  0  0  0  0  0  0  0  0  0  0
   -0.0348    3.6046    1.0486 H   0  0  0  0  0  0  0  0  0  0  0  0
  1  2  1  0  0  0  0
  2  3  1  0  0  0  0
  2  4  1  0  0  0  0
  2  5  1  0  0  0  0
  5  6  2  0  0  0  0
  5  7  1  0  0  0  0
  7  8  1  0  0  0  0
  7  9  1  0  0  0  0
  9 10  1  0  0  0  0
  9 11  1  0  0  0  0
  9 22  1  0  0  0  0
 11 12  1  0  0  0  0
 11 13  1  0  0  0  0
 11 14  1  0  0  0  0
 14 15  1  0  0  0  0
 14 20  2  0  0  0  0
 15 16  2  0  0  0  0
 16 17  1  0  0  0  0
 16 18  1  0  0  0  0
 18 19  1  0  0  0  0
 18 20  1  0  0  0  0
 20 21  1  0  0  0  0
 22 23  2  0  0  0  0
 22 24  1  0  0  0  0
 24 25  1  0  0  0  0
 24 26  1  0  0  0  0
 26 27  1  0  0  0  0
 26 28  1  0  0  0  0
 26 29  1  0  0  0  0
M  END
$$$$

  -OEChem-04042215593D

 29 29  0     1  0  0  0  0  0999 V2000
   -2.6828   -4.5272    1.1098 H   0  0  0  0  0  0  0  0  0  0  0  0
   -2.8602   -3.5413    0.6712 C   0  0  0  0  0  0  0  0  0  0  0  0
   -3.6958   -3.0677    1.1920 H   0  0  0  0  0  0  0  0  0  0  0  0
   -3.1203   -3.6652   -0.3829 H   0  0  0  0  0  0  0  0  0  0  0  0
   -1.6185   -2.6793    0.7985 C   0  0  0  0  0  0  0  0  0  0  0  0
   -0.6283   -3.1149    1.3670 O   0  0  0  0  0  0  0  0  0  0  0  0
   -1.6115   -1.4129    0.2578 N   0  0  0  0  0  0  0  0  0  0  0  0
   -2.3975   -1.1665   -0.3488 H   0  0  0  0  0  0  0  0  0  0  0  0
   -0.4254   -0.5627    0.1189 C   0  0  1  0  0  0  0  0  0  0  0  0
    0.3707   -0.9467    0.7638 H   0  0  0  0  0  0  0  0  0  0  0  0
    0.0757   -0.6378   -1.3367 C   0  0  0  0  0  0  0  0  0  0  0  0
    0.9872   -0.0414   -1.4347 H   0  0  0  0  0  0  0  0  0  0  0  0
    0.3354   -1.6765   -1.5603 H   0  0  0  0  0  0  0  0  0  0  0  0
   -0.9344   -0.1782   -2.3602 C   0  0  0  0  0  0  0  0  0  0  0  0
   -2.2841   -0.5298   -2.3839 N   0  0  0  0  0  0  0  0  0  0  0  0
   -2.8217    0.1304   -3.3816 C   0  0  0  0  0  0  0  0  0  0  0  0
   -3.8702    0.0856   -3.6615 H   0  0  0  0  0  0  0  0  0  0  0  0
   -1.8595    0.8850   -4.0244 N   0  0  0  0  0  0  0  0  0  0  0  0
   -2.0303    1.5050   -4.8138 H   0  0  0  0  0  0  0  0  0  0  0  0
   -0.6586    0.6960   -3.3745 C   0  0  0  0  0  0  0  0  0  0  0  0
    0.3007    1.1558   -3.5917 H   0  0  0  0  0  0  0  0  0  0  0  0
   -0.6760    0.8978    0.5581 C   0  0  0  0  0  0  0  0  0  0  0  0
   -1.6851    1.5084    0.2260 O   0  0  0  0  0  0  0  0  0  0  0  0
    0.2570    1.5378    1.3550 N   0  0  0  0  0  0  0  0  0  0  0  0
    1.0332    0.9810    1.7010 H   0  0  0  0  0  0  0  0  0  0  0  0
    0.0758    2.8885    1.8722 C   0  0  0  0  0  0  0  0  0  0  0  0
   -0.8067    2.9362    2.5186 H   0  0  0  0  0  0  0  0  0  0  0  0
    0.9505    3.1897    2.4562 H   0  0  0  0  0  0  0  0  0  0  0  0
   -0.0507    3.6000    1.0495 H   0  0  0  0  0  0  0  0  0  0  0  0
  1  2  1  0  0  0  0
  2  3  1  0  0  0  0
  2  4  1  0  0  0  0
  2  5  1  0  0  0  0
  5  6  2  0  0  0  0
  5  7  1  0  0  0  0
  7  8  1  0  0  0  0
  7  9  1  0  0  0  0
  9 10  1  0  0  0  0
  9 11  1  0  0  0  0
  9 22  1  0  0  0  0
 11 12  1  0  0  0  0
 11 13  1  0  0  0  0
 11 14  1  0  0  0  0
 14 15  1  0  0  0  0
 14 20  2  0  0  0  0
 15 16  2  0  0  0  0
 16 17  1  0  0  0  0
 16 18  1  0  0  0  0
 18 19  1  0  0  0  0
 18 20  1  0  0  0  0
 20 21  1  0  0  0  0
 22 23  2  0  0  0  0
 22 24  1  0  0  0  0
 24 25  1  0  0  0  0
 24 26  1  0  0  0  0
 26 27  1  0  0  0  0
 26 28  1  0  0  0  0
 26 29  1  0  0  0  0
M  END
$$$$

  -OEChem-04042215593D

 29 29  0     1  0  0  0  0  0999 V2000
   -2.6783   -4.5238    1.1310 H   0  0  0  0  0  0  0  0  0  0  0  0
   -2.8623   -3.5347    0.7027 C   0  0  0  0  0  0  0  0  0  0  0  0
   -3.6754   -3.0562    1.2540 H   0  0  0  0  0  0  0  0  0  0  0  0
   -3.1596   -3.6518   -0.3423 H   0  0  0  0  0  0  0  0  0  0  0  0
   -1.6095   -2.6841    0.7901 C   0  0  0  0  0  0  0  0  0  0  0  0
   -0.5991   -3.1354    1.3083 O   0  0  0  0  0  0  0  0  0  0  0  0
   -1.6137   -1.4129    0.2618 N   0  0  0  0  0  0  0  0  0  0  0  0
   -2.4301   -1.1372   -0.2890 H   0  0  0  0  0  0  0  0  0  0  0  0
   -0.4384   -0.5508    0.1097 C   0  0  1  0  0  0  0  0  0  0  0  0
    0.3628   -0.9328    0.7498 H   0  0  0  0  0  0  0  0  0  0  0  0
    0.0632   -0.6284   -1.3455 C   0  0  0  0  0  0  0  0  0  0  0  0
    0.9702   -0.0259   -1.4469 H   0  0  0  0  0  0  0  0  0  0  0  0
    0.3329   -1.6672   -1.5566 H   0  0  0  0  0  0  0  0  0  0  0  0
   -0.9412   -0.1928   -2.3859 C   0  0  0  0  0  0  0  0  0  0  0  0
   -2.3281   -0.3022   -2.2907 N   0  0  0  0  0  0  0  0  0  0  0  0
   -2.8244    0.2757   -3.3577 C   0  0  0  0  0  0  0  0  0  0  0  0
   -3.8842    0.3694   -3.5767 H   0  0  0  0  0  0  0  0  0  0  0  0
   -1.8017    0.7424   -4.1605 N   0  0  0  0  0  0  0  0  0  0  0  0
   -1.9272    1.2498   -5.0343 H   0  0  0  0  0  0  0  0  0  0  0  0
   -0.6036    0.4546   -3.5423 C   0  0  0  0  0  0  0  0  0  0  0  0
    0.3990    0.7067   -3.8743 H   0  0  0  0  0  0  0  0  0  0  0  0
   -0.6841    0.9070    0.5630 C   0  0  0  0  0  0  0  0  0  0  0  0
   -1.7164    1.5073    0.2904 O   0  0  0  0  0  0  0  0  0  0  0  0
    0.2642    1.5428    1.3458 N   0  0  0  0  0  0  0  0  0  0  0  0
    1.0597    0.9908    1.6530 H   0  0  0  0  0  0  0  0  0  0  0  0
    0.0792    2.8780    1.9012 C   0  0  0  0  0  0  0  0  0  0  0  0
   -0.7808    2.8951    2.5788 H   0  0  0  0  0  0  0  0  0  0  0  0
    0.9690    3.1802    2.4618 H   0  0  0  0  0  0  0  0  0  0  0  0
   -0.0881    3.6065    1.1008 H   0  0  0  0  0  0  0  0  0  0  0  0
  1  2  1  0  0  0  0
  2  3  1  0  0  0  0
  2  4  1  0  0  0  0
  2  5  1  0  0  0  0
  5  6  2  0  0  0  0
  5  7  1  0  0  0  0
  7  8  1  0  0  0  0
  7  9  1  0  0  0  0
  9 10  1  0  0  0  0
  9 11  1  0  0  0  0
  9 22  1  0  0  0  0
 11 12  1  0  0  0  0
 11 13  1  0  0  0  0
 11 14  1  0  0  0  0
 14 15  1  0  0  0  0
 14 20  2  0  0  0  0
 15 16  2  0  0  0  0
 16 17  1  0  0  0  0
 16 18  1  0  0  0  0
 18 19  1  0  0  0  0
 18 20  1  0  0  0  0
 20 21  1  0  0  0  0
 22 23  2  0  0  0  0
 22 24  1  0  0  0  0
 24 25  1  0  0  0  0
 24 26  1  0  0  0  0
 26 27  1  0  0  0  0
 26 28  1  0  0  0  0
 26 29  1  0  0  0  0
M  END
$$$$

  -OEChem-04042215593D

 29 29  0     1  0  0  0  0  0999 V2000
   -2.6743   -4.5030    1.1587 H   0  0  0  0  0  0  0  0  0  0  0  0
   -2.8678   -3.5100    0.7439 C   0  0  0  0  0  0  0  0  0  0  0  0
   -3.6402   -3.0211    1.3426 H   0  0  0  0  0  0  0  0  0  0  0  0
   -3.2269   -3.6191   -0.2824 H   0  0  0  0  0  0  0  0  0  0  0  0
   -1.5989   -2.6792    0.7609 C   0  0  0  0  0  0  0  0  0  0  0  0
   -0.5633   -3.1525    1.2043 O   0  0  0  0  0  0  0  0  0  0  0  0
   -1.6178   -1.3993    0.2543 N   0  0  0  0  0  0  0  0  0  0  0  0
   -2.4722   -1.0832   -0.2086 H   0  0  0  0  0  0  0  0  0  0  0  0
   -0.4529   -0.5255    0.0901 C   0  0  1  0  0  0  0  0  0  0  0  0
    0.3524   -0.9084    0.7246 H   0  0  0  0  0  0  0  0  0  0  0  0
    0.0519   -0.6052   -1.3636 C   0  0  0  0  0  0  0  0  0  0  0  0
    0.9491    0.0118   -1.4661 H   0  0  0  0  0  0  0  0  0  0  0  0
    0.3396   -1.6413   -1.5647 H   0  0  0  0  0  0  0  0  0  0  0  0
   -0.9474   -0.1926   -2.4166 C   0  0  0  0  0  0  0  0  0  0  0  0
   -2.3210   -0.0408   -2.2466 N   0  0  0  0  0  0  0  0  0  0  0  0
   -2.7961    0.4150   -3.3795 C   0  0  0  0  0  0  0  0  0  0  0  0
   -3.8406    0.6480   -3.5654 H   0  0  0  0  0  0  0  0  0  0  0  0
   -1.7724    0.5504   -4.2972 N   0  0  0  0  0  0  0  0  0  0  0  0
   -1.8785    0.9025   -5.2468 H   0  0  0  0  0  0  0  0  0  0  0  0
   -0.5950    0.1728   -3.6866 C   0  0  0  0  0  0  0  0  0  0  0  0
    0.4080    0.1810   -4.1026 H   0  0  0  0  0  0  0  0  0  0  0  0
   -0.6937    0.9250    0.5705 C   0  0  0  0  0  0  0  0  0  0  0  0
   -1.7599    1.5022    0.3969 O   0  0  0  0  0  0  0  0  0  0  0  0
    0.2740    1.5492    1.3395 N   0  0  0  0  0  0  0  0  0  0  0  0
    1.0957    1.0051    1.5852 H   0  0  0  0  0  0  0  0  0  0  0  0
    0.0823    2.8514    1.9661 C   0  0  0  0  0  0  0  0  0  0  0  0
   -0.7454    2.8139    2.6820 H   0  0  0  0  0  0  0  0  0  0  0  0
    0.9893    3.1503    2.5000 H   0  0  0  0  0  0  0  0  0  0  0  0
   -0.1394    3.6118    1.2099 H   0  0  0  0  0  0  0  0  0  0  0  0
  1  2  1  0  0  0  0
  2  3  1  0  0  0  0
  2  4  1  0  0  0  0
  2  5  1  0  0  0  0
  5  6  2  0  0  0  0
  5  7  1  0  0  0  0
  7  8  1  0  0  0  0
  7  9  1  0  0  0  0
  9 10  1  0  0  0  0
  9 11  1  0  0  0  0
  9 22  1  0  0  0  0
 11 12  1  0  0  0  0
 11 13  1  0  0  0  0
 11 14  1  0  0  0  0
 14 15  1  0  0  0  0
 14 20  2  0  0  0  0
 15 16  2  0  0  0  0
 16 17  1  0  0  0  0
 16 18  1  0  0  0  0
 18 19  1  0  0  0  0
 18 20  1  0  0  0  0
 20 21  1  0  0  0  0
 22 23  2  0  0  0  0
 22 24  1  0  0  0  0
 24 25  1  0  0  0  0
 24 26  1  0  0  0  0
 26 27  1  0  0  0  0
 26 28  1  0  0  0  0
 26 29  1  0  0  0  0
M  END
$$$$

  -OEChem-04042215593D

 29 29  0     1  0  0  0  0  0999 V2000
   -2.6742   -4.4717    1.1667 H   0  0  0  0  0  0  0  0  0  0  0  0
   -2.8760   -3.4703    0.7770 C   0  0  0  0  0  0  0  0  0  0  0  0
   -3.5937   -2.9736    1.4343 H   0  0  0  0  0  0  0  0  0  0  0  0
   -3.3094   -3.5605   -0.2219 H   0  0  0  0  0  0  0  0  0  0  0  0
   -1.5922   -2.6653    0.7118 C   0  0  0  0  0  0  0  0  0  0  0  0
   -0.5353   -3.1703    1.0593 O   0  0  0  0  0  0  0  0  0  0  0  0
   -1.6215   -1.3742    0.2346 N   0  0  0  0  0  0  0  0  0  0  0  0
   -2.5117   -1.0070   -0.1036 H   0  0  0  0  0  0  0  0  0  0  0  0
   -0.4618   -0.4940    0.0649 C   0  0  1  0  0  0  0  0  0  0  0  0
    0.3452   -0.8841    0.6927 H   0  0  0  0  0  0  0  0  0  0  0  0
    0.0476   -0.5690   -1.3871 C   0  0  0  0  0  0  0  0  0  0  0  0
    0.9332    0.0650   -1.4830 H   0  0  0  0  0  0  0  0  0  0  0  0
    0.3569   -1.5989   -1.5876 H   0  0  0  0  0  0  0  0  0  0  0  0
   -0.9435   -0.1658   -2.4492 C   0  0  0  0  0  0  0  0  0  0  0  0
   -2.2530    0.2585   -2.2573 N   0  0  0  0  0  0  0  0  0  0  0  0
   -2.7380    0.5516   -3.4384 C   0  0  0  0  0  0  0  0  0  0  0  0
   -3.7425    0.9212   -3.6230 H   0  0  0  0  0  0  0  0  0  0  0  0
   -1.7826    0.3157   -4.4078 N   0  0  0  0  0  0  0  0  0  0  0  0
   -1.9084    0.4703   -5.4063 H   0  0  0  0  0  0  0  0  0  0  0  0
   -0.6398   -0.1375   -3.7825 C   0  0  0  0  0  0  0  0  0  0  0  0
    0.3100   -0.4065   -4.2348 H   0  0  0  0  0  0  0  0  0  0  0  0
   -0.6988    0.9447    0.5833 C   0  0  0  0  0  0  0  0  0  0  0  0
   -1.7984    1.4815    0.5253 O   0  0  0  0  0  0  0  0  0  0  0  0
    0.2834    1.5554    1.3454 N   0  0  0  0  0  0  0  0  0  0  0  0
    1.1363    1.0306    1.5143 H   0  0  0  0  0  0  0  0  0  0  0  0
    0.0836    2.8153    2.0519 C   0  0  0  0  0  0  0  0  0  0  0  0
   -0.6862    2.7041    2.8227 H   0  0  0  0  0  0  0  0  0  0  0  0
    1.0142    3.1303    2.5335 H   0  0  0  0  0  0  0  0  0  0  0  0
   -0.2262    3.6010    1.3547 H   0  0  0  0  0  0  0  0  0  0  0  0
  1  2  1  0  0  0  0
  2  3  1  0  0  0  0
  2  4  1  0  0  0  0
  2  5  1  0  0  0  0
  5  6  2  0  0  0  0
  5  7  1  0  0  0  0
  7  8  1  0  0  0  0
  7  9  1  0  0  0  0
  9 10  1  0  0  0  0
  9 11  1  0  0  0  0
  9 22  1  0  0  0  0
 11 12  1  0  0  0  0
 11 13  1  0  0  0  0
 11 14  1  0  0  0  0
 14 15  1  0  0  0  0
 14 20  2  0  0  0  0
 15 16  2  0  0  0  0
 16 17  1  0  0  0  0
 16 18  1  0  0  0  0
 18 19  1  0  0  0  0
 18 20  1  0  0  0  0
 20 21  1  0  0  0  0
 22 23  2  0  0  0  0
 22 24  1  0  0  0  0
 24 25  1  0  0  0  0
 24 26  1  0  0  0  0
 26 27  1  0  0  0  0
 26 28  1  0  0  0  0
 26 29  1  0  0  0  0
M  END
$$$$

  -OEChem-04042215593D

 29 29  0     1  0  0  0  0  0999 V2000
   -2.6864   -4.4300    1.1763 H   0  0  0  0  0  0  0  0  0  0  0  0
   -2.8866   -3.4217    0.8041 C   0  0  0  0  0  0  0  0  0  0  0  0
   -3.5458   -2.9095    1.5091 H   0  0  0  0  0  0  0  0  0  0  0  0
   -3.3869   -3.4951   -0.1646 H   0  0  0  0  0  0  0  0  0  0  0  0
   -1.5886   -2.6506    0.6575 C   0  0  0  0  0  0  0  0  0  0  0  0
   -0.5242   -3.1864    0.9266 O   0  0  0  0  0  0  0  0  0  0  0  0
   -1.6165   -1.3528    0.1988 N   0  0  0  0  0  0  0  0  0  0  0  0
   -2.5232   -0.9397   -0.0188 H   0  0  0  0  0  0  0  0  0  0  0  0
   -0.4543   -0.4744    0.0330 C   0  0  1  0  0  0  0  0  0  0  0  0
    0.3492   -0.8714    0.6614 H   0  0  0  0  0  0  0  0  0  0  0  0
    0.0675   -0.5446   -1.4149 C   0  0  0  0  0  0  0  0  0  0  0  0
    0.9440    0.1042   -1.4968 H   0  0  0  0  0  0  0  0  0  0  0  0
    0.3959   -1.5684   -1.6176 H   0  0  0  0  0  0  0  0  0  0  0  0
   -0.9115   -0.1378   -2.4848 C   0  0  0  0  0  0  0  0  0  0  0  0
   -2.1027    0.5523   -2.3114 N   0  0  0  0  0  0  0  0  0  0  0  0
   -2.6449    0.6897   -3.4957 C   0  0  0  0  0  0  0  0  0  0  0  0
   -3.5862    1.1947   -3.6935 H   0  0  0  0  0  0  0  0  0  0  0  0
   -1.8419    0.0932   -4.4482 N   0  0  0  0  0  0  0  0  0  0  0  0
   -2.0405    0.0586   -5.4463 H   0  0  0  0  0  0  0  0  0  0  0  0
   -0.7414   -0.4378   -3.8086 C   0  0  0  0  0  0  0  0  0  0  0  0
    0.0909   -0.9810   -4.2461 H   0  0  0  0  0  0  0  0  0  0  0  0
   -0.6990    0.9536    0.5784 C   0  0  0  0  0  0  0  0  0  0  0  0
   -1.8228    1.4422    0.6073 O   0  0  0  0  0  0  0  0  0  0  0  0
    0.2834    1.5569    1.3466 N   0  0  0  0  0  0  0  0  0  0  0  0
    1.1615    1.0589    1.4566 H   0  0  0  0  0  0  0  0  0  0  0  0
    0.0663    2.7768    2.1157 C   0  0  0  0  0  0  0  0  0  0  0  0
   -0.6949    2.6134    2.8858 H   0  0  0  0  0  0  0  0  0  0  0  0
    0.9946    3.0850    2.6058 H   0  0  0  0  0  0  0  0  0  0  0  0
   -0.2638    3.5896    1.4603 H   0  0  0  0  0  0  0  0  0  0  0  0
  1  2  1  0  0  0  0
  2  3  1  0  0  0  0
  2  4  1  0  0  0  0
  2  5  1  0  0  0  0
  5  6  2  0  0  0  0
  5  7  1  0  0  0  0
  7  8  1  0  0  0  0
  7  9  1  0  0  0  0
  9 10  1  0  0  0  0
  9 11  1  0  0  0  0
  9 22  1  0  0  0  0
 11 12  1  0  0  0  0
 11 13  1  0  0  0  0
 11 14  1  0  0  0  0
 14 15  1  0  0  0  0
 14 20  2  0  0  0  0
 15 16  2  0  0  0  0
 16 17  1  0  0  0  0
 16 18  1  0  0  0  0
 18 19  1  0  0  0  0
 18 20  1  0  0  0  0
 20 21  1  0  0  0  0
 22 23  2  0  0  0  0
 22 24  1  0  0  0  0
 24 25  1  0  0  0  0
 24 26  1  0  0  0  0
 26 27  1  0  0  0  0
 26 28  1  0  0  0  0
 26 29  1  0  0  0  0
M  END
$$$$

  -OEChem-04042215593D

 29 29  0     1  0  0  0  0  0999 V2000
   -2.6971   -4.4070    1.2234 H   0  0  0  0  0  0  0  0  0  0  0  0
   -2.8965   -3.3992    0.8491 C   0  0  0  0  0  0  0  0  0  0  0  0
   -3.5047   -2.8646    1.5827 H   0  0  0  0  0  0  0  0  0  0  0  0
   -3.4516   -3.4744   -0.0889 H   0  0  0  0  0  0  0  0  0  0  0  0
   -1.5930   -2.6578    0.6201 C   0  0  0  0  0  0  0  0  0  0  0  0
   -0.5268   -3.2184    0.8233 O   0  0  0  0  0  0  0  0  0  0  0  0
   -1.6182   -1.3584    0.1646 N   0  0  0  0  0  0  0  0  0  0  0  0
   -2.5269   -0.9087    0.0573 H   0  0  0  0  0  0  0  0  0  0  0  0
   -0.4485   -0.4865    0.0090 C   0  0  1  0  0  0  0  0  0  0  0  0
    0.3475   -0.8867    0.6452 H   0  0  0  0  0  0  0  0  0  0  0  0
    0.0914   -0.5515   -1.4324 C   0  0  0  0  0  0  0  0  0  0  0  0
    0.9678    0.0988   -1.4985 H   0  0  0  0  0  0  0  0  0  0  0  0
    0.4242   -1.5739   -1.6347 H   0  0  0  0  0  0  0  0  0  0  0  0
   -0.8714   -0.1331   -2.5113 C   0  0  0  0  0  0  0  0  0  0  0  0
   -1.8933    0.7970   -2.3951 N   0  0  0  0  0  0  0  0  0  0  0  0
   -2.5081    0.8415   -3.5508 C   0  0  0  0  0  0  0  0  0  0  0  0
   -3.3569    1.4798   -3.7792 H   0  0  0  0  0  0  0  0  0  0  0  0
   -1.9159   -0.0457   -4.4283 N   0  0  0  0  0  0  0  0  0  0  0  0
   -2.2094   -0.2058   -5.3900 H   0  0  0  0  0  0  0  0  0  0  0  0
   -0.8787   -0.6714   -3.7692 C   0  0  0  0  0  0  0  0  0  0  0  0
   -0.2064   -1.4352   -4.1487 H   0  0  0  0  0  0  0  0  0  0  0  0
   -0.7061    0.9359    0.5626 C   0  0  0  0  0  0  0  0  0  0  0  0
   -1.8435    1.3919    0.6180 O   0  0  0  0  0  0  0  0  0  0  0  0
    0.2641    1.5404    1.3451 N   0  0  0  0  0  0  0  0  0  0  0  0
    1.1614    1.0717    1.4249 H   0  0  0  0  0  0  0  0  0  0  0  0
    0.0345    2.7566    2.1162 C   0  0  0  0  0  0  0  0  0  0  0  0
   -0.7313    2.5865    2.8804 H   0  0  0  0  0  0  0  0  0  0  0  0
    0.9577    3.0686    2.6141 H   0  0  0  0  0  0  0  0  0  0  0  0
   -0.2955    3.5692    1.4603 H   0  0  0  0  0  0  0  0  0  0  0  0
  1  2  1  0  0  0  0
  2  3  1  0  0  0  0
  2  4  1  0  0  0  0
  2  5  1  0  0  0  0
  5  6  2  0  0  0  0
  5  7  1  0  0  0  0
  7  8  1  0  0  0  0
  7  9  1  0  0  0  0
  9 10  1  0  0  0  0
  9 11  1  0  0  0  0
  9 22  1  0  0  0  0
 11 12  1  0  0  0  0
 11 13  1  0  0  0  0
 11 14  1  0  0  0  0
 14 15  1  0  0  0  0
 14 20  2  0  0  0  0
 15 16  2  0  0  0  0
 16 17  1  0  0  0  0
 16 18  1  0  0  0  0
 18 19  1  0  0  0  0
 18 20  1  0  0  0  0
 20 21  1  0  0  0  0
 22 23  2  0  0  0  0
 22 24  1  0  0  0  0
 24 25  1  0  0  0  0
 24 26  1  0  0  0  0
 26 27  1  0  0  0  0
 26 28  1  0  0  0  0
 26 29  1  0  0  0  0
M  END
$$$$

  -OEChem-04042215593D

 29 29  0     1  0  0  0  0  0999 V2000
   -2.7094   -4.3885    1.2660 H   0  0  0  0  0  0  0  0  0  0  0  0
   -2.9030   -3.3830    0.8823 C   0  0  0  0  0  0  0  0  0  0  0  0
   -3.4844   -2.8289    1.6233 H   0  0  0  0  0  0  0  0  0  0  0  0
   -3.4825   -3.4623   -0.0406 H   0  0  0  0  0  0  0  0  0  0  0  0
   -1.5946   -2.6655    0.6104 C   0  0  0  0  0  0  0  0  0  0  0  0
   -0.5320   -3.2392    0.7939 O   0  0  0  0  0  0  0  0  0  0  0  0
   -1.6119   -1.3712    0.1405 N   0  0  0  0  0  0  0  0  0  0  0  0
   -2.5153   -0.9020    0.0825 H   0  0  0  0  0  0  0  0  0  0  0  0
   -0.4330   -0.5094   -0.0069 C   0  0  1  0  0  0  0  0  0  0  0  0
    0.3554   -0.9058    0.6410 H   0  0  0  0  0  0  0  0  0  0  0  0
    0.1188   -0.5820   -1.4428 C   0  0  0  0  0  0  0  0  0  0  0  0
    1.0025    0.0584   -1.5071 H   0  0  0  0  0  0  0  0  0  0  0  0
    0.4416   -1.6086   -1.6407 H   0  0  0  0  0  0  0  0  0  0  0  0
   -0.8374   -0.1543   -2.5214 C   0  0  0  0  0  0  0  0  0  0  0  0
   -1.6431    0.9734   -2.4922 N   0  0  0  0  0  0  0  0  0  0  0  0
   -2.3454    0.9705   -3.5979 C   0  0  0  0  0  0  0  0  0  0  0  0
   -3.0752    1.7271   -3.8719 H   0  0  0  0  0  0  0  0  0  0  0  0
   -2.0175   -0.1361   -4.3577 N   0  0  0  0  0  0  0  0  0  0  0  0
   -2.4260   -0.3715   -5.2601 H   0  0  0  0  0  0  0  0  0  0  0  0
   -1.0610   -0.8566   -3.6737 C   0  0  0  0  0  0  0  0  0  0  0  0
   -0.5844   -1.7877   -3.9656 H   0  0  0  0  0  0  0  0  0  0  0  0
   -0.7082    0.9142    0.5338 C   0  0  0  0  0  0  0  0  0  0  0  0
   -1.8553    1.3484    0.5802 O   0  0  0  0  0  0  0  0  0  0  0  0
    0.2428    1.5297    1.3306 N   0  0  0  0  0  0  0  0  0  0  0  0
    1.1529    1.0855    1.4033 H   0  0  0  0  0  0  0  0  0  0  0  0
   -0.0096    2.7484    2.0904 C   0  0  0  0  0  0  0  0  0  0  0  0
   -0.7875    2.5770    2.8419 H   0  0  0  0  0  0  0  0  0  0  0  0
    0.9020    3.0701    2.6028 H   0  0  0  0  0  0  0  0  0  0  0  0
   -0.3336    3.5550    1.4242 H   0  0  0  0  0  0  0  0  0  0  0  0
  1  2  1  0  0  0  0
  2  3  1  0  0  0  0
  2  4  1  0  0  0  0
  2  5  1  0  0  0  0
  5  6  2  0  0  0  0
  5  7  1  0  0  0  0
  7  8  1  0  0  0  0
  7  9  1  0  0  0  0
  9 10  1  0  0  0  0
  9 11  1  0  0  0  0
  9 22  1  0  0  0  0
 11 12  1  0  0  0  0
 11 13  1  0  0  0  0
 11 14  1  0  0  0  0
 14 15  1  0  0  0  0
 14 20  2  0  0  0  0
 15 16  2  0  0  0  0
 16 17  1  0  0  0  0
 16 18  1  0  0  0  0
 18 19  1  0  0  0  0
 18 20  1  0  0  0  0
 20 21  1  0  0  0  0
 22 23  2  0  0  0  0
 22 24  1  0  0  0  0
 24 25  1  0  0  0  0
 24 26  1  0  0  0  0
 26 27  1  0  0  0  0
 26 28  1  0  0  0  0
 26 29  1  0  0  0  0
M  END
$$$$

  -OEChem-04042215593D

 29 29  0     1  0  0  0  0  0999 V2000
   -2.7156   -4.3920    1.3133 H   0  0  0  0  0  0  0  0  0  0  0  0
   -2.9044   -3.3920    0.9132 C   0  0  0  0  0  0  0  0  0  0  0  0
   -3.4764   -2.8205    1.6482 H   0  0  0  0  0  0  0  0  0  0  0  0
   -3.4913   -3.4836   -0.0038 H   0  0  0  0  0  0  0  0  0  0  0  0
   -1.5924   -2.6893    0.6199 C   0  0  0  0  0  0  0  0  0  0  0  0
   -0.5333   -3.2680    0.8067 O   0  0  0  0  0  0  0  0  0  0  0  0
   -1.6024   -1.4028    0.1281 N   0  0  0  0  0  0  0  0  0  0  0  0
   -2.5017   -0.9239    0.0855 H   0  0  0  0  0  0  0  0  0  0  0  0
   -0.4164   -0.5481   -0.0107 C   0  0  1  0  0  0  0  0  0  0  0  0
    0.3653   -0.9374    0.6495 H   0  0  0  0  0  0  0  0  0  0  0  0
    0.1440   -0.6216   -1.4421 C   0  0  0  0  0  0  0  0  0  0  0  0
    1.0365    0.0065   -1.5070 H   0  0  0  0  0  0  0  0  0  0  0  0
    0.4511   -1.6523   -1.6426 H   0  0  0  0  0  0  0  0  0  0  0  0
   -0.8166   -0.1808   -2.5089 C   0  0  0  0  0  0  0  0  0  0  0  0
   -1.3806    1.0831   -2.5905 N   0  0  0  0  0  0  0  0  0  0  0  0
   -2.1733    1.0769   -3.6335 C   0  0  0  0  0  0  0  0  0  0  0  0
   -2.7677    1.9233   -3.9655 H   0  0  0  0  0  0  0  0  0  0  0  0
   -2.1347   -0.1621   -4.2452 N   0  0  0  0  0  0  0  0  0  0  0  0
   -2.6618   -0.4237   -5.0760 H   0  0  0  0  0  0  0  0  0  0  0  0
   -1.2709   -0.9665   -3.5317 C   0  0  0  0  0  0  0  0  0  0  0  0
   -1.0045   -2.0025   -3.7183 H   0  0  0  0  0  0  0  0  0  0  0  0
   -0.7110    0.8803    0.5055 C   0  0  0  0  0  0  0  0  0  0  0  0
   -1.8628    1.3059    0.5112 O   0  0  0  0  0  0  0  0  0  0  0  0
    0.2155    1.5153    1.3152 N   0  0  0  0  0  0  0  0  0  0  0  0
    1.1371    1.0962    1.3932 H   0  0  0  0  0  0  0  0  0  0  0  0
   -0.0560    2.7599    2.0243 C   0  0  0  0  0  0  0  0  0  0  0  0
   -0.8669    2.6203    2.7467 H   0  0  0  0  0  0  0  0  0  0  0  0
    0.8362    3.0890    2.5653 H   0  0  0  0  0  0  0  0  0  0  0  0
   -0.3431    3.5471    1.3192 H   0  0  0  0  0  0  0  0  0  0  0  0
  1  2  1  0  0  0  0
  2  3  1  0  0  0  0
  2  4  1  0  0  0  0
  2  5  1  0  0  0  0
  5  6  2  0  0  0  0
  5  7  1  0  0  0  0
  7  8  1  0  0  0  0
  7  9  1  0  0  0  0
  9 10  1  0  0  0  0
  9 11  1  0  0  0  0
  9 22  1  0  0  0  0
 11 12  1  0  0  0  0
 11 13  1  0  0  0  0
 11 14  1  0  0  0  0
 14 15  1  0  0  0  0
 14 20  2  0  0  0  0
 15 16  2  0  0  0  0
 16 17  1  0  0  0  0
 16 18  1  0  0  0  0
 18 19  1  0  0  0  0
 18 20  1  0  0  0  0
 20 21  1  0  0  0  0
 22 23  2  0  0  0  0
 22 24  1  0  0  0  0
 24 25  1  0  0  0  0
 24 26  1  0  0  0  0
 26 27  1  0  0  0  0
 26 28  1  0  0  0  0
 26 29  1  0  0  0  0
M  END
$$$$

  -OEChem-04042215593D

 29 29  0     1  0  0  0  0  0999 V2000
   -2.7149   -4.4098    1.3551 H   0  0  0  0  0  0  0  0  0  0  0  0
   -2.9020   -3.4140    0.9437 C   0  0  0  0  0  0  0  0  0  0  0  0
   -3.4738   -2.8338    1.6721 H   0  0  0  0  0  0  0  0  0  0  0  0
   -3.4880   -3.5149    0.0270 H   0  0  0  0  0  0  0  0  0  0  0  0
   -1.5882   -2.7177    0.6439 C   0  0  0  0  0  0  0  0  0  0  0  0
   -0.5313   -3.2948    0.8453 O   0  0  0  0  0  0  0  0  0  0  0  0
   -1.5932   -1.4393    0.1305 N   0  0  0  0  0  0  0  0  0  0  0  0
   -2.4911   -0.9584    0.0826 H   0  0  0  0  0  0  0  0  0  0  0  0
   -0.4040   -0.5875   -0.0056 C   0  0  1  0  0  0  0  0  0  0  0  0
    0.3774   -0.9684    0.6597 H   0  0  0  0  0  0  0  0  0  0  0  0
    0.1549   -0.6510   -1.4367 C   0  0  0  0  0  0  0  0  0  0  0  0
    1.0535   -0.0318   -1.5053 H   0  0  0  0  0  0  0  0  0  0  0  0
    0.4484   -1.6833   -1.6488 H   0  0  0  0  0  0  0  0  0  0  0  0
   -0.8174   -0.1950   -2.4841 C   0  0  0  0  0  0  0  0  0  0  0  0
   -1.1409    1.1346   -2.7108 N   0  0  0  0  0  0  0  0  0  0  0  0
   -2.0138    1.1443   -3.6883 C   0  0  0  0  0  0  0  0  0  0  0  0
   -2.4738    2.0381   -4.0998 H   0  0  0  0  0  0  0  0  0  0  0  0
   -2.2538   -0.1473   -4.1200 N   0  0  0  0  0  0  0  0  0  0  0  0
   -2.8895   -0.4064   -4.8718 H   0  0  0  0  0  0  0  0  0  0  0  0
   -1.4880   -1.0046   -3.3578 C   0  0  0  0  0  0  0  0  0  0  0  0
   -1.4236   -2.0870   -3.4158 H   0  0  0  0  0  0  0  0  0  0  0  0
   -0.7146    0.8454    0.4855 C   0  0  0  0  0  0  0  0  0  0  0  0
   -1.8645    1.2733    0.4344 O   0  0  0  0  0  0  0  0  0  0  0  0
    0.1917    1.5007    1.3008 N   0  0  0  0  0  0  0  0  0  0  0  0
    1.1164    1.0924    1.3987 H   0  0  0  0  0  0  0  0  0  0  0  0
   -0.0898    2.7739    1.9520 C   0  0  0  0  0  0  0  0  0  0  0  0
   -0.9233    2.6688    2.6543 H   0  0  0  0  0  0  0  0  0  0  0  0
    0.7887    3.1171    2.5067 H   0  0  0  0  0  0  0  0  0  0  0  0
   -0.3487    3.5350    1.2084 H   0  0  0  0  0  0  0  0  0  0  0  0
  1  2  1  0  0  0  0
  2  3  1  0  0  0  0
  2  4  1  0  0  0  0
  2  5  1  0  0  0  0
  5  6  2  0  0  0  0
  5  7  1  0  0  0  0
  7  8  1  0  0  0  0
  7  9  1  0  0  0  0
  9 10  1  0  0  0  0
  9 11  1  0  0  0  0
  9 22  1  0  0  0  0
 11 12  1  0  0  0  0
 11 13  1  0  0  0  0
 11 14  1  0  0  0  0
 14 15  1  0  0  0  0
 14 20  2  0  0  0  0
 15 16  2  0  0  0  0
 16 17  1  0  0  0  0
 16 18  1  0  0  0  0
 18 19  1  0  0  0  0
 18 20  1  0  0  0  0
 20 21  1  0  0  0  0
 22 23  2  0  0  0  0
 22 24  1  0  0  0  0
 24 25  1  0  0  0  0
 24 26  1  0  0  0  0
 26 27  1  0  0  0  0
 26 28  1  0  0  0  0
 26 29  1  0  0  0  0
M  END
$$$$

  -OEChem-04042215593D

 29 29  0     1  0  0  0  0  0999 V2000
   -2.7070   -4.4341    1.3833 H   0  0  0  0  0  0  0  0  0  0  0  0
   -2.8946   -3.4421    0.9626 C   0  0  0  0  0  0  0  0  0  0  0  0
   -3.4745   -2.8583    1.6817 H   0  0  0  0  0  0  0  0  0  0  0  0
   -3.4732   -3.5528    0.0425 H   0  0  0  0  0  0  0  0  0  0  0  0
   -1.5810   -2.7431    0.6673 C   0  0  0  0  0  0  0  0  0  0  0  0
   -0.5235   -3.3144    0.8803 O   0  0  0  0  0  0  0  0  0  0  0  0
   -1.5864   -1.4703    0.1400 N   0  0  0  0  0  0  0  0  0  0  0  0
   -2.4849   -0.9913    0.0861 H   0  0  0  0  0  0  0  0  0  0  0  0
   -0.3964   -0.6185    0.0028 C   0  0  1  0  0  0  0  0  0  0  0  0
    0.3880   -0.9939    0.6678 H   0  0  0  0  0  0  0  0  0  0  0  0
    0.1561   -0.6678   -1.4306 C   0  0  0  0  0  0  0  0  0  0  0  0
    1.0588   -0.0543   -1.5020 H   0  0  0  0  0  0  0  0  0  0  0  0
    0.4398   -1.6994   -1.6583 H   0  0  0  0  0  0  0  0  0  0  0  0
   -0.8287   -0.1979   -2.4588 C   0  0  0  0  0  0  0  0  0  0  0  0
   -0.9295    1.1252   -2.8634 N   0  0  0  0  0  0  0  0  0  0  0  0
   -1.8766    1.1631   -3.7688 C   0  0  0  0  0  0  0  0  0  0  0  0
   -2.2085    2.0620   -4.2803 H   0  0  0  0  0  0  0  0  0  0  0  0
   -2.3802   -0.1073   -3.9819 N   0  0  0  0  0  0  0  0  0  0  0  0
   -3.1204   -0.3423   -4.6400 H   0  0  0  0  0  0  0  0  0  0  0  0
   -1.7066   -0.9812   -3.1544 C   0  0  0  0  0  0  0  0  0  0  0  0
   -1.8334   -2.0548   -3.0544 H   0  0  0  0  0  0  0  0  0  0  0  0
   -0.7161    0.8171    0.4776 C   0  0  0  0  0  0  0  0  0  0  0  0
   -1.8598    1.2522    0.3749 O   0  0  0  0  0  0  0  0  0  0  0  0
    0.1763    1.4895    1.2939 N   0  0  0  0  0  0  0  0  0  0  0  0
    1.1015    1.0870    1.4101 H   0  0  0  0  0  0  0  0  0  0  0  0
   -0.1072    2.7891    1.8901 C   0  0  0  0  0  0  0  0  0  0  0  0
   -0.9756    2.7252    2.5542 H   0  0  0  0  0  0  0  0  0  0  0  0
    0.7509    3.1312    2.4763 H   0  0  0  0  0  0  0  0  0  0  0  0
   -0.3121    3.5307    1.1107 H   0  0  0  0  0  0  0  0  0  0  0  0
  1  2  1  0  0  0  0
  2  3  1  0  0  0  0
  2  4  1  0  0  0  0
  2  5  1  0  0  0  0
  5  6  2  0  0  0  0
  5  7  1  0  0  0  0
  7  8  1  0  0  0  0
  7  9  1  0  0  0  0
  9 10  1  0  0  0  0
  9 11  1  0  0  0  0
  9 22  1  0  0  0  0
 11 12  1  0  0  0  0
 11 13  1  0  0  0  0
 11 14  1  0  0  0  0
 14 15  1  0  0  0  0
 14 20  2  0  0  0  0
 15 16  2  0  0  0  0
 16 17  1  0  0  0  0
 16 18  1  0  0  0  0
 18 19  1  0  0  0  0
 18 20  1  0  0  0  0
 20 21  1  0  0  0  0
 22 23  2  0  0  0  0
 22 24  1  0  0  0  0
 24 25  1  0  0  0  0
 24 26  1  0  0  0  0
 26 27  1  0  0  0  0
 26 28  1  0  0  0  0
 26 29  1  0  0  0  0
M  END
$$$$

  -OEChem-04042215593D

 29 29  0     1  0  0  0  0  0999 V2000
   -2.7005   -4.4477    1.4206 H   0  0  0  0  0  0  0  0  0  0  0  0
   -2.8879   -3.4577    0.9955 C   0  0  0  0  0  0  0  0  0  0  0  0
   -3.4634   -2.8695    1.7145 H   0  0  0  0  0  0  0  0  0  0  0  0
   -3.4706   -3.5721    0.0783 H   0  0  0  0  0  0  0  0  0  0  0  0
   -1.5746   -2.7623    0.6916 C   0  0  0  0  0  0  0  0  0  0  0  0
   -0.5167   -3.3289    0.9132 O   0  0  0  0  0  0  0  0  0  0  0  0
   -1.5830   -1.4930    0.1561 N   0  0  0  0  0  0  0  0  0  0  0  0
   -2.4825   -1.0159    0.1032 H   0  0  0  0  0  0  0  0  0  0  0  0
   -0.3948   -0.6405    0.0077 C   0  0  1  0  0  0  0  0  0  0  0  0
    0.3969   -1.0127    0.6660 H   0  0  0  0  0  0  0  0  0  0  0  0
    0.1468   -0.6696   -1.4316 C   0  0  0  0  0  0  0  0  0  0  0  0
    1.0489   -0.0547   -1.5001 H   0  0  0  0  0  0  0  0  0  0  0  0
    0.4300   -1.6971   -1.6773 H   0  0  0  0  0  0  0  0  0  0  0  0
   -0.8452   -0.1885   -2.4495 C   0  0  0  0  0  0  0  0  0  0  0  0
   -0.7575    1.0570   -3.0553 N   0  0  0  0  0  0  0  0  0  0  0  0
   -1.7652    1.1323   -3.8907 C   0  0  0  0  0  0  0  0  0  0  0  0
   -1.9887    1.9923   -4.5153 H   0  0  0  0  0  0  0  0  0  0  0  0
   -2.4910   -0.0445   -3.8671 N   0  0  0  0  0  0  0  0  0  0  0  0
   -3.3184   -0.2352   -4.4287 H   0  0  0  0  0  0  0  0  0  0  0  0
   -1.8986   -0.8960   -2.9587 C   0  0  0  0  0  0  0  0  0  0  0  0
   -2.1886   -1.9063   -2.6876 H   0  0  0  0  0  0  0  0  0  0  0  0
   -0.7183    0.7959    0.4755 C   0  0  0  0  0  0  0  0  0  0  0  0
   -1.8550    1.2389    0.3380 O   0  0  0  0  0  0  0  0  0  0  0  0
    0.1709    1.4802    1.2847 N   0  0  0  0  0  0  0  0  0  0  0  0
    1.0904    1.0717    1.4242 H   0  0  0  0  0  0  0  0  0  0  0  0
   -0.1147    2.7883    1.8610 C   0  0  0  0  0  0  0  0  0  0  0  0
   -0.9861    2.7343    2.5220 H   0  0  0  0  0  0  0  0  0  0  0  0
    0.7410    3.1384    2.4462 H   0  0  0  0  0  0  0  0  0  0  0  0
   -0.3159    3.5191    1.0706 H   0  0  0  0  0  0  0  0  0  0  0  0
  1  2  1  0  0  0  0
  2  3  1  0  0  0  0
  2  4  1  0  0  0  0
  2  5  1  0  0  0  0
  5  6  2  0  0  0  0
  5  7  1  0  0  0  0
  7  8  1  0  0  0  0
  7  9  1  0  0  0  0
  9 10  1  0  0  0  0
  9 11  1  0  0  0  0
  9 22  1  0  0  0  0
 11 12  1  0  0  0  0
 11 13  1  0  0  0  0
 11 14  1  0  0  0  0
 14 15  1  0  0  0  0
 14 20  2  0  0  0  0
 15 16  2  0  0  0  0
 16 17  1  0  0  0  0
 16 18  1  0  0  0  0
 18 19  1  0  0  0  0
 18 20  1  0  0  0  0
 20 21  1  0  0  0  0
 22 23  2  0  0  0  0
 22 24  1  0  0  0  0
 24 25  1  0  0  0  0
 24 26  1  0  0  0  0
 26 27  1  0  0  0  0
 26 28  1  0  0  0  0
 26 29  1  0  0  0  0
M  END
$$$$

  -OEChem-04042215593D

 29 29  0     1  0  0  0  0  0999 V2000
   -2.6638   -4.4726    1.4744 H   0  0  0  0  0  0  0  0  0  0  0  0
   -2.8676   -3.4861    1.0487 C   0  0  0  0  0  0  0  0  0  0  0  0
   -3.4365   -2.9002    1.7748 H   0  0  0  0  0  0  0  0  0  0  0  0
   -3.4644   -3.6105    0.1420 H   0  0  0  0  0  0  0  0  0  0  0  0
   -1.5655   -2.7806    0.7200 C   0  0  0  0  0  0  0  0  0  0  0  0
   -0.5000   -3.3406    0.9204 O   0  0  0  0  0  0  0  0  0  0  0  0
   -1.5927   -1.5106    0.1854 N   0  0  0  0  0  0  0  0  0  0  0  0
   -2.4941   -1.0349    0.1648 H   0  0  0  0  0  0  0  0  0  0  0  0
   -0.4102   -0.6540    0.0153 C   0  0  1  0  0  0  0  0  0  0  0  0
    0.3950   -1.0247    0.6580 H   0  0  0  0  0  0  0  0  0  0  0  0
    0.1127   -0.6618   -1.4325 C   0  0  0  0  0  0  0  0  0  0  0  0
    1.0102   -0.0392   -1.4941 H   0  0  0  0  0  0  0  0  0  0  0  0
    0.4049   -1.6827   -1.6942 H   0  0  0  0  0  0  0  0  0  0  0  0
   -0.8745   -0.1767   -2.4568 C   0  0  0  0  0  0  0  0  0  0  0  0
   -0.6178    0.9237   -3.2641 N   0  0  0  0  0  0  0  0  0  0  0  0
   -1.6590    1.0601   -4.0490 C   0  0  0  0  0  0  0  0  0  0  0  0
   -1.7740    1.8404   -4.7958 H   0  0  0  0  0  0  0  0  0  0  0  0
   -2.5795    0.0615   -3.7932 N   0  0  0  0  0  0  0  0  0  0  0  0
   -3.4719   -0.0508   -4.2700 H   0  0  0  0  0  0  0  0  0  0  0  0
   -2.0775   -0.7375   -2.7882 C   0  0  0  0  0  0  0  0  0  0  0  0
   -2.5217   -1.6228   -2.3457 H   0  0  0  0  0  0  0  0  0  0  0  0
   -0.7303    0.7798    0.4906 C   0  0  0  0  0  0  0  0  0  0  0  0
   -1.8629    1.2296    0.3437 O   0  0  0  0  0  0  0  0  0  0  0  0
    0.1684    1.4697    1.2841 N   0  0  0  0  0  0  0  0  0  0  0  0
    1.0857    1.0566    1.4264 H   0  0  0  0  0  0  0  0  0  0  0  0
   -0.1092    2.7833    1.8516 C   0  0  0  0  0  0  0  0  0  0  0  0
   -0.9789    2.7386    2.5156 H   0  0  0  0  0  0  0  0  0  0  0  0
    0.7498    3.1340    2.4315 H   0  0  0  0  0  0  0  0  0  0  0  0
   -0.3093    3.5088    1.0560 H   0  0  0  0  0  0  0  0  0  0  0  0
  1  2  1  0  0  0  0
  2  3  1  0  0  0  0
  2  4  1  0  0  0  0
  2  5  1  0  0  0  0
  5  6  2  0  0  0  0
  5  7  1  0  0  0  0
  7  8  1  0  0  0  0
  7  9  1  0  0  0  0
  9 10  1  0  0  0  0
  9 11  1  0  0  0  0
  9 22  1  0  0  0  0
 11 12  1  0  0  0  0
 11 13  1  0  0  0  0
 11 14  1  0  0  0  0
 14 15  1  0  0  0  0
 14 20  2  0  0  0  0
 15 16  2  0  0  0  0
 16 17  1  0  0  0  0
 16 18  1  0  0  0  0
 18 19  1  0  0  0  0
 18 20  1  0  0  0  0
 20 21  1  0  0  0  0
 22 23  2  0  0  0  0
 22 24  1  0  0  0  0
 24 25  1  0  0  0  0
 24 26  1  0  0  0  0
 26 27  1  0  0  0  0
 26 28  1  0  0  0  0
 26 29  1  0  0  0  0
M  END
$$$$

  -OEChem-04042215593D

 29 29  0     1  0  0  0  0  0999 V2000
   -2.6133   -4.5011    1.5311 H   0  0  0  0  0  0  0  0  0  0  0  0
   -2.8365   -3.5174    1.1086 C   0  0  0  0  0  0  0  0  0  0  0  0
   -3.3923   -2.9352    1.8476 H   0  0  0  0  0  0  0  0  0  0  0  0
   -3.4547   -3.6491    0.2174 H   0  0  0  0  0  0  0  0  0  0  0  0
   -1.5498   -2.8014    0.7442 C   0  0  0  0  0  0  0  0  0  0  0  0
   -0.4749   -3.3522    0.9174 O   0  0  0  0  0  0  0  0  0  0  0  0
   -1.6016   -1.5299    0.2138 N   0  0  0  0  0  0  0  0  0  0  0  0
   -2.5032   -1.0556    0.2416 H   0  0  0  0  0  0  0  0  0  0  0  0
   -0.4282   -0.6665    0.0181 C   0  0  1  0  0  0  0  0  0  0  0  0
    0.3921   -1.0335    0.6439 H   0  0  0  0  0  0  0  0  0  0  0  0
    0.0729   -0.6597   -1.4389 C   0  0  0  0  0  0  0  0  0  0  0  0
    0.9629   -0.0260   -1.4948 H   0  0  0  0  0  0  0  0  0  0  0  0
    0.3803   -1.6740   -1.7091 H   0  0  0  0  0  0  0  0  0  0  0  0
   -0.9058   -0.1791   -2.4784 C   0  0  0  0  0  0  0  0  0  0  0  0
   -0.5114    0.7091   -3.4719 N   0  0  0  0  0  0  0  0  0  0  0  0
   -1.5691    0.9444   -4.2096 C   0  0  0  0  0  0  0  0  0  0  0  0
   -1.5906    1.6077   -5.0695 H   0  0  0  0  0  0  0  0  0  0  0  0
   -2.6458    0.2221   -3.7342 N   0  0  0  0  0  0  0  0  0  0  0  0
   -3.5849    0.2410   -4.1266 H   0  0  0  0  0  0  0  0  0  0  0  0
   -2.2282   -0.4982   -2.6354 C   0  0  0  0  0  0  0  0  0  0  0  0
   -2.8129   -1.1738   -2.0219 H   0  0  0  0  0  0  0  0  0  0  0  0
   -0.7463    0.7631    0.5057 C   0  0  0  0  0  0  0  0  0  0  0  0
   -1.8815    1.2104    0.3724 O   0  0  0  0  0  0  0  0  0  0  0  0
    0.1644    1.4585    1.2803 N   0  0  0  0  0  0  0  0  0  0  0  0
    1.0831    1.0453    1.4133 H   0  0  0  0  0  0  0  0  0  0  0  0
   -0.1068    2.7723    1.8510 C   0  0  0  0  0  0  0  0  0  0  0  0
   -0.9631    2.7258    2.5318 H   0  0  0  0  0  0  0  0  0  0  0  0
    0.7621    3.1269    2.4137 H   0  0  0  0  0  0  0  0  0  0  0  0
   -0.3245    3.4962    1.0587 H   0  0  0  0  0  0  0  0  0  0  0  0
  1  2  1  0  0  0  0
  2  3  1  0  0  0  0
  2  4  1  0  0  0  0
  2  5  1  0  0  0  0
  5  6  2  0  0  0  0
  5  7  1  0  0  0  0
  7  8  1  0  0  0  0
  7  9  1  0  0  0  0
  9 10  1  0  0  0  0
  9 11  1  0  0  0  0
  9 22  1  0  0  0  0
 11 12  1  0  0  0  0
 11 13  1  0  0  0  0
 11 14  1  0  0  0  0
 14 15  1  0  0  0  0
 14 20  2  0  0  0  0
 15 16  2  0  0  0  0
 16 17  1  0  0  0  0
 16 18  1  0  0  0  0
 18 19  1  0  0  0  0
 18 20  1  0  0  0  0
 20 21  1  0  0  0  0
 22 23  2  0  0  0  0
 22 24  1  0  0  0  0
 24 25  1  0  0  0  0
 24 26  1  0  0  0  0
 26 27  1  0  0  0  0
 26 28  1  0  0  0  0
 26 29  1  0  0  0  0
M  END
$$$$

  -OEChem-04042215593D

 29 29  0     1  0  0  0  0  0999 V2000
   -2.5685   -4.5272    1.5465 H   0  0  0  0  0  0  0  0  0  0  0  0
   -2.8087   -3.5401    1.1414 C   0  0  0  0  0  0  0  0  0  0  0  0
   -3.3507   -2.9702    1.9001 H   0  0  0  0  0  0  0  0  0  0  0  0
   -3.4470   -3.6658    0.2636 H   0  0  0  0  0  0  0  0  0  0  0  0
   -1.5358   -2.8108    0.7555 C   0  0  0  0  0  0  0  0  0  0  0  0
   -0.4526   -3.3496    0.9150 O   0  0  0  0  0  0  0  0  0  0  0  0
   -1.6100   -1.5370    0.2326 N   0  0  0  0  0  0  0  0  0  0  0  0
   -2.5149   -1.0730    0.2861 H   0  0  0  0  0  0  0  0  0  0  0  0
   -0.4461   -0.6642    0.0192 C   0  0  1  0  0  0  0  0  0  0  0  0
    0.3866   -1.0287    0.6299 H   0  0  0  0  0  0  0  0  0  0  0  0
    0.0324   -0.6596   -1.4459 C   0  0  0  0  0  0  0  0  0  0  0  0
    0.9155   -0.0169   -1.5094 H   0  0  0  0  0  0  0  0  0  0  0  0
    0.3504   -1.6716   -1.7121 H   0  0  0  0  0  0  0  0  0  0  0  0
   -0.9441   -0.1945   -2.4976 C   0  0  0  0  0  0  0  0  0  0  0  0
   -0.4784    0.4189   -3.6550 N   0  0  0  0  0  0  0  0  0  0  0  0
   -1.5316    0.7655   -4.3539 C   0  0  0  0  0  0  0  0  0  0  0  0
   -1.5005    1.2710   -5.3149 H   0  0  0  0  0  0  0  0  0  0  0  0
   -2.6813    0.3969   -3.6849 N   0  0  0  0  0  0  0  0  0  0  0  0
   -3.6308    0.5823   -4.0017 H   0  0  0  0  0  0  0  0  0  0  0  0
   -2.3141   -0.2047   -2.5002 C   0  0  0  0  0  0  0  0  0  0  0  0
   -2.9669   -0.5805   -1.7217 H   0  0  0  0  0  0  0  0  0  0  0  0
   -0.7577    0.7623    0.5184 C   0  0  0  0  0  0  0  0  0  0  0  0
   -1.8957    1.2091    0.4094 O   0  0  0  0  0  0  0  0  0  0  0  0
    0.1682    1.4551    1.2768 N   0  0  0  0  0  0  0  0  0  0  0  0
    1.0849    1.0344    1.4020 H   0  0  0  0  0  0  0  0  0  0  0  0
   -0.0985    2.7564    1.8771 C   0  0  0  0  0  0  0  0  0  0  0  0
   -0.9189    2.6844    2.5988 H   0  0  0  0  0  0  0  0  0  0  0  0
    0.7911    3.1207    2.4000 H   0  0  0  0  0  0  0  0  0  0  0  0
   -0.3690    3.4860    1.1063 H   0  0  0  0  0  0  0  0  0  0  0  0
  1  2  1  0  0  0  0
  2  3  1  0  0  0  0
  2  4  1  0  0  0  0
  2  5  1  0  0  0  0
  5  6  2  0  0  0  0
  5  7  1  0  0  0  0
  7  8  1  0  0  0  0
  7  9  1  0  0  0  0
  9 10  1  0  0  0  0
  9 11  1  0  0  0  0
  9 22  1  0  0  0  0
 11 12  1  0  0  0  0
 11 13  1  0  0  0  0
 11 14  1  0  0  0  0
 14 15  1  0  0  0  0
 14 20  2  0  0  0  0
 15 16  2  0  0  0  0
 16 17  1  0  0  0  0
 16 18  1  0  0  0  0
 18 19  1  0  0  0  0
 18 20  1  0  0  0  0
 20 21  1  0  0  0  0
 22 23  2  0  0  0  0
 22 24  1  0  0  0  0
 24 25  1  0  0  0  0
 24 26  1  0  0  0  0
 26 27  1  0  0  0  0
 26 28  1  0  0  0  0
 26 29  1  0  0  0  0
M  END
$$$$

  -OEChem-04042215593D

 29 29  0     1  0  0  0  0  0999 V2000
   -2.5650   -4.5331    1.4925 H   0  0  0  0  0  0  0  0  0  0  0  0
   -2.8093   -3.5435    1.0961 C   0  0  0  0  0  0  0  0  0  0  0  0
   -3.3747   -2.9918    1.8510 H   0  0  0  0  0  0  0  0  0  0  0  0
   -3.4272   -3.6649    0.2031 H   0  0  0  0  0  0  0  0  0  0  0  0
   -1.5380   -2.7928    0.7472 C   0  0  0  0  0  0  0  0  0  0  0  0
   -0.4518   -3.3227    0.9161 O   0  0  0  0  0  0  0  0  0  0  0  0
   -1.6174   -1.5100    0.2471 N   0  0  0  0  0  0  0  0  0  0  0  0
   -2.5312   -1.0635    0.2745 H   0  0  0  0  0  0  0  0  0  0  0  0
   -0.4592   -0.6288    0.0332 C   0  0  1  0  0  0  0  0  0  0  0  0
    0.3785   -1.0014    0.6321 H   0  0  0  0  0  0  0  0  0  0  0  0
    0.0033   -0.6339   -1.4373 C   0  0  0  0  0  0  0  0  0  0  0  0
    0.8853    0.0078   -1.5195 H   0  0  0  0  0  0  0  0  0  0  0  0
    0.3174   -1.6496   -1.6949 H   0  0  0  0  0  0  0  0  0  0  0  0
   -0.9829   -0.1838   -2.4865 C   0  0  0  0  0  0  0  0  0  0  0  0
   -0.5412    0.1279   -3.7670 N   0  0  0  0  0  0  0  0  0  0  0  0
   -1.5877    0.5330   -4.4446 C   0  0  0  0  0  0  0  0  0  0  0  0
   -1.5701    0.8519   -5.4828 H   0  0  0  0  0  0  0  0  0  0  0  0
   -2.7093    0.4998   -3.6409 N   0  0  0  0  0  0  0  0  0  0  0  0
   -3.6422    0.7972   -3.9196 H   0  0  0  0  0  0  0  0  0  0  0  0
   -2.3285    0.0561   -2.3929 C   0  0  0  0  0  0  0  0  0  0  0  0
   -2.9503   -0.0460   -1.5106 H   0  0  0  0  0  0  0  0  0  0  0  0
   -0.7477    0.7955    0.5535 C   0  0  0  0  0  0  0  0  0  0  0  0
   -1.8806    1.2595    0.4691 O   0  0  0  0  0  0  0  0  0  0  0  0
    0.1995    1.4682    1.3037 N   0  0  0  0  0  0  0  0  0  0  0  0
    1.1098    1.0301    1.4163 H   0  0  0  0  0  0  0  0  0  0  0  0
   -0.0436    2.7591    1.9353 C   0  0  0  0  0  0  0  0  0  0  0  0
   -0.8711    2.6871    2.6488 H   0  0  0  0  0  0  0  0  0  0  0  0
    0.8493    3.0894    2.4744 H   0  0  0  0  0  0  0  0  0  0  0  0
   -0.2914    3.5134    1.1811 H   0  0  0  0  0  0  0  0  0  0  0  0
  1  2  1  0  0  0  0
  2  3  1  0  0  0  0
  2  4  1  0  0  0  0
  2  5  1  0  0  0  0
  5  6  2  0  0  0  0
  5  7  1  0  0  0  0
  7  8  1  0  0  0  0
  7  9  1  0  0  0  0
  9 10  1  0  0  0  0
  9 11  1  0  0  0  0
  9 22  1  0  0  0  0
 11 12  1  0  0  0  0
 11 13  1  0  0  0  0
 11 14  1  0  0  0  0
 14 15  1  0  0  0  0
 14 20  2  0  0  0  0
 15 16  2  0  0  0  0
 16 17  1  0  0  0  0
 16 18  1  0  0  0  0
 18 19  1  0  0  0  0
 18 20  1  0  0  0  0
 20 21  1  0  0  0  0
 22 23  2  0  0  0  0
 22 24  1  0  0  0  0
 24 25  1  0  0  0  0
 24 26  1  0  0  0  0
 26 27  1  0  0  0  0
 26 28  1  0  0  0  0
 26 29  1  0  0  0  0
M  END
$$$$

  -OEChem-04042215593D

 29 29  0     1  0  0  0  0  0999 V2000
   -2.5684   -4.5012    1.2876 H   0  0  0  0  0  0  0  0  0  0  0  0
   -2.8204   -3.4933    0.9460 C   0  0  0  0  0  0  0  0  0  0  0  0
   -3.4019   -2.9929    1.7241 H   0  0  0  0  0  0  0  0  0  0  0  0
   -3.4256   -3.5693    0.0395 H   0  0  0  0  0  0  0  0  0  0  0  0
   -1.5555   -2.7074    0.6575 C   0  0  0  0  0  0  0  0  0  0  0  0
   -0.4640   -3.2366    0.7926 O   0  0  0  0  0  0  0  0  0  0  0  0
   -1.6492   -1.3922    0.2527 N   0  0  0  0  0  0  0  0  0  0  0  0
   -2.5750   -0.9703    0.2640 H   0  0  0  0  0  0  0  0  0  0  0  0
   -0.5069   -0.4877    0.0578 C   0  0  1  0  0  0  0  0  0  0  0  0
    0.3247   -0.9018    0.6373 H   0  0  0  0  0  0  0  0  0  0  0  0
   -0.0278   -0.5041   -1.4078 C   0  0  0  0  0  0  0  0  0  0  0  0
    0.9703   -0.0585   -1.4384 H   0  0  0  0  0  0  0  0  0  0  0  0
    0.0773   -1.5457   -1.7266 H   0  0  0  0  0  0  0  0  0  0  0  0
   -0.8570    0.2139   -2.4430 C   0  0  0  0  0  0  0  0  0  0  0  0
   -0.4444    0.2150   -3.7703 N   0  0  0  0  0  0  0  0  0  0  0  0
   -1.3578    0.8563   -4.4573 C   0  0  0  0  0  0  0  0  0  0  0  0
   -1.3220    1.0310   -5.5288 H   0  0  0  0  0  0  0  0  0  0  0  0
   -2.3709    1.2689   -3.6167 N   0  0  0  0  0  0  0  0  0  0  0  0
   -3.2013    1.7839   -3.9031 H   0  0  0  0  0  0  0  0  0  0  0  0
   -2.0661    0.8504   -2.3395 C   0  0  0  0  0  0  0  0  0  0  0  0
   -2.6682    0.9860   -1.4480 H   0  0  0  0  0  0  0  0  0  0  0  0
   -0.7255    0.9141    0.6681 C   0  0  0  0  0  0  0  0  0  0  0  0
   -1.8525    1.3945    0.7246 O   0  0  0  0  0  0  0  0  0  0  0  0
    0.2839    1.5108    1.4017 N   0  0  0  0  0  0  0  0  0  0  0  0
    1.1818    1.0357    1.4385 H   0  0  0  0  0  0  0  0  0  0  0  0
    0.1025    2.7312    2.1785 C   0  0  0  0  0  0  0  0  0  0  0  0
   -0.6511    2.5803    2.9586 H   0  0  0  0  0  0  0  0  0  0  0  0
    1.0437    3.0170    2.6580 H   0  0  0  0  0  0  0  0  0  0  0  0
   -0.2188    3.5541    1.5313 H   0  0  0  0  0  0  0  0  0  0  0  0
  1  2  1  0  0  0  0
  2  3  1  0  0  0  0
  2  4  1  0  0  0  0
  2  5  1  0  0  0  0
  5  6  2  0  0  0  0
  5  7  1  0  0  0  0
  7  8  1  0  0  0  0
  7  9  1  0  0  0  0
  9 10  1  0  0  0  0
  9 11  1  0  0  0  0
  9 22  1  0  0  0  0
 11 12  1  0  0  0  0
 11 13  1  0  0  0  0
 11 14  1  0  0  0  0
 14 15  1  0  0  0  0
 14 20  2  0  0  0  0
 15 16  2  0  0  0  0
 16 17  1  0  0  0  0
 16 18  1  0  0  0  0
 18 19  1  0  0  0  0
 18 20  1  0  0  0  0
 20 21  1  0  0  0  0
 22 23  2  0  0  0  0
 22 24  1  0  0  0  0
 24 25  1  0  0  0  0
 24 26  1  0  0  0  0
 26 27  1  0  0  0  0
 26 28  1  0  0  0  0
 26 29  1  0  0  0  0
M  END
$$$$

  -OEChem-04042215593D

 29 29  0     1  0  0  0  0  0999 V2000
   -2.5718   -4.5001    1.2050 H   0  0  0  0  0  0  0  0  0  0  0  0
   -2.8261   -3.4827    0.8946 C   0  0  0  0  0  0  0  0  0  0  0  0
   -3.4179   -3.0110    1.6827 H   0  0  0  0  0  0  0  0  0  0  0  0
   -3.4218   -3.5321   -0.0200 H   0  0  0  0  0  0  0  0  0  0  0  0
   -1.5622   -2.6818    0.6456 C   0  0  0  0  0  0  0  0  0  0  0  0
   -0.4698   -3.2067    0.7909 O   0  0  0  0  0  0  0  0  0  0  0  0
   -1.6563   -1.3596    0.2641 N   0  0  0  0  0  0  0  0  0  0  0  0
   -2.5856   -0.9450    0.2486 H   0  0  0  0  0  0  0  0  0  0  0  0
   -0.5163   -0.4517    0.0726 C   0  0  1  0  0  0  0  0  0  0  0  0
    0.3145   -0.8734    0.6478 H   0  0  0  0  0  0  0  0  0  0  0  0
   -0.0337   -0.4718   -1.3926 C   0  0  0  0  0  0  0  0  0  0  0  0
    0.9690   -0.0370   -1.4250 H   0  0  0  0  0  0  0  0  0  0  0  0
    0.0635   -1.5182   -1.6985 H   0  0  0  0  0  0  0  0  0  0  0  0
   -0.8514    0.2355   -2.4465 C   0  0  0  0  0  0  0  0  0  0  0  0
   -0.5992   -0.0390   -3.7861 N   0  0  0  0  0  0  0  0  0  0  0  0
   -1.4601    0.6500   -4.4937 C   0  0  0  0  0  0  0  0  0  0  0  0
   -1.5159    0.6505   -5.5786 H   0  0  0  0  0  0  0  0  0  0  0  0
   -2.2846    1.3676   -3.6528 N   0  0  0  0  0  0  0  0  0  0  0  0
   -3.0452    1.9752   -3.9514 H   0  0  0  0  0  0  0  0  0  0  0  0
   -1.9130    1.0984   -2.3529 C   0  0  0  0  0  0  0  0  0  0  0  0
   -2.3825    1.4853   -1.4567 H   0  0  0  0  0  0  0  0  0  0  0  0
   -0.7243    0.9405    0.7070 C   0  0  0  0  0  0  0  0  0  0  0  0
   -1.8513    1.4151    0.7999 O   0  0  0  0  0  0  0  0  0  0  0  0
    0.2963    1.5221    1.4378 N   0  0  0  0  0  0  0  0  0  0  0  0
    1.1912    1.0405    1.4585 H   0  0  0  0  0  0  0  0  0  0  0  0
    0.1213    2.7118    2.2624 C   0  0  0  0  0  0  0  0  0  0  0  0
   -0.5856    2.5136    3.0749 H   0  0  0  0  0  0  0  0  0  0  0  0
    1.0780    3.0111    2.7011 H   0  0  0  0  0  0  0  0  0  0  0  0
   -0.2566    3.5446    1.6602 H   0  0  0  0  0  0  0  0  0  0  0  0
  1  2  1  0  0  0  0
  2  3  1  0  0  0  0
  2  4  1  0  0  0  0
  2  5  1  0  0  0  0
  5  6  2  0  0  0  0
  5  7  1  0  0  0  0
  7  8  1  0  0  0  0
  7  9  1  0  0  0  0
  9 10  1  0  0  0  0
  9 11  1  0  0  0  0
  9 22  1  0  0  0  0
 11 12  1  0  0  0  0
 11 13  1  0  0  0  0
 11 14  1  0  0  0  0
 14 15  1  0  0  0  0
 14 20  2  0  0  0  0
 15 16  2  0  0  0  0
 16 17  1  0  0  0  0
 16 18  1  0  0  0  0
 18 19  1  0  0  0  0
 18 20  1  0  0  0  0
 20 21  1  0  0  0  0
 22 23  2  0  0  0  0
 22 24  1  0  0  0  0
 24 25  1  0  0  0  0
 24 26  1  0  0  0  0
 26 27  1  0  0  0  0
 26 28  1  0  0  0  0
 26 29  1  0  0  0  0
M  END
$$$$

  -OEChem-04042215593D

 29 29  0     1  0  0  0  0  0999 V2000
   -2.6020   -4.4827    1.2181 H   0  0  0  0  0  0  0  0  0  0  0  0
   -2.8422   -3.4671    0.8913 C   0  0  0  0  0  0  0  0  0  0  0  0
   -3.4548   -2.9862    1.6577 H   0  0  0  0  0  0  0  0  0  0  0  0
   -3.4116   -3.5227   -0.0397 H   0  0  0  0  0  0  0  0  0  0  0  0
   -1.5679   -2.6738    0.6710 C   0  0  0  0  0  0  0  0  0  0  0  0
   -0.4823   -3.2028    0.8497 O   0  0  0  0  0  0  0  0  0  0  0  0
   -1.6439   -1.3536    0.2792 N   0  0  0  0  0  0  0  0  0  0  0  0
   -2.5703   -0.9366    0.2165 H   0  0  0  0  0  0  0  0  0  0  0  0
   -0.4933   -0.4617    0.0770 C   0  0  1  0  0  0  0  0  0  0  0  0
    0.3418   -0.8865    0.6437 H   0  0  0  0  0  0  0  0  0  0  0  0
   -0.0429   -0.5006   -1.4001 C   0  0  0  0  0  0  0  0  0  0  0  0
    0.9681   -0.0893   -1.4630 H   0  0  0  0  0  0  0  0  0  0  0  0
    0.0249   -1.5519   -1.6979 H   0  0  0  0  0  0  0  0  0  0  0  0
   -0.8734    0.2156   -2.4392 C   0  0  0  0  0  0  0  0  0  0  0  0
   -0.8986   -0.2774   -3.7395 N   0  0  0  0  0  0  0  0  0  0  0  0
   -1.6832    0.5055   -4.4380 C   0  0  0  0  0  0  0  0  0  0  0  0
   -1.9085    0.3798   -5.4932 H   0  0  0  0  0  0  0  0  0  0  0  0
   -2.1759    1.5094   -3.6310 N   0  0  0  0  0  0  0  0  0  0  0  0
   -2.8083    2.2490   -3.9309 H   0  0  0  0  0  0  0  0  0  0  0  0
   -1.6645    1.3332   -2.3633 C   0  0  0  0  0  0  0  0  0  0  0  0
   -1.8524    1.9622   -1.5012 H   0  0  0  0  0  0  0  0  0  0  0  0
   -0.6981    0.9322    0.7063 C   0  0  0  0  0  0  0  0  0  0  0  0
   -1.8209    1.4215    0.7726 O   0  0  0  0  0  0  0  0  0  0  0  0
    0.3211    1.5164    1.4368 N   0  0  0  0  0  0  0  0  0  0  0  0
    1.2079    1.0215    1.4821 H   0  0  0  0  0  0  0  0  0  0  0  0
    0.1494    2.7220    2.2387 C   0  0  0  0  0  0  0  0  0  0  0  0
   -0.5885    2.5549    3.0304 H   0  0  0  0  0  0  0  0  0  0  0  0
    1.0986    3.0038    2.7043 H   0  0  0  0  0  0  0  0  0  0  0  0
   -0.1868    3.5544    1.6120 H   0  0  0  0  0  0  0  0  0  0  0  0
  1  2  1  0  0  0  0
  2  3  1  0  0  0  0
  2  4  1  0  0  0  0
  2  5  1  0  0  0  0
  5  6  2  0  0  0  0
  5  7  1  0  0  0  0
  7  8  1  0  0  0  0
  7  9  1  0  0  0  0
  9 10  1  0  0  0  0
  9 11  1  0  0  0  0
  9 22  1  0  0  0  0
 11 12  1  0  0  0  0
 11 13  1  0  0  0  0
 11 14  1  0  0  0  0
 14 15  1  0  0  0  0
 14 20  2  0  0  0  0
 15 16  2  0  0  0  0
 16 17  1  0  0  0  0
 16 18  1  0  0  0  0
 18 19  1  0  0  0  0
 18 20  1  0  0  0  0
 20 21  1  0  0  0  0
 22 23  2  0  0  0  0
 22 24  1  0  0  0  0
 24 25  1  0  0  0  0
 24 26  1  0  0  0  0
 26 27  1  0  0  0  0
 26 28  1  0  0  0  0
 26 29  1  0  0  0  0
M  END
$$$$

  -OEChem-04042215593D

 29 29  0     1  0  0  0  0  0999 V2000
   -2.6376   -4.4897    1.1623 H   0  0  0  0  0  0  0  0  0  0  0  0
   -2.8594   -3.4756    0.8185 C   0  0  0  0  0  0  0  0  0  0  0  0
   -3.5243   -2.9957    1.5405 H   0  0  0  0  0  0  0  0  0  0  0  0
   -3.3636   -3.5343   -0.1492 H   0  0  0  0  0  0  0  0  0  0  0  0
   -1.5766   -2.6774    0.6846 C   0  0  0  0  0  0  0  0  0  0  0  0
   -0.5043   -3.1957    0.9535 O   0  0  0  0  0  0  0  0  0  0  0  0
   -1.6301   -1.3648    0.2660 N   0  0  0  0  0  0  0  0  0  0  0  0
   -2.5497   -0.9619    0.0975 H   0  0  0  0  0  0  0  0  0  0  0  0
   -0.4683   -0.4842    0.0864 C   0  0  1  0  0  0  0  0  0  0  0  0
    0.3578   -0.9040    0.6695 H   0  0  0  0  0  0  0  0  0  0  0  0
   -0.0131   -0.5360   -1.3883 C   0  0  0  0  0  0  0  0  0  0  0  0
    0.9995   -0.1291   -1.4522 H   0  0  0  0  0  0  0  0  0  0  0  0
    0.0472   -1.5861   -1.6912 H   0  0  0  0  0  0  0  0  0  0  0  0
   -0.8540    0.1981   -2.4039 C   0  0  0  0  0  0  0  0  0  0  0  0
   -1.1861   -0.4045   -3.6122 N   0  0  0  0  0  0  0  0  0  0  0  0
   -1.8738    0.4716   -4.3031 C   0  0  0  0  0  0  0  0  0  0  0  0
   -2.2841    0.2985   -5.2939 H   0  0  0  0  0  0  0  0  0  0  0  0
   -1.9918    1.6440   -3.5855 N   0  0  0  0  0  0  0  0  0  0  0  0
   -2.4810    2.4802   -3.8989 H   0  0  0  0  0  0  0  0  0  0  0  0
   -1.3330    1.4816   -2.3859 C   0  0  0  0  0  0  0  0  0  0  0  0
   -1.2146    2.2197   -1.5988 H   0  0  0  0  0  0  0  0  0  0  0  0
   -0.6952    0.9194    0.6855 C   0  0  0  0  0  0  0  0  0  0  0  0
   -1.8055    1.4393    0.6501 O   0  0  0  0  0  0  0  0  0  0  0  0
    0.2961    1.5161    1.4437 N   0  0  0  0  0  0  0  0  0  0  0  0
    1.1628    0.9998    1.5695 H   0  0  0  0  0  0  0  0  0  0  0  0
    0.0950    2.7424    2.2062 C   0  0  0  0  0  0  0  0  0  0  0  0
   -0.6705    2.5943    2.9752 H   0  0  0  0  0  0  0  0  0  0  0  0
    1.0268    3.0387    2.6975 H   0  0  0  0  0  0  0  0  0  0  0  0
   -0.2206    3.5572    1.5464 H   0  0  0  0  0  0  0  0  0  0  0  0
  1  2  1  0  0  0  0
  2  3  1  0  0  0  0
  2  4  1  0  0  0  0
  2  5  1  0  0  0  0
  5  6  2  0  0  0  0
  5  7  1  0  0  0  0
  7  8  1  0  0  0  0
  7  9  1  0  0  0  0
  9 10  1  0  0  0  0
  9 11  1  0  0  0  0
  9 22  1  0  0  0  0
 11 12  1  0  0  0  0
 11 13  1  0  0  0  0
 11 14  1  0  0  0  0
 14 15  1  0  0  0  0
 14 20  2  0  0  0  0
 15 16  2  0  0  0  0
 16 17  1  0  0  0  0
 16 18  1  0  0  0  0
 18 19  1  0  0  0  0
 18 20  1  0  0  0  0
 20 21  1  0  0  0  0
 22 23  2  0  0  0  0
 22 24  1  0  0  0  0
 24 25  1  0  0  0  0
 24 26  1  0  0  0  0
 26 27  1  0  0  0  0
 26 28  1  0  0  0  0
 26 29  1  0  0  0  0
M  END
$$$$

  -OEChem-04042215593D

 29 29  0     1  0  0  0  0  0999 V2000
   -2.6629   -4.4946    1.1397 H   0  0  0  0  0  0  0  0  0  0  0  0
   -2.8677   -3.4874    0.7664 C   0  0  0  0  0  0  0  0  0  0  0  0
   -3.5829   -3.0022    1.4348 H   0  0  0  0  0  0  0  0  0  0  0  0
   -3.3052   -3.5642   -0.2321 H   0  0  0  0  0  0  0  0  0  0  0  0
   -1.5843   -2.6810    0.7062 C   0  0  0  0  0  0  0  0  0  0  0  0
   -0.5290   -3.1857    1.0568 O   0  0  0  0  0  0  0  0  0  0  0  0
   -1.6174   -1.3781    0.2569 N   0  0  0  0  0  0  0  0  0  0  0  0
   -2.5206   -0.9986   -0.0195 H   0  0  0  0  0  0  0  0  0  0  0  0
   -0.4466   -0.5067    0.0961 C   0  0  1  0  0  0  0  0  0  0  0  0
    0.3701   -0.9194    0.6964 H   0  0  0  0  0  0  0  0  0  0  0  0
    0.0168   -0.5694   -1.3741 C   0  0  0  0  0  0  0  0  0  0  0  0
    1.0276   -0.1571   -1.4352 H   0  0  0  0  0  0  0  0  0  0  0  0
    0.0780   -1.6162   -1.6881 H   0  0  0  0  0  0  0  0  0  0  0  0
   -0.8402    0.1828   -2.3579 C   0  0  0  0  0  0  0  0  0  0  0  0
   -1.4729   -0.4534   -3.4195 N   0  0  0  0  0  0  0  0  0  0  0  0
   -2.0742    0.4813   -4.1153 C   0  0  0  0  0  0  0  0  0  0  0  0
   -2.6688    0.3055   -5.0074 H   0  0  0  0  0  0  0  0  0  0  0  0
   -1.8334    1.7179   -3.5498 N   0  0  0  0  0  0  0  0  0  0  0  0
   -2.1955    2.6048   -3.8946 H   0  0  0  0  0  0  0  0  0  0  0  0
   -1.0337    1.5350   -2.4429 C   0  0  0  0  0  0  0  0  0  0  0  0
   -0.6455    2.2933   -1.7690 H   0  0  0  0  0  0  0  0  0  0  0  0
   -0.6871    0.9114    0.6562 C   0  0  0  0  0  0  0  0  0  0  0  0
   -1.7752    1.4610    0.5257 O   0  0  0  0  0  0  0  0  0  0  0  0
    0.2808    1.5213    1.4338 N   0  0  0  0  0  0  0  0  0  0  0  0
    1.1238    0.9894    1.6331 H   0  0  0  0  0  0  0  0  0  0  0  0
    0.0735    2.7903    2.1209 C   0  0  0  0  0  0  0  0  0  0  0  0
   -0.7474    2.7065    2.8409 H   0  0  0  0  0  0  0  0  0  0  0  0
    0.9799    3.0801    2.6612 H   0  0  0  0  0  0  0  0  0  0  0  0
   -0.1666    3.5806    1.4019 H   0  0  0  0  0  0  0  0  0  0  0  0
  1  2  1  0  0  0  0
  2  3  1  0  0  0  0
  2  4  1  0  0  0  0
  2  5  1  0  0  0  0
  5  6  2  0  0  0  0
  5  7  1  0  0  0  0
  7  8  1  0  0  0  0
  7  9  1  0  0  0  0
  9 10  1  0  0  0  0
  9 11  1  0  0  0  0
  9 22  1  0  0  0  0
 11 12  1  0  0  0  0
 11 13  1  0  0  0  0
 11 14  1  0  0  0  0
 14 15  1  0  0  0  0
 14 20  2  0  0  0  0
 15 16  2  0  0  0  0
 16 17  1  0  0  0  0
 16 18  1  0  0  0  0
 18 19  1  0  0  0  0
 18 20  1  0  0  0  0
 20 21  1  0  0  0  0
 22 23  2  0  0  0  0
 22 24  1  0  0  0  0
 24 25  1  0  0  0  0
 24 26  1  0  0  0  0
 26 27  1  0  0  0  0
 26 28  1  0  0  0  0
 26 29  1  0  0  0  0
M  END
$$$$

  -OEChem-04042215593D

 29 29  0     1  0  0  0  0  0999 V2000
   -2.6812   -4.4932    1.0956 H   0  0  0  0  0  0  0  0  0  0  0  0
   -2.8729   -3.4893    0.7069 C   0  0  0  0  0  0  0  0  0  0  0  0
   -3.6353   -3.0105    1.3260 H   0  0  0  0  0  0  0  0  0  0  0  0
   -3.2441   -3.5735   -0.3175 H   0  0  0  0  0  0  0  0  0  0  0  0
   -1.5978   -2.6678    0.7275 C   0  0  0  0  0  0  0  0  0  0  0  0
   -0.5656   -3.1540    1.1635 O   0  0  0  0  0  0  0  0  0  0  0  0
   -1.6113   -1.3751    0.2492 N   0  0  0  0  0  0  0  0  0  0  0  0
   -2.4848   -1.0318   -0.1459 H   0  0  0  0  0  0  0  0  0  0  0  0
   -0.4313   -0.5132    0.1057 C   0  0  1  0  0  0  0  0  0  0  0  0
    0.3734   -0.9214    0.7252 H   0  0  0  0  0  0  0  0  0  0  0  0
    0.0445   -0.5911   -1.3576 C   0  0  0  0  0  0  0  0  0  0  0  0
    1.0558   -0.1795   -1.4142 H   0  0  0  0  0  0  0  0  0  0  0  0
    0.1016   -1.6363   -1.6773 H   0  0  0  0  0  0  0  0  0  0  0  0
   -0.8219    0.1741   -2.3187 C   0  0  0  0  0  0  0  0  0  0  0  0
   -1.7144   -0.4469   -3.1839 N   0  0  0  0  0  0  0  0  0  0  0  0
   -2.2467    0.5049   -3.9126 C   0  0  0  0  0  0  0  0  0  0  0  0
   -2.9985    0.3501   -4.6812 H   0  0  0  0  0  0  0  0  0  0  0  0
   -1.7063    1.7278   -3.5641 N   0  0  0  0  0  0  0  0  0  0  0  0
   -1.9656    2.6240   -3.9718 H   0  0  0  0  0  0  0  0  0  0  0  0
   -0.7839    1.5196   -2.5616 C   0  0  0  0  0  0  0  0  0  0  0  0
   -0.1681    2.2551   -2.0527 H   0  0  0  0  0  0  0  0  0  0  0  0
   -0.6732    0.9210    0.6260 C   0  0  0  0  0  0  0  0  0  0  0  0
   -1.7385    1.4940    0.4279 O   0  0  0  0  0  0  0  0  0  0  0  0
    0.2806    1.5361    1.4175 N   0  0  0  0  0  0  0  0  0  0  0  0
    1.0980    0.9882    1.6716 H   0  0  0  0  0  0  0  0  0  0  0  0
    0.0726    2.8253    2.0656 C   0  0  0  0  0  0  0  0  0  0  0  0
   -0.7653    2.7696    2.7682 H   0  0  0  0  0  0  0  0  0  0  0  0
    0.9697    3.1195    2.6187 H   0  0  0  0  0  0  0  0  0  0  0  0
   -0.1416    3.5990    1.3210 H   0  0  0  0  0  0  0  0  0  0  0  0
  1  2  1  0  0  0  0
  2  3  1  0  0  0  0
  2  4  1  0  0  0  0
  2  5  1  0  0  0  0
  5  6  2  0  0  0  0
  5  7  1  0  0  0  0
  7  8  1  0  0  0  0
  7  9  1  0  0  0  0
  9 10  1  0  0  0  0
  9 11  1  0  0  0  0
  9 22  1  0  0  0  0
 11 12  1  0  0  0  0
 11 13  1  0  0  0  0
 11 14  1  0  0  0  0
 14 15  1  0  0  0  0
 14 20  2  0  0  0  0
 15 16  2  0  0  0  0
 16 17  1  0  0  0  0
 16 18  1  0  0  0  0
 18 19  1  0  0  0  0
 18 20  1  0  0  0  0
 20 21  1  0  0  0  0
 22 23  2  0  0  0  0
 22 24  1  0  0  0  0
 24 25  1  0  0  0  0
 24 26  1  0  0  0  0
 26 27  1  0  0  0  0
 26 28  1  0  0  0  0
 26 29  1  0  0  0  0
M  END
$$$$

  -OEChem-04042215593D

 29 29  0     1  0  0  0  0  0999 V2000
   -2.6985   -4.4864    1.0469 H   0  0  0  0  0  0  0  0  0  0  0  0
   -2.8767   -3.4847    0.6462 C   0  0  0  0  0  0  0  0  0  0  0  0
   -3.6752   -3.0106    1.2218 H   0  0  0  0  0  0  0  0  0  0  0  0
   -3.1915   -3.5729   -0.3965 H   0  0  0  0  0  0  0  0  0  0  0  0
   -1.6110   -2.6533    0.7341 C   0  0  0  0  0  0  0  0  0  0  0  0
   -0.6018   -3.1284    1.2321 O   0  0  0  0  0  0  0  0  0  0  0  0
   -1.6047   -1.3676    0.2382 N   0  0  0  0  0  0  0  0  0  0  0  0
   -2.4432   -1.0528   -0.2482 H   0  0  0  0  0  0  0  0  0  0  0  0
   -0.4162   -0.5153    0.1147 C   0  0  1  0  0  0  0  0  0  0  0  0
    0.3762   -0.9231    0.7504 H   0  0  0  0  0  0  0  0  0  0  0  0
    0.0725   -0.6091   -1.3420 C   0  0  0  0  0  0  0  0  0  0  0  0
    1.0885   -0.2082   -1.3942 H   0  0  0  0  0  0  0  0  0  0  0  0
    0.1169   -1.6552   -1.6604 H   0  0  0  0  0  0  0  0  0  0  0  0
   -0.7945    0.1654   -2.2927 C   0  0  0  0  0  0  0  0  0  0  0  0
   -1.8972   -0.3898   -2.9310 N   0  0  0  0  0  0  0  0  0  0  0  0
   -2.3840    0.5519   -3.7041 C   0  0  0  0  0  0  0  0  0  0  0  0
   -3.2633    0.4443   -4.3327 H   0  0  0  0  0  0  0  0  0  0  0  0
   -1.6121    1.6943   -3.6073 N   0  0  0  0  0  0  0  0  0  0  0  0
   -1.7934    2.5694   -4.0949 H   0  0  0  0  0  0  0  0  0  0  0  0
   -0.5886    1.4483   -2.7176 C   0  0  0  0  0  0  0  0  0  0  0  0
    0.2023    2.1206   -2.4000 H   0  0  0  0  0  0  0  0  0  0  0  0
   -0.6560    0.9300    0.6076 C   0  0  0  0  0  0  0  0  0  0  0  0
   -1.7006    1.5212    0.3590 O   0  0  0  0  0  0  0  0  0  0  0  0
    0.2840    1.5468    1.4144 N   0  0  0  0  0  0  0  0  0  0  0  0
    1.0804    0.9895    1.7112 H   0  0  0  0  0  0  0  0  0  0  0  0
    0.0802    2.8572    2.0204 C   0  0  0  0  0  0  0  0  0  0  0  0
   -0.7832    2.8382    2.6937 H   0  0  0  0  0  0  0  0  0  0  0  0
    0.9632    3.1485    2.5973 H   0  0  0  0  0  0  0  0  0  0  0  0
   -0.0916    3.6138    1.2476 H   0  0  0  0  0  0  0  0  0  0  0  0
  1  2  1  0  0  0  0
  2  3  1  0  0  0  0
  2  4  1  0  0  0  0
  2  5  1  0  0  0  0
  5  6  2  0  0  0  0
  5  7  1  0  0  0  0
  7  8  1  0  0  0  0
  7  9  1  0  0  0  0
  9 10  1  0  0  0  0
  9 11  1  0  0  0  0
  9 22  1  0  0  0  0
 11 12  1  0  0  0  0
 11 13  1  0  0  0  0
 11 14  1  0  0  0  0
 14 15  1  0  0  0  0
 14 20  2  0  0  0  0
 15 16  2  0  0  0  0
 16 17  1  0  0  0  0
 16 18  1  0  0  0  0
 18 19  1  0  0  0  0
 18 20  1  0  0  0  0
 20 21  1  0  0  0  0
 22 23  2  0  0  0  0
 22 24  1  0  0  0  0
 24 25  1  0  0  0  0
 24 26  1  0  0  0  0
 26 27  1  0  0  0  0
 26 28  1  0  0  0  0
 26 29  1  0  0  0  0
M  END
$$$$

  -OEChem-04042215593D

 29 29  0     1  0  0  0  0  0999 V2000
   -2.7171   -4.4790    1.0211 H   0  0  0  0  0  0  0  0  0  0  0  0
   -2.8846   -3.4790    0.6117 C   0  0  0  0  0  0  0  0  0  0  0  0
   -3.7007   -3.0039    1.1614 H   0  0  0  0  0  0  0  0  0  0  0  0
   -3.1680   -3.5713   -0.4397 H   0  0  0  0  0  0  0  0  0  0  0  0
   -1.6242   -2.6440    0.7354 C   0  0  0  0  0  0  0  0  0  0  0  0
   -0.6326   -3.1104    1.2756 O   0  0  0  0  0  0  0  0  0  0  0  0
   -1.6030   -1.3652    0.2237 N   0  0  0  0  0  0  0  0  0  0  0  0
   -2.4121   -1.0718   -0.3243 H   0  0  0  0  0  0  0  0  0  0  0  0
   -0.4111   -0.5172    0.1139 C   0  0  1  0  0  0  0  0  0  0  0  0
    0.3682   -0.9213    0.7674 H   0  0  0  0  0  0  0  0  0  0  0  0
    0.1033   -0.6266   -1.3327 C   0  0  0  0  0  0  0  0  0  0  0  0
    1.1221   -0.2315   -1.3753 H   0  0  0  0  0  0  0  0  0  0  0  0
    0.1441   -1.6754   -1.6416 H   0  0  0  0  0  0  0  0  0  0  0  0
   -0.7552    0.1443   -2.2932 C   0  0  0  0  0  0  0  0  0  0  0  0
   -2.0080   -0.2963   -2.7064 N   0  0  0  0  0  0  0  0  0  0  0  0
   -2.4672    0.6277   -3.5166 C   0  0  0  0  0  0  0  0  0  0  0  0
   -3.4376    0.5969   -4.0039 H   0  0  0  0  0  0  0  0  0  0  0  0
   -1.5365    1.6396   -3.6636 N   0  0  0  0  0  0  0  0  0  0  0  0
   -1.6692    2.4830   -4.2180 H   0  0  0  0  0  0  0  0  0  0  0  0
   -0.4386    1.3325   -2.8888 C   0  0  0  0  0  0  0  0  0  0  0  0
    0.4702    1.9097   -2.7492 H   0  0  0  0  0  0  0  0  0  0  0  0
   -0.6493    0.9374    0.5816 C   0  0  0  0  0  0  0  0  0  0  0  0
   -1.6781    1.5413    0.3000 O   0  0  0  0  0  0  0  0  0  0  0  0
    0.2830    1.5543    1.3973 N   0  0  0  0  0  0  0  0  0  0  0  0
    1.0630    0.9895    1.7218 H   0  0  0  0  0  0  0  0  0  0  0  0
    0.0869    2.8781    1.9757 C   0  0  0  0  0  0  0  0  0  0  0  0
   -0.7818    2.8800    2.6424 H   0  0  0  0  0  0  0  0  0  0  0  0
    0.9684    3.1725    2.5534 H   0  0  0  0  0  0  0  0  0  0  0  0
   -0.0722    3.6213    1.1872 H   0  0  0  0  0  0  0  0  0  0  0  0
  1  2  1  0  0  0  0
  2  3  1  0  0  0  0
  2  4  1  0  0  0  0
  2  5  1  0  0  0  0
  5  6  2  0  0  0  0
  5  7  1  0  0  0  0
  7  8  1  0  0  0  0
  7  9  1  0  0  0  0
  9 10  1  0  0  0  0
  9 11  1  0  0  0  0
  9 22  1  0  0  0  0
 11 12  1  0  0  0  0
 11 13  1  0  0  0  0
 11 14  1  0  0  0  0
 14 15  1  0  0  0  0
 14 20  2  0  0  0  0
 15 16  2  0  0  0  0
 16 17  1  0  0  0  0
 16 18  1  0  0  0  0
 18 19  1  0  0  0  0
 18 20  1  0  0  0  0
 20 21  1  0  0  0  0
 22 23  2  0  0  0  0
 22 24  1  0  0  0  0
 24 25  1  0  0  0  0
 24 26  1  0  0  0  0
 26 27  1  0  0  0  0
 26 28  1  0  0  0  0
 26 29  1  0  0  0  0
M  END
$$$$

  -OEChem-04042215593D

 29 29  0     1  0  0  0  0  0999 V2000
   -2.7151   -4.4861    1.0346 H   0  0  0  0  0  0  0  0  0  0  0  0
   -2.8854   -3.4874    0.6227 C   0  0  0  0  0  0  0  0  0  0  0  0
   -3.6999   -3.0114    1.1741 H   0  0  0  0  0  0  0  0  0  0  0  0
   -3.1731   -3.5829   -0.4272 H   0  0  0  0  0  0  0  0  0  0  0  0
   -1.6252   -2.6508    0.7385 C   0  0  0  0  0  0  0  0  0  0  0  0
   -0.6290   -3.1177    1.2699 O   0  0  0  0  0  0  0  0  0  0  0  0
   -1.6070   -1.3729    0.2246 N   0  0  0  0  0  0  0  0  0  0  0  0
   -2.4198   -1.0758   -0.3171 H   0  0  0  0  0  0  0  0  0  0  0  0
   -0.4201   -0.5190    0.1105 C   0  0  1  0  0  0  0  0  0  0  0  0
    0.3571   -0.9181    0.7694 H   0  0  0  0  0  0  0  0  0  0  0  0
    0.1084   -0.6277   -1.3318 C   0  0  0  0  0  0  0  0  0  0  0  0
    1.1279   -0.2343   -1.3667 H   0  0  0  0  0  0  0  0  0  0  0  0
    0.1503   -1.6790   -1.6322 H   0  0  0  0  0  0  0  0  0  0  0  0
   -0.7418    0.1306   -2.3121 C   0  0  0  0  0  0  0  0  0  0  0  0
   -2.0904   -0.1385   -2.5260 N   0  0  0  0  0  0  0  0  0  0  0  0
   -2.5046    0.7502   -3.3975 C   0  0  0  0  0  0  0  0  0  0  0  0
   -3.5224    0.8253   -3.7694 H   0  0  0  0  0  0  0  0  0  0  0  0
   -1.4580    1.5700   -3.7772 N   0  0  0  0  0  0  0  0  0  0  0  0
   -1.5309    2.3521   -4.4249 H   0  0  0  0  0  0  0  0  0  0  0  0
   -0.3309    1.1789   -3.0863 C   0  0  0  0  0  0  0  0  0  0  0  0
    0.6627    1.6152   -3.1176 H   0  0  0  0  0  0  0  0  0  0  0  0
   -0.6577    0.9378    0.5736 C   0  0  0  0  0  0  0  0  0  0  0  0
   -1.6905    1.5401    0.3049 O   0  0  0  0  0  0  0  0  0  0  0  0
    0.2787    1.5564    1.3838 N   0  0  0  0  0  0  0  0  0  0  0  0
    1.0676    0.9972    1.6954 H   0  0  0  0  0  0  0  0  0  0  0  0
    0.0890    2.8838    1.9560 C   0  0  0  0  0  0  0  0  0  0  0  0
   -0.7769    2.8919    2.6262 H   0  0  0  0  0  0  0  0  0  0  0  0
    0.9737    3.1784    2.5285 H   0  0  0  0  0  0  0  0  0  0  0  0
   -0.0708    3.6233    1.1642 H   0  0  0  0  0  0  0  0  0  0  0  0
  1  2  1  0  0  0  0
  2  3  1  0  0  0  0
  2  4  1  0  0  0  0
  2  5  1  0  0  0  0
  5  6  2  0  0  0  0
  5  7  1  0  0  0  0
  7  8  1  0  0  0  0
  7  9  1  0  0  0  0
  9 10  1  0  0  0  0
  9 11  1  0  0  0  0
  9 22  1  0  0  0  0
 11 12  1  0  0  0  0
 11 13  1  0  0  0  0
 11 14  1  0  0  0  0
 14 15  1  0  0  0  0
 14 20  2  0  0  0  0
 15 16  2  0  0  0  0
 16 17  1  0  0  0  0
 16 18  1  0  0  0  0
 18 19  1  0  0  0  0
 18 20  1  0  0  0  0
 20 21  1  0  0  0  0
 22 23  2  0  0  0  0
 22 24  1  0  0  0  0
 24 25  1  0  0  0  0
 24 26  1  0  0  0  0
 26 27  1  0  0  0  0
 26 28  1  0  0  0  0
 26 29  1  0  0  0  0
M  END
$$$$

  -OEChem-04042215593D

 29 29  0     1  0  0  0  0  0999 V2000
   -2.7098   -4.4809    1.0850 H   0  0  0  0  0  0  0  0  0  0  0  0
   -2.8862   -3.4840    0.6718 C   0  0  0  0  0  0  0  0  0  0  0  0
   -3.6710   -2.9940    1.2531 H   0  0  0  0  0  0  0  0  0  0  0  0
   -3.2189   -3.5847   -0.3642 H   0  0  0  0  0  0  0  0  0  0  0  0
   -1.6135   -2.6608    0.7280 C   0  0  0  0  0  0  0  0  0  0  0  0
   -0.5964   -3.1391    1.2071 O   0  0  0  0  0  0  0  0  0  0  0  0
   -1.6104   -1.3797    0.2228 N   0  0  0  0  0  0  0  0  0  0  0  0
   -2.4505   -1.0607   -0.2618 H   0  0  0  0  0  0  0  0  0  0  0  0
   -0.4353   -0.5127    0.0944 C   0  0  1  0  0  0  0  0  0  0  0  0
    0.3452   -0.9068    0.7526 H   0  0  0  0  0  0  0  0  0  0  0  0
    0.1049   -0.6182   -1.3444 C   0  0  0  0  0  0  0  0  0  0  0  0
    1.1215   -0.2165   -1.3735 H   0  0  0  0  0  0  0  0  0  0  0  0
    0.1587   -1.6723   -1.6326 H   0  0  0  0  0  0  0  0  0  0  0  0
   -0.7385    0.1156   -2.3512 C   0  0  0  0  0  0  0  0  0  0  0  0
   -2.1279    0.0541   -2.4017 N   0  0  0  0  0  0  0  0  0  0  0  0
   -2.5012    0.8860   -3.3437 C   0  0  0  0  0  0  0  0  0  0  0  0
   -3.5320    1.0823   -3.6248 H   0  0  0  0  0  0  0  0  0  0  0  0
   -1.3921    1.4696   -3.9270 N   0  0  0  0  0  0  0  0  0  0  0  0
   -1.4185    2.1690   -4.6662 H   0  0  0  0  0  0  0  0  0  0  0  0
   -0.2666    0.9856   -3.2940 C   0  0  0  0  0  0  0  0  0  0  0  0
    0.7711    1.2502   -3.4725 H   0  0  0  0  0  0  0  0  0  0  0  0
   -0.6732    0.9413    0.5680 C   0  0  0  0  0  0  0  0  0  0  0  0
   -1.7285    1.5281    0.3600 O   0  0  0  0  0  0  0  0  0  0  0  0
    0.2766    1.5586    1.3639 N   0  0  0  0  0  0  0  0  0  0  0  0
    1.0860    1.0082    1.6354 H   0  0  0  0  0  0  0  0  0  0  0  0
    0.0811    2.8678    1.9750 C   0  0  0  0  0  0  0  0  0  0  0  0
   -0.7740    2.8476    2.6589 H   0  0  0  0  0  0  0  0  0  0  0  0
    0.9713    3.1573    2.5416 H   0  0  0  0  0  0  0  0  0  0  0  0
   -0.0999    3.6262    1.2060 H   0  0  0  0  0  0  0  0  0  0  0  0
  1  2  1  0  0  0  0
  2  3  1  0  0  0  0
  2  4  1  0  0  0  0
  2  5  1  0  0  0  0
  5  6  2  0  0  0  0
  5  7  1  0  0  0  0
  7  8  1  0  0  0  0
  7  9  1  0  0  0  0
  9 10  1  0  0  0  0
  9 11  1  0  0  0  0
  9 22  1  0  0  0  0
 11 12  1  0  0  0  0
 11 13  1  0  0  0  0
 11 14  1  0  0  0  0
 14 15  1  0  0  0  0
 14 20  2  0  0  0  0
 15 16  2  0  0  0  0
 16 17  1  0  0  0  0
 16 18  1  0  0  0  0
 18 19  1  0  0  0  0
 18 20  1  0  0  0  0
 20 21  1  0  0  0  0
 22 23  2  0  0  0  0
 22 24  1  0  0  0  0
 24 25  1  0  0  0  0
 24 26  1  0  0  0  0
 26 27  1  0  0  0  0
 26 28  1  0  0  0  0
 26 29  1  0  0  0  0
M  END
$$$$

  -OEChem-04042215593D

 29 29  0     1  0  0  0  0  0999 V2000
   -2.6846   -4.4777    1.1280 H   0  0  0  0  0  0  0  0  0  0  0  0
   -2.8798   -3.4776    0.7311 C   0  0  0  0  0  0  0  0  0  0  0  0
   -3.6247   -2.9865    1.3619 H   0  0  0  0  0  0  0  0  0  0  0  0
   -3.2761   -3.5710   -0.2829 H   0  0  0  0  0  0  0  0  0  0  0  0
   -1.6000   -2.6634    0.7122 C   0  0  0  0  0  0  0  0  0  0  0  0
   -0.5560   -3.1572    1.1109 O   0  0  0  0  0  0  0  0  0  0  0  0
   -1.6207   -1.3746    0.2272 N   0  0  0  0  0  0  0  0  0  0  0  0
   -2.4981   -1.0238   -0.1580 H   0  0  0  0  0  0  0  0  0  0  0  0
   -0.4589   -0.4931    0.0768 C   0  0  1  0  0  0  0  0  0  0  0  0
    0.3314   -0.8858    0.7243 H   0  0  0  0  0  0  0  0  0  0  0  0
    0.0831   -0.5908   -1.3626 C   0  0  0  0  0  0  0  0  0  0  0  0
    1.0955   -0.1781   -1.3895 H   0  0  0  0  0  0  0  0  0  0  0  0
    0.1518   -1.6467   -1.6404 H   0  0  0  0  0  0  0  0  0  0  0  0
   -0.7536    0.1180   -2.3942 C   0  0  0  0  0  0  0  0  0  0  0  0
   -2.1304    0.2971   -2.3257 N   0  0  0  0  0  0  0  0  0  0  0  0
   -2.4660    1.0342   -3.3558 C   0  0  0  0  0  0  0  0  0  0  0  0
   -3.4768    1.3615   -3.5817 H   0  0  0  0  0  0  0  0  0  0  0  0
   -1.3458    1.3274   -4.1099 N   0  0  0  0  0  0  0  0  0  0  0  0
   -1.3389    1.9012   -4.9510 H   0  0  0  0  0  0  0  0  0  0  0  0
   -0.2522    0.7527   -3.4969 C   0  0  0  0  0  0  0  0  0  0  0  0
    0.7896    0.8049   -3.7978 H   0  0  0  0  0  0  0  0  0  0  0  0
   -0.6946    0.9520    0.5788 C   0  0  0  0  0  0  0  0  0  0  0  0
   -1.7827    1.5057    0.4774 O   0  0  0  0  0  0  0  0  0  0  0  0
    0.2776    1.5624    1.3535 N   0  0  0  0  0  0  0  0  0  0  0  0
    1.1140    1.0243    1.5593 H   0  0  0  0  0  0  0  0  0  0  0  0
    0.0778    2.8357    2.0351 C   0  0  0  0  0  0  0  0  0  0  0  0
   -0.7239    2.7520    2.7762 H   0  0  0  0  0  0  0  0  0  0  0  0
    0.9955    3.1368    2.5492 H   0  0  0  0  0  0  0  0  0  0  0  0
   -0.1869    3.6183    1.3163 H   0  0  0  0  0  0  0  0  0  0  0  0
  1  2  1  0  0  0  0
  2  3  1  0  0  0  0
  2  4  1  0  0  0  0
  2  5  1  0  0  0  0
  5  6  2  0  0  0  0
  5  7  1  0  0  0  0
  7  8  1  0  0  0  0
  7  9  1  0  0  0  0
  9 10  1  0  0  0  0
  9 11  1  0  0  0  0
  9 22  1  0  0  0  0
 11 12  1  0  0  0  0
 11 13  1  0  0  0  0
 11 14  1  0  0  0  0
 14 15  1  0  0  0  0
 14 20  2  0  0  0  0
 15 16  2  0  0  0  0
 16 17  1  0  0  0  0
 16 18  1  0  0  0  0
 18 19  1  0  0  0  0
 18 20  1  0  0  0  0
 20 21  1  0  0  0  0
 22 23  2  0  0  0  0
 22 24  1  0  0  0  0
 24 25  1  0  0  0  0
 24 26  1  0  0  0  0
 26 27  1  0  0  0  0
 26 28  1  0  0  0  0
 26 29  1  0  0  0  0
M  END
$$$$

  -OEChem-04042215593D

 29 29  0     1  0  0  0  0  0999 V2000
   -2.6619   -4.4622    1.1709 H   0  0  0  0  0  0  0  0  0  0  0  0
   -2.8739   -3.4562    0.7985 C   0  0  0  0  0  0  0  0  0  0  0  0
   -3.5532   -2.9580    1.4944 H   0  0  0  0  0  0  0  0  0  0  0  0
   -3.3577   -3.5357   -0.1780 H   0  0  0  0  0  0  0  0  0  0  0  0
   -1.5872   -2.6623    0.6742 C   0  0  0  0  0  0  0  0  0  0  0  0
   -0.5186   -3.1813    0.9598 O   0  0  0  0  0  0  0  0  0  0  0  0
   -1.6300   -1.3628    0.2196 N   0  0  0  0  0  0  0  0  0  0  0  0
   -2.5388   -0.9706   -0.0251 H   0  0  0  0  0  0  0  0  0  0  0  0
   -0.4785   -0.4702    0.0537 C   0  0  1  0  0  0  0  0  0  0  0  0
    0.3201   -0.8677    0.6879 H   0  0  0  0  0  0  0  0  0  0  0  0
    0.0620   -0.5501   -1.3876 C   0  0  0  0  0  0  0  0  0  0  0  0
    1.0681   -0.1223   -1.4076 H   0  0  0  0  0  0  0  0  0  0  0  0
    0.1492   -1.6045   -1.6661 H   0  0  0  0  0  0  0  0  0  0  0  0
   -0.7658    0.1468   -2.4341 C   0  0  0  0  0  0  0  0  0  0  0  0
   -2.0757    0.5838   -2.2922 N   0  0  0  0  0  0  0  0  0  0  0  0
   -2.4005    1.1886   -3.4078 C   0  0  0  0  0  0  0  0  0  0  0  0
   -3.3649    1.6470   -3.6077 H   0  0  0  0  0  0  0  0  0  0  0  0
   -1.3353    1.1520   -4.2868 N   0  0  0  0  0  0  0  0  0  0  0  0
   -1.3298    1.5596   -5.2198 H   0  0  0  0  0  0  0  0  0  0  0  0
   -0.2915    0.4956   -3.6688 C   0  0  0  0  0  0  0  0  0  0  0  0
    0.7028    0.3005   -4.0592 H   0  0  0  0  0  0  0  0  0  0  0  0
   -0.7157    0.9595    0.5975 C   0  0  0  0  0  0  0  0  0  0  0  0
   -1.8337    1.4614    0.6182 O   0  0  0  0  0  0  0  0  0  0  0  0
    0.2744    1.5604    1.3572 N   0  0  0  0  0  0  0  0  0  0  0  0
    1.1449    1.0511    1.4757 H   0  0  0  0  0  0  0  0  0  0  0  0
    0.0710    2.7879    2.1175 C   0  0  0  0  0  0  0  0  0  0  0  0
   -0.6688    2.6296    2.9093 H   0  0  0  0  0  0  0  0  0  0  0  0
    1.0106    3.1067    2.5787 H   0  0  0  0  0  0  0  0  0  0  0  0
   -0.2807    3.5914    1.4618 H   0  0  0  0  0  0  0  0  0  0  0  0
  1  2  1  0  0  0  0
  2  3  1  0  0  0  0
  2  4  1  0  0  0  0
  2  5  1  0  0  0  0
  5  6  2  0  0  0  0
  5  7  1  0  0  0  0
  7  8  1  0  0  0  0
  7  9  1  0  0  0  0
  9 10  1  0  0  0  0
  9 11  1  0  0  0  0
  9 22  1  0  0  0  0
 11 12  1  0  0  0  0
 11 13  1  0  0  0  0
 11 14  1  0  0  0  0
 14 15  1  0  0  0  0
 14 20  2  0  0  0  0
 15 16  2  0  0  0  0
 16 17  1  0  0  0  0
 16 18  1  0  0  0  0
 18 19  1  0  0  0  0
 18 20  1  0  0  0  0
 20 21  1  0  0  0  0
 22 23  2  0  0  0  0
 22 24  1  0  0  0  0
 24 25  1  0  0  0  0
 24 26  1  0  0  0  0
 26 27  1  0  0  0  0
 26 28  1  0  0  0  0
 26 29  1  0  0  0  0
M  END
$$$$

  -OEChem-04042215593D

 29 29  0     1  0  0  0  0  0999 V2000
   -2.6498   -4.4377    1.1865 H   0  0  0  0  0  0  0  0  0  0  0  0
   -2.8691   -3.4240    0.8404 C   0  0  0  0  0  0  0  0  0  0  0  0
   -3.4860   -2.9211    1.5891 H   0  0  0  0  0  0  0  0  0  0  0  0
   -3.4247   -3.4838   -0.0985 H   0  0  0  0  0  0  0  0  0  0  0  0
   -1.5801   -2.6525    0.6302 C   0  0  0  0  0  0  0  0  0  0  0  0
   -0.5034   -3.1948    0.8275 O   0  0  0  0  0  0  0  0  0  0  0  0
   -1.6312   -1.3455    0.1995 N   0  0  0  0  0  0  0  0  0  0  0  0
   -2.5489   -0.9180    0.0801 H   0  0  0  0  0  0  0  0  0  0  0  0
   -0.4798   -0.4528    0.0317 C   0  0  1  0  0  0  0  0  0  0  0  0
    0.3228   -0.8584    0.6557 H   0  0  0  0  0  0  0  0  0  0  0  0
    0.0570   -0.5187   -1.4123 C   0  0  0  0  0  0  0  0  0  0  0  0
    1.0576   -0.0779   -1.4236 H   0  0  0  0  0  0  0  0  0  0  0  0
    0.1603   -1.5696   -1.6983 H   0  0  0  0  0  0  0  0  0  0  0  0
   -0.7589    0.1830   -2.4647 C   0  0  0  0  0  0  0  0  0  0  0  0
   -1.9425    0.8819   -2.2807 N   0  0  0  0  0  0  0  0  0  0  0  0
   -2.3044    1.3440   -3.4514 C   0  0  0  0  0  0  0  0  0  0  0  0
   -3.1946    1.9384   -3.6366 H   0  0  0  0  0  0  0  0  0  0  0  0
   -1.3857    0.9593   -4.4083 N   0  0  0  0  0  0  0  0  0  0  0  0
   -1.4376    1.1892   -5.3989 H   0  0  0  0  0  0  0  0  0  0  0  0
   -0.4012    0.2219   -3.7845 C   0  0  0  0  0  0  0  0  0  0  0  0
    0.4777   -0.2351   -4.2292 H   0  0  0  0  0  0  0  0  0  0  0  0
   -0.7230    0.9623    0.6106 C   0  0  0  0  0  0  0  0  0  0  0  0
   -1.8584    1.4148    0.7136 O   0  0  0  0  0  0  0  0  0  0  0  0
    0.2711    1.5558    1.3715 N   0  0  0  0  0  0  0  0  0  0  0  0
    1.1653    1.0780    1.4272 H   0  0  0  0  0  0  0  0  0  0  0  0
    0.0569    2.7437    2.1895 C   0  0  0  0  0  0  0  0  0  0  0  0
   -0.6482    2.5289    2.9993 H   0  0  0  0  0  0  0  0  0  0  0  0
    1.0019    3.0745    2.6305 H   0  0  0  0  0  0  0  0  0  0  0  0
   -0.3435    3.5612    1.5806 H   0  0  0  0  0  0  0  0  0  0  0  0
  1  2  1  0  0  0  0
  2  3  1  0  0  0  0
  2  4  1  0  0  0  0
  2  5  1  0  0  0  0
  5  6  2  0  0  0  0
  5  7  1  0  0  0  0
  7  8  1  0  0  0  0
  7  9  1  0  0  0  0
  9 10  1  0  0  0  0
  9 11  1  0  0  0  0
  9 22  1  0  0  0  0
 11 12  1  0  0  0  0
 11 13  1  0  0  0  0
 11 14  1  0  0  0  0
 14 15  1  0  0  0  0
 14 20  2  0  0  0  0
 15 16  2  0  0  0  0
 16 17  1  0  0  0  0
 16 18  1  0  0  0  0
 18 19  1  0  0  0  0
 18 20  1  0  0  0  0
 20 21  1  0  0  0  0
 22 23  2  0  0  0  0
 22 24  1  0  0  0  0
 24 25  1  0  0  0  0
 24 26  1  0  0  0  0
 26 27  1  0  0  0  0
 26 28  1  0  0  0  0
 26 29  1  0  0  0  0
M  END
$$$$

  -OEChem-04042215593D

 29 29  0     1  0  0  0  0  0999 V2000
   -2.6535   -4.4193    1.1971 H   0  0  0  0  0  0  0  0  0  0  0  0
   -2.8739   -3.4041    0.8556 C   0  0  0  0  0  0  0  0  0  0  0  0
   -3.4536   -2.8907    1.6266 H   0  0  0  0  0  0  0  0  0  0  0  0
   -3.4678   -3.4607   -0.0599 H   0  0  0  0  0  0  0  0  0  0  0  0
   -1.5846   -2.6500    0.5904 C   0  0  0  0  0  0  0  0  0  0  0  0
   -0.5085   -3.2100    0.7345 O   0  0  0  0  0  0  0  0  0  0  0  0
   -1.6346   -1.3381    0.1734 N   0  0  0  0  0  0  0  0  0  0  0  0
   -2.5485   -0.8874    0.1366 H   0  0  0  0  0  0  0  0  0  0  0  0
   -0.4759   -0.4512    0.0175 C   0  0  1  0  0  0  0  0  0  0  0  0
    0.3219   -0.8649    0.6426 H   0  0  0  0  0  0  0  0  0  0  0  0
    0.0694   -0.5070   -1.4242 C   0  0  0  0  0  0  0  0  0  0  0  0
    1.0666   -0.0587   -1.4179 H   0  0  0  0  0  0  0  0  0  0  0  0
    0.1861   -1.5546   -1.7176 H   0  0  0  0  0  0  0  0  0  0  0  0
   -0.7280    0.2077   -2.4820 C   0  0  0  0  0  0  0  0  0  0  0  0
   -1.7309    1.1452   -2.2899 N   0  0  0  0  0  0  0  0  0  0  0  0
   -2.1728    1.4889   -3.4738 C   0  0  0  0  0  0  0  0  0  0  0  0
   -2.9634    2.2111   -3.6567 H   0  0  0  0  0  0  0  0  0  0  0  0
   -1.4835    0.7930   -4.4476 N   0  0  0  0  0  0  0  0  0  0  0  0
   -1.6406    0.8738   -5.4504 H   0  0  0  0  0  0  0  0  0  0  0  0
   -0.5679   -0.0258   -3.8205 C   0  0  0  0  0  0  0  0  0  0  0  0
    0.1339   -0.7185   -4.2753 H   0  0  0  0  0  0  0  0  0  0  0  0
   -0.7270    0.9543    0.6165 C   0  0  0  0  0  0  0  0  0  0  0  0
   -1.8710    1.3791    0.7483 O   0  0  0  0  0  0  0  0  0  0  0  0
    0.2607    1.5400    1.3913 N   0  0  0  0  0  0  0  0  0  0  0  0
    1.1740    1.0967    1.3992 H   0  0  0  0  0  0  0  0  0  0  0  0
    0.0461    2.7245    2.2141 C   0  0  0  0  0  0  0  0  0  0  0  0
   -0.6877    2.5177    3.0002 H   0  0  0  0  0  0  0  0  0  0  0  0
    0.9838    3.0301    2.6877 H   0  0  0  0  0  0  0  0  0  0  0  0
   -0.3180    3.5560    1.6014 H   0  0  0  0  0  0  0  0  0  0  0  0
  1  2  1  0  0  0  0
  2  3  1  0  0  0  0
  2  4  1  0  0  0  0
  2  5  1  0  0  0  0
  5  6  2  0  0  0  0
  5  7  1  0  0  0  0
  7  8  1  0  0  0  0
  7  9  1  0  0  0  0
  9 10  1  0  0  0  0
  9 11  1  0  0  0  0
  9 22  1  0  0  0  0
 11 12  1  0  0  0  0
 11 13  1  0  0  0  0
 11 14  1  0  0  0  0
 14 15  1  0  0  0  0
 14 20  2  0  0  0  0
 15 16  2  0  0  0  0
 16 17  1  0  0  0  0
 16 18  1  0  0  0  0
 18 19  1  0  0  0  0
 18 20  1  0  0  0  0
 20 21  1  0  0  0  0
 22 23  2  0  0  0  0
 22 24  1  0  0  0  0
 24 25  1  0  0  0  0
 24 26  1  0  0  0  0
 26 27  1  0  0  0  0
 26 28  1  0  0  0  0
 26 29  1  0  0  0  0
M  END
$$$$

  -OEChem-04042215593D

 29 29  0     1  0  0  0  0  0999 V2000
   -2.6718   -4.4073    1.2126 H   0  0  0  0  0  0  0  0  0  0  0  0
   -2.8844   -3.3915    0.8681 C   0  0  0  0  0  0  0  0  0  0  0  0
   -3.4461   -2.8663    1.6445 H   0  0  0  0  0  0  0  0  0  0  0  0
   -3.4926   -3.4465   -0.0379 H   0  0  0  0  0  0  0  0  0  0  0  0
   -1.5900   -2.6554    0.5781 C   0  0  0  0  0  0  0  0  0  0  0  0
   -0.5191   -3.2287    0.7066 O   0  0  0  0  0  0  0  0  0  0  0  0
   -1.6299   -1.3450    0.1547 N   0  0  0  0  0  0  0  0  0  0  0  0
   -2.5367   -0.8791    0.1549 H   0  0  0  0  0  0  0  0  0  0  0  0
   -0.4614   -0.4683    0.0082 C   0  0  1  0  0  0  0  0  0  0  0  0
    0.3308   -0.8832    0.6396 H   0  0  0  0  0  0  0  0  0  0  0  0
    0.0894   -0.5266   -1.4315 C   0  0  0  0  0  0  0  0  0  0  0  0
    1.0885   -0.0829   -1.4193 H   0  0  0  0  0  0  0  0  0  0  0  0
    0.2029   -1.5746   -1.7247 H   0  0  0  0  0  0  0  0  0  0  0  0
   -0.6962    0.1995   -2.4902 C   0  0  0  0  0  0  0  0  0  0  0  0
   -1.4711    1.3367   -2.3212 N   0  0  0  0  0  0  0  0  0  0  0  0
   -2.0098    1.6139   -3.4825 C   0  0  0  0  0  0  0  0  0  0  0  0
   -2.6744    2.4513   -3.6754 H   0  0  0  0  0  0  0  0  0  0  0  0
   -1.6043    0.6826   -4.4183 N   0  0  0  0  0  0  0  0  0  0  0  0
   -1.8866    0.6708   -5.3964 H   0  0  0  0  0  0  0  0  0  0  0  0
   -0.7736   -0.2212   -3.7899 C   0  0  0  0  0  0  0  0  0  0  0  0
   -0.2842   -1.0916   -4.2168 H   0  0  0  0  0  0  0  0  0  0  0  0
   -0.7246    0.9360    0.6035 C   0  0  0  0  0  0  0  0  0  0  0  0
   -1.8757    1.3474    0.7218 O   0  0  0  0  0  0  0  0  0  0  0  0
    0.2482    1.5259    1.3933 N   0  0  0  0  0  0  0  0  0  0  0  0
    1.1740    1.1097    1.3859 H   0  0  0  0  0  0  0  0  0  0  0  0
    0.0204    2.7237    2.1925 C   0  0  0  0  0  0  0  0  0  0  0  0
   -0.7432    2.5369    2.9549 H   0  0  0  0  0  0  0  0  0  0  0  0
    0.9446    3.0240    2.6952 H   0  0  0  0  0  0  0  0  0  0  0  0
   -0.3113    3.5504    1.5554 H   0  0  0  0  0  0  0  0  0  0  0  0
  1  2  1  0  0  0  0
  2  3  1  0  0  0  0
  2  4  1  0  0  0  0
  2  5  1  0  0  0  0
  5  6  2  0  0  0  0
  5  7  1  0  0  0  0
  7  8  1  0  0  0  0
  7  9  1  0  0  0  0
  9 10  1  0  0  0  0
  9 11  1  0  0  0  0
  9 22  1  0  0  0  0
 11 12  1  0  0  0  0
 11 13  1  0  0  0  0
 11 14  1  0  0  0  0
 14 15  1  0  0  0  0
 14 20  2  0  0  0  0
 15 16  2  0  0  0  0
 16 17  1  0  0  0  0
 16 18  1  0  0  0  0
 18 19  1  0  0  0  0
 18 20  1  0  0  0  0
 20 21  1  0  0  0  0
 22 23  2  0  0  0  0
 22 24  1  0  0  0  0
 24 25  1  0  0  0  0
 24 26  1  0  0  0  0
 26 27  1  0  0  0  0
 26 28  1  0  0  0  0
 26 29  1  0  0  0  0
M  END
$$$$

  -OEChem-04042215593D

 29 29  0     1  0  0  0  0  0999 V2000
   -2.6928   -4.3882    1.2562 H   0  0  0  0  0  0  0  0  0  0  0  0
   -2.8932   -3.3795    0.8847 C   0  0  0  0  0  0  0  0  0  0  0  0
   -3.4466   -2.8266    1.6476 H   0  0  0  0  0  0  0  0  0  0  0  0
   -3.5035   -3.4507   -0.0187 H   0  0  0  0  0  0  0  0  0  0  0  0
   -1.5905   -2.6673    0.5739 C   0  0  0  0  0  0  0  0  0  0  0  0
   -0.5271   -3.2531    0.7059 O   0  0  0  0  0  0  0  0  0  0  0  0
   -1.6151   -1.3631    0.1307 N   0  0  0  0  0  0  0  0  0  0  0  0
   -2.5144   -0.8827    0.1464 H   0  0  0  0  0  0  0  0  0  0  0  0
   -0.4358   -0.4980   -0.0029 C   0  0  1  0  0  0  0  0  0  0  0  0
    0.3476   -0.9090    0.6422 H   0  0  0  0  0  0  0  0  0  0  0  0
    0.1210   -0.5667   -1.4393 C   0  0  0  0  0  0  0  0  0  0  0  0
    1.1264   -0.1372   -1.4292 H   0  0  0  0  0  0  0  0  0  0  0  0
    0.2194   -1.6165   -1.7313 H   0  0  0  0  0  0  0  0  0  0  0  0
   -0.6616    0.1722   -2.4897 C   0  0  0  0  0  0  0  0  0  0  0  0
   -1.1731    1.4560   -2.3741 N   0  0  0  0  0  0  0  0  0  0  0  0
   -1.8247    1.7096   -3.4818 C   0  0  0  0  0  0  0  0  0  0  0  0
   -2.3463    2.6379   -3.6965 H   0  0  0  0  0  0  0  0  0  0  0  0
   -1.7448    0.6226   -4.3308 N   0  0  0  0  0  0  0  0  0  0  0  0
   -2.1741    0.5638   -5.2521 H   0  0  0  0  0  0  0  0  0  0  0  0
   -1.0090   -0.3592   -3.7012 C   0  0  0  0  0  0  0  0  0  0  0  0
   -0.7614   -1.3516   -4.0662 H   0  0  0  0  0  0  0  0  0  0  0  0
   -0.7183    0.9112    0.5713 C   0  0  0  0  0  0  0  0  0  0  0  0
   -1.8754    1.3183    0.6434 O   0  0  0  0  0  0  0  0  0  0  0  0
    0.2281    1.5168    1.3806 N   0  0  0  0  0  0  0  0  0  0  0  0
    1.1607    1.1157    1.3925 H   0  0  0  0  0  0  0  0  0  0  0  0
   -0.0248    2.7342    2.1412 C   0  0  0  0  0  0  0  0  0  0  0  0
   -0.8228    2.5704    2.8729 H   0  0  0  0  0  0  0  0  0  0  0  0
    0.8786    3.0386    2.6780 H   0  0  0  0  0  0  0  0  0  0  0  0
   -0.3208    3.5488    1.4718 H   0  0  0  0  0  0  0  0  0  0  0  0
  1  2  1  0  0  0  0
  2  3  1  0  0  0  0
  2  4  1  0  0  0  0
  2  5  1  0  0  0  0
  5  6  2  0  0  0  0
  5  7  1  0  0  0  0
  7  8  1  0  0  0  0
  7  9  1  0  0  0  0
  9 10  1  0  0  0  0
  9 11  1  0  0  0  0
  9 22  1  0  0  0  0
 11 12  1  0  0  0  0
 11 13  1  0  0  0  0
 11 14  1  0  0  0  0
 14 15  1  0  0  0  0
 14 20  2  0  0  0  0
 15 16  2  0  0  0  0
 16 17  1  0  0  0  0
 16 18  1  0  0  0  0
 18 19  1  0  0  0  0
 18 20  1  0  0  0  0
 20 21  1  0  0  0  0
 22 23  2  0  0  0  0
 22 24  1  0  0  0  0
 24 25  1  0  0  0  0
 24 26  1  0  0  0  0
 26 27  1  0  0  0  0
 26 28  1  0  0  0  0
 26 29  1  0  0  0  0
M  END
$$$$

  -OEChem-04042215593D

 29 29  0     1  0  0  0  0  0999 V2000
   -2.7033   -4.3939    1.2970 H   0  0  0  0  0  0  0  0  0  0  0  0
   -2.8969   -3.3889    0.9116 C   0  0  0  0  0  0  0  0  0  0  0  0
   -3.4481   -2.8224    1.6662 H   0  0  0  0  0  0  0  0  0  0  0  0
   -3.5061   -3.4681    0.0083 H   0  0  0  0  0  0  0  0  0  0  0  0
   -1.5888   -2.6899    0.5933 C   0  0  0  0  0  0  0  0  0  0  0  0
   -0.5290   -3.2765    0.7480 O   0  0  0  0  0  0  0  0  0  0  0  0
   -1.6037   -1.3958    0.1208 N   0  0  0  0  0  0  0  0  0  0  0  0
   -2.5001   -0.9097    0.1265 H   0  0  0  0  0  0  0  0  0  0  0  0
   -0.4171   -0.5393   -0.0076 C   0  0  1  0  0  0  0  0  0  0  0  0
    0.3624   -0.9405    0.6484 H   0  0  0  0  0  0  0  0  0  0  0  0
    0.1412   -0.6135   -1.4419 C   0  0  0  0  0  0  0  0  0  0  0  0
    1.1526   -0.1983   -1.4409 H   0  0  0  0  0  0  0  0  0  0  0  0
    0.2204   -1.6639   -1.7380 H   0  0  0  0  0  0  0  0  0  0  0  0
   -0.6502    0.1392   -2.4723 C   0  0  0  0  0  0  0  0  0  0  0  0
   -0.8884    1.5058   -2.4441 N   0  0  0  0  0  0  0  0  0  0  0  0
   -1.6348    1.7794   -3.4858 C   0  0  0  0  0  0  0  0  0  0  0  0
   -2.0013    2.7690   -3.7432 H   0  0  0  0  0  0  0  0  0  0  0  0
   -1.8784    0.6249   -4.2061 N   0  0  0  0  0  0  0  0  0  0  0  0
   -2.4373    0.5696   -5.0554 H   0  0  0  0  0  0  0  0  0  0  0  0
   -1.2519   -0.4225   -3.5638 C   0  0  0  0  0  0  0  0  0  0  0  0
   -1.2397   -1.4726   -3.8400 H   0  0  0  0  0  0  0  0  0  0  0  0
   -0.7176    0.8789    0.5336 C   0  0  0  0  0  0  0  0  0  0  0  0
   -1.8761    1.2894    0.5468 O   0  0  0  0  0  0  0  0  0  0  0  0
    0.2032    1.5081    1.3536 N   0  0  0  0  0  0  0  0  0  0  0  0
    1.1398    1.1176    1.3925 H   0  0  0  0  0  0  0  0  0  0  0  0
   -0.0708    2.7545    2.0579 C   0  0  0  0  0  0  0  0  0  0  0  0
   -0.8791    2.6146    2.7831 H   0  0  0  0  0  0  0  0  0  0  0  0
    0.8215    3.0889    2.5954 H   0  0  0  0  0  0  0  0  0  0  0  0
   -0.3626    3.5375    1.3501 H   0  0  0  0  0  0  0  0  0  0  0  0
  1  2  1  0  0  0  0
  2  3  1  0  0  0  0
  2  4  1  0  0  0  0
  2  5  1  0  0  0  0
  5  6  2  0  0  0  0
  5  7  1  0  0  0  0
  7  8  1  0  0  0  0
  7  9  1  0  0  0  0
  9 10  1  0  0  0  0
  9 11  1  0  0  0  0
  9 22  1  0  0  0  0
 11 12  1  0  0  0  0
 11 13  1  0  0  0  0
 11 14  1  0  0  0  0
 14 15  1  0  0  0  0
 14 20  2  0  0  0  0
 15 16  2  0  0  0  0
 16 17  1  0  0  0  0
 16 18  1  0  0  0  0
 18 19  1  0  0  0  0
 18 20  1  0  0  0  0
 20 21  1  0  0  0  0
 22 23  2  0  0  0  0
 22 24  1  0  0  0  0
 24 25  1  0  0  0  0
 24 26  1  0  0  0  0
 26 27  1  0  0  0  0
 26 28  1  0  0  0  0
 26 29  1  0  0  0  0
M  END
$$$$

  -OEChem-04042215593D

 29 29  0     1  0  0  0  0  0999 V2000
   -2.7047   -4.4183    1.3312 H   0  0  0  0  0  0  0  0  0  0  0  0
   -2.8957   -3.4207    0.9258 C   0  0  0  0  0  0  0  0  0  0  0  0
   -3.4625   -2.8445    1.6613 H   0  0  0  0  0  0  0  0  0  0  0  0
   -3.4886   -3.5181    0.0132 H   0  0  0  0  0  0  0  0  0  0  0  0
   -1.5848   -2.7217    0.6192 C   0  0  0  0  0  0  0  0  0  0  0  0
   -0.5266   -3.3018    0.8035 O   0  0  0  0  0  0  0  0  0  0  0  0
   -1.5948   -1.4363    0.1226 N   0  0  0  0  0  0  0  0  0  0  0  0
   -2.4922   -0.9524    0.1057 H   0  0  0  0  0  0  0  0  0  0  0  0
   -0.4066   -0.5802   -0.0025 C   0  0  1  0  0  0  0  0  0  0  0  0
    0.3722   -0.9717    0.6601 H   0  0  0  0  0  0  0  0  0  0  0  0
    0.1518   -0.6459   -1.4352 C   0  0  0  0  0  0  0  0  0  0  0  0
    1.1668   -0.2391   -1.4416 H   0  0  0  0  0  0  0  0  0  0  0  0
    0.2168   -1.6936   -1.7438 H   0  0  0  0  0  0  0  0  0  0  0  0
   -0.6582    0.1224   -2.4365 C   0  0  0  0  0  0  0  0  0  0  0  0
   -0.6458    1.5066   -2.5369 N   0  0  0  0  0  0  0  0  0  0  0  0
   -1.4776    1.8151   -3.5019 C   0  0  0  0  0  0  0  0  0  0  0  0
   -1.7044    2.8273   -3.8242 H   0  0  0  0  0  0  0  0  0  0  0  0
   -2.0133    0.6646   -4.0510 N   0  0  0  0  0  0  0  0  0  0  0  0
   -2.6852    0.6370   -4.8155 H   0  0  0  0  0  0  0  0  0  0  0  0
   -1.4887   -0.4185   -3.3772 C   0  0  0  0  0  0  0  0  0  0  0  0
   -1.6884   -1.4741   -3.5345 H   0  0  0  0  0  0  0  0  0  0  0  0
   -0.7203    0.8459    0.5085 C   0  0  0  0  0  0  0  0  0  0  0  0
   -1.8735    1.2676    0.4553 O   0  0  0  0  0  0  0  0  0  0  0  0
    0.1809    1.4966    1.3327 N   0  0  0  0  0  0  0  0  0  0  0  0
    1.1205    1.1156    1.3900 H   0  0  0  0  0  0  0  0  0  0  0  0
   -0.0954    2.7833    1.9589 C   0  0  0  0  0  0  0  0  0  0  0  0
   -0.9539    2.7046    2.6339 H   0  0  0  0  0  0  0  0  0  0  0  0
    0.7706    3.1149    2.5394 H   0  0  0  0  0  0  0  0  0  0  0  0
   -0.3130    3.5401    1.1978 H   0  0  0  0  0  0  0  0  0  0  0  0
  1  2  1  0  0  0  0
  2  3  1  0  0  0  0
  2  4  1  0  0  0  0
  2  5  1  0  0  0  0
  5  6  2  0  0  0  0
  5  7  1  0  0  0  0
  7  8  1  0  0  0  0
  7  9  1  0  0  0  0
  9 10  1  0  0  0  0
  9 11  1  0  0  0  0
  9 22  1  0  0  0  0
 11 12  1  0  0  0  0
 11 13  1  0  0  0  0
 11 14  1  0  0  0  0
 14 15  1  0  0  0  0
 14 20  2  0  0  0  0
 15 16  2  0  0  0  0
 16 17  1  0  0  0  0
 16 18  1  0  0  0  0
 18 19  1  0  0  0  0
 18 20  1  0  0  0  0
 20 21  1  0  0  0  0
 22 23  2  0  0  0  0
 22 24  1  0  0  0  0
 24 25  1  0  0  0  0
 24 26  1  0  0  0  0
 26 27  1  0  0  0  0
 26 28  1  0  0  0  0
 26 29  1  0  0  0  0
M  END
$$$$

  -OEChem-04042215593D

 29 29  0     1  0  0  0  0  0999 V2000
   -2.7035   -4.4370    1.3455 H   0  0  0  0  0  0  0  0  0  0  0  0
   -2.8924   -3.4421    0.9330 C   0  0  0  0  0  0  0  0  0  0  0  0
   -3.4658   -2.8624    1.6603 H   0  0  0  0  0  0  0  0  0  0  0  0
   -3.4783   -3.5458    0.0167 H   0  0  0  0  0  0  0  0  0  0  0  0
   -1.5803   -2.7425    0.6326 C   0  0  0  0  0  0  0  0  0  0  0  0
   -0.5218   -3.3170    0.8308 O   0  0  0  0  0  0  0  0  0  0  0  0
   -1.5905   -1.4620    0.1235 N   0  0  0  0  0  0  0  0  0  0  0  0
   -2.4894   -0.9817    0.0968 H   0  0  0  0  0  0  0  0  0  0  0  0
   -0.4035   -0.6038    0.0007 C   0  0  1  0  0  0  0  0  0  0  0  0
    0.3754   -0.9901    0.6660 H   0  0  0  0  0  0  0  0  0  0  0  0
    0.1555   -0.6597   -1.4308 C   0  0  0  0  0  0  0  0  0  0  0  0
    1.1713   -0.2545   -1.4415 H   0  0  0  0  0  0  0  0  0  0  0  0
    0.2155   -1.7037   -1.7519 H   0  0  0  0  0  0  0  0  0  0  0  0
   -0.6701    0.1182   -2.4099 C   0  0  0  0  0  0  0  0  0  0  0  0
   -0.4480    1.4587   -2.6926 N   0  0  0  0  0  0  0  0  0  0  0  0
   -1.3533    1.8003   -3.5776 C   0  0  0  0  0  0  0  0  0  0  0  0
   -1.4607    2.7952   -4.0004 H   0  0  0  0  0  0  0  0  0  0  0  0
   -2.1407    0.7093   -3.8983 N   0  0  0  0  0  0  0  0  0  0  0  0
   -2.9165    0.7191   -4.5573 H   0  0  0  0  0  0  0  0  0  0  0  0
   -1.7024   -0.3696   -3.1599 C   0  0  0  0  0  0  0  0  0  0  0  0
   -2.0850   -1.3853   -3.1505 H   0  0  0  0  0  0  0  0  0  0  0  0
   -0.7215    0.8269    0.4939 C   0  0  0  0  0  0  0  0  0  0  0  0
   -1.8660    1.2616    0.3909 O   0  0  0  0  0  0  0  0  0  0  0  0
    0.1691    1.4904    1.3189 N   0  0  0  0  0  0  0  0  0  0  0  0
    1.1041    1.1030    1.4040 H   0  0  0  0  0  0  0  0  0  0  0  0
   -0.1052    2.7987    1.8999 C   0  0  0  0  0  0  0  0  0  0  0  0
   -0.9799    2.7508    2.5567 H   0  0  0  0  0  0  0  0  0  0  0  0
    0.7514    3.1372    2.4904 H   0  0  0  0  0  0  0  0  0  0  0  0
   -0.2952    3.5348    1.1118 H   0  0  0  0  0  0  0  0  0  0  0  0
  1  2  1  0  0  0  0
  2  3  1  0  0  0  0
  2  4  1  0  0  0  0
  2  5  1  0  0  0  0
  5  6  2  0  0  0  0
  5  7  1  0  0  0  0
  7  8  1  0  0  0  0
  7  9  1  0  0  0  0
  9 10  1  0  0  0  0
  9 11  1  0  0  0  0
  9 22  1  0  0  0  0
 11 12  1  0  0  0  0
 11 13  1  0  0  0  0
 11 14  1  0  0  0  0
 14 15  1  0  0  0  0
 14 20  2  0  0  0  0
 15 16  2  0  0  0  0
 16 17  1  0  0  0  0
 16 18  1  0  0  0  0
 18 19  1  0  0  0  0
 18 20  1  0  0  0  0
 20 21  1  0  0  0  0
 22 23  2  0  0  0  0
 22 24  1  0  0  0  0
 24 25  1  0  0  0  0
 24 26  1  0  0  0  0
 26 27  1  0  0  0  0
 26 28  1  0  0  0  0
 26 29  1  0  0  0  0
M  END
$$$$

  -OEChem-04042215593D

 29 29  0     1  0  0  0  0  0999 V2000
   -2.6896   -4.4543    1.3712 H   0  0  0  0  0  0  0  0  0  0  0  0
   -2.8837   -3.4626    0.9529 C   0  0  0  0  0  0  0  0  0  0  0  0
   -3.4613   -2.8824    1.6767 H   0  0  0  0  0  0  0  0  0  0  0  0
   -3.4675   -3.5747    0.0362 H   0  0  0  0  0  0  0  0  0  0  0  0
   -1.5753   -2.7573    0.6499 C   0  0  0  0  0  0  0  0  0  0  0  0
   -0.5142   -3.3234    0.8575 O   0  0  0  0  0  0  0  0  0  0  0  0
   -1.5925   -1.4791    0.1344 N   0  0  0  0  0  0  0  0  0  0  0  0
   -2.4934   -1.0029    0.1105 H   0  0  0  0  0  0  0  0  0  0  0  0
   -0.4085   -0.6178    0.0031 C   0  0  1  0  0  0  0  0  0  0  0  0
    0.3761   -1.0001    0.6643 H   0  0  0  0  0  0  0  0  0  0  0  0
    0.1447   -0.6593   -1.4315 C   0  0  0  0  0  0  0  0  0  0  0  0
    1.1597   -0.2517   -1.4413 H   0  0  0  0  0  0  0  0  0  0  0  0
    0.2068   -1.6996   -1.7640 H   0  0  0  0  0  0  0  0  0  0  0  0
   -0.6871    0.1237   -2.4031 C   0  0  0  0  0  0  0  0  0  0  0  0
   -0.2987    1.3596   -2.9017 N   0  0  0  0  0  0  0  0  0  0  0  0
   -1.2572    1.7459   -3.7092 C   0  0  0  0  0  0  0  0  0  0  0  0
   -1.2660    2.6852   -4.2549 H   0  0  0  0  0  0  0  0  0  0  0  0
   -2.2463    0.7815   -3.7699 N   0  0  0  0  0  0  0  0  0  0  0  0
   -3.1003    0.8504   -4.3197 H   0  0  0  0  0  0  0  0  0  0  0  0
   -1.8817   -0.2606   -2.9440 C   0  0  0  0  0  0  0  0  0  0  0  0
   -2.4151   -1.1839   -2.7431 H   0  0  0  0  0  0  0  0  0  0  0  0
   -0.7264    0.8144    0.4901 C   0  0  0  0  0  0  0  0  0  0  0  0
   -1.8641    1.2590    0.3607 O   0  0  0  0  0  0  0  0  0  0  0  0
    0.1647    1.4851    1.3081 N   0  0  0  0  0  0  0  0  0  0  0  0
    1.0934    1.0872    1.4135 H   0  0  0  0  0  0  0  0  0  0  0  0
   -0.1052    2.7999    1.8758 C   0  0  0  0  0  0  0  0  0  0  0  0
   -0.9937    2.7673    2.5150 H   0  0  0  0  0  0  0  0  0  0  0  0
    0.7434    3.1307    2.4821 H   0  0  0  0  0  0  0  0  0  0  0  0
   -0.2696    3.5335    1.0796 H   0  0  0  0  0  0  0  0  0  0  0  0
  1  2  1  0  0  0  0
  2  3  1  0  0  0  0
  2  4  1  0  0  0  0
  2  5  1  0  0  0  0
  5  6  2  0  0  0  0
  5  7  1  0  0  0  0
  7  8  1  0  0  0  0
  7  9  1  0  0  0  0
  9 10  1  0  0  0  0
  9 11  1  0  0  0  0
  9 22  1  0  0  0  0
 11 12  1  0  0  0  0
 11 13  1  0  0  0  0
 11 14  1  0  0  0  0
 14 15  1  0  0  0  0
 14 20  2  0  0  0  0
 15 16  2  0  0  0  0
 16 17  1  0  0  0  0
 16 18  1  0  0  0  0
 18 19  1  0  0  0  0
 18 20  1  0  0  0  0
 20 21  1  0  0  0  0
 22 23  2  0  0  0  0
 22 24  1  0  0  0  0
 24 25  1  0  0  0  0
 24 26  1  0  0  0  0
 26 27  1  0  0  0  0
 26 28  1  0  0  0  0
 26 29  1  0  0  0  0
M  END
$$$$

  -OEChem-04042215593D

 29 29  0     1  0  0  0  0  0999 V2000
   -2.6591   -4.4744    1.4002 H   0  0  0  0  0  0  0  0  0  0  0  0
   -2.8677   -3.4852    0.9831 C   0  0  0  0  0  0  0  0  0  0  0  0
   -3.4418   -2.9097    1.7135 H   0  0  0  0  0  0  0  0  0  0  0  0
   -3.4619   -3.6044    0.0739 H   0  0  0  0  0  0  0  0  0  0  0  0
   -1.5692   -2.7687    0.6634 C   0  0  0  0  0  0  0  0  0  0  0  0
   -0.5013   -3.3270    0.8559 O   0  0  0  0  0  0  0  0  0  0  0  0
   -1.6028   -1.4884    0.1529 N   0  0  0  0  0  0  0  0  0  0  0  0
   -2.5057   -1.0160    0.1557 H   0  0  0  0  0  0  0  0  0  0  0  0
   -0.4245   -0.6212    0.0064 C   0  0  1  0  0  0  0  0  0  0  0  0
    0.3696   -1.0037    0.6559 H   0  0  0  0  0  0  0  0  0  0  0  0
    0.1171   -0.6485   -1.4337 C   0  0  0  0  0  0  0  0  0  0  0  0
    1.1278   -0.2301   -1.4373 H   0  0  0  0  0  0  0  0  0  0  0  0
    0.1929   -1.6852   -1.7743 H   0  0  0  0  0  0  0  0  0  0  0  0
   -0.7120    0.1305   -2.4143 C   0  0  0  0  0  0  0  0  0  0  0  0
   -0.2015    1.1999   -3.1381 N   0  0  0  0  0  0  0  0  0  0  0  0
   -1.1860    1.6461   -3.8808 C   0  0  0  0  0  0  0  0  0  0  0  0
   -1.1155    2.4903   -4.5607 H   0  0  0  0  0  0  0  0  0  0  0  0
   -2.3202    0.8834   -3.6751 N   0  0  0  0  0  0  0  0  0  0  0  0
   -3.2231    1.0417   -4.1181 H   0  0  0  0  0  0  0  0  0  0  0  0
   -2.0203   -0.0892   -2.7455 C   0  0  0  0  0  0  0  0  0  0  0  0
   -2.6697   -0.8594   -2.3436 H   0  0  0  0  0  0  0  0  0  0  0  0
   -0.7356    0.8084    0.5024 C   0  0  0  0  0  0  0  0  0  0  0  0
   -1.8701    1.2601    0.3745 O   0  0  0  0  0  0  0  0  0  0  0  0
    0.1666    1.4792    1.3076 N   0  0  0  0  0  0  0  0  0  0  0  0
    1.0918    1.0731    1.4154 H   0  0  0  0  0  0  0  0  0  0  0  0
   -0.0975    2.7921    1.8827 C   0  0  0  0  0  0  0  0  0  0  0  0
   -0.9887    2.7599    2.5182 H   0  0  0  0  0  0  0  0  0  0  0  0
    0.7506    3.1142    2.4943 H   0  0  0  0  0  0  0  0  0  0  0  0
   -0.2549    3.5317    1.0907 H   0  0  0  0  0  0  0  0  0  0  0  0
  1  2  1  0  0  0  0
  2  3  1  0  0  0  0
  2  4  1  0  0  0  0
  2  5  1  0  0  0  0
  5  6  2  0  0  0  0
  5  7  1  0  0  0  0
  7  8  1  0  0  0  0
  7  9  1  0  0  0  0
  9 10  1  0  0  0  0
  9 11  1  0  0  0  0
  9 22  1  0  0  0  0
 11 12  1  0  0  0  0
 11 13  1  0  0  0  0
 11 14  1  0  0  0  0
 14 15  1  0  0  0  0
 14 20  2  0  0  0  0
 15 16  2  0  0  0  0
 16 17  1  0  0  0  0
 16 18  1  0  0  0  0
 18 19  1  0  0  0  0
 18 20  1  0  0  0  0
 20 21  1  0  0  0  0
 22 23  2  0  0  0  0
 22 24  1  0  0  0  0
 24 25  1  0  0  0  0
 24 26  1  0  0  0  0
 26 27  1  0  0  0  0
 26 28  1  0  0  0  0
 26 29  1  0  0  0  0
M  END
$$$$

  -OEChem-04042215593D

 29 29  0     1  0  0  0  0  0999 V2000
   -2.6129   -4.4993    1.4303 H   0  0  0  0  0  0  0  0  0  0  0  0
   -2.8414   -3.5095    1.0249 C   0  0  0  0  0  0  0  0  0  0  0  0
   -3.4016   -2.9436    1.7732 H   0  0  0  0  0  0  0  0  0  0  0  0
   -3.4578   -3.6286    0.1307 H   0  0  0  0  0  0  0  0  0  0  0  0
   -1.5584   -2.7794    0.6751 C   0  0  0  0  0  0  0  0  0  0  0  0
   -0.4810   -3.3284    0.8388 O   0  0  0  0  0  0  0  0  0  0  0  0
   -1.6173   -1.4952    0.1757 N   0  0  0  0  0  0  0  0  0  0  0  0
   -2.5228   -1.0308    0.2162 H   0  0  0  0  0  0  0  0  0  0  0  0
   -0.4487   -0.6181    0.0085 C   0  0  1  0  0  0  0  0  0  0  0  0
    0.3593   -0.9995    0.6413 H   0  0  0  0  0  0  0  0  0  0  0  0
    0.0742   -0.6357   -1.4400 C   0  0  0  0  0  0  0  0  0  0  0  0
    1.0786   -0.2020   -1.4416 H   0  0  0  0  0  0  0  0  0  0  0  0
    0.1688   -1.6706   -1.7812 H   0  0  0  0  0  0  0  0  0  0  0  0
   -0.7500    0.1300   -2.4395 C   0  0  0  0  0  0  0  0  0  0  0  0
   -0.1617    0.9727   -3.3745 N   0  0  0  0  0  0  0  0  0  0  0  0
   -1.1399    1.5041   -4.0673 C   0  0  0  0  0  0  0  0  0  0  0  0
   -1.0109    2.2161   -4.8775 H   0  0  0  0  0  0  0  0  0  0  0  0
   -2.3540    1.0255   -3.6149 N   0  0  0  0  0  0  0  0  0  0  0  0
   -3.2659    1.3077   -3.9685 H   0  0  0  0  0  0  0  0  0  0  0  0
   -2.1108    0.1504   -2.5782 C   0  0  0  0  0  0  0  0  0  0  0  0
   -2.8324   -0.3927   -1.9786 H   0  0  0  0  0  0  0  0  0  0  0  0
   -0.7527    0.8060    0.5221 C   0  0  0  0  0  0  0  0  0  0  0  0
   -1.8906    1.2559    0.4235 O   0  0  0  0  0  0  0  0  0  0  0  0
    0.1672    1.4739    1.3096 N   0  0  0  0  0  0  0  0  0  0  0  0
    1.0907    1.0610    1.4064 H   0  0  0  0  0  0  0  0  0  0  0  0
   -0.0885    2.7751    1.9143 C   0  0  0  0  0  0  0  0  0  0  0  0
   -0.9481    2.7223    2.5906 H   0  0  0  0  0  0  0  0  0  0  0  0
    0.7830    3.1018    2.4897 H   0  0  0  0  0  0  0  0  0  0  0  0
   -0.2931    3.5228    1.1408 H   0  0  0  0  0  0  0  0  0  0  0  0
  1  2  1  0  0  0  0
  2  3  1  0  0  0  0
  2  4  1  0  0  0  0
  2  5  1  0  0  0  0
  5  6  2  0  0  0  0
  5  7  1  0  0  0  0
  7  8  1  0  0  0  0
  7  9  1  0  0  0  0
  9 10  1  0  0  0  0
  9 11  1  0  0  0  0
  9 22  1  0  0  0  0
 11 12  1  0  0  0  0
 11 13  1  0  0  0  0
 11 14  1  0  0  0  0
 14 15  1  0  0  0  0
 14 20  2  0  0  0  0
 15 16  2  0  0  0  0
 16 17  1  0  0  0  0
 16 18  1  0  0  0  0
 18 19  1  0  0  0  0
 18 20  1  0  0  0  0
 20 21  1  0  0  0  0
 22 23  2  0  0  0  0
 22 24  1  0  0  0  0
 24 25  1  0  0  0  0
 24 26  1  0  0  0  0
 26 27  1  0  0  0  0
 26 28  1  0  0  0  0
 26 29  1  0  0  0  0
M  END
$$$$

  -OEChem-04042215593D

 29 29  0     1  0  0  0  0  0999 V2000
   -2.5860   -4.5119    1.4087 H   0  0  0  0  0  0  0  0  0  0  0  0
   -2.8263   -3.5166    1.0243 C   0  0  0  0  0  0  0  0  0  0  0  0
   -3.3828   -2.9689    1.7888 H   0  0  0  0  0  0  0  0  0  0  0  0
   -3.4517   -3.6246    0.1348 H   0  0  0  0  0  0  0  0  0  0  0  0
   -1.5527   -2.7698    0.6747 C   0  0  0  0  0  0  0  0  0  0  0  0
   -0.4690   -3.3107    0.8231 O   0  0  0  0  0  0  0  0  0  0  0  0
   -1.6275   -1.4770    0.2001 N   0  0  0  0  0  0  0  0  0  0  0  0
   -2.5394   -1.0269    0.2440 H   0  0  0  0  0  0  0  0  0  0  0  0
   -0.4688   -0.5893    0.0193 C   0  0  1  0  0  0  0  0  0  0  0  0
    0.3509   -0.9768    0.6334 H   0  0  0  0  0  0  0  0  0  0  0  0
    0.0328   -0.6071   -1.4378 C   0  0  0  0  0  0  0  0  0  0  0  0
    1.0324   -0.1629   -1.4493 H   0  0  0  0  0  0  0  0  0  0  0  0
    0.1375   -1.6432   -1.7728 H   0  0  0  0  0  0  0  0  0  0  0  0
   -0.7954    0.1410   -2.4494 C   0  0  0  0  0  0  0  0  0  0  0  0
   -0.2091    0.7171   -3.5698 N   0  0  0  0  0  0  0  0  0  0  0  0
   -1.1700    1.3088   -4.2376 C   0  0  0  0  0  0  0  0  0  0  0  0
   -1.0345    1.8575   -5.1652 H   0  0  0  0  0  0  0  0  0  0  0  0
   -2.3741    1.1335   -3.5849 N   0  0  0  0  0  0  0  0  0  0  0  0
   -3.2676    1.5197   -3.8833 H   0  0  0  0  0  0  0  0  0  0  0  0
   -2.1403    0.3942   -2.4457 C   0  0  0  0  0  0  0  0  0  0  0  0
   -2.8560    0.0953   -1.6873 H   0  0  0  0  0  0  0  0  0  0  0  0
   -0.7529    0.8285    0.5607 C   0  0  0  0  0  0  0  0  0  0  0  0
   -1.8908    1.2852    0.5048 O   0  0  0  0  0  0  0  0  0  0  0  0
    0.1923    1.4807    1.3310 N   0  0  0  0  0  0  0  0  0  0  0  0
    1.1067    1.0467    1.4225 H   0  0  0  0  0  0  0  0  0  0  0  0
   -0.0477    2.7609    1.9851 C   0  0  0  0  0  0  0  0  0  0  0  0
   -0.8687    2.6760    2.7047 H   0  0  0  0  0  0  0  0  0  0  0  0
    0.8495    3.0845    2.5215 H   0  0  0  0  0  0  0  0  0  0  0  0
   -0.3033    3.5271    1.2456 H   0  0  0  0  0  0  0  0  0  0  0  0
  1  2  1  0  0  0  0
  2  3  1  0  0  0  0
  2  4  1  0  0  0  0
  2  5  1  0  0  0  0
  5  6  2  0  0  0  0
  5  7  1  0  0  0  0
  7  8  1  0  0  0  0
  7  9  1  0  0  0  0
  9 10  1  0  0  0  0
  9 11  1  0  0  0  0
  9 22  1  0  0  0  0
 11 12  1  0  0  0  0
 11 13  1  0  0  0  0
 11 14  1  0  0  0  0
 14 15  1  0  0  0  0
 14 20  2  0  0  0  0
 15 16  2  0  0  0  0
 16 17  1  0  0  0  0
 16 18  1  0  0  0  0
 18 19  1  0  0  0  0
 18 20  1  0  0  0  0
 20 21  1  0  0  0  0
 22 23  2  0  0  0  0
 22 24  1  0  0  0  0
 24 25  1  0  0  0  0
 24 26  1  0  0  0  0
 26 27  1  0  0  0  0
 26 28  1  0  0  0  0
 26 29  1  0  0  0  0
M  END
$$$$

  -OEChem-04042215593D

 29 29  0     1  0  0  0  0  0999 V2000
   -2.5715   -4.5167    1.3485 H   0  0  0  0  0  0  0  0  0  0  0  0
   -2.8214   -3.5137    0.9911 C   0  0  0  0  0  0  0  0  0  0  0  0
   -3.3885   -2.9948    1.7676 H   0  0  0  0  0  0  0  0  0  0  0  0
   -3.4401   -3.6034    0.0949 H   0  0  0  0  0  0  0  0  0  0  0  0
   -1.5550   -2.7423    0.6701 C   0  0  0  0  0  0  0  0  0  0  0  0
   -0.4659   -3.2747    0.8095 O   0  0  0  0  0  0  0  0  0  0  0  0
   -1.6421   -1.4382    0.2295 N   0  0  0  0  0  0  0  0  0  0  0  0
   -2.5619   -1.0039    0.2594 H   0  0  0  0  0  0  0  0  0  0  0  0
   -0.4923   -0.5410    0.0401 C   0  0  1  0  0  0  0  0  0  0  0  0
    0.3346   -0.9408    0.6364 H   0  0  0  0  0  0  0  0  0  0  0  0
   -0.0026   -0.5585   -1.4215 C   0  0  0  0  0  0  0  0  0  0  0  0
    0.9950   -0.1104   -1.4431 H   0  0  0  0  0  0  0  0  0  0  0  0
    0.1054   -1.5969   -1.7486 H   0  0  0  0  0  0  0  0  0  0  0  0
   -0.8336    0.1735   -2.4437 C   0  0  0  0  0  0  0  0  0  0  0  0
   -0.3096    0.4660   -3.6972 N   0  0  0  0  0  0  0  0  0  0  0  0
   -1.2488    1.0888   -4.3670 C   0  0  0  0  0  0  0  0  0  0  0  0
   -1.1465    1.4570   -5.3838 H   0  0  0  0  0  0  0  0  0  0  0  0
   -2.3826    1.2052   -3.5883 N   0  0  0  0  0  0  0  0  0  0  0  0
   -3.2484    1.6597   -3.8716 H   0  0  0  0  0  0  0  0  0  0  0  0
   -2.1259    0.6198   -2.3676 C   0  0  0  0  0  0  0  0  0  0  0  0
   -2.7985    0.5358   -1.5204 H   0  0  0  0  0  0  0  0  0  0  0  0
   -0.7435    0.8701    0.6157 C   0  0  0  0  0  0  0  0  0  0  0  0
   -1.8761    1.3418    0.6127 O   0  0  0  0  0  0  0  0  0  0  0  0
    0.2350    1.4951    1.3671 N   0  0  0  0  0  0  0  0  0  0  0  0
    1.1427    1.0421    1.4279 H   0  0  0  0  0  0  0  0  0  0  0  0
    0.0270    2.7514    2.0762 C   0  0  0  0  0  0  0  0  0  0  0  0
   -0.7556    2.6394    2.8339 H   0  0  0  0  0  0  0  0  0  0  0  0
    0.9504    3.0592    2.5760 H   0  0  0  0  0  0  0  0  0  0  0  0
   -0.2675    3.5415    1.3776 H   0  0  0  0  0  0  0  0  0  0  0  0
  1  2  1  0  0  0  0
  2  3  1  0  0  0  0
  2  4  1  0  0  0  0
  2  5  1  0  0  0  0
  5  6  2  0  0  0  0
  5  7  1  0  0  0  0
  7  8  1  0  0  0  0
  7  9  1  0  0  0  0
  9 10  1  0  0  0  0
  9 11  1  0  0  0  0
  9 22  1  0  0  0  0
 11 12  1  0  0  0  0
 11 13  1  0  0  0  0
 11 14  1  0  0  0  0
 14 15  1  0  0  0  0
 14 20  2  0  0  0  0
 15 16  2  0  0  0  0
 16 17  1  0  0  0  0
 16 18  1  0  0  0  0
 18 19  1  0  0  0  0
 18 20  1  0  0  0  0
 20 21  1  0  0  0  0
 22 23  2  0  0  0  0
 22 24  1  0  0  0  0
 24 25  1  0  0  0  0
 24 26  1  0  0  0  0
 26 27  1  0  0  0  0
 26 28  1  0  0  0  0
 26 29  1  0  0  0  0
M  END
$$$$

  -OEChem-04042215593D

 29 29  0     1  0  0  0  0  0999 V2000
   -2.5186   -4.5391    1.1409 H   0  0  0  0  0  0  0  0  0  0  0  0
   -2.7895   -3.5195    0.8522 C   0  0  0  0  0  0  0  0  0  0  0  0
   -3.3764   -3.0703    1.6570 H   0  0  0  0  0  0  0  0  0  0  0  0
   -3.3976   -3.5602   -0.0547 H   0  0  0  0  0  0  0  0  0  0  0  0
   -1.5389   -2.6984    0.5997 C   0  0  0  0  0  0  0  0  0  0  0  0
   -0.4388   -3.2141    0.7162 O   0  0  0  0  0  0  0  0  0  0  0  0
   -1.6527   -1.3697    0.2458 N   0  0  0  0  0  0  0  0  0  0  0  0
   -2.5857   -0.9634    0.2643 H   0  0  0  0  0  0  0  0  0  0  0  0
   -0.5258   -0.4390    0.0848 C   0  0  1  0  0  0  0  0  0  0  0  0
    0.2975   -0.8610    0.6706 H   0  0  0  0  0  0  0  0  0  0  0  0
   -0.0053   -0.4359   -1.3707 C   0  0  0  0  0  0  0  0  0  0  0  0
    1.0646   -0.2123   -1.3316 H   0  0  0  0  0  0  0  0  0  0  0  0
   -0.0997   -1.4472   -1.7776 H   0  0  0  0  0  0  0  0  0  0  0  0
   -0.5943    0.5236   -2.3769 C   0  0  0  0  0  0  0  0  0  0  0  0
   -0.1073    0.5094   -3.6793 N   0  0  0  0  0  0  0  0  0  0  0  0
   -0.8085    1.3768   -4.3668 C   0  0  0  0  0  0  0  0  0  0  0  0
   -0.6642    1.5992   -5.4201 H   0  0  0  0  0  0  0  0  0  0  0  0
   -1.7594    1.9555   -3.5528 N   0  0  0  0  0  0  0  0  0  0  0  0
   -2.4444    2.6487   -3.8478 H   0  0  0  0  0  0  0  0  0  0  0  0
   -1.6417    1.4045   -2.2949 C   0  0  0  0  0  0  0  0  0  0  0  0
   -2.2722    1.6130   -1.4386 H   0  0  0  0  0  0  0  0  0  0  0  0
   -0.7654    0.9346    0.7480 C   0  0  0  0  0  0  0  0  0  0  0  0
   -1.9053    1.3771    0.8472 O   0  0  0  0  0  0  0  0  0  0  0  0
    0.2354    1.5201    1.5022 N   0  0  0  0  0  0  0  0  0  0  0  0
    1.1462    1.0687    1.5051 H   0  0  0  0  0  0  0  0  0  0  0  0
    0.0325    2.6973    2.3380 C   0  0  0  0  0  0  0  0  0  0  0  0
   -0.6994    2.4871    3.1249 H   0  0  0  0  0  0  0  0  0  0  0  0
    0.9744    2.9909    2.8114 H   0  0  0  0  0  0  0  0  0  0  0  0
   -0.3277    3.5380    1.7359 H   0  0  0  0  0  0  0  0  0  0  0  0
  1  2  1  0  0  0  0
  2  3  1  0  0  0  0
  2  4  1  0  0  0  0
  2  5  1  0  0  0  0
  5  6  2  0  0  0  0
  5  7  1  0  0  0  0
  7  8  1  0  0  0  0
  7  9  1  0  0  0  0
  9 10  1  0  0  0  0
  9 11  1  0  0  0  0
  9 22  1  0  0  0  0
 11 12  1  0  0  0  0
 11 13  1  0  0  0  0
 11 14  1  0  0  0  0
 14 15  1  0  0  0  0
 14 20  2  0  0  0  0
 15 16  2  0  0  0  0
 16 17  1  0  0  0  0
 16 18  1  0  0  0  0
 18 19  1  0  0  0  0
 18 20  1  0  0  0  0
 20 21  1  0  0  0  0
 22 23  2  0  0  0  0
 22 24  1  0  0  0  0
 24 25  1  0  0  0  0
 24 26  1  0  0  0  0
 26 27  1  0  0  0  0
 26 28  1  0  0  0  0
 26 29  1  0  0  0  0
M  END
$$$$

  -OEChem-04042215593D

 29 29  0     1  0  0  0  0  0999 V2000
   -2.5790   -4.4816    1.2050 H   0  0  0  0  0  0  0  0  0  0  0  0
   -2.8298   -3.4580    0.9128 C   0  0  0  0  0  0  0  0  0  0  0  0
   -3.3991   -2.9911    1.7202 H   0  0  0  0  0  0  0  0  0  0  0  0
   -3.4467   -3.4899    0.0114 H   0  0  0  0  0  0  0  0  0  0  0  0
   -1.5638   -2.6665    0.6447 C   0  0  0  0  0  0  0  0  0  0  0  0
   -0.4743   -3.2068    0.7493 O   0  0  0  0  0  0  0  0  0  0  0  0
   -1.6518   -1.3362    0.2904 N   0  0  0  0  0  0  0  0  0  0  0  0
   -2.5764   -0.9105    0.3036 H   0  0  0  0  0  0  0  0  0  0  0  0
   -0.5079   -0.4355    0.0883 C   0  0  1  0  0  0  0  0  0  0  0  0
    0.3283   -0.8741    0.6428 H   0  0  0  0  0  0  0  0  0  0  0  0
   -0.0547   -0.4579   -1.3910 C   0  0  0  0  0  0  0  0  0  0  0  0
    1.0240   -0.2793   -1.4063 H   0  0  0  0  0  0  0  0  0  0  0  0
   -0.2081   -1.4708   -1.7764 H   0  0  0  0  0  0  0  0  0  0  0  0
   -0.6499    0.5045   -2.3938 C   0  0  0  0  0  0  0  0  0  0  0  0
   -0.4532    0.2421   -3.7455 N   0  0  0  0  0  0  0  0  0  0  0  0
   -1.0768    1.1746   -4.4215 C   0  0  0  0  0  0  0  0  0  0  0  0
   -1.1088    1.2428   -5.5051 H   0  0  0  0  0  0  0  0  0  0  0  0
   -1.6856    2.0508   -3.5485 N   0  0  0  0  0  0  0  0  0  0  0  0
   -2.2428    2.8590   -3.8188 H   0  0  0  0  0  0  0  0  0  0  0  0
   -1.4262    1.6283   -2.2621 C   0  0  0  0  0  0  0  0  0  0  0  0
   -1.7815    2.0978   -1.3529 H   0  0  0  0  0  0  0  0  0  0  0  0
   -0.7047    0.9392    0.7594 C   0  0  0  0  0  0  0  0  0  0  0  0
   -1.8323    1.4087    0.8747 O   0  0  0  0  0  0  0  0  0  0  0  0
    0.3264    1.5087    1.4848 N   0  0  0  0  0  0  0  0  0  0  0  0
    1.2203    1.0246    1.4875 H   0  0  0  0  0  0  0  0  0  0  0  0
    0.1641    2.6863    2.3289 C   0  0  0  0  0  0  0  0  0  0  0  0
   -0.5413    2.4819    3.1412 H   0  0  0  0  0  0  0  0  0  0  0  0
    1.1250    2.9707    2.7684 H   0  0  0  0  0  0  0  0  0  0  0  0
   -0.2092    3.5314    1.7410 H   0  0  0  0  0  0  0  0  0  0  0  0
  1  2  1  0  0  0  0
  2  3  1  0  0  0  0
  2  4  1  0  0  0  0
  2  5  1  0  0  0  0
  5  6  2  0  0  0  0
  5  7  1  0  0  0  0
  7  8  1  0  0  0  0
  7  9  1  0  0  0  0
  9 10  1  0  0  0  0
  9 11  1  0  0  0  0
  9 22  1  0  0  0  0
 11 12  1  0  0  0  0
 11 13  1  0  0  0  0
 11 14  1  0  0  0  0
 14 15  1  0  0  0  0
 14 20  2  0  0  0  0
 15 16  2  0  0  0  0
 16 17  1  0  0  0  0
 16 18  1  0  0  0  0
 18 19  1  0  0  0  0
 18 20  1  0  0  0  0
 20 21  1  0  0  0  0
 22 23  2  0  0  0  0
 22 24  1  0  0  0  0
 24 25  1  0  0  0  0
 24 26  1  0  0  0  0
 26 27  1  0  0  0  0
 26 28  1  0  0  0  0
 26 29  1  0  0  0  0
M  END
$$$$

  -OEChem-04042215593D

 29 29  0     1  0  0  0  0  0999 V2000
   -2.6214   -4.4989    1.1045 H   0  0  0  0  0  0  0  0  0  0  0  0
   -2.8519   -3.4720    0.8072 C   0  0  0  0  0  0  0  0  0  0  0  0
   -3.4734   -3.0126    1.5796 H   0  0  0  0  0  0  0  0  0  0  0  0
   -3.4079   -3.4943   -0.1333 H   0  0  0  0  0  0  0  0  0  0  0  0
   -1.5710   -2.6782    0.6311 C   0  0  0  0  0  0  0  0  0  0  0  0
   -0.4901   -3.2148    0.8157 O   0  0  0  0  0  0  0  0  0  0  0  0
   -1.6356   -1.3496    0.2672 N   0  0  0  0  0  0  0  0  0  0  0  0
   -2.5595   -0.9280    0.1942 H   0  0  0  0  0  0  0  0  0  0  0  0
   -0.4804   -0.4569    0.0980 C   0  0  1  0  0  0  0  0  0  0  0  0
    0.3476   -0.8954    0.6647 H   0  0  0  0  0  0  0  0  0  0  0  0
   -0.0215   -0.4738   -1.3811 C   0  0  0  0  0  0  0  0  0  0  0  0
    1.0596   -0.3119   -1.3981 H   0  0  0  0  0  0  0  0  0  0  0  0
   -0.1905   -1.4805   -1.7765 H   0  0  0  0  0  0  0  0  0  0  0  0
   -0.6105    0.5113   -2.3657 C   0  0  0  0  0  0  0  0  0  0  0  0
   -0.7156    0.1386   -3.7017 N   0  0  0  0  0  0  0  0  0  0  0  0
   -1.2407    1.1493   -4.3490 C   0  0  0  0  0  0  0  0  0  0  0  0
   -1.4538    1.1632   -5.4140 H   0  0  0  0  0  0  0  0  0  0  0  0
   -1.4778    2.1887   -3.4744 N   0  0  0  0  0  0  0  0  0  0  0  0
   -1.8898    3.0858   -3.7236 H   0  0  0  0  0  0  0  0  0  0  0  0
   -1.0744    1.7941   -2.2170 C   0  0  0  0  0  0  0  0  0  0  0  0
   -1.1177    2.3892   -1.3116 H   0  0  0  0  0  0  0  0  0  0  0  0
   -0.7091    0.9160    0.7609 C   0  0  0  0  0  0  0  0  0  0  0  0
   -1.8312    1.4117    0.7797 O   0  0  0  0  0  0  0  0  0  0  0  0
    0.2878    1.4945    1.5258 N   0  0  0  0  0  0  0  0  0  0  0  0
    1.1692    0.9937    1.6023 H   0  0  0  0  0  0  0  0  0  0  0  0
    0.0826    2.6816    2.3473 C   0  0  0  0  0  0  0  0  0  0  0  0
   -0.6617    2.4846    3.1261 H   0  0  0  0  0  0  0  0  0  0  0  0
    1.0202    2.9733    2.8304 H   0  0  0  0  0  0  0  0  0  0  0  0
   -0.2631    3.5191    1.7323 H   0  0  0  0  0  0  0  0  0  0  0  0
  1  2  1  0  0  0  0
  2  3  1  0  0  0  0
  2  4  1  0  0  0  0
  2  5  1  0  0  0  0
  5  6  2  0  0  0  0
  5  7  1  0  0  0  0
  7  8  1  0  0  0  0
  7  9  1  0  0  0  0
  9 10  1  0  0  0  0
  9 11  1  0  0  0  0
  9 22  1  0  0  0  0
 11 12  1  0  0  0  0
 11 13  1  0  0  0  0
 11 14  1  0  0  0  0
 14 15  1  0  0  0  0
 14 20  2  0  0  0  0
 15 16  2  0  0  0  0
 16 17  1  0  0  0  0
 16 18  1  0  0  0  0
 18 19  1  0  0  0  0
 18 20  1  0  0  0  0
 20 21  1  0  0  0  0
 22 23  2  0  0  0  0
 22 24  1  0  0  0  0
 24 25  1  0  0  0  0
 24 26  1  0  0  0  0
 26 27  1  0  0  0  0
 26 28  1  0  0  0  0
 26 29  1  0  0  0  0
M  END
$$$$

  -OEChem-04042215593D

 29 29  0     1  0  0  0  0  0999 V2000
   -2.6362   -4.5000    1.1198 H   0  0  0  0  0  0  0  0  0  0  0  0
   -2.8561   -3.4827    0.7842 C   0  0  0  0  0  0  0  0  0  0  0  0
   -3.5239   -3.0090    1.5078 H   0  0  0  0  0  0  0  0  0  0  0  0
   -3.3565   -3.5319   -0.1860 H   0  0  0  0  0  0  0  0  0  0  0  0
   -1.5723   -2.6839    0.6628 C   0  0  0  0  0  0  0  0  0  0  0  0
   -0.5007   -3.2075    0.9244 O   0  0  0  0  0  0  0  0  0  0  0  0
   -1.6232   -1.3653    0.2628 N   0  0  0  0  0  0  0  0  0  0  0  0
   -2.5415   -0.9587    0.0945 H   0  0  0  0  0  0  0  0  0  0  0  0
   -0.4605   -0.4817    0.1026 C   0  0  1  0  0  0  0  0  0  0  0  0
    0.3624   -0.9099    0.6840 H   0  0  0  0  0  0  0  0  0  0  0  0
   -0.0029   -0.5151   -1.3760 C   0  0  0  0  0  0  0  0  0  0  0  0
    1.0780   -0.3530   -1.3977 H   0  0  0  0  0  0  0  0  0  0  0  0
   -0.1750   -1.5196   -1.7754 H   0  0  0  0  0  0  0  0  0  0  0  0
   -0.6079    0.4854   -2.3312 C   0  0  0  0  0  0  0  0  0  0  0  0
   -1.0479    0.0838   -3.5875 N   0  0  0  0  0  0  0  0  0  0  0  0
   -1.4665    1.1589   -4.2096 C   0  0  0  0  0  0  0  0  0  0  0  0
   -1.8806    1.1749   -5.2138 H   0  0  0  0  0  0  0  0  0  0  0  0
   -1.2945    2.2642   -3.4017 N   0  0  0  0  0  0  0  0  0  0  0  0
   -1.5470    3.2193   -3.6481 H   0  0  0  0  0  0  0  0  0  0  0  0
   -0.7319    1.8456   -2.2155 C   0  0  0  0  0  0  0  0  0  0  0  0
   -0.4485    2.4641   -1.3695 H   0  0  0  0  0  0  0  0  0  0  0  0
   -0.7072    0.9075    0.7252 C   0  0  0  0  0  0  0  0  0  0  0  0
   -1.8116    1.4351    0.6512 O   0  0  0  0  0  0  0  0  0  0  0  0
    0.2688    1.5021    1.5044 N   0  0  0  0  0  0  0  0  0  0  0  0
    1.1284    0.9805    1.6540 H   0  0  0  0  0  0  0  0  0  0  0  0
    0.0545    2.7317    2.2581 C   0  0  0  0  0  0  0  0  0  0  0  0
   -0.7503    2.5983    2.9888 H   0  0  0  0  0  0  0  0  0  0  0  0
    0.9669    3.0089    2.7949 H   0  0  0  0  0  0  0  0  0  0  0  0
   -0.2123    3.5532    1.5850 H   0  0  0  0  0  0  0  0  0  0  0  0
  1  2  1  0  0  0  0
  2  3  1  0  0  0  0
  2  4  1  0  0  0  0
  2  5  1  0  0  0  0
  5  6  2  0  0  0  0
  5  7  1  0  0  0  0
  7  8  1  0  0  0  0
  7  9  1  0  0  0  0
  9 10  1  0  0  0  0
  9 11  1  0  0  0  0
  9 22  1  0  0  0  0
 11 12  1  0  0  0  0
 11 13  1  0  0  0  0
 11 14  1  0  0  0  0
 14 15  1  0  0  0  0
 14 20  2  0  0  0  0
 15 16  2  0  0  0  0
 16 17  1  0  0  0  0
 16 18  1  0  0  0  0
 18 19  1  0  0  0  0
 18 20  1  0  0  0  0
 20 21  1  0  0  0  0
 22 23  2  0  0  0  0
 22 24  1  0  0  0  0
 24 25  1  0  0  0  0
 24 26  1  0  0  0  0
 26 27  1  0  0  0  0
 26 28  1  0  0  0  0
 26 29  1  0  0  0  0
M  END
$$$$

  -OEChem-04042215593D

 29 29  0     1  0  0  0  0  0999 V2000
   -2.6590   -4.4938    1.1312 H   0  0  0  0  0  0  0  0  0  0  0  0
   -2.8665   -3.4835    0.7677 C   0  0  0  0  0  0  0  0  0  0  0  0
   -3.5635   -2.9978    1.4550 H   0  0  0  0  0  0  0  0  0  0  0  0
   -3.3273   -3.5522   -0.2208 H   0  0  0  0  0  0  0  0  0  0  0  0
   -1.5798   -2.6846    0.6826 C   0  0  0  0  0  0  0  0  0  0  0  0
   -0.5190   -3.2001    0.9992 O   0  0  0  0  0  0  0  0  0  0  0  0
   -1.6146   -1.3762    0.2495 N   0  0  0  0  0  0  0  0  0  0  0  0
   -2.5229   -0.9809    0.0137 H   0  0  0  0  0  0  0  0  0  0  0  0
   -0.4456   -0.5001    0.1001 C   0  0  1  0  0  0  0  0  0  0  0  0
    0.3683   -0.9189    0.7005 H   0  0  0  0  0  0  0  0  0  0  0  0
    0.0249   -0.5476   -1.3714 C   0  0  0  0  0  0  0  0  0  0  0  0
    1.1044   -0.3754   -1.3845 H   0  0  0  0  0  0  0  0  0  0  0  0
   -0.1403   -1.5497   -1.7799 H   0  0  0  0  0  0  0  0  0  0  0  0
   -0.5928    0.4675   -2.2963 C   0  0  0  0  0  0  0  0  0  0  0  0
   -1.3301    0.0968   -3.4142 N   0  0  0  0  0  0  0  0  0  0  0  0
   -1.6523    1.2052   -4.0366 C   0  0  0  0  0  0  0  0  0  0  0  0
   -2.2440    1.2570   -4.9461 H   0  0  0  0  0  0  0  0  0  0  0  0
   -1.1208    2.2921   -3.3705 N   0  0  0  0  0  0  0  0  0  0  0  0
   -1.2370    3.2655   -3.6453 H   0  0  0  0  0  0  0  0  0  0  0  0
   -0.4268    1.8266   -2.2748 C   0  0  0  0  0  0  0  0  0  0  0  0
    0.1286    2.4047   -1.5427 H   0  0  0  0  0  0  0  0  0  0  0  0
   -0.7025    0.9063    0.6813 C   0  0  0  0  0  0  0  0  0  0  0  0
   -1.7953    1.4464    0.5507 O   0  0  0  0  0  0  0  0  0  0  0  0
    0.2566    1.5142    1.4715 N   0  0  0  0  0  0  0  0  0  0  0  0
    1.1009    0.9848    1.6718 H   0  0  0  0  0  0  0  0  0  0  0  0
    0.0331    2.7709    2.1756 C   0  0  0  0  0  0  0  0  0  0  0  0
   -0.7856    2.6667    2.8954 H   0  0  0  0  0  0  0  0  0  0  0  0
    0.9365    3.0656    2.7180 H   0  0  0  0  0  0  0  0  0  0  0  0
   -0.2191    3.5673    1.4676 H   0  0  0  0  0  0  0  0  0  0  0  0
  1  2  1  0  0  0  0
  2  3  1  0  0  0  0
  2  4  1  0  0  0  0
  2  5  1  0  0  0  0
  5  6  2  0  0  0  0
  5  7  1  0  0  0  0
  7  8  1  0  0  0  0
  7  9  1  0  0  0  0
  9 10  1  0  0  0  0
  9 11  1  0  0  0  0
  9 22  1  0  0  0  0
 11 12  1  0  0  0  0
 11 13  1  0  0  0  0
 11 14  1  0  0  0  0
 14 15  1  0  0  0  0
 14 20  2  0  0  0  0
 15 16  2  0  0  0  0
 16 17  1  0  0  0  0
 16 18  1  0  0  0  0
 18 19  1  0  0  0  0
 18 20  1  0  0  0  0
 20 21  1  0  0  0  0
 22 23  2  0  0  0  0
 22 24  1  0  0  0  0
 24 25  1  0  0  0  0
 24 26  1  0  0  0  0
 26 27  1  0  0  0  0
 26 28  1  0  0  0  0
 26 29  1  0  0  0  0
M  END
$$$$

  -OEChem-04042215593D

 29 29  0     1  0  0  0  0  0999 V2000
   -2.6861   -4.4807    1.1093 H   0  0  0  0  0  0  0  0  0  0  0  0
   -2.8791   -3.4732    0.7304 C   0  0  0  0  0  0  0  0  0  0  0  0
   -3.6048   -2.9836    1.3841 H   0  0  0  0  0  0  0  0  0  0  0  0
   -3.2983   -3.5497   -0.2758 H   0  0  0  0  0  0  0  0  0  0  0  0
   -1.5909   -2.6726    0.6937 C   0  0  0  0  0  0  0  0  0  0  0  0
   -0.5459   -3.1816    1.0684 O   0  0  0  0  0  0  0  0  0  0  0  0
   -1.6058   -1.3728    0.2348 N   0  0  0  0  0  0  0  0  0  0  0  0
   -2.4979   -0.9922   -0.0761 H   0  0  0  0  0  0  0  0  0  0  0  0
   -0.4288   -0.5053    0.0995 C   0  0  1  0  0  0  0  0  0  0  0  0
    0.3713   -0.9204    0.7206 H   0  0  0  0  0  0  0  0  0  0  0  0
    0.0636   -0.5723   -1.3622 C   0  0  0  0  0  0  0  0  0  0  0  0
    1.1434   -0.4010   -1.3634 H   0  0  0  0  0  0  0  0  0  0  0  0
   -0.1017   -1.5726   -1.7744 H   0  0  0  0  0  0  0  0  0  0  0  0
   -0.5558    0.4506   -2.2719 C   0  0  0  0  0  0  0  0  0  0  0  0
   -1.5356    0.1326   -3.2033 N   0  0  0  0  0  0  0  0  0  0  0  0
   -1.8070    1.2424   -3.8468 C   0  0  0  0  0  0  0  0  0  0  0  0
   -2.5486    1.3354   -4.6348 H   0  0  0  0  0  0  0  0  0  0  0  0
   -1.0068    2.2690   -3.3819 N   0  0  0  0  0  0  0  0  0  0  0  0
   -1.0381    3.2327   -3.7086 H   0  0  0  0  0  0  0  0  0  0  0  0
   -0.1933    1.7646   -2.3902 C   0  0  0  0  0  0  0  0  0  0  0  0
    0.5609    2.2871   -1.8098 H   0  0  0  0  0  0  0  0  0  0  0  0
   -0.6839    0.9178    0.6443 C   0  0  0  0  0  0  0  0  0  0  0  0
   -1.7633    1.4722    0.4707 O   0  0  0  0  0  0  0  0  0  0  0  0
    0.2638    1.5310    1.4448 N   0  0  0  0  0  0  0  0  0  0  0  0
    1.0919    0.9921    1.6837 H   0  0  0  0  0  0  0  0  0  0  0  0
    0.0362    2.8030    2.1202 C   0  0  0  0  0  0  0  0  0  0  0  0
   -0.8007    2.7203    2.8215 H   0  0  0  0  0  0  0  0  0  0  0  0
    0.9287    3.0993    2.6796 H   0  0  0  0  0  0  0  0  0  0  0  0
   -0.1905    3.5887    1.3919 H   0  0  0  0  0  0  0  0  0  0  0  0
  1  2  1  0  0  0  0
  2  3  1  0  0  0  0
  2  4  1  0  0  0  0
  2  5  1  0  0  0  0
  5  6  2  0  0  0  0
  5  7  1  0  0  0  0
  7  8  1  0  0  0  0
  7  9  1  0  0  0  0
  9 10  1  0  0  0  0
  9 11  1  0  0  0  0
  9 22  1  0  0  0  0
 11 12  1  0  0  0  0
 11 13  1  0  0  0  0
 11 14  1  0  0  0  0
 14 15  1  0  0  0  0
 14 20  2  0  0  0  0
 15 16  2  0  0  0  0
 16 17  1  0  0  0  0
 16 18  1  0  0  0  0
 18 19  1  0  0  0  0
 18 20  1  0  0  0  0
 20 21  1  0  0  0  0
 22 23  2  0  0  0  0
 22 24  1  0  0  0  0
 24 25  1  0  0  0  0
 24 26  1  0  0  0  0
 26 27  1  0  0  0  0
 26 28  1  0  0  0  0
 26 29  1  0  0  0  0
M  END
$$$$

  -OEChem-04042215593D

 29 29  0     1  0  0  0  0  0999 V2000
   -2.7132   -4.4654    1.0847 H   0  0  0  0  0  0  0  0  0  0  0  0
   -2.8904   -3.4596    0.6936 C   0  0  0  0  0  0  0  0  0  0  0  0
   -3.6361   -2.9634    1.3193 H   0  0  0  0  0  0  0  0  0  0  0  0
   -3.2759   -3.5406   -0.3257 H   0  0  0  0  0  0  0  0  0  0  0  0
   -1.6001   -2.6621    0.6959 C   0  0  0  0  0  0  0  0  0  0  0  0
   -0.5689   -3.1689    1.1102 O   0  0  0  0  0  0  0  0  0  0  0  0
   -1.5982   -1.3684    0.2213 N   0  0  0  0  0  0  0  0  0  0  0  0
   -2.4741   -0.9987   -0.1449 H   0  0  0  0  0  0  0  0  0  0  0  0
   -0.4170   -0.5061    0.0995 C   0  0  1  0  0  0  0  0  0  0  0  0
    0.3695   -0.9179    0.7397 H   0  0  0  0  0  0  0  0  0  0  0  0
    0.0981   -0.5915   -1.3518 C   0  0  0  0  0  0  0  0  0  0  0  0
    1.1786   -0.4240   -1.3403 H   0  0  0  0  0  0  0  0  0  0  0  0
   -0.0690   -1.5922   -1.7618 H   0  0  0  0  0  0  0  0  0  0  0  0
   -0.5193    0.4325   -2.2586 C   0  0  0  0  0  0  0  0  0  0  0  0
   -1.6871    0.1988   -2.9725 N   0  0  0  0  0  0  0  0  0  0  0  0
   -1.9213    1.2924   -3.6575 C   0  0  0  0  0  0  0  0  0  0  0  0
   -2.7758    1.4424   -4.3111 H   0  0  0  0  0  0  0  0  0  0  0  0
   -0.9196    2.2186   -3.4333 N   0  0  0  0  0  0  0  0  0  0  0  0
   -0.8829    3.1526   -3.8367 H   0  0  0  0  0  0  0  0  0  0  0  0
   -0.0147    1.6695   -2.5501 C   0  0  0  0  0  0  0  0  0  0  0  0
    0.8910    2.1150   -2.1508 H   0  0  0  0  0  0  0  0  0  0  0  0
   -0.6694    0.9282    0.6190 C   0  0  0  0  0  0  0  0  0  0  0  0
   -1.7409    1.4911    0.4245 O   0  0  0  0  0  0  0  0  0  0  0  0
    0.2706    1.5425    1.4279 N   0  0  0  0  0  0  0  0  0  0  0  0
    1.0881    0.9982    1.6888 H   0  0  0  0  0  0  0  0  0  0  0  0
    0.0459    2.8273    2.0793 C   0  0  0  0  0  0  0  0  0  0  0  0
   -0.7790    2.7537    2.7956 H   0  0  0  0  0  0  0  0  0  0  0  0
    0.9458    3.1413    2.6169 H   0  0  0  0  0  0  0  0  0  0  0  0
   -0.1984    3.5958    1.3384 H   0  0  0  0  0  0  0  0  0  0  0  0
  1  2  1  0  0  0  0
  2  3  1  0  0  0  0
  2  4  1  0  0  0  0
  2  5  1  0  0  0  0
  5  6  2  0  0  0  0
  5  7  1  0  0  0  0
  7  8  1  0  0  0  0
  7  9  1  0  0  0  0
  9 10  1  0  0  0  0
  9 11  1  0  0  0  0
  9 22  1  0  0  0  0
 11 12  1  0  0  0  0
 11 13  1  0  0  0  0
 11 14  1  0  0  0  0
 14 15  1  0  0  0  0
 14 20  2  0  0  0  0
 15 16  2  0  0  0  0
 16 17  1  0  0  0  0
 16 18  1  0  0  0  0
 18 19  1  0  0  0  0
 18 20  1  0  0  0  0
 20 21  1  0  0  0  0
 22 23  2  0  0  0  0
 22 24  1  0  0  0  0
 24 25  1  0  0  0  0
 24 26  1  0  0  0  0
 26 27  1  0  0  0  0
 26 28  1  0  0  0  0
 26 29  1  0  0  0  0
M  END
$$$$

  -OEChem-04042215593D

 29 29  0     1  0  0  0  0  0999 V2000
   -2.7285   -4.4549    1.0811 H   0  0  0  0  0  0  0  0  0  0  0  0
   -2.8988   -3.4515    0.6811 C   0  0  0  0  0  0  0  0  0  0  0  0
   -3.6498   -2.9487    1.2951 H   0  0  0  0  0  0  0  0  0  0  0  0
   -3.2738   -3.5384   -0.3417 H   0  0  0  0  0  0  0  0  0  0  0  0
   -1.6068   -2.6568    0.6921 C   0  0  0  0  0  0  0  0  0  0  0  0
   -0.5806   -3.1637    1.1190 O   0  0  0  0  0  0  0  0  0  0  0  0
   -1.5974   -1.3665    0.2092 N   0  0  0  0  0  0  0  0  0  0  0  0
   -2.4656   -1.0011   -0.1803 H   0  0  0  0  0  0  0  0  0  0  0  0
   -0.4163   -0.5040    0.0933 C   0  0  1  0  0  0  0  0  0  0  0  0
    0.3597   -0.9122    0.7483 H   0  0  0  0  0  0  0  0  0  0  0  0
    0.1241   -0.6029   -1.3475 C   0  0  0  0  0  0  0  0  0  0  0  0
    1.2043   -0.4361   -1.3229 H   0  0  0  0  0  0  0  0  0  0  0  0
   -0.0407   -1.6066   -1.7507 H   0  0  0  0  0  0  0  0  0  0  0  0
   -0.4871    0.4127   -2.2669 C   0  0  0  0  0  0  0  0  0  0  0  0
   -1.7816    0.2988   -2.7568 N   0  0  0  0  0  0  0  0  0  0  0  0
   -1.9874    1.3642   -3.4929 C   0  0  0  0  0  0  0  0  0  0  0  0
   -2.9156    1.5892   -4.0104 H   0  0  0  0  0  0  0  0  0  0  0  0
   -0.8509    2.1518   -3.5195 N   0  0  0  0  0  0  0  0  0  0  0  0
   -0.7659    3.0418   -4.0065 H   0  0  0  0  0  0  0  0  0  0  0  0
    0.1129    1.5452   -2.7421 C   0  0  0  0  0  0  0  0  0  0  0  0
    1.1197    1.8896   -2.5272 H   0  0  0  0  0  0  0  0  0  0  0  0
   -0.6648    0.9374    0.5977 C   0  0  0  0  0  0  0  0  0  0  0  0
   -1.7348    1.5033    0.4057 O   0  0  0  0  0  0  0  0  0  0  0  0
    0.2747    1.5507    1.4084 N   0  0  0  0  0  0  0  0  0  0  0  0
    1.0911    1.0057    1.6702 H   0  0  0  0  0  0  0  0  0  0  0  0
    0.0553    2.8399    2.0532 C   0  0  0  0  0  0  0  0  0  0  0  0
   -0.7726    2.7750    2.7668 H   0  0  0  0  0  0  0  0  0  0  0  0
    0.9551    3.1507    2.5928 H   0  0  0  0  0  0  0  0  0  0  0  0
   -0.1811    3.6064    1.3077 H   0  0  0  0  0  0  0  0  0  0  0  0
  1  2  1  0  0  0  0
  2  3  1  0  0  0  0
  2  4  1  0  0  0  0
  2  5  1  0  0  0  0
  5  6  2  0  0  0  0
  5  7  1  0  0  0  0
  7  8  1  0  0  0  0
  7  9  1  0  0  0  0
  9 10  1  0  0  0  0
  9 11  1  0  0  0  0
  9 22  1  0  0  0  0
 11 12  1  0  0  0  0
 11 13  1  0  0  0  0
 11 14  1  0  0  0  0
 14 15  1  0  0  0  0
 14 20  2  0  0  0  0
 15 16  2  0  0  0  0
 16 17  1  0  0  0  0
 16 18  1  0  0  0  0
 18 19  1  0  0  0  0
 18 20  1  0  0  0  0
 20 21  1  0  0  0  0
 22 23  2  0  0  0  0
 22 24  1  0  0  0  0
 24 25  1  0  0  0  0
 24 26  1  0  0  0  0
 26 27  1  0  0  0  0
 26 28  1  0  0  0  0
 26 29  1  0  0  0  0
M  END
$$$$

  -OEChem-04042215593D

 29 29  0     1  0  0  0  0  0999 V2000
   -2.7197   -4.4537    1.0972 H   0  0  0  0  0  0  0  0  0  0  0  0
   -2.8982   -3.4507    0.6999 C   0  0  0  0  0  0  0  0  0  0  0  0
   -3.6373   -2.9484    1.3286 H   0  0  0  0  0  0  0  0  0  0  0  0
   -3.2934   -3.5385   -0.3150 H   0  0  0  0  0  0  0  0  0  0  0  0
   -1.6062   -2.6557    0.6845 C   0  0  0  0  0  0  0  0  0  0  0  0
   -0.5715   -3.1633    1.0898 O   0  0  0  0  0  0  0  0  0  0  0  0
   -1.6063   -1.3647    0.2034 N   0  0  0  0  0  0  0  0  0  0  0  0
   -2.4818   -0.9955   -0.1661 H   0  0  0  0  0  0  0  0  0  0  0  0
   -0.4319   -0.4943    0.0819 C   0  0  1  0  0  0  0  0  0  0  0  0
    0.3410   -0.8977    0.7435 H   0  0  0  0  0  0  0  0  0  0  0  0
    0.1299   -0.5984   -1.3506 C   0  0  0  0  0  0  0  0  0  0  0  0
    1.2096   -0.4292   -1.3140 H   0  0  0  0  0  0  0  0  0  0  0  0
   -0.0286   -1.6073   -1.7428 H   0  0  0  0  0  0  0  0  0  0  0  0
   -0.4743    0.3988   -2.2955 C   0  0  0  0  0  0  0  0  0  0  0  0
   -1.8328    0.4482   -2.5792 N   0  0  0  0  0  0  0  0  0  0  0  0
   -2.0034    1.4676   -3.3853 C   0  0  0  0  0  0  0  0  0  0  0  0
   -2.9613    1.7880   -3.7845 H   0  0  0  0  0  0  0  0  0  0  0  0
   -0.7867    2.0664   -3.6566 N   0  0  0  0  0  0  0  0  0  0  0  0
   -0.6561    2.8870   -4.2448 H   0  0  0  0  0  0  0  0  0  0  0  0
    0.1931    1.3875   -2.9629 C   0  0  0  0  0  0  0  0  0  0  0  0
    1.2580    1.5950   -2.9261 H   0  0  0  0  0  0  0  0  0  0  0  0
   -0.6762    0.9482    0.5871 C   0  0  0  0  0  0  0  0  0  0  0  0
   -1.7580    1.5048    0.4397 O   0  0  0  0  0  0  0  0  0  0  0  0
    0.2741    1.5568    1.3894 N   0  0  0  0  0  0  0  0  0  0  0  0
    1.1005    1.0150    1.6247 H   0  0  0  0  0  0  0  0  0  0  0  0
    0.0582    2.8336    2.0599 C   0  0  0  0  0  0  0  0  0  0  0  0
   -0.7535    2.7504    2.7901 H   0  0  0  0  0  0  0  0  0  0  0  0
    0.9671    3.1428    2.5847 H   0  0  0  0  0  0  0  0  0  0  0  0
   -0.2003    3.6102    1.3324 H   0  0  0  0  0  0  0  0  0  0  0  0
  1  2  1  0  0  0  0
  2  3  1  0  0  0  0
  2  4  1  0  0  0  0
  2  5  1  0  0  0  0
  5  6  2  0  0  0  0
  5  7  1  0  0  0  0
  7  8  1  0  0  0  0
  7  9  1  0  0  0  0
  9 10  1  0  0  0  0
  9 11  1  0  0  0  0
  9 22  1  0  0  0  0
 11 12  1  0  0  0  0
 11 13  1  0  0  0  0
 11 14  1  0  0  0  0
 14 15  1  0  0  0  0
 14 20  2  0  0  0  0
 15 16  2  0  0  0  0
 16 17  1  0  0  0  0
 16 18  1  0  0  0  0
 18 19  1  0  0  0  0
 18 20  1  0  0  0  0
 20 21  1  0  0  0  0
 22 23  2  0  0  0  0
 22 24  1  0  0  0  0
 24 25  1  0  0  0  0
 24 26  1  0  0  0  0
 26 27  1  0  0  0  0
 26 28  1  0  0  0  0
 26 29  1  0  0  0  0
M  END
$$$$

  -OEChem-04042215593D

 29 29  0     1  0  0  0  0  0999 V2000
   -2.6911   -4.4546    1.1322 H   0  0  0  0  0  0  0  0  0  0  0  0
   -2.8880   -3.4494    0.7497 C   0  0  0  0  0  0  0  0  0  0  0  0
   -3.5900   -2.9478    1.4200 H   0  0  0  0  0  0  0  0  0  0  0  0
   -3.3376   -3.5313   -0.2428 H   0  0  0  0  0  0  0  0  0  0  0  0
   -1.5964   -2.6581    0.6681 C   0  0  0  0  0  0  0  0  0  0  0  0
   -0.5415   -3.1752    1.0031 O   0  0  0  0  0  0  0  0  0  0  0  0
   -1.6193   -1.3617    0.2023 N   0  0  0  0  0  0  0  0  0  0  0  0
   -2.5176   -0.9722   -0.0816 H   0  0  0  0  0  0  0  0  0  0  0  0
   -0.4567   -0.4779    0.0644 C   0  0  1  0  0  0  0  0  0  0  0  0
    0.3206   -0.8790    0.7221 H   0  0  0  0  0  0  0  0  0  0  0  0
    0.1165   -0.5771   -1.3648 C   0  0  0  0  0  0  0  0  0  0  0  0
    1.1950   -0.4024   -1.3213 H   0  0  0  0  0  0  0  0  0  0  0  0
   -0.0325   -1.5916   -1.7458 H   0  0  0  0  0  0  0  0  0  0  0  0
   -0.4820    0.3968   -2.3395 C   0  0  0  0  0  0  0  0  0  0  0  0
   -1.8419    0.6511   -2.4529 N   0  0  0  0  0  0  0  0  0  0  0  0
   -1.9727    1.5988   -3.3482 C   0  0  0  0  0  0  0  0  0  0  0  0
   -2.9195    2.0310   -3.6597 H   0  0  0  0  0  0  0  0  0  0  0  0
   -0.7305    1.9591   -3.8368 N   0  0  0  0  0  0  0  0  0  0  0  0
   -0.5621    2.6819   -4.5338 H   0  0  0  0  0  0  0  0  0  0  0  0
    0.2234    1.1987   -3.1931 C   0  0  0  0  0  0  0  0  0  0  0  0
    1.3020    1.2321   -3.3119 H   0  0  0  0  0  0  0  0  0  0  0  0
   -0.7003    0.9573    0.5904 C   0  0  0  0  0  0  0  0  0  0  0  0
   -1.8071    1.4808    0.5344 O   0  0  0  0  0  0  0  0  0  0  0  0
    0.2673    1.5610    1.3760 N   0  0  0  0  0  0  0  0  0  0  0  0
    1.1186    1.0358    1.5517 H   0  0  0  0  0  0  0  0  0  0  0  0
    0.0491    2.8059    2.1026 C   0  0  0  0  0  0  0  0  0  0  0  0
   -0.7255    2.6733    2.8652 H   0  0  0  0  0  0  0  0  0  0  0  0
    0.9728    3.1213    2.5970 H   0  0  0  0  0  0  0  0  0  0  0  0
   -0.2628    3.6007    1.4169 H   0  0  0  0  0  0  0  0  0  0  0  0
  1  2  1  0  0  0  0
  2  3  1  0  0  0  0
  2  4  1  0  0  0  0
  2  5  1  0  0  0  0
  5  6  2  0  0  0  0
  5  7  1  0  0  0  0
  7  8  1  0  0  0  0
  7  9  1  0  0  0  0
  9 10  1  0  0  0  0
  9 11  1  0  0  0  0
  9 22  1  0  0  0  0
 11 12  1  0  0  0  0
 11 13  1  0  0  0  0
 11 14  1  0  0  0  0
 14 15  1  0  0  0  0
 14 20  2  0  0  0  0
 15 16  2  0  0  0  0
 16 17  1  0  0  0  0
 16 18  1  0  0  0  0
 18 19  1  0  0  0  0
 18 20  1  0  0  0  0
 20 21  1  0  0  0  0
 22 23  2  0  0  0  0
 22 24  1  0  0  0  0
 24 25  1  0  0  0  0
 24 26  1  0  0  0  0
 26 27  1  0  0  0  0
 26 28  1  0  0  0  0
 26 29  1  0  0  0  0
M  END
$$$$

  -OEChem-04042215593D

 29 29  0     1  0  0  0  0  0999 V2000
   -2.6555   -4.4548    1.1705 H   0  0  0  0  0  0  0  0  0  0  0  0
   -2.8713   -3.4455    0.8097 C   0  0  0  0  0  0  0  0  0  0  0  0
   -3.5213   -2.9444    1.5311 H   0  0  0  0  0  0  0  0  0  0  0  0
   -3.3896   -3.5165   -0.1496 H   0  0  0  0  0  0  0  0  0  0  0  0
   -1.5829   -2.6623    0.6435 C   0  0  0  0  0  0  0  0  0  0  0  0
   -0.5097   -3.1921    0.8889 O   0  0  0  0  0  0  0  0  0  0  0  0
   -1.6300   -1.3585    0.2009 N   0  0  0  0  0  0  0  0  0  0  0  0
   -2.5464   -0.9450    0.0329 H   0  0  0  0  0  0  0  0  0  0  0  0
   -0.4782   -0.4630    0.0454 C   0  0  1  0  0  0  0  0  0  0  0  0
    0.3093   -0.8651    0.6906 H   0  0  0  0  0  0  0  0  0  0  0  0
    0.0918   -0.5464   -1.3869 C   0  0  0  0  0  0  0  0  0  0  0  0
    1.1689   -0.3642   -1.3414 H   0  0  0  0  0  0  0  0  0  0  0  0
   -0.0484   -1.5641   -1.7630 H   0  0  0  0  0  0  0  0  0  0  0  0
   -0.5017    0.4128   -2.3822 C   0  0  0  0  0  0  0  0  0  0  0  0
   -1.7998    0.9011   -2.3584 N   0  0  0  0  0  0  0  0  0  0  0  0
   -1.9054    1.7548   -3.3460 C   0  0  0  0  0  0  0  0  0  0  0  0
   -2.8046    2.3134   -3.5894 H   0  0  0  0  0  0  0  0  0  0  0  0
   -0.7054    1.8328   -4.0266 N   0  0  0  0  0  0  0  0  0  0  0  0
   -0.5243    2.4308   -4.8304 H   0  0  0  0  0  0  0  0  0  0  0  0
    0.1929    0.9854   -3.4123 C   0  0  0  0  0  0  0  0  0  0  0  0
    1.2330    0.8100   -3.6697 H   0  0  0  0  0  0  0  0  0  0  0  0
   -0.7262    0.9590    0.6051 C   0  0  0  0  0  0  0  0  0  0  0  0
   -1.8569    1.4311    0.6548 O   0  0  0  0  0  0  0  0  0  0  0  0
    0.2558    1.5601    1.3754 N   0  0  0  0  0  0  0  0  0  0  0  0
    1.1403    1.0704    1.4708 H   0  0  0  0  0  0  0  0  0  0  0  0
    0.0323    2.7664    2.1634 C   0  0  0  0  0  0  0  0  0  0  0  0
   -0.7124    2.5809    2.9446 H   0  0  0  0  0  0  0  0  0  0  0  0
    0.9640    3.0843    2.6408 H   0  0  0  0  0  0  0  0  0  0  0  0
   -0.3229    3.5815    1.5240 H   0  0  0  0  0  0  0  0  0  0  0  0
  1  2  1  0  0  0  0
  2  3  1  0  0  0  0
  2  4  1  0  0  0  0
  2  5  1  0  0  0  0
  5  6  2  0  0  0  0
  5  7  1  0  0  0  0
  7  8  1  0  0  0  0
  7  9  1  0  0  0  0
  9 10  1  0  0  0  0
  9 11  1  0  0  0  0
  9 22  1  0  0  0  0
 11 12  1  0  0  0  0
 11 13  1  0  0  0  0
 11 14  1  0  0  0  0
 14 15  1  0  0  0  0
 14 20  2  0  0  0  0
 15 16  2  0  0  0  0
 16 17  1  0  0  0  0
 16 18  1  0  0  0  0
 18 19  1  0  0  0  0
 18 20  1  0  0  0  0
 20 21  1  0  0  0  0
 22 23  2  0  0  0  0
 22 24  1  0  0  0  0
 24 25  1  0  0  0  0
 24 26  1  0  0  0  0
 26 27  1  0  0  0  0
 26 28  1  0  0  0  0
 26 29  1  0  0  0  0
M  END
$$$$

  -OEChem-04042215593D

 29 29  0     1  0  0  0  0  0999 V2000
   -2.6242   -4.4487    1.1831 H   0  0  0  0  0  0  0  0  0  0  0  0
   -2.8548   -3.4338    0.8475 C   0  0  0  0  0  0  0  0  0  0  0  0
   -3.4540   -2.9366    1.6140 H   0  0  0  0  0  0  0  0  0  0  0  0
   -3.4333   -3.4908   -0.0776 H   0  0  0  0  0  0  0  0  0  0  0  0
   -1.5733   -2.6580    0.6081 C   0  0  0  0  0  0  0  0  0  0  0  0
   -0.4912   -3.2011    0.7707 O   0  0  0  0  0  0  0  0  0  0  0  0
   -1.6371   -1.3454    0.1939 N   0  0  0  0  0  0  0  0  0  0  0  0
   -2.5577   -0.9124    0.1313 H   0  0  0  0  0  0  0  0  0  0  0  0
   -0.4896   -0.4440    0.0346 C   0  0  1  0  0  0  0  0  0  0  0  0
    0.3065   -0.8534    0.6645 H   0  0  0  0  0  0  0  0  0  0  0  0
    0.0692   -0.5076   -1.4048 C   0  0  0  0  0  0  0  0  0  0  0  0
    1.1450   -0.3170   -1.3587 H   0  0  0  0  0  0  0  0  0  0  0  0
   -0.0606   -1.5250   -1.7855 H   0  0  0  0  0  0  0  0  0  0  0  0
   -0.5154    0.4497   -2.4087 C   0  0  0  0  0  0  0  0  0  0  0  0
   -1.6863    1.1813   -2.2812 N   0  0  0  0  0  0  0  0  0  0  0  0
   -1.8063    1.9114   -3.3619 C   0  0  0  0  0  0  0  0  0  0  0  0
   -2.6240    2.5986   -3.5605 H   0  0  0  0  0  0  0  0  0  0  0  0
   -0.7383    1.6734   -4.2050 N   0  0  0  0  0  0  0  0  0  0  0  0
   -0.5958    2.1148   -5.1115 H   0  0  0  0  0  0  0  0  0  0  0  0
    0.0870    0.7484   -3.6003 C   0  0  0  0  0  0  0  0  0  0  0  0
    1.0201    0.3374   -3.9737 H   0  0  0  0  0  0  0  0  0  0  0  0
   -0.7430    0.9611    0.6337 C   0  0  0  0  0  0  0  0  0  0  0  0
   -1.8863    1.3894    0.7568 O   0  0  0  0  0  0  0  0  0  0  0  0
    0.2462    1.5538    1.4017 N   0  0  0  0  0  0  0  0  0  0  0  0
    1.1514    1.0952    1.4337 H   0  0  0  0  0  0  0  0  0  0  0  0
    0.0213    2.7256    2.2398 C   0  0  0  0  0  0  0  0  0  0  0  0
   -0.6890    2.4930    3.0402 H   0  0  0  0  0  0  0  0  0  0  0  0
    0.9616    3.0516    2.6944 H   0  0  0  0  0  0  0  0  0  0  0  0
   -0.3780    3.5525    1.6428 H   0  0  0  0  0  0  0  0  0  0  0  0
  1  2  1  0  0  0  0
  2  3  1  0  0  0  0
  2  4  1  0  0  0  0
  2  5  1  0  0  0  0
  5  6  2  0  0  0  0
  5  7  1  0  0  0  0
  7  8  1  0  0  0  0
  7  9  1  0  0  0  0
  9 10  1  0  0  0  0
  9 11  1  0  0  0  0
  9 22  1  0  0  0  0
 11 12  1  0  0  0  0
 11 13  1  0  0  0  0
 11 14  1  0  0  0  0
 14 15  1  0  0  0  0
 14 20  2  0  0  0  0
 15 16  2  0  0  0  0
 16 17  1  0  0  0  0
 16 18  1  0  0  0  0
 18 19  1  0  0  0  0
 18 20  1  0  0  0  0
 20 21  1  0  0  0  0
 22 23  2  0  0  0  0
 22 24  1  0  0  0  0
 24 25  1  0  0  0  0
 24 26  1  0  0  0  0
 26 27  1  0  0  0  0
 26 28  1  0  0  0  0
 26 29  1  0  0  0  0
M  END
$$$$

  -OEChem-04042215593D

 29 29  0     1  0  0  0  0  0999 V2000
   -2.6188   -4.4368    1.1768 H   0  0  0  0  0  0  0  0  0  0  0  0
   -2.8514   -3.4180    0.8546 C   0  0  0  0  0  0  0  0  0  0  0  0
   -3.4142   -2.9177    1.6464 H   0  0  0  0  0  0  0  0  0  0  0  0
   -3.4670   -3.4644   -0.0470 H   0  0  0  0  0  0  0  0  0  0  0  0
   -1.5719   -2.6548    0.5689 C   0  0  0  0  0  0  0  0  0  0  0  0
   -0.4905   -3.2130    0.6761 O   0  0  0  0  0  0  0  0  0  0  0  0
   -1.6368   -1.3352    0.1780 N   0  0  0  0  0  0  0  0  0  0  0  0
   -2.5519   -0.8861    0.1873 H   0  0  0  0  0  0  0  0  0  0  0  0
   -0.4851   -0.4368    0.0293 C   0  0  1  0  0  0  0  0  0  0  0  0
    0.3118   -0.8579    0.6510 H   0  0  0  0  0  0  0  0  0  0  0  0
    0.0695   -0.4825   -1.4132 C   0  0  0  0  0  0  0  0  0  0  0  0
    1.1430   -0.2827   -1.3577 H   0  0  0  0  0  0  0  0  0  0  0  0
   -0.0475   -1.4976   -1.8044 H   0  0  0  0  0  0  0  0  0  0  0  0
   -0.4993    0.4853   -2.4168 C   0  0  0  0  0  0  0  0  0  0  0  0
   -1.4836    1.4397   -2.2128 N   0  0  0  0  0  0  0  0  0  0  0  0
   -1.6777    2.0493   -3.3554 C   0  0  0  0  0  0  0  0  0  0  0  0
   -2.3921    2.8510   -3.5188 H   0  0  0  0  0  0  0  0  0  0  0  0
   -0.8390    1.5165   -4.3143 N   0  0  0  0  0  0  0  0  0  0  0  0
   -0.7980    1.8106   -5.2882 H   0  0  0  0  0  0  0  0  0  0  0  0
   -0.0902    0.5214   -3.7219 C   0  0  0  0  0  0  0  0  0  0  0  0
    0.6633   -0.1125   -4.1796 H   0  0  0  0  0  0  0  0  0  0  0  0
   -0.7460    0.9531    0.6599 C   0  0  0  0  0  0  0  0  0  0  0  0
   -1.8973    1.3502    0.8183 O   0  0  0  0  0  0  0  0  0  0  0  0
    0.2395    1.5354    1.4398 N   0  0  0  0  0  0  0  0  0  0  0  0
    1.1647    1.1184    1.4145 H   0  0  0  0  0  0  0  0  0  0  0  0
    0.0147    2.7035    2.2827 C   0  0  0  0  0  0  0  0  0  0  0  0
   -0.7102    2.4734    3.0704 H   0  0  0  0  0  0  0  0  0  0  0  0
    0.9510    3.0157    2.7547 H   0  0  0  0  0  0  0  0  0  0  0  0
   -0.3663    3.5382    1.6850 H   0  0  0  0  0  0  0  0  0  0  0  0
  1  2  1  0  0  0  0
  2  3  1  0  0  0  0
  2  4  1  0  0  0  0
  2  5  1  0  0  0  0
  5  6  2  0  0  0  0
  5  7  1  0  0  0  0
  7  8  1  0  0  0  0
  7  9  1  0  0  0  0
  9 10  1  0  0  0  0
  9 11  1  0  0  0  0
  9 22  1  0  0  0  0
 11 12  1  0  0  0  0
 11 13  1  0  0  0  0
 11 14  1  0  0  0  0
 14 15  1  0  0  0  0
 14 20  2  0  0  0  0
 15 16  2  0  0  0  0
 16 17  1  0  0  0  0
 16 18  1  0  0  0  0
 18 19  1  0  0  0  0
 18 20  1  0  0  0  0
 20 21  1  0  0  0  0
 22 23  2  0  0  0  0
 22 24  1  0  0  0  0
 24 25  1  0  0  0  0
 24 26  1  0  0  0  0
 26 27  1  0  0  0  0
 26 28  1  0  0  0  0
 26 29  1  0  0  0  0
M  END
$$$$

  -OEChem-04042215593D

 29 29  0     1  0  0  0  0  0999 V2000
   -2.6394   -4.4251    1.1660 H   0  0  0  0  0  0  0  0  0  0  0  0
   -2.8633   -3.4028    0.8487 C   0  0  0  0  0  0  0  0  0  0  0  0
   -3.4071   -2.8966    1.6501 H   0  0  0  0  0  0  0  0  0  0  0  0
   -3.4933   -3.4396   -0.0433 H   0  0  0  0  0  0  0  0  0  0  0  0
   -1.5783   -2.6562    0.5438 C   0  0  0  0  0  0  0  0  0  0  0  0
   -0.5034   -3.2299    0.6298 O   0  0  0  0  0  0  0  0  0  0  0  0
   -1.6320   -1.3340    0.1598 N   0  0  0  0  0  0  0  0  0  0  0  0
   -2.5392   -0.8709    0.2058 H   0  0  0  0  0  0  0  0  0  0  0  0
   -0.4699   -0.4456    0.0270 C   0  0  1  0  0  0  0  0  0  0  0  0
    0.3220   -0.8751    0.6492 H   0  0  0  0  0  0  0  0  0  0  0  0
    0.0851   -0.4839   -1.4159 C   0  0  0  0  0  0  0  0  0  0  0  0
    1.1574   -0.2815   -1.3493 H   0  0  0  0  0  0  0  0  0  0  0  0
   -0.0239   -1.4974   -1.8136 H   0  0  0  0  0  0  0  0  0  0  0  0
   -0.4642    0.4971   -2.4194 C   0  0  0  0  0  0  0  0  0  0  0  0
   -1.2107    1.6398   -2.1752 N   0  0  0  0  0  0  0  0  0  0  0  0
   -1.5119    2.1645   -3.3369 C   0  0  0  0  0  0  0  0  0  0  0  0
   -2.0950    3.0701   -3.4781 H   0  0  0  0  0  0  0  0  0  0  0  0
   -0.9771    1.3919   -4.3486 N   0  0  0  0  0  0  0  0  0  0  0  0
   -1.0781    1.5756   -5.3450 H   0  0  0  0  0  0  0  0  0  0  0  0
   -0.3156    0.3296   -3.7695 C   0  0  0  0  0  0  0  0  0  0  0  0
    0.2076   -0.4833   -4.2641 H   0  0  0  0  0  0  0  0  0  0  0  0
   -0.7396    0.9375    0.6681 C   0  0  0  0  0  0  0  0  0  0  0  0
   -1.8963    1.3260    0.8126 O   0  0  0  0  0  0  0  0  0  0  0  0
    0.2328    1.5153    1.4672 N   0  0  0  0  0  0  0  0  0  0  0  0
    1.1701    1.1286    1.4175 H   0  0  0  0  0  0  0  0  0  0  0  0
    0.0019    2.7005    2.2838 C   0  0  0  0  0  0  0  0  0  0  0  0
   -0.7490    2.4950    3.0538 H   0  0  0  0  0  0  0  0  0  0  0  0
    0.9292    3.0056    2.7778 H   0  0  0  0  0  0  0  0  0  0  0  0
   -0.3482    3.5309    1.6616 H   0  0  0  0  0  0  0  0  0  0  0  0
  1  2  1  0  0  0  0
  2  3  1  0  0  0  0
  2  4  1  0  0  0  0
  2  5  1  0  0  0  0
  5  6  2  0  0  0  0
  5  7  1  0  0  0  0
  7  8  1  0  0  0  0
  7  9  1  0  0  0  0
  9 10  1  0  0  0  0
  9 11  1  0  0  0  0
  9 22  1  0  0  0  0
 11 12  1  0  0  0  0
 11 13  1  0  0  0  0
 11 14  1  0  0  0  0
 14 15  1  0  0  0  0
 14 20  2  0  0  0  0
 15 16  2  0  0  0  0
 16 17  1  0  0  0  0
 16 18  1  0  0  0  0
 18 19  1  0  0  0  0
 18 20  1  0  0  0  0
 20 21  1  0  0  0  0
 22 23  2  0  0  0  0
 22 24  1  0  0  0  0
 24 25  1  0  0  0  0
 24 26  1  0  0  0  0
 26 27  1  0  0  0  0
 26 28  1  0  0  0  0
 26 29  1  0  0  0  0
M  END
$$$$

  -OEChem-04042215593D

 29 29  0     1  0  0  0  0  0999 V2000
   -2.6678   -4.4076    1.1830 H   0  0  0  0  0  0  0  0  0  0  0  0
   -2.8782   -3.3862    0.8542 C   0  0  0  0  0  0  0  0  0  0  0  0
   -3.4152   -2.8640    1.6497 H   0  0  0  0  0  0  0  0  0  0  0  0
   -3.5087   -3.4249   -0.0372 H   0  0  0  0  0  0  0  0  0  0  0  0
   -1.5836   -2.6601    0.5405 C   0  0  0  0  0  0  0  0  0  0  0  0
   -0.5163   -3.2467    0.6319 O   0  0  0  0  0  0  0  0  0  0  0  0
   -1.6204   -1.3417    0.1415 N   0  0  0  0  0  0  0  0  0  0  0  0
   -2.5199   -0.8646    0.1976 H   0  0  0  0  0  0  0  0  0  0  0  0
   -0.4459   -0.4677    0.0193 C   0  0  1  0  0  0  0  0  0  0  0  0
    0.3391   -0.8964    0.6510 H   0  0  0  0  0  0  0  0  0  0  0  0
    0.1095   -0.5163   -1.4233 C   0  0  0  0  0  0  0  0  0  0  0  0
    1.1838   -0.3241   -1.3563 H   0  0  0  0  0  0  0  0  0  0  0  0
   -0.0085   -1.5295   -1.8194 H   0  0  0  0  0  0  0  0  0  0  0  0
   -0.4285    0.4751   -2.4222 C   0  0  0  0  0  0  0  0  0  0  0  0
   -0.8992    1.7552   -2.1679 N   0  0  0  0  0  0  0  0  0  0  0  0
   -1.3232    2.2454   -3.3064 C   0  0  0  0  0  0  0  0  0  0  0  0
   -1.7561    3.2333   -3.4350 H   0  0  0  0  0  0  0  0  0  0  0  0
   -1.1348    1.3178   -4.3121 N   0  0  0  0  0  0  0  0  0  0  0  0
   -1.3913    1.4492   -5.2887 H   0  0  0  0  0  0  0  0  0  0  0  0
   -0.5721    0.1898   -3.7530 C   0  0  0  0  0  0  0  0  0  0  0  0
   -0.3074   -0.7414   -4.2452 H   0  0  0  0  0  0  0  0  0  0  0  0
   -0.7295    0.9192    0.6461 C   0  0  0  0  0  0  0  0  0  0  0  0
   -1.8906    1.3100    0.7485 O   0  0  0  0  0  0  0  0  0  0  0  0
    0.2224    1.5055    1.4631 N   0  0  0  0  0  0  0  0  0  0  0  0
    1.1666    1.1353    1.4190 H   0  0  0  0  0  0  0  0  0  0  0  0
   -0.0252    2.7104    2.2452 C   0  0  0  0  0  0  0  0  0  0  0  0
   -0.8038    2.5285    2.9931 H   0  0  0  0  0  0  0  0  0  0  0  0
    0.8875    3.0178    2.7643 H   0  0  0  0  0  0  0  0  0  0  0  0
   -0.3462    3.5301    1.5940 H   0  0  0  0  0  0  0  0  0  0  0  0
  1  2  1  0  0  0  0
  2  3  1  0  0  0  0
  2  4  1  0  0  0  0
  2  5  1  0  0  0  0
  5  6  2  0  0  0  0
  5  7  1  0  0  0  0
  7  8  1  0  0  0  0
  7  9  1  0  0  0  0
  9 10  1  0  0  0  0
  9 11  1  0  0  0  0
  9 22  1  0  0  0  0
 11 12  1  0  0  0  0
 11 13  1  0  0  0  0
 11 14  1  0  0  0  0
 14 15  1  0  0  0  0
 14 20  2  0  0  0  0
 15 16  2  0  0  0  0
 16 17  1  0  0  0  0
 16 18  1  0  0  0  0
 18 19  1  0  0  0  0
 18 20  1  0  0  0  0
 20 21  1  0  0  0  0
 22 23  2  0  0  0  0
 22 24  1  0  0  0  0
 24 25  1  0  0  0  0
 24 26  1  0  0  0  0
 26 27  1  0  0  0  0
 26 28  1  0  0  0  0
 26 29  1  0  0  0  0
M  END
$$$$

  -OEChem-04042215593D

 29 29  0     1  0  0  0  0  0999 V2000
   -2.6872   -4.4014    1.2337 H   0  0  0  0  0  0  0  0  0  0  0  0
   -2.8880   -3.3905    0.8680 C   0  0  0  0  0  0  0  0  0  0  0  0
   -3.4401   -2.8422    1.6353 H   0  0  0  0  0  0  0  0  0  0  0  0
   -3.5000   -3.4566   -0.0346 H   0  0  0  0  0  0  0  0  0  0  0  0
   -1.5848   -2.6782    0.5579 C   0  0  0  0  0  0  0  0  0  0  0  0
   -0.5230   -3.2694    0.6763 O   0  0  0  0  0  0  0  0  0  0  0  0
   -1.6066   -1.3681    0.1307 N   0  0  0  0  0  0  0  0  0  0  0  0
   -2.5030   -0.8836    0.1674 H   0  0  0  0  0  0  0  0  0  0  0  0
   -0.4230   -0.5047    0.0145 C   0  0  1  0  0  0  0  0  0  0  0  0
    0.3572   -0.9257    0.6570 H   0  0  0  0  0  0  0  0  0  0  0  0
    0.1307   -0.5633   -1.4279 C   0  0  0  0  0  0  0  0  0  0  0  0
    1.2078   -0.3850   -1.3702 H   0  0  0  0  0  0  0  0  0  0  0  0
   -0.0045   -1.5737   -1.8253 H   0  0  0  0  0  0  0  0  0  0  0  0
   -0.4102    0.4406   -2.4107 C   0  0  0  0  0  0  0  0  0  0  0  0
   -0.5899    1.7981   -2.1824 N   0  0  0  0  0  0  0  0  0  0  0  0
   -1.1304    2.2995   -3.2656 C   0  0  0  0  0  0  0  0  0  0  0  0
   -1.4031    3.3426   -3.3981 H   0  0  0  0  0  0  0  0  0  0  0  0
   -1.2963    1.3047   -4.2096 N   0  0  0  0  0  0  0  0  0  0  0  0
   -1.7069    1.4333   -5.1324 H   0  0  0  0  0  0  0  0  0  0  0  0
   -0.8427    0.1203   -3.6683 C   0  0  0  0  0  0  0  0  0  0  0  0
   -0.8388   -0.8667   -4.1209 H   0  0  0  0  0  0  0  0  0  0  0  0
   -0.7224    0.8925    0.6100 C   0  0  0  0  0  0  0  0  0  0  0  0
   -1.8836    1.2955    0.6472 O   0  0  0  0  0  0  0  0  0  0  0  0
    0.2057    1.4983    1.4393 N   0  0  0  0  0  0  0  0  0  0  0  0
    1.1536    1.1353    1.4189 H   0  0  0  0  0  0  0  0  0  0  0  0
   -0.0554    2.7397    2.1568 C   0  0  0  0  0  0  0  0  0  0  0  0
   -0.8960    2.6144    2.8473 H   0  0  0  0  0  0  0  0  0  0  0  0
    0.8251    3.0335    2.7360 H   0  0  0  0  0  0  0  0  0  0  0  0
   -0.2932    3.5447    1.4535 H   0  0  0  0  0  0  0  0  0  0  0  0
  1  2  1  0  0  0  0
  2  3  1  0  0  0  0
  2  4  1  0  0  0  0
  2  5  1  0  0  0  0
  5  6  2  0  0  0  0
  5  7  1  0  0  0  0
  7  8  1  0  0  0  0
  7  9  1  0  0  0  0
  9 10  1  0  0  0  0
  9 11  1  0  0  0  0
  9 22  1  0  0  0  0
 11 12  1  0  0  0  0
 11 13  1  0  0  0  0
 11 14  1  0  0  0  0
 14 15  1  0  0  0  0
 14 20  2  0  0  0  0
 15 16  2  0  0  0  0
 16 17  1  0  0  0  0
 16 18  1  0  0  0  0
 18 19  1  0  0  0  0
 18 20  1  0  0  0  0
 20 21  1  0  0  0  0
 22 23  2  0  0  0  0
 22 24  1  0  0  0  0
 24 25  1  0  0  0  0
 24 26  1  0  0  0  0
 26 27  1  0  0  0  0
 26 28  1  0  0  0  0
 26 29  1  0  0  0  0
M  END
$$$$

  -OEChem-04042215593D

 29 29  0     1  0  0  0  0  0999 V2000
   -2.6989   -4.4147    1.2667 H   0  0  0  0  0  0  0  0  0  0  0  0
   -2.8918   -3.4058    0.8916 C   0  0  0  0  0  0  0  0  0  0  0  0
   -3.4460   -2.8483    1.6507 H   0  0  0  0  0  0  0  0  0  0  0  0
   -3.4987   -3.4760   -0.0142 H   0  0  0  0  0  0  0  0  0  0  0  0
   -1.5828   -2.7032    0.5847 C   0  0  0  0  0  0  0  0  0  0  0  0
   -0.5239   -3.2918    0.7360 O   0  0  0  0  0  0  0  0  0  0  0  0
   -1.5964   -1.4042    0.1250 N   0  0  0  0  0  0  0  0  0  0  0  0
   -2.4921   -0.9173    0.1410 H   0  0  0  0  0  0  0  0  0  0  0  0
   -0.4082   -0.5468    0.0090 C   0  0  1  0  0  0  0  0  0  0  0  0
    0.3703   -0.9551    0.6617 H   0  0  0  0  0  0  0  0  0  0  0  0
    0.1442   -0.6113   -1.4322 C   0  0  0  0  0  0  0  0  0  0  0  0
    1.2241   -0.4456   -1.3876 H   0  0  0  0  0  0  0  0  0  0  0  0
   -0.0095   -1.6169   -1.8349 H   0  0  0  0  0  0  0  0  0  0  0  0
   -0.4118    0.4065   -2.3879 C   0  0  0  0  0  0  0  0  0  0  0  0
   -0.3071    1.7821   -2.2280 N   0  0  0  0  0  0  0  0  0  0  0  0
   -0.9421    2.3255   -3.2377 C   0  0  0  0  0  0  0  0  0  0  0  0
   -1.0513    3.3942   -3.3984 H   0  0  0  0  0  0  0  0  0  0  0  0
   -1.4428    1.3388   -4.0663 N   0  0  0  0  0  0  0  0  0  0  0  0
   -1.9840    1.5020   -4.9131 H   0  0  0  0  0  0  0  0  0  0  0  0
   -1.1062    0.1144   -3.5285 C   0  0  0  0  0  0  0  0  0  0  0  0
   -1.3461   -0.8754   -3.9046 H   0  0  0  0  0  0  0  0  0  0  0  0
   -0.7230    0.8622    0.5668 C   0  0  0  0  0  0  0  0  0  0  0  0
   -1.8809    1.2757    0.5384 O   0  0  0  0  0  0  0  0  0  0  0  0
    0.1828    1.4936    1.4009 N   0  0  0  0  0  0  0  0  0  0  0  0
    1.1325    1.1347    1.4093 H   0  0  0  0  0  0  0  0  0  0  0  0
   -0.0894    2.7708    2.0473 C   0  0  0  0  0  0  0  0  0  0  0  0
   -0.9408    2.6810    2.7300 H   0  0  0  0  0  0  0  0  0  0  0  0
    0.7818    3.0956    2.6237 H   0  0  0  0  0  0  0  0  0  0  0  0
   -0.3156    3.5374    1.2987 H   0  0  0  0  0  0  0  0  0  0  0  0
  1  2  1  0  0  0  0
  2  3  1  0  0  0  0
  2  4  1  0  0  0  0
  2  5  1  0  0  0  0
  5  6  2  0  0  0  0
  5  7  1  0  0  0  0
  7  8  1  0  0  0  0
  7  9  1  0  0  0  0
  9 10  1  0  0  0  0
  9 11  1  0  0  0  0
  9 22  1  0  0  0  0
 11 12  1  0  0  0  0
 11 13  1  0  0  0  0
 11 14  1  0  0  0  0
 14 15  1  0  0  0  0
 14 20  2  0  0  0  0
 15 16  2  0  0  0  0
 16 17  1  0  0  0  0
 16 18  1  0  0  0  0
 18 19  1  0  0  0  0
 18 20  1  0  0  0  0
 20 21  1  0  0  0  0
 22 23  2  0  0  0  0
 22 24  1  0  0  0  0
 24 25  1  0  0  0  0
 24 26  1  0  0  0  0
 26 27  1  0  0  0  0
 26 28  1  0  0  0  0
 26 29  1  0  0  0  0
M  END
$$$$

  -OEChem-04042215593D

 29 29  0     1  0  0  0  0  0999 V2000
   -2.6990   -4.4342    1.2992 H   0  0  0  0  0  0  0  0  0  0  0  0
   -2.8914   -3.4322    0.9051 C   0  0  0  0  0  0  0  0  0  0  0  0
   -3.4578   -2.8649    1.6478 H   0  0  0  0  0  0  0  0  0  0  0  0
   -3.4858   -3.5203   -0.0075 H   0  0  0  0  0  0  0  0  0  0  0  0
   -1.5814   -2.7284    0.6045 C   0  0  0  0  0  0  0  0  0  0  0  0
   -0.5226   -3.3085    0.7841 O   0  0  0  0  0  0  0  0  0  0  0  0
   -1.5936   -1.4372    0.1223 N   0  0  0  0  0  0  0  0  0  0  0  0
   -2.4918   -0.9552    0.1142 H   0  0  0  0  0  0  0  0  0  0  0  0
   -0.4068   -0.5774    0.0065 C   0  0  1  0  0  0  0  0  0  0  0  0
    0.3704   -0.9755    0.6669 H   0  0  0  0  0  0  0  0  0  0  0  0
    0.1509   -0.6396   -1.4300 C   0  0  0  0  0  0  0  0  0  0  0  0
    1.2318   -0.4778   -1.3947 H   0  0  0  0  0  0  0  0  0  0  0  0
   -0.0118   -1.6402   -1.8414 H   0  0  0  0  0  0  0  0  0  0  0  0
   -0.4274    0.3898   -2.3554 C   0  0  0  0  0  0  0  0  0  0  0  0
   -0.0805    1.7344   -2.3236 N   0  0  0  0  0  0  0  0  0  0  0  0
   -0.7971    2.3206   -3.2523 C   0  0  0  0  0  0  0  0  0  0  0  0
   -0.7708    3.3830   -3.4770 H   0  0  0  0  0  0  0  0  0  0  0  0
   -1.5818    1.3882   -3.9056 N   0  0  0  0  0  0  0  0  0  0  0  0
   -2.2341    1.5950   -4.6594 H   0  0  0  0  0  0  0  0  0  0  0  0
   -1.3454    0.1535   -3.3391 C   0  0  0  0  0  0  0  0  0  0  0  0
   -1.7923   -0.8029   -3.5925 H   0  0  0  0  0  0  0  0  0  0  0  0
   -0.7256    0.8420    0.5341 C   0  0  0  0  0  0  0  0  0  0  0  0
   -1.8747    1.2709    0.4499 O   0  0  0  0  0  0  0  0  0  0  0  0
    0.1683    1.4913    1.3665 N   0  0  0  0  0  0  0  0  0  0  0  0
    1.1170    1.1301    1.3962 H   0  0  0  0  0  0  0  0  0  0  0  0
   -0.1010    2.7975    1.9537 C   0  0  0  0  0  0  0  0  0  0  0  0
   -0.9803    2.7512    2.6047 H   0  0  0  0  0  0  0  0  0  0  0  0
    0.7539    3.1263    2.5521 H   0  0  0  0  0  0  0  0  0  0  0  0
   -0.2814    3.5393    1.1685 H   0  0  0  0  0  0  0  0  0  0  0  0
  1  2  1  0  0  0  0
  2  3  1  0  0  0  0
  2  4  1  0  0  0  0
  2  5  1  0  0  0  0
  5  6  2  0  0  0  0
  5  7  1  0  0  0  0
  7  8  1  0  0  0  0
  7  9  1  0  0  0  0
  9 10  1  0  0  0  0
  9 11  1  0  0  0  0
  9 22  1  0  0  0  0
 11 12  1  0  0  0  0
 11 13  1  0  0  0  0
 11 14  1  0  0  0  0
 14 15  1  0  0  0  0
 14 20  2  0  0  0  0
 15 16  2  0  0  0  0
 16 17  1  0  0  0  0
 16 18  1  0  0  0  0
 18 19  1  0  0  0  0
 18 20  1  0  0  0  0
 20 21  1  0  0  0  0
 22 23  2  0  0  0  0
 22 24  1  0  0  0  0
 24 25  1  0  0  0  0
 24 26  1  0  0  0  0
 26 27  1  0  0  0  0
 26 28  1  0  0  0  0
 26 29  1  0  0  0  0
M  END
$$$$

  -OEChem-04042215593D

 29 29  0     1  0  0  0  0  0999 V2000
   -2.6935   -4.4494    1.3154 H   0  0  0  0  0  0  0  0  0  0  0  0
   -2.8866   -3.4515    0.9116 C   0  0  0  0  0  0  0  0  0  0  0  0
   -3.4637   -2.8812    1.6437 H   0  0  0  0  0  0  0  0  0  0  0  0
   -3.4707   -3.5496   -0.0066 H   0  0  0  0  0  0  0  0  0  0  0  0
   -1.5775   -2.7432    0.6188 C   0  0  0  0  0  0  0  0  0  0  0  0
   -0.5171   -3.3150    0.8136 O   0  0  0  0  0  0  0  0  0  0  0  0
   -1.5938   -1.4567    0.1245 N   0  0  0  0  0  0  0  0  0  0  0  0
   -2.4947   -0.9804    0.1081 H   0  0  0  0  0  0  0  0  0  0  0  0
   -0.4102   -0.5931    0.0055 C   0  0  1  0  0  0  0  0  0  0  0  0
    0.3683   -0.9852    0.6681 H   0  0  0  0  0  0  0  0  0  0  0  0
    0.1489   -0.6495   -1.4294 C   0  0  0  0  0  0  0  0  0  0  0  0
    1.2301   -0.4867   -1.4002 H   0  0  0  0  0  0  0  0  0  0  0  0
   -0.0172   -1.6458   -1.8496 H   0  0  0  0  0  0  0  0  0  0  0  0
   -0.4472    0.3865   -2.3335 C   0  0  0  0  0  0  0  0  0  0  0  0
    0.0927    1.6557   -2.4920 N   0  0  0  0  0  0  0  0  0  0  0  0
   -0.6895    2.2806   -3.3395 C   0  0  0  0  0  0  0  0  0  0  0  0
   -0.5504    3.3062   -3.6696 H   0  0  0  0  0  0  0  0  0  0  0  0
   -1.7080    1.4423   -3.7551 N   0  0  0  0  0  0  0  0  0  0  0  0
   -2.4521    1.6981   -4.4012 H   0  0  0  0  0  0  0  0  0  0  0  0
   -1.5525    0.2284   -3.1201 C   0  0  0  0  0  0  0  0  0  0  0  0
   -2.1697   -0.6609   -3.1993 H   0  0  0  0  0  0  0  0  0  0  0  0
   -0.7281    0.8320    0.5166 C   0  0  0  0  0  0  0  0  0  0  0  0
   -1.8694    1.2727    0.4005 O   0  0  0  0  0  0  0  0  0  0  0  0
    0.1630    1.4911    1.3440 N   0  0  0  0  0  0  0  0  0  0  0  0
    1.1050    1.1155    1.4028 H   0  0  0  0  0  0  0  0  0  0  0  0
   -0.0998    2.8107    1.9039 C   0  0  0  0  0  0  0  0  0  0  0  0
   -0.9991    2.7912    2.5283 H   0  0  0  0  0  0  0  0  0  0  0  0
    0.7425    3.1320    2.5240 H   0  0  0  0  0  0  0  0  0  0  0  0
   -0.2415    3.5438    1.1028 H   0  0  0  0  0  0  0  0  0  0  0  0
  1  2  1  0  0  0  0
  2  3  1  0  0  0  0
  2  4  1  0  0  0  0
  2  5  1  0  0  0  0
  5  6  2  0  0  0  0
  5  7  1  0  0  0  0
  7  8  1  0  0  0  0
  7  9  1  0  0  0  0
  9 10  1  0  0  0  0
  9 11  1  0  0  0  0
  9 22  1  0  0  0  0
 11 12  1  0  0  0  0
 11 13  1  0  0  0  0
 11 14  1  0  0  0  0
 14 15  1  0  0  0  0
 14 20  2  0  0  0  0
 15 16  2  0  0  0  0
 16 17  1  0  0  0  0
 16 18  1  0  0  0  0
 18 19  1  0  0  0  0
 18 20  1  0  0  0  0
 20 21  1  0  0  0  0
 22 23  2  0  0  0  0
 22 24  1  0  0  0  0
 24 25  1  0  0  0  0
 24 26  1  0  0  0  0
 26 27  1  0  0  0  0
 26 28  1  0  0  0  0
 26 29  1  0  0  0  0
M  END
$$$$

  -OEChem-04042215593D

 29 29  0     1  0  0  0  0  0999 V2000
   -2.6795   -4.4604    1.3281 H   0  0  0  0  0  0  0  0  0  0  0  0
   -2.8804   -3.4632    0.9264 C   0  0  0  0  0  0  0  0  0  0  0  0
   -3.4539   -2.8962    1.6637 H   0  0  0  0  0  0  0  0  0  0  0  0
   -3.4710   -3.5634    0.0126 H   0  0  0  0  0  0  0  0  0  0  0  0
   -1.5765   -2.7496    0.6241 C   0  0  0  0  0  0  0  0  0  0  0  0
   -0.5127   -3.3155    0.8174 O   0  0  0  0  0  0  0  0  0  0  0  0
   -1.6011   -1.4629    0.1293 N   0  0  0  0  0  0  0  0  0  0  0  0
   -2.5041   -0.9907    0.1206 H   0  0  0  0  0  0  0  0  0  0  0  0
   -0.4207   -0.5954    0.0038 C   0  0  1  0  0  0  0  0  0  0  0  0
    0.3613   -0.9871    0.6626 H   0  0  0  0  0  0  0  0  0  0  0  0
    0.1380   -0.6434   -1.4311 C   0  0  0  0  0  0  0  0  0  0  0  0
    1.2186   -0.4756   -1.3987 H   0  0  0  0  0  0  0  0  0  0  0  0
   -0.0223   -1.6381   -1.8572 H   0  0  0  0  0  0  0  0  0  0  0  0
   -0.4622    0.3923   -2.3342 C   0  0  0  0  0  0  0  0  0  0  0  0
    0.2144    1.5396   -2.7259 N   0  0  0  0  0  0  0  0  0  0  0  0
   -0.6124    2.2044   -3.4974 C   0  0  0  0  0  0  0  0  0  0  0  0
   -0.3911    3.1603   -3.9637 H   0  0  0  0  0  0  0  0  0  0  0  0
   -1.7999    1.5093   -3.6343 N   0  0  0  0  0  0  0  0  0  0  0  0
   -2.6089    1.8269   -4.1644 H   0  0  0  0  0  0  0  0  0  0  0  0
   -1.7052    0.3472   -2.8990 C   0  0  0  0  0  0  0  0  0  0  0  0
   -2.4482   -0.4328   -2.7682 H   0  0  0  0  0  0  0  0  0  0  0  0
   -0.7322    0.8306    0.5143 C   0  0  0  0  0  0  0  0  0  0  0  0
   -1.8684    1.2809    0.3902 O   0  0  0  0  0  0  0  0  0  0  0  0
    0.1644    1.4905    1.3346 N   0  0  0  0  0  0  0  0  0  0  0  0
    1.0989    1.0996    1.4134 H   0  0  0  0  0  0  0  0  0  0  0  0
   -0.0971    2.8055    1.9055 C   0  0  0  0  0  0  0  0  0  0  0  0
   -0.9818    2.7743    2.5499 H   0  0  0  0  0  0  0  0  0  0  0  0
    0.7562    3.1329    2.5071 H   0  0  0  0  0  0  0  0  0  0  0  0
   -0.2642    3.5405    1.1112 H   0  0  0  0  0  0  0  0  0  0  0  0
  1  2  1  0  0  0  0
  2  3  1  0  0  0  0
  2  4  1  0  0  0  0
  2  5  1  0  0  0  0
  5  6  2  0  0  0  0
  5  7  1  0  0  0  0
  7  8  1  0  0  0  0
  7  9  1  0  0  0  0
  9 10  1  0  0  0  0
  9 11  1  0  0  0  0
  9 22  1  0  0  0  0
 11 12  1  0  0  0  0
 11 13  1  0  0  0  0
 11 14  1  0  0  0  0
 14 15  1  0  0  0  0
 14 20  2  0  0  0  0
 15 16  2  0  0  0  0
 16 17  1  0  0  0  0
 16 18  1  0  0  0  0
 18 19  1  0  0  0  0
 18 20  1  0  0  0  0
 20 21  1  0  0  0  0
 22 23  2  0  0  0  0
 22 24  1  0  0  0  0
 24 25  1  0  0  0  0
 24 26  1  0  0  0  0
 26 27  1  0  0  0  0
 26 28  1  0  0  0  0
 26 29  1  0  0  0  0
M  END
$$$$

  -OEChem-04042215593D

 29 29  0     1  0  0  0  0  0999 V2000
   -2.6492   -4.4757    1.3455 H   0  0  0  0  0  0  0  0  0  0  0  0
   -2.8646   -3.4819    0.9431 C   0  0  0  0  0  0  0  0  0  0  0  0
   -3.4390   -2.9203    1.6838 H   0  0  0  0  0  0  0  0  0  0  0  0
   -3.4610   -3.5911    0.0341 H   0  0  0  0  0  0  0  0  0  0  0  0
   -1.5711   -2.7544    0.6288 C   0  0  0  0  0  0  0  0  0  0  0  0
   -0.5002   -3.3126    0.8037 O   0  0  0  0  0  0  0  0  0  0  0  0
   -1.6130   -1.4633    0.1460 N   0  0  0  0  0  0  0  0  0  0  0  0
   -2.5188   -0.9975    0.1610 H   0  0  0  0  0  0  0  0  0  0  0  0
   -0.4391   -0.5885    0.0085 C   0  0  1  0  0  0  0  0  0  0  0  0
    0.3522   -0.9829    0.6549 H   0  0  0  0  0  0  0  0  0  0  0  0
    0.1084   -0.6268   -1.4322 C   0  0  0  0  0  0  0  0  0  0  0  0
    1.1873   -0.4489   -1.3966 H   0  0  0  0  0  0  0  0  0  0  0  0
   -0.0383   -1.6228   -1.8595 H   0  0  0  0  0  0  0  0  0  0  0  0
   -0.4903    0.4000   -2.3501 C   0  0  0  0  0  0  0  0  0  0  0  0
    0.2686    1.3723   -2.9878 N   0  0  0  0  0  0  0  0  0  0  0  0
   -0.5714    2.0907   -3.6943 C   0  0  0  0  0  0  0  0  0  0  0  0
   -0.2941    2.9433   -4.3077 H   0  0  0  0  0  0  0  0  0  0  0  0
   -1.8559    1.6032   -3.5448 N   0  0  0  0  0  0  0  0  0  0  0  0
   -2.6904    2.0042   -3.9680 H   0  0  0  0  0  0  0  0  0  0  0  0
   -1.8080    0.5215   -2.6920 C   0  0  0  0  0  0  0  0  0  0  0  0
   -2.6278   -0.0953   -2.3388 H   0  0  0  0  0  0  0  0  0  0  0  0
   -0.7423    0.8328    0.5356 C   0  0  0  0  0  0  0  0  0  0  0  0
   -1.8790    1.2860    0.4319 O   0  0  0  0  0  0  0  0  0  0  0  0
    0.1682    1.4878    1.3447 N   0  0  0  0  0  0  0  0  0  0  0  0
    1.0998    1.0886    1.4185 H   0  0  0  0  0  0  0  0  0  0  0  0
   -0.0847    2.7955    1.9366 C   0  0  0  0  0  0  0  0  0  0  0  0
   -0.9681    2.7604    2.5829 H   0  0  0  0  0  0  0  0  0  0  0  0
    0.7719    3.1092    2.5409 H   0  0  0  0  0  0  0  0  0  0  0  0
   -0.2494    3.5433    1.1538 H   0  0  0  0  0  0  0  0  0  0  0  0
  1  2  1  0  0  0  0
  2  3  1  0  0  0  0
  2  4  1  0  0  0  0
  2  5  1  0  0  0  0
  5  6  2  0  0  0  0
  5  7  1  0  0  0  0
  7  8  1  0  0  0  0
  7  9  1  0  0  0  0
  9 10  1  0  0  0  0
  9 11  1  0  0  0  0
  9 22  1  0  0  0  0
 11 12  1  0  0  0  0
 11 13  1  0  0  0  0
 11 14  1  0  0  0  0
 14 15  1  0  0  0  0
 14 20  2  0  0  0  0
 15 16  2  0  0  0  0
 16 17  1  0  0  0  0
 16 18  1  0  0  0  0
 18 19  1  0  0  0  0
 18 20  1  0  0  0  0
 20 21  1  0  0  0  0
 22 23  2  0  0  0  0
 22 24  1  0  0  0  0
 24 25  1  0  0  0  0
 24 26  1  0  0  0  0
 26 27  1  0  0  0  0
 26 28  1  0  0  0  0
 26 29  1  0  0  0  0
M  END
$$$$

  -OEChem-04042215593D

 29 29  0     1  0  0  0  0  0999 V2000
   -2.6183   -4.4931    1.3241 H   0  0  0  0  0  0  0  0  0  0  0  0
   -2.8477   -3.4892    0.9558 C   0  0  0  0  0  0  0  0  0  0  0  0
   -3.4065   -2.9511    1.7254 H   0  0  0  0  0  0  0  0  0  0  0  0
   -3.4658   -3.5759    0.0590 H   0  0  0  0  0  0  0  0  0  0  0  0
   -1.5653   -2.7466    0.6308 C   0  0  0  0  0  0  0  0  0  0  0  0
   -0.4870   -3.2974    0.7820 O   0  0  0  0  0  0  0  0  0  0  0  0
   -1.6266   -1.4488    0.1680 N   0  0  0  0  0  0  0  0  0  0  0  0
   -2.5371   -0.9941    0.2028 H   0  0  0  0  0  0  0  0  0  0  0  0
   -0.4628   -0.5626    0.0150 C   0  0  1  0  0  0  0  0  0  0  0  0
    0.3382   -0.9599    0.6476 H   0  0  0  0  0  0  0  0  0  0  0  0
    0.0723   -0.5983   -1.4313 C   0  0  0  0  0  0  0  0  0  0  0  0
    1.1475   -0.4004   -1.3923 H   0  0  0  0  0  0  0  0  0  0  0  0
   -0.0521   -1.6006   -1.8514 H   0  0  0  0  0  0  0  0  0  0  0  0
   -0.5267    0.4088   -2.3743 C   0  0  0  0  0  0  0  0  0  0  0  0
    0.2496    1.1609   -3.2466 N   0  0  0  0  0  0  0  0  0  0  0  0
   -0.5768    1.9328   -3.9112 C   0  0  0  0  0  0  0  0  0  0  0  0
   -0.2798    2.6508   -4.6704 H   0  0  0  0  0  0  0  0  0  0  0  0
   -1.8754    1.6980   -3.5026 N   0  0  0  0  0  0  0  0  0  0  0  0
   -2.6994    2.1867   -3.8471 H   0  0  0  0  0  0  0  0  0  0  0  0
   -1.8479    0.7265   -2.5258 C   0  0  0  0  0  0  0  0  0  0  0  0
   -2.6815    0.3111   -1.9687 H   0  0  0  0  0  0  0  0  0  0  0  0
   -0.7497    0.8524    0.5655 C   0  0  0  0  0  0  0  0  0  0  0  0
   -1.8895    1.3053    0.5072 O   0  0  0  0  0  0  0  0  0  0  0  0
    0.1846    1.4952    1.3566 N   0  0  0  0  0  0  0  0  0  0  0  0
    1.1080    1.0766    1.4279 H   0  0  0  0  0  0  0  0  0  0  0  0
   -0.0633    2.7710    2.0165 C   0  0  0  0  0  0  0  0  0  0  0  0
   -0.8820    2.6771    2.7377 H   0  0  0  0  0  0  0  0  0  0  0  0
    0.8328    3.0993    2.5518 H   0  0  0  0  0  0  0  0  0  0  0  0
   -0.3269    3.5379    1.2805 H   0  0  0  0  0  0  0  0  0  0  0  0
  1  2  1  0  0  0  0
  2  3  1  0  0  0  0
  2  4  1  0  0  0  0
  2  5  1  0  0  0  0
  5  6  2  0  0  0  0
  5  7  1  0  0  0  0
  7  8  1  0  0  0  0
  7  9  1  0  0  0  0
  9 10  1  0  0  0  0
  9 11  1  0  0  0  0
  9 22  1  0  0  0  0
 11 12  1  0  0  0  0
 11 13  1  0  0  0  0
 11 14  1  0  0  0  0
 14 15  1  0  0  0  0
 14 20  2  0  0  0  0
 15 16  2  0  0  0  0
 16 17  1  0  0  0  0
 16 18  1  0  0  0  0
 18 19  1  0  0  0  0
 18 20  1  0  0  0  0
 20 21  1  0  0  0  0
 22 23  2  0  0  0  0
 22 24  1  0  0  0  0
 24 25  1  0  0  0  0
 24 26  1  0  0  0  0
 26 27  1  0  0  0  0
 26 28  1  0  0  0  0
 26 29  1  0  0  0  0
M  END
$$$$

  -OEChem-04042215593D

 29 29  0     1  0  0  0  0  0999 V2000
   -2.5806   -4.5011    1.3152 H   0  0  0  0  0  0  0  0  0  0  0  0
   -2.8268   -3.5001    0.9495 C   0  0  0  0  0  0  0  0  0  0  0  0
   -3.3948   -2.9738    1.7206 H   0  0  0  0  0  0  0  0  0  0  0  0
   -3.4434   -3.5948    0.0524 H   0  0  0  0  0  0  0  0  0  0  0  0
   -1.5576   -2.7341    0.6266 C   0  0  0  0  0  0  0  0  0  0  0  0
   -0.4710   -3.2748    0.7530 O   0  0  0  0  0  0  0  0  0  0  0  0
   -1.6399   -1.4249    0.2003 N   0  0  0  0  0  0  0  0  0  0  0  0
   -2.5574   -0.9860    0.2437 H   0  0  0  0  0  0  0  0  0  0  0  0
   -0.4886   -0.5250    0.0350 C   0  0  1  0  0  0  0  0  0  0  0  0
    0.3249   -0.9320    0.6449 H   0  0  0  0  0  0  0  0  0  0  0  0
    0.0279   -0.5500   -1.4195 C   0  0  0  0  0  0  0  0  0  0  0  0
    1.1004   -0.3369   -1.3858 H   0  0  0  0  0  0  0  0  0  0  0  0
   -0.0824   -1.5558   -1.8349 H   0  0  0  0  0  0  0  0  0  0  0  0
   -0.5744    0.4400   -2.3813 C   0  0  0  0  0  0  0  0  0  0  0  0
    0.1565    0.9428   -3.4508 N   0  0  0  0  0  0  0  0  0  0  0  0
   -0.6404    1.7520   -4.1063 C   0  0  0  0  0  0  0  0  0  0  0  0
   -0.3635    2.3093   -4.9966 H   0  0  0  0  0  0  0  0  0  0  0  0
   -1.8795    1.7873   -3.4981 N   0  0  0  0  0  0  0  0  0  0  0  0
   -2.6713    2.3488   -3.8051 H   0  0  0  0  0  0  0  0  0  0  0  0
   -1.8448    0.9479   -2.4058 C   0  0  0  0  0  0  0  0  0  0  0  0
   -2.6446    0.7338   -1.7034 H   0  0  0  0  0  0  0  0  0  0  0  0
   -0.7512    0.8784    0.6253 C   0  0  0  0  0  0  0  0  0  0  0  0
   -1.8901    1.3359    0.6248 O   0  0  0  0  0  0  0  0  0  0  0  0
    0.2143    1.4987    1.3971 N   0  0  0  0  0  0  0  0  0  0  0  0
    1.1323    1.0645    1.4401 H   0  0  0  0  0  0  0  0  0  0  0  0
   -0.0074    2.7489    2.1133 C   0  0  0  0  0  0  0  0  0  0  0  0
   -0.8218    2.6381    2.8369 H   0  0  0  0  0  0  0  0  0  0  0  0
    0.8977    3.0387    2.6554 H   0  0  0  0  0  0  0  0  0  0  0  0
   -0.2629    3.5510    1.4131 H   0  0  0  0  0  0  0  0  0  0  0  0
  1  2  1  0  0  0  0
  2  3  1  0  0  0  0
  2  4  1  0  0  0  0
  2  5  1  0  0  0  0
  5  6  2  0  0  0  0
  5  7  1  0  0  0  0
  7  8  1  0  0  0  0
  7  9  1  0  0  0  0
  9 10  1  0  0  0  0
  9 11  1  0  0  0  0
  9 22  1  0  0  0  0
 11 12  1  0  0  0  0
 11 13  1  0  0  0  0
 11 14  1  0  0  0  0
 14 15  1  0  0  0  0
 14 20  2  0  0  0  0
 15 16  2  0  0  0  0
 16 17  1  0  0  0  0
 16 18  1  0  0  0  0
 18 19  1  0  0  0  0
 18 20  1  0  0  0  0
 20 21  1  0  0  0  0
 22 23  2  0  0  0  0
 22 24  1  0  0  0  0
 24 25  1  0  0  0  0
 24 26  1  0  0  0  0
 26 27  1  0  0  0  0
 26 28  1  0  0  0  0
 26 29  1  0  0  0  0
M  END
$$$$

  -OEChem-04042215593D

 29 29  0     1  0  0  0  0  0999 V2000
   -2.5544   -4.5172    1.2417 H   0  0  0  0  0  0  0  0  0  0  0  0
   -2.8148   -3.5053    0.9187 C   0  0  0  0  0  0  0  0  0  0  0  0
   -3.3852   -3.0183    1.7134 H   0  0  0  0  0  0  0  0  0  0  0  0
   -3.4346   -3.5705    0.0213 H   0  0  0  0  0  0  0  0  0  0  0  0
   -1.5561   -2.7121    0.6216 C   0  0  0  0  0  0  0  0  0  0  0  0
   -0.4627   -3.2434    0.7302 O   0  0  0  0  0  0  0  0  0  0  0  0
   -1.6548   -1.3913    0.2355 N   0  0  0  0  0  0  0  0  0  0  0  0
   -2.5793   -0.9673    0.2744 H   0  0  0  0  0  0  0  0  0  0  0  0
   -0.5145   -0.4791    0.0614 C   0  0  1  0  0  0  0  0  0  0  0  0
    0.3061   -0.8991    0.6525 H   0  0  0  0  0  0  0  0  0  0  0  0
   -0.0047   -0.4928   -1.3963 C   0  0  0  0  0  0  0  0  0  0  0  0
    1.0665   -0.2736   -1.3650 H   0  0  0  0  0  0  0  0  0  0  0  0
   -0.1085   -1.5016   -1.8069 H   0  0  0  0  0  0  0  0  0  0  0  0
   -0.6060    0.4821   -2.3766 C   0  0  0  0  0  0  0  0  0  0  0  0
    0.0222    0.7255   -3.5924 N   0  0  0  0  0  0  0  0  0  0  0  0
   -0.7398    1.5592   -4.2576 C   0  0  0  0  0  0  0  0  0  0  0  0
   -0.5199    1.9488   -5.2475 H   0  0  0  0  0  0  0  0  0  0  0  0
   -1.8634    1.8603   -3.5153 N   0  0  0  0  0  0  0  0  0  0  0  0
   -2.6162    2.4788   -3.8108 H   0  0  0  0  0  0  0  0  0  0  0  0
   -1.7922    1.1649   -2.3276 C   0  0  0  0  0  0  0  0  0  0  0  0
   -2.5294    1.1461   -1.5315 H   0  0  0  0  0  0  0  0  0  0  0  0
   -0.7450    0.9123    0.6915 C   0  0  0  0  0  0  0  0  0  0  0  0
   -1.8794    1.3753    0.7553 O   0  0  0  0  0  0  0  0  0  0  0  0
    0.2545    1.5053    1.4414 N   0  0  0  0  0  0  0  0  0  0  0  0
    1.1671    1.0578    1.4462 H   0  0  0  0  0  0  0  0  0  0  0  0
    0.0667    2.7281    2.2125 C   0  0  0  0  0  0  0  0  0  0  0  0
   -0.6981    2.5823    2.9826 H   0  0  0  0  0  0  0  0  0  0  0  0
    1.0025    3.0112    2.7042 H   0  0  0  0  0  0  0  0  0  0  0  0
   -0.2423    3.5499    1.5580 H   0  0  0  0  0  0  0  0  0  0  0  0
  1  2  1  0  0  0  0
  2  3  1  0  0  0  0
  2  4  1  0  0  0  0
  2  5  1  0  0  0  0
  5  6  2  0  0  0  0
  5  7  1  0  0  0  0
  7  8  1  0  0  0  0
  7  9  1  0  0  0  0
  9 10  1  0  0  0  0
  9 11  1  0  0  0  0
  9 22  1  0  0  0  0
 11 12  1  0  0  0  0
 11 13  1  0  0  0  0
 11 14  1  0  0  0  0
 14 15  1  0  0  0  0
 14 20  2  0  0  0  0
 15 16  2  0  0  0  0
 16 17  1  0  0  0  0
 16 18  1  0  0  0  0
 18 19  1  0  0  0  0
 18 20  1  0  0  0  0
 20 21  1  0  0  0  0
 22 23  2  0  0  0  0
 22 24  1  0  0  0  0
 24 25  1  0  0  0  0
 24 26  1  0  0  0  0
 26 27  1  0  0  0  0
 26 28  1  0  0  0  0
 26 29  1  0  0  0  0
M  END
$$$$

  -OEChem-04042215593D

 29 29  0     1  0  0  0  0  0999 V2000
   -2.5563   -4.5201    1.1231 H   0  0  0  0  0  0  0  0  0  0  0  0
   -2.8142   -3.4938    0.8470 C   0  0  0  0  0  0  0  0  0  0  0  0
   -3.3889   -3.0443    1.6603 H   0  0  0  0  0  0  0  0  0  0  0  0
   -3.4285   -3.5159   -0.0564 H   0  0  0  0  0  0  0  0  0  0  0  0
   -1.5538   -2.6881    0.5950 C   0  0  0  0  0  0  0  0  0  0  0  0
   -0.4608   -3.2227    0.6900 O   0  0  0  0  0  0  0  0  0  0  0  0
   -1.6501   -1.3525    0.2636 N   0  0  0  0  0  0  0  0  0  0  0  0
   -2.5763   -0.9307    0.2969 H   0  0  0  0  0  0  0  0  0  0  0  0
   -0.5103   -0.4375    0.1018 C   0  0  1  0  0  0  0  0  0  0  0  0
    0.3159   -0.8756    0.6717 H   0  0  0  0  0  0  0  0  0  0  0  0
   -0.0194   -0.4299   -1.3691 C   0  0  0  0  0  0  0  0  0  0  0  0
    1.0717   -0.5013   -1.3377 H   0  0  0  0  0  0  0  0  0  0  0  0
   -0.3731   -1.3417   -1.8598 H   0  0  0  0  0  0  0  0  0  0  0  0
   -0.3243    0.7277   -2.2943 C   0  0  0  0  0  0  0  0  0  0  0  0
    0.1543    0.6578   -3.5984 N   0  0  0  0  0  0  0  0  0  0  0  0
   -0.2572    1.7310   -4.2269 C   0  0  0  0  0  0  0  0  0  0  0  0
   -0.0431    1.9660   -5.2657 H   0  0  0  0  0  0  0  0  0  0  0  0
   -1.0056    2.5104   -3.3709 N   0  0  0  0  0  0  0  0  0  0  0  0
   -1.4584    3.3882   -3.6183 H   0  0  0  0  0  0  0  0  0  0  0  0
   -1.0634    1.8754   -2.1489 C   0  0  0  0  0  0  0  0  0  0  0  0
   -1.6082    2.2196   -1.2781 H   0  0  0  0  0  0  0  0  0  0  0  0
   -0.7459    0.9180    0.7981 C   0  0  0  0  0  0  0  0  0  0  0  0
   -1.8842    1.3681    0.8870 O   0  0  0  0  0  0  0  0  0  0  0  0
    0.2556    1.4906    1.5608 N   0  0  0  0  0  0  0  0  0  0  0  0
    1.1658    1.0381    1.5566 H   0  0  0  0  0  0  0  0  0  0  0  0
    0.0593    2.6659    2.4007 C   0  0  0  0  0  0  0  0  0  0  0  0
   -0.6796    2.4600    3.1822 H   0  0  0  0  0  0  0  0  0  0  0  0
    1.0012    2.9475    2.8812 H   0  0  0  0  0  0  0  0  0  0  0  0
   -0.2882    3.5127    1.7997 H   0  0  0  0  0  0  0  0  0  0  0  0
  1  2  1  0  0  0  0
  2  3  1  0  0  0  0
  2  4  1  0  0  0  0
  2  5  1  0  0  0  0
  5  6  2  0  0  0  0
  5  7  1  0  0  0  0
  7  8  1  0  0  0  0
  7  9  1  0  0  0  0
  9 10  1  0  0  0  0
  9 11  1  0  0  0  0
  9 22  1  0  0  0  0
 11 12  1  0  0  0  0
 11 13  1  0  0  0  0
 11 14  1  0  0  0  0
 14 15  1  0  0  0  0
 14 20  2  0  0  0  0
 15 16  2  0  0  0  0
 16 17  1  0  0  0  0
 16 18  1  0  0  0  0
 18 19  1  0  0  0  0
 18 20  1  0  0  0  0
 20 21  1  0  0  0  0
 22 23  2  0  0  0  0
 22 24  1  0  0  0  0
 24 25  1  0  0  0  0
 24 26  1  0  0  0  0
 26 27  1  0  0  0  0
 26 28  1  0  0  0  0
 26 29  1  0  0  0  0
M  END
$$$$

  -OEChem-04042215593D

 29 29  0     1  0  0  0  0  0999 V2000
   -2.5940   -4.5211    1.0548 H   0  0  0  0  0  0  0  0  0  0  0  0
   -2.8350   -3.4901    0.7807 C   0  0  0  0  0  0  0  0  0  0  0  0
   -3.4433   -3.0481    1.5734 H   0  0  0  0  0  0  0  0  0  0  0  0
   -3.4090   -3.4979   -0.1491 H   0  0  0  0  0  0  0  0  0  0  0  0
   -1.5610   -2.6875    0.5946 C   0  0  0  0  0  0  0  0  0  0  0  0
   -0.4753   -3.2241    0.7471 O   0  0  0  0  0  0  0  0  0  0  0  0
   -1.6357   -1.3514    0.2600 N   0  0  0  0  0  0  0  0  0  0  0  0
   -2.5610   -0.9273    0.2263 H   0  0  0  0  0  0  0  0  0  0  0  0
   -0.4835   -0.4490    0.1147 C   0  0  1  0  0  0  0  0  0  0  0  0
    0.3429   -0.8921    0.6804 H   0  0  0  0  0  0  0  0  0  0  0  0
   -0.0117   -0.4313   -1.3645 C   0  0  0  0  0  0  0  0  0  0  0  0
    1.0766   -0.5374   -1.3580 H   0  0  0  0  0  0  0  0  0  0  0  0
   -0.4029   -1.3268   -1.8573 H   0  0  0  0  0  0  0  0  0  0  0  0
   -0.3047    0.7408   -2.2781 C   0  0  0  0  0  0  0  0  0  0  0  0
   -0.1352    0.5484   -3.6454 N   0  0  0  0  0  0  0  0  0  0  0  0
   -0.4482    1.6707   -4.2436 C   0  0  0  0  0  0  0  0  0  0  0  0
   -0.4190    1.8338   -5.3173 H   0  0  0  0  0  0  0  0  0  0  0  0
   -0.8183    2.6088   -3.3041 N   0  0  0  0  0  0  0  0  0  0  0  0
   -1.1203    3.5594   -3.5091 H   0  0  0  0  0  0  0  0  0  0  0  0
   -0.7310    2.0279   -2.0572 C   0  0  0  0  0  0  0  0  0  0  0  0
   -0.9626    2.5092   -1.1143 H   0  0  0  0  0  0  0  0  0  0  0  0
   -0.7378    0.9008    0.8123 C   0  0  0  0  0  0  0  0  0  0  0  0
   -1.8659    1.3835    0.8227 O   0  0  0  0  0  0  0  0  0  0  0  0
    0.2435    1.4741    1.6006 N   0  0  0  0  0  0  0  0  0  0  0  0
    1.1361    0.9914    1.6624 H   0  0  0  0  0  0  0  0  0  0  0  0
    0.0215    2.6495    2.4336 C   0  0  0  0  0  0  0  0  0  0  0  0
   -0.7323    2.4394    3.1997 H   0  0  0  0  0  0  0  0  0  0  0  0
    0.9512    2.9393    2.9325 H   0  0  0  0  0  0  0  0  0  0  0  0
   -0.3196    3.4931    1.8246 H   0  0  0  0  0  0  0  0  0  0  0  0
  1  2  1  0  0  0  0
  2  3  1  0  0  0  0
  2  4  1  0  0  0  0
  2  5  1  0  0  0  0
  5  6  2  0  0  0  0
  5  7  1  0  0  0  0
  7  8  1  0  0  0  0
  7  9  1  0  0  0  0
  9 10  1  0  0  0  0
  9 11  1  0  0  0  0
  9 22  1  0  0  0  0
 11 12  1  0  0  0  0
 11 13  1  0  0  0  0
 11 14  1  0  0  0  0
 14 15  1  0  0  0  0
 14 20  2  0  0  0  0
 15 16  2  0  0  0  0
 16 17  1  0  0  0  0
 16 18  1  0  0  0  0
 18 19  1  0  0  0  0
 18 20  1  0  0  0  0
 20 21  1  0  0  0  0
 22 23  2  0  0  0  0
 22 24  1  0  0  0  0
 24 25  1  0  0  0  0
 24 26  1  0  0  0  0
 26 27  1  0  0  0  0
 26 28  1  0  0  0  0
 26 29  1  0  0  0  0
M  END
$$$$

  -OEChem-04042215593D

 29 29  0     1  0  0  0  0  0999 V2000
   -2.6236   -4.5079    1.0633 H   0  0  0  0  0  0  0  0  0  0  0  0
   -2.8463   -3.4812    0.7596 C   0  0  0  0  0  0  0  0  0  0  0  0
   -3.4925   -3.0233    1.5123 H   0  0  0  0  0  0  0  0  0  0  0  0
   -3.3720   -3.5039   -0.1981 H   0  0  0  0  0  0  0  0  0  0  0  0
   -1.5615   -2.6858    0.6258 C   0  0  0  0  0  0  0  0  0  0  0  0
   -0.4867   -3.2202    0.8484 O   0  0  0  0  0  0  0  0  0  0  0  0
   -1.6145   -1.3571    0.2606 N   0  0  0  0  0  0  0  0  0  0  0  0
   -2.5347   -0.9356    0.1479 H   0  0  0  0  0  0  0  0  0  0  0  0
   -0.4513   -0.4694    0.1199 C   0  0  1  0  0  0  0  0  0  0  0  0
    0.3738   -0.9062    0.6916 H   0  0  0  0  0  0  0  0  0  0  0  0
    0.0041   -0.4673   -1.3657 C   0  0  0  0  0  0  0  0  0  0  0  0
    1.0905   -0.5903   -1.3785 H   0  0  0  0  0  0  0  0  0  0  0  0
   -0.4090   -1.3553   -1.8546 H   0  0  0  0  0  0  0  0  0  0  0  0
   -0.2942    0.7179   -2.2584 C   0  0  0  0  0  0  0  0  0  0  0  0
   -0.4750    0.5022   -3.6206 N   0  0  0  0  0  0  0  0  0  0  0  0
   -0.6930    1.6692   -4.1747 C   0  0  0  0  0  0  0  0  0  0  0  0
   -0.8809    1.8306   -5.2323 H   0  0  0  0  0  0  0  0  0  0  0  0
   -0.6418    2.6575   -3.2143 N   0  0  0  0  0  0  0  0  0  0  0  0
   -0.7882    3.6507   -3.3838 H   0  0  0  0  0  0  0  0  0  0  0  0
   -0.3758    2.0636   -1.9995 C   0  0  0  0  0  0  0  0  0  0  0  0
   -0.2574    2.5674   -1.0462 H   0  0  0  0  0  0  0  0  0  0  0  0
   -0.7240    0.8923    0.7875 C   0  0  0  0  0  0  0  0  0  0  0  0
   -1.8325    1.4107    0.7076 O   0  0  0  0  0  0  0  0  0  0  0  0
    0.2368    1.4795    1.5911 N   0  0  0  0  0  0  0  0  0  0  0  0
    1.1046    0.9687    1.7310 H   0  0  0  0  0  0  0  0  0  0  0  0
   -0.0024    2.6854    2.3751 C   0  0  0  0  0  0  0  0  0  0  0  0
   -0.8018    2.5161    3.1042 H   0  0  0  0  0  0  0  0  0  0  0  0
    0.9047    2.9708    2.9167 H   0  0  0  0  0  0  0  0  0  0  0  0
   -0.2901    3.5165    1.7227 H   0  0  0  0  0  0  0  0  0  0  0  0
  1  2  1  0  0  0  0
  2  3  1  0  0  0  0
  2  4  1  0  0  0  0
  2  5  1  0  0  0  0
  5  6  2  0  0  0  0
  5  7  1  0  0  0  0
  7  8  1  0  0  0  0
  7  9  1  0  0  0  0
  9 10  1  0  0  0  0
  9 11  1  0  0  0  0
  9 22  1  0  0  0  0
 11 12  1  0  0  0  0
 11 13  1  0  0  0  0
 11 14  1  0  0  0  0
 14 15  1  0  0  0  0
 14 20  2  0  0  0  0
 15 16  2  0  0  0  0
 16 17  1  0  0  0  0
 16 18  1  0  0  0  0
 18 19  1  0  0  0  0
 18 20  1  0  0  0  0
 20 21  1  0  0  0  0
 22 23  2  0  0  0  0
 22 24  1  0  0  0  0
 24 25  1  0  0  0  0
 24 26  1  0  0  0  0
 26 27  1  0  0  0  0
 26 28  1  0  0  0  0
 26 29  1  0  0  0  0
M  END
$$$$

  -OEChem-04042215593D

 29 29  0     1  0  0  0  0  0999 V2000
   -2.6508   -4.4910    1.1025 H   0  0  0  0  0  0  0  0  0  0  0  0
   -2.8605   -3.4712    0.7680 C   0  0  0  0  0  0  0  0  0  0  0  0
   -3.5245   -2.9924    1.4917 H   0  0  0  0  0  0  0  0  0  0  0  0
   -3.3605   -3.5145   -0.2027 H   0  0  0  0  0  0  0  0  0  0  0  0
   -1.5691   -2.6845    0.6483 C   0  0  0  0  0  0  0  0  0  0  0  0
   -0.5027   -3.2158    0.9146 O   0  0  0  0  0  0  0  0  0  0  0  0
   -1.6067   -1.3666    0.2454 N   0  0  0  0  0  0  0  0  0  0  0  0
   -2.5210   -0.9482    0.0835 H   0  0  0  0  0  0  0  0  0  0  0  0
   -0.4372   -0.4876    0.1083 C   0  0  1  0  0  0  0  0  0  0  0  0
    0.3795   -0.9133    0.7002 H   0  0  0  0  0  0  0  0  0  0  0  0
    0.0288   -0.5077   -1.3719 C   0  0  0  0  0  0  0  0  0  0  0  0
    1.1158   -0.6239   -1.3784 H   0  0  0  0  0  0  0  0  0  0  0  0
   -0.3780   -1.3960   -1.8653 H   0  0  0  0  0  0  0  0  0  0  0  0
   -0.2795    0.6911   -2.2364 C   0  0  0  0  0  0  0  0  0  0  0  0
   -0.7794    0.5294   -3.5233 N   0  0  0  0  0  0  0  0  0  0  0  0
   -0.8909    1.7274   -4.0432 C   0  0  0  0  0  0  0  0  0  0  0  0
   -1.2688    1.9397   -5.0394 H   0  0  0  0  0  0  0  0  0  0  0  0
   -0.4477    2.6737   -3.1413 N   0  0  0  0  0  0  0  0  0  0  0  0
   -0.4372    3.6791   -3.3012 H   0  0  0  0  0  0  0  0  0  0  0  0
   -0.0374    2.0199   -1.9998 C   0  0  0  0  0  0  0  0  0  0  0  0
    0.3863    2.4619   -1.1038 H   0  0  0  0  0  0  0  0  0  0  0  0
   -0.7211    0.8944    0.7320 C   0  0  0  0  0  0  0  0  0  0  0  0
   -1.8215    1.4200    0.6049 O   0  0  0  0  0  0  0  0  0  0  0  0
    0.2250    1.4972    1.5421 N   0  0  0  0  0  0  0  0  0  0  0  0
    1.0741    0.9729    1.7364 H   0  0  0  0  0  0  0  0  0  0  0  0
   -0.0303    2.7208    2.2924 C   0  0  0  0  0  0  0  0  0  0  0  0
   -0.8232    2.5593    3.0303 H   0  0  0  0  0  0  0  0  0  0  0  0
    0.8751    3.0367    2.8195 H   0  0  0  0  0  0  0  0  0  0  0  0
   -0.3354    3.5277    1.6180 H   0  0  0  0  0  0  0  0  0  0  0  0
  1  2  1  0  0  0  0
  2  3  1  0  0  0  0
  2  4  1  0  0  0  0
  2  5  1  0  0  0  0
  5  6  2  0  0  0  0
  5  7  1  0  0  0  0
  7  8  1  0  0  0  0
  7  9  1  0  0  0  0
  9 10  1  0  0  0  0
  9 11  1  0  0  0  0
  9 22  1  0  0  0  0
 11 12  1  0  0  0  0
 11 13  1  0  0  0  0
 11 14  1  0  0  0  0
 14 15  1  0  0  0  0
 14 20  2  0  0  0  0
 15 16  2  0  0  0  0
 16 17  1  0  0  0  0
 16 18  1  0  0  0  0
 18 19  1  0  0  0  0
 18 20  1  0  0  0  0
 20 21  1  0  0  0  0
 22 23  2  0  0  0  0
 22 24  1  0  0  0  0
 24 25  1  0  0  0  0
 24 26  1  0  0  0  0
 26 27  1  0  0  0  0
 26 28  1  0  0  0  0
 26 29  1  0  0  0  0
M  END
$$$$

  -OEChem-04042215593D

 29 29  0     1  0  0  0  0  0999 V2000
   -2.6729   -4.4791    1.1234 H   0  0  0  0  0  0  0  0  0  0  0  0
   -2.8717   -3.4655    0.7647 C   0  0  0  0  0  0  0  0  0  0  0  0
   -3.5519   -2.9711    1.4624 H   0  0  0  0  0  0  0  0  0  0  0  0
   -3.3483   -3.5264   -0.2167 H   0  0  0  0  0  0  0  0  0  0  0  0
   -1.5760   -2.6834    0.6624 C   0  0  0  0  0  0  0  0  0  0  0  0
   -0.5175   -3.2119    0.9645 O   0  0  0  0  0  0  0  0  0  0  0  0
   -1.6003   -1.3747    0.2302 N   0  0  0  0  0  0  0  0  0  0  0  0
   -2.5084   -0.9611    0.0258 H   0  0  0  0  0  0  0  0  0  0  0  0
   -0.4265   -0.5010    0.0993 C   0  0  1  0  0  0  0  0  0  0  0  0
    0.3796   -0.9191    0.7107 H   0  0  0  0  0  0  0  0  0  0  0  0
    0.0597   -0.5392   -1.3715 C   0  0  0  0  0  0  0  0  0  0  0  0
    1.1479   -0.6452   -1.3620 H   0  0  0  0  0  0  0  0  0  0  0  0
   -0.3360   -1.4274   -1.8742 H   0  0  0  0  0  0  0  0  0  0  0  0
   -0.2563    0.6704   -2.2101 C   0  0  0  0  0  0  0  0  0  0  0  0
   -1.0283    0.5912   -3.3617 N   0  0  0  0  0  0  0  0  0  0  0  0
   -1.0571    1.7962   -3.8771 C   0  0  0  0  0  0  0  0  0  0  0  0
   -1.5955    2.0719   -4.7793 H   0  0  0  0  0  0  0  0  0  0  0  0
   -0.2946    2.6564   -3.1108 N   0  0  0  0  0  0  0  0  0  0  0  0
   -0.1638    3.6488   -3.2961 H   0  0  0  0  0  0  0  0  0  0  0  0
    0.2356    1.9398   -2.0593 C   0  0  0  0  0  0  0  0  0  0  0  0
    0.8945    2.2954   -1.2732 H   0  0  0  0  0  0  0  0  0  0  0  0
   -0.7117    0.8997    0.6842 C   0  0  0  0  0  0  0  0  0  0  0  0
   -1.8073    1.4274    0.5292 O   0  0  0  0  0  0  0  0  0  0  0  0
    0.2238    1.5144    1.4979 N   0  0  0  0  0  0  0  0  0  0  0  0
    1.0598    0.9842    1.7284 H   0  0  0  0  0  0  0  0  0  0  0  0
   -0.0359    2.7587    2.2119 C   0  0  0  0  0  0  0  0  0  0  0  0
   -0.8351    2.6187    2.9471 H   0  0  0  0  0  0  0  0  0  0  0  0
    0.8653    3.0879    2.7378 H   0  0  0  0  0  0  0  0  0  0  0  0
   -0.3338    3.5475    1.5132 H   0  0  0  0  0  0  0  0  0  0  0  0
  1  2  1  0  0  0  0
  2  3  1  0  0  0  0
  2  4  1  0  0  0  0
  2  5  1  0  0  0  0
  5  6  2  0  0  0  0
  5  7  1  0  0  0  0
  7  8  1  0  0  0  0
  7  9  1  0  0  0  0
  9 10  1  0  0  0  0
  9 11  1  0  0  0  0
  9 22  1  0  0  0  0
 11 12  1  0  0  0  0
 11 13  1  0  0  0  0
 11 14  1  0  0  0  0
 14 15  1  0  0  0  0
 14 20  2  0  0  0  0
 15 16  2  0  0  0  0
 16 17  1  0  0  0  0
 16 18  1  0  0  0  0
 18 19  1  0  0  0  0
 18 20  1  0  0  0  0
 20 21  1  0  0  0  0
 22 23  2  0  0  0  0
 22 24  1  0  0  0  0
 24 25  1  0  0  0  0
 24 26  1  0  0  0  0
 26 27  1  0  0  0  0
 26 28  1  0  0  0  0
 26 29  1  0  0  0  0
M  END
$$$$

  -OEChem-04042215593D

 29 29  0     1  0  0  0  0  0999 V2000
   -2.6916   -4.4683    1.1291 H   0  0  0  0  0  0  0  0  0  0  0  0
   -2.8817   -3.4592    0.7529 C   0  0  0  0  0  0  0  0  0  0  0  0
   -3.5753   -2.9550    1.4300 H   0  0  0  0  0  0  0  0  0  0  0  0
   -3.3384   -3.5325   -0.2371 H   0  0  0  0  0  0  0  0  0  0  0  0
   -1.5832   -2.6796    0.6670 C   0  0  0  0  0  0  0  0  0  0  0  0
   -0.5317   -3.2054    0.9973 O   0  0  0  0  0  0  0  0  0  0  0  0
   -1.5961   -1.3776    0.2151 N   0  0  0  0  0  0  0  0  0  0  0  0
   -2.4977   -0.9681   -0.0245 H   0  0  0  0  0  0  0  0  0  0  0  0
   -0.4189   -0.5082    0.0920 C   0  0  1  0  0  0  0  0  0  0  0  0
    0.3751   -0.9210    0.7228 H   0  0  0  0  0  0  0  0  0  0  0  0
    0.0933   -0.5647   -1.3671 C   0  0  0  0  0  0  0  0  0  0  0  0
    1.1816   -0.6659   -1.3380 H   0  0  0  0  0  0  0  0  0  0  0  0
   -0.2934   -1.4535   -1.8750 H   0  0  0  0  0  0  0  0  0  0  0  0
   -0.2236    0.6491   -2.1939 C   0  0  0  0  0  0  0  0  0  0  0  0
   -1.2137    0.6624   -3.1666 N   0  0  0  0  0  0  0  0  0  0  0  0
   -1.1910    1.8596   -3.7007 C   0  0  0  0  0  0  0  0  0  0  0  0
   -1.8589    2.2002   -4.4865 H   0  0  0  0  0  0  0  0  0  0  0  0
   -0.1886    2.6174   -3.1247 N   0  0  0  0  0  0  0  0  0  0  0  0
    0.0235    3.5852   -3.3587 H   0  0  0  0  0  0  0  0  0  0  0  0
    0.4426    1.8442   -2.1736 C   0  0  0  0  0  0  0  0  0  0  0  0
    1.2758    2.1149   -1.5326 H   0  0  0  0  0  0  0  0  0  0  0  0
   -0.6989    0.9068    0.6480 C   0  0  0  0  0  0  0  0  0  0  0  0
   -1.7902    1.4391    0.4796 O   0  0  0  0  0  0  0  0  0  0  0  0
    0.2315    1.5258    1.4645 N   0  0  0  0  0  0  0  0  0  0  0  0
    1.0647    0.9971    1.7065 H   0  0  0  0  0  0  0  0  0  0  0  0
   -0.0220    2.7883    2.1483 C   0  0  0  0  0  0  0  0  0  0  0  0
   -0.8468    2.6793    2.8602 H   0  0  0  0  0  0  0  0  0  0  0  0
    0.8697    3.1071    2.6965 H   0  0  0  0  0  0  0  0  0  0  0  0
   -0.2801    3.5704    1.4266 H   0  0  0  0  0  0  0  0  0  0  0  0
  1  2  1  0  0  0  0
  2  3  1  0  0  0  0
  2  4  1  0  0  0  0
  2  5  1  0  0  0  0
  5  6  2  0  0  0  0
  5  7  1  0  0  0  0
  7  8  1  0  0  0  0
  7  9  1  0  0  0  0
  9 10  1  0  0  0  0
  9 11  1  0  0  0  0
  9 22  1  0  0  0  0
 11 12  1  0  0  0  0
 11 13  1  0  0  0  0
 11 14  1  0  0  0  0
 14 15  1  0  0  0  0
 14 20  2  0  0  0  0
 15 16  2  0  0  0  0
 16 17  1  0  0  0  0
 16 18  1  0  0  0  0
 18 19  1  0  0  0  0
 18 20  1  0  0  0  0
 20 21  1  0  0  0  0
 22 23  2  0  0  0  0
 22 24  1  0  0  0  0
 24 25  1  0  0  0  0
 24 26  1  0  0  0  0
 26 27  1  0  0  0  0
 26 28  1  0  0  0  0
 26 29  1  0  0  0  0
M  END
$$$$

  -OEChem-04042215593D

 29 29  0     1  0  0  0  0  0999 V2000
   -2.7100   -4.4535    1.1356 H   0  0  0  0  0  0  0  0  0  0  0  0
   -2.8919   -3.4469    0.7490 C   0  0  0  0  0  0  0  0  0  0  0  0
   -3.5863   -2.9322    1.4175 H   0  0  0  0  0  0  0  0  0  0  0  0
   -3.3432   -3.5267   -0.2430 H   0  0  0  0  0  0  0  0  0  0  0  0
   -1.5885   -2.6754    0.6638 C   0  0  0  0  0  0  0  0  0  0  0  0
   -0.5424   -3.2025    1.0092 O   0  0  0  0  0  0  0  0  0  0  0  0
   -1.5927   -1.3781    0.1988 N   0  0  0  0  0  0  0  0  0  0  0  0
   -2.4897   -0.9701   -0.0603 H   0  0  0  0  0  0  0  0  0  0  0  0
   -0.4141   -0.5109    0.0810 C   0  0  1  0  0  0  0  0  0  0  0  0
    0.3679   -0.9194    0.7291 H   0  0  0  0  0  0  0  0  0  0  0  0
    0.1256   -0.5823   -1.3662 C   0  0  0  0  0  0  0  0  0  0  0  0
    1.2132   -0.6827   -1.3181 H   0  0  0  0  0  0  0  0  0  0  0  0
   -0.2546   -1.4727   -1.8763 H   0  0  0  0  0  0  0  0  0  0  0  0
   -0.1883    0.6303   -2.1932 C   0  0  0  0  0  0  0  0  0  0  0  0
   -1.3411    0.7483   -2.9562 N   0  0  0  0  0  0  0  0  0  0  0  0
   -1.2831    1.9254   -3.5304 C   0  0  0  0  0  0  0  0  0  0  0  0
   -2.0470    2.3330   -4.1865 H   0  0  0  0  0  0  0  0  0  0  0  0
   -0.1058    2.5640   -3.1863 N   0  0  0  0  0  0  0  0  0  0  0  0
    0.1687    3.4939   -3.4966 H   0  0  0  0  0  0  0  0  0  0  0  0
    0.6022    1.7365   -2.3406 C   0  0  0  0  0  0  0  0  0  0  0  0
    1.5654    1.9166   -1.8736 H   0  0  0  0  0  0  0  0  0  0  0  0
   -0.6906    0.9137    0.6170 C   0  0  0  0  0  0  0  0  0  0  0  0
   -1.7842    1.4436    0.4562 O   0  0  0  0  0  0  0  0  0  0  0  0
    0.2381    1.5339    1.4347 N   0  0  0  0  0  0  0  0  0  0  0  0
    1.0743    1.0086    1.6729 H   0  0  0  0  0  0  0  0  0  0  0  0
   -0.0124    2.8005    2.1116 C   0  0  0  0  0  0  0  0  0  0  0  0
   -0.8352    2.6962    2.8264 H   0  0  0  0  0  0  0  0  0  0  0  0
    0.8811    3.1218    2.6552 H   0  0  0  0  0  0  0  0  0  0  0  0
   -0.2721    3.5783    1.3859 H   0  0  0  0  0  0  0  0  0  0  0  0
  1  2  1  0  0  0  0
  2  3  1  0  0  0  0
  2  4  1  0  0  0  0
  2  5  1  0  0  0  0
  5  6  2  0  0  0  0
  5  7  1  0  0  0  0
  7  8  1  0  0  0  0
  7  9  1  0  0  0  0
  9 10  1  0  0  0  0
  9 11  1  0  0  0  0
  9 22  1  0  0  0  0
 11 12  1  0  0  0  0
 11 13  1  0  0  0  0
 11 14  1  0  0  0  0
 14 15  1  0  0  0  0
 14 20  2  0  0  0  0
 15 16  2  0  0  0  0
 16 17  1  0  0  0  0
 16 18  1  0  0  0  0
 18 19  1  0  0  0  0
 18 20  1  0  0  0  0
 20 21  1  0  0  0  0
 22 23  2  0  0  0  0
 22 24  1  0  0  0  0
 24 25  1  0  0  0  0
 24 26  1  0  0  0  0
 26 27  1  0  0  0  0
 26 28  1  0  0  0  0
 26 29  1  0  0  0  0
M  END
$$$$

  -OEChem-04042215593D

 29 29  0     1  0  0  0  0  0999 V2000
   -2.7116   -4.4457    1.1368 H   0  0  0  0  0  0  0  0  0  0  0  0
   -2.8951   -3.4389    0.7511 C   0  0  0  0  0  0  0  0  0  0  0  0
   -3.5841   -2.9233    1.4246 H   0  0  0  0  0  0  0  0  0  0  0  0
   -3.3539   -3.5182   -0.2374 H   0  0  0  0  0  0  0  0  0  0  0  0
   -1.5915   -2.6688    0.6558 C   0  0  0  0  0  0  0  0  0  0  0  0
   -0.5430   -3.1991    0.9894 O   0  0  0  0  0  0  0  0  0  0  0  0
   -1.5970   -1.3722    0.1891 N   0  0  0  0  0  0  0  0  0  0  0  0
   -2.4952   -0.9609   -0.0608 H   0  0  0  0  0  0  0  0  0  0  0  0
   -0.4211   -0.5016    0.0719 C   0  0  1  0  0  0  0  0  0  0  0  0
    0.3529   -0.9072    0.7313 H   0  0  0  0  0  0  0  0  0  0  0  0
    0.1434   -0.5861   -1.3648 C   0  0  0  0  0  0  0  0  0  0  0  0
    1.2305   -0.6850   -1.2993 H   0  0  0  0  0  0  0  0  0  0  0  0
   -0.2302   -1.4819   -1.8697 H   0  0  0  0  0  0  0  0  0  0  0  0
   -0.1659    0.6152   -2.2088 C   0  0  0  0  0  0  0  0  0  0  0  0
   -1.4198    0.8586   -2.7498 N   0  0  0  0  0  0  0  0  0  0  0  0
   -1.3297    1.9971   -3.3929 C   0  0  0  0  0  0  0  0  0  0  0  0
   -2.1491    2.4776   -3.9196 H   0  0  0  0  0  0  0  0  0  0  0  0
   -0.0396    2.4879   -3.3080 N   0  0  0  0  0  0  0  0  0  0  0  0
    0.2828    3.3620   -3.7187 H   0  0  0  0  0  0  0  0  0  0  0  0
    0.7090    1.6061   -2.5571 C   0  0  0  0  0  0  0  0  0  0  0  0
    1.7564    1.6782   -2.2812 H   0  0  0  0  0  0  0  0  0  0  0  0
   -0.6918    0.9266    0.6025 C   0  0  0  0  0  0  0  0  0  0  0  0
   -1.7945    1.4472    0.4778 O   0  0  0  0  0  0  0  0  0  0  0  0
    0.2432    1.5424    1.4167 N   0  0  0  0  0  0  0  0  0  0  0  0
    1.0890    1.0227    1.6315 H   0  0  0  0  0  0  0  0  0  0  0  0
   -0.0044    2.8002    2.1111 C   0  0  0  0  0  0  0  0  0  0  0  0
   -0.8221    2.6860    2.8304 H   0  0  0  0  0  0  0  0  0  0  0  0
    0.8927    3.1155    2.6525 H   0  0  0  0  0  0  0  0  0  0  0  0
   -0.2702    3.5867    1.3967 H   0  0  0  0  0  0  0  0  0  0  0  0
  1  2  1  0  0  0  0
  2  3  1  0  0  0  0
  2  4  1  0  0  0  0
  2  5  1  0  0  0  0
  5  6  2  0  0  0  0
  5  7  1  0  0  0  0
  7  8  1  0  0  0  0
  7  9  1  0  0  0  0
  9 10  1  0  0  0  0
  9 11  1  0  0  0  0
  9 22  1  0  0  0  0
 11 12  1  0  0  0  0
 11 13  1  0  0  0  0
 11 14  1  0  0  0  0
 14 15  1  0  0  0  0
 14 20  2  0  0  0  0
 15 16  2  0  0  0  0
 16 17  1  0  0  0  0
 16 18  1  0  0  0  0
 18 19  1  0  0  0  0
 18 20  1  0  0  0  0
 20 21  1  0  0  0  0
 22 23  2  0  0  0  0
 22 24  1  0  0  0  0
 24 25  1  0  0  0  0
 24 26  1  0  0  0  0
 26 27  1  0  0  0  0
 26 28  1  0  0  0  0
 26 29  1  0  0  0  0
M  END
$$$$

  -OEChem-04042215593D

 29 29  0     1  0  0  0  0  0999 V2000
   -2.6960   -4.4422    1.1555 H   0  0  0  0  0  0  0  0  0  0  0  0
   -2.8895   -3.4345    0.7774 C   0  0  0  0  0  0  0  0  0  0  0  0
   -3.5542   -2.9178    1.4740 H   0  0  0  0  0  0  0  0  0  0  0  0
   -3.3815   -3.5114   -0.1953 H   0  0  0  0  0  0  0  0  0  0  0  0
   -1.5878   -2.6676    0.6396 C   0  0  0  0  0  0  0  0  0  0  0  0
   -0.5289   -3.2037    0.9285 O   0  0  0  0  0  0  0  0  0  0  0  0
   -1.6070   -1.3683    0.1813 N   0  0  0  0  0  0  0  0  0  0  0  0
   -2.5139   -0.9466   -0.0141 H   0  0  0  0  0  0  0  0  0  0  0  0
   -0.4388   -0.4887    0.0567 C   0  0  1  0  0  0  0  0  0  0  0  0
    0.3332   -0.8914    0.7201 H   0  0  0  0  0  0  0  0  0  0  0  0
    0.1461   -0.5761   -1.3720 C   0  0  0  0  0  0  0  0  0  0  0  0
    1.2324   -0.6731   -1.2931 H   0  0  0  0  0  0  0  0  0  0  0  0
   -0.2214   -1.4785   -1.8693 H   0  0  0  0  0  0  0  0  0  0  0  0
   -0.1582    0.6085   -2.2430 C   0  0  0  0  0  0  0  0  0  0  0  0
   -1.4435    1.0112   -2.5736 N   0  0  0  0  0  0  0  0  0  0  0  0
   -1.3211    2.0947   -3.2999 C   0  0  0  0  0  0  0  0  0  0  0  0
   -2.1506    2.6630   -3.7107 H   0  0  0  0  0  0  0  0  0  0  0  0
    0.0170    2.3997   -3.4684 N   0  0  0  0  0  0  0  0  0  0  0  0
    0.3749    3.1995   -3.9870 H   0  0  0  0  0  0  0  0  0  0  0  0
    0.7630    1.4538   -2.7965 C   0  0  0  0  0  0  0  0  0  0  0  0
    1.8430    1.3902   -2.7051 H   0  0  0  0  0  0  0  0  0  0  0  0
   -0.7089    0.9364    0.5981 C   0  0  0  0  0  0  0  0  0  0  0  0
   -1.8313    1.4276    0.5476 O   0  0  0  0  0  0  0  0  0  0  0  0
    0.2371    1.5480    1.4035 N   0  0  0  0  0  0  0  0  0  0  0  0
    1.1070    1.0490    1.5638 H   0  0  0  0  0  0  0  0  0  0  0  0
   -0.0103    2.7840    2.1365 C   0  0  0  0  0  0  0  0  0  0  0  0
   -0.8090    2.6407    2.8717 H   0  0  0  0  0  0  0  0  0  0  0  0
    0.8950    3.0972    2.6650 H   0  0  0  0  0  0  0  0  0  0  0  0
   -0.3028    3.5851    1.4496 H   0  0  0  0  0  0  0  0  0  0  0  0
  1  2  1  0  0  0  0
  2  3  1  0  0  0  0
  2  4  1  0  0  0  0
  2  5  1  0  0  0  0
  5  6  2  0  0  0  0
  5  7  1  0  0  0  0
  7  8  1  0  0  0  0
  7  9  1  0  0  0  0
  9 10  1  0  0  0  0
  9 11  1  0  0  0  0
  9 22  1  0  0  0  0
 11 12  1  0  0  0  0
 11 13  1  0  0  0  0
 11 14  1  0  0  0  0
 14 15  1  0  0  0  0
 14 20  2  0  0  0  0
 15 16  2  0  0  0  0
 16 17  1  0  0  0  0
 16 18  1  0  0  0  0
 18 19  1  0  0  0  0
 18 20  1  0  0  0  0
 20 21  1  0  0  0  0
 22 23  2  0  0  0  0
 22 24  1  0  0  0  0
 24 25  1  0  0  0  0
 24 26  1  0  0  0  0
 26 27  1  0  0  0  0
 26 28  1  0  0  0  0
 26 29  1  0  0  0  0
M  END
$$$$

  -OEChem-04042215593D

 29 29  0     1  0  0  0  0  0999 V2000
   -2.6604   -4.4448    1.1757 H   0  0  0  0  0  0  0  0  0  0  0  0
   -2.8723   -3.4338    0.8166 C   0  0  0  0  0  0  0  0  0  0  0  0
   -3.5008   -2.9234    1.5504 H   0  0  0  0  0  0  0  0  0  0  0  0
   -3.4124   -3.5019   -0.1308 H   0  0  0  0  0  0  0  0  0  0  0  0
   -1.5787   -2.6659    0.6206 C   0  0  0  0  0  0  0  0  0  0  0  0
   -0.5070   -3.2068    0.8468 O   0  0  0  0  0  0  0  0  0  0  0  0
   -1.6193   -1.3614    0.1783 N   0  0  0  0  0  0  0  0  0  0  0  0
   -2.5347   -0.9292    0.0594 H   0  0  0  0  0  0  0  0  0  0  0  0
   -0.4598   -0.4714    0.0416 C   0  0  1  0  0  0  0  0  0  0  0  0
    0.3177   -0.8726    0.6995 H   0  0  0  0  0  0  0  0  0  0  0  0
    0.1299   -0.5512   -1.3865 C   0  0  0  0  0  0  0  0  0  0  0  0
    1.2160   -0.6479   -1.3046 H   0  0  0  0  0  0  0  0  0  0  0  0
   -0.2349   -1.4587   -1.8764 H   0  0  0  0  0  0  0  0  0  0  0  0
   -0.1702    0.6179   -2.2830 C   0  0  0  0  0  0  0  0  0  0  0  0
   -1.4137    1.2153   -2.4236 N   0  0  0  0  0  0  0  0  0  0  0  0
   -1.2611    2.2228   -3.2467 C   0  0  0  0  0  0  0  0  0  0  0  0
   -2.0543    2.8970   -3.5570 H   0  0  0  0  0  0  0  0  0  0  0  0
    0.0558    2.2943   -3.6596 N   0  0  0  0  0  0  0  0  0  0  0  0
    0.4329    2.9912   -4.2991 H   0  0  0  0  0  0  0  0  0  0  0  0
    0.7548    1.2757   -3.0461 C   0  0  0  0  0  0  0  0  0  0  0  0
    1.8113    1.0403   -3.1319 H   0  0  0  0  0  0  0  0  0  0  0  0
   -0.7343    0.9438    0.6067 C   0  0  0  0  0  0  0  0  0  0  0  0
   -1.8757    1.3922    0.6424 O   0  0  0  0  0  0  0  0  0  0  0  0
    0.2231    1.5520    1.4012 N   0  0  0  0  0  0  0  0  0  0  0  0
    1.1186    1.0830    1.4960 H   0  0  0  0  0  0  0  0  0  0  0  0
   -0.0296    2.7525    2.1889 C   0  0  0  0  0  0  0  0  0  0  0  0
   -0.7862    2.5554    2.9556 H   0  0  0  0  0  0  0  0  0  0  0  0
    0.8893    3.0790    2.6850 H   0  0  0  0  0  0  0  0  0  0  0  0
   -0.3819    3.5662    1.5462 H   0  0  0  0  0  0  0  0  0  0  0  0
  1  2  1  0  0  0  0
  2  3  1  0  0  0  0
  2  4  1  0  0  0  0
  2  5  1  0  0  0  0
  5  6  2  0  0  0  0
  5  7  1  0  0  0  0
  7  8  1  0  0  0  0
  7  9  1  0  0  0  0
  9 10  1  0  0  0  0
  9 11  1  0  0  0  0
  9 22  1  0  0  0  0
 11 12  1  0  0  0  0
 11 13  1  0  0  0  0
 11 14  1  0  0  0  0
 14 15  1  0  0  0  0
 14 20  2  0  0  0  0
 15 16  2  0  0  0  0
 16 17  1  0  0  0  0
 16 18  1  0  0  0  0
 18 19  1  0  0  0  0
 18 20  1  0  0  0  0
 20 21  1  0  0  0  0
 22 23  2  0  0  0  0
 22 24  1  0  0  0  0
 24 25  1  0  0  0  0
 24 26  1  0  0  0  0
 26 27  1  0  0  0  0
 26 28  1  0  0  0  0
 26 29  1  0  0  0  0
M  END
$$$$

  -OEChem-04042215593D

 29 29  0     1  0  0  0  0  0999 V2000
   -2.6249   -4.4525    1.1842 H   0  0  0  0  0  0  0  0  0  0  0  0
   -2.8523   -3.4375    0.8465 C   0  0  0  0  0  0  0  0  0  0  0  0
   -3.4404   -2.9332    1.6171 H   0  0  0  0  0  0  0  0  0  0  0  0
   -3.4409   -3.4948   -0.0724 H   0  0  0  0  0  0  0  0  0  0  0  0
   -1.5686   -2.6705    0.5908 C   0  0  0  0  0  0  0  0  0  0  0  0
   -0.4881   -3.2192    0.7448 O   0  0  0  0  0  0  0  0  0  0  0  0
   -1.6289   -1.3577    0.1763 N   0  0  0  0  0  0  0  0  0  0  0  0
   -2.5465   -0.9145    0.1474 H   0  0  0  0  0  0  0  0  0  0  0  0
   -0.4761   -0.4586    0.0348 C   0  0  1  0  0  0  0  0  0  0  0  0
    0.3105   -0.8656    0.6781 H   0  0  0  0  0  0  0  0  0  0  0  0
    0.1049   -0.5181   -1.3996 C   0  0  0  0  0  0  0  0  0  0  0  0
    1.1912   -0.6158   -1.3220 H   0  0  0  0  0  0  0  0  0  0  0  0
   -0.2609   -1.4259   -1.8881 H   0  0  0  0  0  0  0  0  0  0  0  0
   -0.1893    0.6435   -2.3117 C   0  0  0  0  0  0  0  0  0  0  0  0
   -1.3185    1.4477   -2.2862 N   0  0  0  0  0  0  0  0  0  0  0  0
   -1.1633    2.3623   -3.2107 C   0  0  0  0  0  0  0  0  0  0  0  0
   -1.8812    3.1458   -3.4362 H   0  0  0  0  0  0  0  0  0  0  0  0
    0.0476    2.1773   -3.8495 N   0  0  0  0  0  0  0  0  0  0  0  0
    0.4057    2.7549   -4.6077 H   0  0  0  0  0  0  0  0  0  0  0  0
    0.6722    1.0889   -3.2771 C   0  0  0  0  0  0  0  0  0  0  0  0
    1.6413    0.6661   -3.5246 H   0  0  0  0  0  0  0  0  0  0  0  0
   -0.7571    0.9398    0.6378 C   0  0  0  0  0  0  0  0  0  0  0  0
   -1.9112    1.3463    0.7396 O   0  0  0  0  0  0  0  0  0  0  0  0
    0.2063    1.5432    1.4295 N   0  0  0  0  0  0  0  0  0  0  0  0
    1.1263    1.1149    1.4573 H   0  0  0  0  0  0  0  0  0  0  0  0
   -0.0451    2.7268    2.2428 C   0  0  0  0  0  0  0  0  0  0  0  0
   -0.7839    2.5070    3.0205 H   0  0  0  0  0  0  0  0  0  0  0  0
    0.8793    3.0564    2.7264 H   0  0  0  0  0  0  0  0  0  0  0  0
   -0.4198    3.5463    1.6204 H   0  0  0  0  0  0  0  0  0  0  0  0
  1  2  1  0  0  0  0
  2  3  1  0  0  0  0
  2  4  1  0  0  0  0
  2  5  1  0  0  0  0
  5  6  2  0  0  0  0
  5  7  1  0  0  0  0
  7  8  1  0  0  0  0
  7  9  1  0  0  0  0
  9 10  1  0  0  0  0
  9 11  1  0  0  0  0
  9 22  1  0  0  0  0
 11 12  1  0  0  0  0
 11 13  1  0  0  0  0
 11 14  1  0  0  0  0
 14 15  1  0  0  0  0
 14 20  2  0  0  0  0
 15 16  2  0  0  0  0
 16 17  1  0  0  0  0
 16 18  1  0  0  0  0
 18 19  1  0  0  0  0
 18 20  1  0  0  0  0
 20 21  1  0  0  0  0
 22 23  2  0  0  0  0
 22 24  1  0  0  0  0
 24 25  1  0  0  0  0
 24 26  1  0  0  0  0
 26 27  1  0  0  0  0
 26 28  1  0  0  0  0
 26 29  1  0  0  0  0
M  END
$$$$

  -OEChem-04042215593D

 29 29  0     1  0  0  0  0  0999 V2000
   -2.6036   -4.4522    1.1612 H   0  0  0  0  0  0  0  0  0  0  0  0
   -2.8388   -3.4315    0.8470 C   0  0  0  0  0  0  0  0  0  0  0  0
   -3.3966   -2.9363    1.6455 H   0  0  0  0  0  0  0  0  0  0  0  0
   -3.4605   -3.4726   -0.0506 H   0  0  0  0  0  0  0  0  0  0  0  0
   -1.5617   -2.6659    0.5569 C   0  0  0  0  0  0  0  0  0  0  0  0
   -0.4792   -3.2229    0.6569 O   0  0  0  0  0  0  0  0  0  0  0  0
   -1.6299   -1.3448    0.1710 N   0  0  0  0  0  0  0  0  0  0  0  0
   -2.5438   -0.8938    0.2031 H   0  0  0  0  0  0  0  0  0  0  0  0
   -0.4775   -0.4435    0.0384 C   0  0  1  0  0  0  0  0  0  0  0  0
    0.3147   -0.8612    0.6683 H   0  0  0  0  0  0  0  0  0  0  0  0
    0.0904   -0.4827   -1.4033 C   0  0  0  0  0  0  0  0  0  0  0  0
    1.1776   -0.5758   -1.3284 H   0  0  0  0  0  0  0  0  0  0  0  0
   -0.2700   -1.3907   -1.8956 H   0  0  0  0  0  0  0  0  0  0  0  0
   -0.1928    0.6794   -2.3203 C   0  0  0  0  0  0  0  0  0  0  0  0
   -1.1385    1.6806   -2.1596 N   0  0  0  0  0  0  0  0  0  0  0  0
   -1.0314    2.4868   -3.1861 C   0  0  0  0  0  0  0  0  0  0  0  0
   -1.6410    3.3710   -3.3491 H   0  0  0  0  0  0  0  0  0  0  0  0
   -0.0280    2.0411   -4.0237 N   0  0  0  0  0  0  0  0  0  0  0  0
    0.2516    2.4871   -4.8953 H   0  0  0  0  0  0  0  0  0  0  0  0
    0.5084    0.8949   -3.4756 C   0  0  0  0  0  0  0  0  0  0  0  0
    1.3130    0.2792   -3.8665 H   0  0  0  0  0  0  0  0  0  0  0  0
   -0.7654    0.9371    0.6778 C   0  0  0  0  0  0  0  0  0  0  0  0
   -1.9261    1.3178    0.8098 O   0  0  0  0  0  0  0  0  0  0  0  0
    0.1971    1.5293    1.4787 N   0  0  0  0  0  0  0  0  0  0  0  0
    1.1324    1.1352    1.4580 H   0  0  0  0  0  0  0  0  0  0  0  0
   -0.0573    2.7011    2.3077 C   0  0  0  0  0  0  0  0  0  0  0  0
   -0.7932    2.4680    3.0843 H   0  0  0  0  0  0  0  0  0  0  0  0
    0.8664    3.0290    2.7936 H   0  0  0  0  0  0  0  0  0  0  0  0
   -0.4374    3.5265    1.6965 H   0  0  0  0  0  0  0  0  0  0  0  0
  1  2  1  0  0  0  0
  2  3  1  0  0  0  0
  2  4  1  0  0  0  0
  2  5  1  0  0  0  0
  5  6  2  0  0  0  0
  5  7  1  0  0  0  0
  7  8  1  0  0  0  0
  7  9  1  0  0  0  0
  9 10  1  0  0  0  0
  9 11  1  0  0  0  0
  9 22  1  0  0  0  0
 11 12  1  0  0  0  0
 11 13  1  0  0  0  0
 11 14  1  0  0  0  0
 14 15  1  0  0  0  0
 14 20  2  0  0  0  0
 15 16  2  0  0  0  0
 16 17  1  0  0  0  0
 16 18  1  0  0  0  0
 18 19  1  0  0  0  0
 18 20  1  0  0  0  0
 20 21  1  0  0  0  0
 22 23  2  0  0  0  0
 22 24  1  0  0  0  0
 24 25  1  0  0  0  0
 24 26  1  0  0  0  0
 26 27  1  0  0  0  0
 26 28  1  0  0  0  0
 26 29  1  0  0  0  0
M  END
$$$$

  -OEChem-04042215593D

 29 29  0     1  0  0  0  0  0999 V2000
   -2.6123   -4.4460    1.1408 H   0  0  0  0  0  0  0  0  0  0  0  0
   -2.8426   -3.4226    0.8319 C   0  0  0  0  0  0  0  0  0  0  0  0
   -3.3900   -2.9263    1.6370 H   0  0  0  0  0  0  0  0  0  0  0  0
   -3.4721   -3.4561   -0.0607 H   0  0  0  0  0  0  0  0  0  0  0  0
   -1.5623   -2.6658    0.5330 C   0  0  0  0  0  0  0  0  0  0  0  0
   -0.4840   -3.2346    0.6094 O   0  0  0  0  0  0  0  0  0  0  0  0
   -1.6237   -1.3397    0.1632 N   0  0  0  0  0  0  0  0  0  0  0  0
   -2.5316   -0.8798    0.2284 H   0  0  0  0  0  0  0  0  0  0  0  0
   -0.4641   -0.4448    0.0455 C   0  0  1  0  0  0  0  0  0  0  0  0
    0.3273   -0.8730    0.6692 H   0  0  0  0  0  0  0  0  0  0  0  0
    0.0951   -0.4672   -1.4007 C   0  0  0  0  0  0  0  0  0  0  0  0
    1.1824   -0.5518   -1.3209 H   0  0  0  0  0  0  0  0  0  0  0  0
   -0.2541   -1.3749   -1.9016 H   0  0  0  0  0  0  0  0  0  0  0  0
   -0.1716    0.7036   -2.3137 C   0  0  0  0  0  0  0  0  0  0  0  0
   -0.8796    1.8667   -2.0483 N   0  0  0  0  0  0  0  0  0  0  0  0
   -0.8736    2.5872   -3.1420 C   0  0  0  0  0  0  0  0  0  0  0  0
   -1.3516    3.5565   -3.2510 H   0  0  0  0  0  0  0  0  0  0  0  0
   -0.1689    1.9268   -4.1285 N   0  0  0  0  0  0  0  0  0  0  0  0
   -0.0230    2.2686   -5.0765 H   0  0  0  0  0  0  0  0  0  0  0  0
    0.2755    0.7301   -3.6071 C   0  0  0  0  0  0  0  0  0  0  0  0
    0.8513   -0.0443   -4.1054 H   0  0  0  0  0  0  0  0  0  0  0  0
   -0.7597    0.9239    0.7053 C   0  0  0  0  0  0  0  0  0  0  0  0
   -1.9243    1.2964    0.8304 O   0  0  0  0  0  0  0  0  0  0  0  0
    0.1946    1.5061    1.5224 N   0  0  0  0  0  0  0  0  0  0  0  0
    1.1426    1.1485    1.4612 H   0  0  0  0  0  0  0  0  0  0  0  0
   -0.0598    2.6934    2.3286 C   0  0  0  0  0  0  0  0  0  0  0  0
   -0.8410    2.4935    3.0694 H   0  0  0  0  0  0  0  0  0  0  0  0
    0.8494    2.9928    2.8582 H   0  0  0  0  0  0  0  0  0  0  0  0
   -0.3807    3.5250    1.6925 H   0  0  0  0  0  0  0  0  0  0  0  0
  1  2  1  0  0  0  0
  2  3  1  0  0  0  0
  2  4  1  0  0  0  0
  2  5  1  0  0  0  0
  5  6  2  0  0  0  0
  5  7  1  0  0  0  0
  7  8  1  0  0  0  0
  7  9  1  0  0  0  0
  9 10  1  0  0  0  0
  9 11  1  0  0  0  0
  9 22  1  0  0  0  0
 11 12  1  0  0  0  0
 11 13  1  0  0  0  0
 11 14  1  0  0  0  0
 14 15  1  0  0  0  0
 14 20  2  0  0  0  0
 15 16  2  0  0  0  0
 16 17  1  0  0  0  0
 16 18  1  0  0  0  0
 18 19  1  0  0  0  0
 18 20  1  0  0  0  0
 20 21  1  0  0  0  0
 22 23  2  0  0  0  0
 22 24  1  0  0  0  0
 24 25  1  0  0  0  0
 24 26  1  0  0  0  0
 26 27  1  0  0  0  0
 26 28  1  0  0  0  0
 26 29  1  0  0  0  0
M  END
$$$$

  -OEChem-04042215593D

 29 29  0     1  0  0  0  0  0999 V2000
   -2.6469   -4.4276    1.1342 H   0  0  0  0  0  0  0  0  0  0  0  0
   -2.8607   -3.4016    0.8218 C   0  0  0  0  0  0  0  0  0  0  0  0
   -3.4001   -2.8939    1.6252 H   0  0  0  0  0  0  0  0  0  0  0  0
   -3.4903   -3.4281   -0.0708 H   0  0  0  0  0  0  0  0  0  0  0  0
   -1.5682   -2.6663    0.5214 C   0  0  0  0  0  0  0  0  0  0  0  0
   -0.4989   -3.2510    0.6016 O   0  0  0  0  0  0  0  0  0  0  0  0
   -1.6088   -1.3406    0.1477 N   0  0  0  0  0  0  0  0  0  0  0  0
   -2.5089   -0.8662    0.2174 H   0  0  0  0  0  0  0  0  0  0  0  0
   -0.4353   -0.4616    0.0462 C   0  0  1  0  0  0  0  0  0  0  0  0
    0.3504   -0.8963    0.6732 H   0  0  0  0  0  0  0  0  0  0  0  0
    0.1192   -0.4832   -1.4025 C   0  0  0  0  0  0  0  0  0  0  0  0
    1.2056   -0.5721   -1.3183 H   0  0  0  0  0  0  0  0  0  0  0  0
   -0.2304   -1.3892   -1.9067 H   0  0  0  0  0  0  0  0  0  0  0  0
   -0.1270    0.6977   -2.3095 C   0  0  0  0  0  0  0  0  0  0  0  0
   -0.5539    1.9744   -1.9709 N   0  0  0  0  0  0  0  0  0  0  0  0
   -0.6858    2.6509   -3.0849 C   0  0  0  0  0  0  0  0  0  0  0  0
   -1.0125    3.6848   -3.1500 H   0  0  0  0  0  0  0  0  0  0  0  0
   -0.3467    1.8504   -4.1572 N   0  0  0  0  0  0  0  0  0  0  0  0
   -0.3769    2.1333   -5.1350 H   0  0  0  0  0  0  0  0  0  0  0  0
    0.0027    0.6091   -3.6692 C   0  0  0  0  0  0  0  0  0  0  0  0
    0.3046   -0.2696   -4.2314 H   0  0  0  0  0  0  0  0  0  0  0  0
   -0.7433    0.9056    0.7039 C   0  0  0  0  0  0  0  0  0  0  0  0
   -1.9103    1.2849    0.7863 O   0  0  0  0  0  0  0  0  0  0  0  0
    0.1908    1.4886    1.5431 N   0  0  0  0  0  0  0  0  0  0  0  0
    1.1459    1.1513    1.4779 H   0  0  0  0  0  0  0  0  0  0  0  0
   -0.0742    2.6991    2.3101 C   0  0  0  0  0  0  0  0  0  0  0  0
   -0.8818    2.5278    3.0295 H   0  0  0  0  0  0  0  0  0  0  0  0
    0.8212    3.0002    2.8620 H   0  0  0  0  0  0  0  0  0  0  0  0
   -0.3625    3.5184    1.6433 H   0  0  0  0  0  0  0  0  0  0  0  0
  1  2  1  0  0  0  0
  2  3  1  0  0  0  0
  2  4  1  0  0  0  0
  2  5  1  0  0  0  0
  5  6  2  0  0  0  0
  5  7  1  0  0  0  0
  7  8  1  0  0  0  0
  7  9  1  0  0  0  0
  9 10  1  0  0  0  0
  9 11  1  0  0  0  0
  9 22  1  0  0  0  0
 11 12  1  0  0  0  0
 11 13  1  0  0  0  0
 11 14  1  0  0  0  0
 14 15  1  0  0  0  0
 14 20  2  0  0  0  0
 15 16  2  0  0  0  0
 16 17  1  0  0  0  0
 16 18  1  0  0  0  0
 18 19  1  0  0  0  0
 18 20  1  0  0  0  0
 20 21  1  0  0  0  0
 22 23  2  0  0  0  0
 22 24  1  0  0  0  0
 24 25  1  0  0  0  0
 24 26  1  0  0  0  0
 26 27  1  0  0  0  0
 26 28  1  0  0  0  0
 26 29  1  0  0  0  0
M  END
$$$$

  -OEChem-04042215593D

 29 29  0     1  0  0  0  0  0999 V2000
   -2.6790   -4.4138    1.1716 H   0  0  0  0  0  0  0  0  0  0  0  0
   -2.8776   -3.3948    0.8279 C   0  0  0  0  0  0  0  0  0  0  0  0
   -3.4269   -2.8613    1.6074 H   0  0  0  0  0  0  0  0  0  0  0  0
   -3.4911   -3.4399   -0.0751 H   0  0  0  0  0  0  0  0  0  0  0  0
   -1.5734   -2.6787    0.5317 C   0  0  0  0  0  0  0  0  0  0  0  0
   -0.5123   -3.2742    0.6333 O   0  0  0  0  0  0  0  0  0  0  0  0
   -1.5942   -1.3587    0.1365 N   0  0  0  0  0  0  0  0  0  0  0  0
   -2.4892   -0.8730    0.1922 H   0  0  0  0  0  0  0  0  0  0  0  0
   -0.4085   -0.4944    0.0430 C   0  0  1  0  0  0  0  0  0  0  0  0
    0.3720   -0.9269    0.6777 H   0  0  0  0  0  0  0  0  0  0  0  0
    0.1404   -0.5251   -1.4076 C   0  0  0  0  0  0  0  0  0  0  0  0
    1.2266   -0.6233   -1.3276 H   0  0  0  0  0  0  0  0  0  0  0  0
   -0.2187   -1.4271   -1.9125 H   0  0  0  0  0  0  0  0  0  0  0  0
   -0.0976    0.6663   -2.3023 C   0  0  0  0  0  0  0  0  0  0  0  0
   -0.2237    1.9976   -1.9269 N   0  0  0  0  0  0  0  0  0  0  0  0
   -0.4899    2.6823   -3.0118 C   0  0  0  0  0  0  0  0  0  0  0  0
   -0.6517    3.7560   -3.0449 H   0  0  0  0  0  0  0  0  0  0  0  0
   -0.5313    1.8339   -4.1002 N   0  0  0  0  0  0  0  0  0  0  0  0
   -0.7349    2.1148   -5.0575 H   0  0  0  0  0  0  0  0  0  0  0  0
   -0.2893    0.5525   -3.6525 C   0  0  0  0  0  0  0  0  0  0  0  0
   -0.2706   -0.3665   -4.2308 H   0  0  0  0  0  0  0  0  0  0  0  0
   -0.7289    0.8810    0.6773 C   0  0  0  0  0  0  0  0  0  0  0  0
   -1.8932    1.2776    0.6959 O   0  0  0  0  0  0  0  0  0  0  0  0
    0.1829    1.4775    1.5310 N   0  0  0  0  0  0  0  0  0  0  0  0
    1.1420    1.1484    1.4805 H   0  0  0  0  0  0  0  0  0  0  0  0
   -0.0897    2.7273    2.2289 C   0  0  0  0  0  0  0  0  0  0  0  0
   -0.9499    2.6142    2.8968 H   0  0  0  0  0  0  0  0  0  0  0  0
    0.7761    3.0217    2.8294 H   0  0  0  0  0  0  0  0  0  0  0  0
   -0.3024    3.5261    1.5107 H   0  0  0  0  0  0  0  0  0  0  0  0
  1  2  1  0  0  0  0
  2  3  1  0  0  0  0
  2  4  1  0  0  0  0
  2  5  1  0  0  0  0
  5  6  2  0  0  0  0
  5  7  1  0  0  0  0
  7  8  1  0  0  0  0
  7  9  1  0  0  0  0
  9 10  1  0  0  0  0
  9 11  1  0  0  0  0
  9 22  1  0  0  0  0
 11 12  1  0  0  0  0
 11 13  1  0  0  0  0
 11 14  1  0  0  0  0
 14 15  1  0  0  0  0
 14 20  2  0  0  0  0
 15 16  2  0  0  0  0
 16 17  1  0  0  0  0
 16 18  1  0  0  0  0
 18 19  1  0  0  0  0
 18 20  1  0  0  0  0
 20 21  1  0  0  0  0
 22 23  2  0  0  0  0
 22 24  1  0  0  0  0
 24 25  1  0  0  0  0
 24 26  1  0  0  0  0
 26 27  1  0  0  0  0
 26 28  1  0  0  0  0
 26 29  1  0  0  0  0
M  END
$$$$

  -OEChem-04042215593D

 29 29  0     1  0  0  0  0  0999 V2000
   -2.6927   -4.4131    1.2233 H   0  0  0  0  0  0  0  0  0  0  0  0
   -2.8850   -3.4028    0.8515 C   0  0  0  0  0  0  0  0  0  0  0  0
   -3.4483   -2.8513    1.6082 H   0  0  0  0  0  0  0  0  0  0  0  0
   -3.4822   -3.4701   -0.0610 H   0  0  0  0  0  0  0  0  0  0  0  0
   -1.5754   -2.6942    0.5607 C   0  0  0  0  0  0  0  0  0  0  0  0
   -0.5170   -3.2872    0.6979 O   0  0  0  0  0  0  0  0  0  0  0  0
   -1.5873   -1.3844    0.1321 N   0  0  0  0  0  0  0  0  0  0  0  0
   -2.4819   -0.8957    0.1608 H   0  0  0  0  0  0  0  0  0  0  0  0
   -0.3963   -0.5278    0.0333 C   0  0  1  0  0  0  0  0  0  0  0  0
    0.3835   -0.9474    0.6775 H   0  0  0  0  0  0  0  0  0  0  0  0
    0.1479   -0.5722   -1.4178 C   0  0  0  0  0  0  0  0  0  0  0  0
    1.2341   -0.6805   -1.3509 H   0  0  0  0  0  0  0  0  0  0  0  0
   -0.2261   -1.4688   -1.9213 H   0  0  0  0  0  0  0  0  0  0  0  0
   -0.0998    0.6286   -2.2937 C   0  0  0  0  0  0  0  0  0  0  0  0
    0.0697    1.9594   -1.9301 N   0  0  0  0  0  0  0  0  0  0  0  0
   -0.3022    2.6841   -2.9569 C   0  0  0  0  0  0  0  0  0  0  0  0
   -0.2946    3.7700   -2.9856 H   0  0  0  0  0  0  0  0  0  0  0  0
   -0.6991    1.8615   -3.9932 N   0  0  0  0  0  0  0  0  0  0  0  0
   -1.0471    2.1793   -4.8957 H   0  0  0  0  0  0  0  0  0  0  0  0
   -0.5749    0.5539   -3.5740 C   0  0  0  0  0  0  0  0  0  0  0  0
   -0.8154   -0.3522   -4.1217 H   0  0  0  0  0  0  0  0  0  0  0  0
   -0.7263    0.8617    0.6306 C   0  0  0  0  0  0  0  0  0  0  0  0
   -1.8845    1.2744    0.5911 O   0  0  0  0  0  0  0  0  0  0  0  0
    0.1710    1.4786    1.4844 N   0  0  0  0  0  0  0  0  0  0  0  0
    1.1301    1.1463    1.4555 H   0  0  0  0  0  0  0  0  0  0  0  0
   -0.1030    2.7563    2.1288 C   0  0  0  0  0  0  0  0  0  0  0  0
   -0.9915    2.6832    2.7645 H   0  0  0  0  0  0  0  0  0  0  0  0
    0.7441    3.0529    2.7544 H   0  0  0  0  0  0  0  0  0  0  0  0
   -0.2697    3.5345    1.3766 H   0  0  0  0  0  0  0  0  0  0  0  0
  1  2  1  0  0  0  0
  2  3  1  0  0  0  0
  2  4  1  0  0  0  0
  2  5  1  0  0  0  0
  5  6  2  0  0  0  0
  5  7  1  0  0  0  0
  7  8  1  0  0  0  0
  7  9  1  0  0  0  0
  9 10  1  0  0  0  0
  9 11  1  0  0  0  0
  9 22  1  0  0  0  0
 11 12  1  0  0  0  0
 11 13  1  0  0  0  0
 11 14  1  0  0  0  0
 14 15  1  0  0  0  0
 14 20  2  0  0  0  0
 15 16  2  0  0  0  0
 16 17  1  0  0  0  0
 16 18  1  0  0  0  0
 18 19  1  0  0  0  0
 18 20  1  0  0  0  0
 20 21  1  0  0  0  0
 22 23  2  0  0  0  0
 22 24  1  0  0  0  0
 24 25  1  0  0  0  0
 24 26  1  0  0  0  0
 26 27  1  0  0  0  0
 26 28  1  0  0  0  0
 26 29  1  0  0  0  0
M  END
$$$$

  -OEChem-04042215593D

 29 29  0     1  0  0  0  0  0999 V2000
   -2.6909   -4.4165    1.3005 H   0  0  0  0  0  0  0  0  0  0  0  0
   -2.8843   -3.4226    0.8873 C   0  0  0  0  0  0  0  0  0  0  0  0
   -3.4589   -2.8447    1.6153 H   0  0  0  0  0  0  0  0  0  0  0  0
   -3.4704   -3.5289   -0.0285 H   0  0  0  0  0  0  0  0  0  0  0  0
   -1.5749   -2.7192    0.5841 C   0  0  0  0  0  0  0  0  0  0  0  0
   -0.5164   -3.3060    0.7428 O   0  0  0  0  0  0  0  0  0  0  0  0
   -1.5872   -1.4194    0.1255 N   0  0  0  0  0  0  0  0  0  0  0  0
   -2.4836   -0.9338    0.1351 H   0  0  0  0  0  0  0  0  0  0  0  0
   -0.3965   -0.5631    0.0198 C   0  0  1  0  0  0  0  0  0  0  0  0
    0.3836   -0.9698    0.6719 H   0  0  0  0  0  0  0  0  0  0  0  0
    0.1491   -0.6122   -1.4283 C   0  0  0  0  0  0  0  0  0  0  0  0
    1.2352   -0.7259   -1.3743 H   0  0  0  0  0  0  0  0  0  0  0  0
   -0.2374   -1.5007   -1.9365 H   0  0  0  0  0  0  0  0  0  0  0  0
   -0.1202    0.6023   -2.2731 C   0  0  0  0  0  0  0  0  0  0  0  0
    0.3194    1.8864   -1.9722 N   0  0  0  0  0  0  0  0  0  0  0  0
   -0.1383    2.6679   -2.9205 C   0  0  0  0  0  0  0  0  0  0  0  0
    0.0229    3.7409   -2.9721 H   0  0  0  0  0  0  0  0  0  0  0  0
   -0.8485    1.9248   -3.8443 N   0  0  0  0  0  0  0  0  0  0  0  0
   -1.3143    2.3013   -4.6676 H   0  0  0  0  0  0  0  0  0  0  0  0
   -0.8383    0.6078   -3.4360 C   0  0  0  0  0  0  0  0  0  0  0  0
   -1.3077   -0.2478   -3.9118 H   0  0  0  0  0  0  0  0  0  0  0  0
   -0.7310    0.8401    0.5814 C   0  0  0  0  0  0  0  0  0  0  0  0
   -1.8804    1.2680    0.4889 O   0  0  0  0  0  0  0  0  0  0  0  0
    0.1563    1.4781    1.4295 N   0  0  0  0  0  0  0  0  0  0  0  0
    1.1142    1.1407    1.4207 H   0  0  0  0  0  0  0  0  0  0  0  0
   -0.1133    2.7849    2.0145 C   0  0  0  0  0  0  0  0  0  0  0  0
   -1.0280    2.7558    2.6160 H   0  0  0  0  0  0  0  0  0  0  0  0
    0.7148    3.0855    2.6633 H   0  0  0  0  0  0  0  0  0  0  0  0
   -0.2308    3.5375    1.2279 H   0  0  0  0  0  0  0  0  0  0  0  0
  1  2  1  0  0  0  0
  2  3  1  0  0  0  0
  2  4  1  0  0  0  0
  2  5  1  0  0  0  0
  5  6  2  0  0  0  0
  5  7  1  0  0  0  0
  7  8  1  0  0  0  0
  7  9  1  0  0  0  0
  9 10  1  0  0  0  0
  9 11  1  0  0  0  0
  9 22  1  0  0  0  0
 11 12  1  0  0  0  0
 11 13  1  0  0  0  0
 11 14  1  0  0  0  0
 14 15  1  0  0  0  0
 14 20  2  0  0  0  0
 15 16  2  0  0  0  0
 16 17  1  0  0  0  0
 16 18  1  0  0  0  0
 18 19  1  0  0  0  0
 18 20  1  0  0  0  0
 20 21  1  0  0  0  0
 22 23  2  0  0  0  0
 22 24  1  0  0  0  0
 24 25  1  0  0  0  0
 24 26  1  0  0  0  0
 26 27  1  0  0  0  0
 26 28  1  0  0  0  0
 26 29  1  0  0  0  0
M  END
$$$$

  -OEChem-04042215593D

 29 29  0     1  0  0  0  0  0999 V2000
   -2.6908   -4.4401    1.3138 H   0  0  0  0  0  0  0  0  0  0  0  0
   -2.8838   -3.4456    0.9020 C   0  0  0  0  0  0  0  0  0  0  0  0
   -3.4594   -2.8691    1.6303 H   0  0  0  0  0  0  0  0  0  0  0  0
   -3.4693   -3.5504   -0.0145 H   0  0  0  0  0  0  0  0  0  0  0  0
   -1.5740   -2.7411    0.6017 C   0  0  0  0  0  0  0  0  0  0  0  0
   -0.5146   -3.3213    0.7768 O   0  0  0  0  0  0  0  0  0  0  0  0
   -1.5884   -1.4481    0.1245 N   0  0  0  0  0  0  0  0  0  0  0  0
   -2.4876   -0.9678    0.1208 H   0  0  0  0  0  0  0  0  0  0  0  0
   -0.4014   -0.5874    0.0122 C   0  0  1  0  0  0  0  0  0  0  0  0
    0.3790   -0.9850    0.6695 H   0  0  0  0  0  0  0  0  0  0  0  0
    0.1500   -0.6367   -1.4314 C   0  0  0  0  0  0  0  0  0  0  0  0
    1.2369   -0.7496   -1.3878 H   0  0  0  0  0  0  0  0  0  0  0  0
   -0.2424   -1.5185   -1.9466 H   0  0  0  0  0  0  0  0  0  0  0  0
   -0.1443    0.5897   -2.2449 C   0  0  0  0  0  0  0  0  0  0  0  0
    0.5205    1.7983   -2.0765 N   0  0  0  0  0  0  0  0  0  0  0  0
   -0.0108    2.6310   -2.9397 C   0  0  0  0  0  0  0  0  0  0  0  0
    0.2795    3.6713   -3.0567 H   0  0  0  0  0  0  0  0  0  0  0  0
   -0.9870    1.9900   -3.6797 N   0  0  0  0  0  0  0  0  0  0  0  0
   -1.5569    2.4256   -4.4022 H   0  0  0  0  0  0  0  0  0  0  0  0
   -1.0720    0.6851   -3.2427 C   0  0  0  0  0  0  0  0  0  0  0  0
   -1.7359   -0.1013   -3.5885 H   0  0  0  0  0  0  0  0  0  0  0  0
   -0.7333    0.8261    0.5487 C   0  0  0  0  0  0  0  0  0  0  0  0
   -1.8746    1.2649    0.4204 O   0  0  0  0  0  0  0  0  0  0  0  0
    0.1494    1.4811    1.3880 N   0  0  0  0  0  0  0  0  0  0  0  0
    1.1047    1.1359    1.3999 H   0  0  0  0  0  0  0  0  0  0  0  0
   -0.1125    2.8118    1.9208 C   0  0  0  0  0  0  0  0  0  0  0  0
   -1.0340    2.8149    2.5122 H   0  0  0  0  0  0  0  0  0  0  0  0
    0.7117    3.1285    2.5671 H   0  0  0  0  0  0  0  0  0  0  0  0
   -0.2134    3.5356    1.1054 H   0  0  0  0  0  0  0  0  0  0  0  0
  1  2  1  0  0  0  0
  2  3  1  0  0  0  0
  2  4  1  0  0  0  0
  2  5  1  0  0  0  0
  5  6  2  0  0  0  0
  5  7  1  0  0  0  0
  7  8  1  0  0  0  0
  7  9  1  0  0  0  0
  9 10  1  0  0  0  0
  9 11  1  0  0  0  0
  9 22  1  0  0  0  0
 11 12  1  0  0  0  0
 11 13  1  0  0  0  0
 11 14  1  0  0  0  0
 14 15  1  0  0  0  0
 14 20  2  0  0  0  0
 15 16  2  0  0  0  0
 16 17  1  0  0  0  0
 16 18  1  0  0  0  0
 18 19  1  0  0  0  0
 18 20  1  0  0  0  0
 20 21  1  0  0  0  0
 22 23  2  0  0  0  0
 22 24  1  0  0  0  0
 24 25  1  0  0  0  0
 24 26  1  0  0  0  0
 26 27  1  0  0  0  0
 26 28  1  0  0  0  0
 26 29  1  0  0  0  0
M  END
$$$$

  -OEChem-04042215593D

 29 29  0     1  0  0  0  0  0999 V2000
   -2.6812   -4.4543    1.3252 H   0  0  0  0  0  0  0  0  0  0  0  0
   -2.8799   -3.4625    0.9092 C   0  0  0  0  0  0  0  0  0  0  0  0
   -3.4607   -2.8874    1.6346 H   0  0  0  0  0  0  0  0  0  0  0  0
   -3.4632   -3.5750   -0.0079 H   0  0  0  0  0  0  0  0  0  0  0  0
   -1.5741   -2.7501    0.6094 C   0  0  0  0  0  0  0  0  0  0  0  0
   -0.5113   -3.3193    0.7986 O   0  0  0  0  0  0  0  0  0  0  0  0
   -1.5959   -1.4591    0.1261 N   0  0  0  0  0  0  0  0  0  0  0  0
   -2.4992   -0.9878    0.1114 H   0  0  0  0  0  0  0  0  0  0  0  0
   -0.4141   -0.5919    0.0085 C   0  0  1  0  0  0  0  0  0  0  0  0
    0.3672   -0.9849    0.6674 H   0  0  0  0  0  0  0  0  0  0  0  0
    0.1443   -0.6369   -1.4313 C   0  0  0  0  0  0  0  0  0  0  0  0
    1.2318   -0.7457   -1.3899 H   0  0  0  0  0  0  0  0  0  0  0  0
   -0.2459   -1.5160   -1.9523 H   0  0  0  0  0  0  0  0  0  0  0  0
   -0.1660    0.5937   -2.2305 C   0  0  0  0  0  0  0  0  0  0  0  0
    0.6650    1.7059   -2.2665 N   0  0  0  0  0  0  0  0  0  0  0  0
    0.0756    2.5745   -3.0537 C   0  0  0  0  0  0  0  0  0  0  0  0
    0.4629    3.5626   -3.2861 H   0  0  0  0  0  0  0  0  0  0  0  0
   -1.1038    2.0474   -3.5467 N   0  0  0  0  0  0  0  0  0  0  0  0
   -1.7519    2.5330   -4.1636 H   0  0  0  0  0  0  0  0  0  0  0  0
   -1.2580    0.7790   -3.0293 C   0  0  0  0  0  0  0  0  0  0  0  0
   -2.0698    0.0766   -3.1908 H   0  0  0  0  0  0  0  0  0  0  0  0
   -0.7381    0.8267    0.5352 C   0  0  0  0  0  0  0  0  0  0  0  0
   -1.8728    1.2768    0.3941 O   0  0  0  0  0  0  0  0  0  0  0  0
    0.1508    1.4842    1.3656 N   0  0  0  0  0  0  0  0  0  0  0  0
    1.0980    1.1184    1.4024 H   0  0  0  0  0  0  0  0  0  0  0  0
   -0.1004    2.8176    1.8961 C   0  0  0  0  0  0  0  0  0  0  0  0
   -1.0240    2.8303    2.4843 H   0  0  0  0  0  0  0  0  0  0  0  0
    0.7244    3.1269    2.5451 H   0  0  0  0  0  0  0  0  0  0  0  0
   -0.1911    3.5414    1.0796 H   0  0  0  0  0  0  0  0  0  0  0  0
  1  2  1  0  0  0  0
  2  3  1  0  0  0  0
  2  4  1  0  0  0  0
  2  5  1  0  0  0  0
  5  6  2  0  0  0  0
  5  7  1  0  0  0  0
  7  8  1  0  0  0  0
  7  9  1  0  0  0  0
  9 10  1  0  0  0  0
  9 11  1  0  0  0  0
  9 22  1  0  0  0  0
 11 12  1  0  0  0  0
 11 13  1  0  0  0  0
 11 14  1  0  0  0  0
 14 15  1  0  0  0  0
 14 20  2  0  0  0  0
 15 16  2  0  0  0  0
 16 17  1  0  0  0  0
 16 18  1  0  0  0  0
 18 19  1  0  0  0  0
 18 20  1  0  0  0  0
 20 21  1  0  0  0  0
 22 23  2  0  0  0  0
 22 24  1  0  0  0  0
 24 25  1  0  0  0  0
 24 26  1  0  0  0  0
 26 27  1  0  0  0  0
 26 28  1  0  0  0  0
 26 29  1  0  0  0  0
M  END
$$$$

  -OEChem-04042215593D

 29 29  0     1  0  0  0  0  0999 V2000
   -2.6668   -4.4711    1.2955 H   0  0  0  0  0  0  0  0  0  0  0  0
   -2.8719   -3.4712    0.9028 C   0  0  0  0  0  0  0  0  0  0  0  0
   -3.4573   -2.9168    1.6404 H   0  0  0  0  0  0  0  0  0  0  0  0
   -3.4533   -3.5663   -0.0173 H   0  0  0  0  0  0  0  0  0  0  0  0
   -1.5709   -2.7440    0.6194 C   0  0  0  0  0  0  0  0  0  0  0  0
   -0.5045   -3.3048    0.8134 O   0  0  0  0  0  0  0  0  0  0  0  0
   -1.6017   -1.4514    0.1405 N   0  0  0  0  0  0  0  0  0  0  0  0
   -2.5080   -0.9861    0.1288 H   0  0  0  0  0  0  0  0  0  0  0  0
   -0.4240   -0.5801    0.0135 C   0  0  1  0  0  0  0  0  0  0  0  0
    0.3633   -0.9737    0.6653 H   0  0  0  0  0  0  0  0  0  0  0  0
    0.1264   -0.6252   -1.4290 C   0  0  0  0  0  0  0  0  0  0  0  0
    1.2145   -0.7307   -1.3902 H   0  0  0  0  0  0  0  0  0  0  0  0
   -0.2612   -1.5070   -1.9475 H   0  0  0  0  0  0  0  0  0  0  0  0
   -0.1882    0.5987   -2.2378 C   0  0  0  0  0  0  0  0  0  0  0  0
    0.7529    1.5762   -2.5313 N   0  0  0  0  0  0  0  0  0  0  0  0
    0.1303    2.4784   -3.2520 C   0  0  0  0  0  0  0  0  0  0  0  0
    0.5866    3.3851   -3.6387 H   0  0  0  0  0  0  0  0  0  0  0  0
   -1.1862    2.1049   -3.4481 N   0  0  0  0  0  0  0  0  0  0  0  0
   -1.8830    2.6486   -3.9534 H   0  0  0  0  0  0  0  0  0  0  0  0
   -1.3913    0.9006   -2.8099 C   0  0  0  0  0  0  0  0  0  0  0  0
   -2.3043    0.3170   -2.7442 H   0  0  0  0  0  0  0  0  0  0  0  0
   -0.7377    0.8379    0.5456 C   0  0  0  0  0  0  0  0  0  0  0  0
   -1.8716    1.2927    0.4169 O   0  0  0  0  0  0  0  0  0  0  0  0
    0.1615    1.4935    1.3663 N   0  0  0  0  0  0  0  0  0  0  0  0
    1.1009    1.1100    1.4241 H   0  0  0  0  0  0  0  0  0  0  0  0
   -0.0927    2.8114    1.9339 C   0  0  0  0  0  0  0  0  0  0  0  0
   -0.9970    2.7960    2.5512 H   0  0  0  0  0  0  0  0  0  0  0  0
    0.7476    3.1199    2.5634 H   0  0  0  0  0  0  0  0  0  0  0  0
   -0.2208    3.5518    1.1373 H   0  0  0  0  0  0  0  0  0  0  0  0
  1  2  1  0  0  0  0
  2  3  1  0  0  0  0
  2  4  1  0  0  0  0
  2  5  1  0  0  0  0
  5  6  2  0  0  0  0
  5  7  1  0  0  0  0
  7  8  1  0  0  0  0
  7  9  1  0  0  0  0
  9 10  1  0  0  0  0
  9 11  1  0  0  0  0
  9 22  1  0  0  0  0
 11 12  1  0  0  0  0
 11 13  1  0  0  0  0
 11 14  1  0  0  0  0
 14 15  1  0  0  0  0
 14 20  2  0  0  0  0
 15 16  2  0  0  0  0
 16 17  1  0  0  0  0
 16 18  1  0  0  0  0
 18 19  1  0  0  0  0
 18 20  1  0  0  0  0
 20 21  1  0  0  0  0
 22 23  2  0  0  0  0
 22 24  1  0  0  0  0
 24 25  1  0  0  0  0
 24 26  1  0  0  0  0
 26 27  1  0  0  0  0
 26 28  1  0  0  0  0
 26 29  1  0  0  0  0
M  END
$$$$

  -OEChem-04042215593D

 29 29  0     1  0  0  0  0  0999 V2000
   -2.6373   -4.4812    1.2930 H   0  0  0  0  0  0  0  0  0  0  0  0
   -2.8575   -3.4800    0.9121 C   0  0  0  0  0  0  0  0  0  0  0  0
   -3.4348   -2.9366    1.6640 H   0  0  0  0  0  0  0  0  0  0  0  0
   -3.4537   -3.5731    0.0011 H   0  0  0  0  0  0  0  0  0  0  0  0
   -1.5676   -2.7392    0.6139 C   0  0  0  0  0  0  0  0  0  0  0  0
   -0.4938   -3.2933    0.7845 O   0  0  0  0  0  0  0  0  0  0  0  0
   -1.6155   -1.4402    0.1530 N   0  0  0  0  0  0  0  0  0  0  0  0
   -2.5254   -0.9825    0.1615 H   0  0  0  0  0  0  0  0  0  0  0  0
   -0.4449   -0.5600    0.0190 C   0  0  1  0  0  0  0  0  0  0  0  0
    0.3481   -0.9580    0.6611 H   0  0  0  0  0  0  0  0  0  0  0  0
    0.1010   -0.5985   -1.4261 C   0  0  0  0  0  0  0  0  0  0  0  0
    1.1900   -0.6915   -1.3780 H   0  0  0  0  0  0  0  0  0  0  0  0
   -0.2697   -1.4886   -1.9423 H   0  0  0  0  0  0  0  0  0  0  0  0
   -0.2118    0.6127   -2.2585 C   0  0  0  0  0  0  0  0  0  0  0  0
    0.7717    1.4202   -2.8141 N   0  0  0  0  0  0  0  0  0  0  0  0
    0.1454    2.3609   -3.4803 C   0  0  0  0  0  0  0  0  0  0  0  0
    0.6330    3.1619   -4.0287 H   0  0  0  0  0  0  0  0  0  0  0  0
   -1.2211    2.1817   -3.3825 N   0  0  0  0  0  0  0  0  0  0  0  0
   -1.9262    2.7914   -3.7920 H   0  0  0  0  0  0  0  0  0  0  0  0
   -1.4528    1.0632   -2.6117 C   0  0  0  0  0  0  0  0  0  0  0  0
   -2.4051    0.6330   -2.3168 H   0  0  0  0  0  0  0  0  0  0  0  0
   -0.7472    0.8514    0.5724 C   0  0  0  0  0  0  0  0  0  0  0  0
   -1.8849    1.3051    0.4799 O   0  0  0  0  0  0  0  0  0  0  0  0
    0.1685    1.4958    1.3836 N   0  0  0  0  0  0  0  0  0  0  0  0
    1.1008    1.0958    1.4453 H   0  0  0  0  0  0  0  0  0  0  0  0
   -0.0830    2.7903    2.0039 C   0  0  0  0  0  0  0  0  0  0  0  0
   -0.9529    2.7354    2.6667 H   0  0  0  0  0  0  0  0  0  0  0  0
    0.7830    3.0995    2.5970 H   0  0  0  0  0  0  0  0  0  0  0  0
   -0.2690    3.5513    1.2389 H   0  0  0  0  0  0  0  0  0  0  0  0
  1  2  1  0  0  0  0
  2  3  1  0  0  0  0
  2  4  1  0  0  0  0
  2  5  1  0  0  0  0
  5  6  2  0  0  0  0
  5  7  1  0  0  0  0
  7  8  1  0  0  0  0
  7  9  1  0  0  0  0
  9 10  1  0  0  0  0
  9 11  1  0  0  0  0
  9 22  1  0  0  0  0
 11 12  1  0  0  0  0
 11 13  1  0  0  0  0
 11 14  1  0  0  0  0
 14 15  1  0  0  0  0
 14 20  2  0  0  0  0
 15 16  2  0  0  0  0
 16 17  1  0  0  0  0
 16 18  1  0  0  0  0
 18 19  1  0  0  0  0
 18 20  1  0  0  0  0
 20 21  1  0  0  0  0
 22 23  2  0  0  0  0
 22 24  1  0  0  0  0
 24 25  1  0  0  0  0
 24 26  1  0  0  0  0
 26 27  1  0  0  0  0
 26 28  1  0  0  0  0
 26 29  1  0  0  0  0
M  END
$$$$

  -OEChem-04042215593D

 29 29  0     1  0  0  0  0  0999 V2000
   -2.6061   -4.4983    1.2666 H   0  0  0  0  0  0  0  0  0  0  0  0
   -2.8406   -3.4942    0.9021 C   0  0  0  0  0  0  0  0  0  0  0  0
   -3.4231   -2.9704    1.6638 H   0  0  0  0  0  0  0  0  0  0  0  0
   -3.4379   -3.5805   -0.0087 H   0  0  0  0  0  0  0  0  0  0  0  0
   -1.5613   -2.7321    0.6114 C   0  0  0  0  0  0  0  0  0  0  0  0
   -0.4801   -3.2786    0.7577 O   0  0  0  0  0  0  0  0  0  0  0  0
   -1.6289   -1.4230    0.1821 N   0  0  0  0  0  0  0  0  0  0  0  0
   -2.5451   -0.9787    0.2050 H   0  0  0  0  0  0  0  0  0  0  0  0
   -0.4704   -0.5281    0.0383 C   0  0  1  0  0  0  0  0  0  0  0  0
    0.3308   -0.9338    0.6652 H   0  0  0  0  0  0  0  0  0  0  0  0
    0.0686   -0.5566   -1.4108 C   0  0  0  0  0  0  0  0  0  0  0  0
    1.1589   -0.6274   -1.3549 H   0  0  0  0  0  0  0  0  0  0  0  0
   -0.2782   -1.4593   -1.9220 H   0  0  0  0  0  0  0  0  0  0  0  0
   -0.2479    0.6377   -2.2705 C   0  0  0  0  0  0  0  0  0  0  0  0
    0.7098    1.2461   -3.0717 N   0  0  0  0  0  0  0  0  0  0  0  0
    0.1034    2.2195   -3.7083 C   0  0  0  0  0  0  0  0  0  0  0  0
    0.5821    2.8936   -4.4128 H   0  0  0  0  0  0  0  0  0  0  0  0
   -1.2305    2.2576   -3.3521 N   0  0  0  0  0  0  0  0  0  0  0  0
   -1.9154    2.9255   -3.7007 H   0  0  0  0  0  0  0  0  0  0  0  0
   -1.4603    1.2464   -2.4447 C   0  0  0  0  0  0  0  0  0  0  0  0
   -2.3939    0.9842   -1.9548 H   0  0  0  0  0  0  0  0  0  0  0  0
   -0.7549    0.8723    0.6263 C   0  0  0  0  0  0  0  0  0  0  0  0
   -1.8957    1.3250    0.5872 O   0  0  0  0  0  0  0  0  0  0  0  0
    0.1870    1.4984    1.4219 N   0  0  0  0  0  0  0  0  0  0  0  0
    1.1172    1.0898    1.4561 H   0  0  0  0  0  0  0  0  0  0  0  0
   -0.0479    2.7685    2.0973 C   0  0  0  0  0  0  0  0  0  0  0  0
   -0.9034    2.6901    2.7765 H   0  0  0  0  0  0  0  0  0  0  0  0
    0.8313    3.0533    2.6834 H   0  0  0  0  0  0  0  0  0  0  0  0
   -0.2480    3.5588    1.3662 H   0  0  0  0  0  0  0  0  0  0  0  0
  1  2  1  0  0  0  0
  2  3  1  0  0  0  0
  2  4  1  0  0  0  0
  2  5  1  0  0  0  0
  5  6  2  0  0  0  0
  5  7  1  0  0  0  0
  7  8  1  0  0  0  0
  7  9  1  0  0  0  0
  9 10  1  0  0  0  0
  9 11  1  0  0  0  0
  9 22  1  0  0  0  0
 11 12  1  0  0  0  0
 11 13  1  0  0  0  0
 11 14  1  0  0  0  0
 14 15  1  0  0  0  0
 14 20  2  0  0  0  0
 15 16  2  0  0  0  0
 16 17  1  0  0  0  0
 16 18  1  0  0  0  0
 18 19  1  0  0  0  0
 18 20  1  0  0  0  0
 20 21  1  0  0  0  0
 22 23  2  0  0  0  0
 22 24  1  0  0  0  0
 24 25  1  0  0  0  0
 24 26  1  0  0  0  0
 26 27  1  0  0  0  0
 26 28  1  0  0  0  0
 26 29  1  0  0  0  0
M  END
$$$$

  -OEChem-04042215593D

 29 29  0     1  0  0  0  0  0999 V2000
   -2.5711   -4.5151    1.2111 H   0  0  0  0  0  0  0  0  0  0  0  0
   -2.8216   -3.5003    0.8890 C   0  0  0  0  0  0  0  0  0  0  0  0
   -3.3933   -3.0107    1.6810 H   0  0  0  0  0  0  0  0  0  0  0  0
   -3.4361   -3.5589   -0.0127 H   0  0  0  0  0  0  0  0  0  0  0  0
   -1.5553   -2.7155    0.6027 C   0  0  0  0  0  0  0  0  0  0  0  0
   -0.4660   -3.2522    0.7233 O   0  0  0  0  0  0  0  0  0  0  0  0
   -1.6426   -1.3956    0.2115 N   0  0  0  0  0  0  0  0  0  0  0  0
   -2.5645   -0.9648    0.2455 H   0  0  0  0  0  0  0  0  0  0  0  0
   -0.4961   -0.4869    0.0600 C   0  0  1  0  0  0  0  0  0  0  0  0
    0.3130   -0.9032    0.6695 H   0  0  0  0  0  0  0  0  0  0  0  0
    0.0381   -0.5042   -1.3924 C   0  0  0  0  0  0  0  0  0  0  0  0
    1.1293   -0.5577   -1.3310 H   0  0  0  0  0  0  0  0  0  0  0  0
   -0.2906   -1.4166   -1.8983 H   0  0  0  0  0  0  0  0  0  0  0  0
   -0.2789    0.6725   -2.2795 C   0  0  0  0  0  0  0  0  0  0  0  0
    0.5910    1.0593   -3.2917 N   0  0  0  0  0  0  0  0  0  0  0  0
    0.0231    2.0594   -3.9212 C   0  0  0  0  0  0  0  0  0  0  0  0
    0.4568    2.5894   -4.7644 H   0  0  0  0  0  0  0  0  0  0  0  0
   -1.2070    2.3310   -3.3568 N   0  0  0  0  0  0  0  0  0  0  0  0
   -1.8516    3.0553   -3.6674 H   0  0  0  0  0  0  0  0  0  0  0  0
   -1.4118    1.4395   -2.3264 C   0  0  0  0  0  0  0  0  0  0  0  0
   -2.2898    1.3486   -1.6937 H   0  0  0  0  0  0  0  0  0  0  0  0
   -0.7570    0.8999    0.6882 C   0  0  0  0  0  0  0  0  0  0  0  0
   -1.8983    1.3518    0.7126 O   0  0  0  0  0  0  0  0  0  0  0  0
    0.2141    1.5030    1.4665 N   0  0  0  0  0  0  0  0  0  0  0  0
    1.1374    1.0777    1.4790 H   0  0  0  0  0  0  0  0  0  0  0  0
   -0.0040    2.7348    2.2145 C   0  0  0  0  0  0  0  0  0  0  0  0
   -0.7938    2.5961    2.9602 H   0  0  0  0  0  0  0  0  0  0  0  0
    0.9132    3.0286    2.7338 H   0  0  0  0  0  0  0  0  0  0  0  0
   -0.2940    3.5466    1.5393 H   0  0  0  0  0  0  0  0  0  0  0  0
  1  2  1  0  0  0  0
  2  3  1  0  0  0  0
  2  4  1  0  0  0  0
  2  5  1  0  0  0  0
  5  6  2  0  0  0  0
  5  7  1  0  0  0  0
  7  8  1  0  0  0  0
  7  9  1  0  0  0  0
  9 10  1  0  0  0  0
  9 11  1  0  0  0  0
  9 22  1  0  0  0  0
 11 12  1  0  0  0  0
 11 13  1  0  0  0  0
 11 14  1  0  0  0  0
 14 15  1  0  0  0  0
 14 20  2  0  0  0  0
 15 16  2  0  0  0  0
 16 17  1  0  0  0  0
 16 18  1  0  0  0  0
 18 19  1  0  0  0  0
 18 20  1  0  0  0  0
 20 21  1  0  0  0  0
 22 23  2  0  0  0  0
 22 24  1  0  0  0  0
 24 25  1  0  0  0  0
 24 26  1  0  0  0  0
 26 27  1  0  0  0  0
 26 28  1  0  0  0  0
 26 29  1  0  0  0  0
M  END
$$$$

  -OEChem-04042215593D

 29 29  0     1  0  0  0  0  0999 V2000
   -2.5294   -4.5414    1.1121 H   0  0  0  0  0  0  0  0  0  0  0  0
   -2.7939   -3.5195    0.8256 C   0  0  0  0  0  0  0  0  0  0  0  0
   -3.3767   -3.0677    1.6319 H   0  0  0  0  0  0  0  0  0  0  0  0
   -3.4033   -3.5545   -0.0807 H   0  0  0  0  0  0  0  0  0  0  0  0
   -1.5385   -2.7055    0.5744 C   0  0  0  0  0  0  0  0  0  0  0  0
   -0.4414   -3.2268    0.6928 O   0  0  0  0  0  0  0  0  0  0  0  0
   -1.6447   -1.3760    0.2217 N   0  0  0  0  0  0  0  0  0  0  0  0
   -2.5752   -0.9637    0.2470 H   0  0  0  0  0  0  0  0  0  0  0  0
   -0.5131   -0.4466    0.0866 C   0  0  1  0  0  0  0  0  0  0  0  0
    0.2980   -0.8677    0.6901 H   0  0  0  0  0  0  0  0  0  0  0  0
    0.0337   -0.4423   -1.3627 C   0  0  0  0  0  0  0  0  0  0  0  0
    1.1244   -0.4830   -1.2880 H   0  0  0  0  0  0  0  0  0  0  0  0
   -0.2763   -1.3612   -1.8690 H   0  0  0  0  0  0  0  0  0  0  0  0
   -0.2734    0.7180   -2.2792 C   0  0  0  0  0  0  0  0  0  0  0  0
    0.4642    0.8748   -3.4472 N   0  0  0  0  0  0  0  0  0  0  0  0
   -0.0384    1.9009   -4.0889 C   0  0  0  0  0  0  0  0  0  0  0  0
    0.3264    2.2800   -5.0393 H   0  0  0  0  0  0  0  0  0  0  0  0
   -1.1029    2.4178   -3.3803 N   0  0  0  0  0  0  0  0  0  0  0  0
   -1.6798    3.2040   -3.6735 H   0  0  0  0  0  0  0  0  0  0  0  0
   -1.2714    1.6572   -2.2434 C   0  0  0  0  0  0  0  0  0  0  0  0
   -2.0554    1.7636   -1.5017 H   0  0  0  0  0  0  0  0  0  0  0  0
   -0.7806    0.9199    0.7533 C   0  0  0  0  0  0  0  0  0  0  0  0
   -1.9270    1.3540    0.8143 O   0  0  0  0  0  0  0  0  0  0  0  0
    0.1936    1.5112    1.5370 N   0  0  0  0  0  0  0  0  0  0  0  0
    1.1126    1.0769    1.5515 H   0  0  0  0  0  0  0  0  0  0  0  0
   -0.0390    2.6935    2.3574 C   0  0  0  0  0  0  0  0  0  0  0  0
   -0.7926    2.4859    3.1243 H   0  0  0  0  0  0  0  0  0  0  0  0
    0.8873    2.9950    2.8558 H   0  0  0  0  0  0  0  0  0  0  0  0
   -0.3850    3.5279    1.7384 H   0  0  0  0  0  0  0  0  0  0  0  0
  1  2  1  0  0  0  0
  2  3  1  0  0  0  0
  2  4  1  0  0  0  0
  2  5  1  0  0  0  0
  5  6  2  0  0  0  0
  5  7  1  0  0  0  0
  7  8  1  0  0  0  0
  7  9  1  0  0  0  0
  9 10  1  0  0  0  0
  9 11  1  0  0  0  0
  9 22  1  0  0  0  0
 11 12  1  0  0  0  0
 11 13  1  0  0  0  0
 11 14  1  0  0  0  0
 14 15  1  0  0  0  0
 14 20  2  0  0  0  0
 15 16  2  0  0  0  0
 16 17  1  0  0  0  0
 16 18  1  0  0  0  0
 18 19  1  0  0  0  0
 18 20  1  0  0  0  0
 20 21  1  0  0  0  0
 22 23  2  0  0  0  0
 22 24  1  0  0  0  0
 24 25  1  0  0  0  0
 24 26  1  0  0  0  0
 26 27  1  0  0  0  0
 26 28  1  0  0  0  0
 26 29  1  0  0  0  0
M  END
$$$$

  -OEChem-04042215593D

 29 29  0     1  0  0  0  0  0999 V2000
   -2.5789   -4.5280    1.0281 H   0  0  0  0  0  0  0  0  0  0  0  0
   -2.8144   -3.4965    0.7511 C   0  0  0  0  0  0  0  0  0  0  0  0
   -3.4372   -3.0548    1.5327 H   0  0  0  0  0  0  0  0  0  0  0  0
   -3.3708   -3.5027   -0.1895 H   0  0  0  0  0  0  0  0  0  0  0  0
   -1.5376   -2.6934    0.5903 C   0  0  0  0  0  0  0  0  0  0  0  0
   -0.4542   -3.2266    0.7684 O   0  0  0  0  0  0  0  0  0  0  0  0
   -1.6085   -1.3592    0.2498 N   0  0  0  0  0  0  0  0  0  0  0  0
   -2.5332   -0.9348    0.2020 H   0  0  0  0  0  0  0  0  0  0  0  0
   -0.4538   -0.4568    0.1296 C   0  0  1  0  0  0  0  0  0  0  0  0
    0.3742   -0.8867    0.7031 H   0  0  0  0  0  0  0  0  0  0  0  0
    0.0175   -0.4202   -1.3519 C   0  0  0  0  0  0  0  0  0  0  0  0
    1.0400   -0.8083   -1.3673 H   0  0  0  0  0  0  0  0  0  0  0  0
   -0.5866   -1.1306   -1.9244 H   0  0  0  0  0  0  0  0  0  0  0  0
    0.0426    0.8596   -2.1639 C   0  0  0  0  0  0  0  0  0  0  0  0
    0.4858    0.7643   -3.4792 N   0  0  0  0  0  0  0  0  0  0  0  0
    0.4144    1.9597   -4.0090 C   0  0  0  0  0  0  0  0  0  0  0  0
    0.6898    2.2057   -5.0306 H   0  0  0  0  0  0  0  0  0  0  0  0
   -0.0644    2.8519   -3.0739 N   0  0  0  0  0  0  0  0  0  0  0  0
   -0.2305    3.8429   -3.2379 H   0  0  0  0  0  0  0  0  0  0  0  0
   -0.3080    2.1631   -1.9049 C   0  0  0  0  0  0  0  0  0  0  0  0
   -0.7119    2.5859   -0.9922 H   0  0  0  0  0  0  0  0  0  0  0  0
   -0.7584    0.8825    0.8258 C   0  0  0  0  0  0  0  0  0  0  0  0
   -1.8868    1.3617    0.7694 O   0  0  0  0  0  0  0  0  0  0  0  0
    0.1832    1.4717    1.6497 N   0  0  0  0  0  0  0  0  0  0  0  0
    1.0789    1.0011    1.7496 H   0  0  0  0  0  0  0  0  0  0  0  0
   -0.0843    2.6529    2.4608 C   0  0  0  0  0  0  0  0  0  0  0  0
   -0.8853    2.4507    3.1797 H   0  0  0  0  0  0  0  0  0  0  0  0
    0.8140    2.9401    3.0156 H   0  0  0  0  0  0  0  0  0  0  0  0
   -0.3824    3.4945    1.8270 H   0  0  0  0  0  0  0  0  0  0  0  0
  1  2  1  0  0  0  0
  2  3  1  0  0  0  0
  2  4  1  0  0  0  0
  2  5  1  0  0  0  0
  5  6  2  0  0  0  0
  5  7  1  0  0  0  0
  7  8  1  0  0  0  0
  7  9  1  0  0  0  0
  9 10  1  0  0  0  0
  9 11  1  0  0  0  0
  9 22  1  0  0  0  0
 11 12  1  0  0  0  0
 11 13  1  0  0  0  0
 11 14  1  0  0  0  0
 14 15  1  0  0  0  0
 14 20  2  0  0  0  0
 15 16  2  0  0  0  0
 16 17  1  0  0  0  0
 16 18  1  0  0  0  0
 18 19  1  0  0  0  0
 18 20  1  0  0  0  0
 20 21  1  0  0  0  0
 22 23  2  0  0  0  0
 22 24  1  0  0  0  0
 24 25  1  0  0  0  0
 24 26  1  0  0  0  0
 26 27  1  0  0  0  0
 26 28  1  0  0  0  0
 26 29  1  0  0  0  0
M  END
$$$$

  -OEChem-04042215593D

 29 29  0     1  0  0  0  0  0999 V2000
   -2.6098   -4.5156    1.0163 H   0  0  0  0  0  0  0  0  0  0  0  0
   -2.8322   -3.4853    0.7248 C   0  0  0  0  0  0  0  0  0  0  0  0
   -3.4786   -3.0366    1.4828 H   0  0  0  0  0  0  0  0  0  0  0  0
   -3.3579   -3.4963   -0.2331 H   0  0  0  0  0  0  0  0  0  0  0  0
   -1.5472   -2.6884    0.6004 C   0  0  0  0  0  0  0  0  0  0  0  0
   -0.4726   -3.2251    0.8173 O   0  0  0  0  0  0  0  0  0  0  0  0
   -1.5983   -1.3564    0.2473 N   0  0  0  0  0  0  0  0  0  0  0  0
   -2.5176   -0.9280    0.1521 H   0  0  0  0  0  0  0  0  0  0  0  0
   -0.4322   -0.4669    0.1384 C   0  0  1  0  0  0  0  0  0  0  0  0
    0.3924   -0.8978    0.7159 H   0  0  0  0  0  0  0  0  0  0  0  0
    0.0318   -0.4347   -1.3469 C   0  0  0  0  0  0  0  0  0  0  0  0
    1.0428   -0.8505   -1.3826 H   0  0  0  0  0  0  0  0  0  0  0  0
   -0.6000   -1.1245   -1.9152 H   0  0  0  0  0  0  0  0  0  0  0  0
    0.0670    0.8516   -2.1478 C   0  0  0  0  0  0  0  0  0  0  0  0
    0.1826    0.7464   -3.5303 N   0  0  0  0  0  0  0  0  0  0  0  0
    0.1991    1.9617   -4.0184 C   0  0  0  0  0  0  0  0  0  0  0  0
    0.2757    2.2086   -5.0735 H   0  0  0  0  0  0  0  0  0  0  0  0
    0.1074    2.8753   -2.9904 N   0  0  0  0  0  0  0  0  0  0  0  0
    0.0873    3.8870   -3.1034 H   0  0  0  0  0  0  0  0  0  0  0  0
    0.0286    2.1811   -1.8021 C   0  0  0  0  0  0  0  0  0  0  0  0
   -0.0516    2.6169   -0.8130 H   0  0  0  0  0  0  0  0  0  0  0  0
   -0.7485    0.8768    0.8217 C   0  0  0  0  0  0  0  0  0  0  0  0
   -1.8556    1.3895    0.6972 O   0  0  0  0  0  0  0  0  0  0  0  0
    0.1780    1.4676    1.6625 N   0  0  0  0  0  0  0  0  0  0  0  0
    1.0482    0.9671    1.8240 H   0  0  0  0  0  0  0  0  0  0  0  0
   -0.0996    2.6638    2.4487 C   0  0  0  0  0  0  0  0  0  0  0  0
   -0.9103    2.4751    3.1604 H   0  0  0  0  0  0  0  0  0  0  0  0
    0.7912    2.9616    3.0103 H   0  0  0  0  0  0  0  0  0  0  0  0
   -0.3893    3.4943    1.7963 H   0  0  0  0  0  0  0  0  0  0  0  0
  1  2  1  0  0  0  0
  2  3  1  0  0  0  0
  2  4  1  0  0  0  0
  2  5  1  0  0  0  0
  5  6  2  0  0  0  0
  5  7  1  0  0  0  0
  7  8  1  0  0  0  0
  7  9  1  0  0  0  0
  9 10  1  0  0  0  0
  9 11  1  0  0  0  0
  9 22  1  0  0  0  0
 11 12  1  0  0  0  0
 11 13  1  0  0  0  0
 11 14  1  0  0  0  0
 14 15  1  0  0  0  0
 14 20  2  0  0  0  0
 15 16  2  0  0  0  0
 16 17  1  0  0  0  0
 16 18  1  0  0  0  0
 18 19  1  0  0  0  0
 18 20  1  0  0  0  0
 20 21  1  0  0  0  0
 22 23  2  0  0  0  0
 22 24  1  0  0  0  0
 24 25  1  0  0  0  0
 24 26  1  0  0  0  0
 26 27  1  0  0  0  0
 26 28  1  0  0  0  0
 26 29  1  0  0  0  0
M  END
$$$$

  -OEChem-04042215593D

 29 29  0     1  0  0  0  0  0999 V2000
   -2.6418   -4.4886    1.0648 H   0  0  0  0  0  0  0  0  0  0  0  0
   -2.8492   -3.4663    0.7365 C   0  0  0  0  0  0  0  0  0  0  0  0
   -3.5134   -2.9909    1.4623 H   0  0  0  0  0  0  0  0  0  0  0  0
   -3.3481   -3.5029   -0.2350 H   0  0  0  0  0  0  0  0  0  0  0  0
   -1.5560   -2.6813    0.6243 C   0  0  0  0  0  0  0  0  0  0  0  0
   -0.4909   -3.2176    0.8850 O   0  0  0  0  0  0  0  0  0  0  0  0
   -1.5888   -1.3584    0.2378 N   0  0  0  0  0  0  0  0  0  0  0  0
   -2.5018   -0.9280    0.0990 H   0  0  0  0  0  0  0  0  0  0  0  0
   -0.4134   -0.4818    0.1298 C   0  0  1  0  0  0  0  0  0  0  0  0
    0.4061   -0.9050    0.7203 H   0  0  0  0  0  0  0  0  0  0  0  0
    0.0479   -0.4708   -1.3563 C   0  0  0  0  0  0  0  0  0  0  0  0
    1.0544   -0.8958   -1.3986 H   0  0  0  0  0  0  0  0  0  0  0  0
   -0.5942   -1.1529   -1.9225 H   0  0  0  0  0  0  0  0  0  0  0  0
    0.0838    0.8249   -2.1366 C   0  0  0  0  0  0  0  0  0  0  0  0
   -0.1277    0.7970   -3.5107 N   0  0  0  0  0  0  0  0  0  0  0  0
   -0.0093    2.0266   -3.9472 C   0  0  0  0  0  0  0  0  0  0  0  0
   -0.1298    2.3336   -4.9821 H   0  0  0  0  0  0  0  0  0  0  0  0
    0.2986    2.8667   -2.8974 N   0  0  0  0  0  0  0  0  0  0  0  0
    0.4359    3.8729   -2.9705 H   0  0  0  0  0  0  0  0  0  0  0  0
    0.3766    2.1086   -1.7488 C   0  0  0  0  0  0  0  0  0  0  0  0
    0.6244    2.4614   -0.7541 H   0  0  0  0  0  0  0  0  0  0  0  0
   -0.7414    0.8791    0.7772 C   0  0  0  0  0  0  0  0  0  0  0  0
   -1.8395    1.3986    0.6108 O   0  0  0  0  0  0  0  0  0  0  0  0
    0.1717    1.4819    1.6250 N   0  0  0  0  0  0  0  0  0  0  0  0
    1.0187    0.9627    1.8410 H   0  0  0  0  0  0  0  0  0  0  0  0
   -0.1215    2.6912    2.3847 C   0  0  0  0  0  0  0  0  0  0  0  0
   -0.9485    2.5160    3.0807 H   0  0  0  0  0  0  0  0  0  0  0  0
    0.7572    2.9975    2.9604 H   0  0  0  0  0  0  0  0  0  0  0  0
   -0.3949    3.5106    1.7117 H   0  0  0  0  0  0  0  0  0  0  0  0
  1  2  1  0  0  0  0
  2  3  1  0  0  0  0
  2  4  1  0  0  0  0
  2  5  1  0  0  0  0
  5  6  2  0  0  0  0
  5  7  1  0  0  0  0
  7  8  1  0  0  0  0
  7  9  1  0  0  0  0
  9 10  1  0  0  0  0
  9 11  1  0  0  0  0
  9 22  1  0  0  0  0
 11 12  1  0  0  0  0
 11 13  1  0  0  0  0
 11 14  1  0  0  0  0
 14 15  1  0  0  0  0
 14 20  2  0  0  0  0
 15 16  2  0  0  0  0
 16 17  1  0  0  0  0
 16 18  1  0  0  0  0
 18 19  1  0  0  0  0
 18 20  1  0  0  0  0
 20 21  1  0  0  0  0
 22 23  2  0  0  0  0
 22 24  1  0  0  0  0
 24 25  1  0  0  0  0
 24 26  1  0  0  0  0
 26 27  1  0  0  0  0
 26 28  1  0  0  0  0
 26 29  1  0  0  0  0
M  END
$$$$

  -OEChem-04042215593D

 29 29  0     1  0  0  0  0  0999 V2000
   -2.6640   -4.4726    1.1168 H   0  0  0  0  0  0  0  0  0  0  0  0
   -2.8619   -3.4575    0.7613 C   0  0  0  0  0  0  0  0  0  0  0  0
   -3.5301   -2.9604    1.4686 H   0  0  0  0  0  0  0  0  0  0  0  0
   -3.3519   -3.5151   -0.2137 H   0  0  0  0  0  0  0  0  0  0  0  0
   -1.5627   -2.6831    0.6424 C   0  0  0  0  0  0  0  0  0  0  0  0
   -0.5035   -3.2178    0.9299 O   0  0  0  0  0  0  0  0  0  0  0  0
   -1.5831   -1.3708    0.2213 N   0  0  0  0  0  0  0  0  0  0  0  0
   -2.4914   -0.9404    0.0547 H   0  0  0  0  0  0  0  0  0  0  0  0
   -0.4032   -0.5015    0.1112 C   0  0  1  0  0  0  0  0  0  0  0  0
    0.4090   -0.9142    0.7184 H   0  0  0  0  0  0  0  0  0  0  0  0
    0.0702   -0.5118   -1.3692 C   0  0  0  0  0  0  0  0  0  0  0  0
    1.0807   -0.9285   -1.4013 H   0  0  0  0  0  0  0  0  0  0  0  0
   -0.5628   -1.1953   -1.9440 H   0  0  0  0  0  0  0  0  0  0  0  0
    0.0990    0.7986   -2.1164 C   0  0  0  0  0  0  0  0  0  0  0  0
   -0.3986    0.9030   -3.4095 N   0  0  0  0  0  0  0  0  0  0  0  0
   -0.1845    2.1352   -3.8014 C   0  0  0  0  0  0  0  0  0  0  0  0
   -0.4731    2.5384   -4.7679 H   0  0  0  0  0  0  0  0  0  0  0  0
    0.4705    2.8369   -2.8089 N   0  0  0  0  0  0  0  0  0  0  0  0
    0.7481    3.8147   -2.8664 H   0  0  0  0  0  0  0  0  0  0  0  0
    0.6731    1.9861   -1.7435 C   0  0  0  0  0  0  0  0  0  0  0  0
    1.1803    2.2045   -0.8097 H   0  0  0  0  0  0  0  0  0  0  0  0
   -0.7341    0.8799    0.7172 C   0  0  0  0  0  0  0  0  0  0  0  0
   -1.8312    1.3941    0.5301 O   0  0  0  0  0  0  0  0  0  0  0  0
    0.1689    1.4998    1.5636 N   0  0  0  0  0  0  0  0  0  0  0  0
    1.0046    0.9783    1.8146 H   0  0  0  0  0  0  0  0  0  0  0  0
   -0.1303    2.7321    2.2825 C   0  0  0  0  0  0  0  0  0  0  0  0
   -0.9642    2.5783    2.9754 H   0  0  0  0  0  0  0  0  0  0  0  0
    0.7429    3.0561    2.8568 H   0  0  0  0  0  0  0  0  0  0  0  0
   -0.3967    3.5302    1.5816 H   0  0  0  0  0  0  0  0  0  0  0  0
  1  2  1  0  0  0  0
  2  3  1  0  0  0  0
  2  4  1  0  0  0  0
  2  5  1  0  0  0  0
  5  6  2  0  0  0  0
  5  7  1  0  0  0  0
  7  8  1  0  0  0  0
  7  9  1  0  0  0  0
  9 10  1  0  0  0  0
  9 11  1  0  0  0  0
  9 22  1  0  0  0  0
 11 12  1  0  0  0  0
 11 13  1  0  0  0  0
 11 14  1  0  0  0  0
 14 15  1  0  0  0  0
 14 20  2  0  0  0  0
 15 16  2  0  0  0  0
 16 17  1  0  0  0  0
 16 18  1  0  0  0  0
 18 19  1  0  0  0  0
 18 20  1  0  0  0  0
 20 21  1  0  0  0  0
 22 23  2  0  0  0  0
 22 24  1  0  0  0  0
 24 25  1  0  0  0  0
 24 26  1  0  0  0  0
 26 27  1  0  0  0  0
 26 28  1  0  0  0  0
 26 29  1  0  0  0  0
M  END
$$$$

  -OEChem-04042215593D

 29 29  0     1  0  0  0  0  0999 V2000
   -2.6805   -4.4638    1.1454 H   0  0  0  0  0  0  0  0  0  0  0  0
   -2.8719   -3.4542    0.7714 C   0  0  0  0  0  0  0  0  0  0  0  0
   -3.5454   -2.9440    1.4642 H   0  0  0  0  0  0  0  0  0  0  0  0
   -3.3530   -3.5263   -0.2071 H   0  0  0  0  0  0  0  0  0  0  0  0
   -1.5694   -2.6856    0.6515 C   0  0  0  0  0  0  0  0  0  0  0  0
   -0.5143   -3.2197    0.9552 O   0  0  0  0  0  0  0  0  0  0  0  0
   -1.5819   -1.3813    0.2060 N   0  0  0  0  0  0  0  0  0  0  0  0
   -2.4874   -0.9511    0.0241 H   0  0  0  0  0  0  0  0  0  0  0  0
   -0.4009   -0.5143    0.0954 C   0  0  1  0  0  0  0  0  0  0  0  0
    0.3999   -0.9200    0.7221 H   0  0  0  0  0  0  0  0  0  0  0  0
    0.0986   -0.5450   -1.3734 C   0  0  0  0  0  0  0  0  0  0  0  0
    1.1158   -0.9461   -1.3796 H   0  0  0  0  0  0  0  0  0  0  0  0
   -0.5129   -1.2374   -1.9606 H   0  0  0  0  0  0  0  0  0  0  0  0
    0.1212    0.7748   -2.0965 C   0  0  0  0  0  0  0  0  0  0  0  0
   -0.6112    1.0072   -3.2527 N   0  0  0  0  0  0  0  0  0  0  0  0
   -0.3300    2.2292   -3.6345 C   0  0  0  0  0  0  0  0  0  0  0  0
   -0.7552    2.7200   -4.5054 H   0  0  0  0  0  0  0  0  0  0  0  0
    0.5927    2.7927   -2.7737 N   0  0  0  0  0  0  0  0  0  0  0  0
    0.9687    3.7356   -2.8520 H   0  0  0  0  0  0  0  0  0  0  0  0
    0.8978    1.8634   -1.8022 C   0  0  0  0  0  0  0  0  0  0  0  0
    1.5942    1.9637   -0.9759 H   0  0  0  0  0  0  0  0  0  0  0  0
   -0.7227    0.8853    0.6675 C   0  0  0  0  0  0  0  0  0  0  0  0
   -1.8207    1.3965    0.4780 O   0  0  0  0  0  0  0  0  0  0  0  0
    0.1796    1.5147    1.5080 N   0  0  0  0  0  0  0  0  0  0  0  0
    1.0139    0.9964    1.7684 H   0  0  0  0  0  0  0  0  0  0  0  0
   -0.1116    2.7667    2.1957 C   0  0  0  0  0  0  0  0  0  0  0  0
   -0.9588    2.6410    2.8781 H   0  0  0  0  0  0  0  0  0  0  0  0
    0.7573    3.0895    2.7774 H   0  0  0  0  0  0  0  0  0  0  0  0
   -0.3540    3.5535    1.4734 H   0  0  0  0  0  0  0  0  0  0  0  0
  1  2  1  0  0  0  0
  2  3  1  0  0  0  0
  2  4  1  0  0  0  0
  2  5  1  0  0  0  0
  5  6  2  0  0  0  0
  5  7  1  0  0  0  0
  7  8  1  0  0  0  0
  7  9  1  0  0  0  0
  9 10  1  0  0  0  0
  9 11  1  0  0  0  0
  9 22  1  0  0  0  0
 11 12  1  0  0  0  0
 11 13  1  0  0  0  0
 11 14  1  0  0  0  0
 14 15  1  0  0  0  0
 14 20  2  0  0  0  0
 15 16  2  0  0  0  0
 16 17  1  0  0  0  0
 16 18  1  0  0  0  0
 18 19  1  0  0  0  0
 18 20  1  0  0  0  0
 20 21  1  0  0  0  0
 22 23  2  0  0  0  0
 22 24  1  0  0  0  0
 24 25  1  0  0  0  0
 24 26  1  0  0  0  0
 26 27  1  0  0  0  0
 26 28  1  0  0  0  0
 26 29  1  0  0  0  0
M  END
$$$$

  -OEChem-04042215593D

 29 29  0     1  0  0  0  0  0999 V2000
   -2.6903   -4.4543    1.1624 H   0  0  0  0  0  0  0  0  0  0  0  0
   -2.8785   -3.4475    0.7792 C   0  0  0  0  0  0  0  0  0  0  0  0
   -3.5493   -2.9276    1.4673 H   0  0  0  0  0  0  0  0  0  0  0  0
   -3.3604   -3.5271   -0.1983 H   0  0  0  0  0  0  0  0  0  0  0  0
   -1.5740   -2.6840    0.6517 C   0  0  0  0  0  0  0  0  0  0  0  0
   -0.5201   -3.2187    0.9594 O   0  0  0  0  0  0  0  0  0  0  0  0
   -1.5828   -1.3854    0.1905 N   0  0  0  0  0  0  0  0  0  0  0  0
   -2.4870   -0.9540    0.0036 H   0  0  0  0  0  0  0  0  0  0  0  0
   -0.4009   -0.5204    0.0803 C   0  0  1  0  0  0  0  0  0  0  0  0
    0.3896   -0.9202    0.7237 H   0  0  0  0  0  0  0  0  0  0  0  0
    0.1248   -0.5688   -1.3766 C   0  0  0  0  0  0  0  0  0  0  0  0
    1.1452   -0.9615   -1.3593 H   0  0  0  0  0  0  0  0  0  0  0  0
   -0.4715   -1.2663   -1.9727 H   0  0  0  0  0  0  0  0  0  0  0  0
    0.1458    0.7543   -2.0875 C   0  0  0  0  0  0  0  0  0  0  0  0
   -0.7746    1.1110   -3.0623 N   0  0  0  0  0  0  0  0  0  0  0  0
   -0.4403    2.3124   -3.4661 C   0  0  0  0  0  0  0  0  0  0  0  0
   -0.9736    2.8831   -4.2210 H   0  0  0  0  0  0  0  0  0  0  0  0
    0.6934    2.7377   -2.7985 N   0  0  0  0  0  0  0  0  0  0  0  0
    1.1488    3.6385   -2.9321 H   0  0  0  0  0  0  0  0  0  0  0  0
    1.0798    1.7410   -1.9275 C   0  0  0  0  0  0  0  0  0  0  0  0
    1.9284    1.7312   -1.2509 H   0  0  0  0  0  0  0  0  0  0  0  0
   -0.7152    0.8908    0.6300 C   0  0  0  0  0  0  0  0  0  0  0  0
   -1.8181    1.3964    0.4539 O   0  0  0  0  0  0  0  0  0  0  0  0
    0.1883    1.5234    1.4664 N   0  0  0  0  0  0  0  0  0  0  0  0
    1.0347    1.0171    1.7097 H   0  0  0  0  0  0  0  0  0  0  0  0
   -0.0962    2.7837    2.1414 C   0  0  0  0  0  0  0  0  0  0  0  0
   -0.9434    2.6691    2.8256 H   0  0  0  0  0  0  0  0  0  0  0  0
    0.7744    3.1083    2.7190 H   0  0  0  0  0  0  0  0  0  0  0  0
   -0.3355    3.5634    1.4106 H   0  0  0  0  0  0  0  0  0  0  0  0
  1  2  1  0  0  0  0
  2  3  1  0  0  0  0
  2  4  1  0  0  0  0
  2  5  1  0  0  0  0
  5  6  2  0  0  0  0
  5  7  1  0  0  0  0
  7  8  1  0  0  0  0
  7  9  1  0  0  0  0
  9 10  1  0  0  0  0
  9 11  1  0  0  0  0
  9 22  1  0  0  0  0
 11 12  1  0  0  0  0
 11 13  1  0  0  0  0
 11 14  1  0  0  0  0
 14 15  1  0  0  0  0
 14 20  2  0  0  0  0
 15 16  2  0  0  0  0
 16 17  1  0  0  0  0
 16 18  1  0  0  0  0
 18 19  1  0  0  0  0
 18 20  1  0  0  0  0
 20 21  1  0  0  0  0
 22 23  2  0  0  0  0
 22 24  1  0  0  0  0
 24 25  1  0  0  0  0
 24 26  1  0  0  0  0
 26 27  1  0  0  0  0
 26 28  1  0  0  0  0
 26 29  1  0  0  0  0
M  END
$$$$

  -OEChem-04042215593D

 29 29  0     1  0  0  0  0  0999 V2000
   -2.7033   -4.4393    1.1773 H   0  0  0  0  0  0  0  0  0  0  0  0
   -2.8866   -3.4333    0.7900 C   0  0  0  0  0  0  0  0  0  0  0  0
   -3.5445   -2.9032    1.4829 H   0  0  0  0  0  0  0  0  0  0  0  0
   -3.3807   -3.5143   -0.1811 H   0  0  0  0  0  0  0  0  0  0  0  0
   -1.5768   -2.6822    0.6434 C   0  0  0  0  0  0  0  0  0  0  0  0
   -0.5241   -3.2235    0.9443 O   0  0  0  0  0  0  0  0  0  0  0  0
   -1.5806   -1.3865    0.1741 N   0  0  0  0  0  0  0  0  0  0  0  0
   -2.4836   -0.9492   -0.0054 H   0  0  0  0  0  0  0  0  0  0  0  0
   -0.3987   -0.5223    0.0648 C   0  0  1  0  0  0  0  0  0  0  0  0
    0.3823   -0.9194    0.7215 H   0  0  0  0  0  0  0  0  0  0  0  0
    0.1517   -0.5841   -1.3811 C   0  0  0  0  0  0  0  0  0  0  0  0
    1.1727   -0.9739   -1.3420 H   0  0  0  0  0  0  0  0  0  0  0  0
   -0.4340   -1.2862   -1.9825 H   0  0  0  0  0  0  0  0  0  0  0  0
    0.1749    0.7380   -2.0922 C   0  0  0  0  0  0  0  0  0  0  0  0
   -0.8819    1.2157   -2.8525 N   0  0  0  0  0  0  0  0  0  0  0  0
   -0.5120    2.3881   -3.3067 C   0  0  0  0  0  0  0  0  0  0  0  0
   -1.1252    3.0330   -3.9299 H   0  0  0  0  0  0  0  0  0  0  0  0
    0.7729    2.6751   -2.8833 N   0  0  0  0  0  0  0  0  0  0  0  0
    1.2858    3.5266   -3.1032 H   0  0  0  0  0  0  0  0  0  0  0  0
    1.2194    1.6203   -2.1152 C   0  0  0  0  0  0  0  0  0  0  0  0
    2.1796    1.5063   -1.6222 H   0  0  0  0  0  0  0  0  0  0  0  0
   -0.7098    0.8955    0.6024 C   0  0  0  0  0  0  0  0  0  0  0  0
   -1.8239    1.3868    0.4574 O   0  0  0  0  0  0  0  0  0  0  0  0
    0.1945    1.5294    1.4369 N   0  0  0  0  0  0  0  0  0  0  0  0
    1.0545    1.0359    1.6569 H   0  0  0  0  0  0  0  0  0  0  0  0
   -0.0917    2.7849    2.1199 C   0  0  0  0  0  0  0  0  0  0  0  0
   -0.9307    2.6612    2.8125 H   0  0  0  0  0  0  0  0  0  0  0  0
    0.7829    3.1134    2.6895 H   0  0  0  0  0  0  0  0  0  0  0  0
   -0.3445    3.5658    1.3950 H   0  0  0  0  0  0  0  0  0  0  0  0
  1  2  1  0  0  0  0
  2  3  1  0  0  0  0
  2  4  1  0  0  0  0
  2  5  1  0  0  0  0
  5  6  2  0  0  0  0
  5  7  1  0  0  0  0
  7  8  1  0  0  0  0
  7  9  1  0  0  0  0
  9 10  1  0  0  0  0
  9 11  1  0  0  0  0
  9 22  1  0  0  0  0
 11 12  1  0  0  0  0
 11 13  1  0  0  0  0
 11 14  1  0  0  0  0
 14 15  1  0  0  0  0
 14 20  2  0  0  0  0
 15 16  2  0  0  0  0
 16 17  1  0  0  0  0
 16 18  1  0  0  0  0
 18 19  1  0  0  0  0
 18 20  1  0  0  0  0
 20 21  1  0  0  0  0
 22 23  2  0  0  0  0
 22 24  1  0  0  0  0
 24 25  1  0  0  0  0
 24 26  1  0  0  0  0
 26 27  1  0  0  0  0
 26 28  1  0  0  0  0
 26 29  1  0  0  0  0
M  END
$$$$

  -OEChem-04042215593D

 29 29  0     1  0  0  0  0  0999 V2000
   -2.7000   -4.4320    1.1836 H   0  0  0  0  0  0  0  0  0  0  0  0
   -2.8863   -3.4246    0.8014 C   0  0  0  0  0  0  0  0  0  0  0  0
   -3.5296   -2.8930    1.5068 H   0  0  0  0  0  0  0  0  0  0  0  0
   -3.3982   -3.5018   -0.1609 H   0  0  0  0  0  0  0  0  0  0  0  0
   -1.5763   -2.6781    0.6317 C   0  0  0  0  0  0  0  0  0  0  0  0
   -0.5197   -3.2254    0.9073 O   0  0  0  0  0  0  0  0  0  0  0  0
   -1.5849   -1.3816    0.1649 N   0  0  0  0  0  0  0  0  0  0  0  0
   -2.4904   -0.9368    0.0195 H   0  0  0  0  0  0  0  0  0  0  0  0
   -0.4062   -0.5131    0.0537 C   0  0  1  0  0  0  0  0  0  0  0  0
    0.3693   -0.9073    0.7185 H   0  0  0  0  0  0  0  0  0  0  0  0
    0.1655   -0.5829   -1.3835 C   0  0  0  0  0  0  0  0  0  0  0  0
    1.1850   -0.9749   -1.3294 H   0  0  0  0  0  0  0  0  0  0  0  0
   -0.4158   -1.2888   -1.9844 H   0  0  0  0  0  0  0  0  0  0  0  0
    0.1926    0.7303   -2.1107 C   0  0  0  0  0  0  0  0  0  0  0  0
   -0.9333    1.3395   -2.6430 N   0  0  0  0  0  0  0  0  0  0  0  0
   -0.5312    2.4649   -3.1800 C   0  0  0  0  0  0  0  0  0  0  0  0
   -1.1799    3.1824   -3.6743 H   0  0  0  0  0  0  0  0  0  0  0  0
    0.8370    2.5962   -3.0288 N   0  0  0  0  0  0  0  0  0  0  0  0
    1.3904    3.3835   -3.3614 H   0  0  0  0  0  0  0  0  0  0  0  0
    1.3045    1.4885   -2.3526 C   0  0  0  0  0  0  0  0  0  0  0  0
    2.3250    1.2592   -2.0614 H   0  0  0  0  0  0  0  0  0  0  0  0
   -0.7169    0.9043    0.5938 C   0  0  0  0  0  0  0  0  0  0  0  0
   -1.8487    1.3694    0.5078 O   0  0  0  0  0  0  0  0  0  0  0  0
    0.1931    1.5353    1.4247 N   0  0  0  0  0  0  0  0  0  0  0  0
    1.0775    1.0661    1.5947 H   0  0  0  0  0  0  0  0  0  0  0  0
   -0.0955    2.7746    2.1358 C   0  0  0  0  0  0  0  0  0  0  0  0
   -0.9244    2.6296    2.8364 H   0  0  0  0  0  0  0  0  0  0  0  0
    0.7830    3.0998    2.7012 H   0  0  0  0  0  0  0  0  0  0  0  0
   -0.3644    3.5674    1.4298 H   0  0  0  0  0  0  0  0  0  0  0  0
  1  2  1  0  0  0  0
  2  3  1  0  0  0  0
  2  4  1  0  0  0  0
  2  5  1  0  0  0  0
  5  6  2  0  0  0  0
  5  7  1  0  0  0  0
  7  8  1  0  0  0  0
  7  9  1  0  0  0  0
  9 10  1  0  0  0  0
  9 11  1  0  0  0  0
  9 22  1  0  0  0  0
 11 12  1  0  0  0  0
 11 13  1  0  0  0  0
 11 14  1  0  0  0  0
 14 15  1  0  0  0  0
 14 20  2  0  0  0  0
 15 16  2  0  0  0  0
 16 17  1  0  0  0  0
 16 18  1  0  0  0  0
 18 19  1  0  0  0  0
 18 20  1  0  0  0  0
 20 21  1  0  0  0  0
 22 23  2  0  0  0  0
 22 24  1  0  0  0  0
 24 25  1  0  0  0  0
 24 26  1  0  0  0  0
 26 27  1  0  0  0  0
 26 28  1  0  0  0  0
 26 29  1  0  0  0  0
M  END
$$$$

  -OEChem-04042215593D

 29 29  0     1  0  0  0  0  0999 V2000
   -2.6699   -4.4350    1.1943 H   0  0  0  0  0  0  0  0  0  0  0  0
   -2.8719   -3.4277    0.8195 C   0  0  0  0  0  0  0  0  0  0  0  0
   -3.4942   -2.8995    1.5457 H   0  0  0  0  0  0  0  0  0  0  0  0
   -3.4138   -3.5055   -0.1262 H   0  0  0  0  0  0  0  0  0  0  0  0
   -1.5707   -2.6764    0.6098 C   0  0  0  0  0  0  0  0  0  0  0  0
   -0.5040   -3.2268    0.8364 O   0  0  0  0  0  0  0  0  0  0  0  0
   -1.5975   -1.3749    0.1581 N   0  0  0  0  0  0  0  0  0  0  0  0
   -2.5076   -0.9240    0.0696 H   0  0  0  0  0  0  0  0  0  0  0  0
   -0.4253   -0.4975    0.0452 C   0  0  1  0  0  0  0  0  0  0  0  0
    0.3500   -0.8918    0.7102 H   0  0  0  0  0  0  0  0  0  0  0  0
    0.1608   -0.5643   -1.3871 C   0  0  0  0  0  0  0  0  0  0  0  0
    1.1785   -0.9592   -1.3239 H   0  0  0  0  0  0  0  0  0  0  0  0
   -0.4189   -1.2743   -1.9844 H   0  0  0  0  0  0  0  0  0  0  0  0
    0.1930    0.7366   -2.1391 C   0  0  0  0  0  0  0  0  0  0  0  0
   -0.9234    1.4981   -2.4484 N   0  0  0  0  0  0  0  0  0  0  0  0
   -0.4941    2.5585   -3.0866 C   0  0  0  0  0  0  0  0  0  0  0  0
   -1.1288    3.3559   -3.4625 H   0  0  0  0  0  0  0  0  0  0  0  0
    0.8816    2.5050   -3.2116 N   0  0  0  0  0  0  0  0  0  0  0  0
    1.4564    3.2086   -3.6714 H   0  0  0  0  0  0  0  0  0  0  0  0
    1.3235    1.3445   -2.6110 C   0  0  0  0  0  0  0  0  0  0  0  0
    2.3423    0.9802   -2.5211 H   0  0  0  0  0  0  0  0  0  0  0  0
   -0.7384    0.9122    0.6052 C   0  0  0  0  0  0  0  0  0  0  0  0
   -1.8863    1.3460    0.5853 O   0  0  0  0  0  0  0  0  0  0  0  0
    0.1795    1.5362    1.4332 N   0  0  0  0  0  0  0  0  0  0  0  0
    1.0863    1.0936    1.5458 H   0  0  0  0  0  0  0  0  0  0  0  0
   -0.1052    2.7595    2.1731 C   0  0  0  0  0  0  0  0  0  0  0  0
   -0.9289    2.5995    2.8766 H   0  0  0  0  0  0  0  0  0  0  0  0
    0.7768    3.0722    2.7397 H   0  0  0  0  0  0  0  0  0  0  0  0
   -0.3789    3.5671    1.4862 H   0  0  0  0  0  0  0  0  0  0  0  0
  1  2  1  0  0  0  0
  2  3  1  0  0  0  0
  2  4  1  0  0  0  0
  2  5  1  0  0  0  0
  5  6  2  0  0  0  0
  5  7  1  0  0  0  0
  7  8  1  0  0  0  0
  7  9  1  0  0  0  0
  9 10  1  0  0  0  0
  9 11  1  0  0  0  0
  9 22  1  0  0  0  0
 11 12  1  0  0  0  0
 11 13  1  0  0  0  0
 11 14  1  0  0  0  0
 14 15  1  0  0  0  0
 14 20  2  0  0  0  0
 15 16  2  0  0  0  0
 16 17  1  0  0  0  0
 16 18  1  0  0  0  0
 18 19  1  0  0  0  0
 18 20  1  0  0  0  0
 20 21  1  0  0  0  0
 22 23  2  0  0  0  0
 22 24  1  0  0  0  0
 24 25  1  0  0  0  0
 24 26  1  0  0  0  0
 26 27  1  0  0  0  0
 26 28  1  0  0  0  0
 26 29  1  0  0  0  0
M  END
$$$$

  -OEChem-04042215593D

 29 29  0     1  0  0  0  0  0999 V2000
   -2.6420   -4.4406    1.1918 H   0  0  0  0  0  0  0  0  0  0  0  0
   -2.8557   -3.4271    0.8413 C   0  0  0  0  0  0  0  0  0  0  0  0
   -3.4460   -2.9087    1.6007 H   0  0  0  0  0  0  0  0  0  0  0  0
   -3.4364   -3.4883   -0.0822 H   0  0  0  0  0  0  0  0  0  0  0  0
   -1.5614   -2.6764    0.5899 C   0  0  0  0  0  0  0  0  0  0  0  0
   -0.4877   -3.2309    0.7683 O   0  0  0  0  0  0  0  0  0  0  0  0
   -1.6032   -1.3694    0.1558 N   0  0  0  0  0  0  0  0  0  0  0  0
   -2.5145   -0.9130    0.1262 H   0  0  0  0  0  0  0  0  0  0  0  0
   -0.4367   -0.4844    0.0368 C   0  0  1  0  0  0  0  0  0  0  0  0
    0.3450   -0.8798    0.6935 H   0  0  0  0  0  0  0  0  0  0  0  0
    0.1465   -0.5413   -1.3992 C   0  0  0  0  0  0  0  0  0  0  0  0
    1.1619   -0.9430   -1.3409 H   0  0  0  0  0  0  0  0  0  0  0  0
   -0.4402   -1.2518   -1.9889 H   0  0  0  0  0  0  0  0  0  0  0  0
    0.1827    0.7480   -2.1764 C   0  0  0  0  0  0  0  0  0  0  0  0
   -0.8458    1.6733   -2.2734 N   0  0  0  0  0  0  0  0  0  0  0  0
   -0.4055    2.6641   -3.0081 C   0  0  0  0  0  0  0  0  0  0  0  0
   -0.9799    3.5492   -3.2666 H   0  0  0  0  0  0  0  0  0  0  0  0
    0.8946    2.4105   -3.4006 N   0  0  0  0  0  0  0  0  0  0  0  0
    1.4637    3.0256   -3.9791 H   0  0  0  0  0  0  0  0  0  0  0  0
    1.2731    1.1938   -2.8724 C   0  0  0  0  0  0  0  0  0  0  0  0
    2.2281    0.6869   -2.9738 H   0  0  0  0  0  0  0  0  0  0  0  0
   -0.7582    0.9130    0.6228 C   0  0  0  0  0  0  0  0  0  0  0  0
   -1.9197    1.3108    0.6589 O   0  0  0  0  0  0  0  0  0  0  0  0
    0.1640    1.5349    1.4480 N   0  0  0  0  0  0  0  0  0  0  0  0
    1.0926    1.1285    1.5048 H   0  0  0  0  0  0  0  0  0  0  0  0
   -0.1297    2.7364    2.2196 C   0  0  0  0  0  0  0  0  0  0  0  0
   -0.9109    2.5348    2.9600 H   0  0  0  0  0  0  0  0  0  0  0  0
    0.7669    3.0766    2.7463 H   0  0  0  0  0  0  0  0  0  0  0  0
   -0.4689    3.5412    1.5590 H   0  0  0  0  0  0  0  0  0  0  0  0
  1  2  1  0  0  0  0
  2  3  1  0  0  0  0
  2  4  1  0  0  0  0
  2  5  1  0  0  0  0
  5  6  2  0  0  0  0
  5  7  1  0  0  0  0
  7  8  1  0  0  0  0
  7  9  1  0  0  0  0
  9 10  1  0  0  0  0
  9 11  1  0  0  0  0
  9 22  1  0  0  0  0
 11 12  1  0  0  0  0
 11 13  1  0  0  0  0
 11 14  1  0  0  0  0
 14 15  1  0  0  0  0
 14 20  2  0  0  0  0
 15 16  2  0  0  0  0
 16 17  1  0  0  0  0
 16 18  1  0  0  0  0
 18 19  1  0  0  0  0
 18 20  1  0  0  0  0
 20 21  1  0  0  0  0
 22 23  2  0  0  0  0
 22 24  1  0  0  0  0
 24 25  1  0  0  0  0
 24 26  1  0  0  0  0
 26 27  1  0  0  0  0
 26 28  1  0  0  0  0
 26 29  1  0  0  0  0
M  END
$$$$

  -OEChem-04042215593D

 29 29  0     1  0  0  0  0  0999 V2000
   -2.6121   -4.4513    1.1763 H   0  0  0  0  0  0  0  0  0  0  0  0
   -2.8364   -3.4353    0.8396 C   0  0  0  0  0  0  0  0  0  0  0  0
   -3.4091   -2.9244    1.6176 H   0  0  0  0  0  0  0  0  0  0  0  0
   -3.4391   -3.4896   -0.0703 H   0  0  0  0  0  0  0  0  0  0  0  0
   -1.5503   -2.6797    0.5629 C   0  0  0  0  0  0  0  0  0  0  0  0
   -0.4722   -3.2393    0.6911 O   0  0  0  0  0  0  0  0  0  0  0  0
   -1.6048   -1.3637    0.1583 N   0  0  0  0  0  0  0  0  0  0  0  0
   -2.5150   -0.9046    0.1825 H   0  0  0  0  0  0  0  0  0  0  0  0
   -0.4421   -0.4721    0.0456 C   0  0  1  0  0  0  0  0  0  0  0  0
    0.3473   -0.8764    0.6877 H   0  0  0  0  0  0  0  0  0  0  0  0
    0.1274   -0.5049   -1.3986 C   0  0  0  0  0  0  0  0  0  0  0  0
    1.1411   -0.9133   -1.3528 H   0  0  0  0  0  0  0  0  0  0  0  0
   -0.4676   -1.2102   -1.9860 H   0  0  0  0  0  0  0  0  0  0  0  0
    0.1697    0.7791   -2.1891 C   0  0  0  0  0  0  0  0  0  0  0  0
   -0.6924    1.8620   -2.0961 N   0  0  0  0  0  0  0  0  0  0  0  0
   -0.2765    2.7666   -2.9471 C   0  0  0  0  0  0  0  0  0  0  0  0
   -0.7484    3.7316   -3.1091 H   0  0  0  0  0  0  0  0  0  0  0  0
    0.8499    2.3065   -3.5998 N   0  0  0  0  0  0  0  0  0  0  0  0
    1.3659    2.8180   -4.3134 H   0  0  0  0  0  0  0  0  0  0  0  0
    1.1382    1.0468   -3.1183 C   0  0  0  0  0  0  0  0  0  0  0  0
    1.9550    0.3915   -3.4059 H   0  0  0  0  0  0  0  0  0  0  0  0
   -0.7740    0.9065    0.6693 C   0  0  0  0  0  0  0  0  0  0  0  0
   -1.9434    1.2794    0.7326 O   0  0  0  0  0  0  0  0  0  0  0  0
    0.1464    1.5205    1.5024 N   0  0  0  0  0  0  0  0  0  0  0  0
    1.0947    1.1582    1.4997 H   0  0  0  0  0  0  0  0  0  0  0  0
   -0.1475    2.7224    2.2734 C   0  0  0  0  0  0  0  0  0  0  0  0
   -0.9494    2.5293    2.9936 H   0  0  0  0  0  0  0  0  0  0  0  0
    0.7412    3.0448    2.8243 H   0  0  0  0  0  0  0  0  0  0  0  0
   -0.4580    3.5363    1.6097 H   0  0  0  0  0  0  0  0  0  0  0  0
  1  2  1  0  0  0  0
  2  3  1  0  0  0  0
  2  4  1  0  0  0  0
  2  5  1  0  0  0  0
  5  6  2  0  0  0  0
  5  7  1  0  0  0  0
  7  8  1  0  0  0  0
  7  9  1  0  0  0  0
  9 10  1  0  0  0  0
  9 11  1  0  0  0  0
  9 22  1  0  0  0  0
 11 12  1  0  0  0  0
 11 13  1  0  0  0  0
 11 14  1  0  0  0  0
 14 15  1  0  0  0  0
 14 20  2  0  0  0  0
 15 16  2  0  0  0  0
 16 17  1  0  0  0  0
 16 18  1  0  0  0  0
 18 19  1  0  0  0  0
 18 20  1  0  0  0  0
 20 21  1  0  0  0  0
 22 23  2  0  0  0  0
 22 24  1  0  0  0  0
 24 25  1  0  0  0  0
 24 26  1  0  0  0  0
 26 27  1  0  0  0  0
 26 28  1  0  0  0  0
 26 29  1  0  0  0  0
M  END
$$$$

  -OEChem-04042215593D

 29 29  0     1  0  0  0  0  0999 V2000
   -2.6090   -4.4500    1.1477 H   0  0  0  0  0  0  0  0  0  0  0  0
   -2.8312   -3.4288    0.8261 C   0  0  0  0  0  0  0  0  0  0  0  0
   -3.3881   -2.9231    1.6188 H   0  0  0  0  0  0  0  0  0  0  0  0
   -3.4481   -3.4684   -0.0749 H   0  0  0  0  0  0  0  0  0  0  0  0
   -1.5442   -2.6788    0.5390 C   0  0  0  0  0  0  0  0  0  0  0  0
   -0.4681   -3.2471    0.6435 O   0  0  0  0  0  0  0  0  0  0  0  0
   -1.5968   -1.3568    0.1546 N   0  0  0  0  0  0  0  0  0  0  0  0
   -2.5035   -0.8924    0.2056 H   0  0  0  0  0  0  0  0  0  0  0  0
   -0.4303   -0.4677    0.0566 C   0  0  1  0  0  0  0  0  0  0  0  0
    0.3622   -0.8812    0.6892 H   0  0  0  0  0  0  0  0  0  0  0  0
    0.1259   -0.4791   -1.3948 C   0  0  0  0  0  0  0  0  0  0  0  0
    1.1398   -0.8880   -1.3569 H   0  0  0  0  0  0  0  0  0  0  0  0
   -0.4708   -1.1806   -1.9852 H   0  0  0  0  0  0  0  0  0  0  0  0
    0.1807    0.8064   -2.1857 C   0  0  0  0  0  0  0  0  0  0  0  0
   -0.4539    2.0141   -1.9301 N   0  0  0  0  0  0  0  0  0  0  0  0
   -0.1171    2.8448   -2.8851 C   0  0  0  0  0  0  0  0  0  0  0  0
   -0.4602    3.8725   -2.9656 H   0  0  0  0  0  0  0  0  0  0  0  0
    0.7386    2.2153   -3.7663 N   0  0  0  0  0  0  0  0  0  0  0  0
    1.1411    2.6397   -4.5997 H   0  0  0  0  0  0  0  0  0  0  0  0
    0.9315    0.9235   -3.3246 C   0  0  0  0  0  0  0  0  0  0  0  0
    1.5407    0.1466   -3.7773 H   0  0  0  0  0  0  0  0  0  0  0  0
   -0.7751    0.8956    0.7059 C   0  0  0  0  0  0  0  0  0  0  0  0
   -1.9481    1.2607    0.7615 O   0  0  0  0  0  0  0  0  0  0  0  0
    0.1356    1.5004    1.5558 N   0  0  0  0  0  0  0  0  0  0  0  0
    1.0933    1.1657    1.5248 H   0  0  0  0  0  0  0  0  0  0  0  0
   -0.1628    2.7075    2.3161 C   0  0  0  0  0  0  0  0  0  0  0  0
   -0.9792    2.5237    3.0225 H   0  0  0  0  0  0  0  0  0  0  0  0
    0.7180    3.0249    2.8824 H   0  0  0  0  0  0  0  0  0  0  0  0
   -0.4543    3.5205    1.6426 H   0  0  0  0  0  0  0  0  0  0  0  0
  1  2  1  0  0  0  0
  2  3  1  0  0  0  0
  2  4  1  0  0  0  0
  2  5  1  0  0  0  0
  5  6  2  0  0  0  0
  5  7  1  0  0  0  0
  7  8  1  0  0  0  0
  7  9  1  0  0  0  0
  9 10  1  0  0  0  0
  9 11  1  0  0  0  0
  9 22  1  0  0  0  0
 11 12  1  0  0  0  0
 11 13  1  0  0  0  0
 11 14  1  0  0  0  0
 14 15  1  0  0  0  0
 14 20  2  0  0  0  0
 15 16  2  0  0  0  0
 16 17  1  0  0  0  0
 16 18  1  0  0  0  0
 18 19  1  0  0  0  0
 18 20  1  0  0  0  0
 20 21  1  0  0  0  0
 22 23  2  0  0  0  0
 22 24  1  0  0  0  0
 24 25  1  0  0  0  0
 24 26  1  0  0  0  0
 26 27  1  0  0  0  0
 26 28  1  0  0  0  0
 26 29  1  0  0  0  0
M  END
$$$$

  -OEChem-04042215593D

 29 29  0     1  0  0  0  0  0999 V2000
   -2.6327   -4.4400    1.1273 H   0  0  0  0  0  0  0  0  0  0  0  0
   -2.8440   -3.4166    0.8055 C   0  0  0  0  0  0  0  0  0  0  0  0
   -3.3988   -2.9060    1.5963 H   0  0  0  0  0  0  0  0  0  0  0  0
   -3.4581   -3.4503   -0.0975 H   0  0  0  0  0  0  0  0  0  0  0  0
   -1.5486   -2.6791    0.5238 C   0  0  0  0  0  0  0  0  0  0  0  0
   -0.4793   -3.2603    0.6239 O   0  0  0  0  0  0  0  0  0  0  0  0
   -1.5853   -1.3543    0.1473 N   0  0  0  0  0  0  0  0  0  0  0  0
   -2.4861   -0.8792    0.2065 H   0  0  0  0  0  0  0  0  0  0  0  0
   -0.4079   -0.4770    0.0677 C   0  0  1  0  0  0  0  0  0  0  0  0
    0.3814   -0.9003    0.6980 H   0  0  0  0  0  0  0  0  0  0  0  0
    0.1416   -0.4766   -1.3866 C   0  0  0  0  0  0  0  0  0  0  0  0
    1.1562   -0.8832   -1.3462 H   0  0  0  0  0  0  0  0  0  0  0  0
   -0.4499   -1.1774   -1.9833 H   0  0  0  0  0  0  0  0  0  0  0  0
    0.2160    0.8132   -2.1701 C   0  0  0  0  0  0  0  0  0  0  0  0
   -0.1479    2.0975   -1.7864 N   0  0  0  0  0  0  0  0  0  0  0  0
    0.0613    2.8872   -2.8105 C   0  0  0  0  0  0  0  0  0  0  0  0
   -0.1343    3.9558   -2.8227 H   0  0  0  0  0  0  0  0  0  0  0  0
    0.5679    2.1549   -3.8651 N   0  0  0  0  0  0  0  0  0  0  0  0
    0.8060    2.5302   -4.7813 H   0  0  0  0  0  0  0  0  0  0  0  0
    0.6652    0.8398   -3.4630 C   0  0  0  0  0  0  0  0  0  0  0  0
    1.0111   -0.0118   -4.0414 H   0  0  0  0  0  0  0  0  0  0  0  0
   -0.7617    0.8797    0.7259 C   0  0  0  0  0  0  0  0  0  0  0  0
   -1.9335    1.2535    0.7474 O   0  0  0  0  0  0  0  0  0  0  0  0
    0.1340    1.4775    1.5958 N   0  0  0  0  0  0  0  0  0  0  0  0
    1.0994    1.1685    1.5430 H   0  0  0  0  0  0  0  0  0  0  0  0
   -0.1662    2.7078    2.3172 C   0  0  0  0  0  0  0  0  0  0  0  0
   -1.0208    2.5617    2.9863 H   0  0  0  0  0  0  0  0  0  0  0  0
    0.6949    3.0121    2.9198 H   0  0  0  0  0  0  0  0  0  0  0  0
   -0.4013    3.5141    1.6144 H   0  0  0  0  0  0  0  0  0  0  0  0
  1  2  1  0  0  0  0
  2  3  1  0  0  0  0
  2  4  1  0  0  0  0
  2  5  1  0  0  0  0
  5  6  2  0  0  0  0
  5  7  1  0  0  0  0
  7  8  1  0  0  0  0
  7  9  1  0  0  0  0
  9 10  1  0  0  0  0
  9 11  1  0  0  0  0
  9 22  1  0  0  0  0
 11 12  1  0  0  0  0
 11 13  1  0  0  0  0
 11 14  1  0  0  0  0
 14 15  1  0  0  0  0
 14 20  2  0  0  0  0
 15 16  2  0  0  0  0
 16 17  1  0  0  0  0
 16 18  1  0  0  0  0
 18 19  1  0  0  0  0
 18 20  1  0  0  0  0
 20 21  1  0  0  0  0
 22 23  2  0  0  0  0
 22 24  1  0  0  0  0
 24 25  1  0  0  0  0
 24 26  1  0  0  0  0
 26 27  1  0  0  0  0
 26 28  1  0  0  0  0
 26 29  1  0  0  0  0
M  END
$$$$

  -OEChem-04042215593D

 29 29  0     1  0  0  0  0  0999 V2000
   -2.6707   -4.4228    1.1476 H   0  0  0  0  0  0  0  0  0  0  0  0
   -2.8649   -3.4039    0.8012 C   0  0  0  0  0  0  0  0  0  0  0  0
   -3.4301   -2.8722    1.5706 H   0  0  0  0  0  0  0  0  0  0  0  0
   -3.4613   -3.4497   -0.1131 H   0  0  0  0  0  0  0  0  0  0  0  0
   -1.5566   -2.6852    0.5303 C   0  0  0  0  0  0  0  0  0  0  0  0
   -0.4963   -3.2789    0.6498 O   0  0  0  0  0  0  0  0  0  0  0  0
   -1.5712   -1.3637    0.1404 N   0  0  0  0  0  0  0  0  0  0  0  0
   -2.4664   -0.8766    0.1829 H   0  0  0  0  0  0  0  0  0  0  0  0
   -0.3806   -0.5031    0.0708 C   0  0  1  0  0  0  0  0  0  0  0  0
    0.4029   -0.9294    0.7061 H   0  0  0  0  0  0  0  0  0  0  0  0
    0.1615   -0.5052   -1.3864 C   0  0  0  0  0  0  0  0  0  0  0  0
    1.1764   -0.9100   -1.3425 H   0  0  0  0  0  0  0  0  0  0  0  0
   -0.4267   -1.2071   -1.9851 H   0  0  0  0  0  0  0  0  0  0  0  0
    0.2519    0.7907   -2.1591 C   0  0  0  0  0  0  0  0  0  0  0  0
    0.1829    2.0946   -1.6829 N   0  0  0  0  0  0  0  0  0  0  0  0
    0.2460    2.8930   -2.7198 C   0  0  0  0  0  0  0  0  0  0  0  0
    0.2098    3.9776   -2.6730 H   0  0  0  0  0  0  0  0  0  0  0  0
    0.3664    2.1468   -3.8745 N   0  0  0  0  0  0  0  0  0  0  0  0
    0.4197    2.5271   -4.8176 H   0  0  0  0  0  0  0  0  0  0  0  0
    0.3641    0.8135   -3.5232 C   0  0  0  0  0  0  0  0  0  0  0  0
    0.4212   -0.0503   -4.1789 H   0  0  0  0  0  0  0  0  0  0  0  0
   -0.7414    0.8591    0.7134 C   0  0  0  0  0  0  0  0  0  0  0  0
   -1.9057    1.2556    0.6754 O   0  0  0  0  0  0  0  0  0  0  0  0
    0.1365    1.4621    1.5974 N   0  0  0  0  0  0  0  0  0  0  0  0
    1.1028    1.1535    1.5572 H   0  0  0  0  0  0  0  0  0  0  0  0
   -0.1607    2.7264    2.2579 C   0  0  0  0  0  0  0  0  0  0  0  0
   -1.0615    2.6361    2.8738 H   0  0  0  0  0  0  0  0  0  0  0  0
    0.6706    3.0186    2.9063 H   0  0  0  0  0  0  0  0  0  0  0  0
   -0.3176    3.5159    1.5154 H   0  0  0  0  0  0  0  0  0  0  0  0
  1  2  1  0  0  0  0
  2  3  1  0  0  0  0
  2  4  1  0  0  0  0
  2  5  1  0  0  0  0
  5  6  2  0  0  0  0
  5  7  1  0  0  0  0
  7  8  1  0  0  0  0
  7  9  1  0  0  0  0
  9 10  1  0  0  0  0
  9 11  1  0  0  0  0
  9 22  1  0  0  0  0
 11 12  1  0  0  0  0
 11 13  1  0  0  0  0
 11 14  1  0  0  0  0
 14 15  1  0  0  0  0
 14 20  2  0  0  0  0
 15 16  2  0  0  0  0
 16 17  1  0  0  0  0
 16 18  1  0  0  0  0
 18 19  1  0  0  0  0
 18 20  1  0  0  0  0
 20 21  1  0  0  0  0
 22 23  2  0  0  0  0
 22 24  1  0  0  0  0
 24 25  1  0  0  0  0
 24 26  1  0  0  0  0
 26 27  1  0  0  0  0
 26 28  1  0  0  0  0
 26 29  1  0  0  0  0
M  END
$$$$

  -OEChem-04042215593D

 29 29  0     1  0  0  0  0  0999 V2000
   -2.6959   -4.4143    1.1884 H   0  0  0  0  0  0  0  0  0  0  0  0
   -2.8792   -3.4012    0.8197 C   0  0  0  0  0  0  0  0  0  0  0  0
   -3.4530   -2.8517    1.5700 H   0  0  0  0  0  0  0  0  0  0  0  0
   -3.4618   -3.4613   -0.1027 H   0  0  0  0  0  0  0  0  0  0  0  0
   -1.5630   -2.6953    0.5545 C   0  0  0  0  0  0  0  0  0  0  0  0
   -0.5085   -3.2922    0.7040 O   0  0  0  0  0  0  0  0  0  0  0  0
   -1.5639   -1.3823    0.1361 N   0  0  0  0  0  0  0  0  0  0  0  0
   -2.4562   -0.8887    0.1584 H   0  0  0  0  0  0  0  0  0  0  0  0
   -0.3650   -0.5334    0.0612 C   0  0  1  0  0  0  0  0  0  0  0  0
    0.4174   -0.9528    0.7026 H   0  0  0  0  0  0  0  0  0  0  0  0
    0.1684   -0.5485   -1.3981 C   0  0  0  0  0  0  0  0  0  0  0  0
    1.1819   -0.9579   -1.3606 H   0  0  0  0  0  0  0  0  0  0  0  0
   -0.4281   -1.2462   -1.9934 H   0  0  0  0  0  0  0  0  0  0  0  0
    0.2598    0.7537   -2.1572 C   0  0  0  0  0  0  0  0  0  0  0  0
    0.4869    2.0226   -1.6354 N   0  0  0  0  0  0  0  0  0  0  0  0
    0.4287    2.8661   -2.6370 C   0  0  0  0  0  0  0  0  0  0  0  0
    0.5592    3.9412   -2.5530 H   0  0  0  0  0  0  0  0  0  0  0  0
    0.1795    2.1827   -3.8104 N   0  0  0  0  0  0  0  0  0  0  0  0
    0.0741    2.6101   -4.7286 H   0  0  0  0  0  0  0  0  0  0  0  0
    0.0654    0.8424   -3.5089 C   0  0  0  0  0  0  0  0  0  0  0  0
   -0.1493    0.0204   -4.1852 H   0  0  0  0  0  0  0  0  0  0  0  0
   -0.7293    0.8422    0.6727 C   0  0  0  0  0  0  0  0  0  0  0  0
   -1.8845    1.2566    0.5827 O   0  0  0  0  0  0  0  0  0  0  0  0
    0.1369    1.4611    1.5565 N   0  0  0  0  0  0  0  0  0  0  0  0
    1.1050    1.1564    1.5214 H   0  0  0  0  0  0  0  0  0  0  0  0
   -0.1584    2.7504    2.1671 C   0  0  0  0  0  0  0  0  0  0  0  0
   -1.0808    2.6953    2.7545 H   0  0  0  0  0  0  0  0  0  0  0  0
    0.6568    3.0484    2.8332 H   0  0  0  0  0  0  0  0  0  0  0  0
   -0.2768    3.5184    1.3956 H   0  0  0  0  0  0  0  0  0  0  0  0
  1  2  1  0  0  0  0
  2  3  1  0  0  0  0
  2  4  1  0  0  0  0
  2  5  1  0  0  0  0
  5  6  2  0  0  0  0
  5  7  1  0  0  0  0
  7  8  1  0  0  0  0
  7  9  1  0  0  0  0
  9 10  1  0  0  0  0
  9 11  1  0  0  0  0
  9 22  1  0  0  0  0
 11 12  1  0  0  0  0
 11 13  1  0  0  0  0
 11 14  1  0  0  0  0
 14 15  1  0  0  0  0
 14 20  2  0  0  0  0
 15 16  2  0  0  0  0
 16 17  1  0  0  0  0
 16 18  1  0  0  0  0
 18 19  1  0  0  0  0
 18 20  1  0  0  0  0
 20 21  1  0  0  0  0
 22 23  2  0  0  0  0
 22 24  1  0  0  0  0
 24 25  1  0  0  0  0
 24 26  1  0  0  0  0
 26 27  1  0  0  0  0
 26 28  1  0  0  0  0
 26 29  1  0  0  0  0
M  END
$$$$

  -OEChem-04042215593D

 29 29  0     1  0  0  0  0  0999 V2000
   -2.7062   -4.4135    1.2457 H   0  0  0  0  0  0  0  0  0  0  0  0
   -2.8851   -3.4096    0.8505 C   0  0  0  0  0  0  0  0  0  0  0  0
   -3.4627   -2.8411    1.5835 H   0  0  0  0  0  0  0  0  0  0  0  0
   -3.4616   -3.4910   -0.0742 H   0  0  0  0  0  0  0  0  0  0  0  0
   -1.5659   -2.7124    0.5768 C   0  0  0  0  0  0  0  0  0  0  0  0
   -0.5138   -3.3077    0.7464 O   0  0  0  0  0  0  0  0  0  0  0  0
   -1.5625   -1.4090    0.1293 N   0  0  0  0  0  0  0  0  0  0  0  0
   -2.4548   -0.9156    0.1330 H   0  0  0  0  0  0  0  0  0  0  0  0
   -0.3626   -0.5625    0.0438 C   0  0  1  0  0  0  0  0  0  0  0  0
    0.4197   -0.9697    0.6927 H   0  0  0  0  0  0  0  0  0  0  0  0
    0.1690   -0.5933   -1.4138 C   0  0  0  0  0  0  0  0  0  0  0  0
    1.1830   -1.0013   -1.3838 H   0  0  0  0  0  0  0  0  0  0  0  0
   -0.4316   -1.2886   -2.0079 H   0  0  0  0  0  0  0  0  0  0  0  0
    0.2448    0.7193   -2.1500 C   0  0  0  0  0  0  0  0  0  0  0  0
    0.7463    1.9118   -1.6388 N   0  0  0  0  0  0  0  0  0  0  0  0
    0.5853    2.8187   -2.5722 C   0  0  0  0  0  0  0  0  0  0  0  0
    0.8694    3.8631   -2.4788 H   0  0  0  0  0  0  0  0  0  0  0  0
    0.0055    2.2482   -3.6887 N   0  0  0  0  0  0  0  0  0  0  0  0
   -0.2370    2.7449   -4.5438 H   0  0  0  0  0  0  0  0  0  0  0  0
   -0.2158    0.9138   -3.4226 C   0  0  0  0  0  0  0  0  0  0  0  0
   -0.6737    0.1681   -4.0656 H   0  0  0  0  0  0  0  0  0  0  0  0
   -0.7253    0.8284    0.6208 C   0  0  0  0  0  0  0  0  0  0  0  0
   -1.8703    1.2581    0.4865 O   0  0  0  0  0  0  0  0  0  0  0  0
    0.1359    1.4667    1.4954 N   0  0  0  0  0  0  0  0  0  0  0  0
    1.1031    1.1567    1.4723 H   0  0  0  0  0  0  0  0  0  0  0  0
   -0.1509    2.7804    2.0559 C   0  0  0  0  0  0  0  0  0  0  0  0
   -1.0893    2.7615    2.6198 H   0  0  0  0  0  0  0  0  0  0  0  0
    0.6511    3.0839    2.7353 H   0  0  0  0  0  0  0  0  0  0  0  0
   -0.2327    3.5257    1.2578 H   0  0  0  0  0  0  0  0  0  0  0  0
  1  2  1  0  0  0  0
  2  3  1  0  0  0  0
  2  4  1  0  0  0  0
  2  5  1  0  0  0  0
  5  6  2  0  0  0  0
  5  7  1  0  0  0  0
  7  8  1  0  0  0  0
  7  9  1  0  0  0  0
  9 10  1  0  0  0  0
  9 11  1  0  0  0  0
  9 22  1  0  0  0  0
 11 12  1  0  0  0  0
 11 13  1  0  0  0  0
 11 14  1  0  0  0  0
 14 15  1  0  0  0  0
 14 20  2  0  0  0  0
 15 16  2  0  0  0  0
 16 17  1  0  0  0  0
 16 18  1  0  0  0  0
 18 19  1  0  0  0  0
 18 20  1  0  0  0  0
 20 21  1  0  0  0  0
 22 23  2  0  0  0  0
 22 24  1  0  0  0  0
 24 25  1  0  0  0  0
 24 26  1  0  0  0  0
 26 27  1  0  0  0  0
 26 28  1  0  0  0  0
 26 29  1  0  0  0  0
M  END
$$$$

  -OEChem-04042215593D

 29 29  0     1  0  0  0  0  0999 V2000
   -2.6986   -4.4214    1.3089 H   0  0  0  0  0  0  0  0  0  0  0  0
   -2.8819   -3.4266    0.8932 C   0  0  0  0  0  0  0  0  0  0  0  0
   -3.4582   -2.8443    1.6162 H   0  0  0  0  0  0  0  0  0  0  0  0
   -3.4618   -3.5300   -0.0268 H   0  0  0  0  0  0  0  0  0  0  0  0
   -1.5655   -2.7321    0.5996 C   0  0  0  0  0  0  0  0  0  0  0  0
   -0.5116   -3.3195    0.7840 O   0  0  0  0  0  0  0  0  0  0  0  0
   -1.5668   -1.4383    0.1242 N   0  0  0  0  0  0  0  0  0  0  0  0
   -2.4613   -0.9491    0.1147 H   0  0  0  0  0  0  0  0  0  0  0  0
   -0.3696   -0.5903    0.0198 C   0  0  1  0  0  0  0  0  0  0  0  0
    0.4173   -0.9842    0.6715 H   0  0  0  0  0  0  0  0  0  0  0  0
    0.1597   -0.6287   -1.4365 C   0  0  0  0  0  0  0  0  0  0  0  0
    1.1749   -1.0350   -1.4216 H   0  0  0  0  0  0  0  0  0  0  0  0
   -0.4485   -1.3162   -2.0317 H   0  0  0  0  0  0  0  0  0  0  0  0
    0.2104    0.6996   -2.1393 C   0  0  0  0  0  0  0  0  0  0  0  0
    0.9602    1.7847   -1.6982 N   0  0  0  0  0  0  0  0  0  0  0  0
    0.7281    2.7611   -2.5425 C   0  0  0  0  0  0  0  0  0  0  0  0
    1.1584    3.7560   -2.4729 H   0  0  0  0  0  0  0  0  0  0  0  0
   -0.1392    2.3369   -3.5314 N   0  0  0  0  0  0  0  0  0  0  0  0
   -0.4869    2.9138   -4.2950 H   0  0  0  0  0  0  0  0  0  0  0  0
   -0.4708    1.0227   -3.2789 C   0  0  0  0  0  0  0  0  0  0  0  0
   -1.1395    0.3768   -3.8399 H   0  0  0  0  0  0  0  0  0  0  0  0
   -0.7282    0.8143    0.5659 C   0  0  0  0  0  0  0  0  0  0  0  0
   -1.8661    1.2520    0.4033 O   0  0  0  0  0  0  0  0  0  0  0  0
    0.1332    1.4739    1.4235 N   0  0  0  0  0  0  0  0  0  0  0  0
    1.0990    1.1578    1.4135 H   0  0  0  0  0  0  0  0  0  0  0  0
   -0.1496    2.8034    1.9478 C   0  0  0  0  0  0  0  0  0  0  0  0
   -1.0855    2.8017    2.5161 H   0  0  0  0  0  0  0  0  0  0  0  0
    0.6559    3.1250    2.6147 H   0  0  0  0  0  0  0  0  0  0  0  0
   -0.2341    3.5258    1.1293 H   0  0  0  0  0  0  0  0  0  0  0  0
  1  2  1  0  0  0  0
  2  3  1  0  0  0  0
  2  4  1  0  0  0  0
  2  5  1  0  0  0  0
  5  6  2  0  0  0  0
  5  7  1  0  0  0  0
  7  8  1  0  0  0  0
  7  9  1  0  0  0  0
  9 10  1  0  0  0  0
  9 11  1  0  0  0  0
  9 22  1  0  0  0  0
 11 12  1  0  0  0  0
 11 13  1  0  0  0  0
 11 14  1  0  0  0  0
 14 15  1  0  0  0  0
 14 20  2  0  0  0  0
 15 16  2  0  0  0  0
 16 17  1  0  0  0  0
 16 18  1  0  0  0  0
 18 19  1  0  0  0  0
 18 20  1  0  0  0  0
 20 21  1  0  0  0  0
 22 23  2  0  0  0  0
 22 24  1  0  0  0  0
 24 25  1  0  0  0  0
 24 26  1  0  0  0  0
 26 27  1  0  0  0  0
 26 28  1  0  0  0  0
 26 29  1  0  0  0  0
M  END
$$$$

  -OEChem-04042215593D

 29 29  0     1  0  0  0  0  0999 V2000
   -2.6855   -4.4525    1.2996 H   0  0  0  0  0  0  0  0  0  0  0  0
   -2.8762   -3.4536    0.8972 C   0  0  0  0  0  0  0  0  0  0  0  0
   -3.4607   -2.8865    1.6258 H   0  0  0  0  0  0  0  0  0  0  0  0
   -3.4516   -3.5497   -0.0266 H   0  0  0  0  0  0  0  0  0  0  0  0
   -1.5651   -2.7433    0.6184 C   0  0  0  0  0  0  0  0  0  0  0  0
   -0.5065   -3.3162    0.8194 O   0  0  0  0  0  0  0  0  0  0  0  0
   -1.5774   -1.4535    0.1320 N   0  0  0  0  0  0  0  0  0  0  0  0
   -2.4778   -0.9766    0.1070 H   0  0  0  0  0  0  0  0  0  0  0  0
   -0.3881   -0.5965    0.0151 C   0  0  1  0  0  0  0  0  0  0  0  0
    0.4022   -0.9828    0.6676 H   0  0  0  0  0  0  0  0  0  0  0  0
    0.1453   -0.6365   -1.4374 C   0  0  0  0  0  0  0  0  0  0  0  0
    1.1635   -1.0359   -1.4303 H   0  0  0  0  0  0  0  0  0  0  0  0
   -0.4630   -1.3222   -2.0345 H   0  0  0  0  0  0  0  0  0  0  0  0
    0.1708    0.7010   -2.1189 C   0  0  0  0  0  0  0  0  0  0  0  0
    1.1166    1.6792   -1.8366 N   0  0  0  0  0  0  0  0  0  0  0  0
    0.8286    2.6993   -2.6099 C   0  0  0  0  0  0  0  0  0  0  0  0
    1.3773    3.6366   -2.6290 H   0  0  0  0  0  0  0  0  0  0  0  0
   -0.2700    2.4050   -3.3960 N   0  0  0  0  0  0  0  0  0  0  0  0
   -0.7000    3.0394   -4.0664 H   0  0  0  0  0  0  0  0  0  0  0  0
   -0.6898    1.1281   -3.0895 C   0  0  0  0  0  0  0  0  0  0  0  0
   -1.5270    0.5751   -3.5041 H   0  0  0  0  0  0  0  0  0  0  0  0
   -0.7337    0.8163    0.5454 C   0  0  0  0  0  0  0  0  0  0  0  0
   -1.8648    1.2653    0.3716 O   0  0  0  0  0  0  0  0  0  0  0  0
    0.1384    1.4824    1.3864 N   0  0  0  0  0  0  0  0  0  0  0  0
    1.0978    1.1467    1.3939 H   0  0  0  0  0  0  0  0  0  0  0  0
   -0.1279    2.8217    1.8937 C   0  0  0  0  0  0  0  0  0  0  0  0
   -1.0612    2.8378    2.4662 H   0  0  0  0  0  0  0  0  0  0  0  0
    0.6843    3.1438    2.5522 H   0  0  0  0  0  0  0  0  0  0  0  0
   -0.2086    3.5337    1.0657 H   0  0  0  0  0  0  0  0  0  0  0  0
  1  2  1  0  0  0  0
  2  3  1  0  0  0  0
  2  4  1  0  0  0  0
  2  5  1  0  0  0  0
  5  6  2  0  0  0  0
  5  7  1  0  0  0  0
  7  8  1  0  0  0  0
  7  9  1  0  0  0  0
  9 10  1  0  0  0  0
  9 11  1  0  0  0  0
  9 22  1  0  0  0  0
 11 12  1  0  0  0  0
 11 13  1  0  0  0  0
 11 14  1  0  0  0  0
 14 15  1  0  0  0  0
 14 20  2  0  0  0  0
 15 16  2  0  0  0  0
 16 17  1  0  0  0  0
 16 18  1  0  0  0  0
 18 19  1  0  0  0  0
 18 20  1  0  0  0  0
 20 21  1  0  0  0  0
 22 23  2  0  0  0  0
 22 24  1  0  0  0  0
 24 25  1  0  0  0  0
 24 26  1  0  0  0  0
 26 27  1  0  0  0  0
 26 28  1  0  0  0  0
 26 29  1  0  0  0  0
M  END
$$$$

  -OEChem-04042215593D

 29 29  0     1  0  0  0  0  0999 V2000
   -2.6729   -4.4647    1.2944 H   0  0  0  0  0  0  0  0  0  0  0  0
   -2.8709   -3.4651    0.8975 C   0  0  0  0  0  0  0  0  0  0  0  0
   -3.4571   -2.9055    1.6304 H   0  0  0  0  0  0  0  0  0  0  0  0
   -3.4476   -3.5600   -0.0257 H   0  0  0  0  0  0  0  0  0  0  0  0
   -1.5649   -2.7451    0.6202 C   0  0  0  0  0  0  0  0  0  0  0  0
   -0.5022   -3.3089    0.8253 O   0  0  0  0  0  0  0  0  0  0  0  0
   -1.5863   -1.4548    0.1354 N   0  0  0  0  0  0  0  0  0  0  0  0
   -2.4905   -0.9858    0.1083 H   0  0  0  0  0  0  0  0  0  0  0  0
   -0.4025   -0.5911    0.0134 C   0  0  1  0  0  0  0  0  0  0  0  0
    0.3891   -0.9761    0.6651 H   0  0  0  0  0  0  0  0  0  0  0  0
    0.1365   -0.6294   -1.4362 C   0  0  0  0  0  0  0  0  0  0  0  0
    1.1562   -1.0253   -1.4308 H   0  0  0  0  0  0  0  0  0  0  0  0
   -0.4691   -1.3151   -2.0361 H   0  0  0  0  0  0  0  0  0  0  0  0
    0.1499    0.7104   -2.1124 C   0  0  0  0  0  0  0  0  0  0  0  0
    1.2344    1.5759   -2.0563 N   0  0  0  0  0  0  0  0  0  0  0  0
    0.8974    2.6291   -2.7625 C   0  0  0  0  0  0  0  0  0  0  0  0
    1.5276    3.5007   -2.9142 H   0  0  0  0  0  0  0  0  0  0  0  0
   -0.3718    2.4655   -3.2856 N   0  0  0  0  0  0  0  0  0  0  0  0
   -0.8675    3.1505   -3.8528 H   0  0  0  0  0  0  0  0  0  0  0  0
   -0.8491    1.2375   -2.8805 C   0  0  0  0  0  0  0  0  0  0  0  0
   -1.8111    0.7820   -3.0957 H   0  0  0  0  0  0  0  0  0  0  0  0
   -0.7388    0.8233    0.5436 C   0  0  0  0  0  0  0  0  0  0  0  0
   -1.8668    1.2798    0.3720 O   0  0  0  0  0  0  0  0  0  0  0  0
    0.1425    1.4874    1.3762 N   0  0  0  0  0  0  0  0  0  0  0  0
    1.0927    1.1277    1.4128 H   0  0  0  0  0  0  0  0  0  0  0  0
   -0.1168    2.8211    1.9014 C   0  0  0  0  0  0  0  0  0  0  0  0
   -1.0373    2.8279    2.4944 H   0  0  0  0  0  0  0  0  0  0  0  0
    0.7090    3.1403    2.5443 H   0  0  0  0  0  0  0  0  0  0  0  0
   -0.2189    3.5408    1.0827 H   0  0  0  0  0  0  0  0  0  0  0  0
  1  2  1  0  0  0  0
  2  3  1  0  0  0  0
  2  4  1  0  0  0  0
  2  5  1  0  0  0  0
  5  6  2  0  0  0  0
  5  7  1  0  0  0  0
  7  8  1  0  0  0  0
  7  9  1  0  0  0  0
  9 10  1  0  0  0  0
  9 11  1  0  0  0  0
  9 22  1  0  0  0  0
 11 12  1  0  0  0  0
 11 13  1  0  0  0  0
 11 14  1  0  0  0  0
 14 15  1  0  0  0  0
 14 20  2  0  0  0  0
 15 16  2  0  0  0  0
 16 17  1  0  0  0  0
 16 18  1  0  0  0  0
 18 19  1  0  0  0  0
 18 20  1  0  0  0  0
 20 21  1  0  0  0  0
 22 23  2  0  0  0  0
 22 24  1  0  0  0  0
 24 25  1  0  0  0  0
 24 26  1  0  0  0  0
 26 27  1  0  0  0  0
 26 28  1  0  0  0  0
 26 29  1  0  0  0  0
M  END
$$$$

  -OEChem-04042215593D

 29 29  0     1  0  0  0  0  0999 V2000
   -2.6581   -4.4670    1.3038 H   0  0  0  0  0  0  0  0  0  0  0  0
   -2.8635   -3.4723    0.8983 C   0  0  0  0  0  0  0  0  0  0  0  0
   -3.4554   -2.9115    1.6257 H   0  0  0  0  0  0  0  0  0  0  0  0
   -3.4384   -3.5796   -0.0246 H   0  0  0  0  0  0  0  0  0  0  0  0
   -1.5627   -2.7440    0.6163 C   0  0  0  0  0  0  0  0  0  0  0  0
   -0.4961   -3.3025    0.8148 O   0  0  0  0  0  0  0  0  0  0  0  0
   -1.5931   -1.4489    0.1438 N   0  0  0  0  0  0  0  0  0  0  0  0
   -2.5004   -0.9860    0.1220 H   0  0  0  0  0  0  0  0  0  0  0  0
   -0.4138   -0.5788    0.0189 C   0  0  1  0  0  0  0  0  0  0  0  0
    0.3815   -0.9679    0.6636 H   0  0  0  0  0  0  0  0  0  0  0  0
    0.1232   -0.6072   -1.4322 C   0  0  0  0  0  0  0  0  0  0  0  0
    1.1435   -1.0020   -1.4276 H   0  0  0  0  0  0  0  0  0  0  0  0
   -0.4799   -1.2937   -2.0333 H   0  0  0  0  0  0  0  0  0  0  0  0
    0.1341    0.7296   -2.1178 C   0  0  0  0  0  0  0  0  0  0  0  0
    1.2923    1.4654   -2.3289 N   0  0  0  0  0  0  0  0  0  0  0  0
    0.9281    2.5478   -2.9750 C   0  0  0  0  0  0  0  0  0  0  0  0
    1.6026    3.3402   -3.2871 H   0  0  0  0  0  0  0  0  0  0  0  0
   -0.4351    2.5291   -3.2018 N   0  0  0  0  0  0  0  0  0  0  0  0
   -0.9645    3.2610   -3.6717 H   0  0  0  0  0  0  0  0  0  0  0  0
   -0.9438    1.3656   -2.6662 C   0  0  0  0  0  0  0  0  0  0  0  0
   -1.9743    1.0222   -2.6521 H   0  0  0  0  0  0  0  0  0  0  0  0
   -0.7436    0.8308    0.5635 C   0  0  0  0  0  0  0  0  0  0  0  0
   -1.8730    1.2894    0.4094 O   0  0  0  0  0  0  0  0  0  0  0  0
    0.1473    1.4875    1.3918 N   0  0  0  0  0  0  0  0  0  0  0  0
    1.0887    1.1082    1.4502 H   0  0  0  0  0  0  0  0  0  0  0  0
   -0.1102    2.8074    1.9524 C   0  0  0  0  0  0  0  0  0  0  0  0
   -1.0299    2.8002    2.5468 H   0  0  0  0  0  0  0  0  0  0  0  0
    0.7164    3.1087    2.6029 H   0  0  0  0  0  0  0  0  0  0  0  0
   -0.2115    3.5485    1.1528 H   0  0  0  0  0  0  0  0  0  0  0  0
  1  2  1  0  0  0  0
  2  3  1  0  0  0  0
  2  4  1  0  0  0  0
  2  5  1  0  0  0  0
  5  6  2  0  0  0  0
  5  7  1  0  0  0  0
  7  8  1  0  0  0  0
  7  9  1  0  0  0  0
  9 10  1  0  0  0  0
  9 11  1  0  0  0  0
  9 22  1  0  0  0  0
 11 12  1  0  0  0  0
 11 13  1  0  0  0  0
 11 14  1  0  0  0  0
 14 15  1  0  0  0  0
 14 20  2  0  0  0  0
 15 16  2  0  0  0  0
 16 17  1  0  0  0  0
 16 18  1  0  0  0  0
 18 19  1  0  0  0  0
 18 20  1  0  0  0  0
 20 21  1  0  0  0  0
 22 23  2  0  0  0  0
 22 24  1  0  0  0  0
 24 25  1  0  0  0  0
 24 26  1  0  0  0  0
 26 27  1  0  0  0  0
 26 28  1  0  0  0  0
 26 29  1  0  0  0  0
M  END
$$$$

  -OEChem-04042215593D

 29 29  0     1  0  0  0  0  0999 V2000
   -2.6359   -4.4741    1.2686 H   0  0  0  0  0  0  0  0  0  0  0  0
   -2.8504   -3.4732    0.8835 C   0  0  0  0  0  0  0  0  0  0  0  0
   -3.4449   -2.9317    1.6234 H   0  0  0  0  0  0  0  0  0  0  0  0
   -3.4272   -3.5672   -0.0398 H   0  0  0  0  0  0  0  0  0  0  0  0
   -1.5564   -2.7291    0.6119 C   0  0  0  0  0  0  0  0  0  0  0  0
   -0.4844   -3.2824    0.7950 O   0  0  0  0  0  0  0  0  0  0  0  0
   -1.5996   -1.4265    0.1621 N   0  0  0  0  0  0  0  0  0  0  0  0
   -2.5107   -0.9710    0.1526 H   0  0  0  0  0  0  0  0  0  0  0  0
   -0.4271   -0.5479    0.0344 C   0  0  1  0  0  0  0  0  0  0  0  0
    0.3725   -0.9435    0.6699 H   0  0  0  0  0  0  0  0  0  0  0  0
    0.1050   -0.5749   -1.4198 C   0  0  0  0  0  0  0  0  0  0  0  0
    1.1288   -0.9611   -1.4059 H   0  0  0  0  0  0  0  0  0  0  0  0
   -0.4865   -1.2756   -2.0160 H   0  0  0  0  0  0  0  0  0  0  0  0
    0.1164    0.7472   -2.1373 C   0  0  0  0  0  0  0  0  0  0  0  0
    1.2782    1.3269   -2.6295 N   0  0  0  0  0  0  0  0  0  0  0  0
    0.9150    2.4323   -3.2356 C   0  0  0  0  0  0  0  0  0  0  0  0
    1.5951    3.1234   -3.7253 H   0  0  0  0  0  0  0  0  0  0  0  0
   -0.4563    2.5840   -3.1618 N   0  0  0  0  0  0  0  0  0  0  0  0
   -0.9858    3.3624   -3.5498 H   0  0  0  0  0  0  0  0  0  0  0  0
   -0.9699    1.5055   -2.4751 C   0  0  0  0  0  0  0  0  0  0  0  0
   -2.0075    1.2936   -2.2310 H   0  0  0  0  0  0  0  0  0  0  0  0
   -0.7468    0.8527    0.6049 C   0  0  0  0  0  0  0  0  0  0  0  0
   -1.8818    1.3084    0.4896 O   0  0  0  0  0  0  0  0  0  0  0  0
    0.1582    1.4970    1.4278 N   0  0  0  0  0  0  0  0  0  0  0  0
    1.0913    1.0994    1.4972 H   0  0  0  0  0  0  0  0  0  0  0  0
   -0.1071    2.7827    2.0608 C   0  0  0  0  0  0  0  0  0  0  0  0
   -0.9986    2.7230    2.6940 H   0  0  0  0  0  0  0  0  0  0  0  0
    0.7405    3.0763    2.6875 H   0  0  0  0  0  0  0  0  0  0  0  0
   -0.2633    3.5575    1.3030 H   0  0  0  0  0  0  0  0  0  0  0  0
  1  2  1  0  0  0  0
  2  3  1  0  0  0  0
  2  4  1  0  0  0  0
  2  5  1  0  0  0  0
  5  6  2  0  0  0  0
  5  7  1  0  0  0  0
  7  8  1  0  0  0  0
  7  9  1  0  0  0  0
  9 10  1  0  0  0  0
  9 11  1  0  0  0  0
  9 22  1  0  0  0  0
 11 12  1  0  0  0  0
 11 13  1  0  0  0  0
 11 14  1  0  0  0  0
 14 15  1  0  0  0  0
 14 20  2  0  0  0  0
 15 16  2  0  0  0  0
 16 17  1  0  0  0  0
 16 18  1  0  0  0  0
 18 19  1  0  0  0  0
 18 20  1  0  0  0  0
 20 21  1  0  0  0  0
 22 23  2  0  0  0  0
 22 24  1  0  0  0  0
 24 25  1  0  0  0  0
 24 26  1  0  0  0  0
 26 27  1  0  0  0  0
 26 28  1  0  0  0  0
 26 29  1  0  0  0  0
M  END
$$$$

  -OEChem-04042215593D

 29 29  0     1  0  0  0  0  0999 V2000
   -2.6012   -4.4987    1.2075 H   0  0  0  0  0  0  0  0  0  0  0  0
   -2.8332   -3.4881    0.8597 C   0  0  0  0  0  0  0  0  0  0  0  0
   -3.4281   -2.9810    1.6233 H   0  0  0  0  0  0  0  0  0  0  0  0
   -3.4171   -3.5581   -0.0613 H   0  0  0  0  0  0  0  0  0  0  0  0
   -1.5519   -2.7174    0.6027 C   0  0  0  0  0  0  0  0  0  0  0  0
   -0.4715   -3.2604    0.7672 O   0  0  0  0  0  0  0  0  0  0  0  0
   -1.6150   -1.4035    0.1884 N   0  0  0  0  0  0  0  0  0  0  0  0
   -2.5325   -0.9611    0.1904 H   0  0  0  0  0  0  0  0  0  0  0  0
   -0.4536   -0.5101    0.0599 C   0  0  1  0  0  0  0  0  0  0  0  0
    0.3496   -0.9152    0.6847 H   0  0  0  0  0  0  0  0  0  0  0  0
    0.0835   -0.5280   -1.3946 C   0  0  0  0  0  0  0  0  0  0  0  0
    1.1139   -0.8944   -1.3626 H   0  0  0  0  0  0  0  0  0  0  0  0
   -0.4836   -1.2494   -1.9897 H   0  0  0  0  0  0  0  0  0  0  0  0
    0.0943    0.7778   -2.1467 C   0  0  0  0  0  0  0  0  0  0  0  0
    1.1928    1.1845   -2.8937 N   0  0  0  0  0  0  0  0  0  0  0  0
    0.8578    2.3088   -3.4799 C   0  0  0  0  0  0  0  0  0  0  0  0
    1.5056    2.8858   -4.1337 H   0  0  0  0  0  0  0  0  0  0  0  0
   -0.4400    2.6435   -3.1477 N   0  0  0  0  0  0  0  0  0  0  0  0
   -0.9411    3.4652   -3.4805 H   0  0  0  0  0  0  0  0  0  0  0  0
   -0.9364    1.6620   -2.3177 C   0  0  0  0  0  0  0  0  0  0  0  0
   -1.9338    1.5887   -1.8921 H   0  0  0  0  0  0  0  0  0  0  0  0
   -0.7565    0.8774    0.6687 C   0  0  0  0  0  0  0  0  0  0  0  0
   -1.8956    1.3323    0.6058 O   0  0  0  0  0  0  0  0  0  0  0  0
    0.1714    1.5004    1.4829 N   0  0  0  0  0  0  0  0  0  0  0  0
    1.0993    1.0883    1.5369 H   0  0  0  0  0  0  0  0  0  0  0  0
   -0.0827    2.7560    2.1777 C   0  0  0  0  0  0  0  0  0  0  0  0
   -0.9382    2.6545    2.8536 H   0  0  0  0  0  0  0  0  0  0  0  0
    0.7915    3.0434    2.7699 H   0  0  0  0  0  0  0  0  0  0  0  0
   -0.2929    3.5550    1.4591 H   0  0  0  0  0  0  0  0  0  0  0  0
  1  2  1  0  0  0  0
  2  3  1  0  0  0  0
  2  4  1  0  0  0  0
  2  5  1  0  0  0  0
  5  6  2  0  0  0  0
  5  7  1  0  0  0  0
  7  8  1  0  0  0  0
  7  9  1  0  0  0  0
  9 10  1  0  0  0  0
  9 11  1  0  0  0  0
  9 22  1  0  0  0  0
 11 12  1  0  0  0  0
 11 13  1  0  0  0  0
 11 14  1  0  0  0  0
 14 15  1  0  0  0  0
 14 20  2  0  0  0  0
 15 16  2  0  0  0  0
 16 17  1  0  0  0  0
 16 18  1  0  0  0  0
 18 19  1  0  0  0  0
 18 20  1  0  0  0  0
 20 21  1  0  0  0  0
 22 23  2  0  0  0  0
 22 24  1  0  0  0  0
 24 25  1  0  0  0  0
 24 26  1  0  0  0  0
 26 27  1  0  0  0  0
 26 28  1  0  0  0  0
 26 29  1  0  0  0  0
M  END
$$$$

  -OEChem-04042215593D

 29 29  0     1  0  0  0  0  0999 V2000
   -2.5692   -4.5252    1.1265 H   0  0  0  0  0  0  0  0  0  0  0  0
   -2.8145   -3.5052    0.8172 C   0  0  0  0  0  0  0  0  0  0  0  0
   -3.4097   -3.0330    1.6025 H   0  0  0  0  0  0  0  0  0  0  0  0
   -3.4038   -3.5481   -0.1019 H   0  0  0  0  0  0  0  0  0  0  0  0
   -1.5440   -2.7106    0.5806 C   0  0  0  0  0  0  0  0  0  0  0  0
   -0.4558   -3.2427    0.7288 O   0  0  0  0  0  0  0  0  0  0  0  0
   -1.6263   -1.3861    0.2049 N   0  0  0  0  0  0  0  0  0  0  0  0
   -2.5507   -0.9586    0.2124 H   0  0  0  0  0  0  0  0  0  0  0  0
   -0.4781   -0.4749    0.0863 C   0  0  1  0  0  0  0  0  0  0  0  0
    0.3265   -0.8875    0.7044 H   0  0  0  0  0  0  0  0  0  0  0  0
    0.0701   -0.4765   -1.3655 C   0  0  0  0  0  0  0  0  0  0  0  0
    1.1062   -0.8248   -1.3150 H   0  0  0  0  0  0  0  0  0  0  0  0
   -0.4739   -1.2157   -1.9605 H   0  0  0  0  0  0  0  0  0  0  0  0
    0.0850    0.8124   -2.1522 C   0  0  0  0  0  0  0  0  0  0  0  0
    1.0616    1.0281   -3.1176 N   0  0  0  0  0  0  0  0  0  0  0  0
    0.7917    2.1752   -3.6915 C   0  0  0  0  0  0  0  0  0  0  0  0
    1.3780    2.6257   -4.4875 H   0  0  0  0  0  0  0  0  0  0  0  0
   -0.3514    2.7157   -3.1393 N   0  0  0  0  0  0  0  0  0  0  0  0
   -0.7878    3.5899   -3.4259 H   0  0  0  0  0  0  0  0  0  0  0  0
   -0.8180    1.8432   -2.1801 C   0  0  0  0  0  0  0  0  0  0  0  0
   -1.7289    1.9373   -1.5970 H   0  0  0  0  0  0  0  0  0  0  0  0
   -0.7770    0.8941    0.7343 C   0  0  0  0  0  0  0  0  0  0  0  0
   -1.9217    1.3381    0.7173 O   0  0  0  0  0  0  0  0  0  0  0  0
    0.1622    1.5002    1.5484 N   0  0  0  0  0  0  0  0  0  0  0  0
    1.0885    1.0829    1.5879 H   0  0  0  0  0  0  0  0  0  0  0  0
   -0.0935    2.7212    2.3021 C   0  0  0  0  0  0  0  0  0  0  0  0
   -0.9095    2.5671    3.0158 H   0  0  0  0  0  0  0  0  0  0  0  0
    0.8010    3.0160    2.8591 H   0  0  0  0  0  0  0  0  0  0  0  0
   -0.3645    3.5384    1.6256 H   0  0  0  0  0  0  0  0  0  0  0  0
  1  2  1  0  0  0  0
  2  3  1  0  0  0  0
  2  4  1  0  0  0  0
  2  5  1  0  0  0  0
  5  6  2  0  0  0  0
  5  7  1  0  0  0  0
  7  8  1  0  0  0  0
  7  9  1  0  0  0  0
  9 10  1  0  0  0  0
  9 11  1  0  0  0  0
  9 22  1  0  0  0  0
 11 12  1  0  0  0  0
 11 13  1  0  0  0  0
 11 14  1  0  0  0  0
 14 15  1  0  0  0  0
 14 20  2  0  0  0  0
 15 16  2  0  0  0  0
 16 17  1  0  0  0  0
 16 18  1  0  0  0  0
 18 19  1  0  0  0  0
 18 20  1  0  0  0  0
 20 21  1  0  0  0  0
 22 23  2  0  0  0  0
 22 24  1  0  0  0  0
 24 25  1  0  0  0  0
 24 26  1  0  0  0  0
 26 27  1  0  0  0  0
 26 28  1  0  0  0  0
 26 29  1  0  0  0  0
M  END
$$$$

  -OEChem-04042215593D

 29 29  0     1  0  0  0  0  0999 V2000
   -2.5799   -4.5209    1.0935 H   0  0  0  0  0  0  0  0  0  0  0  0
   -2.8235   -3.4958    0.8002 C   0  0  0  0  0  0  0  0  0  0  0  0
   -3.4265   -3.0382    1.5883 H   0  0  0  0  0  0  0  0  0  0  0  0
   -3.4043   -3.5229   -0.1250 H   0  0  0  0  0  0  0  0  0  0  0  0
   -1.5515   -2.6964    0.5889 C   0  0  0  0  0  0  0  0  0  0  0  0
   -0.4644   -3.2294    0.7422 O   0  0  0  0  0  0  0  0  0  0  0  0
   -1.6305   -1.3662    0.2330 N   0  0  0  0  0  0  0  0  0  0  0  0
   -2.5555   -0.9400    0.2234 H   0  0  0  0  0  0  0  0  0  0  0  0
   -0.4808   -0.4568    0.1134 C   0  0  1  0  0  0  0  0  0  0  0  0
    0.3324   -0.8785    0.7139 H   0  0  0  0  0  0  0  0  0  0  0  0
    0.0421   -0.4446   -1.3495 C   0  0  0  0  0  0  0  0  0  0  0  0
    1.0747   -0.8048   -1.3144 H   0  0  0  0  0  0  0  0  0  0  0  0
   -0.5181   -1.1803   -1.9338 H   0  0  0  0  0  0  0  0  0  0  0  0
    0.0705    0.8299   -2.1662 C   0  0  0  0  0  0  0  0  0  0  0  0
    0.8324    0.8433   -3.3296 N   0  0  0  0  0  0  0  0  0  0  0  0
    0.6712    2.0150   -3.8925 C   0  0  0  0  0  0  0  0  0  0  0  0
    1.1410    2.3305   -4.8194 H   0  0  0  0  0  0  0  0  0  0  0  0
   -0.1890    2.7797   -3.1338 N   0  0  0  0  0  0  0  0  0  0  0  0
   -0.4996    3.7213   -3.3656 H   0  0  0  0  0  0  0  0  0  0  0  0
   -0.5878    2.0293   -2.0485 C   0  0  0  0  0  0  0  0  0  0  0  0
   -1.3031    2.3298   -1.2911 H   0  0  0  0  0  0  0  0  0  0  0  0
   -0.7810    0.8970    0.7872 C   0  0  0  0  0  0  0  0  0  0  0  0
   -1.9245    1.3438    0.7733 O   0  0  0  0  0  0  0  0  0  0  0  0
    0.1600    1.4961    1.6044 N   0  0  0  0  0  0  0  0  0  0  0  0
    1.0764    1.0597    1.6650 H   0  0  0  0  0  0  0  0  0  0  0  0
   -0.1043    2.6928    2.3935 C   0  0  0  0  0  0  0  0  0  0  0  0
   -0.8968    2.5023    3.1247 H   0  0  0  0  0  0  0  0  0  0  0  0
    0.7980    2.9966    2.9329 H   0  0  0  0  0  0  0  0  0  0  0  0
   -0.4130    3.5192    1.7449 H   0  0  0  0  0  0  0  0  0  0  0  0
  1  2  1  0  0  0  0
  2  3  1  0  0  0  0
  2  4  1  0  0  0  0
  2  5  1  0  0  0  0
  5  6  2  0  0  0  0
  5  7  1  0  0  0  0
  7  8  1  0  0  0  0
  7  9  1  0  0  0  0
  9 10  1  0  0  0  0
  9 11  1  0  0  0  0
  9 22  1  0  0  0  0
 11 12  1  0  0  0  0
 11 13  1  0  0  0  0
 11 14  1  0  0  0  0
 14 15  1  0  0  0  0
 14 20  2  0  0  0  0
 15 16  2  0  0  0  0
 16 17  1  0  0  0  0
 16 18  1  0  0  0  0
 18 19  1  0  0  0  0
 18 20  1  0  0  0  0
 20 21  1  0  0  0  0
 22 23  2  0  0  0  0
 22 24  1  0  0  0  0
 24 25  1  0  0  0  0
 24 26  1  0  0  0  0
 26 27  1  0  0  0  0
 26 28  1  0  0  0  0
 26 29  1  0  0  0  0
M  END
$$$$

  -OEChem-04042215593D

 29 29  0     1  0  0  0  0  0999 V2000
   -2.5999   -4.5138    0.9958 H   0  0  0  0  0  0  0  0  0  0  0  0
   -2.8124   -3.4853    0.6908 C   0  0  0  0  0  0  0  0  0  0  0  0
   -3.4822   -3.0311    1.4250 H   0  0  0  0  0  0  0  0  0  0  0  0
   -3.3075   -3.5022   -0.2832 H   0  0  0  0  0  0  0  0  0  0  0  0
   -1.5239   -2.6896    0.6020 C   0  0  0  0  0  0  0  0  0  0  0  0
   -0.4576   -3.2194    0.8703 O   0  0  0  0  0  0  0  0  0  0  0  0
   -1.5643   -1.3625    0.2315 N   0  0  0  0  0  0  0  0  0  0  0  0
   -2.4802   -0.9368    0.0986 H   0  0  0  0  0  0  0  0  0  0  0  0
   -0.3958   -0.4727    0.1578 C   0  0  1  0  0  0  0  0  0  0  0  0
    0.4259   -0.8850    0.7528 H   0  0  0  0  0  0  0  0  0  0  0  0
    0.0773   -0.4299   -1.3232 C   0  0  0  0  0  0  0  0  0  0  0  0
    0.9437   -1.0930   -1.4039 H   0  0  0  0  0  0  0  0  0  0  0  0
   -0.7077   -0.8697   -1.9460 H   0  0  0  0  0  0  0  0  0  0  0  0
    0.4457    0.8677   -2.0143 C   0  0  0  0  0  0  0  0  0  0  0  0
    0.8560    0.7848   -3.3408 N   0  0  0  0  0  0  0  0  0  0  0  0
    1.1142    2.0010   -3.7519 C   0  0  0  0  0  0  0  0  0  0  0  0
    1.4519    2.2620   -4.7508 H   0  0  0  0  0  0  0  0  0  0  0  0
    0.8907    2.8938   -2.7258 N   0  0  0  0  0  0  0  0  0  0  0  0
    0.9979    3.9042   -2.7923 H   0  0  0  0  0  0  0  0  0  0  0  0
    0.4656    2.1852   -1.6224 C   0  0  0  0  0  0  0  0  0  0  0  0
    0.1904    2.6089   -0.6638 H   0  0  0  0  0  0  0  0  0  0  0  0
   -0.7677    0.8675    0.8186 C   0  0  0  0  0  0  0  0  0  0  0  0
   -1.8630    1.3783    0.6108 O   0  0  0  0  0  0  0  0  0  0  0  0
    0.1089    1.4774    1.6985 N   0  0  0  0  0  0  0  0  0  0  0  0
    0.9693    0.9821    1.9183 H   0  0  0  0  0  0  0  0  0  0  0  0
   -0.2209    2.6803    2.4528 C   0  0  0  0  0  0  0  0  0  0  0  0
   -1.0676    2.4924    3.1213 H   0  0  0  0  0  0  0  0  0  0  0  0
    0.6355    2.9934    3.0576 H   0  0  0  0  0  0  0  0  0  0  0  0
   -0.4819    3.4998    1.7751 H   0  0  0  0  0  0  0  0  0  0  0  0
  1  2  1  0  0  0  0
  2  3  1  0  0  0  0
  2  4  1  0  0  0  0
  2  5  1  0  0  0  0
  5  6  2  0  0  0  0
  5  7  1  0  0  0  0
  7  8  1  0  0  0  0
  7  9  1  0  0  0  0
  9 10  1  0  0  0  0
  9 11  1  0  0  0  0
  9 22  1  0  0  0  0
 11 12  1  0  0  0  0
 11 13  1  0  0  0  0
 11 14  1  0  0  0  0
 14 15  1  0  0  0  0
 14 20  2  0  0  0  0
 15 16  2  0  0  0  0
 16 17  1  0  0  0  0
 16 18  1  0  0  0  0
 18 19  1  0  0  0  0
 18 20  1  0  0  0  0
 20 21  1  0  0  0  0
 22 23  2  0  0  0  0
 22 24  1  0  0  0  0
 24 25  1  0  0  0  0
 24 26  1  0  0  0  0
 26 27  1  0  0  0  0
 26 28  1  0  0  0  0
 26 29  1  0  0  0  0
M  END
$$$$

  -OEChem-04042215593D

 29 29  0     1  0  0  0  0  0999 V2000
   -2.6368   -4.4839    1.0239 H   0  0  0  0  0  0  0  0  0  0  0  0
   -2.8356   -3.4608    0.6930 C   0  0  0  0  0  0  0  0  0  0  0  0
   -3.5170   -2.9867    1.4034 H   0  0  0  0  0  0  0  0  0  0  0  0
   -3.3111   -3.4955   -0.2902 H   0  0  0  0  0  0  0  0  0  0  0  0
   -1.5394   -2.6761    0.6137 C   0  0  0  0  0  0  0  0  0  0  0  0
   -0.4821   -3.2112    0.9070 O   0  0  0  0  0  0  0  0  0  0  0  0
   -1.5599   -1.3537    0.2245 N   0  0  0  0  0  0  0  0  0  0  0  0
   -2.4683   -0.9195    0.0681 H   0  0  0  0  0  0  0  0  0  0  0  0
   -0.3789   -0.4795    0.1579 C   0  0  1  0  0  0  0  0  0  0  0  0
    0.4378   -0.8919    0.7595 H   0  0  0  0  0  0  0  0  0  0  0  0
    0.0861   -0.4499   -1.3269 C   0  0  0  0  0  0  0  0  0  0  0  0
    0.9336   -1.1340   -1.4263 H   0  0  0  0  0  0  0  0  0  0  0  0
   -0.7192   -0.8647   -1.9416 H   0  0  0  0  0  0  0  0  0  0  0  0
    0.4673    0.8470   -2.0085 C   0  0  0  0  0  0  0  0  0  0  0  0
    0.5635    0.8551   -3.3961 N   0  0  0  0  0  0  0  0  0  0  0  0
    0.9178    2.0628   -3.7584 C   0  0  0  0  0  0  0  0  0  0  0  0
    1.0678    2.3865   -4.7844 H   0  0  0  0  0  0  0  0  0  0  0  0
    1.0752    2.8548   -2.6408 N   0  0  0  0  0  0  0  0  0  0  0  0
    1.3386    3.8382   -2.6502 H   0  0  0  0  0  0  0  0  0  0  0  0
    0.8025    2.0887   -1.5277 C   0  0  0  0  0  0  0  0  0  0  0  0
    0.8509    2.4170   -0.4973 H   0  0  0  0  0  0  0  0  0  0  0  0
   -0.7576    0.8717    0.7984 C   0  0  0  0  0  0  0  0  0  0  0  0
   -1.8447    1.3878    0.5637 O   0  0  0  0  0  0  0  0  0  0  0  0
    0.1065    1.4846    1.6898 N   0  0  0  0  0  0  0  0  0  0  0  0
    0.9408    0.9682    1.9568 H   0  0  0  0  0  0  0  0  0  0  0  0
   -0.2364    2.6924    2.4310 C   0  0  0  0  0  0  0  0  0  0  0  0
   -1.0866    2.5053    3.0953 H   0  0  0  0  0  0  0  0  0  0  0  0
    0.6140    3.0170    3.0385 H   0  0  0  0  0  0  0  0  0  0  0  0
   -0.4978    3.5037    1.7435 H   0  0  0  0  0  0  0  0  0  0  0  0
  1  2  1  0  0  0  0
  2  3  1  0  0  0  0
  2  4  1  0  0  0  0
  2  5  1  0  0  0  0
  5  6  2  0  0  0  0
  5  7  1  0  0  0  0
  7  8  1  0  0  0  0
  7  9  1  0  0  0  0
  9 10  1  0  0  0  0
  9 11  1  0  0  0  0
  9 22  1  0  0  0  0
 11 12  1  0  0  0  0
 11 13  1  0  0  0  0
 11 14  1  0  0  0  0
 14 15  1  0  0  0  0
 14 20  2  0  0  0  0
 15 16  2  0  0  0  0
 16 17  1  0  0  0  0
 16 18  1  0  0  0  0
 18 19  1  0  0  0  0
 18 20  1  0  0  0  0
 20 21  1  0  0  0  0
 22 23  2  0  0  0  0
 22 24  1  0  0  0  0
 24 25  1  0  0  0  0
 24 26  1  0  0  0  0
 26 27  1  0  0  0  0
 26 28  1  0  0  0  0
 26 29  1  0  0  0  0
M  END
$$$$

  -OEChem-04042215593D

 29 29  0     1  0  0  0  0  0999 V2000
   -2.6644   -4.4635    1.0886 H   0  0  0  0  0  0  0  0  0  0  0  0
   -2.8513   -3.4479    0.7291 C   0  0  0  0  0  0  0  0  0  0  0  0
   -3.5297   -2.9473    1.4241 H   0  0  0  0  0  0  0  0  0  0  0  0
   -3.3238   -3.5039   -0.2544 H   0  0  0  0  0  0  0  0  0  0  0  0
   -1.5469   -2.6793    0.6331 C   0  0  0  0  0  0  0  0  0  0  0  0
   -0.4953   -3.2172    0.9416 O   0  0  0  0  0  0  0  0  0  0  0  0
   -1.5532   -1.3672    0.2110 N   0  0  0  0  0  0  0  0  0  0  0  0
   -2.4565   -0.9266    0.0423 H   0  0  0  0  0  0  0  0  0  0  0  0
   -0.3649   -0.5048    0.1367 C   0  0  1  0  0  0  0  0  0  0  0  0
    0.4501   -0.9092    0.7457 H   0  0  0  0  0  0  0  0  0  0  0  0
    0.0929   -0.4883   -1.3488 C   0  0  0  0  0  0  0  0  0  0  0  0
    0.9336   -1.1785   -1.4609 H   0  0  0  0  0  0  0  0  0  0  0  0
   -0.7206   -0.8877   -1.9631 H   0  0  0  0  0  0  0  0  0  0  0  0
    0.4732    0.8240   -1.9921 C   0  0  0  0  0  0  0  0  0  0  0  0
    0.2826    1.0160   -3.3554 N   0  0  0  0  0  0  0  0  0  0  0  0
    0.7427    2.2079   -3.6450 C   0  0  0  0  0  0  0  0  0  0  0  0
    0.7274    2.6562   -4.6342 H   0  0  0  0  0  0  0  0  0  0  0  0
    1.2573    2.7991   -2.5089 N   0  0  0  0  0  0  0  0  0  0  0  0
    1.6786    3.7251   -2.4681 H   0  0  0  0  0  0  0  0  0  0  0  0
    1.1078    1.9171   -1.4602 C   0  0  0  0  0  0  0  0  0  0  0  0
    1.4387    2.0555   -0.4376 H   0  0  0  0  0  0  0  0  0  0  0  0
   -0.7483    0.8642    0.7415 C   0  0  0  0  0  0  0  0  0  0  0  0
   -1.8336    1.3734    0.4839 O   0  0  0  0  0  0  0  0  0  0  0  0
    0.1028    1.4984    1.6306 N   0  0  0  0  0  0  0  0  0  0  0  0
    0.9205    0.9798    1.9402 H   0  0  0  0  0  0  0  0  0  0  0  0
   -0.2470    2.7335    2.3224 C   0  0  0  0  0  0  0  0  0  0  0  0
   -1.1229    2.5798    2.9615 H   0  0  0  0  0  0  0  0  0  0  0  0
    0.5862    3.0652    2.9496 H   0  0  0  0  0  0  0  0  0  0  0  0
   -0.4719    3.5265    1.6011 H   0  0  0  0  0  0  0  0  0  0  0  0
  1  2  1  0  0  0  0
  2  3  1  0  0  0  0
  2  4  1  0  0  0  0
  2  5  1  0  0  0  0
  5  6  2  0  0  0  0
  5  7  1  0  0  0  0
  7  8  1  0  0  0  0
  7  9  1  0  0  0  0
  9 10  1  0  0  0  0
  9 11  1  0  0  0  0
  9 22  1  0  0  0  0
 11 12  1  0  0  0  0
 11 13  1  0  0  0  0
 11 14  1  0  0  0  0
 14 15  1  0  0  0  0
 14 20  2  0  0  0  0
 15 16  2  0  0  0  0
 16 17  1  0  0  0  0
 16 18  1  0  0  0  0
 18 19  1  0  0  0  0
 18 20  1  0  0  0  0
 20 21  1  0  0  0  0
 22 23  2  0  0  0  0
 22 24  1  0  0  0  0
 24 25  1  0  0  0  0
 24 26  1  0  0  0  0
 26 27  1  0  0  0  0
 26 28  1  0  0  0  0
 26 29  1  0  0  0  0
M  END
$$$$

  -OEChem-04042215593D

 29 29  0     1  0  0  0  0  0999 V2000
   -2.6797   -4.4542    1.1433 H   0  0  0  0  0  0  0  0  0  0  0  0
   -2.8629   -3.4455    0.7628 C   0  0  0  0  0  0  0  0  0  0  0  0
   -3.5358   -2.9267    1.4497 H   0  0  0  0  0  0  0  0  0  0  0  0
   -3.3399   -3.5200   -0.2175 H   0  0  0  0  0  0  0  0  0  0  0  0
   -1.5553   -2.6856    0.6454 C   0  0  0  0  0  0  0  0  0  0  0  0
   -0.5053   -3.2214    0.9633 O   0  0  0  0  0  0  0  0  0  0  0  0
   -1.5570   -1.3829    0.1954 N   0  0  0  0  0  0  0  0  0  0  0  0
   -2.4591   -0.9425    0.0190 H   0  0  0  0  0  0  0  0  0  0  0  0
   -0.3678   -0.5232    0.1114 C   0  0  1  0  0  0  0  0  0  0  0  0
    0.4382   -0.9191    0.7374 H   0  0  0  0  0  0  0  0  0  0  0  0
    0.1126   -0.5274   -1.3646 C   0  0  0  0  0  0  0  0  0  0  0  0
    0.9656   -1.2054   -1.4557 H   0  0  0  0  0  0  0  0  0  0  0  0
   -0.6831   -0.9382   -1.9939 H   0  0  0  0  0  0  0  0  0  0  0  0
    0.4885    0.7989   -1.9731 C   0  0  0  0  0  0  0  0  0  0  0  0
    0.0682    1.1715   -3.2432 N   0  0  0  0  0  0  0  0  0  0  0  0
    0.5964    2.3457   -3.4876 C   0  0  0  0  0  0  0  0  0  0  0  0
    0.4473    2.9152   -4.4005 H   0  0  0  0  0  0  0  0  0  0  0  0
    1.3769    2.7422   -2.4190 N   0  0  0  0  0  0  0  0  0  0  0  0
    1.8979    3.6152   -2.3654 H   0  0  0  0  0  0  0  0  0  0  0  0
    1.3275    1.7527   -1.4603 C   0  0  0  0  0  0  0  0  0  0  0  0
    1.8431    1.7250   -0.5063 H   0  0  0  0  0  0  0  0  0  0  0  0
   -0.7385    0.8656    0.6812 C   0  0  0  0  0  0  0  0  0  0  0  0
   -1.8285    1.3682    0.4304 O   0  0  0  0  0  0  0  0  0  0  0  0
    0.1188    1.5100    1.5566 N   0  0  0  0  0  0  0  0  0  0  0  0
    0.9383    0.9962    1.8676 H   0  0  0  0  0  0  0  0  0  0  0  0
   -0.2126    2.7674    2.2151 C   0  0  0  0  0  0  0  0  0  0  0  0
   -1.0964    2.6470    2.8505 H   0  0  0  0  0  0  0  0  0  0  0  0
    0.6222    3.0969    2.8410 H   0  0  0  0  0  0  0  0  0  0  0  0
   -0.4154    3.5464    1.4726 H   0  0  0  0  0  0  0  0  0  0  0  0
  1  2  1  0  0  0  0
  2  3  1  0  0  0  0
  2  4  1  0  0  0  0
  2  5  1  0  0  0  0
  5  6  2  0  0  0  0
  5  7  1  0  0  0  0
  7  8  1  0  0  0  0
  7  9  1  0  0  0  0
  9 10  1  0  0  0  0
  9 11  1  0  0  0  0
  9 22  1  0  0  0  0
 11 12  1  0  0  0  0
 11 13  1  0  0  0  0
 11 14  1  0  0  0  0
 14 15  1  0  0  0  0
 14 20  2  0  0  0  0
 15 16  2  0  0  0  0
 16 17  1  0  0  0  0
 16 18  1  0  0  0  0
 18 19  1  0  0  0  0
 18 20  1  0  0  0  0
 20 21  1  0  0  0  0
 22 23  2  0  0  0  0
 22 24  1  0  0  0  0
 24 25  1  0  0  0  0
 24 26  1  0  0  0  0
 26 27  1  0  0  0  0
 26 28  1  0  0  0  0
 26 29  1  0  0  0  0
M  END
$$$$

  -OEChem-04042215593D

 29 29  0     1  0  0  0  0  0999 V2000
   -2.6866   -4.4488    1.1776 H   0  0  0  0  0  0  0  0  0  0  0  0
   -2.8698   -3.4443    0.7860 C   0  0  0  0  0  0  0  0  0  0  0  0
   -3.5370   -2.9150    1.4705 H   0  0  0  0  0  0  0  0  0  0  0  0
   -3.3533   -3.5299   -0.1901 H   0  0  0  0  0  0  0  0  0  0  0  0
   -1.5611   -2.6888    0.6510 C   0  0  0  0  0  0  0  0  0  0  0  0
   -0.5102   -3.2249    0.9656 O   0  0  0  0  0  0  0  0  0  0  0  0
   -1.5618   -1.3928    0.1817 N   0  0  0  0  0  0  0  0  0  0  0  0
   -2.4641   -0.9495    0.0136 H   0  0  0  0  0  0  0  0  0  0  0  0
   -0.3731   -0.5344    0.0883 C   0  0  1  0  0  0  0  0  0  0  0  0
    0.4248   -0.9234    0.7289 H   0  0  0  0  0  0  0  0  0  0  0  0
    0.1316   -0.5588   -1.3770 C   0  0  0  0  0  0  0  0  0  0  0  0
    0.9969   -1.2245   -1.4411 H   0  0  0  0  0  0  0  0  0  0  0  0
   -0.6437   -0.9840   -2.0223 H   0  0  0  0  0  0  0  0  0  0  0  0
    0.5022    0.7768   -1.9612 C   0  0  0  0  0  0  0  0  0  0  0  0
   -0.1128    1.3140   -3.0833 N   0  0  0  0  0  0  0  0  0  0  0  0
    0.4756    2.4612   -3.3198 C   0  0  0  0  0  0  0  0  0  0  0  0
    0.2163    3.1358   -4.1308 H   0  0  0  0  0  0  0  0  0  0  0  0
    1.4776    2.6777   -2.3926 N   0  0  0  0  0  0  0  0  0  0  0  0
    2.0824    3.4963   -2.3635 H   0  0  0  0  0  0  0  0  0  0  0  0
    1.5084    1.5999   -1.5330 C   0  0  0  0  0  0  0  0  0  0  0  0
    2.1773    1.4295   -0.6958 H   0  0  0  0  0  0  0  0  0  0  0  0
   -0.7296    0.8688    0.6333 C   0  0  0  0  0  0  0  0  0  0  0  0
   -1.8303    1.3602    0.4084 O   0  0  0  0  0  0  0  0  0  0  0  0
    0.1361    1.5194    1.4955 N   0  0  0  0  0  0  0  0  0  0  0  0
    0.9818    1.0281    1.7691 H   0  0  0  0  0  0  0  0  0  0  0  0
   -0.1806    2.7883    2.1390 C   0  0  0  0  0  0  0  0  0  0  0  0
   -1.0714    2.6879    2.7679 H   0  0  0  0  0  0  0  0  0  0  0  0
    0.6535    3.1110    2.7696 H   0  0  0  0  0  0  0  0  0  0  0  0
   -0.3646    3.5628    1.3869 H   0  0  0  0  0  0  0  0  0  0  0  0
  1  2  1  0  0  0  0
  2  3  1  0  0  0  0
  2  4  1  0  0  0  0
  2  5  1  0  0  0  0
  5  6  2  0  0  0  0
  5  7  1  0  0  0  0
  7  8  1  0  0  0  0
  7  9  1  0  0  0  0
  9 10  1  0  0  0  0
  9 11  1  0  0  0  0
  9 22  1  0  0  0  0
 11 12  1  0  0  0  0
 11 13  1  0  0  0  0
 11 14  1  0  0  0  0
 14 15  1  0  0  0  0
 14 20  2  0  0  0  0
 15 16  2  0  0  0  0
 16 17  1  0  0  0  0
 16 18  1  0  0  0  0
 18 19  1  0  0  0  0
 18 20  1  0  0  0  0
 20 21  1  0  0  0  0
 22 23  2  0  0  0  0
 22 24  1  0  0  0  0
 24 25  1  0  0  0  0
 24 26  1  0  0  0  0
 26 27  1  0  0  0  0
 26 28  1  0  0  0  0
 26 29  1  0  0  0  0
M  END
$$$$

  -OEChem-04042215593D

 29 29  0     1  0  0  0  0  0999 V2000
   -2.6954   -4.4381    1.1969 H   0  0  0  0  0  0  0  0  0  0  0  0
   -2.8754   -3.4345    0.8019 C   0  0  0  0  0  0  0  0  0  0  0  0
   -3.5287   -2.8955    1.4922 H   0  0  0  0  0  0  0  0  0  0  0  0
   -3.3725   -3.5211   -0.1673 H   0  0  0  0  0  0  0  0  0  0  0  0
   -1.5626   -2.6908    0.6454 C   0  0  0  0  0  0  0  0  0  0  0  0
   -0.5114   -3.2331    0.9494 O   0  0  0  0  0  0  0  0  0  0  0  0
   -1.5609   -1.3986    0.1667 N   0  0  0  0  0  0  0  0  0  0  0  0
   -2.4627   -0.9493    0.0119 H   0  0  0  0  0  0  0  0  0  0  0  0
   -0.3722   -0.5411    0.0710 C   0  0  1  0  0  0  0  0  0  0  0  0
    0.4183   -0.9262    0.7230 H   0  0  0  0  0  0  0  0  0  0  0  0
    0.1516   -0.5777   -1.3855 C   0  0  0  0  0  0  0  0  0  0  0  0
    1.0245   -1.2352   -1.4266 H   0  0  0  0  0  0  0  0  0  0  0  0
   -0.6072   -1.0117   -2.0441 H   0  0  0  0  0  0  0  0  0  0  0  0
    0.5194    0.7635   -1.9522 C   0  0  0  0  0  0  0  0  0  0  0  0
   -0.2549    1.4479   -2.8769 N   0  0  0  0  0  0  0  0  0  0  0  0
    0.3850    2.5586   -3.1496 C   0  0  0  0  0  0  0  0  0  0  0  0
    0.0343    3.3231   -3.8372 H   0  0  0  0  0  0  0  0  0  0  0  0
    1.5716    2.6057   -2.4410 N   0  0  0  0  0  0  0  0  0  0  0  0
    2.2506    3.3632   -2.4848 H   0  0  0  0  0  0  0  0  0  0  0  0
    1.6679    1.4563   -1.6850 C   0  0  0  0  0  0  0  0  0  0  0  0
    2.4709    1.1535   -1.0204 H   0  0  0  0  0  0  0  0  0  0  0  0
   -0.7238    0.8695    0.6030 C   0  0  0  0  0  0  0  0  0  0  0  0
   -1.8382    1.3439    0.4099 O   0  0  0  0  0  0  0  0  0  0  0  0
    0.1437    1.5240    1.4602 N   0  0  0  0  0  0  0  0  0  0  0  0
    1.0118    1.0547    1.6995 H   0  0  0  0  0  0  0  0  0  0  0  0
   -0.1712    2.7953    2.0999 C   0  0  0  0  0  0  0  0  0  0  0  0
   -1.0546    2.6955    2.7393 H   0  0  0  0  0  0  0  0  0  0  0  0
    0.6684    3.1252    2.7192 H   0  0  0  0  0  0  0  0  0  0  0  0
   -0.3671    3.5641    1.3451 H   0  0  0  0  0  0  0  0  0  0  0  0
  1  2  1  0  0  0  0
  2  3  1  0  0  0  0
  2  4  1  0  0  0  0
  2  5  1  0  0  0  0
  5  6  2  0  0  0  0
  5  7  1  0  0  0  0
  7  8  1  0  0  0  0
  7  9  1  0  0  0  0
  9 10  1  0  0  0  0
  9 11  1  0  0  0  0
  9 22  1  0  0  0  0
 11 12  1  0  0  0  0
 11 13  1  0  0  0  0
 11 14  1  0  0  0  0
 14 15  1  0  0  0  0
 14 20  2  0  0  0  0
 15 16  2  0  0  0  0
 16 17  1  0  0  0  0
 16 18  1  0  0  0  0
 18 19  1  0  0  0  0
 18 20  1  0  0  0  0
 20 21  1  0  0  0  0
 22 23  2  0  0  0  0
 22 24  1  0  0  0  0
 24 25  1  0  0  0  0
 24 26  1  0  0  0  0
 26 27  1  0  0  0  0
 26 28  1  0  0  0  0
 26 29  1  0  0  0  0
M  END
$$$$

  -OEChem-04042215593D

 29 29  0     1  0  0  0  0  0999 V2000
   -2.6980   -4.4299    1.2118 H   0  0  0  0  0  0  0  0  0  0  0  0
   -2.8787   -3.4265    0.8161 C   0  0  0  0  0  0  0  0  0  0  0  0
   -3.5173   -2.8813    1.5153 H   0  0  0  0  0  0  0  0  0  0  0  0
   -3.3929   -3.5135   -0.1441 H   0  0  0  0  0  0  0  0  0  0  0  0
   -1.5643   -2.6910    0.6345 C   0  0  0  0  0  0  0  0  0  0  0  0
   -0.5107   -3.2409    0.9157 O   0  0  0  0  0  0  0  0  0  0  0  0
   -1.5634   -1.3997    0.1535 N   0  0  0  0  0  0  0  0  0  0  0  0
   -2.4654   -0.9421    0.0261 H   0  0  0  0  0  0  0  0  0  0  0  0
   -0.3753   -0.5418    0.0570 C   0  0  1  0  0  0  0  0  0  0  0  0
    0.4087   -0.9247    0.7181 H   0  0  0  0  0  0  0  0  0  0  0  0
    0.1696   -0.5868   -1.3903 C   0  0  0  0  0  0  0  0  0  0  0  0
    1.0444   -1.2425   -1.4130 H   0  0  0  0  0  0  0  0  0  0  0  0
   -0.5789   -1.0261   -2.0570 H   0  0  0  0  0  0  0  0  0  0  0  0
    0.5393    0.7544   -1.9551 C   0  0  0  0  0  0  0  0  0  0  0  0
   -0.3362    1.5720   -2.6528 N   0  0  0  0  0  0  0  0  0  0  0  0
    0.3407    2.6415   -2.9924 C   0  0  0  0  0  0  0  0  0  0  0  0
   -0.0652    3.4827   -3.5472 H   0  0  0  0  0  0  0  0  0  0  0  0
    1.6454    2.5339   -2.5470 N   0  0  0  0  0  0  0  0  0  0  0  0
    2.3740    3.2298   -2.6938 H   0  0  0  0  0  0  0  0  0  0  0  0
    1.7795    1.3267   -1.8930 C   0  0  0  0  0  0  0  0  0  0  0  0
    2.6663    0.9079   -1.4271 H   0  0  0  0  0  0  0  0  0  0  0  0
   -0.7258    0.8710    0.5859 C   0  0  0  0  0  0  0  0  0  0  0  0
   -1.8560    1.3246    0.4365 O   0  0  0  0  0  0  0  0  0  0  0  0
    0.1450    1.5243    1.4409 N   0  0  0  0  0  0  0  0  0  0  0  0
    1.0380    1.0809    1.6324 H   0  0  0  0  0  0  0  0  0  0  0  0
   -0.1685    2.7915    2.0890 C   0  0  0  0  0  0  0  0  0  0  0  0
   -1.0476    2.6856    2.7333 H   0  0  0  0  0  0  0  0  0  0  0  0
    0.6740    3.1198    2.7052 H   0  0  0  0  0  0  0  0  0  0  0  0
   -0.3708    3.5640    1.3396 H   0  0  0  0  0  0  0  0  0  0  0  0
  1  2  1  0  0  0  0
  2  3  1  0  0  0  0
  2  4  1  0  0  0  0
  2  5  1  0  0  0  0
  5  6  2  0  0  0  0
  5  7  1  0  0  0  0
  7  8  1  0  0  0  0
  7  9  1  0  0  0  0
  9 10  1  0  0  0  0
  9 11  1  0  0  0  0
  9 22  1  0  0  0  0
 11 12  1  0  0  0  0
 11 13  1  0  0  0  0
 11 14  1  0  0  0  0
 14 15  1  0  0  0  0
 14 20  2  0  0  0  0
 15 16  2  0  0  0  0
 16 17  1  0  0  0  0
 16 18  1  0  0  0  0
 18 19  1  0  0  0  0
 18 20  1  0  0  0  0
 20 21  1  0  0  0  0
 22 23  2  0  0  0  0
 22 24  1  0  0  0  0
 24 25  1  0  0  0  0
 24 26  1  0  0  0  0
 26 27  1  0  0  0  0
 26 28  1  0  0  0  0
 26 29  1  0  0  0  0
M  END
$$$$

  -OEChem-04042215593D

 29 29  0     1  0  0  0  0  0999 V2000
   -2.6899   -4.4207    1.2175 H   0  0  0  0  0  0  0  0  0  0  0  0
   -2.8751   -3.4160    0.8273 C   0  0  0  0  0  0  0  0  0  0  0  0
   -3.4982   -2.8703    1.5401 H   0  0  0  0  0  0  0  0  0  0  0  0
   -3.4080   -3.4993   -0.1230 H   0  0  0  0  0  0  0  0  0  0  0  0
   -1.5621   -2.6848    0.6210 C   0  0  0  0  0  0  0  0  0  0  0  0
   -0.5050   -3.2398    0.8782 O   0  0  0  0  0  0  0  0  0  0  0  0
   -1.5669   -1.3924    0.1441 N   0  0  0  0  0  0  0  0  0  0  0  0
   -2.4695   -0.9273    0.0502 H   0  0  0  0  0  0  0  0  0  0  0  0
   -0.3804   -0.5321    0.0481 C   0  0  1  0  0  0  0  0  0  0  0  0
    0.3988   -0.9140    0.7157 H   0  0  0  0  0  0  0  0  0  0  0  0
    0.1827   -0.5833   -1.3928 C   0  0  0  0  0  0  0  0  0  0  0  0
    1.0547   -1.2436   -1.4023 H   0  0  0  0  0  0  0  0  0  0  0  0
   -0.5619   -1.0251   -2.0619 H   0  0  0  0  0  0  0  0  0  0  0  0
    0.5583    0.7506   -1.9733 C   0  0  0  0  0  0  0  0  0  0  0  0
   -0.3500    1.6930   -2.4302 N   0  0  0  0  0  0  0  0  0  0  0  0
    0.3495    2.7119   -2.8651 C   0  0  0  0  0  0  0  0  0  0  0  0
   -0.0724    3.6205   -3.2850 H   0  0  0  0  0  0  0  0  0  0  0  0
    1.6991    2.4529   -2.7138 N   0  0  0  0  0  0  0  0  0  0  0  0
    2.4515    3.0817   -2.9890 H   0  0  0  0  0  0  0  0  0  0  0  0
    1.8370    1.2005   -2.1521 C   0  0  0  0  0  0  0  0  0  0  0  0
    2.7525    0.6720   -1.9029 H   0  0  0  0  0  0  0  0  0  0  0  0
   -0.7350    0.8777    0.5833 C   0  0  0  0  0  0  0  0  0  0  0  0
   -1.8826    1.3032    0.4864 O   0  0  0  0  0  0  0  0  0  0  0  0
    0.1387    1.5268    1.4387 N   0  0  0  0  0  0  0  0  0  0  0  0
    1.0548    1.1120    1.5783 H   0  0  0  0  0  0  0  0  0  0  0  0
   -0.1834    2.7748    2.1189 C   0  0  0  0  0  0  0  0  0  0  0  0
   -1.0530    2.6425    2.7711 H   0  0  0  0  0  0  0  0  0  0  0  0
    0.6621    3.0998    2.7325 H   0  0  0  0  0  0  0  0  0  0  0  0
   -0.4051    3.5610    1.3898 H   0  0  0  0  0  0  0  0  0  0  0  0
  1  2  1  0  0  0  0
  2  3  1  0  0  0  0
  2  4  1  0  0  0  0
  2  5  1  0  0  0  0
  5  6  2  0  0  0  0
  5  7  1  0  0  0  0
  7  8  1  0  0  0  0
  7  9  1  0  0  0  0
  9 10  1  0  0  0  0
  9 11  1  0  0  0  0
  9 22  1  0  0  0  0
 11 12  1  0  0  0  0
 11 13  1  0  0  0  0
 11 14  1  0  0  0  0
 14 15  1  0  0  0  0
 14 20  2  0  0  0  0
 15 16  2  0  0  0  0
 16 17  1  0  0  0  0
 16 18  1  0  0  0  0
 18 19  1  0  0  0  0
 18 20  1  0  0  0  0
 20 21  1  0  0  0  0
 22 23  2  0  0  0  0
 22 24  1  0  0  0  0
 24 25  1  0  0  0  0
 24 26  1  0  0  0  0
 26 27  1  0  0  0  0
 26 28  1  0  0  0  0
 26 29  1  0  0  0  0
M  END
$$$$

  -OEChem-04042215593D

 29 29  0     1  0  0  0  0  0999 V2000
   -2.6634   -4.4244    1.2171 H   0  0  0  0  0  0  0  0  0  0  0  0
   -2.8616   -3.4190    0.8352 C   0  0  0  0  0  0  0  0  0  0  0  0
   -3.4682   -2.8779    1.5655 H   0  0  0  0  0  0  0  0  0  0  0  0
   -3.4179   -3.5008   -0.1016 H   0  0  0  0  0  0  0  0  0  0  0  0
   -1.5559   -2.6835    0.5993 C   0  0  0  0  0  0  0  0  0  0  0  0
   -0.4919   -3.2426    0.8167 O   0  0  0  0  0  0  0  0  0  0  0  0
   -1.5737   -1.3848    0.1393 N   0  0  0  0  0  0  0  0  0  0  0  0
   -2.4783   -0.9163    0.0890 H   0  0  0  0  0  0  0  0  0  0  0  0
   -0.3915   -0.5171    0.0468 C   0  0  1  0  0  0  0  0  0  0  0  0
    0.3879   -0.9007    0.7134 H   0  0  0  0  0  0  0  0  0  0  0  0
    0.1810   -0.5639   -1.3921 C   0  0  0  0  0  0  0  0  0  0  0  0
    1.0472   -1.2316   -1.3989 H   0  0  0  0  0  0  0  0  0  0  0  0
   -0.5676   -1.0053   -2.0568 H   0  0  0  0  0  0  0  0  0  0  0  0
    0.5623    0.7590   -2.0003 C   0  0  0  0  0  0  0  0  0  0  0  0
   -0.2965    1.8259   -2.2194 N   0  0  0  0  0  0  0  0  0  0  0  0
    0.4134    2.7831   -2.7632 C   0  0  0  0  0  0  0  0  0  0  0  0
    0.0256    3.7549   -3.0551 H   0  0  0  0  0  0  0  0  0  0  0  0
    1.7230    2.3677   -2.9094 N   0  0  0  0  0  0  0  0  0  0  0  0
    2.4728    2.9233   -3.3169 H   0  0  0  0  0  0  0  0  0  0  0  0
    1.8217    1.0791   -2.4276 C   0  0  0  0  0  0  0  0  0  0  0  0
    2.7002    0.4416   -2.3917 H   0  0  0  0  0  0  0  0  0  0  0  0
   -0.7523    0.8827    0.6036 C   0  0  0  0  0  0  0  0  0  0  0  0
   -1.9118    1.2851    0.5477 O   0  0  0  0  0  0  0  0  0  0  0  0
    0.1239    1.5243    1.4622 N   0  0  0  0  0  0  0  0  0  0  0  0
    1.0585    1.1384    1.5526 H   0  0  0  0  0  0  0  0  0  0  0  0
   -0.2003    2.7613    2.1608 C   0  0  0  0  0  0  0  0  0  0  0  0
   -1.0685    2.6170    2.8124 H   0  0  0  0  0  0  0  0  0  0  0  0
    0.6451    3.0795    2.7780 H   0  0  0  0  0  0  0  0  0  0  0  0
   -0.4252    3.5572    1.4431 H   0  0  0  0  0  0  0  0  0  0  0  0
  1  2  1  0  0  0  0
  2  3  1  0  0  0  0
  2  4  1  0  0  0  0
  2  5  1  0  0  0  0
  5  6  2  0  0  0  0
  5  7  1  0  0  0  0
  7  8  1  0  0  0  0
  7  9  1  0  0  0  0
  9 10  1  0  0  0  0
  9 11  1  0  0  0  0
  9 22  1  0  0  0  0
 11 12  1  0  0  0  0
 11 13  1  0  0  0  0
 11 14  1  0  0  0  0
 14 15  1  0  0  0  0
 14 20  2  0  0  0  0
 15 16  2  0  0  0  0
 16 17  1  0  0  0  0
 16 18  1  0  0  0  0
 18 19  1  0  0  0  0
 18 20  1  0  0  0  0
 20 21  1  0  0  0  0
 22 23  2  0  0  0  0
 22 24  1  0  0  0  0
 24 25  1  0  0  0  0
 24 26  1  0  0  0  0
 26 27  1  0  0  0  0
 26 28  1  0  0  0  0
 26 29  1  0  0  0  0
M  END
$$$$

  -OEChem-04042215593D

 29 29  0     1  0  0  0  0  0999 V2000
   -2.6371   -4.4361    1.1903 H   0  0  0  0  0  0  0  0  0  0  0  0
   -2.8435   -3.4237    0.8321 C   0  0  0  0  0  0  0  0  0  0  0  0
   -3.4300   -2.8951    1.5876 H   0  0  0  0  0  0  0  0  0  0  0  0
   -3.4242   -3.4877   -0.0913 H   0  0  0  0  0  0  0  0  0  0  0  0
   -1.5438   -2.6850    0.5752 C   0  0  0  0  0  0  0  0  0  0  0  0
   -0.4747   -3.2489    0.7513 O   0  0  0  0  0  0  0  0  0  0  0  0
   -1.5742   -1.3786    0.1387 N   0  0  0  0  0  0  0  0  0  0  0  0
   -2.4794   -0.9084    0.1327 H   0  0  0  0  0  0  0  0  0  0  0  0
   -0.3971   -0.5030    0.0533 C   0  0  1  0  0  0  0  0  0  0  0  0
    0.3868   -0.8909    0.7120 H   0  0  0  0  0  0  0  0  0  0  0  0
    0.1707   -0.5349   -1.3895 C   0  0  0  0  0  0  0  0  0  0  0  0
    1.0300   -1.2116   -1.4065 H   0  0  0  0  0  0  0  0  0  0  0  0
   -0.5889   -0.9698   -2.0458 H   0  0  0  0  0  0  0  0  0  0  0  0
    0.5562    0.7777   -2.0237 C   0  0  0  0  0  0  0  0  0  0  0  0
   -0.1713    1.9594   -2.0164 N   0  0  0  0  0  0  0  0  0  0  0  0
    0.5287    2.8494   -2.6752 C   0  0  0  0  0  0  0  0  0  0  0  0
    0.2232    3.8776   -2.8471 H   0  0  0  0  0  0  0  0  0  0  0  0
    1.7091    2.2820   -3.1134 N   0  0  0  0  0  0  0  0  0  0  0  0
    2.4254    2.7606   -3.6565 H   0  0  0  0  0  0  0  0  0  0  0  0
    1.7308    0.9668   -2.6997 C   0  0  0  0  0  0  0  0  0  0  0  0
    2.5051    0.2246   -2.8699 H   0  0  0  0  0  0  0  0  0  0  0  0
   -0.7706    0.8812    0.6399 C   0  0  0  0  0  0  0  0  0  0  0  0
   -1.9392    1.2616    0.6075 O   0  0  0  0  0  0  0  0  0  0  0  0
    0.1022    1.5165    1.5067 N   0  0  0  0  0  0  0  0  0  0  0  0
    1.0538    1.1658    1.5492 H   0  0  0  0  0  0  0  0  0  0  0  0
   -0.2263    2.7502    2.2090 C   0  0  0  0  0  0  0  0  0  0  0  0
   -1.0777    2.5947    2.8798 H   0  0  0  0  0  0  0  0  0  0  0  0
    0.6276    3.0832    2.8062 H   0  0  0  0  0  0  0  0  0  0  0  0
   -0.4793    3.5406    1.4946 H   0  0  0  0  0  0  0  0  0  0  0  0
  1  2  1  0  0  0  0
  2  3  1  0  0  0  0
  2  4  1  0  0  0  0
  2  5  1  0  0  0  0
  5  6  2  0  0  0  0
  5  7  1  0  0  0  0
  7  8  1  0  0  0  0
  7  9  1  0  0  0  0
  9 10  1  0  0  0  0
  9 11  1  0  0  0  0
  9 22  1  0  0  0  0
 11 12  1  0  0  0  0
 11 13  1  0  0  0  0
 11 14  1  0  0  0  0
 14 15  1  0  0  0  0
 14 20  2  0  0  0  0
 15 16  2  0  0  0  0
 16 17  1  0  0  0  0
 16 18  1  0  0  0  0
 18 19  1  0  0  0  0
 18 20  1  0  0  0  0
 20 21  1  0  0  0  0
 22 23  2  0  0  0  0
 22 24  1  0  0  0  0
 24 25  1  0  0  0  0
 24 26  1  0  0  0  0
 26 27  1  0  0  0  0
 26 28  1  0  0  0  0
 26 29  1  0  0  0  0
M  END
$$$$

  -OEChem-04042215593D

 29 29  0     1  0  0  0  0  0999 V2000
   -2.6219   -4.4433    1.1743 H   0  0  0  0  0  0  0  0  0  0  0  0
   -2.8313   -3.4308    0.8180 C   0  0  0  0  0  0  0  0  0  0  0  0
   -3.4170   -2.9049    1.5760 H   0  0  0  0  0  0  0  0  0  0  0  0
   -3.4146   -3.4947   -0.1037 H   0  0  0  0  0  0  0  0  0  0  0  0
   -1.5339   -2.6888    0.5580 C   0  0  0  0  0  0  0  0  0  0  0  0
   -0.4635   -3.2574    0.7081 O   0  0  0  0  0  0  0  0  0  0  0  0
   -1.5674   -1.3751    0.1437 N   0  0  0  0  0  0  0  0  0  0  0  0
   -2.4716   -0.9030    0.1615 H   0  0  0  0  0  0  0  0  0  0  0  0
   -0.3897   -0.4979    0.0687 C   0  0  1  0  0  0  0  0  0  0  0  0
    0.4010   -0.8930    0.7149 H   0  0  0  0  0  0  0  0  0  0  0  0
    0.1627   -0.5065   -1.3826 C   0  0  0  0  0  0  0  0  0  0  0  0
    1.0146   -1.1919   -1.4188 H   0  0  0  0  0  0  0  0  0  0  0  0
   -0.6097   -0.9293   -2.0318 H   0  0  0  0  0  0  0  0  0  0  0  0
    0.5546    0.8013   -2.0285 C   0  0  0  0  0  0  0  0  0  0  0  0
    0.0269    2.0669   -1.8101 N   0  0  0  0  0  0  0  0  0  0  0  0
    0.6755    2.9008   -2.5847 C   0  0  0  0  0  0  0  0  0  0  0  0
    0.4875    3.9690   -2.6449 H   0  0  0  0  0  0  0  0  0  0  0  0
    1.6326    2.2155   -3.3055 N   0  0  0  0  0  0  0  0  0  0  0  0
    2.2687    2.6316   -3.9833 H   0  0  0  0  0  0  0  0  0  0  0  0
    1.5610    0.8845   -2.9526 C   0  0  0  0  0  0  0  0  0  0  0  0
    2.1640    0.0612   -3.3248 H   0  0  0  0  0  0  0  0  0  0  0  0
   -0.7774    0.8701    0.6837 C   0  0  0  0  0  0  0  0  0  0  0  0
   -1.9489    1.2428    0.6467 O   0  0  0  0  0  0  0  0  0  0  0  0
    0.0863    1.4993    1.5638 N   0  0  0  0  0  0  0  0  0  0  0  0
    1.0515    1.1854    1.5642 H   0  0  0  0  0  0  0  0  0  0  0  0
   -0.2444    2.7441    2.2453 C   0  0  0  0  0  0  0  0  0  0  0  0
   -1.1336    2.6146    2.8712 H   0  0  0  0  0  0  0  0  0  0  0  0
    0.5852    3.0556    2.8870 H   0  0  0  0  0  0  0  0  0  0  0  0
   -0.4377    3.5384    1.5166 H   0  0  0  0  0  0  0  0  0  0  0  0
  1  2  1  0  0  0  0
  2  3  1  0  0  0  0
  2  4  1  0  0  0  0
  2  5  1  0  0  0  0
  5  6  2  0  0  0  0
  5  7  1  0  0  0  0
  7  8  1  0  0  0  0
  7  9  1  0  0  0  0
  9 10  1  0  0  0  0
  9 11  1  0  0  0  0
  9 22  1  0  0  0  0
 11 12  1  0  0  0  0
 11 13  1  0  0  0  0
 11 14  1  0  0  0  0
 14 15  1  0  0  0  0
 14 20  2  0  0  0  0
 15 16  2  0  0  0  0
 16 17  1  0  0  0  0
 16 18  1  0  0  0  0
 18 19  1  0  0  0  0
 18 20  1  0  0  0  0
 20 21  1  0  0  0  0
 22 23  2  0  0  0  0
 22 24  1  0  0  0  0
 24 25  1  0  0  0  0
 24 26  1  0  0  0  0
 26 27  1  0  0  0  0
 26 28  1  0  0  0  0
 26 29  1  0  0  0  0
M  END
$$$$

  -OEChem-04042215593D

 29 29  0     1  0  0  0  0  0999 V2000
   -2.6324   -4.4397    1.1487 H   0  0  0  0  0  0  0  0  0  0  0  0
   -2.8341   -3.4232    0.7992 C   0  0  0  0  0  0  0  0  0  0  0  0
   -3.4142   -2.8977    1.5617 H   0  0  0  0  0  0  0  0  0  0  0  0
   -3.4191   -3.4759   -0.1220 H   0  0  0  0  0  0  0  0  0  0  0  0
   -1.5313   -2.6896    0.5426 C   0  0  0  0  0  0  0  0  0  0  0  0
   -0.4653   -3.2685    0.6827 O   0  0  0  0  0  0  0  0  0  0  0  0
   -1.5562   -1.3717    0.1416 N   0  0  0  0  0  0  0  0  0  0  0  0
   -2.4565   -0.8928    0.1742 H   0  0  0  0  0  0  0  0  0  0  0  0
   -0.3727   -0.5005    0.0819 C   0  0  1  0  0  0  0  0  0  0  0  0
    0.4187   -0.9040    0.7221 H   0  0  0  0  0  0  0  0  0  0  0  0
    0.1681   -0.4913   -1.3743 C   0  0  0  0  0  0  0  0  0  0  0  0
    1.0177   -1.1786   -1.4202 H   0  0  0  0  0  0  0  0  0  0  0  0
   -0.6086   -0.9069   -2.0230 H   0  0  0  0  0  0  0  0  0  0  0  0
    0.5715    0.8143   -2.0196 C   0  0  0  0  0  0  0  0  0  0  0  0
    0.2910    2.1167   -1.6251 N   0  0  0  0  0  0  0  0  0  0  0  0
    0.8459    2.9191   -2.4998 C   0  0  0  0  0  0  0  0  0  0  0  0
    0.7978    4.0039   -2.4682 H   0  0  0  0  0  0  0  0  0  0  0  0
    1.5019    2.1764   -3.4603 N   0  0  0  0  0  0  0  0  0  0  0  0
    2.0114    2.5596   -4.2545 H   0  0  0  0  0  0  0  0  0  0  0  0
    1.3314    0.8424   -3.1578 C   0  0  0  0  0  0  0  0  0  0  0  0
    1.7069   -0.0192   -3.7020 H   0  0  0  0  0  0  0  0  0  0  0  0
   -0.7726    0.8574    0.7121 C   0  0  0  0  0  0  0  0  0  0  0  0
   -1.9428    1.2329    0.6520 O   0  0  0  0  0  0  0  0  0  0  0  0
    0.0782    1.4799    1.6093 N   0  0  0  0  0  0  0  0  0  0  0  0
    1.0512    1.1919    1.5847 H   0  0  0  0  0  0  0  0  0  0  0  0
   -0.2572    2.7354    2.2685 C   0  0  0  0  0  0  0  0  0  0  0  0
   -1.1626    2.6215    2.8736 H   0  0  0  0  0  0  0  0  0  0  0  0
    0.5595    3.0462    2.9268 H   0  0  0  0  0  0  0  0  0  0  0  0
   -0.4252    3.5226    1.5260 H   0  0  0  0  0  0  0  0  0  0  0  0
  1  2  1  0  0  0  0
  2  3  1  0  0  0  0
  2  4  1  0  0  0  0
  2  5  1  0  0  0  0
  5  6  2  0  0  0  0
  5  7  1  0  0  0  0
  7  8  1  0  0  0  0
  7  9  1  0  0  0  0
  9 10  1  0  0  0  0
  9 11  1  0  0  0  0
  9 22  1  0  0  0  0
 11 12  1  0  0  0  0
 11 13  1  0  0  0  0
 11 14  1  0  0  0  0
 14 15  1  0  0  0  0
 14 20  2  0  0  0  0
 15 16  2  0  0  0  0
 16 17  1  0  0  0  0
 16 18  1  0  0  0  0
 18 19  1  0  0  0  0
 18 20  1  0  0  0  0
 20 21  1  0  0  0  0
 22 23  2  0  0  0  0
 22 24  1  0  0  0  0
 24 25  1  0  0  0  0
 24 26  1  0  0  0  0
 26 27  1  0  0  0  0
 26 28  1  0  0  0  0
 26 29  1  0  0  0  0
M  END
$$$$

  -OEChem-04042215593D

 29 29  0     1  0  0  0  0  0999 V2000
   -2.6648   -4.4235    1.1431 H   0  0  0  0  0  0  0  0  0  0  0  0
   -2.8520   -3.4056    0.7899 C   0  0  0  0  0  0  0  0  0  0  0  0
   -3.4311   -2.8718    1.5473 H   0  0  0  0  0  0  0  0  0  0  0  0
   -3.4314   -3.4538   -0.1352 H   0  0  0  0  0  0  0  0  0  0  0  0
   -1.5385   -2.6883    0.5412 C   0  0  0  0  0  0  0  0  0  0  0  0
   -0.4807   -3.2783    0.6963 O   0  0  0  0  0  0  0  0  0  0  0  0
   -1.5442   -1.3717    0.1354 N   0  0  0  0  0  0  0  0  0  0  0  0
   -2.4395   -0.8829    0.1560 H   0  0  0  0  0  0  0  0  0  0  0  0
   -0.3498   -0.5143    0.0878 C   0  0  1  0  0  0  0  0  0  0  0  0
    0.4369   -0.9228    0.7306 H   0  0  0  0  0  0  0  0  0  0  0  0
    0.1864   -0.5028   -1.3703 C   0  0  0  0  0  0  0  0  0  0  0  0
    1.0383   -1.1877   -1.4125 H   0  0  0  0  0  0  0  0  0  0  0  0
   -0.5861   -0.9200   -2.0232 H   0  0  0  0  0  0  0  0  0  0  0  0
    0.6063    0.8013   -2.0079 C   0  0  0  0  0  0  0  0  0  0  0  0
    0.5968    2.0854   -1.4759 N   0  0  0  0  0  0  0  0  0  0  0  0
    1.0195    2.8985   -2.4126 C   0  0  0  0  0  0  0  0  0  0  0  0
    1.1185    3.9748   -2.3037 H   0  0  0  0  0  0  0  0  0  0  0  0
    1.3220    2.1801   -3.5515 N   0  0  0  0  0  0  0  0  0  0  0  0
    1.6636    2.5769   -4.4249 H   0  0  0  0  0  0  0  0  0  0  0  0
    1.0597    0.8508   -3.2983 C   0  0  0  0  0  0  0  0  0  0  0  0
    1.1721    0.0069   -3.9726 H   0  0  0  0  0  0  0  0  0  0  0  0
   -0.7555    0.8454    0.7112 C   0  0  0  0  0  0  0  0  0  0  0  0
   -1.9176    1.2375    0.6088 O   0  0  0  0  0  0  0  0  0  0  0  0
    0.0811    1.4670    1.6218 N   0  0  0  0  0  0  0  0  0  0  0  0
    1.0565    1.1862    1.5966 H   0  0  0  0  0  0  0  0  0  0  0  0
   -0.2556    2.7336    2.2582 C   0  0  0  0  0  0  0  0  0  0  0  0
   -1.1740    2.6361    2.8465 H   0  0  0  0  0  0  0  0  0  0  0  0
    0.5509    3.0448    2.9289 H   0  0  0  0  0  0  0  0  0  0  0  0
   -0.4012    3.5126    1.5027 H   0  0  0  0  0  0  0  0  0  0  0  0
  1  2  1  0  0  0  0
  2  3  1  0  0  0  0
  2  4  1  0  0  0  0
  2  5  1  0  0  0  0
  5  6  2  0  0  0  0
  5  7  1  0  0  0  0
  7  8  1  0  0  0  0
  7  9  1  0  0  0  0
  9 10  1  0  0  0  0
  9 11  1  0  0  0  0
  9 22  1  0  0  0  0
 11 12  1  0  0  0  0
 11 13  1  0  0  0  0
 11 14  1  0  0  0  0
 14 15  1  0  0  0  0
 14 20  2  0  0  0  0
 15 16  2  0  0  0  0
 16 17  1  0  0  0  0
 16 18  1  0  0  0  0
 18 19  1  0  0  0  0
 18 20  1  0  0  0  0
 20 21  1  0  0  0  0
 22 23  2  0  0  0  0
 22 24  1  0  0  0  0
 24 25  1  0  0  0  0
 24 26  1  0  0  0  0
 26 27  1  0  0  0  0
 26 28  1  0  0  0  0
 26 29  1  0  0  0  0
M  END
$$$$

  -OEChem-04042215593D

 29 29  0     1  0  0  0  0  0999 V2000
   -2.6979   -4.4072    1.1727 H   0  0  0  0  0  0  0  0  0  0  0  0
   -2.8713   -3.3951    0.7966 C   0  0  0  0  0  0  0  0  0  0  0  0
   -3.4582   -2.8412    1.5334 H   0  0  0  0  0  0  0  0  0  0  0  0
   -3.4358   -3.4573   -0.1367 H   0  0  0  0  0  0  0  0  0  0  0  0
   -1.5481   -2.6934    0.5550 C   0  0  0  0  0  0  0  0  0  0  0  0
   -0.4982   -3.2911    0.7311 O   0  0  0  0  0  0  0  0  0  0  0  0
   -1.5365   -1.3823    0.1312 N   0  0  0  0  0  0  0  0  0  0  0  0
   -2.4273   -0.8854    0.1318 H   0  0  0  0  0  0  0  0  0  0  0  0
   -0.3323   -0.5386    0.0847 C   0  0  1  0  0  0  0  0  0  0  0  0
    0.4503   -0.9463    0.7331 H   0  0  0  0  0  0  0  0  0  0  0  0
    0.1978   -0.5368   -1.3752 C   0  0  0  0  0  0  0  0  0  0  0  0
    1.0535   -1.2169   -1.4094 H   0  0  0  0  0  0  0  0  0  0  0  0
   -0.5695   -0.9615   -2.0296 H   0  0  0  0  0  0  0  0  0  0  0  0
    0.6275    0.7680   -2.0030 C   0  0  0  0  0  0  0  0  0  0  0  0
    0.8956    1.9809   -1.3773 N   0  0  0  0  0  0  0  0  0  0  0  0
    1.1829    2.8459   -2.3195 C   0  0  0  0  0  0  0  0  0  0  0  0
    1.4335    3.8893   -2.1507 H   0  0  0  0  0  0  0  0  0  0  0  0
    1.1210    2.2307   -3.5536 N   0  0  0  0  0  0  0  0  0  0  0  0
    1.2886    2.6876   -4.4481 H   0  0  0  0  0  0  0  0  0  0  0  0
    0.7644    0.9139   -3.3567 C   0  0  0  0  0  0  0  0  0  0  0  0
    0.6076    0.1439   -4.1063 H   0  0  0  0  0  0  0  0  0  0  0  0
   -0.7361    0.8315    0.6864 C   0  0  0  0  0  0  0  0  0  0  0  0
   -1.8850    1.2462    0.5361 O   0  0  0  0  0  0  0  0  0  0  0  0
    0.0918    1.4600    1.5997 N   0  0  0  0  0  0  0  0  0  0  0  0
    1.0671    1.1771    1.5782 H   0  0  0  0  0  0  0  0  0  0  0  0
   -0.2350    2.7490    2.1945 C   0  0  0  0  0  0  0  0  0  0  0  0
   -1.1814    2.6914    2.7420 H   0  0  0  0  0  0  0  0  0  0  0  0
    0.5489    3.0497    2.8957 H   0  0  0  0  0  0  0  0  0  0  0  0
   -0.3215    3.5159    1.4178 H   0  0  0  0  0  0  0  0  0  0  0  0
  1  2  1  0  0  0  0
  2  3  1  0  0  0  0
  2  4  1  0  0  0  0
  2  5  1  0  0  0  0
  5  6  2  0  0  0  0
  5  7  1  0  0  0  0
  7  8  1  0  0  0  0
  7  9  1  0  0  0  0
  9 10  1  0  0  0  0
  9 11  1  0  0  0  0
  9 22  1  0  0  0  0
 11 12  1  0  0  0  0
 11 13  1  0  0  0  0
 11 14  1  0  0  0  0
 14 15  1  0  0  0  0
 14 20  2  0  0  0  0
 15 16  2  0  0  0  0
 16 17  1  0  0  0  0
 16 18  1  0  0  0  0
 18 19  1  0  0  0  0
 18 20  1  0  0  0  0
 20 21  1  0  0  0  0
 22 23  2  0  0  0  0
 22 24  1  0  0  0  0
 24 25  1  0  0  0  0
 24 26  1  0  0  0  0
 26 27  1  0  0  0  0
 26 28  1  0  0  0  0
 26 29  1  0  0  0  0
M  END
$$$$

  -OEChem-04042215593D

 29 29  0     1  0  0  0  0  0999 V2000
   -2.7195   -4.4014    1.2257 H   0  0  0  0  0  0  0  0  0  0  0  0
   -2.8844   -3.3969    0.8260 C   0  0  0  0  0  0  0  0  0  0  0  0
   -3.4743   -2.8242    1.5458 H   0  0  0  0  0  0  0  0  0  0  0  0
   -3.4417   -3.4769   -0.1103 H   0  0  0  0  0  0  0  0  0  0  0  0
   -1.5553   -2.7077    0.5803 C   0  0  0  0  0  0  0  0  0  0  0  0
   -0.5105   -3.3079    0.7763 O   0  0  0  0  0  0  0  0  0  0  0  0
   -1.5335   -1.4060    0.1288 N   0  0  0  0  0  0  0  0  0  0  0  0
   -2.4220   -0.9055    0.1113 H   0  0  0  0  0  0  0  0  0  0  0  0
   -0.3241   -0.5705    0.0681 C   0  0  1  0  0  0  0  0  0  0  0  0
    0.4605   -0.9707    0.7190 H   0  0  0  0  0  0  0  0  0  0  0  0
    0.1951   -0.5823   -1.3941 C   0  0  0  0  0  0  0  0  0  0  0  0
    1.0542   -1.2582   -1.4306 H   0  0  0  0  0  0  0  0  0  0  0  0
   -0.5731   -1.0097   -2.0457 H   0  0  0  0  0  0  0  0  0  0  0  0
    0.6204    0.7311   -2.0028 C   0  0  0  0  0  0  0  0  0  0  0  0
    1.1575    1.8255   -1.3320 N   0  0  0  0  0  0  0  0  0  0  0  0
    1.3306    2.7703   -2.2248 C   0  0  0  0  0  0  0  0  0  0  0  0
    1.7315    3.7579   -2.0150 H   0  0  0  0  0  0  0  0  0  0  0  0
    0.9290    2.3221   -3.4675 N   0  0  0  0  0  0  0  0  0  0  0  0
    0.9479    2.8710   -4.3250 H   0  0  0  0  0  0  0  0  0  0  0  0
    0.4721    1.0291   -3.3295 C   0  0  0  0  0  0  0  0  0  0  0  0
    0.0634    0.3774   -4.0960 H   0  0  0  0  0  0  0  0  0  0  0  0
   -0.7207    0.8149    0.6390 C   0  0  0  0  0  0  0  0  0  0  0  0
   -1.8572    1.2465    0.4486 O   0  0  0  0  0  0  0  0  0  0  0  0
    0.1051    1.4609    1.5413 N   0  0  0  0  0  0  0  0  0  0  0  0
    1.0801    1.1750    1.5205 H   0  0  0  0  0  0  0  0  0  0  0  0
   -0.2075    2.7766    2.0827 C   0  0  0  0  0  0  0  0  0  0  0  0
   -1.1731    2.7612    2.5991 H   0  0  0  0  0  0  0  0  0  0  0  0
    0.5606    3.0804    2.8001 H   0  0  0  0  0  0  0  0  0  0  0  0
   -0.2481    3.5193    1.2791 H   0  0  0  0  0  0  0  0  0  0  0  0
  1  2  1  0  0  0  0
  2  3  1  0  0  0  0
  2  4  1  0  0  0  0
  2  5  1  0  0  0  0
  5  6  2  0  0  0  0
  5  7  1  0  0  0  0
  7  8  1  0  0  0  0
  7  9  1  0  0  0  0
  9 10  1  0  0  0  0
  9 11  1  0  0  0  0
  9 22  1  0  0  0  0
 11 12  1  0  0  0  0
 11 13  1  0  0  0  0
 11 14  1  0  0  0  0
 14 15  1  0  0  0  0
 14 20  2  0  0  0  0
 15 16  2  0  0  0  0
 16 17  1  0  0  0  0
 16 18  1  0  0  0  0
 18 19  1  0  0  0  0
 18 20  1  0  0  0  0
 20 21  1  0  0  0  0
 22 23  2  0  0  0  0
 22 24  1  0  0  0  0
 24 25  1  0  0  0  0
 24 26  1  0  0  0  0
 26 27  1  0  0  0  0
 26 28  1  0  0  0  0
 26 29  1  0  0  0  0
M  END
$$$$

  -OEChem-04042215593D

 29 29  0     1  0  0  0  0  0999 V2000
   -2.7197   -4.4010    1.2919 H   0  0  0  0  0  0  0  0  0  0  0  0
   -2.8852   -3.4040    0.8743 C   0  0  0  0  0  0  0  0  0  0  0  0
   -3.4670   -2.8155    1.5880 H   0  0  0  0  0  0  0  0  0  0  0  0
   -3.4514   -3.5005   -0.0552 H   0  0  0  0  0  0  0  0  0  0  0  0
   -1.5566   -2.7234    0.6033 C   0  0  0  0  0  0  0  0  0  0  0  0
   -0.5116   -3.3189    0.8109 O   0  0  0  0  0  0  0  0  0  0  0  0
   -1.5370   -1.4321    0.1230 N   0  0  0  0  0  0  0  0  0  0  0  0
   -2.4260   -0.9335    0.0962 H   0  0  0  0  0  0  0  0  0  0  0  0
   -0.3287   -0.5982    0.0365 C   0  0  1  0  0  0  0  0  0  0  0  0
    0.4616   -0.9870    0.6872 H   0  0  0  0  0  0  0  0  0  0  0  0
    0.1807   -0.6215   -1.4269 C   0  0  0  0  0  0  0  0  0  0  0  0
    1.0432   -1.2923   -1.4741 H   0  0  0  0  0  0  0  0  0  0  0  0
   -0.5916   -1.0461   -2.0753 H   0  0  0  0  0  0  0  0  0  0  0  0
    0.5874    0.7078   -2.0059 C   0  0  0  0  0  0  0  0  0  0  0  0
    1.3705    1.6552   -1.3536 N   0  0  0  0  0  0  0  0  0  0  0  0
    1.4634    2.6831   -2.1632 C   0  0  0  0  0  0  0  0  0  0  0  0
    2.0074    3.5975   -1.9445 H   0  0  0  0  0  0  0  0  0  0  0  0
    0.7692    2.4298   -3.3306 N   0  0  0  0  0  0  0  0  0  0  0  0
    0.6759    3.0767   -4.1116 H   0  0  0  0  0  0  0  0  0  0  0  0
    0.2070    1.1749   -3.2329 C   0  0  0  0  0  0  0  0  0  0  0  0
   -0.4183    0.6604   -3.9565 H   0  0  0  0  0  0  0  0  0  0  0  0
   -0.7148    0.8020    0.5776 C   0  0  0  0  0  0  0  0  0  0  0  0
   -1.8453    1.2402    0.3697 O   0  0  0  0  0  0  0  0  0  0  0  0
    0.1176    1.4688    1.4580 N   0  0  0  0  0  0  0  0  0  0  0  0
    1.0926    1.1808    1.4367 H   0  0  0  0  0  0  0  0  0  0  0  0
   -0.1911    2.7966    1.9714 C   0  0  0  0  0  0  0  0  0  0  0  0
   -1.1455    2.7883    2.5081 H   0  0  0  0  0  0  0  0  0  0  0  0
    0.5896    3.1235    2.6647 H   0  0  0  0  0  0  0  0  0  0  0  0
   -0.2534    3.5182    1.1503 H   0  0  0  0  0  0  0  0  0  0  0  0
  1  2  1  0  0  0  0
  2  3  1  0  0  0  0
  2  4  1  0  0  0  0
  2  5  1  0  0  0  0
  5  6  2  0  0  0  0
  5  7  1  0  0  0  0
  7  8  1  0  0  0  0
  7  9  1  0  0  0  0
  9 10  1  0  0  0  0
  9 11  1  0  0  0  0
  9 22  1  0  0  0  0
 11 12  1  0  0  0  0
 11 13  1  0  0  0  0
 11 14  1  0  0  0  0
 14 15  1  0  0  0  0
 14 20  2  0  0  0  0
 15 16  2  0  0  0  0
 16 17  1  0  0  0  0
 16 18  1  0  0  0  0
 18 19  1  0  0  0  0
 18 20  1  0  0  0  0
 20 21  1  0  0  0  0
 22 23  2  0  0  0  0
 22 24  1  0  0  0  0
 24 25  1  0  0  0  0
 24 26  1  0  0  0  0
 26 27  1  0  0  0  0
 26 28  1  0  0  0  0
 26 29  1  0  0  0  0
M  END
$$$$

  -OEChem-04042215593D

 29 29  0     1  0  0  0  0  0999 V2000
   -2.7005   -4.4278    1.3155 H   0  0  0  0  0  0  0  0  0  0  0  0
   -2.8777   -3.4324    0.8987 C   0  0  0  0  0  0  0  0  0  0  0  0
   -3.4608   -2.8494    1.6158 H   0  0  0  0  0  0  0  0  0  0  0  0
   -3.4483   -3.5342   -0.0273 H   0  0  0  0  0  0  0  0  0  0  0  0
   -1.5571   -2.7398    0.6193 C   0  0  0  0  0  0  0  0  0  0  0  0
   -0.5057   -3.3217    0.8321 O   0  0  0  0  0  0  0  0  0  0  0  0
   -1.5528   -1.4537    0.1243 N   0  0  0  0  0  0  0  0  0  0  0  0
   -2.4478   -0.9670    0.0906 H   0  0  0  0  0  0  0  0  0  0  0  0
   -0.3534   -0.6099    0.0168 C   0  0  1  0  0  0  0  0  0  0  0  0
    0.4423   -0.9896    0.6669 H   0  0  0  0  0  0  0  0  0  0  0  0
    0.1590   -0.6372   -1.4429 C   0  0  0  0  0  0  0  0  0  0  0  0
    1.0298   -1.2964   -1.4979 H   0  0  0  0  0  0  0  0  0  0  0  0
   -0.6110   -1.0640   -2.0924 H   0  0  0  0  0  0  0  0  0  0  0  0
    0.5383    0.7095   -1.9924 C   0  0  0  0  0  0  0  0  0  0  0  0
    1.5273    1.5159   -1.4388 N   0  0  0  0  0  0  0  0  0  0  0  0
    1.5628    2.6060   -2.1684 C   0  0  0  0  0  0  0  0  0  0  0  0
    2.2305    3.4454   -1.9966 H   0  0  0  0  0  0  0  0  0  0  0  0
    0.6290    2.5284   -3.1845 N   0  0  0  0  0  0  0  0  0  0  0  0
    0.4509    3.2540   -3.8765 H   0  0  0  0  0  0  0  0  0  0  0  0
   -0.0260    1.3202   -3.0763 C   0  0  0  0  0  0  0  0  0  0  0  0
   -0.8272    0.9295   -3.6967 H   0  0  0  0  0  0  0  0  0  0  0  0
   -0.7237    0.7999    0.5406 C   0  0  0  0  0  0  0  0  0  0  0  0
   -1.8476    1.2496    0.3253 O   0  0  0  0  0  0  0  0  0  0  0  0
    0.1256    1.4743    1.3977 N   0  0  0  0  0  0  0  0  0  0  0  0
    1.0940    1.1631    1.3873 H   0  0  0  0  0  0  0  0  0  0  0  0
   -0.1559    2.8191    1.8813 C   0  0  0  0  0  0  0  0  0  0  0  0
   -1.1045    2.8409    2.4279 H   0  0  0  0  0  0  0  0  0  0  0  0
    0.6378    3.1495    2.5580 H   0  0  0  0  0  0  0  0  0  0  0  0
   -0.2145    3.5212    1.0432 H   0  0  0  0  0  0  0  0  0  0  0  0
  1  2  1  0  0  0  0
  2  3  1  0  0  0  0
  2  4  1  0  0  0  0
  2  5  1  0  0  0  0
  5  6  2  0  0  0  0
  5  7  1  0  0  0  0
  7  8  1  0  0  0  0
  7  9  1  0  0  0  0
  9 10  1  0  0  0  0
  9 11  1  0  0  0  0
  9 22  1  0  0  0  0
 11 12  1  0  0  0  0
 11 13  1  0  0  0  0
 11 14  1  0  0  0  0
 14 15  1  0  0  0  0
 14 20  2  0  0  0  0
 15 16  2  0  0  0  0
 16 17  1  0  0  0  0
 16 18  1  0  0  0  0
 18 19  1  0  0  0  0
 18 20  1  0  0  0  0
 20 21  1  0  0  0  0
 22 23  2  0  0  0  0
 22 24  1  0  0  0  0
 24 25  1  0  0  0  0
 24 26  1  0  0  0  0
 26 27  1  0  0  0  0
 26 28  1  0  0  0  0
 26 29  1  0  0  0  0
M  END
$$$$

  -OEChem-04042215593D

 29 29  0     1  0  0  0  0  0999 V2000
   -2.6807   -4.4523    1.3134 H   0  0  0  0  0  0  0  0  0  0  0  0
   -2.8699   -3.4569    0.9017 C   0  0  0  0  0  0  0  0  0  0  0  0
   -3.4618   -2.8853    1.6208 H   0  0  0  0  0  0  0  0  0  0  0  0
   -3.4371   -3.5613   -0.0262 H   0  0  0  0  0  0  0  0  0  0  0  0
   -1.5573   -2.7466    0.6289 C   0  0  0  0  0  0  0  0  0  0  0  0
   -0.5002   -3.3146    0.8503 O   0  0  0  0  0  0  0  0  0  0  0  0
   -1.5664   -1.4616    0.1299 N   0  0  0  0  0  0  0  0  0  0  0  0
   -2.4672   -0.9873    0.0861 H   0  0  0  0  0  0  0  0  0  0  0  0
   -0.3748   -0.6085    0.0097 C   0  0  1  0  0  0  0  0  0  0  0  0
    0.4244   -0.9832    0.6580 H   0  0  0  0  0  0  0  0  0  0  0  0
    0.1422   -0.6364   -1.4471 C   0  0  0  0  0  0  0  0  0  0  0  0
    1.0173   -1.2899   -1.5092 H   0  0  0  0  0  0  0  0  0  0  0  0
   -0.6273   -1.0621   -2.0976 H   0  0  0  0  0  0  0  0  0  0  0  0
    0.5011    0.7210   -1.9796 C   0  0  0  0  0  0  0  0  0  0  0  0
    1.6559    1.3980   -1.6072 N   0  0  0  0  0  0  0  0  0  0  0  0
    1.6425    2.5328   -2.2660 C   0  0  0  0  0  0  0  0  0  0  0  0
    2.4090    3.2992   -2.1961 H   0  0  0  0  0  0  0  0  0  0  0  0
    0.5130    2.6087   -3.0594 N   0  0  0  0  0  0  0  0  0  0  0  0
    0.2650    3.3952   -3.6568 H   0  0  0  0  0  0  0  0  0  0  0  0
   -0.2155    1.4517   -2.8840 C   0  0  0  0  0  0  0  0  0  0  0  0
   -1.1597    1.1722   -3.3418 H   0  0  0  0  0  0  0  0  0  0  0  0
   -0.7313    0.8061    0.5273 C   0  0  0  0  0  0  0  0  0  0  0  0
   -1.8500    1.2660    0.3097 O   0  0  0  0  0  0  0  0  0  0  0  0
    0.1321    1.4820    1.3686 N   0  0  0  0  0  0  0  0  0  0  0  0
    1.0910    1.1429    1.3874 H   0  0  0  0  0  0  0  0  0  0  0  0
   -0.1319    2.8309    1.8509 C   0  0  0  0  0  0  0  0  0  0  0  0
   -1.0720    2.8620    2.4117 H   0  0  0  0  0  0  0  0  0  0  0  0
    0.6744    3.1576    2.5145 H   0  0  0  0  0  0  0  0  0  0  0  0
   -0.1975    3.5305    1.0111 H   0  0  0  0  0  0  0  0  0  0  0  0
  1  2  1  0  0  0  0
  2  3  1  0  0  0  0
  2  4  1  0  0  0  0
  2  5  1  0  0  0  0
  5  6  2  0  0  0  0
  5  7  1  0  0  0  0
  7  8  1  0  0  0  0
  7  9  1  0  0  0  0
  9 10  1  0  0  0  0
  9 11  1  0  0  0  0
  9 22  1  0  0  0  0
 11 12  1  0  0  0  0
 11 13  1  0  0  0  0
 11 14  1  0  0  0  0
 14 15  1  0  0  0  0
 14 20  2  0  0  0  0
 15 16  2  0  0  0  0
 16 17  1  0  0  0  0
 16 18  1  0  0  0  0
 18 19  1  0  0  0  0
 18 20  1  0  0  0  0
 20 21  1  0  0  0  0
 22 23  2  0  0  0  0
 22 24  1  0  0  0  0
 24 25  1  0  0  0  0
 24 26  1  0  0  0  0
 26 27  1  0  0  0  0
 26 28  1  0  0  0  0
 26 29  1  0  0  0  0
M  END
$$$$

  -OEChem-04042215593D

 29 29  0     1  0  0  0  0  0999 V2000
   -2.6723   -4.4586    1.3076 H   0  0  0  0  0  0  0  0  0  0  0  0
   -2.8651   -3.4643    0.8951 C   0  0  0  0  0  0  0  0  0  0  0  0
   -3.4612   -2.8954    1.6127 H   0  0  0  0  0  0  0  0  0  0  0  0
   -3.4297   -3.5714   -0.0342 H   0  0  0  0  0  0  0  0  0  0  0  0
   -1.5559   -2.7471    0.6256 C   0  0  0  0  0  0  0  0  0  0  0  0
   -0.4958   -3.3073    0.8519 O   0  0  0  0  0  0  0  0  0  0  0  0
   -1.5720   -1.4595    0.1340 N   0  0  0  0  0  0  0  0  0  0  0  0
   -2.4766   -0.9933    0.0837 H   0  0  0  0  0  0  0  0  0  0  0  0
   -0.3850   -0.6003    0.0132 C   0  0  1  0  0  0  0  0  0  0  0  0
    0.4162   -0.9776    0.6581 H   0  0  0  0  0  0  0  0  0  0  0  0
    0.1345   -0.6225   -1.4430 C   0  0  0  0  0  0  0  0  0  0  0  0
    1.0102   -1.2748   -1.5100 H   0  0  0  0  0  0  0  0  0  0  0  0
   -0.6349   -1.0467   -2.0945 H   0  0  0  0  0  0  0  0  0  0  0  0
    0.4863    0.7372   -1.9752 C   0  0  0  0  0  0  0  0  0  0  0  0
    1.7509    1.2970   -1.8527 N   0  0  0  0  0  0  0  0  0  0  0  0
    1.6948    2.4641   -2.4498 C   0  0  0  0  0  0  0  0  0  0  0  0
    2.5245    3.1610   -2.5277 H   0  0  0  0  0  0  0  0  0  0  0  0
    0.4288    2.6746   -2.9635 N   0  0  0  0  0  0  0  0  0  0  0  0
    0.1261    3.5103   -3.4605 H   0  0  0  0  0  0  0  0  0  0  0  0
   -0.3430    1.5707   -2.6708 C   0  0  0  0  0  0  0  0  0  0  0  0
   -1.3868    1.3914   -2.9124 H   0  0  0  0  0  0  0  0  0  0  0  0
   -0.7364    0.8117    0.5385 C   0  0  0  0  0  0  0  0  0  0  0  0
   -1.8512    1.2800    0.3197 O   0  0  0  0  0  0  0  0  0  0  0  0
    0.1329    1.4835    1.3771 N   0  0  0  0  0  0  0  0  0  0  0  0
    1.0791    1.1156    1.4393 H   0  0  0  0  0  0  0  0  0  0  0  0
   -0.1263    2.8267    1.8784 C   0  0  0  0  0  0  0  0  0  0  0  0
   -1.0590    2.8493    2.4517 H   0  0  0  0  0  0  0  0  0  0  0  0
    0.6885    3.1478    2.5345 H   0  0  0  0  0  0  0  0  0  0  0  0
   -0.2045    3.5362    1.0481 H   0  0  0  0  0  0  0  0  0  0  0  0
  1  2  1  0  0  0  0
  2  3  1  0  0  0  0
  2  4  1  0  0  0  0
  2  5  1  0  0  0  0
  5  6  2  0  0  0  0
  5  7  1  0  0  0  0
  7  8  1  0  0  0  0
  7  9  1  0  0  0  0
  9 10  1  0  0  0  0
  9 11  1  0  0  0  0
  9 22  1  0  0  0  0
 11 12  1  0  0  0  0
 11 13  1  0  0  0  0
 11 14  1  0  0  0  0
 14 15  1  0  0  0  0
 14 20  2  0  0  0  0
 15 16  2  0  0  0  0
 16 17  1  0  0  0  0
 16 18  1  0  0  0  0
 18 19  1  0  0  0  0
 18 20  1  0  0  0  0
 20 21  1  0  0  0  0
 22 23  2  0  0  0  0
 22 24  1  0  0  0  0
 24 25  1  0  0  0  0
 24 26  1  0  0  0  0
 26 27  1  0  0  0  0
 26 28  1  0  0  0  0
 26 29  1  0  0  0  0
M  END
$$$$

  -OEChem-04042215593D

 29 29  0     1  0  0  0  0  0999 V2000
   -2.6608   -4.4669    1.2767 H   0  0  0  0  0  0  0  0  0  0  0  0
   -2.8578   -3.4693    0.8743 C   0  0  0  0  0  0  0  0  0  0  0  0
   -3.4663   -2.9143    1.5925 H   0  0  0  0  0  0  0  0  0  0  0  0
   -3.4115   -3.5701   -0.0623 H   0  0  0  0  0  0  0  0  0  0  0  0
   -1.5517   -2.7381    0.6271 C   0  0  0  0  0  0  0  0  0  0  0  0
   -0.4895   -3.2921    0.8586 O   0  0  0  0  0  0  0  0  0  0  0  0
   -1.5730   -1.4446    0.1505 N   0  0  0  0  0  0  0  0  0  0  0  0
   -2.4803   -0.9849    0.0942 H   0  0  0  0  0  0  0  0  0  0  0  0
   -0.3897   -0.5799    0.0321 C   0  0  1  0  0  0  0  0  0  0  0  0
    0.4146   -0.9613    0.6703 H   0  0  0  0  0  0  0  0  0  0  0  0
    0.1242   -0.5963   -1.4275 C   0  0  0  0  0  0  0  0  0  0  0  0
    0.9973   -1.2519   -1.4971 H   0  0  0  0  0  0  0  0  0  0  0  0
   -0.6478   -1.0216   -2.0755 H   0  0  0  0  0  0  0  0  0  0  0  0
    0.4760    0.7568   -1.9811 C   0  0  0  0  0  0  0  0  0  0  0  0
    1.7833    1.1929   -2.1479 N   0  0  0  0  0  0  0  0  0  0  0  0
    1.7105    2.3815   -2.6985 C   0  0  0  0  0  0  0  0  0  0  0  0
    2.5662    2.9991   -2.9559 H   0  0  0  0  0  0  0  0  0  0  0  0
    0.3886    2.7280   -2.9043 N   0  0  0  0  0  0  0  0  0  0  0  0
    0.0647    3.6015   -3.3154 H   0  0  0  0  0  0  0  0  0  0  0  0
   -0.4010    1.6886   -2.4623 C   0  0  0  0  0  0  0  0  0  0  0  0
   -1.4852    1.6127   -2.4691 H   0  0  0  0  0  0  0  0  0  0  0  0
   -0.7388    0.8252    0.5744 C   0  0  0  0  0  0  0  0  0  0  0  0
   -1.8546    1.2957    0.3666 O   0  0  0  0  0  0  0  0  0  0  0  0
    0.1351    1.4894    1.4144 N   0  0  0  0  0  0  0  0  0  0  0  0
    1.0703    1.1012    1.5088 H   0  0  0  0  0  0  0  0  0  0  0  0
   -0.1334    2.8127    1.9612 C   0  0  0  0  0  0  0  0  0  0  0  0
   -1.0616    2.8072    2.5424 H   0  0  0  0  0  0  0  0  0  0  0  0
    0.6833    3.1208    2.6209 H   0  0  0  0  0  0  0  0  0  0  0  0
   -0.2249    3.5476    1.1548 H   0  0  0  0  0  0  0  0  0  0  0  0
  1  2  1  0  0  0  0
  2  3  1  0  0  0  0
  2  4  1  0  0  0  0
  2  5  1  0  0  0  0
  5  6  2  0  0  0  0
  5  7  1  0  0  0  0
  7  8  1  0  0  0  0
  7  9  1  0  0  0  0
  9 10  1  0  0  0  0
  9 11  1  0  0  0  0
  9 22  1  0  0  0  0
 11 12  1  0  0  0  0
 11 13  1  0  0  0  0
 11 14  1  0  0  0  0
 14 15  1  0  0  0  0
 14 20  2  0  0  0  0
 15 16  2  0  0  0  0
 16 17  1  0  0  0  0
 16 18  1  0  0  0  0
 18 19  1  0  0  0  0
 18 20  1  0  0  0  0
 20 21  1  0  0  0  0
 22 23  2  0  0  0  0
 22 24  1  0  0  0  0
 24 25  1  0  0  0  0
 24 26  1  0  0  0  0
 26 27  1  0  0  0  0
 26 28  1  0  0  0  0
 26 29  1  0  0  0  0
M  END
$$$$

  -OEChem-04042215593D

 29 29  0     1  0  0  0  0  0999 V2000
   -2.6378   -4.4830    1.2226 H   0  0  0  0  0  0  0  0  0  0  0  0
   -2.8450   -3.4787    0.8427 C   0  0  0  0  0  0  0  0  0  0  0  0
   -3.4639   -2.9480    1.5701 H   0  0  0  0  0  0  0  0  0  0  0  0
   -3.3929   -3.5644   -0.0987 H   0  0  0  0  0  0  0  0  0  0  0  0
   -1.5467   -2.7263    0.6196 C   0  0  0  0  0  0  0  0  0  0  0  0
   -0.4790   -3.2719    0.8463 O   0  0  0  0  0  0  0  0  0  0  0  0
   -1.5806   -1.4227    0.1716 N   0  0  0  0  0  0  0  0  0  0  0  0
   -2.4929   -0.9730    0.1156 H   0  0  0  0  0  0  0  0  0  0  0  0
   -0.4044   -0.5469    0.0613 C   0  0  1  0  0  0  0  0  0  0  0  0
    0.4005   -0.9364    0.6937 H   0  0  0  0  0  0  0  0  0  0  0  0
    0.1155   -0.5565   -1.3980 C   0  0  0  0  0  0  0  0  0  0  0  0
    0.9940   -1.2062   -1.4533 H   0  0  0  0  0  0  0  0  0  0  0  0
   -0.6455   -0.9973   -2.0482 H   0  0  0  0  0  0  0  0  0  0  0  0
    0.4677    0.7848   -1.9844 C   0  0  0  0  0  0  0  0  0  0  0  0
    1.7448    1.0907   -2.4356 N   0  0  0  0  0  0  0  0  0  0  0  0
    1.6800    2.2891   -2.9645 C   0  0  0  0  0  0  0  0  0  0  0  0
    2.5199    2.8190   -3.4048 H   0  0  0  0  0  0  0  0  0  0  0  0
    0.3878    2.7711   -2.8841 N   0  0  0  0  0  0  0  0  0  0  0  0
    0.0718    3.6728   -3.2362 H   0  0  0  0  0  0  0  0  0  0  0  0
   -0.3915    1.8078   -2.2808 C   0  0  0  0  0  0  0  0  0  0  0  0
   -1.4598    1.8353   -2.0796 H   0  0  0  0  0  0  0  0  0  0  0  0
   -0.7473    0.8460    0.6345 C   0  0  0  0  0  0  0  0  0  0  0  0
   -1.8669    1.3190    0.4556 O   0  0  0  0  0  0  0  0  0  0  0  0
    0.1370    1.4932    1.4775 N   0  0  0  0  0  0  0  0  0  0  0  0
    1.0620    1.0848    1.5862 H   0  0  0  0  0  0  0  0  0  0  0  0
   -0.1332    2.7922    2.0792 C   0  0  0  0  0  0  0  0  0  0  0  0
   -1.0534    2.7572    2.6718 H   0  0  0  0  0  0  0  0  0  0  0  0
    0.6902    3.0805    2.7399 H   0  0  0  0  0  0  0  0  0  0  0  0
   -0.2408    3.5575    1.3035 H   0  0  0  0  0  0  0  0  0  0  0  0
  1  2  1  0  0  0  0
  2  3  1  0  0  0  0
  2  4  1  0  0  0  0
  2  5  1  0  0  0  0
  5  6  2  0  0  0  0
  5  7  1  0  0  0  0
  7  8  1  0  0  0  0
  7  9  1  0  0  0  0
  9 10  1  0  0  0  0
  9 11  1  0  0  0  0
  9 22  1  0  0  0  0
 11 12  1  0  0  0  0
 11 13  1  0  0  0  0
 11 14  1  0  0  0  0
 14 15  1  0  0  0  0
 14 20  2  0  0  0  0
 15 16  2  0  0  0  0
 16 17  1  0  0  0  0
 16 18  1  0  0  0  0
 18 19  1  0  0  0  0
 18 20  1  0  0  0  0
 20 21  1  0  0  0  0
 22 23  2  0  0  0  0
 22 24  1  0  0  0  0
 24 25  1  0  0  0  0
 24 26  1  0  0  0  0
 26 27  1  0  0  0  0
 26 28  1  0  0  0  0
 26 29  1  0  0  0  0
M  END
$$$$

  -OEChem-04042215593D

 29 29  0     1  0  0  0  0  0999 V2000
   -2.6090   -4.4983    1.1634 H   0  0  0  0  0  0  0  0  0  0  0  0
   -2.8290   -3.4855    0.8144 C   0  0  0  0  0  0  0  0  0  0  0  0
   -3.4485   -2.9827    1.5610 H   0  0  0  0  0  0  0  0  0  0  0  0
   -3.3821   -3.5496   -0.1258 H   0  0  0  0  0  0  0  0  0  0  0  0
   -1.5399   -2.7138    0.6048 C   0  0  0  0  0  0  0  0  0  0  0  0
   -0.4656   -3.2536    0.8135 O   0  0  0  0  0  0  0  0  0  0  0  0
   -1.5887   -1.4001    0.1884 N   0  0  0  0  0  0  0  0  0  0  0  0
   -2.5059   -0.9590    0.1438 H   0  0  0  0  0  0  0  0  0  0  0  0
   -0.4213   -0.5116    0.0863 C   0  0  1  0  0  0  0  0  0  0  0  0
    0.3826   -0.9085    0.7155 H   0  0  0  0  0  0  0  0  0  0  0  0
    0.1116   -0.5161   -1.3707 C   0  0  0  0  0  0  0  0  0  0  0  0
    0.9982   -1.1569   -1.4028 H   0  0  0  0  0  0  0  0  0  0  0  0
   -0.6331   -0.9797   -2.0239 H   0  0  0  0  0  0  0  0  0  0  0  0
    0.4666    0.8100   -1.9974 C   0  0  0  0  0  0  0  0  0  0  0  0
    1.6450    0.9783   -2.7141 N   0  0  0  0  0  0  0  0  0  0  0  0
    1.6181    2.1883   -3.2183 C   0  0  0  0  0  0  0  0  0  0  0  0
    2.4032    2.6247   -3.8294 H   0  0  0  0  0  0  0  0  0  0  0  0
    0.4405    2.8166   -2.8657 N   0  0  0  0  0  0  0  0  0  0  0  0
    0.1630    3.7533   -3.1529 H   0  0  0  0  0  0  0  0  0  0  0  0
   -0.3066    1.9349   -2.1156 C   0  0  0  0  0  0  0  0  0  0  0  0
   -1.3097    2.0825   -1.7243 H   0  0  0  0  0  0  0  0  0  0  0  0
   -0.7610    0.8664    0.6934 C   0  0  0  0  0  0  0  0  0  0  0  0
   -1.8890    1.3323    0.5564 O   0  0  0  0  0  0  0  0  0  0  0  0
    0.1331    1.4969    1.5387 N   0  0  0  0  0  0  0  0  0  0  0  0
    1.0539    1.0783    1.6424 H   0  0  0  0  0  0  0  0  0  0  0  0
   -0.1455    2.7611    2.2078 C   0  0  0  0  0  0  0  0  0  0  0  0
   -1.0310    2.6714    2.8457 H   0  0  0  0  0  0  0  0  0  0  0  0
    0.7029    3.0503    2.8354 H   0  0  0  0  0  0  0  0  0  0  0  0
   -0.3182    3.5534    1.4721 H   0  0  0  0  0  0  0  0  0  0  0  0
  1  2  1  0  0  0  0
  2  3  1  0  0  0  0
  2  4  1  0  0  0  0
  2  5  1  0  0  0  0
  5  6  2  0  0  0  0
  5  7  1  0  0  0  0
  7  8  1  0  0  0  0
  7  9  1  0  0  0  0
  9 10  1  0  0  0  0
  9 11  1  0  0  0  0
  9 22  1  0  0  0  0
 11 12  1  0  0  0  0
 11 13  1  0  0  0  0
 11 14  1  0  0  0  0
 14 15  1  0  0  0  0
 14 20  2  0  0  0  0
 15 16  2  0  0  0  0
 16 17  1  0  0  0  0
 16 18  1  0  0  0  0
 18 19  1  0  0  0  0
 18 20  1  0  0  0  0
 20 21  1  0  0  0  0
 22 23  2  0  0  0  0
 22 24  1  0  0  0  0
 24 25  1  0  0  0  0
 24 26  1  0  0  0  0
 26 27  1  0  0  0  0
 26 28  1  0  0  0  0
 26 29  1  0  0  0  0
M  END
$$$$

  -OEChem-04042215593D

 29 29  0     1  0  0  0  0  0999 V2000
   -2.5817   -4.5134    1.1039 H   0  0  0  0  0  0  0  0  0  0  0  0
   -2.8109   -3.4953    0.7770 C   0  0  0  0  0  0  0  0  0  0  0  0
   -3.4419   -3.0171    1.5301 H   0  0  0  0  0  0  0  0  0  0  0  0
   -3.3564   -3.5440   -0.1685 H   0  0  0  0  0  0  0  0  0  0  0  0
   -1.5289   -2.7043    0.5958 C   0  0  0  0  0  0  0  0  0  0  0  0
   -0.4503   -3.2348    0.8066 O   0  0  0  0  0  0  0  0  0  0  0  0
   -1.5889   -1.3827    0.2071 N   0  0  0  0  0  0  0  0  0  0  0  0
   -2.5108   -0.9528    0.1525 H   0  0  0  0  0  0  0  0  0  0  0  0
   -0.4297   -0.4825    0.1132 C   0  0  1  0  0  0  0  0  0  0  0  0
    0.3799   -0.8834    0.7321 H   0  0  0  0  0  0  0  0  0  0  0  0
    0.0961   -0.4721   -1.3484 C   0  0  0  0  0  0  0  0  0  0  0  0
    0.9879   -1.1063   -1.3726 H   0  0  0  0  0  0  0  0  0  0  0  0
   -0.6425   -0.9527   -1.9964 H   0  0  0  0  0  0  0  0  0  0  0  0
    0.4534    0.8365   -2.0188 C   0  0  0  0  0  0  0  0  0  0  0  0
    1.4523    0.8536   -2.9858 N   0  0  0  0  0  0  0  0  0  0  0  0
    1.5153    2.0726   -3.4623 C   0  0  0  0  0  0  0  0  0  0  0  0
    2.2039    2.4047   -4.2341 H   0  0  0  0  0  0  0  0  0  0  0  0
    0.5698    2.8629   -2.8433 N   0  0  0  0  0  0  0  0  0  0  0  0
    0.3901    3.8422   -3.0568 H   0  0  0  0  0  0  0  0  0  0  0  0
   -0.1230    2.0799   -1.9454 C   0  0  0  0  0  0  0  0  0  0  0  0
   -0.9751    2.3827   -1.3450 H   0  0  0  0  0  0  0  0  0  0  0  0
   -0.7779    0.8770    0.7514 C   0  0  0  0  0  0  0  0  0  0  0  0
   -1.9091    1.3387    0.6302 O   0  0  0  0  0  0  0  0  0  0  0  0
    0.1168    1.4982    1.6029 N   0  0  0  0  0  0  0  0  0  0  0  0
    1.0300    1.0665    1.7196 H   0  0  0  0  0  0  0  0  0  0  0  0
   -0.1813    2.7252    2.3305 C   0  0  0  0  0  0  0  0  0  0  0  0
   -1.0552    2.5858    2.9756 H   0  0  0  0  0  0  0  0  0  0  0  0
    0.6693    3.0073    2.9587 H   0  0  0  0  0  0  0  0  0  0  0  0
   -0.3834    3.5449    1.6331 H   0  0  0  0  0  0  0  0  0  0  0  0
  1  2  1  0  0  0  0
  2  3  1  0  0  0  0
  2  4  1  0  0  0  0
  2  5  1  0  0  0  0
  5  6  2  0  0  0  0
  5  7  1  0  0  0  0
  7  8  1  0  0  0  0
  7  9  1  0  0  0  0
  9 10  1  0  0  0  0
  9 11  1  0  0  0  0
  9 22  1  0  0  0  0
 11 12  1  0  0  0  0
 11 13  1  0  0  0  0
 11 14  1  0  0  0  0
 14 15  1  0  0  0  0
 14 20  2  0  0  0  0
 15 16  2  0  0  0  0
 16 17  1  0  0  0  0
 16 18  1  0  0  0  0
 18 19  1  0  0  0  0
 18 20  1  0  0  0  0
 20 21  1  0  0  0  0
 22 23  2  0  0  0  0
 22 24  1  0  0  0  0
 24 25  1  0  0  0  0
 24 26  1  0  0  0  0
 26 27  1  0  0  0  0
 26 28  1  0  0  0  0
 26 29  1  0  0  0  0
M  END
$$$$

  -OEChem-04042215593D

 29 29  0     1  0  0  0  0  0999 V2000
   -2.5726   -4.5243    1.0391 H   0  0  0  0  0  0  0  0  0  0  0  0
   -2.7996   -3.4998    0.7312 C   0  0  0  0  0  0  0  0  0  0  0  0
   -3.4478   -3.0416    1.4821 H   0  0  0  0  0  0  0  0  0  0  0  0
   -3.3251   -3.5285   -0.2264 H   0  0  0  0  0  0  0  0  0  0  0  0
   -1.5181   -2.6995    0.5944 C   0  0  0  0  0  0  0  0  0  0  0  0
   -0.4414   -3.2268    0.8227 O   0  0  0  0  0  0  0  0  0  0  0  0
   -1.5763   -1.3727    0.2239 N   0  0  0  0  0  0  0  0  0  0  0  0
   -2.4982   -0.9472    0.1419 H   0  0  0  0  0  0  0  0  0  0  0  0
   -0.4164   -0.4729    0.1387 C   0  0  1  0  0  0  0  0  0  0  0  0
    0.4042   -0.8795    0.7393 H   0  0  0  0  0  0  0  0  0  0  0  0
    0.0751   -0.4371   -1.3357 C   0  0  0  0  0  0  0  0  0  0  0  0
    0.9572   -1.0824   -1.3901 H   0  0  0  0  0  0  0  0  0  0  0  0
   -0.6865   -0.9018   -1.9690 H   0  0  0  0  0  0  0  0  0  0  0  0
    0.4345    0.8632   -2.0262 C   0  0  0  0  0  0  0  0  0  0  0  0
    1.1581    0.7810   -3.2111 N   0  0  0  0  0  0  0  0  0  0  0  0
    1.3310    2.0010   -3.6545 C   0  0  0  0  0  0  0  0  0  0  0  0
    1.8604    2.2631   -4.5661 H   0  0  0  0  0  0  0  0  0  0  0  0
    0.7349    2.8958   -2.7918 N   0  0  0  0  0  0  0  0  0  0  0  0
    0.7000    3.9049   -2.9233 H   0  0  0  0  0  0  0  0  0  0  0  0
    0.1556    2.1832   -1.7640 C   0  0  0  0  0  0  0  0  0  0  0  0
   -0.4257    2.5997   -0.9488 H   0  0  0  0  0  0  0  0  0  0  0  0
   -0.7802    0.8694    0.7999 C   0  0  0  0  0  0  0  0  0  0  0  0
   -1.8969    1.3524    0.6395 O   0  0  0  0  0  0  0  0  0  0  0  0
    0.1047    1.4862    1.6654 N   0  0  0  0  0  0  0  0  0  0  0  0
    0.9974    1.0275    1.8293 H   0  0  0  0  0  0  0  0  0  0  0  0
   -0.2146    2.6948    2.4149 C   0  0  0  0  0  0  0  0  0  0  0  0
   -1.0704    2.5205    3.0758 H   0  0  0  0  0  0  0  0  0  0  0  0
    0.6402    2.9960    3.0281 H   0  0  0  0  0  0  0  0  0  0  0  0
   -0.4567    3.5165    1.7328 H   0  0  0  0  0  0  0  0  0  0  0  0
  1  2  1  0  0  0  0
  2  3  1  0  0  0  0
  2  4  1  0  0  0  0
  2  5  1  0  0  0  0
  5  6  2  0  0  0  0
  5  7  1  0  0  0  0
  7  8  1  0  0  0  0
  7  9  1  0  0  0  0
  9 10  1  0  0  0  0
  9 11  1  0  0  0  0
  9 22  1  0  0  0  0
 11 12  1  0  0  0  0
 11 13  1  0  0  0  0
 11 14  1  0  0  0  0
 14 15  1  0  0  0  0
 14 20  2  0  0  0  0
 15 16  2  0  0  0  0
 16 17  1  0  0  0  0
 16 18  1  0  0  0  0
 18 19  1  0  0  0  0
 18 20  1  0  0  0  0
 20 21  1  0  0  0  0
 22 23  2  0  0  0  0
 22 24  1  0  0  0  0
 24 25  1  0  0  0  0
 24 26  1  0  0  0  0
 26 27  1  0  0  0  0
 26 28  1  0  0  0  0
 26 29  1  0  0  0  0
M  END
$$$$

  -OEChem-04042215593D

 29 29  0     1  0  0  0  0  0999 V2000
   -2.6191   -4.4830    0.9916 H   0  0  0  0  0  0  0  0  0  0  0  0
   -2.8088   -3.4614    0.6504 C   0  0  0  0  0  0  0  0  0  0  0  0
   -3.5212   -2.9889    1.3309 H   0  0  0  0  0  0  0  0  0  0  0  0
   -3.2427   -3.5002   -0.3518 H   0  0  0  0  0  0  0  0  0  0  0  0
   -1.5146   -2.6705    0.6231 C   0  0  0  0  0  0  0  0  0  0  0  0
   -0.4697   -3.1947    0.9739 O   0  0  0  0  0  0  0  0  0  0  0  0
   -1.5241   -1.3544    0.2140 N   0  0  0  0  0  0  0  0  0  0  0  0
   -2.4270   -0.9258    0.0161 H   0  0  0  0  0  0  0  0  0  0  0  0
   -0.3448   -0.4771    0.1860 C   0  0  1  0  0  0  0  0  0  0  0  0
    0.4650   -0.8737    0.8072 H   0  0  0  0  0  0  0  0  0  0  0  0
    0.1285   -0.4505   -1.2922 C   0  0  0  0  0  0  0  0  0  0  0  0
    0.7810   -1.3153   -1.4452 H   0  0  0  0  0  0  0  0  0  0  0  0
   -0.7481   -0.5985   -1.9308 H   0  0  0  0  0  0  0  0  0  0  0  0
    0.8277    0.7589   -1.8720 C   0  0  0  0  0  0  0  0  0  0  0  0
    1.2199    0.7032   -3.2051 N   0  0  0  0  0  0  0  0  0  0  0  0
    1.8103    1.8370   -3.4894 C   0  0  0  0  0  0  0  0  0  0  0  0
    2.2237    2.0984   -4.4594 H   0  0  0  0  0  0  0  0  0  0  0  0
    1.8281    2.6430   -2.3708 N   0  0  0  0  0  0  0  0  0  0  0  0
    2.2231    3.5806   -2.3293 H   0  0  0  0  0  0  0  0  0  0  0  0
    1.2120    1.9649   -1.3404 C   0  0  0  0  0  0  0  0  0  0  0  0
    1.0684    2.3310   -0.3328 H   0  0  0  0  0  0  0  0  0  0  0  0
   -0.7708    0.8759    0.7922 C   0  0  0  0  0  0  0  0  0  0  0  0
   -1.8430    1.3829    0.4813 O   0  0  0  0  0  0  0  0  0  0  0  0
    0.0385    1.5132    1.7172 N   0  0  0  0  0  0  0  0  0  0  0  0
    0.8561    1.0052    2.0452 H   0  0  0  0  0  0  0  0  0  0  0  0
   -0.3545    2.7326    2.4134 C   0  0  0  0  0  0  0  0  0  0  0  0
   -1.2176    2.5424    3.0599 H   0  0  0  0  0  0  0  0  0  0  0  0
    0.4705    3.0969    3.0330 H   0  0  0  0  0  0  0  0  0  0  0  0
   -0.6176    3.5174    1.6962 H   0  0  0  0  0  0  0  0  0  0  0  0
  1  2  1  0  0  0  0
  2  3  1  0  0  0  0
  2  4  1  0  0  0  0
  2  5  1  0  0  0  0
  5  6  2  0  0  0  0
  5  7  1  0  0  0  0
  7  8  1  0  0  0  0
  7  9  1  0  0  0  0
  9 10  1  0  0  0  0
  9 11  1  0  0  0  0
  9 22  1  0  0  0  0
 11 12  1  0  0  0  0
 11 13  1  0  0  0  0
 11 14  1  0  0  0  0
 14 15  1  0  0  0  0
 14 20  2  0  0  0  0
 15 16  2  0  0  0  0
 16 17  1  0  0  0  0
 16 18  1  0  0  0  0
 18 19  1  0  0  0  0
 18 20  1  0  0  0  0
 20 21  1  0  0  0  0
 22 23  2  0  0  0  0
 22 24  1  0  0  0  0
 24 25  1  0  0  0  0
 24 26  1  0  0  0  0
 26 27  1  0  0  0  0
 26 28  1  0  0  0  0
 26 29  1  0  0  0  0
M  END
$$$$

  -OEChem-04042215593D

 29 29  0     1  0  0  0  0  0999 V2000
   -2.6656   -4.4571    1.0545 H   0  0  0  0  0  0  0  0  0  0  0  0
   -2.8407   -3.4432    0.6839 C   0  0  0  0  0  0  0  0  0  0  0  0
   -3.5430   -2.9400    1.3530 H   0  0  0  0  0  0  0  0  0  0  0  0
   -3.2789   -3.5046   -0.3151 H   0  0  0  0  0  0  0  0  0  0  0  0
   -1.5344   -2.6739    0.6292 C   0  0  0  0  0  0  0  0  0  0  0  0
   -0.4952   -3.2070    0.9841 O   0  0  0  0  0  0  0  0  0  0  0  0
   -1.5255   -1.3651    0.1974 N   0  0  0  0  0  0  0  0  0  0  0  0
   -2.4221   -0.9266   -0.0083 H   0  0  0  0  0  0  0  0  0  0  0  0
   -0.3352   -0.5026    0.1679 C   0  0  1  0  0  0  0  0  0  0  0  0
    0.4711   -0.8990    0.7934 H   0  0  0  0  0  0  0  0  0  0  0  0
    0.1310   -0.4754   -1.3115 C   0  0  0  0  0  0  0  0  0  0  0  0
    0.7658   -1.3480   -1.4903 H   0  0  0  0  0  0  0  0  0  0  0  0
   -0.7547   -0.5913   -1.9445 H   0  0  0  0  0  0  0  0  0  0  0  0
    0.8400    0.7430   -1.8535 C   0  0  0  0  0  0  0  0  0  0  0  0
    0.9724    0.8984   -3.2286 N   0  0  0  0  0  0  0  0  0  0  0  0
    1.6544    1.9983   -3.4317 C   0  0  0  0  0  0  0  0  0  0  0  0
    1.9147    2.3976   -4.4077 H   0  0  0  0  0  0  0  0  0  0  0  0
    1.9977    2.5636   -2.2209 N   0  0  0  0  0  0  0  0  0  0  0  0
    2.5347    3.4207   -2.1044 H   0  0  0  0  0  0  0  0  0  0  0  0
    1.5006    1.7618   -1.2155 C   0  0  0  0  0  0  0  0  0  0  0  0
    1.6286    1.9056   -0.1505 H   0  0  0  0  0  0  0  0  0  0  0  0
   -0.7609    0.8648    0.7487 C   0  0  0  0  0  0  0  0  0  0  0  0
   -1.8274    1.3708    0.4165 O   0  0  0  0  0  0  0  0  0  0  0  0
    0.0368    1.5149    1.6747 N   0  0  0  0  0  0  0  0  0  0  0  0
    0.8312    0.9994    2.0441 H   0  0  0  0  0  0  0  0  0  0  0  0
   -0.3506    2.7620    2.3230 C   0  0  0  0  0  0  0  0  0  0  0  0
   -1.2622    2.6204    2.9129 H   0  0  0  0  0  0  0  0  0  0  0  0
    0.4457    3.1038    2.9912 H   0  0  0  0  0  0  0  0  0  0  0  0
   -0.5316    3.5423    1.5760 H   0  0  0  0  0  0  0  0  0  0  0  0
  1  2  1  0  0  0  0
  2  3  1  0  0  0  0
  2  4  1  0  0  0  0
  2  5  1  0  0  0  0
  5  6  2  0  0  0  0
  5  7  1  0  0  0  0
  7  8  1  0  0  0  0
  7  9  1  0  0  0  0
  9 10  1  0  0  0  0
  9 11  1  0  0  0  0
  9 22  1  0  0  0  0
 11 12  1  0  0  0  0
 11 13  1  0  0  0  0
 11 14  1  0  0  0  0
 14 15  1  0  0  0  0
 14 20  2  0  0  0  0
 15 16  2  0  0  0  0
 16 17  1  0  0  0  0
 16 18  1  0  0  0  0
 18 19  1  0  0  0  0
 18 20  1  0  0  0  0
 20 21  1  0  0  0  0
 22 23  2  0  0  0  0
 22 24  1  0  0  0  0
 24 25  1  0  0  0  0
 24 26  1  0  0  0  0
 26 27  1  0  0  0  0
 26 28  1  0  0  0  0
 26 29  1  0  0  0  0
M  END
$$$$

  -OEChem-04042215593D

 29 29  0     1  0  0  0  0  0999 V2000
   -2.6826   -4.4474    1.1135 H   0  0  0  0  0  0  0  0  0  0  0  0
   -2.8550   -3.4389    0.7271 C   0  0  0  0  0  0  0  0  0  0  0  0
   -3.5495   -2.9205    1.3927 H   0  0  0  0  0  0  0  0  0  0  0  0
   -3.3014   -3.5142   -0.2674 H   0  0  0  0  0  0  0  0  0  0  0  0
   -1.5448   -2.6783    0.6495 C   0  0  0  0  0  0  0  0  0  0  0  0
   -0.5057   -3.2112    1.0056 O   0  0  0  0  0  0  0  0  0  0  0  0
   -1.5309   -1.3791    0.1898 N   0  0  0  0  0  0  0  0  0  0  0  0
   -2.4267   -0.9360   -0.0096 H   0  0  0  0  0  0  0  0  0  0  0  0
   -0.3368   -0.5240    0.1391 C   0  0  1  0  0  0  0  0  0  0  0  0
    0.4676   -0.9142    0.7709 H   0  0  0  0  0  0  0  0  0  0  0  0
    0.1332   -0.5133   -1.3367 C   0  0  0  0  0  0  0  0  0  0  0  0
    0.7708   -1.3837   -1.5153 H   0  0  0  0  0  0  0  0  0  0  0  0
   -0.7492   -0.6257   -1.9750 H   0  0  0  0  0  0  0  0  0  0  0  0
    0.8418    0.7190   -1.8381 C   0  0  0  0  0  0  0  0  0  0  0  0
    0.7582    1.1099   -3.1684 N   0  0  0  0  0  0  0  0  0  0  0  0
    1.5123    2.1731   -3.3023 C   0  0  0  0  0  0  0  0  0  0  0  0
    1.6513    2.7237   -4.2282 H   0  0  0  0  0  0  0  0  0  0  0  0
    2.1093    2.4795   -2.0954 N   0  0  0  0  0  0  0  0  0  0  0  0
    2.7500    3.2549   -1.9381 H   0  0  0  0  0  0  0  0  0  0  0  0
    1.7014    1.5471   -1.1654 C   0  0  0  0  0  0  0  0  0  0  0  0
    2.0082    1.4705   -0.1285 H   0  0  0  0  0  0  0  0  0  0  0  0
   -0.7427    0.8628    0.6899 C   0  0  0  0  0  0  0  0  0  0  0  0
   -1.8167    1.3612    0.3705 O   0  0  0  0  0  0  0  0  0  0  0  0
    0.0673    1.5259    1.5958 N   0  0  0  0  0  0  0  0  0  0  0  0
    0.8675    1.0187    1.9628 H   0  0  0  0  0  0  0  0  0  0  0  0
   -0.3047    2.7915    2.2165 C   0  0  0  0  0  0  0  0  0  0  0  0
   -1.2207    2.6759    2.8054 H   0  0  0  0  0  0  0  0  0  0  0  0
    0.4937    3.1361    2.8808 H   0  0  0  0  0  0  0  0  0  0  0  0
   -0.4713    3.5576    1.4517 H   0  0  0  0  0  0  0  0  0  0  0  0
  1  2  1  0  0  0  0
  2  3  1  0  0  0  0
  2  4  1  0  0  0  0
  2  5  1  0  0  0  0
  5  6  2  0  0  0  0
  5  7  1  0  0  0  0
  7  8  1  0  0  0  0
  7  9  1  0  0  0  0
  9 10  1  0  0  0  0
  9 11  1  0  0  0  0
  9 22  1  0  0  0  0
 11 12  1  0  0  0  0
 11 13  1  0  0  0  0
 11 14  1  0  0  0  0
 14 15  1  0  0  0  0
 14 20  2  0  0  0  0
 15 16  2  0  0  0  0
 16 17  1  0  0  0  0
 16 18  1  0  0  0  0
 18 19  1  0  0  0  0
 18 20  1  0  0  0  0
 20 21  1  0  0  0  0
 22 23  2  0  0  0  0
 22 24  1  0  0  0  0
 24 25  1  0  0  0  0
 24 26  1  0  0  0  0
 26 27  1  0  0  0  0
 26 28  1  0  0  0  0
 26 29  1  0  0  0  0
M  END
$$$$

  -OEChem-04042215593D

 29 29  0     1  0  0  0  0  0999 V2000
   -2.6945   -4.4373    1.1657 H   0  0  0  0  0  0  0  0  0  0  0  0
   -2.8660   -3.4327    0.7689 C   0  0  0  0  0  0  0  0  0  0  0  0
   -3.5429   -2.8988    1.4401 H   0  0  0  0  0  0  0  0  0  0  0  0
   -3.3318   -3.5179   -0.2159 H   0  0  0  0  0  0  0  0  0  0  0  0
   -1.5516   -2.6839    0.6560 C   0  0  0  0  0  0  0  0  0  0  0  0
   -0.5099   -3.2204    0.9989 O   0  0  0  0  0  0  0  0  0  0  0  0
   -1.5364   -1.3928    0.1746 N   0  0  0  0  0  0  0  0  0  0  0  0
   -2.4331   -0.9440   -0.0084 H   0  0  0  0  0  0  0  0  0  0  0  0
   -0.3412   -0.5414    0.1063 C   0  0  1  0  0  0  0  0  0  0  0  0
    0.4576   -0.9263    0.7485 H   0  0  0  0  0  0  0  0  0  0  0  0
    0.1456   -0.5507   -1.3617 C   0  0  0  0  0  0  0  0  0  0  0  0
    0.7963   -1.4148   -1.5215 H   0  0  0  0  0  0  0  0  0  0  0  0
   -0.7229   -0.6757   -2.0166 H   0  0  0  0  0  0  0  0  0  0  0  0
    0.8520    0.6940   -1.8270 C   0  0  0  0  0  0  0  0  0  0  0  0
    0.5838    1.2998   -3.0466 N   0  0  0  0  0  0  0  0  0  0  0  0
    1.3902    2.3284   -3.1428 C   0  0  0  0  0  0  0  0  0  0  0  0
    1.4220    3.0156   -3.9834 H   0  0  0  0  0  0  0  0  0  0  0  0
    2.1960    2.4010   -2.0227 N   0  0  0  0  0  0  0  0  0  0  0  0
    2.9110    3.1072   -1.8597 H   0  0  0  0  0  0  0  0  0  0  0  0
    1.8677    1.3535   -1.1882 C   0  0  0  0  0  0  0  0  0  0  0  0
    2.3161    1.0928   -0.2355 H   0  0  0  0  0  0  0  0  0  0  0  0
   -0.7278    0.8613    0.6326 C   0  0  0  0  0  0  0  0  0  0  0  0
   -1.8144    1.3496    0.3410 O   0  0  0  0  0  0  0  0  0  0  0  0
    0.0970    1.5310    1.5198 N   0  0  0  0  0  0  0  0  0  0  0  0
    0.9221    1.0411    1.8519 H   0  0  0  0  0  0  0  0  0  0  0  0
   -0.2569    2.8063    2.1309 C   0  0  0  0  0  0  0  0  0  0  0  0
   -1.1598    2.7016    2.7417 H   0  0  0  0  0  0  0  0  0  0  0  0
    0.5570    3.1565    2.7729 H   0  0  0  0  0  0  0  0  0  0  0  0
   -0.4380    3.5630    1.3603 H   0  0  0  0  0  0  0  0  0  0  0  0
  1  2  1  0  0  0  0
  2  3  1  0  0  0  0
  2  4  1  0  0  0  0
  2  5  1  0  0  0  0
  5  6  2  0  0  0  0
  5  7  1  0  0  0  0
  7  8  1  0  0  0  0
  7  9  1  0  0  0  0
  9 10  1  0  0  0  0
  9 11  1  0  0  0  0
  9 22  1  0  0  0  0
 11 12  1  0  0  0  0
 11 13  1  0  0  0  0
 11 14  1  0  0  0  0
 14 15  1  0  0  0  0
 14 20  2  0  0  0  0
 15 16  2  0  0  0  0
 16 17  1  0  0  0  0
 16 18  1  0  0  0  0
 18 19  1  0  0  0  0
 18 20  1  0  0  0  0
 20 21  1  0  0  0  0
 22 23  2  0  0  0  0
 22 24  1  0  0  0  0
 24 25  1  0  0  0  0
 24 26  1  0  0  0  0
 26 27  1  0  0  0  0
 26 28  1  0  0  0  0
 26 29  1  0  0  0  0
M  END
$$$$

  -OEChem-04042215593D

 29 29  0     1  0  0  0  0  0999 V2000
   -2.6949   -4.4360    1.2105 H   0  0  0  0  0  0  0  0  0  0  0  0
   -2.8695   -3.4357    0.8047 C   0  0  0  0  0  0  0  0  0  0  0  0
   -3.5275   -2.8892    1.4846 H   0  0  0  0  0  0  0  0  0  0  0  0
   -3.3590   -3.5305   -0.1675 H   0  0  0  0  0  0  0  0  0  0  0  0
   -1.5534   -2.6969    0.6519 C   0  0  0  0  0  0  0  0  0  0  0  0
   -0.5067   -3.2386    0.9711 O   0  0  0  0  0  0  0  0  0  0  0  0
   -1.5421   -1.4098    0.1597 N   0  0  0  0  0  0  0  0  0  0  0  0
   -2.4408   -0.9548    0.0025 H   0  0  0  0  0  0  0  0  0  0  0  0
   -0.3478   -0.5588    0.0780 C   0  0  1  0  0  0  0  0  0  0  0  0
    0.4486   -0.9386    0.7261 H   0  0  0  0  0  0  0  0  0  0  0  0
    0.1517   -0.5740   -1.3834 C   0  0  0  0  0  0  0  0  0  0  0  0
    0.8183   -1.4287   -1.5286 H   0  0  0  0  0  0  0  0  0  0  0  0
   -0.7023   -0.7097   -2.0548 H   0  0  0  0  0  0  0  0  0  0  0  0
    0.8511    0.6852   -1.8103 C   0  0  0  0  0  0  0  0  0  0  0  0
    0.4228    1.4908   -2.8548 N   0  0  0  0  0  0  0  0  0  0  0  0
    1.2855    2.4732   -2.9468 C   0  0  0  0  0  0  0  0  0  0  0  0
    1.2283    3.2830   -3.6683 H   0  0  0  0  0  0  0  0  0  0  0  0
    2.2794    2.3196   -1.9982 N   0  0  0  0  0  0  0  0  0  0  0  0
    3.0746    2.9439   -1.8760 H   0  0  0  0  0  0  0  0  0  0  0  0
    2.0134    1.1738   -1.2786 C   0  0  0  0  0  0  0  0  0  0  0  0
    2.5932    0.7372   -0.4718 H   0  0  0  0  0  0  0  0  0  0  0  0
   -0.7239    0.8516    0.5933 C   0  0  0  0  0  0  0  0  0  0  0  0
   -1.8277    1.3234    0.3413 O   0  0  0  0  0  0  0  0  0  0  0  0
    0.1113    1.5260    1.4668 N   0  0  0  0  0  0  0  0  0  0  0  0
    0.9803    1.0735    1.7328 H   0  0  0  0  0  0  0  0  0  0  0  0
   -0.2174    2.8221    2.0470 C   0  0  0  0  0  0  0  0  0  0  0  0
   -1.1330    2.7541    2.6438 H   0  0  0  0  0  0  0  0  0  0  0  0
    0.5942    3.1630    2.6968 H   0  0  0  0  0  0  0  0  0  0  0  0
   -0.3649    3.5670    1.2579 H   0  0  0  0  0  0  0  0  0  0  0  0
  1  2  1  0  0  0  0
  2  3  1  0  0  0  0
  2  4  1  0  0  0  0
  2  5  1  0  0  0  0
  5  6  2  0  0  0  0
  5  7  1  0  0  0  0
  7  8  1  0  0  0  0
  7  9  1  0  0  0  0
  9 10  1  0  0  0  0
  9 11  1  0  0  0  0
  9 22  1  0  0  0  0
 11 12  1  0  0  0  0
 11 13  1  0  0  0  0
 11 14  1  0  0  0  0
 14 15  1  0  0  0  0
 14 20  2  0  0  0  0
 15 16  2  0  0  0  0
 16 17  1  0  0  0  0
 16 18  1  0  0  0  0
 18 19  1  0  0  0  0
 18 20  1  0  0  0  0
 20 21  1  0  0  0  0
 22 23  2  0  0  0  0
 22 24  1  0  0  0  0
 24 25  1  0  0  0  0
 24 26  1  0  0  0  0
 26 27  1  0  0  0  0
 26 28  1  0  0  0  0
 26 29  1  0  0  0  0
M  END
$$$$

  -OEChem-04042215593D

 29 29  0     1  0  0  0  0  0999 V2000
   -2.6996   -4.4308    1.2342 H   0  0  0  0  0  0  0  0  0  0  0  0
   -2.8742   -3.4325    0.8236 C   0  0  0  0  0  0  0  0  0  0  0  0
   -3.5184   -2.8771    1.5095 H   0  0  0  0  0  0  0  0  0  0  0  0
   -3.3793   -3.5311   -0.1403 H   0  0  0  0  0  0  0  0  0  0  0  0
   -1.5560   -2.7034    0.6446 C   0  0  0  0  0  0  0  0  0  0  0  0
   -0.5072   -3.2519    0.9454 O   0  0  0  0  0  0  0  0  0  0  0  0
   -1.5459   -1.4184    0.1474 N   0  0  0  0  0  0  0  0  0  0  0  0
   -2.4451   -0.9567    0.0128 H   0  0  0  0  0  0  0  0  0  0  0  0
   -0.3525   -0.5670    0.0607 C   0  0  1  0  0  0  0  0  0  0  0  0
    0.4389   -0.9433    0.7172 H   0  0  0  0  0  0  0  0  0  0  0  0
    0.1652   -0.5894   -1.3927 C   0  0  0  0  0  0  0  0  0  0  0  0
    0.8426   -1.4387   -1.5179 H   0  0  0  0  0  0  0  0  0  0  0  0
   -0.6734   -0.7355   -2.0805 H   0  0  0  0  0  0  0  0  0  0  0  0
    0.8615    0.6769   -1.7984 C   0  0  0  0  0  0  0  0  0  0  0  0
    0.3087    1.6404   -2.6279 N   0  0  0  0  0  0  0  0  0  0  0  0
    1.2135    2.5784   -2.7653 C   0  0  0  0  0  0  0  0  0  0  0  0
    1.0859    3.4816   -3.3553 H   0  0  0  0  0  0  0  0  0  0  0  0
    2.3521    2.2428   -2.0560 N   0  0  0  0  0  0  0  0  0  0  0  0
    3.2040    2.7993   -2.0177 H   0  0  0  0  0  0  0  0  0  0  0  0
    2.1363    1.0244   -1.4465 C   0  0  0  0  0  0  0  0  0  0  0  0
    2.8192    0.4497   -0.8281 H   0  0  0  0  0  0  0  0  0  0  0  0
   -0.7249    0.8466    0.5703 C   0  0  0  0  0  0  0  0  0  0  0  0
   -1.8441    1.3017    0.3564 O   0  0  0  0  0  0  0  0  0  0  0  0
    0.1178    1.5190    1.4378 N   0  0  0  0  0  0  0  0  0  0  0  0
    1.0200    1.0984    1.6369 H   0  0  0  0  0  0  0  0  0  0  0  0
   -0.1949    2.8232    2.0078 C   0  0  0  0  0  0  0  0  0  0  0  0
   -1.1228    2.7773    2.5876 H   0  0  0  0  0  0  0  0  0  0  0  0
    0.6114    3.1476    2.6726 H   0  0  0  0  0  0  0  0  0  0  0  0
   -0.3110    3.5681    1.2136 H   0  0  0  0  0  0  0  0  0  0  0  0
  1  2  1  0  0  0  0
  2  3  1  0  0  0  0
  2  4  1  0  0  0  0
  2  5  1  0  0  0  0
  5  6  2  0  0  0  0
  5  7  1  0  0  0  0
  7  8  1  0  0  0  0
  7  9  1  0  0  0  0
  9 10  1  0  0  0  0
  9 11  1  0  0  0  0
  9 22  1  0  0  0  0
 11 12  1  0  0  0  0
 11 13  1  0  0  0  0
 11 14  1  0  0  0  0
 14 15  1  0  0  0  0
 14 20  2  0  0  0  0
 15 16  2  0  0  0  0
 16 17  1  0  0  0  0
 16 18  1  0  0  0  0
 18 19  1  0  0  0  0
 18 20  1  0  0  0  0
 20 21  1  0  0  0  0
 22 23  2  0  0  0  0
 22 24  1  0  0  0  0
 24 25  1  0  0  0  0
 24 26  1  0  0  0  0
 26 27  1  0  0  0  0
 26 28  1  0  0  0  0
 26 29  1  0  0  0  0
M  END
$$$$

  -OEChem-04042215593D

 29 29  0     1  0  0  0  0  0999 V2000
   -2.7017   -4.4201    1.2421 H   0  0  0  0  0  0  0  0  0  0  0  0
   -2.8767   -3.4209    0.8339 C   0  0  0  0  0  0  0  0  0  0  0  0
   -3.5049   -2.8602    1.5303 H   0  0  0  0  0  0  0  0  0  0  0  0
   -3.3987   -3.5166   -0.1213 H   0  0  0  0  0  0  0  0  0  0  0  0
   -1.5569   -2.7007    0.6325 C   0  0  0  0  0  0  0  0  0  0  0  0
   -0.5065   -3.2578    0.9119 O   0  0  0  0  0  0  0  0  0  0  0  0
   -1.5469   -1.4155    0.1361 N   0  0  0  0  0  0  0  0  0  0  0  0
   -2.4453   -0.9447    0.0306 H   0  0  0  0  0  0  0  0  0  0  0  0
   -0.3525   -0.5652    0.0518 C   0  0  1  0  0  0  0  0  0  0  0  0
    0.4326   -0.9413    0.7158 H   0  0  0  0  0  0  0  0  0  0  0  0
    0.1820   -0.5941   -1.3951 C   0  0  0  0  0  0  0  0  0  0  0  0
    0.8592   -1.4460   -1.5047 H   0  0  0  0  0  0  0  0  0  0  0  0
   -0.6482   -0.7431   -2.0923 H   0  0  0  0  0  0  0  0  0  0  0  0
    0.8829    0.6706   -1.7998 C   0  0  0  0  0  0  0  0  0  0  0  0
    0.2610    1.7626   -2.3855 N   0  0  0  0  0  0  0  0  0  0  0  0
    1.1974    2.6508   -2.6127 C   0  0  0  0  0  0  0  0  0  0  0  0
    1.0327    3.6245   -3.0653 H   0  0  0  0  0  0  0  0  0  0  0  0
    2.4215    2.1602   -2.1973 N   0  0  0  0  0  0  0  0  0  0  0  0
    3.3099    2.6505   -2.2844 H   0  0  0  0  0  0  0  0  0  0  0  0
    2.2270    0.8935   -1.6875 C   0  0  0  0  0  0  0  0  0  0  0  0
    2.9677    0.2060   -1.2896 H   0  0  0  0  0  0  0  0  0  0  0  0
   -0.7265    0.8483    0.5623 C   0  0  0  0  0  0  0  0  0  0  0  0
   -1.8609    1.2831    0.3852 O   0  0  0  0  0  0  0  0  0  0  0  0
    0.1162    1.5187    1.4315 N   0  0  0  0  0  0  0  0  0  0  0  0
    1.0385    1.1244    1.5884 H   0  0  0  0  0  0  0  0  0  0  0  0
   -0.2089    2.8114    2.0206 C   0  0  0  0  0  0  0  0  0  0  0  0
   -1.1210    2.7399    2.6222 H   0  0  0  0  0  0  0  0  0  0  0  0
    0.6063    3.1472    2.6685 H   0  0  0  0  0  0  0  0  0  0  0  0
   -0.3609    3.5613    1.2370 H   0  0  0  0  0  0  0  0  0  0  0  0
  1  2  1  0  0  0  0
  2  3  1  0  0  0  0
  2  4  1  0  0  0  0
  2  5  1  0  0  0  0
  5  6  2  0  0  0  0
  5  7  1  0  0  0  0
  7  8  1  0  0  0  0
  7  9  1  0  0  0  0
  9 10  1  0  0  0  0
  9 11  1  0  0  0  0
  9 22  1  0  0  0  0
 11 12  1  0  0  0  0
 11 13  1  0  0  0  0
 11 14  1  0  0  0  0
 14 15  1  0  0  0  0
 14 20  2  0  0  0  0
 15 16  2  0  0  0  0
 16 17  1  0  0  0  0
 16 18  1  0  0  0  0
 18 19  1  0  0  0  0
 18 20  1  0  0  0  0
 20 21  1  0  0  0  0
 22 23  2  0  0  0  0
 22 24  1  0  0  0  0
 24 25  1  0  0  0  0
 24 26  1  0  0  0  0
 26 27  1  0  0  0  0
 26 28  1  0  0  0  0
 26 29  1  0  0  0  0
M  END
$$$$

  -OEChem-04042215593D

 29 29  0     1  0  0  0  0  0999 V2000
   -2.6960   -4.4157    1.2373 H   0  0  0  0  0  0  0  0  0  0  0  0
   -2.8736   -3.4145    0.8350 C   0  0  0  0  0  0  0  0  0  0  0  0
   -3.4895   -2.8542    1.5426 H   0  0  0  0  0  0  0  0  0  0  0  0
   -3.4105   -3.5051   -0.1123 H   0  0  0  0  0  0  0  0  0  0  0  0
   -1.5546   -2.6978    0.6162 C   0  0  0  0  0  0  0  0  0  0  0  0
   -0.5017   -3.2622    0.8704 O   0  0  0  0  0  0  0  0  0  0  0  0
   -1.5483   -1.4089    0.1294 N   0  0  0  0  0  0  0  0  0  0  0  0
   -2.4465   -0.9318    0.0526 H   0  0  0  0  0  0  0  0  0  0  0  0
   -0.3549   -0.5561    0.0521 C   0  0  1  0  0  0  0  0  0  0  0  0
    0.4252   -0.9331    0.7214 H   0  0  0  0  0  0  0  0  0  0  0  0
    0.1948   -0.5903   -1.3899 C   0  0  0  0  0  0  0  0  0  0  0  0
    0.8664   -1.4479   -1.4890 H   0  0  0  0  0  0  0  0  0  0  0  0
   -0.6332   -0.7408   -2.0891 H   0  0  0  0  0  0  0  0  0  0  0  0
    0.9018    0.6663   -1.8146 C   0  0  0  0  0  0  0  0  0  0  0  0
    0.2785    1.8597   -2.1479 N   0  0  0  0  0  0  0  0  0  0  0  0
    1.2254    2.7011   -2.4833 C   0  0  0  0  0  0  0  0  0  0  0  0
    1.0608    3.7282   -2.7967 H   0  0  0  0  0  0  0  0  0  0  0  0
    2.4581    2.0842   -2.3813 N   0  0  0  0  0  0  0  0  0  0  0  0
    3.3517    2.5180   -2.6060 H   0  0  0  0  0  0  0  0  0  0  0  0
    2.2559    0.7857   -1.9619 C   0  0  0  0  0  0  0  0  0  0  0  0
    2.9976    0.0110   -1.7897 H   0  0  0  0  0  0  0  0  0  0  0  0
   -0.7349    0.8518    0.5740 C   0  0  0  0  0  0  0  0  0  0  0  0
   -1.8820    1.2675    0.4303 O   0  0  0  0  0  0  0  0  0  0  0  0
    0.1071    1.5155    1.4493 N   0  0  0  0  0  0  0  0  0  0  0  0
    1.0459    1.1465    1.5642 H   0  0  0  0  0  0  0  0  0  0  0  0
   -0.2239    2.8004    2.0518 C   0  0  0  0  0  0  0  0  0  0  0  0
   -1.1348    2.7179    2.6540 H   0  0  0  0  0  0  0  0  0  0  0  0
    0.5901    3.1337    2.7024 H   0  0  0  0  0  0  0  0  0  0  0  0
   -0.3808    3.5568    1.2757 H   0  0  0  0  0  0  0  0  0  0  0  0
  1  2  1  0  0  0  0
  2  3  1  0  0  0  0
  2  4  1  0  0  0  0
  2  5  1  0  0  0  0
  5  6  2  0  0  0  0
  5  7  1  0  0  0  0
  7  8  1  0  0  0  0
  7  9  1  0  0  0  0
  9 10  1  0  0  0  0
  9 11  1  0  0  0  0
  9 22  1  0  0  0  0
 11 12  1  0  0  0  0
 11 13  1  0  0  0  0
 11 14  1  0  0  0  0
 14 15  1  0  0  0  0
 14 20  2  0  0  0  0
 15 16  2  0  0  0  0
 16 17  1  0  0  0  0
 16 18  1  0  0  0  0
 18 19  1  0  0  0  0
 18 20  1  0  0  0  0
 20 21  1  0  0  0  0
 22 23  2  0  0  0  0
 22 24  1  0  0  0  0
 24 25  1  0  0  0  0
 24 26  1  0  0  0  0
 26 27  1  0  0  0  0
 26 28  1  0  0  0  0
 26 29  1  0  0  0  0
M  END
$$$$

  -OEChem-04042215593D

 29 29  0     1  0  0  0  0  0999 V2000
   -2.6774   -4.4251    1.2146 H   0  0  0  0  0  0  0  0  0  0  0  0
   -2.8607   -3.4189    0.8273 C   0  0  0  0  0  0  0  0  0  0  0  0
   -3.4664   -2.8676    1.5507 H   0  0  0  0  0  0  0  0  0  0  0  0
   -3.4111   -3.4982   -0.1133 H   0  0  0  0  0  0  0  0  0  0  0  0
   -1.5455   -2.6983    0.5984 C   0  0  0  0  0  0  0  0  0  0  0  0
   -0.4886   -3.2668    0.8249 O   0  0  0  0  0  0  0  0  0  0  0  0
   -1.5472   -1.4027    0.1300 N   0  0  0  0  0  0  0  0  0  0  0  0
   -2.4465   -0.9239    0.0811 H   0  0  0  0  0  0  0  0  0  0  0  0
   -0.3569   -0.5442    0.0623 C   0  0  1  0  0  0  0  0  0  0  0  0
    0.4244   -0.9245    0.7286 H   0  0  0  0  0  0  0  0  0  0  0  0
    0.1954   -0.5734   -1.3807 C   0  0  0  0  0  0  0  0  0  0  0  0
    0.8560   -1.4391   -1.4850 H   0  0  0  0  0  0  0  0  0  0  0  0
   -0.6412   -0.7178   -2.0709 H   0  0  0  0  0  0  0  0  0  0  0  0
    0.9072    0.6729   -1.8367 C   0  0  0  0  0  0  0  0  0  0  0  0
    0.3644    1.9478   -1.9168 N   0  0  0  0  0  0  0  0  0  0  0  0
    1.3061    2.7385   -2.3695 C   0  0  0  0  0  0  0  0  0  0  0  0
    1.1911    3.8041   -2.5469 H   0  0  0  0  0  0  0  0  0  0  0  0
    2.4613    2.0120   -2.5849 N   0  0  0  0  0  0  0  0  0  0  0  0
    3.3350    2.3907   -2.9455 H   0  0  0  0  0  0  0  0  0  0  0  0
    2.2105    0.6978   -2.2508 C   0  0  0  0  0  0  0  0  0  0  0  0
    2.8879   -0.1496   -2.3050 H   0  0  0  0  0  0  0  0  0  0  0  0
   -0.7484    0.8521    0.6065 C   0  0  0  0  0  0  0  0  0  0  0  0
   -1.9026    1.2545    0.4763 O   0  0  0  0  0  0  0  0  0  0  0  0
    0.0883    1.5096    1.4916 N   0  0  0  0  0  0  0  0  0  0  0  0
    1.0407    1.1672    1.5685 H   0  0  0  0  0  0  0  0  0  0  0  0
   -0.2445    2.7968    2.0880 C   0  0  0  0  0  0  0  0  0  0  0  0
   -1.1610    2.7188    2.6821 H   0  0  0  0  0  0  0  0  0  0  0  0
    0.5644    3.1298    2.7452 H   0  0  0  0  0  0  0  0  0  0  0  0
   -0.3921    3.5512    1.3080 H   0  0  0  0  0  0  0  0  0  0  0  0
  1  2  1  0  0  0  0
  2  3  1  0  0  0  0
  2  4  1  0  0  0  0
  2  5  1  0  0  0  0
  5  6  2  0  0  0  0
  5  7  1  0  0  0  0
  7  8  1  0  0  0  0
  7  9  1  0  0  0  0
  9 10  1  0  0  0  0
  9 11  1  0  0  0  0
  9 22  1  0  0  0  0
 11 12  1  0  0  0  0
 11 13  1  0  0  0  0
 11 14  1  0  0  0  0
 14 15  1  0  0  0  0
 14 20  2  0  0  0  0
 15 16  2  0  0  0  0
 16 17  1  0  0  0  0
 16 18  1  0  0  0  0
 18 19  1  0  0  0  0
 18 20  1  0  0  0  0
 20 21  1  0  0  0  0
 22 23  2  0  0  0  0
 22 24  1  0  0  0  0
 24 25  1  0  0  0  0
 24 26  1  0  0  0  0
 26 27  1  0  0  0  0
 26 28  1  0  0  0  0
 26 29  1  0  0  0  0
M  END
$$$$

  -OEChem-04042215593D

 29 29  0     1  0  0  0  0  0999 V2000
   -2.6588   -4.4295    1.1972 H   0  0  0  0  0  0  0  0  0  0  0  0
   -2.8465   -3.4231    0.8127 C   0  0  0  0  0  0  0  0  0  0  0  0
   -3.4527   -2.8760    1.5388 H   0  0  0  0  0  0  0  0  0  0  0  0
   -3.3982   -3.5015   -0.1271 H   0  0  0  0  0  0  0  0  0  0  0  0
   -1.5338   -2.6981    0.5830 C   0  0  0  0  0  0  0  0  0  0  0  0
   -0.4746   -3.2700    0.7894 O   0  0  0  0  0  0  0  0  0  0  0  0
   -1.5410   -1.3958    0.1333 N   0  0  0  0  0  0  0  0  0  0  0  0
   -2.4411   -0.9162    0.1070 H   0  0  0  0  0  0  0  0  0  0  0  0
   -0.3527   -0.5324    0.0779 C   0  0  1  0  0  0  0  0  0  0  0  0
    0.4307   -0.9171    0.7389 H   0  0  0  0  0  0  0  0  0  0  0  0
    0.1952   -0.5474   -1.3693 C   0  0  0  0  0  0  0  0  0  0  0  0
    0.8452   -1.4195   -1.4856 H   0  0  0  0  0  0  0  0  0  0  0  0
   -0.6516   -0.6825   -2.0490 H   0  0  0  0  0  0  0  0  0  0  0  0
    0.9116    0.6893   -1.8526 C   0  0  0  0  0  0  0  0  0  0  0  0
    0.5222    2.0131   -1.6946 N   0  0  0  0  0  0  0  0  0  0  0  0
    1.4324    2.7569   -2.2737 C   0  0  0  0  0  0  0  0  0  0  0  0
    1.4086    3.8417   -2.3264 H   0  0  0  0  0  0  0  0  0  0  0  0
    2.4235    1.9533   -2.8013 N   0  0  0  0  0  0  0  0  0  0  0  0
    3.2403    2.2844   -3.3114 H   0  0  0  0  0  0  0  0  0  0  0  0
    2.0968    0.6406   -2.5346 C   0  0  0  0  0  0  0  0  0  0  0  0
    2.6478   -0.2549   -2.8069 H   0  0  0  0  0  0  0  0  0  0  0  0
   -0.7615    0.8500    0.6449 C   0  0  0  0  0  0  0  0  0  0  0  0
   -1.9208    1.2402    0.5174 O   0  0  0  0  0  0  0  0  0  0  0  0
    0.0655    1.5016    1.5436 N   0  0  0  0  0  0  0  0  0  0  0  0
    1.0312    1.1911    1.5804 H   0  0  0  0  0  0  0  0  0  0  0  0
   -0.2741    2.7889    2.1359 C   0  0  0  0  0  0  0  0  0  0  0  0
   -1.2142    2.7204    2.6933 H   0  0  0  0  0  0  0  0  0  0  0  0
    0.5124    3.1054    2.8274 H   0  0  0  0  0  0  0  0  0  0  0  0
   -0.3808    3.5504    1.3563 H   0  0  0  0  0  0  0  0  0  0  0  0
  1  2  1  0  0  0  0
  2  3  1  0  0  0  0
  2  4  1  0  0  0  0
  2  5  1  0  0  0  0
  5  6  2  0  0  0  0
  5  7  1  0  0  0  0
  7  8  1  0  0  0  0
  7  9  1  0  0  0  0
  9 10  1  0  0  0  0
  9 11  1  0  0  0  0
  9 22  1  0  0  0  0
 11 12  1  0  0  0  0
 11 13  1  0  0  0  0
 11 14  1  0  0  0  0
 14 15  1  0  0  0  0
 14 20  2  0  0  0  0
 15 16  2  0  0  0  0
 16 17  1  0  0  0  0
 16 18  1  0  0  0  0
 18 19  1  0  0  0  0
 18 20  1  0  0  0  0
 20 21  1  0  0  0  0
 22 23  2  0  0  0  0
 22 24  1  0  0  0  0
 24 25  1  0  0  0  0
 24 26  1  0  0  0  0
 26 27  1  0  0  0  0
 26 28  1  0  0  0  0
 26 29  1  0  0  0  0
M  END
$$$$

  -OEChem-04042215593D

 29 29  0     1  0  0  0  0  0999 V2000
   -2.6528   -4.4330    1.1682 H   0  0  0  0  0  0  0  0  0  0  0  0
   -2.8400   -3.4209    0.7990 C   0  0  0  0  0  0  0  0  0  0  0  0
   -3.4389   -2.8819    1.5371 H   0  0  0  0  0  0  0  0  0  0  0  0
   -3.3991   -3.4845   -0.1376 H   0  0  0  0  0  0  0  0  0  0  0  0
   -1.5268   -2.6971    0.5696 C   0  0  0  0  0  0  0  0  0  0  0  0
   -0.4683   -3.2739    0.7647 O   0  0  0  0  0  0  0  0  0  0  0  0
   -1.5327   -1.3905    0.1330 N   0  0  0  0  0  0  0  0  0  0  0  0
   -2.4320   -0.9090    0.1146 H   0  0  0  0  0  0  0  0  0  0  0  0
   -0.3427   -0.5279    0.0901 C   0  0  1  0  0  0  0  0  0  0  0  0
    0.4432   -0.9171    0.7458 H   0  0  0  0  0  0  0  0  0  0  0  0
    0.1959   -0.5283   -1.3619 C   0  0  0  0  0  0  0  0  0  0  0  0
    0.8361   -1.4056   -1.4930 H   0  0  0  0  0  0  0  0  0  0  0  0
   -0.6603   -0.6511   -2.0319 H   0  0  0  0  0  0  0  0  0  0  0  0
    0.9184    0.7011   -1.8594 C   0  0  0  0  0  0  0  0  0  0  0  0
    0.7342    2.0270   -1.4866 N   0  0  0  0  0  0  0  0  0  0  0  0
    1.5852    2.7475   -2.1752 C   0  0  0  0  0  0  0  0  0  0  0  0
    1.6812    3.8277   -2.1114 H   0  0  0  0  0  0  0  0  0  0  0  0
    2.3412    1.9253   -2.9859 N   0  0  0  0  0  0  0  0  0  0  0  0
    3.0712    2.2372   -3.6238 H   0  0  0  0  0  0  0  0  0  0  0  0
    1.9234    0.6271   -2.7854 C   0  0  0  0  0  0  0  0  0  0  0  0
    2.2979   -0.2761   -3.2584 H   0  0  0  0  0  0  0  0  0  0  0  0
   -0.7656    0.8444    0.6726 C   0  0  0  0  0  0  0  0  0  0  0  0
   -1.9237    1.2341    0.5286 O   0  0  0  0  0  0  0  0  0  0  0  0
    0.0496    1.4917    1.5848 N   0  0  0  0  0  0  0  0  0  0  0  0
    1.0244    1.2078    1.5941 H   0  0  0  0  0  0  0  0  0  0  0  0
   -0.2993    2.7799    2.1695 C   0  0  0  0  0  0  0  0  0  0  0  0
   -1.2393    2.7072    2.7265 H   0  0  0  0  0  0  0  0  0  0  0  0
    0.4845    3.1057    2.8598 H   0  0  0  0  0  0  0  0  0  0  0  0
   -0.4107    3.5366    1.3858 H   0  0  0  0  0  0  0  0  0  0  0  0
  1  2  1  0  0  0  0
  2  3  1  0  0  0  0
  2  4  1  0  0  0  0
  2  5  1  0  0  0  0
  5  6  2  0  0  0  0
  5  7  1  0  0  0  0
  7  8  1  0  0  0  0
  7  9  1  0  0  0  0
  9 10  1  0  0  0  0
  9 11  1  0  0  0  0
  9 22  1  0  0  0  0
 11 12  1  0  0  0  0
 11 13  1  0  0  0  0
 11 14  1  0  0  0  0
 14 15  1  0  0  0  0
 14 20  2  0  0  0  0
 15 16  2  0  0  0  0
 16 17  1  0  0  0  0
 16 18  1  0  0  0  0
 18 19  1  0  0  0  0
 18 20  1  0  0  0  0
 20 21  1  0  0  0  0
 22 23  2  0  0  0  0
 22 24  1  0  0  0  0
 24 25  1  0  0  0  0
 24 26  1  0  0  0  0
 26 27  1  0  0  0  0
 26 28  1  0  0  0  0
 26 29  1  0  0  0  0
M  END
$$$$

  -OEChem-04042215593D

 29 29  0     1  0  0  0  0  0999 V2000
   -2.6680   -4.4256    1.1594 H   0  0  0  0  0  0  0  0  0  0  0  0
   -2.8472   -3.4132    0.7869 C   0  0  0  0  0  0  0  0  0  0  0  0
   -3.4467   -2.8691    1.5209 H   0  0  0  0  0  0  0  0  0  0  0  0
   -3.4017   -3.4758   -0.1525 H   0  0  0  0  0  0  0  0  0  0  0  0
   -1.5283   -2.6977    0.5619 C   0  0  0  0  0  0  0  0  0  0  0  0
   -0.4746   -3.2833    0.7562 O   0  0  0  0  0  0  0  0  0  0  0  0
   -1.5240   -1.3890    0.1306 N   0  0  0  0  0  0  0  0  0  0  0  0
   -2.4196   -0.9005    0.1175 H   0  0  0  0  0  0  0  0  0  0  0  0
   -0.3276   -0.5338    0.1002 C   0  0  1  0  0  0  0  0  0  0  0  0
    0.4571   -0.9287    0.7537 H   0  0  0  0  0  0  0  0  0  0  0  0
    0.2045   -0.5232   -1.3546 C   0  0  0  0  0  0  0  0  0  0  0  0
    0.8426   -1.4012   -1.4920 H   0  0  0  0  0  0  0  0  0  0  0  0
   -0.6539   -0.6397   -2.0229 H   0  0  0  0  0  0  0  0  0  0  0  0
    0.9370    0.7004   -1.8522 C   0  0  0  0  0  0  0  0  0  0  0  0
    0.9899    1.9750   -1.2998 N   0  0  0  0  0  0  0  0  0  0  0  0
    1.7452    2.7070   -2.0819 C   0  0  0  0  0  0  0  0  0  0  0  0
    1.9733    3.7570   -1.9217 H   0  0  0  0  0  0  0  0  0  0  0  0
    2.2082    1.9407   -3.1320 N   0  0  0  0  0  0  0  0  0  0  0  0
    2.8138    2.2720   -3.8808 H   0  0  0  0  0  0  0  0  0  0  0  0
    1.6999    0.6675   -2.9877 C   0  0  0  0  0  0  0  0  0  0  0  0
    1.8552   -0.1919   -3.6334 H   0  0  0  0  0  0  0  0  0  0  0  0
   -0.7580    0.8349    0.6873 C   0  0  0  0  0  0  0  0  0  0  0  0
   -1.9093    1.2338    0.5148 O   0  0  0  0  0  0  0  0  0  0  0  0
    0.0444    1.4797    1.6124 N   0  0  0  0  0  0  0  0  0  0  0  0
    1.0246    1.2137    1.6044 H   0  0  0  0  0  0  0  0  0  0  0  0
   -0.3076    2.7735    2.1826 C   0  0  0  0  0  0  0  0  0  0  0  0
   -1.2616    2.7119    2.7168 H   0  0  0  0  0  0  0  0  0  0  0  0
    0.4619    3.0950    2.8908 H   0  0  0  0  0  0  0  0  0  0  0  0
   -0.3923    3.5279    1.3933 H   0  0  0  0  0  0  0  0  0  0  0  0
  1  2  1  0  0  0  0
  2  3  1  0  0  0  0
  2  4  1  0  0  0  0
  2  5  1  0  0  0  0
  5  6  2  0  0  0  0
  5  7  1  0  0  0  0
  7  8  1  0  0  0  0
  7  9  1  0  0  0  0
  9 10  1  0  0  0  0
  9 11  1  0  0  0  0
  9 22  1  0  0  0  0
 11 12  1  0  0  0  0
 11 13  1  0  0  0  0
 11 14  1  0  0  0  0
 14 15  1  0  0  0  0
 14 20  2  0  0  0  0
 15 16  2  0  0  0  0
 16 17  1  0  0  0  0
 16 18  1  0  0  0  0
 18 19  1  0  0  0  0
 18 20  1  0  0  0  0
 20 21  1  0  0  0  0
 22 23  2  0  0  0  0
 22 24  1  0  0  0  0
 24 25  1  0  0  0  0
 24 26  1  0  0  0  0
 26 27  1  0  0  0  0
 26 28  1  0  0  0  0
 26 29  1  0  0  0  0
M  END
$$$$

  -OEChem-04042215593D

 29 29  0     1  0  0  0  0  0999 V2000
   -2.7000   -4.4097    1.1694 H   0  0  0  0  0  0  0  0  0  0  0  0
   -2.8654   -3.3987    0.7867 C   0  0  0  0  0  0  0  0  0  0  0  0
   -3.4660   -2.8422    1.5103 H   0  0  0  0  0  0  0  0  0  0  0  0
   -3.4119   -3.4641   -0.1571 H   0  0  0  0  0  0  0  0  0  0  0  0
   -1.5372   -2.6990    0.5678 C   0  0  0  0  0  0  0  0  0  0  0  0
   -0.4918   -3.2943    0.7758 O   0  0  0  0  0  0  0  0  0  0  0  0
   -1.5157   -1.3935    0.1277 N   0  0  0  0  0  0  0  0  0  0  0  0
   -2.4062   -0.8963    0.1040 H   0  0  0  0  0  0  0  0  0  0  0  0
   -0.3098   -0.5515    0.1015 C   0  0  1  0  0  0  0  0  0  0  0  0
    0.4718   -0.9497    0.7573 H   0  0  0  0  0  0  0  0  0  0  0  0
    0.2162   -0.5422   -1.3551 C   0  0  0  0  0  0  0  0  0  0  0  0
    0.8582   -1.4178   -1.4872 H   0  0  0  0  0  0  0  0  0  0  0  0
   -0.6384   -0.6634   -2.0277 H   0  0  0  0  0  0  0  0  0  0  0  0
    0.9603    0.6766   -1.8442 C   0  0  0  0  0  0  0  0  0  0  0  0
    1.2617    1.8455   -1.1534 N   0  0  0  0  0  0  0  0  0  0  0  0
    1.8989    2.6321   -1.9866 C   0  0  0  0  0  0  0  0  0  0  0  0
    2.2650    3.6262   -1.7466 H   0  0  0  0  0  0  0  0  0  0  0  0
    2.0359    2.0057   -3.2088 N   0  0  0  0  0  0  0  0  0  0  0  0
    2.4890    2.4060   -4.0283 H   0  0  0  0  0  0  0  0  0  0  0  0
    1.4412    0.7653   -3.1219 C   0  0  0  0  0  0  0  0  0  0  0  0
    1.3554    0.0081   -3.8958 H   0  0  0  0  0  0  0  0  0  0  0  0
   -0.7383    0.8234    0.6773 C   0  0  0  0  0  0  0  0  0  0  0  0
   -1.8792    1.2370    0.4728 O   0  0  0  0  0  0  0  0  0  0  0  0
    0.0549    1.4717    1.6073 N   0  0  0  0  0  0  0  0  0  0  0  0
    1.0376    1.2132    1.5921 H   0  0  0  0  0  0  0  0  0  0  0  0
   -0.2967    2.7739    2.1586 C   0  0  0  0  0  0  0  0  0  0  0  0
   -1.2647    2.7277    2.6686 H   0  0  0  0  0  0  0  0  0  0  0  0
    0.4583    3.0924    2.8836 H   0  0  0  0  0  0  0  0  0  0  0  0
   -0.3524    3.5230    1.3619 H   0  0  0  0  0  0  0  0  0  0  0  0
  1  2  1  0  0  0  0
  2  3  1  0  0  0  0
  2  4  1  0  0  0  0
  2  5  1  0  0  0  0
  5  6  2  0  0  0  0
  5  7  1  0  0  0  0
  7  8  1  0  0  0  0
  7  9  1  0  0  0  0
  9 10  1  0  0  0  0
  9 11  1  0  0  0  0
  9 22  1  0  0  0  0
 11 12  1  0  0  0  0
 11 13  1  0  0  0  0
 11 14  1  0  0  0  0
 14 15  1  0  0  0  0
 14 20  2  0  0  0  0
 15 16  2  0  0  0  0
 16 17  1  0  0  0  0
 16 18  1  0  0  0  0
 18 19  1  0  0  0  0
 18 20  1  0  0  0  0
 20 21  1  0  0  0  0
 22 23  2  0  0  0  0
 22 24  1  0  0  0  0
 24 25  1  0  0  0  0
 24 26  1  0  0  0  0
 26 27  1  0  0  0  0
 26 28  1  0  0  0  0
 26 29  1  0  0  0  0
M  END
$$$$

  -OEChem-04042215593D

 29 29  0     1  0  0  0  0  0999 V2000
   -2.7318   -4.3934    1.2113 H   0  0  0  0  0  0  0  0  0  0  0  0
   -2.8839   -3.3882    0.8084 C   0  0  0  0  0  0  0  0  0  0  0  0
   -3.4853   -2.8123    1.5159 H   0  0  0  0  0  0  0  0  0  0  0  0
   -3.4229   -3.4656   -0.1387 H   0  0  0  0  0  0  0  0  0  0  0  0
   -1.5473   -2.7055    0.5879 C   0  0  0  0  0  0  0  0  0  0  0  0
   -0.5093   -3.3074    0.8123 O   0  0  0  0  0  0  0  0  0  0  0  0
   -1.5112   -1.4082    0.1254 N   0  0  0  0  0  0  0  0  0  0  0  0
   -2.3974   -0.9047    0.0845 H   0  0  0  0  0  0  0  0  0  0  0  0
   -0.2979   -0.5775    0.0885 C   0  0  1  0  0  0  0  0  0  0  0  0
    0.4831   -0.9722    0.7472 H   0  0  0  0  0  0  0  0  0  0  0  0
    0.2201   -0.5799   -1.3694 C   0  0  0  0  0  0  0  0  0  0  0  0
    0.8693   -1.4516   -1.4912 H   0  0  0  0  0  0  0  0  0  0  0  0
   -0.6307   -0.7119   -2.0446 H   0  0  0  0  0  0  0  0  0  0  0  0
    0.9691    0.6399   -1.8449 C   0  0  0  0  0  0  0  0  0  0  0  0
    1.5122    1.6573   -1.0662 N   0  0  0  0  0  0  0  0  0  0  0  0
    2.0303    2.5340   -1.8927 C   0  0  0  0  0  0  0  0  0  0  0  0
    2.5288    3.4517   -1.5935 H   0  0  0  0  0  0  0  0  0  0  0  0
    1.8471    2.1162   -3.1958 N   0  0  0  0  0  0  0  0  0  0  0  0
    2.1483    2.6251   -4.0249 H   0  0  0  0  0  0  0  0  0  0  0  0
    1.1690    0.9165   -3.1693 C   0  0  0  0  0  0  0  0  0  0  0  0
    0.8438    0.3112   -4.0105 H   0  0  0  0  0  0  0  0  0  0  0  0
   -0.7165    0.8105    0.6389 C   0  0  0  0  0  0  0  0  0  0  0  0
   -1.8462    1.2391    0.4060 O   0  0  0  0  0  0  0  0  0  0  0  0
    0.0780    1.4686    1.5599 N   0  0  0  0  0  0  0  0  0  0  0  0
    1.0610    1.2092    1.5369 H   0  0  0  0  0  0  0  0  0  0  0  0
   -0.2637    2.7826    2.0879 C   0  0  0  0  0  0  0  0  0  0  0  0
   -1.2408    2.7571    2.5814 H   0  0  0  0  0  0  0  0  0  0  0  0
    0.4827    3.0982    2.8230 H   0  0  0  0  0  0  0  0  0  0  0  0
   -0.2943    3.5222    1.2810 H   0  0  0  0  0  0  0  0  0  0  0  0
  1  2  1  0  0  0  0
  2  3  1  0  0  0  0
  2  4  1  0  0  0  0
  2  5  1  0  0  0  0
  5  6  2  0  0  0  0
  5  7  1  0  0  0  0
  7  8  1  0  0  0  0
  7  9  1  0  0  0  0
  9 10  1  0  0  0  0
  9 11  1  0  0  0  0
  9 22  1  0  0  0  0
 11 12  1  0  0  0  0
 11 13  1  0  0  0  0
 11 14  1  0  0  0  0
 14 15  1  0  0  0  0
 14 20  2  0  0  0  0
 15 16  2  0  0  0  0
 16 17  1  0  0  0  0
 16 18  1  0  0  0  0
 18 19  1  0  0  0  0
 18 20  1  0  0  0  0
 20 21  1  0  0  0  0
 22 23  2  0  0  0  0
 22 24  1  0  0  0  0
 24 25  1  0  0  0  0
 24 26  1  0  0  0  0
 26 27  1  0  0  0  0
 26 28  1  0  0  0  0
 26 29  1  0  0  0  0
M  END
$$$$

  -OEChem-04042215593D

 29 29  0     1  0  0  0  0  0999 V2000
   -2.7396   -4.3927    1.2732 H   0  0  0  0  0  0  0  0  0  0  0  0
   -2.8918   -3.3955    0.8510 C   0  0  0  0  0  0  0  0  0  0  0  0
   -3.4862   -2.8038    1.5515 H   0  0  0  0  0  0  0  0  0  0  0  0
   -3.4380   -3.4906   -0.0905 H   0  0  0  0  0  0  0  0  0  0  0  0
   -1.5544   -2.7215    0.6079 C   0  0  0  0  0  0  0  0  0  0  0  0
   -0.5172   -3.3217    0.8400 O   0  0  0  0  0  0  0  0  0  0  0  0
   -1.5181   -1.4325    0.1221 N   0  0  0  0  0  0  0  0  0  0  0  0
   -2.4040   -0.9299    0.0746 H   0  0  0  0  0  0  0  0  0  0  0  0
   -0.3035   -0.6055    0.0590 C   0  0  1  0  0  0  0  0  0  0  0  0
    0.4828   -0.9946    0.7148 H   0  0  0  0  0  0  0  0  0  0  0  0
    0.2028   -0.6164   -1.4012 C   0  0  0  0  0  0  0  0  0  0  0  0
    0.8614   -1.4810   -1.5233 H   0  0  0  0  0  0  0  0  0  0  0  0
   -0.6477   -0.7551   -2.0754 H   0  0  0  0  0  0  0  0  0  0  0  0
    0.9426    0.6163   -1.8521 C   0  0  0  0  0  0  0  0  0  0  0  0
    1.7105    1.4488   -1.0425 N   0  0  0  0  0  0  0  0  0  0  0  0
    2.1371    2.4258   -1.8072 C   0  0  0  0  0  0  0  0  0  0  0  0
    2.7630    3.2481   -1.4723 H   0  0  0  0  0  0  0  0  0  0  0  0
    1.6714    2.2543   -3.0962 N   0  0  0  0  0  0  0  0  0  0  0  0
    1.8524    2.8842   -3.8759 H   0  0  0  0  0  0  0  0  0  0  0  0
    0.9063    1.1081   -3.1272 C   0  0  0  0  0  0  0  0  0  0  0  0
    0.3718    0.6800   -3.9703 H   0  0  0  0  0  0  0  0  0  0  0  0
   -0.7026    0.7967    0.5863 C   0  0  0  0  0  0  0  0  0  0  0  0
   -1.8230    1.2397    0.3381 O   0  0  0  0  0  0  0  0  0  0  0  0
    0.1060    1.4681    1.4845 N   0  0  0  0  0  0  0  0  0  0  0  0
    1.0861    1.1951    1.4586 H   0  0  0  0  0  0  0  0  0  0  0  0
   -0.2143    2.8011    1.9773 C   0  0  0  0  0  0  0  0  0  0  0  0
   -1.1909    2.8042    2.4728 H   0  0  0  0  0  0  0  0  0  0  0  0
    0.5388    3.1255    2.7016 H   0  0  0  0  0  0  0  0  0  0  0  0
   -0.2357    3.5183    1.1504 H   0  0  0  0  0  0  0  0  0  0  0  0
  1  2  1  0  0  0  0
  2  3  1  0  0  0  0
  2  4  1  0  0  0  0
  2  5  1  0  0  0  0
  5  6  2  0  0  0  0
  5  7  1  0  0  0  0
  7  8  1  0  0  0  0
  7  9  1  0  0  0  0
  9 10  1  0  0  0  0
  9 11  1  0  0  0  0
  9 22  1  0  0  0  0
 11 12  1  0  0  0  0
 11 13  1  0  0  0  0
 11 14  1  0  0  0  0
 14 15  1  0  0  0  0
 14 20  2  0  0  0  0
 15 16  2  0  0  0  0
 16 17  1  0  0  0  0
 16 18  1  0  0  0  0
 18 19  1  0  0  0  0
 18 20  1  0  0  0  0
 20 21  1  0  0  0  0
 22 23  2  0  0  0  0
 22 24  1  0  0  0  0
 24 25  1  0  0  0  0
 24 26  1  0  0  0  0
 26 27  1  0  0  0  0
 26 28  1  0  0  0  0
 26 29  1  0  0  0  0
M  END
$$$$

  -OEChem-04042215593D

 29 29  0     1  0  0  0  0  0999 V2000
   -2.7216   -4.4075    1.3250 H   0  0  0  0  0  0  0  0  0  0  0  0
   -2.8852   -3.4163    0.8927 C   0  0  0  0  0  0  0  0  0  0  0  0
   -3.4734   -2.8192    1.5939 H   0  0  0  0  0  0  0  0  0  0  0  0
   -3.4432   -3.5263   -0.0402 H   0  0  0  0  0  0  0  0  0  0  0  0
   -1.5552   -2.7374    0.6244 C   0  0  0  0  0  0  0  0  0  0  0  0
   -0.5123   -3.3260    0.8594 O   0  0  0  0  0  0  0  0  0  0  0  0
   -1.5328   -1.4555    0.1191 N   0  0  0  0  0  0  0  0  0  0  0  0
   -2.4233   -0.9621    0.0670 H   0  0  0  0  0  0  0  0  0  0  0  0
   -0.3245   -0.6228    0.0248 C   0  0  1  0  0  0  0  0  0  0  0  0
    0.4716   -1.0020    0.6744 H   0  0  0  0  0  0  0  0  0  0  0  0
    0.1736   -0.6384   -1.4358 C   0  0  0  0  0  0  0  0  0  0  0  0
    0.8443   -1.4925   -1.5659 H   0  0  0  0  0  0  0  0  0  0  0  0
   -0.6773   -0.7811   -2.1084 H   0  0  0  0  0  0  0  0  0  0  0  0
    0.8920    0.6154   -1.8542 C   0  0  0  0  0  0  0  0  0  0  0  0
    1.8602    1.2570   -1.0868 N   0  0  0  0  0  0  0  0  0  0  0  0
    2.2245    2.3195   -1.7653 C   0  0  0  0  0  0  0  0  0  0  0  0
    2.9695    3.0391   -1.4380 H   0  0  0  0  0  0  0  0  0  0  0  0
    1.5204    2.3889   -2.9523 N   0  0  0  0  0  0  0  0  0  0  0  0
    1.6129    3.1259   -3.6490 H   0  0  0  0  0  0  0  0  0  0  0  0
    0.6677    1.3073   -3.0109 C   0  0  0  0  0  0  0  0  0  0  0  0
   -0.0435    1.0524   -3.7911 H   0  0  0  0  0  0  0  0  0  0  0  0
   -0.7036    0.7903    0.5334 C   0  0  0  0  0  0  0  0  0  0  0  0
   -1.8183    1.2445    0.2829 O   0  0  0  0  0  0  0  0  0  0  0  0
    0.1279    1.4709    1.4026 N   0  0  0  0  0  0  0  0  0  0  0  0
    1.1013    1.1719    1.3853 H   0  0  0  0  0  0  0  0  0  0  0  0
   -0.1640    2.8191    1.8705 C   0  0  0  0  0  0  0  0  0  0  0  0
   -1.1288    2.8463    2.3878 H   0  0  0  0  0  0  0  0  0  0  0  0
    0.6096    3.1504    2.5698 H   0  0  0  0  0  0  0  0  0  0  0  0
   -0.1951    3.5169    1.0273 H   0  0  0  0  0  0  0  0  0  0  0  0
  1  2  1  0  0  0  0
  2  3  1  0  0  0  0
  2  4  1  0  0  0  0
  2  5  1  0  0  0  0
  5  6  2  0  0  0  0
  5  7  1  0  0  0  0
  7  8  1  0  0  0  0
  7  9  1  0  0  0  0
  9 10  1  0  0  0  0
  9 11  1  0  0  0  0
  9 22  1  0  0  0  0
 11 12  1  0  0  0  0
 11 13  1  0  0  0  0
 11 14  1  0  0  0  0
 14 15  1  0  0  0  0
 14 20  2  0  0  0  0
 15 16  2  0  0  0  0
 16 17  1  0  0  0  0
 16 18  1  0  0  0  0
 18 19  1  0  0  0  0
 18 20  1  0  0  0  0
 20 21  1  0  0  0  0
 22 23  2  0  0  0  0
 22 24  1  0  0  0  0
 24 25  1  0  0  0  0
 24 26  1  0  0  0  0
 26 27  1  0  0  0  0
 26 28  1  0  0  0  0
 26 29  1  0  0  0  0
M  END
$$$$

  -OEChem-04042215593D

 29 29  0     1  0  0  0  0  0999 V2000
   -2.6975   -4.4313    1.3406 H   0  0  0  0  0  0  0  0  0  0  0  0
   -2.8746   -3.4441    0.9047 C   0  0  0  0  0  0  0  0  0  0  0  0
   -3.4715   -2.8532    1.6037 H   0  0  0  0  0  0  0  0  0  0  0  0
   -3.4305   -3.5647   -0.0281 H   0  0  0  0  0  0  0  0  0  0  0  0
   -1.5538   -2.7485    0.6337 C   0  0  0  0  0  0  0  0  0  0  0  0
   -0.5036   -3.3221    0.8726 O   0  0  0  0  0  0  0  0  0  0  0  0
   -1.5488   -1.4686    0.1222 N   0  0  0  0  0  0  0  0  0  0  0  0
   -2.4461   -0.9896    0.0614 H   0  0  0  0  0  0  0  0  0  0  0  0
   -0.3507   -0.6245    0.0071 C   0  0  1  0  0  0  0  0  0  0  0  0
    0.4519   -0.9983    0.6521 H   0  0  0  0  0  0  0  0  0  0  0  0
    0.1481   -0.6437   -1.4518 C   0  0  0  0  0  0  0  0  0  0  0  0
    0.8310   -1.4869   -1.5890 H   0  0  0  0  0  0  0  0  0  0  0  0
   -0.7017   -0.7923   -2.1244 H   0  0  0  0  0  0  0  0  0  0  0  0
    0.8419    0.6301   -1.8444 C   0  0  0  0  0  0  0  0  0  0  0  0
    1.9818    1.1078   -1.2066 N   0  0  0  0  0  0  0  0  0  0  0  0
    2.2933    2.2325   -1.8066 C   0  0  0  0  0  0  0  0  0  0  0  0
    3.1399    2.8609   -1.5451 H   0  0  0  0  0  0  0  0  0  0  0  0
    1.3870    2.4995   -2.8155 N   0  0  0  0  0  0  0  0  0  0  0  0
    1.4062    3.3169   -3.4226 H   0  0  0  0  0  0  0  0  0  0  0  0
    0.4594    1.4799   -2.8432 C   0  0  0  0  0  0  0  0  0  0  0  0
   -0.3996    1.3666   -3.4984 H   0  0  0  0  0  0  0  0  0  0  0  0
   -0.7109    0.7944    0.5086 C   0  0  0  0  0  0  0  0  0  0  0  0
   -1.8176    1.2641    0.2542 O   0  0  0  0  0  0  0  0  0  0  0  0
    0.1432    1.4754    1.3551 N   0  0  0  0  0  0  0  0  0  0  0  0
    1.1048    1.1406    1.3657 H   0  0  0  0  0  0  0  0  0  0  0  0
   -0.1165    2.8356    1.8065 C   0  0  0  0  0  0  0  0  0  0  0  0
   -1.0808    2.8921    2.3224 H   0  0  0  0  0  0  0  0  0  0  0  0
    0.6642    3.1567    2.5026 H   0  0  0  0  0  0  0  0  0  0  0  0
   -0.1300    3.5236    0.9550 H   0  0  0  0  0  0  0  0  0  0  0  0
  1  2  1  0  0  0  0
  2  3  1  0  0  0  0
  2  4  1  0  0  0  0
  2  5  1  0  0  0  0
  5  6  2  0  0  0  0
  5  7  1  0  0  0  0
  7  8  1  0  0  0  0
  7  9  1  0  0  0  0
  9 10  1  0  0  0  0
  9 11  1  0  0  0  0
  9 22  1  0  0  0  0
 11 12  1  0  0  0  0
 11 13  1  0  0  0  0
 11 14  1  0  0  0  0
 14 15  1  0  0  0  0
 14 20  2  0  0  0  0
 15 16  2  0  0  0  0
 16 17  1  0  0  0  0
 16 18  1  0  0  0  0
 18 19  1  0  0  0  0
 18 20  1  0  0  0  0
 20 21  1  0  0  0  0
 22 23  2  0  0  0  0
 22 24  1  0  0  0  0
 24 25  1  0  0  0  0
 24 26  1  0  0  0  0
 26 27  1  0  0  0  0
 26 28  1  0  0  0  0
 26 29  1  0  0  0  0
M  END
$$$$

  -OEChem-04042215593D

 29 29  0     1  0  0  0  0  0999 V2000
   -2.6824   -4.4530    1.3184 H   0  0  0  0  0  0  0  0  0  0  0  0
   -2.8668   -3.4645    0.8885 C   0  0  0  0  0  0  0  0  0  0  0  0
   -3.4796   -2.8866    1.5845 H   0  0  0  0  0  0  0  0  0  0  0  0
   -3.4101   -3.5849   -0.0518 H   0  0  0  0  0  0  0  0  0  0  0  0
   -1.5519   -2.7500    0.6391 C   0  0  0  0  0  0  0  0  0  0  0  0
   -0.4978   -3.3097    0.8922 O   0  0  0  0  0  0  0  0  0  0  0  0
   -1.5569   -1.4686    0.1313 N   0  0  0  0  0  0  0  0  0  0  0  0
   -2.4595   -1.0026    0.0540 H   0  0  0  0  0  0  0  0  0  0  0  0
   -0.3661   -0.6153    0.0115 C   0  0  1  0  0  0  0  0  0  0  0  0
    0.4400   -0.9875    0.6532 H   0  0  0  0  0  0  0  0  0  0  0  0
    0.1331   -0.6340   -1.4467 C   0  0  0  0  0  0  0  0  0  0  0  0
    0.8203   -1.4730   -1.5902 H   0  0  0  0  0  0  0  0  0  0  0  0
   -0.7178   -0.7839   -2.1176 H   0  0  0  0  0  0  0  0  0  0  0  0
    0.8128    0.6481   -1.8332 C   0  0  0  0  0  0  0  0  0  0  0  0
    2.0906    0.9905   -1.4103 N   0  0  0  0  0  0  0  0  0  0  0  0
    2.3555    2.1566   -1.9507 C   0  0  0  0  0  0  0  0  0  0  0  0
    3.2827    2.7061   -1.8158 H   0  0  0  0  0  0  0  0  0  0  0  0
    1.2835    2.5812   -2.7133 N   0  0  0  0  0  0  0  0  0  0  0  0
    1.2398    3.4564   -3.2321 H   0  0  0  0  0  0  0  0  0  0  0  0
    0.2986    1.6194   -2.6447 C   0  0  0  0  0  0  0  0  0  0  0  0
   -0.6813    1.6206   -3.1135 H   0  0  0  0  0  0  0  0  0  0  0  0
   -0.7175    0.8035    0.5150 C   0  0  0  0  0  0  0  0  0  0  0  0
   -1.8148    1.2876    0.2495 O   0  0  0  0  0  0  0  0  0  0  0  0
    0.1470    1.4811    1.3538 N   0  0  0  0  0  0  0  0  0  0  0  0
    1.0935    1.1113    1.4132 H   0  0  0  0  0  0  0  0  0  0  0  0
   -0.0949    2.8444    1.8062 C   0  0  0  0  0  0  0  0  0  0  0  0
   -1.0618    2.9153    2.3155 H   0  0  0  0  0  0  0  0  0  0  0  0
    0.6856    3.1520    2.5087 H   0  0  0  0  0  0  0  0  0  0  0  0
   -0.0913    3.5345    0.9561 H   0  0  0  0  0  0  0  0  0  0  0  0
  1  2  1  0  0  0  0
  2  3  1  0  0  0  0
  2  4  1  0  0  0  0
  2  5  1  0  0  0  0
  5  6  2  0  0  0  0
  5  7  1  0  0  0  0
  7  8  1  0  0  0  0
  7  9  1  0  0  0  0
  9 10  1  0  0  0  0
  9 11  1  0  0  0  0
  9 22  1  0  0  0  0
 11 12  1  0  0  0  0
 11 13  1  0  0  0  0
 11 14  1  0  0  0  0
 14 15  1  0  0  0  0
 14 20  2  0  0  0  0
 15 16  2  0  0  0  0
 16 17  1  0  0  0  0
 16 18  1  0  0  0  0
 18 19  1  0  0  0  0
 18 20  1  0  0  0  0
 20 21  1  0  0  0  0
 22 23  2  0  0  0  0
 22 24  1  0  0  0  0
 24 25  1  0  0  0  0
 24 26  1  0  0  0  0
 26 27  1  0  0  0  0
 26 28  1  0  0  0  0
 26 29  1  0  0  0  0
M  END
$$$$

  -OEChem-04042215593D

 29 29  0     1  0  0  0  0  0999 V2000
   -2.6751   -4.4675    1.2833 H   0  0  0  0  0  0  0  0  0  0  0  0
   -2.8623   -3.4743    0.8654 C   0  0  0  0  0  0  0  0  0  0  0  0
   -3.4868   -2.9108    1.5627 H   0  0  0  0  0  0  0  0  0  0  0  0
   -3.3944   -3.5858   -0.0825 H   0  0  0  0  0  0  0  0  0  0  0  0
   -1.5503   -2.7463    0.6407 C   0  0  0  0  0  0  0  0  0  0  0  0
   -0.4949   -3.2972    0.9072 O   0  0  0  0  0  0  0  0  0  0  0  0
   -1.5590   -1.4607    0.1431 N   0  0  0  0  0  0  0  0  0  0  0  0
   -2.4644   -1.0034    0.0496 H   0  0  0  0  0  0  0  0  0  0  0  0
   -0.3711   -0.6024    0.0287 C   0  0  1  0  0  0  0  0  0  0  0  0
    0.4366   -0.9776    0.6662 H   0  0  0  0  0  0  0  0  0  0  0  0
    0.1262   -0.6144   -1.4312 C   0  0  0  0  0  0  0  0  0  0  0  0
    0.8090   -1.4557   -1.5829 H   0  0  0  0  0  0  0  0  0  0  0  0
   -0.7282   -0.7597   -2.0987 H   0  0  0  0  0  0  0  0  0  0  0  0
    0.8038    0.6668   -1.8277 C   0  0  0  0  0  0  0  0  0  0  0  0
    2.1654    0.8901   -1.6773 N   0  0  0  0  0  0  0  0  0  0  0  0
    2.4001    2.0849   -2.1660 C   0  0  0  0  0  0  0  0  0  0  0  0
    3.3758    2.5614   -2.1974 H   0  0  0  0  0  0  0  0  0  0  0  0
    1.2261    2.6445   -2.6341 N   0  0  0  0  0  0  0  0  0  0  0  0
    1.1413    3.5650   -3.0614 H   0  0  0  0  0  0  0  0  0  0  0  0
    0.2074    1.7390   -2.4301 C   0  0  0  0  0  0  0  0  0  0  0  0
   -0.8466    1.8397   -2.6747 H   0  0  0  0  0  0  0  0  0  0  0  0
   -0.7227    0.8117    0.5425 C   0  0  0  0  0  0  0  0  0  0  0  0
   -1.8125    1.3052    0.2647 O   0  0  0  0  0  0  0  0  0  0  0  0
    0.1412    1.4860    1.3850 N   0  0  0  0  0  0  0  0  0  0  0  0
    1.0718    1.0902    1.4967 H   0  0  0  0  0  0  0  0  0  0  0  0
   -0.1025    2.8437    1.8531 C   0  0  0  0  0  0  0  0  0  0  0  0
   -1.0600    2.9018    2.3813 H   0  0  0  0  0  0  0  0  0  0  0  0
    0.6890    3.1531    2.5422 H   0  0  0  0  0  0  0  0  0  0  0  0
   -0.1212    3.5407    1.0089 H   0  0  0  0  0  0  0  0  0  0  0  0
  1  2  1  0  0  0  0
  2  3  1  0  0  0  0
  2  4  1  0  0  0  0
  2  5  1  0  0  0  0
  5  6  2  0  0  0  0
  5  7  1  0  0  0  0
  7  8  1  0  0  0  0
  7  9  1  0  0  0  0
  9 10  1  0  0  0  0
  9 11  1  0  0  0  0
  9 22  1  0  0  0  0
 11 12  1  0  0  0  0
 11 13  1  0  0  0  0
 11 14  1  0  0  0  0
 14 15  1  0  0  0  0
 14 20  2  0  0  0  0
 15 16  2  0  0  0  0
 16 17  1  0  0  0  0
 16 18  1  0  0  0  0
 18 19  1  0  0  0  0
 18 20  1  0  0  0  0
 20 21  1  0  0  0  0
 22 23  2  0  0  0  0
 22 24  1  0  0  0  0
 24 25  1  0  0  0  0
 24 26  1  0  0  0  0
 26 27  1  0  0  0  0
 26 28  1  0  0  0  0
 26 29  1  0  0  0  0
M  END
$$$$

  -OEChem-04042215593D

 29 29  0     1  0  0  0  0  0999 V2000
   -2.6665   -4.4765    1.2337 H   0  0  0  0  0  0  0  0  0  0  0  0
   -2.8558   -3.4764    0.8337 C   0  0  0  0  0  0  0  0  0  0  0  0
   -3.4947   -2.9321    1.5334 H   0  0  0  0  0  0  0  0  0  0  0  0
   -3.3737   -3.5726   -0.1235 H   0  0  0  0  0  0  0  0  0  0  0  0
   -1.5465   -2.7342    0.6426 C   0  0  0  0  0  0  0  0  0  0  0  0
   -0.4916   -3.2774    0.9269 O   0  0  0  0  0  0  0  0  0  0  0  0
   -1.5567   -1.4428    0.1599 N   0  0  0  0  0  0  0  0  0  0  0  0
   -2.4637   -0.9931    0.0471 H   0  0  0  0  0  0  0  0  0  0  0  0
   -0.3711   -0.5796    0.0562 C   0  0  1  0  0  0  0  0  0  0  0  0
    0.4361   -0.9592    0.6918 H   0  0  0  0  0  0  0  0  0  0  0  0
    0.1270   -0.5880   -1.4055 C   0  0  0  0  0  0  0  0  0  0  0  0
    0.8050   -1.4335   -1.5563 H   0  0  0  0  0  0  0  0  0  0  0  0
   -0.7287   -0.7339   -2.0710 H   0  0  0  0  0  0  0  0  0  0  0  0
    0.8072    0.6849   -1.8293 C   0  0  0  0  0  0  0  0  0  0  0  0
    2.1824    0.8014   -1.9766 N   0  0  0  0  0  0  0  0  0  0  0  0
    2.4081    2.0118   -2.4291 C   0  0  0  0  0  0  0  0  0  0  0  0
    3.3913    2.4190   -2.6477 H   0  0  0  0  0  0  0  0  0  0  0  0
    1.2131    2.6871   -2.5902 N   0  0  0  0  0  0  0  0  0  0  0  0
    1.1160    3.6388   -2.9391 H   0  0  0  0  0  0  0  0  0  0  0  0
    0.1897    1.8390   -2.2266 C   0  0  0  0  0  0  0  0  0  0  0  0
   -0.8813    2.0268   -2.2407 H   0  0  0  0  0  0  0  0  0  0  0  0
   -0.7285    0.8262    0.5861 C   0  0  0  0  0  0  0  0  0  0  0  0
   -1.8157    1.3241    0.3059 O   0  0  0  0  0  0  0  0  0  0  0  0
    0.1314    1.4938    1.4378 N   0  0  0  0  0  0  0  0  0  0  0  0
    1.0456    1.0765    1.5952 H   0  0  0  0  0  0  0  0  0  0  0  0
   -0.1288    2.8323    1.9506 C   0  0  0  0  0  0  0  0  0  0  0  0
   -1.0745    2.8549    2.5023 H   0  0  0  0  0  0  0  0  0  0  0  0
    0.6727    3.1382    2.6299 H   0  0  0  0  0  0  0  0  0  0  0  0
   -0.1819    3.5531    1.1281 H   0  0  0  0  0  0  0  0  0  0  0  0
  1  2  1  0  0  0  0
  2  3  1  0  0  0  0
  2  4  1  0  0  0  0
  2  5  1  0  0  0  0
  5  6  2  0  0  0  0
  5  7  1  0  0  0  0
  7  8  1  0  0  0  0
  7  9  1  0  0  0  0
  9 10  1  0  0  0  0
  9 11  1  0  0  0  0
  9 22  1  0  0  0  0
 11 12  1  0  0  0  0
 11 13  1  0  0  0  0
 11 14  1  0  0  0  0
 14 15  1  0  0  0  0
 14 20  2  0  0  0  0
 15 16  2  0  0  0  0
 16 17  1  0  0  0  0
 16 18  1  0  0  0  0
 18 19  1  0  0  0  0
 18 20  1  0  0  0  0
 20 21  1  0  0  0  0
 22 23  2  0  0  0  0
 22 24  1  0  0  0  0
 24 25  1  0  0  0  0
 24 26  1  0  0  0  0
 26 27  1  0  0  0  0
 26 28  1  0  0  0  0
 26 29  1  0  0  0  0
M  END
$$$$

  -OEChem-04042215593D

 29 29  0     1  0  0  0  0  0999 V2000
   -2.6514   -4.4841    1.1750 H   0  0  0  0  0  0  0  0  0  0  0  0
   -2.8441   -3.4766    0.7956 C   0  0  0  0  0  0  0  0  0  0  0  0
   -3.4973   -2.9546    1.4991 H   0  0  0  0  0  0  0  0  0  0  0  0
   -3.3481   -3.5544   -0.1708 H   0  0  0  0  0  0  0  0  0  0  0  0
   -1.5393   -2.7187    0.6384 C   0  0  0  0  0  0  0  0  0  0  0  0
   -0.4829   -3.2559    0.9283 O   0  0  0  0  0  0  0  0  0  0  0  0
   -1.5554   -1.4192    0.1782 N   0  0  0  0  0  0  0  0  0  0  0  0
   -2.4649   -0.9761    0.0596 H   0  0  0  0  0  0  0  0  0  0  0  0
   -0.3747   -0.5478    0.0900 C   0  0  1  0  0  0  0  0  0  0  0  0
    0.4293   -0.9322    0.7265 H   0  0  0  0  0  0  0  0  0  0  0  0
    0.1352   -0.5560   -1.3701 C   0  0  0  0  0  0  0  0  0  0  0  0
    0.8150   -1.4031   -1.5043 H   0  0  0  0  0  0  0  0  0  0  0  0
   -0.7147   -0.7154   -2.0399 H   0  0  0  0  0  0  0  0  0  0  0  0
    0.8187    0.7048   -1.8318 C   0  0  0  0  0  0  0  0  0  0  0  0
    2.1360    0.7222   -2.2708 N   0  0  0  0  0  0  0  0  0  0  0  0
    2.3755    1.9366   -2.7043 C   0  0  0  0  0  0  0  0  0  0  0  0
    3.3240    2.2749   -3.1118 H   0  0  0  0  0  0  0  0  0  0  0  0
    1.2414    2.7144   -2.5752 N   0  0  0  0  0  0  0  0  0  0  0  0
    1.1577    3.6873   -2.8642 H   0  0  0  0  0  0  0  0  0  0  0  0
    0.2412    1.9277   -2.0466 C   0  0  0  0  0  0  0  0  0  0  0  0
   -0.7943    2.1988   -1.8543 H   0  0  0  0  0  0  0  0  0  0  0  0
   -0.7378    0.8463    0.6432 C   0  0  0  0  0  0  0  0  0  0  0  0
   -1.8281    1.3446    0.3773 O   0  0  0  0  0  0  0  0  0  0  0  0
    0.1201    1.5020    1.5063 N   0  0  0  0  0  0  0  0  0  0  0  0
    1.0217    1.0682    1.6883 H   0  0  0  0  0  0  0  0  0  0  0  0
   -0.1626    2.8104    2.0814 C   0  0  0  0  0  0  0  0  0  0  0  0
   -1.1027    2.7878    2.6426 H   0  0  0  0  0  0  0  0  0  0  0  0
    0.6396    3.1030    2.7657 H   0  0  0  0  0  0  0  0  0  0  0  0
   -0.2395    3.5661    1.2928 H   0  0  0  0  0  0  0  0  0  0  0  0
  1  2  1  0  0  0  0
  2  3  1  0  0  0  0
  2  4  1  0  0  0  0
  2  5  1  0  0  0  0
  5  6  2  0  0  0  0
  5  7  1  0  0  0  0
  7  8  1  0  0  0  0
  7  9  1  0  0  0  0
  9 10  1  0  0  0  0
  9 11  1  0  0  0  0
  9 22  1  0  0  0  0
 11 12  1  0  0  0  0
 11 13  1  0  0  0  0
 11 14  1  0  0  0  0
 14 15  1  0  0  0  0
 14 20  2  0  0  0  0
 15 16  2  0  0  0  0
 16 17  1  0  0  0  0
 16 18  1  0  0  0  0
 18 19  1  0  0  0  0
 18 20  1  0  0  0  0
 20 21  1  0  0  0  0
 22 23  2  0  0  0  0
 22 24  1  0  0  0  0
 24 25  1  0  0  0  0
 24 26  1  0  0  0  0
 26 27  1  0  0  0  0
 26 28  1  0  0  0  0
 26 29  1  0  0  0  0
M  END
$$$$

  -OEChem-04042215593D

 29 29  0     1  0  0  0  0  0999 V2000
   -2.6266   -4.4976    1.1273 H   0  0  0  0  0  0  0  0  0  0  0  0
   -2.8285   -3.4859    0.7639 C   0  0  0  0  0  0  0  0  0  0  0  0
   -3.4914   -2.9834    1.4724 H   0  0  0  0  0  0  0  0  0  0  0  0
   -3.3263   -3.5535   -0.2065 H   0  0  0  0  0  0  0  0  0  0  0  0
   -1.5309   -2.7112    0.6268 C   0  0  0  0  0  0  0  0  0  0  0  0
   -0.4705   -3.2442    0.9102 O   0  0  0  0  0  0  0  0  0  0  0  0
   -1.5561   -1.4027    0.1928 N   0  0  0  0  0  0  0  0  0  0  0  0
   -2.4686   -0.9672    0.0692 H   0  0  0  0  0  0  0  0  0  0  0  0
   -0.3814   -0.5212    0.1179 C   0  0  1  0  0  0  0  0  0  0  0  0
    0.4219   -0.9101    0.7527 H   0  0  0  0  0  0  0  0  0  0  0  0
    0.1378   -0.5215   -1.3418 C   0  0  0  0  0  0  0  0  0  0  0  0
    0.8227   -1.3672   -1.4579 H   0  0  0  0  0  0  0  0  0  0  0  0
   -0.7050   -0.6993   -2.0158 H   0  0  0  0  0  0  0  0  0  0  0  0
    0.8243    0.7258   -1.8462 C   0  0  0  0  0  0  0  0  0  0  0  0
    2.0099    0.6471   -2.5669 N   0  0  0  0  0  0  0  0  0  0  0  0
    2.3043    1.8620   -2.9614 C   0  0  0  0  0  0  0  0  0  0  0  0
    3.1794    2.1315   -3.5460 H   0  0  0  0  0  0  0  0  0  0  0  0
    1.3303    2.7411   -2.5338 N   0  0  0  0  0  0  0  0  0  0  0  0
    1.3038    3.7374   -2.7428 H   0  0  0  0  0  0  0  0  0  0  0  0
    0.3737    2.0211   -1.8511 C   0  0  0  0  0  0  0  0  0  0  0  0
   -0.5616    2.3923   -1.4404 H   0  0  0  0  0  0  0  0  0  0  0  0
   -0.7553    0.8568    0.7002 C   0  0  0  0  0  0  0  0  0  0  0  0
   -1.8512    1.3505    0.4504 O   0  0  0  0  0  0  0  0  0  0  0  0
    0.0982    1.5041    1.5747 N   0  0  0  0  0  0  0  0  0  0  0  0
    0.9975    1.0676    1.7619 H   0  0  0  0  0  0  0  0  0  0  0  0
   -0.2052    2.7880    2.1940 C   0  0  0  0  0  0  0  0  0  0  0  0
   -1.1387    2.7286    2.7637 H   0  0  0  0  0  0  0  0  0  0  0  0
    0.5981    3.0758    2.8792 H   0  0  0  0  0  0  0  0  0  0  0  0
   -0.3056    3.5667    1.4308 H   0  0  0  0  0  0  0  0  0  0  0  0
  1  2  1  0  0  0  0
  2  3  1  0  0  0  0
  2  4  1  0  0  0  0
  2  5  1  0  0  0  0
  5  6  2  0  0  0  0
  5  7  1  0  0  0  0
  7  8  1  0  0  0  0
  7  9  1  0  0  0  0
  9 10  1  0  0  0  0
  9 11  1  0  0  0  0
  9 22  1  0  0  0  0
 11 12  1  0  0  0  0
 11 13  1  0  0  0  0
 11 14  1  0  0  0  0
 14 15  1  0  0  0  0
 14 20  2  0  0  0  0
 15 16  2  0  0  0  0
 16 17  1  0  0  0  0
 16 18  1  0  0  0  0
 18 19  1  0  0  0  0
 18 20  1  0  0  0  0
 20 21  1  0  0  0  0
 22 23  2  0  0  0  0
 22 24  1  0  0  0  0
 24 25  1  0  0  0  0
 24 26  1  0  0  0  0
 26 27  1  0  0  0  0
 26 28  1  0  0  0  0
 26 29  1  0  0  0  0
M  END
$$$$

  -OEChem-04042215593D

 29 29  0     1  0  0  0  0  0999 V2000
   -2.5999   -4.5049    1.0679 H   0  0  0  0  0  0  0  0  0  0  0  0
   -2.8066   -3.4884    0.7213 C   0  0  0  0  0  0  0  0  0  0  0  0
   -3.4859   -3.0065    1.4285 H   0  0  0  0  0  0  0  0  0  0  0  0
   -3.2877   -3.5416   -0.2582 H   0  0  0  0  0  0  0  0  0  0  0  0
   -1.5155   -2.6982    0.6213 C   0  0  0  0  0  0  0  0  0  0  0  0
   -0.4551   -3.2210    0.9234 O   0  0  0  0  0  0  0  0  0  0  0  0
   -1.5476   -1.3841    0.2058 N   0  0  0  0  0  0  0  0  0  0  0  0
   -2.4613   -0.9590    0.0577 H   0  0  0  0  0  0  0  0  0  0  0  0
   -0.3784   -0.4951    0.1455 C   0  0  1  0  0  0  0  0  0  0  0  0
    0.4295   -0.8850    0.7737 H   0  0  0  0  0  0  0  0  0  0  0  0
    0.1296   -0.4833   -1.3198 C   0  0  0  0  0  0  0  0  0  0  0  0
    0.8160   -1.3285   -1.4309 H   0  0  0  0  0  0  0  0  0  0  0  0
   -0.7166   -0.6730   -1.9865 H   0  0  0  0  0  0  0  0  0  0  0  0
    0.8167    0.7475   -1.8715 C   0  0  0  0  0  0  0  0  0  0  0  0
    1.7845    0.5933   -2.8580 N   0  0  0  0  0  0  0  0  0  0  0  0
    2.1776    1.7914   -3.2131 C   0  0  0  0  0  0  0  0  0  0  0  0
    2.9306    2.0017   -3.9672 H   0  0  0  0  0  0  0  0  0  0  0  0
    1.4842    2.7404   -2.4918 N   0  0  0  0  0  0  0  0  0  0  0  0
    1.5781    3.7481   -2.6033 H   0  0  0  0  0  0  0  0  0  0  0  0
    0.6058    2.0869   -1.6545 C   0  0  0  0  0  0  0  0  0  0  0  0
   -0.1279    2.5483   -1.0011 H   0  0  0  0  0  0  0  0  0  0  0  0
   -0.7730    0.8663    0.7481 C   0  0  0  0  0  0  0  0  0  0  0  0
   -1.8604    1.3669    0.4792 O   0  0  0  0  0  0  0  0  0  0  0  0
    0.0685    1.5092    1.6377 N   0  0  0  0  0  0  0  0  0  0  0  0
    0.9431    1.0468    1.8730 H   0  0  0  0  0  0  0  0  0  0  0  0
   -0.2709    2.7583    2.3077 C   0  0  0  0  0  0  0  0  0  0  0  0
   -1.1808    2.6380    2.9051 H   0  0  0  0  0  0  0  0  0  0  0  0
    0.5422    3.0618    2.9743 H   0  0  0  0  0  0  0  0  0  0  0  0
   -0.4326    3.5553    1.5745 H   0  0  0  0  0  0  0  0  0  0  0  0
  1  2  1  0  0  0  0
  2  3  1  0  0  0  0
  2  4  1  0  0  0  0
  2  5  1  0  0  0  0
  5  6  2  0  0  0  0
  5  7  1  0  0  0  0
  7  8  1  0  0  0  0
  7  9  1  0  0  0  0
  9 10  1  0  0  0  0
  9 11  1  0  0  0  0
  9 22  1  0  0  0  0
 11 12  1  0  0  0  0
 11 13  1  0  0  0  0
 11 14  1  0  0  0  0
 14 15  1  0  0  0  0
 14 20  2  0  0  0  0
 15 16  2  0  0  0  0
 16 17  1  0  0  0  0
 16 18  1  0  0  0  0
 18 19  1  0  0  0  0
 18 20  1  0  0  0  0
 20 21  1  0  0  0  0
 22 23  2  0  0  0  0
 22 24  1  0  0  0  0
 24 25  1  0  0  0  0
 24 26  1  0  0  0  0
 26 27  1  0  0  0  0
 26 28  1  0  0  0  0
 26 29  1  0  0  0  0
M  END
$$$$

  -OEChem-04042215593D

 29 29  0     1  0  0  0  0  0999 V2000
   -2.5972   -4.5034    1.0178 H   0  0  0  0  0  0  0  0  0  0  0  0
   -2.7994   -3.4837    0.6787 C   0  0  0  0  0  0  0  0  0  0  0  0
   -3.4972   -3.0125    1.3750 H   0  0  0  0  0  0  0  0  0  0  0  0
   -3.2569   -3.5267   -0.3127 H   0  0  0  0  0  0  0  0  0  0  0  0
   -1.5096   -2.6873    0.6192 C   0  0  0  0  0  0  0  0  0  0  0  0
   -0.4548   -3.2062    0.9470 O   0  0  0  0  0  0  0  0  0  0  0  0
   -1.5365   -1.3700    0.2136 N   0  0  0  0  0  0  0  0  0  0  0  0
   -2.4465   -0.9487    0.0339 H   0  0  0  0  0  0  0  0  0  0  0  0
   -0.3658   -0.4816    0.1704 C   0  0  1  0  0  0  0  0  0  0  0  0
    0.4461   -0.8745    0.7917 H   0  0  0  0  0  0  0  0  0  0  0  0
    0.1238   -0.4543   -1.3020 C   0  0  0  0  0  0  0  0  0  0  0  0
    0.7991   -1.3056   -1.4314 H   0  0  0  0  0  0  0  0  0  0  0  0
   -0.7358   -0.6308   -1.9556 H   0  0  0  0  0  0  0  0  0  0  0  0
    0.8137    0.7656   -1.8760 C   0  0  0  0  0  0  0  0  0  0  0  0
    1.5020    0.6139   -3.0749 N   0  0  0  0  0  0  0  0  0  0  0  0
    1.9975    1.7827   -3.3967 C   0  0  0  0  0  0  0  0  0  0  0  0
    2.5860    1.9863   -4.2868 H   0  0  0  0  0  0  0  0  0  0  0  0
    1.6541    2.7111   -2.4372 N   0  0  0  0  0  0  0  0  0  0  0  0
    1.8942    3.7002   -2.4646 H   0  0  0  0  0  0  0  0  0  0  0  0
    0.8971    2.0772   -1.4751 C   0  0  0  0  0  0  0  0  0  0  0  0
    0.4438    2.5465   -0.6102 H   0  0  0  0  0  0  0  0  0  0  0  0
   -0.7796    0.8697    0.7830 C   0  0  0  0  0  0  0  0  0  0  0  0
   -1.8535    1.3816    0.4857 O   0  0  0  0  0  0  0  0  0  0  0  0
    0.0485    1.5060    1.6910 N   0  0  0  0  0  0  0  0  0  0  0  0
    0.8928    1.0152    1.9745 H   0  0  0  0  0  0  0  0  0  0  0  0
   -0.3163    2.7352    2.3844 C   0  0  0  0  0  0  0  0  0  0  0  0
   -1.1921    2.5702    3.0205 H   0  0  0  0  0  0  0  0  0  0  0  0
    0.5119    3.0720    3.0152 H   0  0  0  0  0  0  0  0  0  0  0  0
   -0.5465    3.5290    1.6661 H   0  0  0  0  0  0  0  0  0  0  0  0
  1  2  1  0  0  0  0
  2  3  1  0  0  0  0
  2  4  1  0  0  0  0
  2  5  1  0  0  0  0
  5  6  2  0  0  0  0
  5  7  1  0  0  0  0
  7  8  1  0  0  0  0
  7  9  1  0  0  0  0
  9 10  1  0  0  0  0
  9 11  1  0  0  0  0
  9 22  1  0  0  0  0
 11 12  1  0  0  0  0
 11 13  1  0  0  0  0
 11 14  1  0  0  0  0
 14 15  1  0  0  0  0
 14 20  2  0  0  0  0
 15 16  2  0  0  0  0
 16 17  1  0  0  0  0
 16 18  1  0  0  0  0
 18 19  1  0  0  0  0
 18 20  1  0  0  0  0
 20 21  1  0  0  0  0
 22 23  2  0  0  0  0
 22 24  1  0  0  0  0
 24 25  1  0  0  0  0
 24 26  1  0  0  0  0
 26 27  1  0  0  0  0
 26 28  1  0  0  0  0
 26 29  1  0  0  0  0
M  END
$$$$

  -OEChem-04042215593D

 29 29  0     1  0  0  0  0  0999 V2000
   -2.6557   -4.4531    1.0342 H   0  0  0  0  0  0  0  0  0  0  0  0
   -2.8232   -3.4433    0.6491 C   0  0  0  0  0  0  0  0  0  0  0  0
   -3.5574   -2.9413    1.2838 H   0  0  0  0  0  0  0  0  0  0  0  0
   -3.2182   -3.5154   -0.3672 H   0  0  0  0  0  0  0  0  0  0  0  0
   -1.5216   -2.6639    0.6444 C   0  0  0  0  0  0  0  0  0  0  0  0
   -0.4968   -3.1819    1.0583 O   0  0  0  0  0  0  0  0  0  0  0  0
   -1.5021   -1.3628    0.1898 N   0  0  0  0  0  0  0  0  0  0  0  0
   -2.3921   -0.9338   -0.0601 H   0  0  0  0  0  0  0  0  0  0  0  0
   -0.3159   -0.4947    0.1893 C   0  0  1  0  0  0  0  0  0  0  0  0
    0.4778   -0.8813    0.8366 H   0  0  0  0  0  0  0  0  0  0  0  0
    0.1690   -0.4796   -1.2794 C   0  0  0  0  0  0  0  0  0  0  0  0
    0.5986   -1.4605   -1.5038 H   0  0  0  0  0  0  0  0  0  0  0  0
   -0.7057   -0.3532   -1.9253 H   0  0  0  0  0  0  0  0  0  0  0  0
    1.1624    0.5664   -1.7226 C   0  0  0  0  0  0  0  0  0  0  0  0
    1.5881    0.5693   -3.0457 N   0  0  0  0  0  0  0  0  0  0  0  0
    2.4696    1.5301   -3.1694 C   0  0  0  0  0  0  0  0  0  0  0  0
    2.9836    1.7887   -4.0908 H   0  0  0  0  0  0  0  0  0  0  0  0
    2.6504    2.1543   -1.9525 N   0  0  0  0  0  0  0  0  0  0  0  0
    3.2887    2.9286   -1.7795 H   0  0  0  0  0  0  0  0  0  0  0  0
    1.8354    1.5379   -1.0268 C   0  0  0  0  0  0  0  0  0  0  0  0
    1.7659    1.7729    0.0263 H   0  0  0  0  0  0  0  0  0  0  0  0
   -0.7633    0.8827    0.7284 C   0  0  0  0  0  0  0  0  0  0  0  0
   -1.8135    1.3817    0.3387 O   0  0  0  0  0  0  0  0  0  0  0  0
   -0.0043    1.5554    1.6705 N   0  0  0  0  0  0  0  0  0  0  0  0
    0.7710    1.0465    2.0867 H   0  0  0  0  0  0  0  0  0  0  0  0
   -0.4269    2.8087    2.2842 C   0  0  0  0  0  0  0  0  0  0  0  0
   -1.3543    2.6651    2.8482 H   0  0  0  0  0  0  0  0  0  0  0  0
    0.3438    3.1727    2.9703 H   0  0  0  0  0  0  0  0  0  0  0  0
   -0.5943    3.5734    1.5184 H   0  0  0  0  0  0  0  0  0  0  0  0
  1  2  1  0  0  0  0
  2  3  1  0  0  0  0
  2  4  1  0  0  0  0
  2  5  1  0  0  0  0
  5  6  2  0  0  0  0
  5  7  1  0  0  0  0
  7  8  1  0  0  0  0
  7  9  1  0  0  0  0
  9 10  1  0  0  0  0
  9 11  1  0  0  0  0
  9 22  1  0  0  0  0
 11 12  1  0  0  0  0
 11 13  1  0  0  0  0
 11 14  1  0  0  0  0
 14 15  1  0  0  0  0
 14 20  2  0  0  0  0
 15 16  2  0  0  0  0
 16 17  1  0  0  0  0
 16 18  1  0  0  0  0
 18 19  1  0  0  0  0
 18 20  1  0  0  0  0
 20 21  1  0  0  0  0
 22 23  2  0  0  0  0
 22 24  1  0  0  0  0
 24 25  1  0  0  0  0
 24 26  1  0  0  0  0
 26 27  1  0  0  0  0
 26 28  1  0  0  0  0
 26 29  1  0  0  0  0
M  END
$$$$

  -OEChem-04042215593D

 29 29  0     1  0  0  0  0  0999 V2000
   -2.6875   -4.4430    1.0959 H   0  0  0  0  0  0  0  0  0  0  0  0
   -2.8501   -3.4381    0.6959 C   0  0  0  0  0  0  0  0  0  0  0  0
   -3.5685   -2.9172    1.3336 H   0  0  0  0  0  0  0  0  0  0  0  0
   -3.2625   -3.5234   -0.3125 H   0  0  0  0  0  0  0  0  0  0  0  0
   -1.5403   -2.6734    0.6567 C   0  0  0  0  0  0  0  0  0  0  0  0
   -0.5141   -3.1971    1.0601 O   0  0  0  0  0  0  0  0  0  0  0  0
   -1.5126   -1.3799    0.1816 N   0  0  0  0  0  0  0  0  0  0  0  0
   -2.4012   -0.9438   -0.0605 H   0  0  0  0  0  0  0  0  0  0  0  0
   -0.3196   -0.5223    0.1618 C   0  0  1  0  0  0  0  0  0  0  0  0
    0.4735   -0.9093    0.8097 H   0  0  0  0  0  0  0  0  0  0  0  0
    0.1640   -0.5091   -1.3050 C   0  0  0  0  0  0  0  0  0  0  0  0
    0.5867   -1.4884   -1.5475 H   0  0  0  0  0  0  0  0  0  0  0  0
   -0.7090   -0.3616   -1.9488 H   0  0  0  0  0  0  0  0  0  0  0  0
    1.1621    0.5475   -1.7020 C   0  0  0  0  0  0  0  0  0  0  0  0
    1.4043    0.8222   -3.0419 N   0  0  0  0  0  0  0  0  0  0  0  0
    2.3424    1.7360   -3.0835 C   0  0  0  0  0  0  0  0  0  0  0  0
    2.7498    2.1679   -3.9932 H   0  0  0  0  0  0  0  0  0  0  0  0
    2.7392    2.0572   -1.8008 N   0  0  0  0  0  0  0  0  0  0  0  0
    3.4641    2.7315   -1.5629 H   0  0  0  0  0  0  0  0  0  0  0  0
    2.0055    1.2920   -0.9193 C   0  0  0  0  0  0  0  0  0  0  0  0
    2.0957    1.2682    0.1596 H   0  0  0  0  0  0  0  0  0  0  0  0
   -0.7432    0.8715    0.6803 C   0  0  0  0  0  0  0  0  0  0  0  0
   -1.7958    1.3716    0.2983 O   0  0  0  0  0  0  0  0  0  0  0  0
    0.0309    1.5514    1.6047 N   0  0  0  0  0  0  0  0  0  0  0  0
    0.8057    1.0452    2.0233 H   0  0  0  0  0  0  0  0  0  0  0  0
   -0.3622    2.8304    2.1832 C   0  0  0  0  0  0  0  0  0  0  0  0
   -1.2988    2.7277    2.7410 H   0  0  0  0  0  0  0  0  0  0  0  0
    0.4120    3.1897    2.8677 H   0  0  0  0  0  0  0  0  0  0  0  0
   -0.5004    3.5795    1.3966 H   0  0  0  0  0  0  0  0  0  0  0  0
  1  2  1  0  0  0  0
  2  3  1  0  0  0  0
  2  4  1  0  0  0  0
  2  5  1  0  0  0  0
  5  6  2  0  0  0  0
  5  7  1  0  0  0  0
  7  8  1  0  0  0  0
  7  9  1  0  0  0  0
  9 10  1  0  0  0  0
  9 11  1  0  0  0  0
  9 22  1  0  0  0  0
 11 12  1  0  0  0  0
 11 13  1  0  0  0  0
 11 14  1  0  0  0  0
 14 15  1  0  0  0  0
 14 20  2  0  0  0  0
 15 16  2  0  0  0  0
 16 17  1  0  0  0  0
 16 18  1  0  0  0  0
 18 19  1  0  0  0  0
 18 20  1  0  0  0  0
 20 21  1  0  0  0  0
 22 23  2  0  0  0  0
 22 24  1  0  0  0  0
 24 25  1  0  0  0  0
 24 26  1  0  0  0  0
 26 27  1  0  0  0  0
 26 28  1  0  0  0  0
 26 29  1  0  0  0  0
M  END
$$$$

  -OEChem-04042215593D

 29 29  0     1  0  0  0  0  0999 V2000
   -2.7016   -4.4386    1.1496 H   0  0  0  0  0  0  0  0  0  0  0  0
   -2.8637   -3.4368    0.7422 C   0  0  0  0  0  0  0  0  0  0  0  0
   -3.5627   -2.9017    1.3894 H   0  0  0  0  0  0  0  0  0  0  0  0
   -3.2987   -3.5289   -0.2560 H   0  0  0  0  0  0  0  0  0  0  0  0
   -1.5487   -2.6844    0.6661 C   0  0  0  0  0  0  0  0  0  0  0  0
   -0.5179   -3.2126    1.0523 O   0  0  0  0  0  0  0  0  0  0  0  0
   -1.5220   -1.3979    0.1727 N   0  0  0  0  0  0  0  0  0  0  0  0
   -2.4136   -0.9556   -0.0465 H   0  0  0  0  0  0  0  0  0  0  0  0
   -0.3267   -0.5453    0.1283 C   0  0  1  0  0  0  0  0  0  0  0  0
    0.4653   -0.9308    0.7786 H   0  0  0  0  0  0  0  0  0  0  0  0
    0.1612   -0.5420   -1.3349 C   0  0  0  0  0  0  0  0  0  0  0  0
    0.5893   -1.5185   -1.5788 H   0  0  0  0  0  0  0  0  0  0  0  0
   -0.7064   -0.3925   -1.9856 H   0  0  0  0  0  0  0  0  0  0  0  0
    1.1589    0.5279   -1.6880 C   0  0  0  0  0  0  0  0  0  0  0  0
    1.2397    1.0692   -2.9637 N   0  0  0  0  0  0  0  0  0  0  0  0
    2.2243    1.9340   -2.9471 C   0  0  0  0  0  0  0  0  0  0  0  0
    2.5389    2.5330   -3.7971 H   0  0  0  0  0  0  0  0  0  0  0  0
    2.8046    1.9615   -1.6936 N   0  0  0  0  0  0  0  0  0  0  0  0
    3.6000    2.5393   -1.4286 H   0  0  0  0  0  0  0  0  0  0  0  0
    2.1396    1.0579   -0.8921 C   0  0  0  0  0  0  0  0  0  0  0  0
    2.3539    0.8008    0.1391 H   0  0  0  0  0  0  0  0  0  0  0  0
   -0.7246    0.8628    0.6295 C   0  0  0  0  0  0  0  0  0  0  0  0
   -1.7933    1.3543    0.2824 O   0  0  0  0  0  0  0  0  0  0  0  0
    0.0719    1.5472    1.5308 N   0  0  0  0  0  0  0  0  0  0  0  0
    0.8796    1.0602    1.9062 H   0  0  0  0  0  0  0  0  0  0  0  0
   -0.2925    2.8414    2.0941 C   0  0  0  0  0  0  0  0  0  0  0  0
   -1.2231    2.7624    2.6660 H   0  0  0  0  0  0  0  0  0  0  0  0
    0.4964    3.1985    2.7630 H   0  0  0  0  0  0  0  0  0  0  0  0
   -0.4296    3.5804    1.2975 H   0  0  0  0  0  0  0  0  0  0  0  0
  1  2  1  0  0  0  0
  2  3  1  0  0  0  0
  2  4  1  0  0  0  0
  2  5  1  0  0  0  0
  5  6  2  0  0  0  0
  5  7  1  0  0  0  0
  7  8  1  0  0  0  0
  7  9  1  0  0  0  0
  9 10  1  0  0  0  0
  9 11  1  0  0  0  0
  9 22  1  0  0  0  0
 11 12  1  0  0  0  0
 11 13  1  0  0  0  0
 11 14  1  0  0  0  0
 14 15  1  0  0  0  0
 14 20  2  0  0  0  0
 15 16  2  0  0  0  0
 16 17  1  0  0  0  0
 16 18  1  0  0  0  0
 18 19  1  0  0  0  0
 18 20  1  0  0  0  0
 20 21  1  0  0  0  0
 22 23  2  0  0  0  0
 22 24  1  0  0  0  0
 24 25  1  0  0  0  0
 24 26  1  0  0  0  0
 26 27  1  0  0  0  0
 26 28  1  0  0  0  0
 26 29  1  0  0  0  0
M  END
$$$$

  -OEChem-04042215593D

 29 29  0     1  0  0  0  0  0999 V2000
   -2.7043   -4.4387    1.1930 H   0  0  0  0  0  0  0  0  0  0  0  0
   -2.8707   -3.4379    0.7848 C   0  0  0  0  0  0  0  0  0  0  0  0
   -3.5466   -2.8939    1.4489 H   0  0  0  0  0  0  0  0  0  0  0  0
   -3.3353   -3.5320   -0.1998 H   0  0  0  0  0  0  0  0  0  0  0  0
   -1.5527   -2.6961    0.6665 C   0  0  0  0  0  0  0  0  0  0  0  0
   -0.5152   -3.2304    1.0257 O   0  0  0  0  0  0  0  0  0  0  0  0
   -1.5303   -1.4142    0.1612 N   0  0  0  0  0  0  0  0  0  0  0  0
   -2.4254   -0.9648   -0.0279 H   0  0  0  0  0  0  0  0  0  0  0  0
   -0.3350   -0.5635    0.0961 C   0  0  1  0  0  0  0  0  0  0  0  0
    0.4557   -0.9460    0.7494 H   0  0  0  0  0  0  0  0  0  0  0  0
    0.1604   -0.5676   -1.3624 C   0  0  0  0  0  0  0  0  0  0  0  0
    0.6015   -1.5402   -1.5986 H   0  0  0  0  0  0  0  0  0  0  0  0
   -0.6985   -0.4245   -2.0261 H   0  0  0  0  0  0  0  0  0  0  0  0
    1.1541    0.5161   -1.6751 C   0  0  0  0  0  0  0  0  0  0  0  0
    1.0908    1.3020   -2.8167 N   0  0  0  0  0  0  0  0  0  0  0  0
    2.1219    2.1100   -2.7748 C   0  0  0  0  0  0  0  0  0  0  0  0
    2.3554    2.8572   -3.5279 H   0  0  0  0  0  0  0  0  0  0  0  0
    2.8683    1.8630   -1.6379 N   0  0  0  0  0  0  0  0  0  0  0  0
    3.7317    2.3417   -1.3883 H   0  0  0  0  0  0  0  0  0  0  0  0
    2.2622    0.8400   -0.9393 C   0  0  0  0  0  0  0  0  0  0  0  0
    2.5922    0.3694   -0.0188 H   0  0  0  0  0  0  0  0  0  0  0  0
   -0.7152    0.8531    0.5869 C   0  0  0  0  0  0  0  0  0  0  0  0
   -1.8037    1.3307    0.2846 O   0  0  0  0  0  0  0  0  0  0  0  0
    0.1001    1.5398    1.4692 N   0  0  0  0  0  0  0  0  0  0  0  0
    0.9647    1.0936    1.7584 H   0  0  0  0  0  0  0  0  0  0  0  0
   -0.2381    2.8468    2.0182 C   0  0  0  0  0  0  0  0  0  0  0  0
   -1.1673    2.7916    2.5950 H   0  0  0  0  0  0  0  0  0  0  0  0
    0.5597    3.1969    2.6801 H   0  0  0  0  0  0  0  0  0  0  0  0
   -0.3655    3.5783    1.2133 H   0  0  0  0  0  0  0  0  0  0  0  0
  1  2  1  0  0  0  0
  2  3  1  0  0  0  0
  2  4  1  0  0  0  0
  2  5  1  0  0  0  0
  5  6  2  0  0  0  0
  5  7  1  0  0  0  0
  7  8  1  0  0  0  0
  7  9  1  0  0  0  0
  9 10  1  0  0  0  0
  9 11  1  0  0  0  0
  9 22  1  0  0  0  0
 11 12  1  0  0  0  0
 11 13  1  0  0  0  0
 11 14  1  0  0  0  0
 14 15  1  0  0  0  0
 14 20  2  0  0  0  0
 15 16  2  0  0  0  0
 16 17  1  0  0  0  0
 16 18  1  0  0  0  0
 18 19  1  0  0  0  0
 18 20  1  0  0  0  0
 20 21  1  0  0  0  0
 22 23  2  0  0  0  0
 22 24  1  0  0  0  0
 24 25  1  0  0  0  0
 24 26  1  0  0  0  0
 26 27  1  0  0  0  0
 26 28  1  0  0  0  0
 26 29  1  0  0  0  0
M  END
$$$$

  -OEChem-04042215593D

 29 29  0     1  0  0  0  0  0999 V2000
   -2.7032   -4.4353    1.2363 H   0  0  0  0  0  0  0  0  0  0  0  0
   -2.8737   -3.4379    0.8218 C   0  0  0  0  0  0  0  0  0  0  0  0
   -3.5246   -2.8811    1.5002 H   0  0  0  0  0  0  0  0  0  0  0  0
   -3.3687   -3.5391   -0.1471 H   0  0  0  0  0  0  0  0  0  0  0  0
   -1.5540   -2.7085    0.6551 C   0  0  0  0  0  0  0  0  0  0  0  0
   -0.5091   -3.2522    0.9771 O   0  0  0  0  0  0  0  0  0  0  0  0
   -1.5381   -1.4284    0.1451 N   0  0  0  0  0  0  0  0  0  0  0  0
   -2.4361   -0.9695   -0.0042 H   0  0  0  0  0  0  0  0  0  0  0  0
   -0.3431   -0.5785    0.0649 C   0  0  1  0  0  0  0  0  0  0  0  0
    0.4479   -0.9581    0.7198 H   0  0  0  0  0  0  0  0  0  0  0  0
    0.1614   -0.5846   -1.3883 C   0  0  0  0  0  0  0  0  0  0  0  0
    0.6169   -1.5531   -1.6133 H   0  0  0  0  0  0  0  0  0  0  0  0
   -0.6866   -0.4497   -2.0673 H   0  0  0  0  0  0  0  0  0  0  0  0
    1.1506    0.5113   -1.6624 C   0  0  0  0  0  0  0  0  0  0  0  0
    0.9671    1.5093   -2.6076 N   0  0  0  0  0  0  0  0  0  0  0  0
    2.0425    2.2581   -2.5750 C   0  0  0  0  0  0  0  0  0  0  0  0
    2.2100    3.1311   -3.1998 H   0  0  0  0  0  0  0  0  0  0  0  0
    2.9302    1.7673   -1.6352 N   0  0  0  0  0  0  0  0  0  0  0  0
    3.8505    2.1566   -1.4389 H   0  0  0  0  0  0  0  0  0  0  0  0
    2.3698    0.6477   -1.0569 C   0  0  0  0  0  0  0  0  0  0  0  0
    2.7963   -0.0052   -0.3012 H   0  0  0  0  0  0  0  0  0  0  0  0
   -0.7128    0.8417    0.5542 C   0  0  0  0  0  0  0  0  0  0  0  0
   -1.8197    1.3049    0.2979 O   0  0  0  0  0  0  0  0  0  0  0  0
    0.1181    1.5260    1.4234 N   0  0  0  0  0  0  0  0  0  0  0  0
    1.0240    1.1164    1.6286 H   0  0  0  0  0  0  0  0  0  0  0  0
   -0.1962    2.8466    1.9535 C   0  0  0  0  0  0  0  0  0  0  0  0
   -1.1175    2.8128    2.5443 H   0  0  0  0  0  0  0  0  0  0  0  0
    0.6148    3.1981    2.5982 H   0  0  0  0  0  0  0  0  0  0  0  0
   -0.3263    3.5650    1.1373 H   0  0  0  0  0  0  0  0  0  0  0  0
  1  2  1  0  0  0  0
  2  3  1  0  0  0  0
  2  4  1  0  0  0  0
  2  5  1  0  0  0  0
  5  6  2  0  0  0  0
  5  7  1  0  0  0  0
  7  8  1  0  0  0  0
  7  9  1  0  0  0  0
  9 10  1  0  0  0  0
  9 11  1  0  0  0  0
  9 22  1  0  0  0  0
 11 12  1  0  0  0  0
 11 13  1  0  0  0  0
 11 14  1  0  0  0  0
 14 15  1  0  0  0  0
 14 20  2  0  0  0  0
 15 16  2  0  0  0  0
 16 17  1  0  0  0  0
 16 18  1  0  0  0  0
 18 19  1  0  0  0  0
 18 20  1  0  0  0  0
 20 21  1  0  0  0  0
 22 23  2  0  0  0  0
 22 24  1  0  0  0  0
 24 25  1  0  0  0  0
 24 26  1  0  0  0  0
 26 27  1  0  0  0  0
 26 28  1  0  0  0  0
 26 29  1  0  0  0  0
M  END
$$$$

  -OEChem-04042215593D

 29 29  0     1  0  0  0  0  0999 V2000
   -2.7037   -4.4287    1.2581 H   0  0  0  0  0  0  0  0  0  0  0  0
   -2.8756   -3.4331    0.8394 C   0  0  0  0  0  0  0  0  0  0  0  0
   -3.5104   -2.8671    1.5255 H   0  0  0  0  0  0  0  0  0  0  0  0
   -3.3895   -3.5374   -0.1192 H   0  0  0  0  0  0  0  0  0  0  0  0
   -1.5546   -2.7136    0.6420 C   0  0  0  0  0  0  0  0  0  0  0  0
   -0.5065   -3.2665    0.9376 O   0  0  0  0  0  0  0  0  0  0  0  0
   -1.5406   -1.4334    0.1320 N   0  0  0  0  0  0  0  0  0  0  0  0
   -2.4385   -0.9666    0.0076 H   0  0  0  0  0  0  0  0  0  0  0  0
   -0.3451   -0.5845    0.0496 C   0  0  1  0  0  0  0  0  0  0  0  0
    0.4432   -0.9631    0.7083 H   0  0  0  0  0  0  0  0  0  0  0  0
    0.1691   -0.5963   -1.3993 C   0  0  0  0  0  0  0  0  0  0  0  0
    0.6318   -1.5646   -1.6107 H   0  0  0  0  0  0  0  0  0  0  0  0
   -0.6696   -0.4687   -2.0906 H   0  0  0  0  0  0  0  0  0  0  0  0
    1.1572    0.5033   -1.6551 C   0  0  0  0  0  0  0  0  0  0  0  0
    0.8801    1.6611   -2.3658 N   0  0  0  0  0  0  0  0  0  0  0  0
    1.9900    2.3579   -2.3924 C   0  0  0  0  0  0  0  0  0  0  0  0
    2.1046    3.3241   -2.8757 H   0  0  0  0  0  0  0  0  0  0  0  0
    2.9893    1.6788   -1.7196 N   0  0  0  0  0  0  0  0  0  0  0  0
    3.9510    1.9987   -1.6190 H   0  0  0  0  0  0  0  0  0  0  0  0
    2.4645    0.4909   -1.2553 C   0  0  0  0  0  0  0  0  0  0  0  0
    2.9666   -0.2989   -0.7035 H   0  0  0  0  0  0  0  0  0  0  0  0
   -0.7118    0.8364    0.5397 C   0  0  0  0  0  0  0  0  0  0  0  0
   -1.8282    1.2909    0.3084 O   0  0  0  0  0  0  0  0  0  0  0  0
    0.1250    1.5160    1.4069 N   0  0  0  0  0  0  0  0  0  0  0  0
    1.0444    1.1199    1.5762 H   0  0  0  0  0  0  0  0  0  0  0  0
   -0.1778    2.8424    1.9292 C   0  0  0  0  0  0  0  0  0  0  0  0
   -1.1033    2.8222    2.5143 H   0  0  0  0  0  0  0  0  0  0  0  0
    0.6328    3.1873    2.5781 H   0  0  0  0  0  0  0  0  0  0  0  0
   -0.2941    3.5588    1.1090 H   0  0  0  0  0  0  0  0  0  0  0  0
  1  2  1  0  0  0  0
  2  3  1  0  0  0  0
  2  4  1  0  0  0  0
  2  5  1  0  0  0  0
  5  6  2  0  0  0  0
  5  7  1  0  0  0  0
  7  8  1  0  0  0  0
  7  9  1  0  0  0  0
  9 10  1  0  0  0  0
  9 11  1  0  0  0  0
  9 22  1  0  0  0  0
 11 12  1  0  0  0  0
 11 13  1  0  0  0  0
 11 14  1  0  0  0  0
 14 15  1  0  0  0  0
 14 20  2  0  0  0  0
 15 16  2  0  0  0  0
 16 17  1  0  0  0  0
 16 18  1  0  0  0  0
 18 19  1  0  0  0  0
 18 20  1  0  0  0  0
 20 21  1  0  0  0  0
 22 23  2  0  0  0  0
 22 24  1  0  0  0  0
 24 25  1  0  0  0  0
 24 26  1  0  0  0  0
 26 27  1  0  0  0  0
 26 28  1  0  0  0  0
 26 29  1  0  0  0  0
M  END
$$$$

  -OEChem-04042215593D

 29 29  0     1  0  0  0  0  0999 V2000
   -2.7098   -4.4242    1.2579 H   0  0  0  0  0  0  0  0  0  0  0  0
   -2.8806   -3.4286    0.8393 C   0  0  0  0  0  0  0  0  0  0  0  0
   -3.5069   -2.8589    1.5301 H   0  0  0  0  0  0  0  0  0  0  0  0
   -3.4029   -3.5322   -0.1148 H   0  0  0  0  0  0  0  0  0  0  0  0
   -1.5579   -2.7154    0.6311 C   0  0  0  0  0  0  0  0  0  0  0  0
   -0.5099   -3.2765    0.9107 O   0  0  0  0  0  0  0  0  0  0  0  0
   -1.5424   -1.4334    0.1261 N   0  0  0  0  0  0  0  0  0  0  0  0
   -2.4391   -0.9591    0.0232 H   0  0  0  0  0  0  0  0  0  0  0  0
   -0.3460   -0.5851    0.0501 C   0  0  1  0  0  0  0  0  0  0  0  0
    0.4368   -0.9651    0.7149 H   0  0  0  0  0  0  0  0  0  0  0  0
    0.1826   -0.6037   -1.3935 C   0  0  0  0  0  0  0  0  0  0  0  0
    0.6453   -1.5751   -1.5912 H   0  0  0  0  0  0  0  0  0  0  0  0
   -0.6483   -0.4807   -2.0949 H   0  0  0  0  0  0  0  0  0  0  0  0
    1.1741    0.4938   -1.6491 C   0  0  0  0  0  0  0  0  0  0  0  0
    0.8470    1.7629   -2.1023 N   0  0  0  0  0  0  0  0  0  0  0  0
    1.9748    2.4182   -2.2308 C   0  0  0  0  0  0  0  0  0  0  0  0
    2.0598    3.4461   -2.5719 H   0  0  0  0  0  0  0  0  0  0  0  0
    3.0342    1.6054   -1.8722 N   0  0  0  0  0  0  0  0  0  0  0  0
    4.0166    1.8720   -1.9069 H   0  0  0  0  0  0  0  0  0  0  0  0
    2.5285    0.3744   -1.5098 C   0  0  0  0  0  0  0  0  0  0  0  0
    3.0716   -0.5114   -1.1923 H   0  0  0  0  0  0  0  0  0  0  0  0
   -0.7137    0.8344    0.5450 C   0  0  0  0  0  0  0  0  0  0  0  0
   -1.8405    1.2765    0.3382 O   0  0  0  0  0  0  0  0  0  0  0  0
    0.1236    1.5080    1.4169 N   0  0  0  0  0  0  0  0  0  0  0  0
    1.0594    1.1345    1.5422 H   0  0  0  0  0  0  0  0  0  0  0  0
   -0.1761    2.8367    1.9347 C   0  0  0  0  0  0  0  0  0  0  0  0
   -1.1225    2.8296    2.4856 H   0  0  0  0  0  0  0  0  0  0  0  0
    0.6154    3.1647    2.6153 H   0  0  0  0  0  0  0  0  0  0  0  0
   -0.2507    3.5579    1.1139 H   0  0  0  0  0  0  0  0  0  0  0  0
  1  2  1  0  0  0  0
  2  3  1  0  0  0  0
  2  4  1  0  0  0  0
  2  5  1  0  0  0  0
  5  6  2  0  0  0  0
  5  7  1  0  0  0  0
  7  8  1  0  0  0  0
  7  9  1  0  0  0  0
  9 10  1  0  0  0  0
  9 11  1  0  0  0  0
  9 22  1  0  0  0  0
 11 12  1  0  0  0  0
 11 13  1  0  0  0  0
 11 14  1  0  0  0  0
 14 15  1  0  0  0  0
 14 20  2  0  0  0  0
 15 16  2  0  0  0  0
 16 17  1  0  0  0  0
 16 18  1  0  0  0  0
 18 19  1  0  0  0  0
 18 20  1  0  0  0  0
 20 21  1  0  0  0  0
 22 23  2  0  0  0  0
 22 24  1  0  0  0  0
 24 25  1  0  0  0  0
 24 26  1  0  0  0  0
 26 27  1  0  0  0  0
 26 28  1  0  0  0  0
 26 29  1  0  0  0  0
M  END
$$$$

  -OEChem-04042215593D

 29 29  0     1  0  0  0  0  0999 V2000
   -2.7089   -4.4194    1.2469 H   0  0  0  0  0  0  0  0  0  0  0  0
   -2.8790   -3.4209    0.8343 C   0  0  0  0  0  0  0  0  0  0  0  0
   -3.4977   -2.8519    1.5326 H   0  0  0  0  0  0  0  0  0  0  0  0
   -3.4090   -3.5176   -0.1163 H   0  0  0  0  0  0  0  0  0  0  0  0
   -1.5550   -2.7120    0.6193 C   0  0  0  0  0  0  0  0  0  0  0  0
   -0.5070   -3.2803    0.8843 O   0  0  0  0  0  0  0  0  0  0  0  0
   -1.5384   -1.4265    0.1234 N   0  0  0  0  0  0  0  0  0  0  0  0
   -2.4341   -0.9467    0.0362 H   0  0  0  0  0  0  0  0  0  0  0  0
   -0.3411   -0.5777    0.0592 C   0  0  1  0  0  0  0  0  0  0  0  0
    0.4376   -0.9590    0.7280 H   0  0  0  0  0  0  0  0  0  0  0  0
    0.1971   -0.6014   -1.3823 C   0  0  0  0  0  0  0  0  0  0  0  0
    0.6490   -1.5787   -1.5749 H   0  0  0  0  0  0  0  0  0  0  0  0
   -0.6342   -0.4757   -2.0827 H   0  0  0  0  0  0  0  0  0  0  0  0
    1.1957    0.4866   -1.6614 C   0  0  0  0  0  0  0  0  0  0  0  0
    0.8897    1.8272   -1.8485 N   0  0  0  0  0  0  0  0  0  0  0  0
    2.0198    2.4425   -2.0983 C   0  0  0  0  0  0  0  0  0  0  0  0
    2.1175    3.5064   -2.2947 H   0  0  0  0  0  0  0  0  0  0  0  0
    3.0623    1.5354   -2.0754 N   0  0  0  0  0  0  0  0  0  0  0  0
    4.0391    1.7585   -2.2580 H   0  0  0  0  0  0  0  0  0  0  0  0
    2.5405    0.2878   -1.8047 C   0  0  0  0  0  0  0  0  0  0  0  0
    3.0663   -0.6598   -1.7284 H   0  0  0  0  0  0  0  0  0  0  0  0
   -0.7210    0.8352    0.5643 C   0  0  0  0  0  0  0  0  0  0  0  0
   -1.8555    1.2643    0.3679 O   0  0  0  0  0  0  0  0  0  0  0  0
    0.1070    1.5052    1.4478 N   0  0  0  0  0  0  0  0  0  0  0  0
    1.0550    1.1545    1.5436 H   0  0  0  0  0  0  0  0  0  0  0  0
   -0.2038    2.8294    1.9701 C   0  0  0  0  0  0  0  0  0  0  0  0
   -1.1538    2.8140    2.5145 H   0  0  0  0  0  0  0  0  0  0  0  0
    0.5811    3.1583    2.6577 H   0  0  0  0  0  0  0  0  0  0  0  0
   -0.2770    3.5541    1.1522 H   0  0  0  0  0  0  0  0  0  0  0  0
  1  2  1  0  0  0  0
  2  3  1  0  0  0  0
  2  4  1  0  0  0  0
  2  5  1  0  0  0  0
  5  6  2  0  0  0  0
  5  7  1  0  0  0  0
  7  8  1  0  0  0  0
  7  9  1  0  0  0  0
  9 10  1  0  0  0  0
  9 11  1  0  0  0  0
  9 22  1  0  0  0  0
 11 12  1  0  0  0  0
 11 13  1  0  0  0  0
 11 14  1  0  0  0  0
 14 15  1  0  0  0  0
 14 20  2  0  0  0  0
 15 16  2  0  0  0  0
 16 17  1  0  0  0  0
 16 18  1  0  0  0  0
 18 19  1  0  0  0  0
 18 20  1  0  0  0  0
 20 21  1  0  0  0  0
 22 23  2  0  0  0  0
 22 24  1  0  0  0  0
 24 25  1  0  0  0  0
 24 26  1  0  0  0  0
 26 27  1  0  0  0  0
 26 28  1  0  0  0  0
 26 29  1  0  0  0  0
M  END
$$$$

  -OEChem-04042215593D

 29 29  0     1  0  0  0  0  0999 V2000
   -2.7033   -4.4158    1.2282 H   0  0  0  0  0  0  0  0  0  0  0  0
   -2.8709   -3.4146    0.8217 C   0  0  0  0  0  0  0  0  0  0  0  0
   -3.4865   -2.8481    1.5248 H   0  0  0  0  0  0  0  0  0  0  0  0
   -3.4032   -3.5041   -0.1283 H   0  0  0  0  0  0  0  0  0  0  0  0
   -1.5454   -2.7085    0.6072 C   0  0  0  0  0  0  0  0  0  0  0  0
   -0.4978   -3.2847    0.8558 O   0  0  0  0  0  0  0  0  0  0  0  0
   -1.5281   -1.4179    0.1251 N   0  0  0  0  0  0  0  0  0  0  0  0
   -2.4233   -0.9340    0.0564 H   0  0  0  0  0  0  0  0  0  0  0  0
   -0.3315   -0.5665    0.0758 C   0  0  1  0  0  0  0  0  0  0  0  0
    0.4451   -0.9502    0.7454 H   0  0  0  0  0  0  0  0  0  0  0  0
    0.2097   -0.5887   -1.3668 C   0  0  0  0  0  0  0  0  0  0  0  0
    0.6478   -1.5717   -1.5633 H   0  0  0  0  0  0  0  0  0  0  0  0
   -0.6284   -0.4564   -2.0575 H   0  0  0  0  0  0  0  0  0  0  0  0
    1.2145    0.4875   -1.6806 C   0  0  0  0  0  0  0  0  0  0  0  0
    1.0031    1.8580   -1.6085 N   0  0  0  0  0  0  0  0  0  0  0  0
    2.1151    2.4375   -1.9904 C   0  0  0  0  0  0  0  0  0  0  0  0
    2.2680    3.5114   -2.0505 H   0  0  0  0  0  0  0  0  0  0  0  0
    3.0587    1.4780   -2.3020 N   0  0  0  0  0  0  0  0  0  0  0  0
    4.0010    1.6673   -2.6390 H   0  0  0  0  0  0  0  0  0  0  0  0
    2.4887    0.2372   -2.1091 C   0  0  0  0  0  0  0  0  0  0  0  0
    2.9363   -0.7399   -2.2682 H   0  0  0  0  0  0  0  0  0  0  0  0
   -0.7305    0.8361    0.5962 C   0  0  0  0  0  0  0  0  0  0  0  0
   -1.8711    1.2513    0.4009 O   0  0  0  0  0  0  0  0  0  0  0  0
    0.0823    1.5045    1.4949 N   0  0  0  0  0  0  0  0  0  0  0  0
    1.0443    1.1863    1.5577 H   0  0  0  0  0  0  0  0  0  0  0  0
   -0.2475    2.8229    2.0201 C   0  0  0  0  0  0  0  0  0  0  0  0
   -1.2072    2.7979    2.5468 H   0  0  0  0  0  0  0  0  0  0  0  0
    0.5220    3.1525    2.7245 H   0  0  0  0  0  0  0  0  0  0  0  0
   -0.3101    3.5521    1.2057 H   0  0  0  0  0  0  0  0  0  0  0  0
  1  2  1  0  0  0  0
  2  3  1  0  0  0  0
  2  4  1  0  0  0  0
  2  5  1  0  0  0  0
  5  6  2  0  0  0  0
  5  7  1  0  0  0  0
  7  8  1  0  0  0  0
  7  9  1  0  0  0  0
  9 10  1  0  0  0  0
  9 11  1  0  0  0  0
  9 22  1  0  0  0  0
 11 12  1  0  0  0  0
 11 13  1  0  0  0  0
 11 14  1  0  0  0  0
 14 15  1  0  0  0  0
 14 20  2  0  0  0  0
 15 16  2  0  0  0  0
 16 17  1  0  0  0  0
 16 18  1  0  0  0  0
 18 19  1  0  0  0  0
 18 20  1  0  0  0  0
 20 21  1  0  0  0  0
 22 23  2  0  0  0  0
 22 24  1  0  0  0  0
 24 25  1  0  0  0  0
 24 26  1  0  0  0  0
 26 27  1  0  0  0  0
 26 28  1  0  0  0  0
 26 29  1  0  0  0  0
M  END
$$$$

  -OEChem-04042215593D

 29 29  0     1  0  0  0  0  0999 V2000
   -2.6888   -4.4179    1.2057 H   0  0  0  0  0  0  0  0  0  0  0  0
   -2.8590   -3.4133    0.8086 C   0  0  0  0  0  0  0  0  0  0  0  0
   -3.4732   -2.8534    1.5181 H   0  0  0  0  0  0  0  0  0  0  0  0
   -3.3937   -3.4952   -0.1407 H   0  0  0  0  0  0  0  0  0  0  0  0
   -1.5350   -2.7037    0.5970 C   0  0  0  0  0  0  0  0  0  0  0  0
   -0.4865   -3.2816    0.8373 O   0  0  0  0  0  0  0  0  0  0  0  0
   -1.5201   -1.4093    0.1256 N   0  0  0  0  0  0  0  0  0  0  0  0
   -2.4153   -0.9239    0.0679 H   0  0  0  0  0  0  0  0  0  0  0  0
   -0.3236   -0.5567    0.0890 C   0  0  1  0  0  0  0  0  0  0  0  0
    0.4535   -0.9415    0.7575 H   0  0  0  0  0  0  0  0  0  0  0  0
    0.2144   -0.5722   -1.3567 C   0  0  0  0  0  0  0  0  0  0  0  0
    0.6384   -1.5593   -1.5635 H   0  0  0  0  0  0  0  0  0  0  0  0
   -0.6316   -0.4282   -2.0352 H   0  0  0  0  0  0  0  0  0  0  0  0
    1.2241    0.4936   -1.6986 C   0  0  0  0  0  0  0  0  0  0  0  0
    1.1649    1.8455   -1.3836 N   0  0  0  0  0  0  0  0  0  0  0  0
    2.2396    2.4049   -1.8840 C   0  0  0  0  0  0  0  0  0  0  0  0
    2.4819    3.4614   -1.8130 H   0  0  0  0  0  0  0  0  0  0  0  0
    3.0158    1.4491   -2.5086 N   0  0  0  0  0  0  0  0  0  0  0  0
    3.9007    1.6261   -2.9808 H   0  0  0  0  0  0  0  0  0  0  0  0
    2.3743    0.2344   -2.3924 C   0  0  0  0  0  0  0  0  0  0  0  0
    2.6951   -0.7316   -2.7716 H   0  0  0  0  0  0  0  0  0  0  0  0
   -0.7409    0.8365    0.6224 C   0  0  0  0  0  0  0  0  0  0  0  0
   -1.8825    1.2456    0.4172 O   0  0  0  0  0  0  0  0  0  0  0  0
    0.0587    1.5019    1.5347 N   0  0  0  0  0  0  0  0  0  0  0  0
    1.0317    1.2129    1.5630 H   0  0  0  0  0  0  0  0  0  0  0  0
   -0.2830    2.8164    2.0616 C   0  0  0  0  0  0  0  0  0  0  0  0
   -1.2495    2.7857    2.5753 H   0  0  0  0  0  0  0  0  0  0  0  0
    0.4760    3.1442    2.7781 H   0  0  0  0  0  0  0  0  0  0  0  0
   -0.3368    3.5497    1.2502 H   0  0  0  0  0  0  0  0  0  0  0  0
  1  2  1  0  0  0  0
  2  3  1  0  0  0  0
  2  4  1  0  0  0  0
  2  5  1  0  0  0  0
  5  6  2  0  0  0  0
  5  7  1  0  0  0  0
  7  8  1  0  0  0  0
  7  9  1  0  0  0  0
  9 10  1  0  0  0  0
  9 11  1  0  0  0  0
  9 22  1  0  0  0  0
 11 12  1  0  0  0  0
 11 13  1  0  0  0  0
 11 14  1  0  0  0  0
 14 15  1  0  0  0  0
 14 20  2  0  0  0  0
 15 16  2  0  0  0  0
 16 17  1  0  0  0  0
 16 18  1  0  0  0  0
 18 19  1  0  0  0  0
 18 20  1  0  0  0  0
 20 21  1  0  0  0  0
 22 23  2  0  0  0  0
 22 24  1  0  0  0  0
 24 25  1  0  0  0  0
 24 26  1  0  0  0  0
 26 27  1  0  0  0  0
 26 28  1  0  0  0  0
 26 29  1  0  0  0  0
M  END
$$$$

  -OEChem-04042215593D

 29 29  0     1  0  0  0  0  0999 V2000
   -2.6899   -4.4161    1.1916 H   0  0  0  0  0  0  0  0  0  0  0  0
   -2.8565   -3.4095    0.7983 C   0  0  0  0  0  0  0  0  0  0  0  0
   -3.4696   -2.8503    1.5092 H   0  0  0  0  0  0  0  0  0  0  0  0
   -3.3906   -3.4864   -0.1517 H   0  0  0  0  0  0  0  0  0  0  0  0
   -1.5301   -2.7035    0.5900 C   0  0  0  0  0  0  0  0  0  0  0  0
   -0.4838   -3.2880    0.8232 O   0  0  0  0  0  0  0  0  0  0  0  0
   -1.5109   -1.4064    0.1258 N   0  0  0  0  0  0  0  0  0  0  0  0
   -2.4045   -0.9169    0.0767 H   0  0  0  0  0  0  0  0  0  0  0  0
   -0.3116   -0.5566    0.0993 C   0  0  1  0  0  0  0  0  0  0  0  0
    0.4665   -0.9452    0.7648 H   0  0  0  0  0  0  0  0  0  0  0  0
    0.2194   -0.5599   -1.3496 C   0  0  0  0  0  0  0  0  0  0  0  0
    0.6350   -1.5482   -1.5681 H   0  0  0  0  0  0  0  0  0  0  0  0
   -0.6327   -0.4054   -2.0181 H   0  0  0  0  0  0  0  0  0  0  0  0
    1.2342    0.4984   -1.7040 C   0  0  0  0  0  0  0  0  0  0  0  0
    1.3657    1.7758   -1.1717 N   0  0  0  0  0  0  0  0  0  0  0  0
    2.3814    2.3431   -1.7765 C   0  0  0  0  0  0  0  0  0  0  0  0
    2.7347    3.3523   -1.5850 H   0  0  0  0  0  0  0  0  0  0  0  0
    2.9341    1.4637   -2.6856 N   0  0  0  0  0  0  0  0  0  0  0  0
    3.7337    1.6607   -3.2848 H   0  0  0  0  0  0  0  0  0  0  0  0
    2.2103    0.2914   -2.6399 C   0  0  0  0  0  0  0  0  0  0  0  0
    2.3642   -0.6137   -3.2206 H   0  0  0  0  0  0  0  0  0  0  0  0
   -0.7406    0.8310    0.6408 C   0  0  0  0  0  0  0  0  0  0  0  0
   -1.8806    1.2383    0.4212 O   0  0  0  0  0  0  0  0  0  0  0  0
    0.0457    1.4971    1.5639 N   0  0  0  0  0  0  0  0  0  0  0  0
    1.0282    1.2386    1.5603 H   0  0  0  0  0  0  0  0  0  0  0  0
   -0.3092    2.8106    2.0853 C   0  0  0  0  0  0  0  0  0  0  0  0
   -1.2838    2.7772    2.5835 H   0  0  0  0  0  0  0  0  0  0  0  0
    0.4373    3.1400    2.8143 H   0  0  0  0  0  0  0  0  0  0  0  0
   -0.3522    3.5447    1.2738 H   0  0  0  0  0  0  0  0  0  0  0  0
  1  2  1  0  0  0  0
  2  3  1  0  0  0  0
  2  4  1  0  0  0  0
  2  5  1  0  0  0  0
  5  6  2  0  0  0  0
  5  7  1  0  0  0  0
  7  8  1  0  0  0  0
  7  9  1  0  0  0  0
  9 10  1  0  0  0  0
  9 11  1  0  0  0  0
  9 22  1  0  0  0  0
 11 12  1  0  0  0  0
 11 13  1  0  0  0  0
 11 14  1  0  0  0  0
 14 15  1  0  0  0  0
 14 20  2  0  0  0  0
 15 16  2  0  0  0  0
 16 17  1  0  0  0  0
 16 18  1  0  0  0  0
 18 19  1  0  0  0  0
 18 20  1  0  0  0  0
 20 21  1  0  0  0  0
 22 23  2  0  0  0  0
 22 24  1  0  0  0  0
 24 25  1  0  0  0  0
 24 26  1  0  0  0  0
 26 27  1  0  0  0  0
 26 28  1  0  0  0  0
 26 29  1  0  0  0  0
M  END
$$$$

  -OEChem-04042215593D

 29 29  0     1  0  0  0  0  0999 V2000
   -2.7059   -4.4075    1.1930 H   0  0  0  0  0  0  0  0  0  0  0  0
   -2.8653   -3.4008    0.7970 C   0  0  0  0  0  0  0  0  0  0  0  0
   -3.4743   -2.8357    1.5067 H   0  0  0  0  0  0  0  0  0  0  0  0
   -3.3998   -3.4759   -0.1530 H   0  0  0  0  0  0  0  0  0  0  0  0
   -1.5341   -2.7043    0.5874 C   0  0  0  0  0  0  0  0  0  0  0  0
   -0.4920   -3.2963    0.8198 O   0  0  0  0  0  0  0  0  0  0  0  0
   -1.5067   -1.4075    0.1225 N   0  0  0  0  0  0  0  0  0  0  0  0
   -2.3974   -0.9124    0.0755 H   0  0  0  0  0  0  0  0  0  0  0  0
   -0.3019   -0.5647    0.1010 C   0  0  1  0  0  0  0  0  0  0  0  0
    0.4754   -0.9569    0.7653 H   0  0  0  0  0  0  0  0  0  0  0  0
    0.2250   -0.5618   -1.3489 C   0  0  0  0  0  0  0  0  0  0  0  0
    0.6410   -1.5490   -1.5703 H   0  0  0  0  0  0  0  0  0  0  0  0
   -0.6273   -0.4051   -2.0170 H   0  0  0  0  0  0  0  0  0  0  0  0
    1.2458    0.4906   -1.7013 C   0  0  0  0  0  0  0  0  0  0  0  0
    1.5811    1.6387   -0.9916 N   0  0  0  0  0  0  0  0  0  0  0  0
    2.5175    2.2521   -1.6748 C   0  0  0  0  0  0  0  0  0  0  0  0
    2.9878    3.1872   -1.3839 H   0  0  0  0  0  0  0  0  0  0  0  0
    2.8169    1.5293   -2.8121 N   0  0  0  0  0  0  0  0  0  0  0  0
    3.5104    1.7903   -3.5108 H   0  0  0  0  0  0  0  0  0  0  0  0
    2.0136    0.4096   -2.8303 C   0  0  0  0  0  0  0  0  0  0  0  0
    1.9799   -0.3788   -3.5766 H   0  0  0  0  0  0  0  0  0  0  0  0
   -0.7318    0.8238    0.6410 C   0  0  0  0  0  0  0  0  0  0  0  0
   -1.8652    1.2390    0.4024 O   0  0  0  0  0  0  0  0  0  0  0  0
    0.0474    1.4905    1.5690 N   0  0  0  0  0  0  0  0  0  0  0  0
    1.0346    1.2478    1.5455 H   0  0  0  0  0  0  0  0  0  0  0  0
   -0.3129    2.8040    2.0869 C   0  0  0  0  0  0  0  0  0  0  0  0
   -1.2897    2.7686    2.5807 H   0  0  0  0  0  0  0  0  0  0  0  0
    0.4293    3.1368    2.8186 H   0  0  0  0  0  0  0  0  0  0  0  0
   -0.3542    3.5367    1.2741 H   0  0  0  0  0  0  0  0  0  0  0  0
  1  2  1  0  0  0  0
  2  3  1  0  0  0  0
  2  4  1  0  0  0  0
  2  5  1  0  0  0  0
  5  6  2  0  0  0  0
  5  7  1  0  0  0  0
  7  8  1  0  0  0  0
  7  9  1  0  0  0  0
  9 10  1  0  0  0  0
  9 11  1  0  0  0  0
  9 22  1  0  0  0  0
 11 12  1  0  0  0  0
 11 13  1  0  0  0  0
 11 14  1  0  0  0  0
 14 15  1  0  0  0  0
 14 20  2  0  0  0  0
 15 16  2  0  0  0  0
 16 17  1  0  0  0  0
 16 18  1  0  0  0  0
 18 19  1  0  0  0  0
 18 20  1  0  0  0  0
 20 21  1  0  0  0  0
 22 23  2  0  0  0  0
 22 24  1  0  0  0  0
 24 25  1  0  0  0  0
 24 26  1  0  0  0  0
 26 27  1  0  0  0  0
 26 28  1  0  0  0  0
 26 29  1  0  0  0  0
M  END
$$$$

  -OEChem-04042215593D

 29 29  0     1  0  0  0  0  0999 V2000
   -2.7351   -4.3962    1.2167 H   0  0  0  0  0  0  0  0  0  0  0  0
   -2.8846   -3.3923    0.8095 C   0  0  0  0  0  0  0  0  0  0  0  0
   -3.4912   -2.8143    1.5108 H   0  0  0  0  0  0  0  0  0  0  0  0
   -3.4165   -3.4731   -0.1417 H   0  0  0  0  0  0  0  0  0  0  0  0
   -1.5462   -2.7100    0.5989 C   0  0  0  0  0  0  0  0  0  0  0  0
   -0.5111   -3.3084    0.8448 O   0  0  0  0  0  0  0  0  0  0  0  0
   -1.5057   -1.4180    0.1217 N   0  0  0  0  0  0  0  0  0  0  0  0
   -2.3921   -0.9172    0.0628 H   0  0  0  0  0  0  0  0  0  0  0  0
   -0.2944   -0.5850    0.0939 C   0  0  1  0  0  0  0  0  0  0  0  0
    0.4820   -0.9774    0.7594 H   0  0  0  0  0  0  0  0  0  0  0  0
    0.2277   -0.5837   -1.3571 C   0  0  0  0  0  0  0  0  0  0  0  0
    0.6513   -1.5692   -1.5715 H   0  0  0  0  0  0  0  0  0  0  0  0
   -0.6220   -0.4344   -2.0303 H   0  0  0  0  0  0  0  0  0  0  0  0
    1.2541    0.4660   -1.6979 C   0  0  0  0  0  0  0  0  0  0  0  0
    1.7912    1.4362   -0.8570 N   0  0  0  0  0  0  0  0  0  0  0  0
    2.6319    2.1398   -1.5774 C   0  0  0  0  0  0  0  0  0  0  0  0
    3.2151    2.9791   -1.2096 H   0  0  0  0  0  0  0  0  0  0  0  0
    2.6660    1.6533   -2.8689 N   0  0  0  0  0  0  0  0  0  0  0  0
    3.2375    2.0275   -3.6242 H   0  0  0  0  0  0  0  0  0  0  0  0
    1.7918    0.5906   -2.9489 C   0  0  0  0  0  0  0  0  0  0  0  0
    1.5620   -0.0250   -3.8137 H   0  0  0  0  0  0  0  0  0  0  0  0
   -0.7136    0.8122    0.6195 C   0  0  0  0  0  0  0  0  0  0  0  0
   -1.8382    1.2399    0.3626 O   0  0  0  0  0  0  0  0  0  0  0  0
    0.0681    1.4831    1.5416 N   0  0  0  0  0  0  0  0  0  0  0  0
    1.0553    1.2367    1.5110 H   0  0  0  0  0  0  0  0  0  0  0  0
   -0.2835    2.8026    2.0494 C   0  0  0  0  0  0  0  0  0  0  0  0
   -1.2636    2.7786    2.5370 H   0  0  0  0  0  0  0  0  0  0  0  0
    0.4569    3.1317    2.7846 H   0  0  0  0  0  0  0  0  0  0  0  0
   -0.3123    3.5314    1.2329 H   0  0  0  0  0  0  0  0  0  0  0  0
  1  2  1  0  0  0  0
  2  3  1  0  0  0  0
  2  4  1  0  0  0  0
  2  5  1  0  0  0  0
  5  6  2  0  0  0  0
  5  7  1  0  0  0  0
  7  8  1  0  0  0  0
  7  9  1  0  0  0  0
  9 10  1  0  0  0  0
  9 11  1  0  0  0  0
  9 22  1  0  0  0  0
 11 12  1  0  0  0  0
 11 13  1  0  0  0  0
 11 14  1  0  0  0  0
 14 15  1  0  0  0  0
 14 20  2  0  0  0  0
 15 16  2  0  0  0  0
 16 17  1  0  0  0  0
 16 18  1  0  0  0  0
 18 19  1  0  0  0  0
 18 20  1  0  0  0  0
 20 21  1  0  0  0  0
 22 23  2  0  0  0  0
 22 24  1  0  0  0  0
 24 25  1  0  0  0  0
 24 26  1  0  0  0  0
 26 27  1  0  0  0  0
 26 28  1  0  0  0  0
 26 29  1  0  0  0  0
M  END
$$$$

  -OEChem-04042215593D

 29 29  0     1  0  0  0  0  0999 V2000
   -2.7558   -4.3902    1.2677 H   0  0  0  0  0  0  0  0  0  0  0  0
   -2.8994   -3.3927    0.8433 C   0  0  0  0  0  0  0  0  0  0  0  0
   -3.4992   -2.7982    1.5367 H   0  0  0  0  0  0  0  0  0  0  0  0
   -3.4354   -3.4861   -0.1042 H   0  0  0  0  0  0  0  0  0  0  0  0
   -1.5573   -2.7234    0.6151 C   0  0  0  0  0  0  0  0  0  0  0  0
   -0.5252   -3.3242    0.8666 O   0  0  0  0  0  0  0  0  0  0  0  0
   -1.5121   -1.4385    0.1195 N   0  0  0  0  0  0  0  0  0  0  0  0
   -2.3969   -0.9362    0.0557 H   0  0  0  0  0  0  0  0  0  0  0  0
   -0.2972   -0.6118    0.0702 C   0  0  1  0  0  0  0  0  0  0  0  0
    0.4824   -1.0022    0.7331 H   0  0  0  0  0  0  0  0  0  0  0  0
    0.2169   -0.6162   -1.3819 C   0  0  0  0  0  0  0  0  0  0  0  0
    0.6541   -1.5980   -1.5862 H   0  0  0  0  0  0  0  0  0  0  0  0
   -0.6299   -0.4809   -2.0616 H   0  0  0  0  0  0  0  0  0  0  0  0
    1.2424    0.4399   -1.7024 C   0  0  0  0  0  0  0  0  0  0  0  0
    1.9685    1.1962   -0.7855 N   0  0  0  0  0  0  0  0  0  0  0  0
    2.7164    2.0168   -1.4845 C   0  0  0  0  0  0  0  0  0  0  0  0
    3.4033    2.7443   -1.0614 H   0  0  0  0  0  0  0  0  0  0  0  0
    2.4994    1.8198   -2.8340 N   0  0  0  0  0  0  0  0  0  0  0  0
    2.9534    2.3368   -3.5849 H   0  0  0  0  0  0  0  0  0  0  0  0
    1.5593    0.8217   -2.9761 C   0  0  0  0  0  0  0  0  0  0  0  0
    1.1421    0.4175   -3.8939 H   0  0  0  0  0  0  0  0  0  0  0  0
   -0.6942    0.7975    0.5771 C   0  0  0  0  0  0  0  0  0  0  0  0
   -1.8083    1.2432    0.3078 O   0  0  0  0  0  0  0  0  0  0  0  0
    0.1038    1.4740    1.4798 N   0  0  0  0  0  0  0  0  0  0  0  0
    1.0871    1.2081    1.4485 H   0  0  0  0  0  0  0  0  0  0  0  0
   -0.2243    2.8073    1.9667 C   0  0  0  0  0  0  0  0  0  0  0  0
   -1.2008    2.8059    2.4623 H   0  0  0  0  0  0  0  0  0  0  0  0
    0.5267    3.1394    2.6899 H   0  0  0  0  0  0  0  0  0  0  0  0
   -0.2505    3.5213    1.1372 H   0  0  0  0  0  0  0  0  0  0  0  0
  1  2  1  0  0  0  0
  2  3  1  0  0  0  0
  2  4  1  0  0  0  0
  2  5  1  0  0  0  0
  5  6  2  0  0  0  0
  5  7  1  0  0  0  0
  7  8  1  0  0  0  0
  7  9  1  0  0  0  0
  9 10  1  0  0  0  0
  9 11  1  0  0  0  0
  9 22  1  0  0  0  0
 11 12  1  0  0  0  0
 11 13  1  0  0  0  0
 11 14  1  0  0  0  0
 14 15  1  0  0  0  0
 14 20  2  0  0  0  0
 15 16  2  0  0  0  0
 16 17  1  0  0  0  0
 16 18  1  0  0  0  0
 18 19  1  0  0  0  0
 18 20  1  0  0  0  0
 20 21  1  0  0  0  0
 22 23  2  0  0  0  0
 22 24  1  0  0  0  0
 24 25  1  0  0  0  0
 24 26  1  0  0  0  0
 26 27  1  0  0  0  0
 26 28  1  0  0  0  0
 26 29  1  0  0  0  0
M  END
$$$$

  -OEChem-04042215593D

 29 29  0     1  0  0  0  0  0999 V2000
   -2.7430   -4.4056    1.3149 H   0  0  0  0  0  0  0  0  0  0  0  0
   -2.8980   -3.4137    0.8811 C   0  0  0  0  0  0  0  0  0  0  0  0
   -3.4914   -2.8145    1.5761 H   0  0  0  0  0  0  0  0  0  0  0  0
   -3.4467   -3.5210   -0.0576 H   0  0  0  0  0  0  0  0  0  0  0  0
   -1.5624   -2.7406    0.6267 C   0  0  0  0  0  0  0  0  0  0  0  0
   -0.5250   -3.3339    0.8737 O   0  0  0  0  0  0  0  0  0  0  0  0
   -1.5297   -1.4608    0.1165 N   0  0  0  0  0  0  0  0  0  0  0  0
   -2.4185   -0.9664    0.0495 H   0  0  0  0  0  0  0  0  0  0  0  0
   -0.3192   -0.6303    0.0374 C   0  0  1  0  0  0  0  0  0  0  0  0
    0.4690   -1.0169    0.6927 H   0  0  0  0  0  0  0  0  0  0  0  0
    0.1866   -0.6376   -1.4157 C   0  0  0  0  0  0  0  0  0  0  0  0
    0.6406   -1.6118   -1.6190 H   0  0  0  0  0  0  0  0  0  0  0  0
   -0.6603   -0.5137   -2.0973 H   0  0  0  0  0  0  0  0  0  0  0  0
    1.1989    0.4375   -1.7080 C   0  0  0  0  0  0  0  0  0  0  0  0
    2.0973    0.9681   -0.7849 N   0  0  0  0  0  0  0  0  0  0  0  0
    2.7760    1.8957   -1.4183 C   0  0  0  0  0  0  0  0  0  0  0  0
    3.5616    2.5016   -0.9757 H   0  0  0  0  0  0  0  0  0  0  0  0
    2.3414    1.9902   -2.7263 N   0  0  0  0  0  0  0  0  0  0  0  0
    2.7047    2.6401   -3.4213 H   0  0  0  0  0  0  0  0  0  0  0  0
    1.3334    1.0684   -2.9125 C   0  0  0  0  0  0  0  0  0  0  0  0
    0.7553    0.8762   -3.8117 H   0  0  0  0  0  0  0  0  0  0  0  0
   -0.6890    0.7892    0.5312 C   0  0  0  0  0  0  0  0  0  0  0  0
   -1.7940    1.2544    0.2599 O   0  0  0  0  0  0  0  0  0  0  0  0
    0.1381    1.4670    1.4059 N   0  0  0  0  0  0  0  0  0  0  0  0
    1.1110    1.1623    1.3865 H   0  0  0  0  0  0  0  0  0  0  0  0
   -0.1449    2.8210    1.8622 C   0  0  0  0  0  0  0  0  0  0  0  0
   -1.1126    2.8596    2.3731 H   0  0  0  0  0  0  0  0  0  0  0  0
    0.6270    3.1508    2.5640 H   0  0  0  0  0  0  0  0  0  0  0  0
   -0.1651    3.5135    1.0144 H   0  0  0  0  0  0  0  0  0  0  0  0
  1  2  1  0  0  0  0
  2  3  1  0  0  0  0
  2  4  1  0  0  0  0
  2  5  1  0  0  0  0
  5  6  2  0  0  0  0
  5  7  1  0  0  0  0
  7  8  1  0  0  0  0
  7  9  1  0  0  0  0
  9 10  1  0  0  0  0
  9 11  1  0  0  0  0
  9 22  1  0  0  0  0
 11 12  1  0  0  0  0
 11 13  1  0  0  0  0
 11 14  1  0  0  0  0
 14 15  1  0  0  0  0
 14 20  2  0  0  0  0
 15 16  2  0  0  0  0
 16 17  1  0  0  0  0
 16 18  1  0  0  0  0
 18 19  1  0  0  0  0
 18 20  1  0  0  0  0
 20 21  1  0  0  0  0
 22 23  2  0  0  0  0
 22 24  1  0  0  0  0
 24 25  1  0  0  0  0
 24 26  1  0  0  0  0
 26 27  1  0  0  0  0
 26 28  1  0  0  0  0
 26 29  1  0  0  0  0
M  END
$$$$

  -OEChem-04042215593D

 29 29  0     1  0  0  0  0  0999 V2000
   -2.7168   -4.4312    1.3315 H   0  0  0  0  0  0  0  0  0  0  0  0
   -2.8856   -3.4439    0.8927 C   0  0  0  0  0  0  0  0  0  0  0  0
   -3.4907   -2.8513    1.5830 H   0  0  0  0  0  0  0  0  0  0  0  0
   -3.4289   -3.5639   -0.0476 H   0  0  0  0  0  0  0  0  0  0  0  0
   -1.5597   -2.7514    0.6394 C   0  0  0  0  0  0  0  0  0  0  0  0
   -0.5145   -3.3280    0.8924 O   0  0  0  0  0  0  0  0  0  0  0  0
   -1.5455   -1.4737    0.1222 N   0  0  0  0  0  0  0  0  0  0  0  0
   -2.4417   -0.9953    0.0447 H   0  0  0  0  0  0  0  0  0  0  0  0
   -0.3459   -0.6310    0.0159 C   0  0  1  0  0  0  0  0  0  0  0  0
    0.4518   -1.0115    0.6635 H   0  0  0  0  0  0  0  0  0  0  0  0
    0.1527   -0.6453   -1.4380 C   0  0  0  0  0  0  0  0  0  0  0  0
    0.6242   -1.6109   -1.6427 H   0  0  0  0  0  0  0  0  0  0  0  0
   -0.6963   -0.5332   -2.1187 H   0  0  0  0  0  0  0  0  0  0  0  0
    1.1431    0.4530   -1.7080 C   0  0  0  0  0  0  0  0  0  0  0  0
    2.2009    0.7774   -0.8629 N   0  0  0  0  0  0  0  0  0  0  0  0
    2.8247    1.7864   -1.4242 C   0  0  0  0  0  0  0  0  0  0  0  0
    3.7034    2.2774   -1.0157 H   0  0  0  0  0  0  0  0  0  0  0  0
    2.1973    2.1335   -2.6057 N   0  0  0  0  0  0  0  0  0  0  0  0
    2.4866    2.8880   -3.2256 H   0  0  0  0  0  0  0  0  0  0  0  0
    1.1233    1.2886   -2.7885 C   0  0  0  0  0  0  0  0  0  0  0  0
    0.4049    1.2777   -3.6034 H   0  0  0  0  0  0  0  0  0  0  0  0
   -0.6913    0.7949    0.5022 C   0  0  0  0  0  0  0  0  0  0  0  0
   -1.7875    1.2789    0.2317 O   0  0  0  0  0  0  0  0  0  0  0  0
    0.1669    1.4694    1.3491 N   0  0  0  0  0  0  0  0  0  0  0  0
    1.1256    1.1227    1.3536 H   0  0  0  0  0  0  0  0  0  0  0  0
   -0.0735    2.8363    1.7904 C   0  0  0  0  0  0  0  0  0  0  0  0
   -1.0486    2.9163    2.2820 H   0  0  0  0  0  0  0  0  0  0  0  0
    0.6965    3.1419    2.5052 H   0  0  0  0  0  0  0  0  0  0  0  0
   -0.0506    3.5218    0.9372 H   0  0  0  0  0  0  0  0  0  0  0  0
  1  2  1  0  0  0  0
  2  3  1  0  0  0  0
  2  4  1  0  0  0  0
  2  5  1  0  0  0  0
  5  6  2  0  0  0  0
  5  7  1  0  0  0  0
  7  8  1  0  0  0  0
  7  9  1  0  0  0  0
  9 10  1  0  0  0  0
  9 11  1  0  0  0  0
  9 22  1  0  0  0  0
 11 12  1  0  0  0  0
 11 13  1  0  0  0  0
 11 14  1  0  0  0  0
 14 15  1  0  0  0  0
 14 20  2  0  0  0  0
 15 16  2  0  0  0  0
 16 17  1  0  0  0  0
 16 18  1  0  0  0  0
 18 19  1  0  0  0  0
 18 20  1  0  0  0  0
 20 21  1  0  0  0  0
 22 23  2  0  0  0  0
 22 24  1  0  0  0  0
 24 25  1  0  0  0  0
 24 26  1  0  0  0  0
 26 27  1  0  0  0  0
 26 28  1  0  0  0  0
 26 29  1  0  0  0  0
M  END
$$$$

  -OEChem-04042215593D

 29 29  0     1  0  0  0  0  0999 V2000
   -2.6944   -4.4514    1.3273 H   0  0  0  0  0  0  0  0  0  0  0  0
   -2.8740   -3.4649    0.8911 C   0  0  0  0  0  0  0  0  0  0  0  0
   -3.4872   -2.8813    1.5819 H   0  0  0  0  0  0  0  0  0  0  0  0
   -3.4140   -3.5887   -0.0505 H   0  0  0  0  0  0  0  0  0  0  0  0
   -1.5556   -2.7565    0.6427 C   0  0  0  0  0  0  0  0  0  0  0  0
   -0.5050   -3.3190    0.9038 O   0  0  0  0  0  0  0  0  0  0  0  0
   -1.5552   -1.4786    0.1255 N   0  0  0  0  0  0  0  0  0  0  0  0
   -2.4571   -1.0143    0.0345 H   0  0  0  0  0  0  0  0  0  0  0  0
   -0.3640   -0.6261    0.0060 C   0  0  1  0  0  0  0  0  0  0  0  0
    0.4400   -1.0038    0.6473 H   0  0  0  0  0  0  0  0  0  0  0  0
    0.1304   -0.6414   -1.4484 C   0  0  0  0  0  0  0  0  0  0  0  0
    0.6105   -1.6009   -1.6611 H   0  0  0  0  0  0  0  0  0  0  0  0
   -0.7215   -0.5316   -2.1259 H   0  0  0  0  0  0  0  0  0  0  0  0
    1.1049    0.4729   -1.7025 C   0  0  0  0  0  0  0  0  0  0  0  0
    2.3067    0.6158   -1.0187 N   0  0  0  0  0  0  0  0  0  0  0  0
    2.8839    1.6872   -1.5095 C   0  0  0  0  0  0  0  0  0  0  0  0
    3.8471    2.0745   -1.1895 H   0  0  0  0  0  0  0  0  0  0  0  0
    2.0858    2.2500   -2.4877 N   0  0  0  0  0  0  0  0  0  0  0  0
    2.3092    3.0902   -3.0182 H   0  0  0  0  0  0  0  0  0  0  0  0
    0.9509    1.4778   -2.6149 C   0  0  0  0  0  0  0  0  0  0  0  0
    0.1065    1.6234   -3.2826 H   0  0  0  0  0  0  0  0  0  0  0  0
   -0.6961    0.8016    0.4913 C   0  0  0  0  0  0  0  0  0  0  0  0
   -1.7820    1.3015    0.2113 O   0  0  0  0  0  0  0  0  0  0  0  0
    0.1784    1.4737    1.3233 N   0  0  0  0  0  0  0  0  0  0  0  0
    1.1209    1.0904    1.3748 H   0  0  0  0  0  0  0  0  0  0  0  0
   -0.0389    2.8464    1.7584 C   0  0  0  0  0  0  0  0  0  0  0  0
   -1.0046    2.9406    2.2662 H   0  0  0  0  0  0  0  0  0  0  0  0
    0.7468    3.1487    2.4572 H   0  0  0  0  0  0  0  0  0  0  0  0
   -0.0232    3.5255    0.8998 H   0  0  0  0  0  0  0  0  0  0  0  0
  1  2  1  0  0  0  0
  2  3  1  0  0  0  0
  2  4  1  0  0  0  0
  2  5  1  0  0  0  0
  5  6  2  0  0  0  0
  5  7  1  0  0  0  0
  7  8  1  0  0  0  0
  7  9  1  0  0  0  0
  9 10  1  0  0  0  0
  9 11  1  0  0  0  0
  9 22  1  0  0  0  0
 11 12  1  0  0  0  0
 11 13  1  0  0  0  0
 11 14  1  0  0  0  0
 14 15  1  0  0  0  0
 14 20  2  0  0  0  0
 15 16  2  0  0  0  0
 16 17  1  0  0  0  0
 16 18  1  0  0  0  0
 18 19  1  0  0  0  0
 18 20  1  0  0  0  0
 20 21  1  0  0  0  0
 22 23  2  0  0  0  0
 22 24  1  0  0  0  0
 24 25  1  0  0  0  0
 24 26  1  0  0  0  0
 26 27  1  0  0  0  0
 26 28  1  0  0  0  0
 26 29  1  0  0  0  0
M  END
$$$$

  -OEChem-04042215593D

 29 29  0     1  0  0  0  0  0999 V2000
   -2.6851   -4.4666    1.2959 H   0  0  0  0  0  0  0  0  0  0  0  0
   -2.8664   -3.4774    0.8664 C   0  0  0  0  0  0  0  0  0  0  0  0
   -3.4980   -2.9067    1.5516 H   0  0  0  0  0  0  0  0  0  0  0  0
   -3.3883   -3.5975   -0.0860 H   0  0  0  0  0  0  0  0  0  0  0  0
   -1.5512   -2.7531    0.6489 C   0  0  0  0  0  0  0  0  0  0  0  0
   -0.5001   -3.3036    0.9322 O   0  0  0  0  0  0  0  0  0  0  0  0
   -1.5540   -1.4733    0.1362 N   0  0  0  0  0  0  0  0  0  0  0  0
   -2.4585   -1.0191    0.0230 H   0  0  0  0  0  0  0  0  0  0  0  0
   -0.3665   -0.6158    0.0184 C   0  0  1  0  0  0  0  0  0  0  0  0
    0.4417   -0.9935    0.6545 H   0  0  0  0  0  0  0  0  0  0  0  0
    0.1200   -0.6290   -1.4390 C   0  0  0  0  0  0  0  0  0  0  0  0
    0.5964   -1.5881   -1.6628 H   0  0  0  0  0  0  0  0  0  0  0  0
   -0.7372   -0.5143   -2.1091 H   0  0  0  0  0  0  0  0  0  0  0  0
    1.0891    0.4883   -1.6972 C   0  0  0  0  0  0  0  0  0  0  0  0
    2.4049    0.4839   -1.2551 N   0  0  0  0  0  0  0  0  0  0  0  0
    2.9430    1.5999   -1.6866 C   0  0  0  0  0  0  0  0  0  0  0  0
    3.9717    1.9009   -1.5098 H   0  0  0  0  0  0  0  0  0  0  0  0
    2.0094    2.3333   -2.3951 N   0  0  0  0  0  0  0  0  0  0  0  0
    2.1792    3.2366   -2.8336 H   0  0  0  0  0  0  0  0  0  0  0  0
    0.8271    1.6245   -2.4095 C   0  0  0  0  0  0  0  0  0  0  0  0
   -0.1180    1.8949   -2.8726 H   0  0  0  0  0  0  0  0  0  0  0  0
   -0.6991    0.8096    0.5076 C   0  0  0  0  0  0  0  0  0  0  0  0
   -1.7726    1.3216    0.2036 O   0  0  0  0  0  0  0  0  0  0  0  0
    0.1743    1.4829    1.3404 N   0  0  0  0  0  0  0  0  0  0  0  0
    1.0977    1.0704    1.4566 H   0  0  0  0  0  0  0  0  0  0  0  0
   -0.0397    2.8558    1.7773 C   0  0  0  0  0  0  0  0  0  0  0  0
   -1.0044    2.9508    2.2868 H   0  0  0  0  0  0  0  0  0  0  0  0
    0.7480    3.1564    2.4748 H   0  0  0  0  0  0  0  0  0  0  0  0
   -0.0242    3.5362    0.9196 H   0  0  0  0  0  0  0  0  0  0  0  0
  1  2  1  0  0  0  0
  2  3  1  0  0  0  0
  2  4  1  0  0  0  0
  2  5  1  0  0  0  0
  5  6  2  0  0  0  0
  5  7  1  0  0  0  0
  7  8  1  0  0  0  0
  7  9  1  0  0  0  0
  9 10  1  0  0  0  0
  9 11  1  0  0  0  0
  9 22  1  0  0  0  0
 11 12  1  0  0  0  0
 11 13  1  0  0  0  0
 11 14  1  0  0  0  0
 14 15  1  0  0  0  0
 14 20  2  0  0  0  0
 15 16  2  0  0  0  0
 16 17  1  0  0  0  0
 16 18  1  0  0  0  0
 18 19  1  0  0  0  0
 18 20  1  0  0  0  0
 20 21  1  0  0  0  0
 22 23  2  0  0  0  0
 22 24  1  0  0  0  0
 24 25  1  0  0  0  0
 24 26  1  0  0  0  0
 26 27  1  0  0  0  0
 26 28  1  0  0  0  0
 26 29  1  0  0  0  0
M  END
$$$$

  -OEChem-04042215593D

 29 29  0     1  0  0  0  0  0999 V2000
   -2.6814   -4.4794    1.2510 H   0  0  0  0  0  0  0  0  0  0  0  0
   -2.8631   -3.4848    0.8341 C   0  0  0  0  0  0  0  0  0  0  0  0
   -3.5141   -2.9311    1.5149 H   0  0  0  0  0  0  0  0  0  0  0  0
   -3.3637   -3.5938   -0.1310 H   0  0  0  0  0  0  0  0  0  0  0  0
   -1.5498   -2.7460    0.6562 C   0  0  0  0  0  0  0  0  0  0  0  0
   -0.5015   -3.2863    0.9681 O   0  0  0  0  0  0  0  0  0  0  0  0
   -1.5508   -1.4631    0.1509 N   0  0  0  0  0  0  0  0  0  0  0  0
   -2.4555   -1.0190    0.0057 H   0  0  0  0  0  0  0  0  0  0  0  0
   -0.3640   -0.6028    0.0436 C   0  0  1  0  0  0  0  0  0  0  0  0
    0.4446   -0.9826    0.6776 H   0  0  0  0  0  0  0  0  0  0  0  0
    0.1196   -0.6112   -1.4165 C   0  0  0  0  0  0  0  0  0  0  0  0
    0.5879   -1.5723   -1.6487 H   0  0  0  0  0  0  0  0  0  0  0  0
   -0.7418   -0.4895   -2.0800 H   0  0  0  0  0  0  0  0  0  0  0  0
    1.0900    0.5018   -1.6910 C   0  0  0  0  0  0  0  0  0  0  0  0
    2.4639    0.3846   -1.5360 N   0  0  0  0  0  0  0  0  0  0  0  0
    2.9795    1.5298   -1.9149 C   0  0  0  0  0  0  0  0  0  0  0  0
    4.0405    1.7631   -1.9141 H   0  0  0  0  0  0  0  0  0  0  0  0
    1.9753    2.3915   -2.3146 N   0  0  0  0  0  0  0  0  0  0  0  0
    2.1155    3.3387   -2.6615 H   0  0  0  0  0  0  0  0  0  0  0  0
    0.7699    1.7357   -2.1850 C   0  0  0  0  0  0  0  0  0  0  0  0
   -0.2282    2.1014   -2.4134 H   0  0  0  0  0  0  0  0  0  0  0  0
   -0.7041    0.8183    0.5398 C   0  0  0  0  0  0  0  0  0  0  0  0
   -1.7639    1.3412    0.2084 O   0  0  0  0  0  0  0  0  0  0  0  0
    0.1606    1.4914    1.3821 N   0  0  0  0  0  0  0  0  0  0  0  0
    1.0645    1.0580    1.5566 H   0  0  0  0  0  0  0  0  0  0  0  0
   -0.0613    2.8603    1.8276 C   0  0  0  0  0  0  0  0  0  0  0  0
   -1.0147    2.9406    2.3603 H   0  0  0  0  0  0  0  0  0  0  0  0
    0.7391    3.1705    2.5061 H   0  0  0  0  0  0  0  0  0  0  0  0
   -0.0757    3.5431    0.9717 H   0  0  0  0  0  0  0  0  0  0  0  0
  1  2  1  0  0  0  0
  2  3  1  0  0  0  0
  2  4  1  0  0  0  0
  2  5  1  0  0  0  0
  5  6  2  0  0  0  0
  5  7  1  0  0  0  0
  7  8  1  0  0  0  0
  7  9  1  0  0  0  0
  9 10  1  0  0  0  0
  9 11  1  0  0  0  0
  9 22  1  0  0  0  0
 11 12  1  0  0  0  0
 11 13  1  0  0  0  0
 11 14  1  0  0  0  0
 14 15  1  0  0  0  0
 14 20  2  0  0  0  0
 15 16  2  0  0  0  0
 16 17  1  0  0  0  0
 16 18  1  0  0  0  0
 18 19  1  0  0  0  0
 18 20  1  0  0  0  0
 20 21  1  0  0  0  0
 22 23  2  0  0  0  0
 22 24  1  0  0  0  0
 24 25  1  0  0  0  0
 24 26  1  0  0  0  0
 26 27  1  0  0  0  0
 26 28  1  0  0  0  0
 26 29  1  0  0  0  0
M  END
$$$$

  -OEChem-04042215593D

 29 29  0     1  0  0  0  0  0999 V2000
   -2.6739   -4.4884    1.1935 H   0  0  0  0  0  0  0  0  0  0  0  0
   -2.8556   -3.4876    0.7919 C   0  0  0  0  0  0  0  0  0  0  0  0
   -3.5297   -2.9544    1.4664 H   0  0  0  0  0  0  0  0  0  0  0  0
   -3.3300   -3.5828   -0.1878 H   0  0  0  0  0  0  0  0  0  0  0  0
   -1.5468   -2.7314    0.6628 C   0  0  0  0  0  0  0  0  0  0  0  0
   -0.5018   -3.2618    1.0015 O   0  0  0  0  0  0  0  0  0  0  0  0
   -1.5472   -1.4436    0.1702 N   0  0  0  0  0  0  0  0  0  0  0  0
   -2.4515   -1.0084   -0.0020 H   0  0  0  0  0  0  0  0  0  0  0  0
   -0.3619   -0.5791    0.0798 C   0  0  1  0  0  0  0  0  0  0  0  0
    0.4427   -0.9616    0.7171 H   0  0  0  0  0  0  0  0  0  0  0  0
    0.1291   -0.5901   -1.3798 C   0  0  0  0  0  0  0  0  0  0  0  0
    0.5920   -1.5557   -1.6053 H   0  0  0  0  0  0  0  0  0  0  0  0
   -0.7311   -0.4719   -2.0454 H   0  0  0  0  0  0  0  0  0  0  0  0
    1.1028    0.5140   -1.6846 C   0  0  0  0  0  0  0  0  0  0  0  0
    2.4684    0.3141   -1.8296 N   0  0  0  0  0  0  0  0  0  0  0  0
    2.9815    1.4697   -2.1785 C   0  0  0  0  0  0  0  0  0  0  0  0
    4.0360    1.6484   -2.3687 H   0  0  0  0  0  0  0  0  0  0  0  0
    1.9826    2.4200   -2.2742 N   0  0  0  0  0  0  0  0  0  0  0  0
    2.1175    3.3903   -2.5523 H   0  0  0  0  0  0  0  0  0  0  0  0
    0.7819    1.8107   -1.9798 C   0  0  0  0  0  0  0  0  0  0  0  0
   -0.2155    2.2448   -1.9832 H   0  0  0  0  0  0  0  0  0  0  0  0
   -0.7120    0.8347    0.5881 C   0  0  0  0  0  0  0  0  0  0  0  0
   -1.7644    1.3634    0.2427 O   0  0  0  0  0  0  0  0  0  0  0  0
    0.1423    1.5038    1.4445 N   0  0  0  0  0  0  0  0  0  0  0  0
    1.0293    1.0556    1.6610 H   0  0  0  0  0  0  0  0  0  0  0  0
   -0.1010    2.8571    1.9262 C   0  0  0  0  0  0  0  0  0  0  0  0
   -1.0601    2.9109    2.4520 H   0  0  0  0  0  0  0  0  0  0  0  0
    0.6893    3.1580    2.6205 H   0  0  0  0  0  0  0  0  0  0  0  0
   -0.1159    3.5636    1.0898 H   0  0  0  0  0  0  0  0  0  0  0  0
  1  2  1  0  0  0  0
  2  3  1  0  0  0  0
  2  4  1  0  0  0  0
  2  5  1  0  0  0  0
  5  6  2  0  0  0  0
  5  7  1  0  0  0  0
  7  8  1  0  0  0  0
  7  9  1  0  0  0  0
  9 10  1  0  0  0  0
  9 11  1  0  0  0  0
  9 22  1  0  0  0  0
 11 12  1  0  0  0  0
 11 13  1  0  0  0  0
 11 14  1  0  0  0  0
 14 15  1  0  0  0  0
 14 20  2  0  0  0  0
 15 16  2  0  0  0  0
 16 17  1  0  0  0  0
 16 18  1  0  0  0  0
 18 19  1  0  0  0  0
 18 20  1  0  0  0  0
 20 21  1  0  0  0  0
 22 23  2  0  0  0  0
 22 24  1  0  0  0  0
 24 25  1  0  0  0  0
 24 26  1  0  0  0  0
 26 27  1  0  0  0  0
 26 28  1  0  0  0  0
 26 29  1  0  0  0  0
M  END
$$$$

  -OEChem-04042215593D

 29 29  0     1  0  0  0  0  0999 V2000
   -2.6651   -4.4884    1.1520 H   0  0  0  0  0  0  0  0  0  0  0  0
   -2.8470   -3.4839    0.7599 C   0  0  0  0  0  0  0  0  0  0  0  0
   -3.5343   -2.9627    1.4308 H   0  0  0  0  0  0  0  0  0  0  0  0
   -3.3063   -3.5700   -0.2279 H   0  0  0  0  0  0  0  0  0  0  0  0
   -1.5409   -2.7187    0.6588 C   0  0  0  0  0  0  0  0  0  0  0  0
   -0.4982   -3.2449    1.0114 O   0  0  0  0  0  0  0  0  0  0  0  0
   -1.5413   -1.4249    0.1819 N   0  0  0  0  0  0  0  0  0  0  0  0
   -2.4448   -0.9950   -0.0074 H   0  0  0  0  0  0  0  0  0  0  0  0
   -0.3588   -0.5546    0.1128 C   0  0  1  0  0  0  0  0  0  0  0  0
    0.4395   -0.9381    0.7574 H   0  0  0  0  0  0  0  0  0  0  0  0
    0.1487   -0.5673   -1.3441 C   0  0  0  0  0  0  0  0  0  0  0  0
    0.6110   -1.5369   -1.5531 H   0  0  0  0  0  0  0  0  0  0  0  0
   -0.7067   -0.4596   -2.0173 H   0  0  0  0  0  0  0  0  0  0  0  0
    1.1270    0.5258   -1.6852 C   0  0  0  0  0  0  0  0  0  0  0  0
    2.4177    0.2654   -2.1258 N   0  0  0  0  0  0  0  0  0  0  0  0
    2.9513    1.4201   -2.4443 C   0  0  0  0  0  0  0  0  0  0  0  0
    3.9609    1.5548   -2.8219 H   0  0  0  0  0  0  0  0  0  0  0  0
    2.0354    2.4336   -2.2396 N   0  0  0  0  0  0  0  0  0  0  0  0
    2.1917    3.4186   -2.4459 H   0  0  0  0  0  0  0  0  0  0  0  0
    0.8650    1.8665   -1.7835 C   0  0  0  0  0  0  0  0  0  0  0  0
   -0.0806    2.3605   -1.5719 H   0  0  0  0  0  0  0  0  0  0  0  0
   -0.7254    0.8485    0.6358 C   0  0  0  0  0  0  0  0  0  0  0  0
   -1.7750    1.3780    0.2845 O   0  0  0  0  0  0  0  0  0  0  0  0
    0.1156    1.5115    1.5102 N   0  0  0  0  0  0  0  0  0  0  0  0
    0.9838    1.0478    1.7662 H   0  0  0  0  0  0  0  0  0  0  0  0
   -0.1572    2.8414    2.0389 C   0  0  0  0  0  0  0  0  0  0  0  0
   -1.1193    2.8565    2.5615 H   0  0  0  0  0  0  0  0  0  0  0  0
    0.6242    3.1327    2.7472 H   0  0  0  0  0  0  0  0  0  0  0  0
   -0.1832    3.5776    1.2289 H   0  0  0  0  0  0  0  0  0  0  0  0
  1  2  1  0  0  0  0
  2  3  1  0  0  0  0
  2  4  1  0  0  0  0
  2  5  1  0  0  0  0
  5  6  2  0  0  0  0
  5  7  1  0  0  0  0
  7  8  1  0  0  0  0
  7  9  1  0  0  0  0
  9 10  1  0  0  0  0
  9 11  1  0  0  0  0
  9 22  1  0  0  0  0
 11 12  1  0  0  0  0
 11 13  1  0  0  0  0
 11 14  1  0  0  0  0
 14 15  1  0  0  0  0
 14 20  2  0  0  0  0
 15 16  2  0  0  0  0
 16 17  1  0  0  0  0
 16 18  1  0  0  0  0
 18 19  1  0  0  0  0
 18 20  1  0  0  0  0
 20 21  1  0  0  0  0
 22 23  2  0  0  0  0
 22 24  1  0  0  0  0
 24 25  1  0  0  0  0
 24 26  1  0  0  0  0
 26 27  1  0  0  0  0
 26 28  1  0  0  0  0
 26 29  1  0  0  0  0
M  END
$$$$

  -OEChem-04042215593D

 29 29  0     1  0  0  0  0  0999 V2000
   -2.6489   -4.4865    1.1129 H   0  0  0  0  0  0  0  0  0  0  0  0
   -2.8320   -3.4796    0.7271 C   0  0  0  0  0  0  0  0  0  0  0  0
   -3.5325   -2.9695    1.3928 H   0  0  0  0  0  0  0  0  0  0  0  0
   -3.2767   -3.5595   -0.2678 H   0  0  0  0  0  0  0  0  0  0  0  0
   -1.5299   -2.7044    0.6515 C   0  0  0  0  0  0  0  0  0  0  0  0
   -0.4878   -3.2255    1.0133 O   0  0  0  0  0  0  0  0  0  0  0  0
   -1.5337   -1.4049    0.1906 N   0  0  0  0  0  0  0  0  0  0  0  0
   -2.4373   -0.9803   -0.0104 H   0  0  0  0  0  0  0  0  0  0  0  0
   -0.3555   -0.5276    0.1402 C   0  0  1  0  0  0  0  0  0  0  0  0
    0.4389   -0.9107    0.7896 H   0  0  0  0  0  0  0  0  0  0  0  0
    0.1639   -0.5415   -1.3153 C   0  0  0  0  0  0  0  0  0  0  0  0
    0.6297   -1.5143   -1.5011 H   0  0  0  0  0  0  0  0  0  0  0  0
   -0.6879   -0.4539   -1.9960 H   0  0  0  0  0  0  0  0  0  0  0  0
    1.1458    0.5376   -1.7027 C   0  0  0  0  0  0  0  0  0  0  0  0
    2.2907    0.2369   -2.4305 N   0  0  0  0  0  0  0  0  0  0  0  0
    2.8842    1.3724   -2.7059 C   0  0  0  0  0  0  0  0  0  0  0  0
    3.8113    1.4704   -3.2636 H   0  0  0  0  0  0  0  0  0  0  0  0
    2.1473    2.4205   -2.1925 N   0  0  0  0  0  0  0  0  0  0  0  0
    2.3695    3.4075   -2.3080 H   0  0  0  0  0  0  0  0  0  0  0  0
    1.0286    1.8985   -1.5793 C   0  0  0  0  0  0  0  0  0  0  0  0
    0.2039    2.4495   -1.1352 H   0  0  0  0  0  0  0  0  0  0  0  0
   -0.7449    0.8619    0.6795 C   0  0  0  0  0  0  0  0  0  0  0  0
   -1.7952    1.3869    0.3252 O   0  0  0  0  0  0  0  0  0  0  0  0
    0.0804    1.5218    1.5714 N   0  0  0  0  0  0  0  0  0  0  0  0
    0.9347    1.0489    1.8559 H   0  0  0  0  0  0  0  0  0  0  0  0
   -0.2345    2.8203    2.1524 C   0  0  0  0  0  0  0  0  0  0  0  0
   -1.1805    2.7751    2.7020 H   0  0  0  0  0  0  0  0  0  0  0  0
    0.5544    3.1230    2.8476 H   0  0  0  0  0  0  0  0  0  0  0  0
   -0.3165    3.5810    1.3693 H   0  0  0  0  0  0  0  0  0  0  0  0
  1  2  1  0  0  0  0
  2  3  1  0  0  0  0
  2  4  1  0  0  0  0
  2  5  1  0  0  0  0
  5  6  2  0  0  0  0
  5  7  1  0  0  0  0
  7  8  1  0  0  0  0
  7  9  1  0  0  0  0
  9 10  1  0  0  0  0
  9 11  1  0  0  0  0
  9 22  1  0  0  0  0
 11 12  1  0  0  0  0
 11 13  1  0  0  0  0
 11 14  1  0  0  0  0
 14 15  1  0  0  0  0
 14 20  2  0  0  0  0
 15 16  2  0  0  0  0
 16 17  1  0  0  0  0
 16 18  1  0  0  0  0
 18 19  1  0  0  0  0
 18 20  1  0  0  0  0
 20 21  1  0  0  0  0
 22 23  2  0  0  0  0
 22 24  1  0  0  0  0
 24 25  1  0  0  0  0
 24 26  1  0  0  0  0
 26 27  1  0  0  0  0
 26 28  1  0  0  0  0
 26 29  1  0  0  0  0
M  END
$$$$

  -OEChem-04042215593D

 29 29  0     1  0  0  0  0  0999 V2000
   -2.6221   -4.4850    1.0594 H   0  0  0  0  0  0  0  0  0  0  0  0
   -2.8077   -3.4754    0.6824 C   0  0  0  0  0  0  0  0  0  0  0  0
   -3.5300   -2.9823    1.3373 H   0  0  0  0  0  0  0  0  0  0  0  0
   -3.2272   -3.5474   -0.3238 H   0  0  0  0  0  0  0  0  0  0  0  0
   -1.5135   -2.6846    0.6477 C   0  0  0  0  0  0  0  0  0  0  0  0
   -0.4740   -3.1977    1.0286 O   0  0  0  0  0  0  0  0  0  0  0  0
   -1.5193   -1.3807    0.2000 N   0  0  0  0  0  0  0  0  0  0  0  0
   -2.4205   -0.9631   -0.0255 H   0  0  0  0  0  0  0  0  0  0  0  0
   -0.3438   -0.4984    0.1704 C   0  0  1  0  0  0  0  0  0  0  0  0
    0.4524   -0.8811    0.8173 H   0  0  0  0  0  0  0  0  0  0  0  0
    0.1648   -0.5061   -1.2906 C   0  0  0  0  0  0  0  0  0  0  0  0
    0.6267   -1.4823   -1.4694 H   0  0  0  0  0  0  0  0  0  0  0  0
   -0.6941   -0.4279   -1.9637 H   0  0  0  0  0  0  0  0  0  0  0  0
    1.1476    0.5544   -1.7310 C   0  0  0  0  0  0  0  0  0  0  0  0
    2.0664    0.2536   -2.7298 N   0  0  0  0  0  0  0  0  0  0  0  0
    2.7603    1.3398   -2.9633 C   0  0  0  0  0  0  0  0  0  0  0  0
    3.5590    1.4226   -3.6950 H   0  0  0  0  0  0  0  0  0  0  0  0
    2.3165    2.3591   -2.1467 N   0  0  0  0  0  0  0  0  0  0  0  0
    2.6687    3.3144   -2.1560 H   0  0  0  0  0  0  0  0  0  0  0  0
    1.2824    1.8732   -1.3752 C   0  0  0  0  0  0  0  0  0  0  0  0
    0.6798    2.4392   -0.6739 H   0  0  0  0  0  0  0  0  0  0  0  0
   -0.7617    0.8779    0.7231 C   0  0  0  0  0  0  0  0  0  0  0  0
   -1.8131    1.3940    0.3606 O   0  0  0  0  0  0  0  0  0  0  0  0
    0.0398    1.5399    1.6367 N   0  0  0  0  0  0  0  0  0  0  0  0
    0.8733    1.0568    1.9630 H   0  0  0  0  0  0  0  0  0  0  0  0
   -0.3324    2.8030    2.2622 C   0  0  0  0  0  0  0  0  0  0  0  0
   -1.2546    2.6862    2.8409 H   0  0  0  0  0  0  0  0  0  0  0  0
    0.4605    3.1382    2.9378 H   0  0  0  0  0  0  0  0  0  0  0  0
   -0.4883    3.5767    1.5031 H   0  0  0  0  0  0  0  0  0  0  0  0
  1  2  1  0  0  0  0
  2  3  1  0  0  0  0
  2  4  1  0  0  0  0
  2  5  1  0  0  0  0
  5  6  2  0  0  0  0
  5  7  1  0  0  0  0
  7  8  1  0  0  0  0
  7  9  1  0  0  0  0
  9 10  1  0  0  0  0
  9 11  1  0  0  0  0
  9 22  1  0  0  0  0
 11 12  1  0  0  0  0
 11 13  1  0  0  0  0
 11 14  1  0  0  0  0
 14 15  1  0  0  0  0
 14 20  2  0  0  0  0
 15 16  2  0  0  0  0
 16 17  1  0  0  0  0
 16 18  1  0  0  0  0
 18 19  1  0  0  0  0
 18 20  1  0  0  0  0
 20 21  1  0  0  0  0
 22 23  2  0  0  0  0
 22 24  1  0  0  0  0
 24 25  1  0  0  0  0
 24 26  1  0  0  0  0
 26 27  1  0  0  0  0
 26 28  1  0  0  0  0
 26 29  1  0  0  0  0
M  END
$$$$

  -OEChem-04042215593D

 29 29  0     1  0  0  0  0  0999 V2000
   -2.6163   -4.4780    1.0144 H   0  0  0  0  0  0  0  0  0  0  0  0
   -2.7966   -3.4657    0.6420 C   0  0  0  0  0  0  0  0  0  0  0  0
   -3.5344   -2.9797    1.2849 H   0  0  0  0  0  0  0  0  0  0  0  0
   -3.1938   -3.5304   -0.3739 H   0  0  0  0  0  0  0  0  0  0  0  0
   -1.5047   -2.6706    0.6429 C   0  0  0  0  0  0  0  0  0  0  0  0
   -0.4735   -3.1809    1.0497 O   0  0  0  0  0  0  0  0  0  0  0  0
   -1.5027   -1.3644    0.2017 N   0  0  0  0  0  0  0  0  0  0  0  0
   -2.3981   -0.9465   -0.0462 H   0  0  0  0  0  0  0  0  0  0  0  0
   -0.3257   -0.4835    0.1964 C   0  0  1  0  0  0  0  0  0  0  0  0
    0.4714   -0.8678    0.8415 H   0  0  0  0  0  0  0  0  0  0  0  0
    0.1670   -0.4777   -1.2707 C   0  0  0  0  0  0  0  0  0  0  0  0
    0.6148   -1.4567   -1.4665 H   0  0  0  0  0  0  0  0  0  0  0  0
   -0.7030   -0.3831   -1.9278 H   0  0  0  0  0  0  0  0  0  0  0  0
    1.1512    0.5695   -1.7372 C   0  0  0  0  0  0  0  0  0  0  0  0
    1.8075    0.3624   -2.9453 N   0  0  0  0  0  0  0  0  0  0  0  0
    2.6015    1.3852   -3.1412 C   0  0  0  0  0  0  0  0  0  0  0  0
    3.2475    1.5159   -4.0047 H   0  0  0  0  0  0  0  0  0  0  0  0
    2.4899    2.2665   -2.0864 N   0  0  0  0  0  0  0  0  0  0  0  0
    2.9913    3.1488   -2.0038 H   0  0  0  0  0  0  0  0  0  0  0  0
    1.5712    1.7574   -1.1932 C   0  0  0  0  0  0  0  0  0  0  0  0
    1.2484    2.2257   -0.2733 H   0  0  0  0  0  0  0  0  0  0  0  0
   -0.7699    0.8853    0.7524 C   0  0  0  0  0  0  0  0  0  0  0  0
   -1.8207    1.3914    0.3744 O   0  0  0  0  0  0  0  0  0  0  0  0
    0.0039    1.5485    1.6894 N   0  0  0  0  0  0  0  0  0  0  0  0
    0.8056    1.0489    2.0663 H   0  0  0  0  0  0  0  0  0  0  0  0
   -0.4062    2.7961    2.3229 C   0  0  0  0  0  0  0  0  0  0  0  0
   -1.3105    2.6423    2.9211 H   0  0  0  0  0  0  0  0  0  0  0  0
    0.3868    3.1644    2.9808 H   0  0  0  0  0  0  0  0  0  0  0  0
   -0.6094    3.5623    1.5671 H   0  0  0  0  0  0  0  0  0  0  0  0
  1  2  1  0  0  0  0
  2  3  1  0  0  0  0
  2  4  1  0  0  0  0
  2  5  1  0  0  0  0
  5  6  2  0  0  0  0
  5  7  1  0  0  0  0
  7  8  1  0  0  0  0
  7  9  1  0  0  0  0
  9 10  1  0  0  0  0
  9 11  1  0  0  0  0
  9 22  1  0  0  0  0
 11 12  1  0  0  0  0
 11 13  1  0  0  0  0
 11 14  1  0  0  0  0
 14 15  1  0  0  0  0
 14 20  2  0  0  0  0
 15 16  2  0  0  0  0
 16 17  1  0  0  0  0
 16 18  1  0  0  0  0
 18 19  1  0  0  0  0
 18 20  1  0  0  0  0
 20 21  1  0  0  0  0
 22 23  2  0  0  0  0
 22 24  1  0  0  0  0
 24 25  1  0  0  0  0
 24 26  1  0  0  0  0
 26 27  1  0  0  0  0
 26 28  1  0  0  0  0
 26 29  1  0  0  0  0
M  END
$$$$
