
  -OEChem-05262216053D

 64 63  0     1  0  0  0  0  0999 V2000
   -1.3730    1.8994    5.0951 C   0  0  0  0  0  0  0  0  0  0  0  0
   -2.5306    2.2423    4.9044 O   0  0  0  0  0  0  0  0  0  0  0  0
   -0.6732    2.2633    6.3908 C   0  0  0  0  0  0  0  0  0  0  0  0
    0.2669    2.7774    6.1756 H   0  0  0  0  0  0  0  0  0  0  0  0
   -1.3072    2.9245    6.9883 H   0  0  0  0  0  0  0  0  0  0  0  0
   -0.4631    1.3589    6.9671 H   0  0  0  0  0  0  0  0  0  0  0  0
   -0.7036    1.1771    4.1318 N   0  0  0  0  0  0  0  0  0  0  0  0
   -1.2779    0.7888    2.8372 C   0  0  2  0  0  0  0  0  0  0  0  0
   -0.5584   -0.4225    2.2083 C   0  0  0  0  0  0  0  0  0  0  0  0
    0.5422   -0.7779    2.6193 O   0  0  0  0  0  0  0  0  0  0  0  0
   -1.2395    1.9891    1.8802 C   0  0  0  0  0  0  0  0  0  0  0  0
    0.4647    2.6371    1.6383 S   0  0  0  0  0  0  0  0  0  0  0  0
    0.2622    0.9076    4.3128 H   0  0  0  0  0  0  0  0  0  0  0  0
   -2.3205    0.4906    2.9880 H   0  0  0  0  0  0  0  0  0  0  0  0
   -1.6487    1.6949    0.9108 H   0  0  0  0  0  0  0  0  0  0  0  0
   -1.8706    2.7917    2.2738 H   0  0  0  0  0  0  0  0  0  0  0  0
   -1.1545   -1.1269    1.1786 N   0  0  0  0  0  0  0  0  0  0  0  0
   -0.5917   -2.3437    0.6068 C   0  0  0  0  0  0  0  0  0  0  0  0
   -2.1288   -0.8886    0.9704 H   0  0  0  0  0  0  0  0  0  0  0  0
    0.4504   -2.1854    0.3101 H   0  0  0  0  0  0  0  0  0  0  0  0
   -0.6291   -3.1606    1.3345 H   0  0  0  0  0  0  0  0  0  0  0  0
   -1.1585   -2.6411   -0.2807 H   0  0  0  0  0  0  0  0  0  0  0  0
   -4.2831    1.0126    0.3636 C   0  0  0  0  0  0  0  0  0  0  0  0
   -3.8013   -0.0275    0.7916 O   0  0  0  0  0  0  0  0  0  0  0  0
   -4.9120    2.0087    1.3195 C   0  0  0  0  0  0  0  0  0  0  0  0
   -5.9776    2.1130    1.1014 H   0  0  0  0  0  0  0  0  0  0  0  0
   -4.7953    1.6694    2.3532 H   0  0  0  0  0  0  0  0  0  0  0  0
   -4.4291    2.9838    1.2163 H   0  0  0  0  0  0  0  0  0  0  0  0
   -4.1673    1.3155   -0.9768 N   0  0  0  0  0  0  0  0  0  0  0  0
   -3.3709    0.5201   -1.9236 C   0  0  2  0  0  0  0  0  0  0  0  0
   -1.9538    1.0977   -2.1253 C   0  0  0  0  0  0  0  0  0  0  0  0
   -1.8222    2.2907   -2.3534 O   0  0  0  0  0  0  0  0  0  0  0  0
   -4.1311    0.4843   -3.2521 C   0  0  0  0  0  0  0  0  0  0  0  0
   -4.3728    2.2771   -1.2407 H   0  0  0  0  0  0  0  0  0  0  0  0
   -3.2700   -0.5103   -1.5672 H   0  0  0  0  0  0  0  0  0  0  0  0
   -4.2561    1.4959   -3.6523 H   0  0  0  0  0  0  0  0  0  0  0  0
   -3.5843   -0.1138   -3.9880 H   0  0  0  0  0  0  0  0  0  0  0  0
   -5.1215    0.0399   -3.1113 H   0  0  0  0  0  0  0  0  0  0  0  0
   -0.8790    0.2379   -2.2417 N   0  0  0  0  0  0  0  0  0  0  0  0
    0.5686    0.5387   -2.2296 C   0  0  2  0  0  0  0  0  0  0  0  0
    1.3449   -0.7910   -2.4034 C   0  0  0  0  0  0  0  0  0  0  0  0
    0.7359   -1.8575   -2.4548 O   0  0  0  0  0  0  0  0  0  0  0  0
    1.0832    1.1457   -0.8962 C   0  0  0  0  0  0  0  0  0  0  0  0
    0.4421    2.8053   -0.4397 S   0  0  0  0  0  0  0  0  0  0  0  0
   -1.0988   -0.7535   -2.1456 H   0  0  0  0  0  0  0  0  0  0  0  0
    0.8108    1.2118   -3.0583 H   0  0  0  0  0  0  0  0  0  0  0  0
    0.8340    0.4490   -0.0909 H   0  0  0  0  0  0  0  0  0  0  0  0
    2.1736    1.2293   -0.9203 H   0  0  0  0  0  0  0  0  0  0  0  0
    2.7272   -0.8186   -2.4320 N   0  0  0  0  0  0  0  0  0  0  0  0
    3.5460   -2.0356   -2.3585 C   0  0  2  0  0  0  0  0  0  0  0  0
    4.9022   -1.7500   -1.6788 C   0  0  0  0  0  0  0  0  0  0  0  0
    5.2694   -0.5916   -1.5154 O   0  0  0  0  0  0  0  0  0  0  0  0
    3.7587   -2.5680   -3.7787 C   0  0  0  0  0  0  0  0  0  0  0  0
    3.2203    0.0617   -2.2768 H   0  0  0  0  0  0  0  0  0  0  0  0
    3.0309   -2.7940   -1.7594 H   0  0  0  0  0  0  0  0  0  0  0  0
    4.2862   -1.8276   -4.3888 H   0  0  0  0  0  0  0  0  0  0  0  0
    4.3493   -3.4889   -3.7599 H   0  0  0  0  0  0  0  0  0  0  0  0
    2.7956   -2.7865   -4.2508 H   0  0  0  0  0  0  0  0  0  0  0  0
    5.7054   -2.7862   -1.2394 N   0  0  0  0  0  0  0  0  0  0  0  0
    6.9797   -2.5764   -0.5621 C   0  0  0  0  0  0  0  0  0  0  0  0
    5.3640   -3.7350   -1.3626 H   0  0  0  0  0  0  0  0  0  0  0  0
    7.6779   -2.0414   -1.2143 H   0  0  0  0  0  0  0  0  0  0  0  0
    6.8353   -1.9930    0.3534 H   0  0  0  0  0  0  0  0  0  0  0  0
    7.4277   -3.5375   -0.2921 H   0  0  0  0  0  0  0  0  0  0  0  0
  1  2  2  0  0  0  0
  1  3  1  0  0  0  0
  1  7  1  0  0  0  0
  3  4  1  0  0  0  0
  3  5  1  0  0  0  0
  3  6  1  0  0  0  0
  7  8  1  0  0  0  0
  7 13  1  0  0  0  0
  8  9  1  0  0  0  0
  8 11  1  0  0  0  0
  8 14  1  0  0  0  0
  9 10  2  0  0  0  0
  9 17  1  0  0  0  0
 11 12  1  0  0  0  0
 11 15  1  0  0  0  0
 11 16  1  0  0  0  0
 12 44  1  0  0  0  0
 17 18  1  0  0  0  0
 17 19  1  0  0  0  0
 18 20  1  0  0  0  0
 18 21  1  0  0  0  0
 18 22  1  0  0  0  0
 23 24  2  0  0  0  0
 23 25  1  0  0  0  0
 23 29  1  0  0  0  0
 25 26  1  0  0  0  0
 25 27  1  0  0  0  0
 25 28  1  0  0  0  0
 29 30  1  0  0  0  0
 29 34  1  0  0  0  0
 30 31  1  0  0  0  0
 30 33  1  0  0  0  0
 30 35  1  0  0  0  0
 31 32  2  0  0  0  0
 31 39  1  0  0  0  0
 33 36  1  0  0  0  0
 33 37  1  0  0  0  0
 33 38  1  0  0  0  0
 39 40  1  0  0  0  0
 39 45  1  0  0  0  0
 40 41  1  0  0  0  0
 40 43  1  0  0  0  0
 40 46  1  0  0  0  0
 41 42  2  0  0  0  0
 41 49  1  0  0  0  0
 43 44  1  0  0  0  0
 43 47  1  0  0  0  0
 43 48  1  0  0  0  0
 49 50  1  0  0  0  0
 49 54  1  0  0  0  0
 50 51  1  0  0  0  0
 50 53  1  0  0  0  0
 50 55  1  0  0  0  0
 51 52  2  0  0  0  0
 51 59  1  0  0  0  0
 53 56  1  0  0  0  0
 53 57  1  0  0  0  0
 53 58  1  0  0  0  0
 59 60  1  0  0  0  0
 59 61  1  0  0  0  0
 60 62  1  0  0  0  0
 60 63  1  0  0  0  0
 60 64  1  0  0  0  0
M  END
$$$$

  -OEChem-05262216053D

 64 63  0     1  0  0  0  0  0999 V2000
   -1.7373    2.2131    4.8614 C   0  0  0  0  0  0  0  0  0  0  0  0
   -2.8732    2.3369    4.4253 O   0  0  0  0  0  0  0  0  0  0  0  0
   -1.3541    2.8531    6.1820 C   0  0  0  0  0  0  0  0  0  0  0  0
   -0.5501    3.5767    6.0260 H   0  0  0  0  0  0  0  0  0  0  0  0
   -2.2152    3.3707    6.6140 H   0  0  0  0  0  0  0  0  0  0  0  0
   -1.0145    2.0871    6.8832 H   0  0  0  0  0  0  0  0  0  0  0  0
   -0.8063    1.4885    4.1501 N   0  0  0  0  0  0  0  0  0  0  0  0
   -1.0823    0.8221    2.8717 C   0  0  2  0  0  0  0  0  0  0  0  0
   -0.1298   -0.3539    2.5796 C   0  0  0  0  0  0  0  0  0  0  0  0
    0.8368   -0.5625    3.3061 O   0  0  0  0  0  0  0  0  0  0  0  0
   -1.0149    1.8507    1.7349 C   0  0  0  0  0  0  0  0  0  0  0  0
    0.6506    2.6096    1.5771 S   0  0  0  0  0  0  0  0  0  0  0  0
    0.1212    1.3595    4.5523 H   0  0  0  0  0  0  0  0  0  0  0  0
   -2.0888    0.3972    2.9096 H   0  0  0  0  0  0  0  0  0  0  0  0
   -1.2659    1.3613    0.7912 H   0  0  0  0  0  0  0  0  0  0  0  0
   -1.7530    2.6408    1.9014 H   0  0  0  0  0  0  0  0  0  0  0  0
   -0.3807   -1.1908    1.5074 N   0  0  0  0  0  0  0  0  0  0  0  0
    0.4588   -2.3297    1.1613 C   0  0  0  0  0  0  0  0  0  0  0  0
   -1.2871   -1.0835    1.0435 H   0  0  0  0  0  0  0  0  0  0  0  0
    1.5180   -2.0554    1.2022 H   0  0  0  0  0  0  0  0  0  0  0  0
    0.2834   -3.1578    1.8551 H   0  0  0  0  0  0  0  0  0  0  0  0
    0.2348   -2.6677    0.1450 H   0  0  0  0  0  0  0  0  0  0  0  0
   -3.8847    0.3955    0.4344 C   0  0  0  0  0  0  0  0  0  0  0  0
   -3.1331   -0.5492    0.6425 O   0  0  0  0  0  0  0  0  0  0  0  0
   -4.6447    1.0376    1.5801 C   0  0  0  0  0  0  0  0  0  0  0  0
   -5.7098    1.0871    1.3418 H   0  0  0  0  0  0  0  0  0  0  0  0
   -4.5190    0.4532    2.4961 H   0  0  0  0  0  0  0  0  0  0  0  0
   -4.2721    2.0498    1.7585 H   0  0  0  0  0  0  0  0  0  0  0  0
   -3.9861    0.9142   -0.8389 N   0  0  0  0  0  0  0  0  0  0  0  0
   -3.1922    0.4264   -1.9742 C   0  0  2  0  0  0  0  0  0  0  0  0
   -1.8356    1.1502   -2.1126 C   0  0  0  0  0  0  0  0  0  0  0  0
   -1.8089    2.3691   -2.1793 O   0  0  0  0  0  0  0  0  0  0  0  0
   -4.0311    0.6082   -3.2413 C   0  0  0  0  0  0  0  0  0  0  0  0
   -4.4275    1.8266   -0.9275 H   0  0  0  0  0  0  0  0  0  0  0  0
   -2.9964   -0.6444   -1.8550 H   0  0  0  0  0  0  0  0  0  0  0  0
   -4.2491    1.6681   -3.4095 H   0  0  0  0  0  0  0  0  0  0  0  0
   -3.4915    0.2235   -4.1125 H   0  0  0  0  0  0  0  0  0  0  0  0
   -4.9778    0.0659   -3.1527 H   0  0  0  0  0  0  0  0  0  0  0  0
   -0.7065    0.4000   -2.3757 N   0  0  0  0  0  0  0  0  0  0  0  0
    0.7209    0.7859   -2.4183 C   0  0  2  0  0  0  0  0  0  0  0  0
    1.5438   -0.4827   -2.7748 C   0  0  0  0  0  0  0  0  0  0  0  0
    0.9595   -1.4967   -3.1508 O   0  0  0  0  0  0  0  0  0  0  0  0
    1.2854    1.3412   -1.0793 C   0  0  0  0  0  0  0  0  0  0  0  0
    0.5884    2.9323   -0.4796 S   0  0  0  0  0  0  0  0  0  0  0  0
   -0.8645   -0.6056   -2.4456 H   0  0  0  0  0  0  0  0  0  0  0  0
    0.8677    1.5346   -3.2028 H   0  0  0  0  0  0  0  0  0  0  0  0
    1.1222    0.5834   -0.3058 H   0  0  0  0  0  0  0  0  0  0  0  0
    2.3644    1.4945   -1.1600 H   0  0  0  0  0  0  0  0  0  0  0  0
    2.9170   -0.5504   -2.6054 N   0  0  0  0  0  0  0  0  0  0  0  0
    3.6653   -1.8149   -2.6518 C   0  0  2  0  0  0  0  0  0  0  0  0
    3.7027   -2.5015   -1.2718 C   0  0  0  0  0  0  0  0  0  0  0  0
    3.7736   -1.8199   -0.2570 O   0  0  0  0  0  0  0  0  0  0  0  0
    5.0846   -1.5026   -3.1312 C   0  0  0  0  0  0  0  0  0  0  0  0
    3.3356    0.2020   -2.0642 H   0  0  0  0  0  0  0  0  0  0  0  0
    3.2066   -2.5037   -3.3687 H   0  0  0  0  0  0  0  0  0  0  0  0
    5.5884   -0.8293   -2.4296 H   0  0  0  0  0  0  0  0  0  0  0  0
    5.6717   -2.4230   -3.2101 H   0  0  0  0  0  0  0  0  0  0  0  0
    5.0570   -1.0244   -4.1153 H   0  0  0  0  0  0  0  0  0  0  0  0
    3.6837   -3.8797   -1.1665 N   0  0  0  0  0  0  0  0  0  0  0  0
    3.6999   -4.5819    0.1112 C   0  0  0  0  0  0  0  0  0  0  0  0
    3.5677   -4.4163   -2.0212 H   0  0  0  0  0  0  0  0  0  0  0  0
    4.6062   -4.3332    0.6735 H   0  0  0  0  0  0  0  0  0  0  0  0
    2.8268   -4.3070    0.7119 H   0  0  0  0  0  0  0  0  0  0  0  0
    3.6807   -5.6639   -0.0513 H   0  0  0  0  0  0  0  0  0  0  0  0
  1  2  2  0  0  0  0
  1  3  1  0  0  0  0
  1  7  1  0  0  0  0
  3  4  1  0  0  0  0
  3  5  1  0  0  0  0
  3  6  1  0  0  0  0
  7  8  1  0  0  0  0
  7 13  1  0  0  0  0
  8  9  1  0  0  0  0
  8 11  1  0  0  0  0
  8 14  1  0  0  0  0
  9 10  2  0  0  0  0
  9 17  1  0  0  0  0
 11 12  1  0  0  0  0
 11 15  1  0  0  0  0
 11 16  1  0  0  0  0
 12 44  1  0  0  0  0
 17 18  1  0  0  0  0
 17 19  1  0  0  0  0
 18 20  1  0  0  0  0
 18 21  1  0  0  0  0
 18 22  1  0  0  0  0
 23 24  2  0  0  0  0
 23 25  1  0  0  0  0
 23 29  1  0  0  0  0
 25 26  1  0  0  0  0
 25 27  1  0  0  0  0
 25 28  1  0  0  0  0
 29 30  1  0  0  0  0
 29 34  1  0  0  0  0
 30 31  1  0  0  0  0
 30 33  1  0  0  0  0
 30 35  1  0  0  0  0
 31 32  2  0  0  0  0
 31 39  1  0  0  0  0
 33 36  1  0  0  0  0
 33 37  1  0  0  0  0
 33 38  1  0  0  0  0
 39 40  1  0  0  0  0
 39 45  1  0  0  0  0
 40 41  1  0  0  0  0
 40 43  1  0  0  0  0
 40 46  1  0  0  0  0
 41 42  2  0  0  0  0
 41 49  1  0  0  0  0
 43 44  1  0  0  0  0
 43 47  1  0  0  0  0
 43 48  1  0  0  0  0
 49 50  1  0  0  0  0
 49 54  1  0  0  0  0
 50 51  1  0  0  0  0
 50 53  1  0  0  0  0
 50 55  1  0  0  0  0
 51 52  2  0  0  0  0
 51 59  1  0  0  0  0
 53 56  1  0  0  0  0
 53 57  1  0  0  0  0
 53 58  1  0  0  0  0
 59 60  1  0  0  0  0
 59 61  1  0  0  0  0
 60 62  1  0  0  0  0
 60 63  1  0  0  0  0
 60 64  1  0  0  0  0
M  END
$$$$

  -OEChem-05262216053D

 64 63  0     1  0  0  0  0  0999 V2000
   -1.9022    2.4689    4.8318 C   0  0  0  0  0  0  0  0  0  0  0  0
   -3.0140    2.5516    4.3295 O   0  0  0  0  0  0  0  0  0  0  0  0
   -1.5737    3.2489    6.0902 C   0  0  0  0  0  0  0  0  0  0  0  0
   -0.7611    3.9514    5.8897 H   0  0  0  0  0  0  0  0  0  0  0  0
   -2.4504    3.8098    6.4254 H   0  0  0  0  0  0  0  0  0  0  0  0
   -1.2674    2.5644    6.8849 H   0  0  0  0  0  0  0  0  0  0  0  0
   -0.9462    1.6649    4.2520 N   0  0  0  0  0  0  0  0  0  0  0  0
   -1.1640    0.8661    3.0399 C   0  0  2  0  0  0  0  0  0  0  0  0
   -0.2266   -0.3521    2.9391 C   0  0  0  0  0  0  0  0  0  0  0  0
    0.6987   -0.4884    3.7339 O   0  0  0  0  0  0  0  0  0  0  0  0
   -1.0017    1.7601    1.8038 C   0  0  0  0  0  0  0  0  0  0  0  0
    0.6741    2.5028    1.6927 S   0  0  0  0  0  0  0  0  0  0  0  0
   -0.0422    1.5740    4.7134 H   0  0  0  0  0  0  0  0  0  0  0  0
   -2.1811    0.4664    3.0608 H   0  0  0  0  0  0  0  0  0  0  0  0
   -1.1805    1.1686    0.9030 H   0  0  0  0  0  0  0  0  0  0  0  0
   -1.7455    2.5622    1.8247 H   0  0  0  0  0  0  0  0  0  0  0  0
   -0.4476   -1.3066    1.9636 N   0  0  0  0  0  0  0  0  0  0  0  0
    0.3741   -2.4995    1.8041 C   0  0  0  0  0  0  0  0  0  0  0  0
   -1.3109   -1.2216    1.4203 H   0  0  0  0  0  0  0  0  0  0  0  0
    1.4380   -2.2494    1.8742 H   0  0  0  0  0  0  0  0  0  0  0  0
    0.1346   -3.2342    2.5792 H   0  0  0  0  0  0  0  0  0  0  0  0
    0.1965   -2.9515    0.8237 H   0  0  0  0  0  0  0  0  0  0  0  0
   -3.8659    0.3019    0.5306 C   0  0  0  0  0  0  0  0  0  0  0  0
   -3.1248   -0.6332    0.8103 O   0  0  0  0  0  0  0  0  0  0  0  0
   -4.6637    0.9991    1.6165 C   0  0  0  0  0  0  0  0  0  0  0  0
   -5.7178    1.0475    1.3337 H   0  0  0  0  0  0  0  0  0  0  0  0
   -4.5798    0.4545    2.5609 H   0  0  0  0  0  0  0  0  0  0  0  0
   -4.2878    2.0148    1.7647 H   0  0  0  0  0  0  0  0  0  0  0  0
   -3.9285    0.7623   -0.7678 N   0  0  0  0  0  0  0  0  0  0  0  0
   -3.0773    0.2485   -1.8497 C   0  0  2  0  0  0  0  0  0  0  0  0
   -1.7583    1.0370   -1.9958 C   0  0  0  0  0  0  0  0  0  0  0  0
   -1.7855    2.2576   -1.9958 O   0  0  0  0  0  0  0  0  0  0  0  0
   -3.8863    0.3119   -3.1471 C   0  0  0  0  0  0  0  0  0  0  0  0
   -4.3518    1.6782   -0.9015 H   0  0  0  0  0  0  0  0  0  0  0  0
   -2.8268   -0.8005   -1.6592 H   0  0  0  0  0  0  0  0  0  0  0  0
   -4.1550    1.3469   -3.3827 H   0  0  0  0  0  0  0  0  0  0  0  0
   -3.3025   -0.0927   -3.9798 H   0  0  0  0  0  0  0  0  0  0  0  0
   -4.8053   -0.2744   -3.0507 H   0  0  0  0  0  0  0  0  0  0  0  0
   -0.6033    0.3478   -2.3091 N   0  0  0  0  0  0  0  0  0  0  0  0
    0.8089    0.7875   -2.3435 C   0  0  2  0  0  0  0  0  0  0  0  0
    1.6626   -0.4362   -2.7765 C   0  0  0  0  0  0  0  0  0  0  0  0
    1.1387   -1.3193   -3.4511 O   0  0  0  0  0  0  0  0  0  0  0  0
    1.3723    1.3305   -0.9992 C   0  0  0  0  0  0  0  0  0  0  0  0
    0.6306    2.8829   -0.3539 S   0  0  0  0  0  0  0  0  0  0  0  0
   -0.7308   -0.6515   -2.4679 H   0  0  0  0  0  0  0  0  0  0  0  0
    0.9177    1.5681   -3.1029 H   0  0  0  0  0  0  0  0  0  0  0  0
    1.2494    0.5503   -0.2394 H   0  0  0  0  0  0  0  0  0  0  0  0
    2.4424    1.5302   -1.0994 H   0  0  0  0  0  0  0  0  0  0  0  0
    2.9740   -0.6303   -2.3720 N   0  0  0  0  0  0  0  0  0  0  0  0
    3.6549   -1.9230   -2.5313 C   0  0  2  0  0  0  0  0  0  0  0  0
    3.2101   -2.9432   -1.4615 C   0  0  0  0  0  0  0  0  0  0  0  0
    2.9743   -2.5684   -0.3194 O   0  0  0  0  0  0  0  0  0  0  0  0
    5.1619   -1.6750   -2.4396 C   0  0  0  0  0  0  0  0  0  0  0  0
    3.2940   -0.0398   -1.6090 H   0  0  0  0  0  0  0  0  0  0  0  0
    3.4353   -2.3396   -3.5201 H   0  0  0  0  0  0  0  0  0  0  0  0
    5.4259   -1.2708   -1.4568 H   0  0  0  0  0  0  0  0  0  0  0  0
    5.7119   -2.6095   -2.5883 H   0  0  0  0  0  0  0  0  0  0  0  0
    5.4767   -0.9616   -3.2077 H   0  0  0  0  0  0  0  0  0  0  0  0
    3.0873   -4.2841   -1.7742 N   0  0  0  0  0  0  0  0  0  0  0  0
    2.6104   -5.2813   -0.8235 C   0  0  0  0  0  0  0  0  0  0  0  0
    3.1940   -4.5480   -2.7494 H   0  0  0  0  0  0  0  0  0  0  0  0
    3.2768   -5.3336    0.0439 H   0  0  0  0  0  0  0  0  0  0  0  0
    1.6015   -5.0309   -0.4788 H   0  0  0  0  0  0  0  0  0  0  0  0
    2.5806   -6.2684   -1.2944 H   0  0  0  0  0  0  0  0  0  0  0  0
  1  2  2  0  0  0  0
  1  3  1  0  0  0  0
  1  7  1  0  0  0  0
  3  4  1  0  0  0  0
  3  5  1  0  0  0  0
  3  6  1  0  0  0  0
  7  8  1  0  0  0  0
  7 13  1  0  0  0  0
  8  9  1  0  0  0  0
  8 11  1  0  0  0  0
  8 14  1  0  0  0  0
  9 10  2  0  0  0  0
  9 17  1  0  0  0  0
 11 12  1  0  0  0  0
 11 15  1  0  0  0  0
 11 16  1  0  0  0  0
 12 44  1  0  0  0  0
 17 18  1  0  0  0  0
 17 19  1  0  0  0  0
 18 20  1  0  0  0  0
 18 21  1  0  0  0  0
 18 22  1  0  0  0  0
 23 24  2  0  0  0  0
 23 25  1  0  0  0  0
 23 29  1  0  0  0  0
 25 26  1  0  0  0  0
 25 27  1  0  0  0  0
 25 28  1  0  0  0  0
 29 30  1  0  0  0  0
 29 34  1  0  0  0  0
 30 31  1  0  0  0  0
 30 33  1  0  0  0  0
 30 35  1  0  0  0  0
 31 32  2  0  0  0  0
 31 39  1  0  0  0  0
 33 36  1  0  0  0  0
 33 37  1  0  0  0  0
 33 38  1  0  0  0  0
 39 40  1  0  0  0  0
 39 45  1  0  0  0  0
 40 41  1  0  0  0  0
 40 43  1  0  0  0  0
 40 46  1  0  0  0  0
 41 42  2  0  0  0  0
 41 49  1  0  0  0  0
 43 44  1  0  0  0  0
 43 47  1  0  0  0  0
 43 48  1  0  0  0  0
 49 50  1  0  0  0  0
 49 54  1  0  0  0  0
 50 51  1  0  0  0  0
 50 53  1  0  0  0  0
 50 55  1  0  0  0  0
 51 52  2  0  0  0  0
 51 59  1  0  0  0  0
 53 56  1  0  0  0  0
 53 57  1  0  0  0  0
 53 58  1  0  0  0  0
 59 60  1  0  0  0  0
 59 61  1  0  0  0  0
 60 62  1  0  0  0  0
 60 63  1  0  0  0  0
 60 64  1  0  0  0  0
M  END
$$$$

  -OEChem-05262216053D

 64 63  0     1  0  0  0  0  0999 V2000
   -1.8320    2.5531    4.8684 C   0  0  0  0  0  0  0  0  0  0  0  0
   -2.9503    2.6562    4.3845 O   0  0  0  0  0  0  0  0  0  0  0  0
   -1.4564    3.3507    6.1025 C   0  0  0  0  0  0  0  0  0  0  0  0
   -0.5849    3.9751    5.8906 H   0  0  0  0  0  0  0  0  0  0  0  0
   -2.2873    3.9954    6.4021 H   0  0  0  0  0  0  0  0  0  0  0  0
   -1.2198    2.6734    6.9267 H   0  0  0  0  0  0  0  0  0  0  0  0
   -0.9120    1.7043    4.2943 N   0  0  0  0  0  0  0  0  0  0  0  0
   -1.1686    0.8943    3.0976 C   0  0  2  0  0  0  0  0  0  0  0  0
   -0.2463   -0.3352    2.9906 C   0  0  0  0  0  0  0  0  0  0  0  0
    0.7249   -0.4480    3.7328 O   0  0  0  0  0  0  0  0  0  0  0  0
   -1.0218    1.7692    1.8461 C   0  0  0  0  0  0  0  0  0  0  0  0
    0.6487    2.5226    1.7165 S   0  0  0  0  0  0  0  0  0  0  0  0
    0.0027    1.6107    4.7331 H   0  0  0  0  0  0  0  0  0  0  0  0
   -2.1907    0.5091    3.1479 H   0  0  0  0  0  0  0  0  0  0  0  0
   -1.2029    1.1618    0.9562 H   0  0  0  0  0  0  0  0  0  0  0  0
   -1.7717    2.5658    1.8588 H   0  0  0  0  0  0  0  0  0  0  0  0
   -0.5269   -1.3249    2.0670 N   0  0  0  0  0  0  0  0  0  0  0  0
    0.2525   -2.5498    1.9401 C   0  0  0  0  0  0  0  0  0  0  0  0
   -1.4168   -1.2510    1.5660 H   0  0  0  0  0  0  0  0  0  0  0  0
    1.3232   -2.3240    1.8944 H   0  0  0  0  0  0  0  0  0  0  0  0
    0.0696   -3.2098    2.7940 H   0  0  0  0  0  0  0  0  0  0  0  0
   -0.0235   -3.0798    1.0234 H   0  0  0  0  0  0  0  0  0  0  0  0
   -3.9100    0.2877    0.6226 C   0  0  0  0  0  0  0  0  0  0  0  0
   -3.1853   -0.6452    0.9472 O   0  0  0  0  0  0  0  0  0  0  0  0
   -4.7065    1.0392    1.6729 C   0  0  0  0  0  0  0  0  0  0  0  0
   -5.7597    1.0789    1.3851 H   0  0  0  0  0  0  0  0  0  0  0  0
   -4.6277    0.5392    2.6422 H   0  0  0  0  0  0  0  0  0  0  0  0
   -4.3261    2.0591    1.7747 H   0  0  0  0  0  0  0  0  0  0  0  0
   -3.9536    0.6952   -0.6944 N   0  0  0  0  0  0  0  0  0  0  0  0
   -3.0875    0.1377   -1.7434 C   0  0  2  0  0  0  0  0  0  0  0  0
   -1.7715    0.9273   -1.9100 C   0  0  0  0  0  0  0  0  0  0  0  0
   -1.8041    2.1475   -1.9268 O   0  0  0  0  0  0  0  0  0  0  0  0
   -3.8798    0.1398   -3.0528 C   0  0  0  0  0  0  0  0  0  0  0  0
   -4.3626    1.6111   -0.8670 H   0  0  0  0  0  0  0  0  0  0  0  0
   -2.8332   -0.9003   -1.5045 H   0  0  0  0  0  0  0  0  0  0  0  0
   -4.1539    1.1617   -3.3348 H   0  0  0  0  0  0  0  0  0  0  0  0
   -3.2817   -0.2933   -3.8606 H   0  0  0  0  0  0  0  0  0  0  0  0
   -4.7948   -0.4508   -2.9445 H   0  0  0  0  0  0  0  0  0  0  0  0
   -0.6137    0.2372   -2.2130 N   0  0  0  0  0  0  0  0  0  0  0  0
    0.7954    0.6874   -2.2566 C   0  0  2  0  0  0  0  0  0  0  0  0
    1.6575   -0.5354   -2.6679 C   0  0  0  0  0  0  0  0  0  0  0  0
    1.2296   -1.2923   -3.5341 O   0  0  0  0  0  0  0  0  0  0  0  0
    1.3619    1.2803   -0.9361 C   0  0  0  0  0  0  0  0  0  0  0  0
    0.6178    2.8500   -0.3388 S   0  0  0  0  0  0  0  0  0  0  0  0
   -0.7419   -0.7625   -2.3620 H   0  0  0  0  0  0  0  0  0  0  0  0
    0.8956    1.4467   -3.0388 H   0  0  0  0  0  0  0  0  0  0  0  0
    1.2417    0.5279   -0.1487 H   0  0  0  0  0  0  0  0  0  0  0  0
    2.4318    1.4755   -1.0526 H   0  0  0  0  0  0  0  0  0  0  0  0
    2.8463   -0.8831   -2.0450 N   0  0  0  0  0  0  0  0  0  0  0  0
    3.5031   -2.1757   -2.2811 C   0  0  2  0  0  0  0  0  0  0  0  0
    2.7564   -3.3362   -1.5891 C   0  0  0  0  0  0  0  0  0  0  0  0
    2.4332   -3.2423   -0.4112 O   0  0  0  0  0  0  0  0  0  0  0  0
    4.9407   -2.0772   -1.7658 C   0  0  0  0  0  0  0  0  0  0  0  0
    3.0487   -0.4158   -1.1650 H   0  0  0  0  0  0  0  0  0  0  0  0
    3.5390   -2.3781   -3.3568 H   0  0  0  0  0  0  0  0  0  0  0  0
    4.9511   -1.8834   -0.6881 H   0  0  0  0  0  0  0  0  0  0  0  0
    5.4768   -3.0127   -1.9541 H   0  0  0  0  0  0  0  0  0  0  0  0
    5.4719   -1.2653   -2.2722 H   0  0  0  0  0  0  0  0  0  0  0  0
    2.4452   -4.4863   -2.2893 N   0  0  0  0  0  0  0  0  0  0  0  0
    1.6564   -5.5715   -1.7190 C   0  0  0  0  0  0  0  0  0  0  0  0
    2.5872   -4.4641   -3.2953 H   0  0  0  0  0  0  0  0  0  0  0  0
    2.1470   -5.9748   -0.8268 H   0  0  0  0  0  0  0  0  0  0  0  0
    0.6588   -5.2151   -1.4417 H   0  0  0  0  0  0  0  0  0  0  0  0
    1.5462   -6.3810   -2.4470 H   0  0  0  0  0  0  0  0  0  0  0  0
  1  2  2  0  0  0  0
  1  3  1  0  0  0  0
  1  7  1  0  0  0  0
  3  4  1  0  0  0  0
  3  5  1  0  0  0  0
  3  6  1  0  0  0  0
  7  8  1  0  0  0  0
  7 13  1  0  0  0  0
  8  9  1  0  0  0  0
  8 11  1  0  0  0  0
  8 14  1  0  0  0  0
  9 10  2  0  0  0  0
  9 17  1  0  0  0  0
 11 12  1  0  0  0  0
 11 15  1  0  0  0  0
 11 16  1  0  0  0  0
 12 44  1  0  0  0  0
 17 18  1  0  0  0  0
 17 19  1  0  0  0  0
 18 20  1  0  0  0  0
 18 21  1  0  0  0  0
 18 22  1  0  0  0  0
 23 24  2  0  0  0  0
 23 25  1  0  0  0  0
 23 29  1  0  0  0  0
 25 26  1  0  0  0  0
 25 27  1  0  0  0  0
 25 28  1  0  0  0  0
 29 30  1  0  0  0  0
 29 34  1  0  0  0  0
 30 31  1  0  0  0  0
 30 33  1  0  0  0  0
 30 35  1  0  0  0  0
 31 32  2  0  0  0  0
 31 39  1  0  0  0  0
 33 36  1  0  0  0  0
 33 37  1  0  0  0  0
 33 38  1  0  0  0  0
 39 40  1  0  0  0  0
 39 45  1  0  0  0  0
 40 41  1  0  0  0  0
 40 43  1  0  0  0  0
 40 46  1  0  0  0  0
 41 42  2  0  0  0  0
 41 49  1  0  0  0  0
 43 44  1  0  0  0  0
 43 47  1  0  0  0  0
 43 48  1  0  0  0  0
 49 50  1  0  0  0  0
 49 54  1  0  0  0  0
 50 51  1  0  0  0  0
 50 53  1  0  0  0  0
 50 55  1  0  0  0  0
 51 52  2  0  0  0  0
 51 59  1  0  0  0  0
 53 56  1  0  0  0  0
 53 57  1  0  0  0  0
 53 58  1  0  0  0  0
 59 60  1  0  0  0  0
 59 61  1  0  0  0  0
 60 62  1  0  0  0  0
 60 63  1  0  0  0  0
 60 64  1  0  0  0  0
M  END
$$$$

  -OEChem-05262216053D

 64 63  0     1  0  0  0  0  0999 V2000
   -1.8107    2.3884    4.8795 C   0  0  0  0  0  0  0  0  0  0  0  0
   -2.9208    2.5531    4.3941 O   0  0  0  0  0  0  0  0  0  0  0  0
   -1.3775    3.1990    6.0862 C   0  0  0  0  0  0  0  0  0  0  0  0
   -0.4886    3.7854    5.8403 H   0  0  0  0  0  0  0  0  0  0  0  0
   -2.1770    3.8810    6.3890 H   0  0  0  0  0  0  0  0  0  0  0  0
   -1.1467    2.5327    6.9211 H   0  0  0  0  0  0  0  0  0  0  0  0
   -0.9487    1.4673    4.3262 N   0  0  0  0  0  0  0  0  0  0  0  0
   -1.2427    0.6822    3.1214 C   0  0  2  0  0  0  0  0  0  0  0  0
   -0.4069   -0.6073    3.0152 C   0  0  0  0  0  0  0  0  0  0  0  0
    0.5886   -0.7654    3.7161 O   0  0  0  0  0  0  0  0  0  0  0  0
   -1.0240    1.5522    1.8759 C   0  0  0  0  0  0  0  0  0  0  0  0
    0.6617    2.2799    1.8093 S   0  0  0  0  0  0  0  0  0  0  0  0
   -0.0293    1.3480    4.7481 H   0  0  0  0  0  0  0  0  0  0  0  0
   -2.2889    0.3655    3.1579 H   0  0  0  0  0  0  0  0  0  0  0  0
   -1.1825    0.9493    0.9782 H   0  0  0  0  0  0  0  0  0  0  0  0
   -1.7571    2.3641    1.8629 H   0  0  0  0  0  0  0  0  0  0  0  0
   -0.7951   -1.6011    2.1371 N   0  0  0  0  0  0  0  0  0  0  0  0
   -0.0810   -2.8594    1.9731 C   0  0  0  0  0  0  0  0  0  0  0  0
   -1.6692   -1.4564    1.6231 H   0  0  0  0  0  0  0  0  0  0  0  0
    0.9669   -2.6754    1.7148 H   0  0  0  0  0  0  0  0  0  0  0  0
   -0.1201   -3.4450    2.8972 H   0  0  0  0  0  0  0  0  0  0  0  0
   -0.5340   -3.4471    1.1690 H   0  0  0  0  0  0  0  0  0  0  0  0
   -3.9626    0.3383    0.6001 C   0  0  0  0  0  0  0  0  0  0  0  0
   -3.3520   -0.6593    0.9637 O   0  0  0  0  0  0  0  0  0  0  0  0
   -4.7363    1.1650    1.6105 C   0  0  0  0  0  0  0  0  0  0  0  0
   -5.7674    1.2979    1.2748 H   0  0  0  0  0  0  0  0  0  0  0  0
   -4.7459    0.6656    2.5835 H   0  0  0  0  0  0  0  0  0  0  0  0
   -4.2709    2.1472    1.7283 H   0  0  0  0  0  0  0  0  0  0  0  0
   -3.8860    0.7544   -0.7128 N   0  0  0  0  0  0  0  0  0  0  0  0
   -2.9835    0.1557   -1.7078 C   0  0  2  0  0  0  0  0  0  0  0  0
   -1.7049    0.9922   -1.9231 C   0  0  0  0  0  0  0  0  0  0  0  0
   -1.7710    2.2119   -1.8997 O   0  0  0  0  0  0  0  0  0  0  0  0
   -3.7559    0.0254   -3.0221 C   0  0  0  0  0  0  0  0  0  0  0  0
   -4.1986    1.7060   -0.8958 H   0  0  0  0  0  0  0  0  0  0  0  0
   -2.6788   -0.8476   -1.3918 H   0  0  0  0  0  0  0  0  0  0  0  0
   -4.0652    1.0106   -3.3864 H   0  0  0  0  0  0  0  0  0  0  0  0
   -3.1294   -0.4455   -3.7864 H   0  0  0  0  0  0  0  0  0  0  0  0
   -4.6487   -0.5909   -2.8780 H   0  0  0  0  0  0  0  0  0  0  0  0
   -0.5417    0.3482   -2.2946 N   0  0  0  0  0  0  0  0  0  0  0  0
    0.8519    0.8408   -2.3135 C   0  0  2  0  0  0  0  0  0  0  0  0
    1.7305   -0.3257   -2.8307 C   0  0  0  0  0  0  0  0  0  0  0  0
    1.4153   -0.8875   -3.8740 O   0  0  0  0  0  0  0  0  0  0  0  0
    1.4110    1.3291   -0.9491 C   0  0  0  0  0  0  0  0  0  0  0  0
    0.6297    2.8146   -0.2039 S   0  0  0  0  0  0  0  0  0  0  0  0
   -0.6356   -0.6602   -2.4105 H   0  0  0  0  0  0  0  0  0  0  0  0
    0.9257    1.6656   -3.0300 H   0  0  0  0  0  0  0  0  0  0  0  0
    1.3087    0.5082   -0.2312 H   0  0  0  0  0  0  0  0  0  0  0  0
    2.4767    1.5548   -1.0551 H   0  0  0  0  0  0  0  0  0  0  0  0
    2.7568   -0.8798   -2.0806 N   0  0  0  0  0  0  0  0  0  0  0  0
    3.1318   -2.2894   -2.2664 C   0  0  2  0  0  0  0  0  0  0  0  0
    2.0156   -3.2588   -1.8044 C   0  0  0  0  0  0  0  0  0  0  0  0
    1.1240   -2.8710   -1.0552 O   0  0  0  0  0  0  0  0  0  0  0  0
    4.4157   -2.5358   -1.4710 C   0  0  0  0  0  0  0  0  0  0  0  0
    2.8251   -0.5238   -1.1314 H   0  0  0  0  0  0  0  0  0  0  0  0
    3.3344   -2.4792   -3.3262 H   0  0  0  0  0  0  0  0  0  0  0  0
    4.2422   -2.3734   -0.4021 H   0  0  0  0  0  0  0  0  0  0  0  0
    4.7631   -3.5636   -1.6138 H   0  0  0  0  0  0  0  0  0  0  0  0
    5.2060   -1.8553   -1.8037 H   0  0  0  0  0  0  0  0  0  0  0  0
    2.0080   -4.5748   -2.2285 N   0  0  0  0  0  0  0  0  0  0  0  0
    0.9499   -5.5174   -1.8833 C   0  0  0  0  0  0  0  0  0  0  0  0
    2.7063   -4.8511   -2.9125 H   0  0  0  0  0  0  0  0  0  0  0  0
    0.8863   -5.6407   -0.7969 H   0  0  0  0  0  0  0  0  0  0  0  0
   -0.0170   -5.1619   -2.2547 H   0  0  0  0  0  0  0  0  0  0  0  0
    1.1525   -6.4955   -2.3301 H   0  0  0  0  0  0  0  0  0  0  0  0
  1  2  2  0  0  0  0
  1  3  1  0  0  0  0
  1  7  1  0  0  0  0
  3  4  1  0  0  0  0
  3  5  1  0  0  0  0
  3  6  1  0  0  0  0
  7  8  1  0  0  0  0
  7 13  1  0  0  0  0
  8  9  1  0  0  0  0
  8 11  1  0  0  0  0
  8 14  1  0  0  0  0
  9 10  2  0  0  0  0
  9 17  1  0  0  0  0
 11 12  1  0  0  0  0
 11 15  1  0  0  0  0
 11 16  1  0  0  0  0
 12 44  1  0  0  0  0
 17 18  1  0  0  0  0
 17 19  1  0  0  0  0
 18 20  1  0  0  0  0
 18 21  1  0  0  0  0
 18 22  1  0  0  0  0
 23 24  2  0  0  0  0
 23 25  1  0  0  0  0
 23 29  1  0  0  0  0
 25 26  1  0  0  0  0
 25 27  1  0  0  0  0
 25 28  1  0  0  0  0
 29 30  1  0  0  0  0
 29 34  1  0  0  0  0
 30 31  1  0  0  0  0
 30 33  1  0  0  0  0
 30 35  1  0  0  0  0
 31 32  2  0  0  0  0
 31 39  1  0  0  0  0
 33 36  1  0  0  0  0
 33 37  1  0  0  0  0
 33 38  1  0  0  0  0
 39 40  1  0  0  0  0
 39 45  1  0  0  0  0
 40 41  1  0  0  0  0
 40 43  1  0  0  0  0
 40 46  1  0  0  0  0
 41 42  2  0  0  0  0
 41 49  1  0  0  0  0
 43 44  1  0  0  0  0
 43 47  1  0  0  0  0
 43 48  1  0  0  0  0
 49 50  1  0  0  0  0
 49 54  1  0  0  0  0
 50 51  1  0  0  0  0
 50 53  1  0  0  0  0
 50 55  1  0  0  0  0
 51 52  2  0  0  0  0
 51 59  1  0  0  0  0
 53 56  1  0  0  0  0
 53 57  1  0  0  0  0
 53 58  1  0  0  0  0
 59 60  1  0  0  0  0
 59 61  1  0  0  0  0
 60 62  1  0  0  0  0
 60 63  1  0  0  0  0
 60 64  1  0  0  0  0
M  END
$$$$

  -OEChem-05262216053D

 64 63  0     1  0  0  0  0  0999 V2000
   -1.4824    2.3189    5.0228 C   0  0  0  0  0  0  0  0  0  0  0  0
   -2.6599    2.4908    4.7450 O   0  0  0  0  0  0  0  0  0  0  0  0
   -0.8721    3.0122    6.2260 C   0  0  0  0  0  0  0  0  0  0  0  0
   -0.0092    3.6067    5.9157 H   0  0  0  0  0  0  0  0  0  0  0  0
   -1.6071    3.6741    6.6924 H   0  0  0  0  0  0  0  0  0  0  0  0
   -0.5495    2.2697    6.9599 H   0  0  0  0  0  0  0  0  0  0  0  0
   -0.7071    1.4874    4.2453 N   0  0  0  0  0  0  0  0  0  0  0  0
   -1.1830    0.7969    3.0400 C   0  0  2  0  0  0  0  0  0  0  0  0
   -0.3418   -0.4471    2.6938 C   0  0  0  0  0  0  0  0  0  0  0  0
    0.7853   -0.5932    3.1590 O   0  0  0  0  0  0  0  0  0  0  0  0
   -1.1921    1.7704    1.8549 C   0  0  0  0  0  0  0  0  0  0  0  0
    0.4301    2.5988    1.6100 S   0  0  0  0  0  0  0  0  0  0  0  0
    0.2730    1.3680    4.4947 H   0  0  0  0  0  0  0  0  0  0  0  0
   -2.2045    0.4427    3.2132 H   0  0  0  0  0  0  0  0  0  0  0  0
   -1.4533    1.2278    0.9430 H   0  0  0  0  0  0  0  0  0  0  0  0
   -1.9577    2.5355    2.0147 H   0  0  0  0  0  0  0  0  0  0  0  0
   -0.8685   -1.4247    1.8727 N   0  0  0  0  0  0  0  0  0  0  0  0
   -0.2091   -2.6944    1.6044 C   0  0  0  0  0  0  0  0  0  0  0  0
   -1.8354   -1.2946    1.5587 H   0  0  0  0  0  0  0  0  0  0  0  0
    0.7789   -2.5274    1.1647 H   0  0  0  0  0  0  0  0  0  0  0  0
   -0.0911   -3.2681    2.5292 H   0  0  0  0  0  0  0  0  0  0  0  0
   -0.8045   -3.2866    0.9026 H   0  0  0  0  0  0  0  0  0  0  0  0
   -4.0987    0.4005    0.4889 C   0  0  0  0  0  0  0  0  0  0  0  0
   -3.5092   -0.5130    1.0515 O   0  0  0  0  0  0  0  0  0  0  0  0
   -4.8829    1.4103    1.3057 C   0  0  0  0  0  0  0  0  0  0  0  0
   -5.9486    1.3256    1.0807 H   0  0  0  0  0  0  0  0  0  0  0  0
   -4.7326    1.2345    2.3749 H   0  0  0  0  0  0  0  0  0  0  0  0
   -4.5480    2.4238    1.0707 H   0  0  0  0  0  0  0  0  0  0  0  0
   -3.9787    0.5666   -0.8752 N   0  0  0  0  0  0  0  0  0  0  0  0
   -3.0037   -0.1602   -1.7040 C   0  0  2  0  0  0  0  0  0  0  0  0
   -1.7973    0.7242   -2.0838 C   0  0  0  0  0  0  0  0  0  0  0  0
   -1.9522    1.9270   -2.2408 O   0  0  0  0  0  0  0  0  0  0  0  0
   -3.7264   -0.6459   -2.9618 C   0  0  0  0  0  0  0  0  0  0  0  0
   -4.2913    1.4657   -1.2378 H   0  0  0  0  0  0  0  0  0  0  0  0
   -2.6191   -1.0369   -1.1719 H   0  0  0  0  0  0  0  0  0  0  0  0
   -4.1031    0.2031   -3.5414 H   0  0  0  0  0  0  0  0  0  0  0  0
   -3.0447   -1.2229   -3.5947 H   0  0  0  0  0  0  0  0  0  0  0  0
   -4.5709   -1.2864   -2.6898 H   0  0  0  0  0  0  0  0  0  0  0  0
   -0.5847    0.1259   -2.3558 N   0  0  0  0  0  0  0  0  0  0  0  0
    0.7669    0.7229   -2.3463 C   0  0  2  0  0  0  0  0  0  0  0  0
    1.7395   -0.4107   -2.7333 C   0  0  0  0  0  0  0  0  0  0  0  0
    1.6915   -0.8908   -3.8597 O   0  0  0  0  0  0  0  0  0  0  0  0
    1.2223    1.3695   -1.0119 C   0  0  0  0  0  0  0  0  0  0  0  0
    0.2935    2.8515   -0.4517 S   0  0  0  0  0  0  0  0  0  0  0  0
   -0.5940   -0.8941   -2.2711 H   0  0  0  0  0  0  0  0  0  0  0  0
    0.8167    1.4893   -3.1271 H   0  0  0  0  0  0  0  0  0  0  0  0
    1.1340    0.6172   -0.2216 H   0  0  0  0  0  0  0  0  0  0  0  0
    2.2765    1.6539   -1.0904 H   0  0  0  0  0  0  0  0  0  0  0  0
    2.5418   -1.0298   -1.7879 N   0  0  0  0  0  0  0  0  0  0  0  0
    2.7707   -2.4774   -1.9053 C   0  0  2  0  0  0  0  0  0  0  0  0
    1.4535   -3.3011   -1.8912 C   0  0  0  0  0  0  0  0  0  0  0  0
    0.3896   -2.7945   -1.5350 O   0  0  0  0  0  0  0  0  0  0  0  0
    3.6709   -2.8951   -0.7401 C   0  0  0  0  0  0  0  0  0  0  0  0
    2.4158   -0.6798   -0.8422 H   0  0  0  0  0  0  0  0  0  0  0  0
    3.2916   -2.6844   -2.8466 H   0  0  0  0  0  0  0  0  0  0  0  0
    3.1741   -2.7068    0.2173 H   0  0  0  0  0  0  0  0  0  0  0  0
    3.9100   -3.9611   -0.8030 H   0  0  0  0  0  0  0  0  0  0  0  0
    4.6085   -2.3304   -0.7631 H   0  0  0  0  0  0  0  0  0  0  0  0
    1.4614   -4.6245   -2.2908 N   0  0  0  0  0  0  0  0  0  0  0  0
    0.2544   -5.4356   -2.3966 C   0  0  0  0  0  0  0  0  0  0  0  0
    2.3301   -4.9920   -2.6684 H   0  0  0  0  0  0  0  0  0  0  0  0
   -0.2416   -5.5149   -1.4236 H   0  0  0  0  0  0  0  0  0  0  0  0
   -0.4438   -4.9920   -3.1140 H   0  0  0  0  0  0  0  0  0  0  0  0
    0.5054   -6.4446   -2.7378 H   0  0  0  0  0  0  0  0  0  0  0  0
  1  2  2  0  0  0  0
  1  3  1  0  0  0  0
  1  7  1  0  0  0  0
  3  4  1  0  0  0  0
  3  5  1  0  0  0  0
  3  6  1  0  0  0  0
  7  8  1  0  0  0  0
  7 13  1  0  0  0  0
  8  9  1  0  0  0  0
  8 11  1  0  0  0  0
  8 14  1  0  0  0  0
  9 10  2  0  0  0  0
  9 17  1  0  0  0  0
 11 12  1  0  0  0  0
 11 15  1  0  0  0  0
 11 16  1  0  0  0  0
 12 44  1  0  0  0  0
 17 18  1  0  0  0  0
 17 19  1  0  0  0  0
 18 20  1  0  0  0  0
 18 21  1  0  0  0  0
 18 22  1  0  0  0  0
 23 24  2  0  0  0  0
 23 25  1  0  0  0  0
 23 29  1  0  0  0  0
 25 26  1  0  0  0  0
 25 27  1  0  0  0  0
 25 28  1  0  0  0  0
 29 30  1  0  0  0  0
 29 34  1  0  0  0  0
 30 31  1  0  0  0  0
 30 33  1  0  0  0  0
 30 35  1  0  0  0  0
 31 32  2  0  0  0  0
 31 39  1  0  0  0  0
 33 36  1  0  0  0  0
 33 37  1  0  0  0  0
 33 38  1  0  0  0  0
 39 40  1  0  0  0  0
 39 45  1  0  0  0  0
 40 41  1  0  0  0  0
 40 43  1  0  0  0  0
 40 46  1  0  0  0  0
 41 42  2  0  0  0  0
 41 49  1  0  0  0  0
 43 44  1  0  0  0  0
 43 47  1  0  0  0  0
 43 48  1  0  0  0  0
 49 50  1  0  0  0  0
 49 54  1  0  0  0  0
 50 51  1  0  0  0  0
 50 53  1  0  0  0  0
 50 55  1  0  0  0  0
 51 52  2  0  0  0  0
 51 59  1  0  0  0  0
 53 56  1  0  0  0  0
 53 57  1  0  0  0  0
 53 58  1  0  0  0  0
 59 60  1  0  0  0  0
 59 61  1  0  0  0  0
 60 62  1  0  0  0  0
 60 63  1  0  0  0  0
 60 64  1  0  0  0  0
M  END
$$$$

  -OEChem-05262216053D

 64 63  0     1  0  0  0  0  0999 V2000
   -1.4195    2.2436    4.9743 C   0  0  0  0  0  0  0  0  0  0  0  0
   -2.5943    2.4903    4.7472 O   0  0  0  0  0  0  0  0  0  0  0  0
   -0.7212    2.8847    6.1583 C   0  0  0  0  0  0  0  0  0  0  0  0
    0.1128    3.4995    5.8107 H   0  0  0  0  0  0  0  0  0  0  0  0
   -1.4209    3.5189    6.7099 H   0  0  0  0  0  0  0  0  0  0  0  0
   -0.3408    2.1115    6.8302 H   0  0  0  0  0  0  0  0  0  0  0  0
   -0.7259    1.3828    4.1519 N   0  0  0  0  0  0  0  0  0  0  0  0
   -1.2761    0.7866    2.9272 C   0  0  2  0  0  0  0  0  0  0  0  0
   -0.5134   -0.4784    2.4839 C   0  0  0  0  0  0  0  0  0  0  0  0
    0.6481   -0.6710    2.8333 O   0  0  0  0  0  0  0  0  0  0  0  0
   -1.2715    1.8238    1.7966 C   0  0  0  0  0  0  0  0  0  0  0  0
    0.3700    2.6288    1.5924 S   0  0  0  0  0  0  0  0  0  0  0  0
    0.2628    1.2297    4.3413 H   0  0  0  0  0  0  0  0  0  0  0  0
   -2.3097    0.4789    3.1174 H   0  0  0  0  0  0  0  0  0  0  0  0
   -1.5546    1.3395    0.8586 H   0  0  0  0  0  0  0  0  0  0  0  0
   -2.0176    2.5962    2.0063 H   0  0  0  0  0  0  0  0  0  0  0  0
   -1.1495   -1.4252    1.7051 N   0  0  0  0  0  0  0  0  0  0  0  0
   -0.5924   -2.7377    1.4140 C   0  0  0  0  0  0  0  0  0  0  0  0
   -2.1388   -1.2568    1.4960 H   0  0  0  0  0  0  0  0  0  0  0  0
    0.4106   -2.6436    0.9885 H   0  0  0  0  0  0  0  0  0  0  0  0
   -0.5335   -3.3386    2.3271 H   0  0  0  0  0  0  0  0  0  0  0  0
   -1.2254   -3.2627    0.6918 H   0  0  0  0  0  0  0  0  0  0  0  0
   -4.2522    0.4987    0.3807 C   0  0  0  0  0  0  0  0  0  0  0  0
   -3.7600   -0.4156    1.0274 O   0  0  0  0  0  0  0  0  0  0  0  0
   -5.0801    1.5578    1.0825 C   0  0  0  0  0  0  0  0  0  0  0  0
   -6.0935    1.5706    0.6743 H   0  0  0  0  0  0  0  0  0  0  0  0
   -5.1341    1.3476    2.1549 H   0  0  0  0  0  0  0  0  0  0  0  0
   -4.6254    2.5419    0.9419 H   0  0  0  0  0  0  0  0  0  0  0  0
   -3.9889    0.6141   -0.9680 N   0  0  0  0  0  0  0  0  0  0  0  0
   -2.9591   -0.1654   -1.6736 C   0  0  2  0  0  0  0  0  0  0  0  0
   -1.7475    0.7055   -2.0650 C   0  0  0  0  0  0  0  0  0  0  0  0
   -1.8979    1.9034   -2.2594 O   0  0  0  0  0  0  0  0  0  0  0  0
   -3.6021   -0.7749   -2.9202 C   0  0  0  0  0  0  0  0  0  0  0  0
   -4.2361    1.5081   -1.3897 H   0  0  0  0  0  0  0  0  0  0  0  0
   -2.5878   -0.9821   -1.0458 H   0  0  0  0  0  0  0  0  0  0  0  0
   -3.9591    0.0123   -3.5923 H   0  0  0  0  0  0  0  0  0  0  0  0
   -2.8769   -1.3917   -3.4609 H   0  0  0  0  0  0  0  0  0  0  0  0
   -4.4503   -1.4062   -2.6377 H   0  0  0  0  0  0  0  0  0  0  0  0
   -0.5332    0.0971   -2.3012 N   0  0  0  0  0  0  0  0  0  0  0  0
    0.8189    0.6928   -2.2995 C   0  0  2  0  0  0  0  0  0  0  0  0
    1.7943   -0.4523   -2.6328 C   0  0  0  0  0  0  0  0  0  0  0  0
    1.9122   -0.8295   -3.7920 O   0  0  0  0  0  0  0  0  0  0  0  0
    1.2689    1.3748   -0.9821 C   0  0  0  0  0  0  0  0  0  0  0  0
    0.3345    2.8720   -0.4742 S   0  0  0  0  0  0  0  0  0  0  0  0
   -0.5519   -0.9228   -2.1949 H   0  0  0  0  0  0  0  0  0  0  0  0
    0.8767    1.4337   -3.1039 H   0  0  0  0  0  0  0  0  0  0  0  0
    1.1776    0.6489   -0.1684 H   0  0  0  0  0  0  0  0  0  0  0  0
    2.3247    1.6531   -1.0637 H   0  0  0  0  0  0  0  0  0  0  0  0
    2.3450   -1.2271   -1.6246 N   0  0  0  0  0  0  0  0  0  0  0  0
    2.4564   -2.6767   -1.8414 C   0  0  2  0  0  0  0  0  0  0  0  0
    1.0710   -3.3539   -2.0178 C   0  0  0  0  0  0  0  0  0  0  0  0
    0.0335   -2.7618   -1.7189 O   0  0  0  0  0  0  0  0  0  0  0  0
    3.2030   -3.2706   -0.6444 C   0  0  0  0  0  0  0  0  0  0  0  0
    2.0702   -0.9439   -0.6873 H   0  0  0  0  0  0  0  0  0  0  0  0
    3.0444   -2.8660   -2.7461 H   0  0  0  0  0  0  0  0  0  0  0  0
    2.6539   -3.0868    0.2844 H   0  0  0  0  0  0  0  0  0  0  0  0
    3.3269   -4.3512   -0.7660 H   0  0  0  0  0  0  0  0  0  0  0  0
    4.1960   -2.8181   -0.5559 H   0  0  0  0  0  0  0  0  0  0  0  0
    0.9824   -4.6335   -2.5322 N   0  0  0  0  0  0  0  0  0  0  0  0
   -0.2864   -5.2961   -2.8115 C   0  0  0  0  0  0  0  0  0  0  0  0
    1.8395   -5.0580   -2.8755 H   0  0  0  0  0  0  0  0  0  0  0  0
   -0.8906   -5.3697   -1.9010 H   0  0  0  0  0  0  0  0  0  0  0  0
   -0.8517   -4.7388   -3.5661 H   0  0  0  0  0  0  0  0  0  0  0  0
   -0.1099   -6.3082   -3.1887 H   0  0  0  0  0  0  0  0  0  0  0  0
  1  2  2  0  0  0  0
  1  3  1  0  0  0  0
  1  7  1  0  0  0  0
  3  4  1  0  0  0  0
  3  5  1  0  0  0  0
  3  6  1  0  0  0  0
  7  8  1  0  0  0  0
  7 13  1  0  0  0  0
  8  9  1  0  0  0  0
  8 11  1  0  0  0  0
  8 14  1  0  0  0  0
  9 10  2  0  0  0  0
  9 17  1  0  0  0  0
 11 12  1  0  0  0  0
 11 15  1  0  0  0  0
 11 16  1  0  0  0  0
 12 44  1  0  0  0  0
 17 18  1  0  0  0  0
 17 19  1  0  0  0  0
 18 20  1  0  0  0  0
 18 21  1  0  0  0  0
 18 22  1  0  0  0  0
 23 24  2  0  0  0  0
 23 25  1  0  0  0  0
 23 29  1  0  0  0  0
 25 26  1  0  0  0  0
 25 27  1  0  0  0  0
 25 28  1  0  0  0  0
 29 30  1  0  0  0  0
 29 34  1  0  0  0  0
 30 31  1  0  0  0  0
 30 33  1  0  0  0  0
 30 35  1  0  0  0  0
 31 32  2  0  0  0  0
 31 39  1  0  0  0  0
 33 36  1  0  0  0  0
 33 37  1  0  0  0  0
 33 38  1  0  0  0  0
 39 40  1  0  0  0  0
 39 45  1  0  0  0  0
 40 41  1  0  0  0  0
 40 43  1  0  0  0  0
 40 46  1  0  0  0  0
 41 42  2  0  0  0  0
 41 49  1  0  0  0  0
 43 44  1  0  0  0  0
 43 47  1  0  0  0  0
 43 48  1  0  0  0  0
 49 50  1  0  0  0  0
 49 54  1  0  0  0  0
 50 51  1  0  0  0  0
 50 53  1  0  0  0  0
 50 55  1  0  0  0  0
 51 52  2  0  0  0  0
 51 59  1  0  0  0  0
 53 56  1  0  0  0  0
 53 57  1  0  0  0  0
 53 58  1  0  0  0  0
 59 60  1  0  0  0  0
 59 61  1  0  0  0  0
 60 62  1  0  0  0  0
 60 63  1  0  0  0  0
 60 64  1  0  0  0  0
M  END
$$$$

  -OEChem-05262216053D

 64 63  0     1  0  0  0  0  0999 V2000
   -0.7316    1.7759    5.1336 C   0  0  0  0  0  0  0  0  0  0  0  0
   -1.9107    2.0459    5.2991 O   0  0  0  0  0  0  0  0  0  0  0  0
    0.2993    2.2138    6.1563 C   0  0  0  0  0  0  0  0  0  0  0  0
    1.0233    2.8864    5.6897 H   0  0  0  0  0  0  0  0  0  0  0  0
   -0.1887    2.7398    6.9816 H   0  0  0  0  0  0  0  0  0  0  0  0
    0.8244    1.3427    6.5551 H   0  0  0  0  0  0  0  0  0  0  0  0
   -0.3339    1.0828    4.0109 N   0  0  0  0  0  0  0  0  0  0  0  0
   -1.2229    0.7431    2.8904 C   0  0  2  0  0  0  0  0  0  0  0  0
   -0.6963   -0.4492    2.0628 C   0  0  0  0  0  0  0  0  0  0  0  0
    0.5000   -0.7327    2.0413 O   0  0  0  0  0  0  0  0  0  0  0  0
   -1.4404    1.9807    2.0064 C   0  0  0  0  0  0  0  0  0  0  0  0
    0.1257    2.8782    1.6398 S   0  0  0  0  0  0  0  0  0  0  0  0
    0.6628    0.9244    3.8789 H   0  0  0  0  0  0  0  0  0  0  0  0
   -2.1957    0.4338    3.2885 H   0  0  0  0  0  0  0  0  0  0  0  0
   -1.9237    1.6869    1.0702 H   0  0  0  0  0  0  0  0  0  0  0  0
   -2.1182    2.6686    2.5216 H   0  0  0  0  0  0  0  0  0  0  0  0
   -1.5886   -1.2664    1.3972 N   0  0  0  0  0  0  0  0  0  0  0  0
   -1.2745   -2.6084    0.9273 C   0  0  0  0  0  0  0  0  0  0  0  0
   -2.5746   -0.9867    1.4319 H   0  0  0  0  0  0  0  0  0  0  0  0
   -0.2629   -2.6537    0.5188 H   0  0  0  0  0  0  0  0  0  0  0  0
   -1.3495   -3.3254    1.7507 H   0  0  0  0  0  0  0  0  0  0  0  0
   -1.9742   -2.9059    0.1404 H   0  0  0  0  0  0  0  0  0  0  0  0
   -4.5941    0.7627    0.0989 C   0  0  0  0  0  0  0  0  0  0  0  0
   -4.0885    0.0095    0.9202 O   0  0  0  0  0  0  0  0  0  0  0  0
   -5.5085    1.8787    0.5656 C   0  0  0  0  0  0  0  0  0  0  0  0
   -6.4989    1.7617    0.1192 H   0  0  0  0  0  0  0  0  0  0  0  0
   -5.6073    1.8562    1.6545 H   0  0  0  0  0  0  0  0  0  0  0  0
   -5.0954    2.8466    0.2705 H   0  0  0  0  0  0  0  0  0  0  0  0
   -4.2965    0.6404   -1.2425 N   0  0  0  0  0  0  0  0  0  0  0  0
   -3.1779   -0.1665   -1.7562 C   0  0  2  0  0  0  0  0  0  0  0  0
   -1.9412    0.7014   -2.0736 C   0  0  0  0  0  0  0  0  0  0  0  0
   -2.0872    1.8900   -2.3231 O   0  0  0  0  0  0  0  0  0  0  0  0
   -3.6584   -0.8924   -3.0135 C   0  0  0  0  0  0  0  0  0  0  0  0
   -4.5640    1.4382   -1.8162 H   0  0  0  0  0  0  0  0  0  0  0  0
   -2.8781   -0.9209   -1.0240 H   0  0  0  0  0  0  0  0  0  0  0  0
   -3.9398   -0.1726   -3.7889 H   0  0  0  0  0  0  0  0  0  0  0  0
   -2.8655   -1.5365   -3.4075 H   0  0  0  0  0  0  0  0  0  0  0  0
   -4.5273   -1.5161   -2.7822 H   0  0  0  0  0  0  0  0  0  0  0  0
   -0.7029    0.1062   -2.2023 N   0  0  0  0  0  0  0  0  0  0  0  0
    0.6317    0.7419   -2.1597 C   0  0  2  0  0  0  0  0  0  0  0  0
    1.6616   -0.3829   -2.3635 C   0  0  0  0  0  0  0  0  0  0  0  0
    2.0715   -0.6354   -3.4894 O   0  0  0  0  0  0  0  0  0  0  0  0
    1.0016    1.4795   -0.8508 C   0  0  0  0  0  0  0  0  0  0  0  0
    0.0041    2.9625   -0.4364 S   0  0  0  0  0  0  0  0  0  0  0  0
   -0.7101   -0.9169   -2.1290 H   0  0  0  0  0  0  0  0  0  0  0  0
    0.7165    1.4482   -2.9926 H   0  0  0  0  0  0  0  0  0  0  0  0
    0.9047    0.7796   -0.0194 H   0  0  0  0  0  0  0  0  0  0  0  0
    2.0509    1.7877   -0.8983 H   0  0  0  0  0  0  0  0  0  0  0  0
    1.9383   -1.2693   -1.3340 N   0  0  0  0  0  0  0  0  0  0  0  0
    2.1544   -2.6863   -1.6571 C   0  0  2  0  0  0  0  0  0  0  0  0
    0.8654   -3.3660   -2.1898 C   0  0  0  0  0  0  0  0  0  0  0  0
   -0.2341   -2.8245   -2.0671 O   0  0  0  0  0  0  0  0  0  0  0  0
    2.6672   -3.3847   -0.3949 C   0  0  0  0  0  0  0  0  0  0  0  0
    1.4464   -1.0773   -0.4611 H   0  0  0  0  0  0  0  0  0  0  0  0
    2.9248   -2.7708   -2.4314 H   0  0  0  0  0  0  0  0  0  0  0  0
    1.9358   -3.3130    0.4154 H   0  0  0  0  0  0  0  0  0  0  0  0
    2.8619   -4.4429   -0.5942 H   0  0  0  0  0  0  0  0  0  0  0  0
    3.5999   -2.9201   -0.0596 H   0  0  0  0  0  0  0  0  0  0  0  0
    0.9370   -4.5904   -2.8274 N   0  0  0  0  0  0  0  0  0  0  0  0
   -0.2144   -5.2369   -3.4461 C   0  0  0  0  0  0  0  0  0  0  0  0
    1.8633   -4.9662   -3.0106 H   0  0  0  0  0  0  0  0  0  0  0  0
   -1.0030   -5.4083   -2.7058 H   0  0  0  0  0  0  0  0  0  0  0  0
   -0.6164   -4.6137   -4.2520 H   0  0  0  0  0  0  0  0  0  0  0  0
    0.0766   -6.2036   -3.8682 H   0  0  0  0  0  0  0  0  0  0  0  0
  1  2  2  0  0  0  0
  1  3  1  0  0  0  0
  1  7  1  0  0  0  0
  3  4  1  0  0  0  0
  3  5  1  0  0  0  0
  3  6  1  0  0  0  0
  7  8  1  0  0  0  0
  7 13  1  0  0  0  0
  8  9  1  0  0  0  0
  8 11  1  0  0  0  0
  8 14  1  0  0  0  0
  9 10  2  0  0  0  0
  9 17  1  0  0  0  0
 11 12  1  0  0  0  0
 11 15  1  0  0  0  0
 11 16  1  0  0  0  0
 12 44  1  0  0  0  0
 17 18  1  0  0  0  0
 17 19  1  0  0  0  0
 18 20  1  0  0  0  0
 18 21  1  0  0  0  0
 18 22  1  0  0  0  0
 23 24  2  0  0  0  0
 23 25  1  0  0  0  0
 23 29  1  0  0  0  0
 25 26  1  0  0  0  0
 25 27  1  0  0  0  0
 25 28  1  0  0  0  0
 29 30  1  0  0  0  0
 29 34  1  0  0  0  0
 30 31  1  0  0  0  0
 30 33  1  0  0  0  0
 30 35  1  0  0  0  0
 31 32  2  0  0  0  0
 31 39  1  0  0  0  0
 33 36  1  0  0  0  0
 33 37  1  0  0  0  0
 33 38  1  0  0  0  0
 39 40  1  0  0  0  0
 39 45  1  0  0  0  0
 40 41  1  0  0  0  0
 40 43  1  0  0  0  0
 40 46  1  0  0  0  0
 41 42  2  0  0  0  0
 41 49  1  0  0  0  0
 43 44  1  0  0  0  0
 43 47  1  0  0  0  0
 43 48  1  0  0  0  0
 49 50  1  0  0  0  0
 49 54  1  0  0  0  0
 50 51  1  0  0  0  0
 50 53  1  0  0  0  0
 50 55  1  0  0  0  0
 51 52  2  0  0  0  0
 51 59  1  0  0  0  0
 53 56  1  0  0  0  0
 53 57  1  0  0  0  0
 53 58  1  0  0  0  0
 59 60  1  0  0  0  0
 59 61  1  0  0  0  0
 60 62  1  0  0  0  0
 60 63  1  0  0  0  0
 60 64  1  0  0  0  0
M  END
$$$$

  -OEChem-05262216053D

 64 63  0     1  0  0  0  0  0999 V2000
   -1.7269    2.1261    4.9375 C   0  0  0  0  0  0  0  0  0  0  0  0
   -2.8734    2.3677    4.5893 O   0  0  0  0  0  0  0  0  0  0  0  0
   -1.1677    2.7476    6.2027 C   0  0  0  0  0  0  0  0  0  0  0  0
   -0.2981    3.3637    5.9611 H   0  0  0  0  0  0  0  0  0  0  0  0
   -1.9243    3.3770    6.6794 H   0  0  0  0  0  0  0  0  0  0  0  0
   -0.8685    1.9638    6.9026 H   0  0  0  0  0  0  0  0  0  0  0  0
   -0.9395    1.2904    4.1760 N   0  0  0  0  0  0  0  0  0  0  0  0
   -1.3564    0.7078    2.8941 C   0  0  2  0  0  0  0  0  0  0  0  0
   -0.5421   -0.5412    2.5005 C   0  0  0  0  0  0  0  0  0  0  0  0
    0.5258   -0.7948    3.0497 O   0  0  0  0  0  0  0  0  0  0  0  0
   -1.2459    1.7668    1.7897 C   0  0  0  0  0  0  0  0  0  0  0  0
    0.4424    2.4898    1.6966 S   0  0  0  0  0  0  0  0  0  0  0  0
    0.0201    1.1256    4.4750 H   0  0  0  0  0  0  0  0  0  0  0  0
   -2.3998    0.3879    2.9784 H   0  0  0  0  0  0  0  0  0  0  0  0
   -1.4973    1.3149    0.8272 H   0  0  0  0  0  0  0  0  0  0  0  0
   -1.9664    2.5697    1.9733 H   0  0  0  0  0  0  0  0  0  0  0  0
   -1.0252   -1.4016    1.5320 N   0  0  0  0  0  0  0  0  0  0  0  0
   -0.4399   -2.7063    1.2643 C   0  0  0  0  0  0  0  0  0  0  0  0
   -1.9902   -1.2350    1.2290 H   0  0  0  0  0  0  0  0  0  0  0  0
    0.6396   -2.6171    1.1097 H   0  0  0  0  0  0  0  0  0  0  0  0
   -0.6198   -3.3848    2.1045 H   0  0  0  0  0  0  0  0  0  0  0  0
   -0.8848   -3.1411    0.3640 H   0  0  0  0  0  0  0  0  0  0  0  0
   -4.2213    0.4737    0.3643 C   0  0  0  0  0  0  0  0  0  0  0  0
   -3.6858   -0.4991    0.8777 O   0  0  0  0  0  0  0  0  0  0  0  0
   -5.0025    1.4495    1.2236 C   0  0  0  0  0  0  0  0  0  0  0  0
   -6.0316    1.5237    0.8641 H   0  0  0  0  0  0  0  0  0  0  0  0
   -5.0159    1.1130    2.2647 H   0  0  0  0  0  0  0  0  0  0  0  0
   -4.5383    2.4382    1.1834 H   0  0  0  0  0  0  0  0  0  0  0  0
   -4.0357    0.7317   -0.9773 N   0  0  0  0  0  0  0  0  0  0  0  0
   -3.0525    0.0234   -1.8121 C   0  0  2  0  0  0  0  0  0  0  0  0
   -1.7624    0.8476   -2.0069 C   0  0  0  0  0  0  0  0  0  0  0  0
   -1.8320    2.0656   -2.0722 O   0  0  0  0  0  0  0  0  0  0  0  0
   -3.7094   -0.2652   -3.1631 C   0  0  0  0  0  0  0  0  0  0  0  0
   -4.2987    1.6658   -1.2863 H   0  0  0  0  0  0  0  0  0  0  0  0
   -2.7753   -0.9344   -1.3588 H   0  0  0  0  0  0  0  0  0  0  0  0
   -3.9792    0.6691   -3.6665 H   0  0  0  0  0  0  0  0  0  0  0  0
   -3.0233   -0.8228   -3.8087 H   0  0  0  0  0  0  0  0  0  0  0  0
   -4.6160   -0.8624   -3.0241 H   0  0  0  0  0  0  0  0  0  0  0  0
   -0.5746    0.1886   -2.2497 N   0  0  0  0  0  0  0  0  0  0  0  0
    0.8111    0.7127   -2.2619 C   0  0  2  0  0  0  0  0  0  0  0  0
    1.7438   -0.4643   -2.5983 C   0  0  0  0  0  0  0  0  0  0  0  0
    2.2278   -0.5502   -3.7185 O   0  0  0  0  0  0  0  0  0  0  0  0
    1.3366    1.3254   -0.9391 C   0  0  0  0  0  0  0  0  0  0  0  0
    0.5041    2.8548   -0.3525 S   0  0  0  0  0  0  0  0  0  0  0  0
   -0.6704   -0.8308   -2.3068 H   0  0  0  0  0  0  0  0  0  0  0  0
    0.8974    1.4674   -3.0513 H   0  0  0  0  0  0  0  0  0  0  0  0
    1.2454    0.5753   -0.1476 H   0  0  0  0  0  0  0  0  0  0  0  0
    2.4017    1.5534   -1.0513 H   0  0  0  0  0  0  0  0  0  0  0  0
    1.7698   -1.5716   -1.7650 N   0  0  0  0  0  0  0  0  0  0  0  0
    1.7790   -2.9227   -2.3477 C   0  0  2  0  0  0  0  0  0  0  0  0
    0.3571   -3.3410   -2.7915 C   0  0  0  0  0  0  0  0  0  0  0  0
   -0.6246   -2.7282   -2.3720 O   0  0  0  0  0  0  0  0  0  0  0  0
    2.3416   -3.8993   -1.3126 C   0  0  0  0  0  0  0  0  0  0  0  0
    1.2120   -1.4613   -0.9207 H   0  0  0  0  0  0  0  0  0  0  0  0
    2.4343   -2.9515   -3.2252 H   0  0  0  0  0  0  0  0  0  0  0  0
    1.6821   -3.9679   -0.4434 H   0  0  0  0  0  0  0  0  0  0  0  0
    2.4436   -4.8985   -1.7472 H   0  0  0  0  0  0  0  0  0  0  0  0
    3.3293   -3.5677   -0.9764 H   0  0  0  0  0  0  0  0  0  0  0  0
    0.1713   -4.3840   -3.6784 N   0  0  0  0  0  0  0  0  0  0  0  0
   -1.1358   -4.7628   -4.2028 C   0  0  0  0  0  0  0  0  0  0  0  0
    1.0012   -4.8160   -4.0759 H   0  0  0  0  0  0  0  0  0  0  0  0
   -1.8086   -5.0487   -3.3873 H   0  0  0  0  0  0  0  0  0  0  0  0
   -1.5839   -3.9297   -4.7549 H   0  0  0  0  0  0  0  0  0  0  0  0
   -1.0385   -5.6149   -4.8827 H   0  0  0  0  0  0  0  0  0  0  0  0
  1  2  2  0  0  0  0
  1  3  1  0  0  0  0
  1  7  1  0  0  0  0
  3  4  1  0  0  0  0
  3  5  1  0  0  0  0
  3  6  1  0  0  0  0
  7  8  1  0  0  0  0
  7 13  1  0  0  0  0
  8  9  1  0  0  0  0
  8 11  1  0  0  0  0
  8 14  1  0  0  0  0
  9 10  2  0  0  0  0
  9 17  1  0  0  0  0
 11 12  1  0  0  0  0
 11 15  1  0  0  0  0
 11 16  1  0  0  0  0
 12 44  1  0  0  0  0
 17 18  1  0  0  0  0
 17 19  1  0  0  0  0
 18 20  1  0  0  0  0
 18 21  1  0  0  0  0
 18 22  1  0  0  0  0
 23 24  2  0  0  0  0
 23 25  1  0  0  0  0
 23 29  1  0  0  0  0
 25 26  1  0  0  0  0
 25 27  1  0  0  0  0
 25 28  1  0  0  0  0
 29 30  1  0  0  0  0
 29 34  1  0  0  0  0
 30 31  1  0  0  0  0
 30 33  1  0  0  0  0
 30 35  1  0  0  0  0
 31 32  2  0  0  0  0
 31 39  1  0  0  0  0
 33 36  1  0  0  0  0
 33 37  1  0  0  0  0
 33 38  1  0  0  0  0
 39 40  1  0  0  0  0
 39 45  1  0  0  0  0
 40 41  1  0  0  0  0
 40 43  1  0  0  0  0
 40 46  1  0  0  0  0
 41 42  2  0  0  0  0
 41 49  1  0  0  0  0
 43 44  1  0  0  0  0
 43 47  1  0  0  0  0
 43 48  1  0  0  0  0
 49 50  1  0  0  0  0
 49 54  1  0  0  0  0
 50 51  1  0  0  0  0
 50 53  1  0  0  0  0
 50 55  1  0  0  0  0
 51 52  2  0  0  0  0
 51 59  1  0  0  0  0
 53 56  1  0  0  0  0
 53 57  1  0  0  0  0
 53 58  1  0  0  0  0
 59 60  1  0  0  0  0
 59 61  1  0  0  0  0
 60 62  1  0  0  0  0
 60 63  1  0  0  0  0
 60 64  1  0  0  0  0
M  END
$$$$

  -OEChem-05262216053D

 64 63  0     1  0  0  0  0  0999 V2000
   -1.6686    1.8998    4.9729 C   0  0  0  0  0  0  0  0  0  0  0  0
   -2.8280    2.1619    4.6888 O   0  0  0  0  0  0  0  0  0  0  0  0
   -1.0831    2.3675    6.2913 C   0  0  0  0  0  0  0  0  0  0  0  0
   -0.2410    3.0390    6.1077 H   0  0  0  0  0  0  0  0  0  0  0  0
   -1.8411    2.9020    6.8704 H   0  0  0  0  0  0  0  0  0  0  0  0
   -0.7365    1.5088    6.8712 H   0  0  0  0  0  0  0  0  0  0  0  0
   -0.8940    1.1734    4.0953 N   0  0  0  0  0  0  0  0  0  0  0  0
   -1.3534    0.7031    2.7824 C   0  0  2  0  0  0  0  0  0  0  0  0
   -0.5539   -0.5112    2.2676 C   0  0  0  0  0  0  0  0  0  0  0  0
    0.5324   -0.8022    2.7591 O   0  0  0  0  0  0  0  0  0  0  0  0
   -1.2779    1.8528    1.7701 C   0  0  0  0  0  0  0  0  0  0  0  0
    0.4063    2.5874    1.6844 S   0  0  0  0  0  0  0  0  0  0  0  0
    0.0721    0.9763    4.3510 H   0  0  0  0  0  0  0  0  0  0  0  0
   -2.3943    0.3771    2.8715 H   0  0  0  0  0  0  0  0  0  0  0  0
   -1.5620    1.4850    0.7812 H   0  0  0  0  0  0  0  0  0  0  0  0
   -1.9915    2.6349    2.0469 H   0  0  0  0  0  0  0  0  0  0  0  0
   -1.0779   -1.3153    1.2719 N   0  0  0  0  0  0  0  0  0  0  0  0
   -0.5327   -2.6262    0.9525 C   0  0  0  0  0  0  0  0  0  0  0  0
   -2.0541   -1.1269    1.0209 H   0  0  0  0  0  0  0  0  0  0  0  0
    0.5453   -2.5616    0.7762 H   0  0  0  0  0  0  0  0  0  0  0  0
   -0.7109   -3.3242    1.7770 H   0  0  0  0  0  0  0  0  0  0  0  0
   -1.0092   -3.0222    0.0507 H   0  0  0  0  0  0  0  0  0  0  0  0
   -4.2725    0.6198    0.2265 C   0  0  0  0  0  0  0  0  0  0  0  0
   -3.7387   -0.3507    0.7463 O   0  0  0  0  0  0  0  0  0  0  0  0
   -5.0474    1.6048    1.0808 C   0  0  0  0  0  0  0  0  0  0  0  0
   -6.0983    1.6117    0.7824 H   0  0  0  0  0  0  0  0  0  0  0  0
   -4.9810    1.3249    2.1363 H   0  0  0  0  0  0  0  0  0  0  0  0
   -4.6352    2.6099    0.9611 H   0  0  0  0  0  0  0  0  0  0  0  0
   -4.0907    0.8638   -1.1186 N   0  0  0  0  0  0  0  0  0  0  0  0
   -3.0955    0.1533   -1.9375 C   0  0  2  0  0  0  0  0  0  0  0  0
   -1.7806    0.9512   -2.0611 C   0  0  0  0  0  0  0  0  0  0  0  0
   -1.8232    2.1705   -2.1189 O   0  0  0  0  0  0  0  0  0  0  0  0
   -3.7038   -0.0887   -3.3199 C   0  0  0  0  0  0  0  0  0  0  0  0
   -4.3470    1.7979   -1.4329 H   0  0  0  0  0  0  0  0  0  0  0  0
   -2.8600   -0.8224   -1.4991 H   0  0  0  0  0  0  0  0  0  0  0  0
   -3.9264    0.8625   -3.8141 H   0  0  0  0  0  0  0  0  0  0  0  0
   -3.0062   -0.6526   -3.9473 H   0  0  0  0  0  0  0  0  0  0  0  0
   -4.6306   -0.6638   -3.2316 H   0  0  0  0  0  0  0  0  0  0  0  0
   -0.5981    0.2652   -2.2481 N   0  0  0  0  0  0  0  0  0  0  0  0
    0.7980    0.7644   -2.2502 C   0  0  2  0  0  0  0  0  0  0  0  0
    1.7339   -0.4294   -2.5142 C   0  0  0  0  0  0  0  0  0  0  0  0
    2.4431   -0.4330   -3.5102 O   0  0  0  0  0  0  0  0  0  0  0  0
    1.3052    1.3852   -0.9251 C   0  0  0  0  0  0  0  0  0  0  0  0
    0.4897    2.9342   -0.3675 S   0  0  0  0  0  0  0  0  0  0  0  0
   -0.7221   -0.7444   -2.3719 H   0  0  0  0  0  0  0  0  0  0  0  0
    0.9165    1.4978   -3.0554 H   0  0  0  0  0  0  0  0  0  0  0  0
    1.1886    0.6416   -0.1301 H   0  0  0  0  0  0  0  0  0  0  0  0
    2.3756    1.5963   -1.0186 H   0  0  0  0  0  0  0  0  0  0  0  0
    1.5179   -1.6159   -1.8322 N   0  0  0  0  0  0  0  0  0  0  0  0
    1.5284   -2.9027   -2.5454 C   0  0  2  0  0  0  0  0  0  0  0  0
    0.1190   -3.2404   -3.0834 C   0  0  0  0  0  0  0  0  0  0  0  0
   -0.8574   -2.6046   -2.6872 O   0  0  0  0  0  0  0  0  0  0  0  0
    2.0312   -3.9880   -1.5915 C   0  0  0  0  0  0  0  0  0  0  0  0
    0.8309   -1.5347   -1.0850 H   0  0  0  0  0  0  0  0  0  0  0  0
    2.2148   -2.8629   -3.3980 H   0  0  0  0  0  0  0  0  0  0  0  0
    1.3329   -4.1334   -0.7630 H   0  0  0  0  0  0  0  0  0  0  0  0
    2.1402   -4.9396   -2.1205 H   0  0  0  0  0  0  0  0  0  0  0  0
    3.0069   -3.7079   -1.1818 H   0  0  0  0  0  0  0  0  0  0  0  0
   -0.0570   -4.2305   -4.0304 N   0  0  0  0  0  0  0  0  0  0  0  0
   -1.3422   -4.5203   -4.6555 C   0  0  0  0  0  0  0  0  0  0  0  0
    0.7770   -4.6788   -4.4001 H   0  0  0  0  0  0  0  0  0  0  0  0
   -2.1011   -4.7379   -3.8965 H   0  0  0  0  0  0  0  0  0  0  0  0
   -1.6773   -3.6671   -5.2548 H   0  0  0  0  0  0  0  0  0  0  0  0
   -1.2549   -5.3916   -5.3118 H   0  0  0  0  0  0  0  0  0  0  0  0
  1  2  2  0  0  0  0
  1  3  1  0  0  0  0
  1  7  1  0  0  0  0
  3  4  1  0  0  0  0
  3  5  1  0  0  0  0
  3  6  1  0  0  0  0
  7  8  1  0  0  0  0
  7 13  1  0  0  0  0
  8  9  1  0  0  0  0
  8 11  1  0  0  0  0
  8 14  1  0  0  0  0
  9 10  2  0  0  0  0
  9 17  1  0  0  0  0
 11 12  1  0  0  0  0
 11 15  1  0  0  0  0
 11 16  1  0  0  0  0
 12 44  1  0  0  0  0
 17 18  1  0  0  0  0
 17 19  1  0  0  0  0
 18 20  1  0  0  0  0
 18 21  1  0  0  0  0
 18 22  1  0  0  0  0
 23 24  2  0  0  0  0
 23 25  1  0  0  0  0
 23 29  1  0  0  0  0
 25 26  1  0  0  0  0
 25 27  1  0  0  0  0
 25 28  1  0  0  0  0
 29 30  1  0  0  0  0
 29 34  1  0  0  0  0
 30 31  1  0  0  0  0
 30 33  1  0  0  0  0
 30 35  1  0  0  0  0
 31 32  2  0  0  0  0
 31 39  1  0  0  0  0
 33 36  1  0  0  0  0
 33 37  1  0  0  0  0
 33 38  1  0  0  0  0
 39 40  1  0  0  0  0
 39 45  1  0  0  0  0
 40 41  1  0  0  0  0
 40 43  1  0  0  0  0
 40 46  1  0  0  0  0
 41 42  2  0  0  0  0
 41 49  1  0  0  0  0
 43 44  1  0  0  0  0
 43 47  1  0  0  0  0
 43 48  1  0  0  0  0
 49 50  1  0  0  0  0
 49 54  1  0  0  0  0
 50 51  1  0  0  0  0
 50 53  1  0  0  0  0
 50 55  1  0  0  0  0
 51 52  2  0  0  0  0
 51 59  1  0  0  0  0
 53 56  1  0  0  0  0
 53 57  1  0  0  0  0
 53 58  1  0  0  0  0
 59 60  1  0  0  0  0
 59 61  1  0  0  0  0
 60 62  1  0  0  0  0
 60 63  1  0  0  0  0
 60 64  1  0  0  0  0
M  END
$$$$

  -OEChem-05262216053D

 64 63  0     1  0  0  0  0  0999 V2000
   -1.6048    1.7517    4.9470 C   0  0  0  0  0  0  0  0  0  0  0  0
   -2.7702    2.0347    4.7127 O   0  0  0  0  0  0  0  0  0  0  0  0
   -0.9728    2.1568    6.2648 C   0  0  0  0  0  0  0  0  0  0  0  0
   -0.1051    2.7952    6.0812 H   0  0  0  0  0  0  0  0  0  0  0  0
   -1.6939    2.7083    6.8744 H   0  0  0  0  0  0  0  0  0  0  0  0
   -0.6541    1.2677    6.8140 H   0  0  0  0  0  0  0  0  0  0  0  0
   -0.8635    1.0630    4.0119 N   0  0  0  0  0  0  0  0  0  0  0  0
   -1.3581    0.6774    2.6836 C   0  0  2  0  0  0  0  0  0  0  0  0
   -0.5801   -0.5105    2.0786 C   0  0  0  0  0  0  0  0  0  0  0  0
    0.5214   -0.8278    2.5168 O   0  0  0  0  0  0  0  0  0  0  0  0
   -1.3020    1.8900    1.7447 C   0  0  0  0  0  0  0  0  0  0  0  0
    0.3743    2.6468    1.6943 S   0  0  0  0  0  0  0  0  0  0  0  0
    0.1112    0.8579    4.2247 H   0  0  0  0  0  0  0  0  0  0  0  0
   -2.3989    0.3520    2.7777 H   0  0  0  0  0  0  0  0  0  0  0  0
   -1.5933    1.5850    0.7367 H   0  0  0  0  0  0  0  0  0  0  0  0
   -2.0201    2.6454    2.0781 H   0  0  0  0  0  0  0  0  0  0  0  0
   -1.1496   -1.2764    1.0772 N   0  0  0  0  0  0  0  0  0  0  0  0
   -0.6538   -2.5993    0.7230 C   0  0  0  0  0  0  0  0  0  0  0  0
   -2.1327   -1.0664    0.8750 H   0  0  0  0  0  0  0  0  0  0  0  0
    0.4277   -2.5774    0.5554 H   0  0  0  0  0  0  0  0  0  0  0  0
   -0.8672   -3.3123    1.5263 H   0  0  0  0  0  0  0  0  0  0  0  0
   -1.1396   -2.9504   -0.1928 H   0  0  0  0  0  0  0  0  0  0  0  0
   -4.3168    0.7234    0.1263 C   0  0  0  0  0  0  0  0  0  0  0  0
   -3.8010   -0.2617    0.6360 O   0  0  0  0  0  0  0  0  0  0  0  0
   -5.0916    1.7029    0.9872 C   0  0  0  0  0  0  0  0  0  0  0  0
   -6.1364    1.7343    0.6693 H   0  0  0  0  0  0  0  0  0  0  0  0
   -5.0505    1.3995    2.0378 H   0  0  0  0  0  0  0  0  0  0  0  0
   -4.6604    2.7033    0.8969 H   0  0  0  0  0  0  0  0  0  0  0  0
   -4.1123    0.9885   -1.2114 N   0  0  0  0  0  0  0  0  0  0  0  0
   -3.1082    0.2835   -2.0240 C   0  0  2  0  0  0  0  0  0  0  0  0
   -1.7707    1.0511   -2.0697 C   0  0  0  0  0  0  0  0  0  0  0  0
   -1.7868    2.2712   -2.1172 O   0  0  0  0  0  0  0  0  0  0  0  0
   -3.6737    0.1160   -3.4357 C   0  0  0  0  0  0  0  0  0  0  0  0
   -4.3541    1.9305   -1.5128 H   0  0  0  0  0  0  0  0  0  0  0  0
   -2.9143   -0.7155   -1.6186 H   0  0  0  0  0  0  0  0  0  0  0  0
   -3.8621    1.0926   -3.8933 H   0  0  0  0  0  0  0  0  0  0  0  0
   -2.9662   -0.4321   -4.0663 H   0  0  0  0  0  0  0  0  0  0  0  0
   -4.6133   -0.4440   -3.4040 H   0  0  0  0  0  0  0  0  0  0  0  0
   -0.5964    0.3404   -2.2150 N   0  0  0  0  0  0  0  0  0  0  0  0
    0.8079    0.8223   -2.2238 C   0  0  2  0  0  0  0  0  0  0  0  0
    1.7512   -0.3800   -2.4260 C   0  0  0  0  0  0  0  0  0  0  0  0
    2.6298   -0.3191   -3.2739 O   0  0  0  0  0  0  0  0  0  0  0  0
    1.3070    1.4508   -0.8986 C   0  0  0  0  0  0  0  0  0  0  0  0
    0.5071    3.0117   -0.3524 S   0  0  0  0  0  0  0  0  0  0  0  0
   -0.7427   -0.6505   -2.4293 H   0  0  0  0  0  0  0  0  0  0  0  0
    0.9454    1.5371   -3.0422 H   0  0  0  0  0  0  0  0  0  0  0  0
    1.1784    0.7121   -0.1009 H   0  0  0  0  0  0  0  0  0  0  0  0
    2.3804    1.6514   -0.9837 H   0  0  0  0  0  0  0  0  0  0  0  0
    1.3630   -1.6203   -1.9496 N   0  0  0  0  0  0  0  0  0  0  0  0
    1.3897   -2.8160   -2.8033 C   0  0  2  0  0  0  0  0  0  0  0  0
    0.0044   -3.0509   -3.4461 C   0  0  0  0  0  0  0  0  0  0  0  0
   -0.9757   -2.4383   -3.0233 O   0  0  0  0  0  0  0  0  0  0  0  0
    1.8030   -4.0113   -1.9427 C   0  0  0  0  0  0  0  0  0  0  0  0
    0.5900   -1.5743   -1.2884 H   0  0  0  0  0  0  0  0  0  0  0  0
    2.1243   -2.7019   -3.6079 H   0  0  0  0  0  0  0  0  0  0  0  0
    1.0627   -4.1993   -1.1596 H   0  0  0  0  0  0  0  0  0  0  0  0
    1.8928   -4.9123   -2.5571 H   0  0  0  0  0  0  0  0  0  0  0  0
    2.7709   -3.8187   -1.4689 H   0  0  0  0  0  0  0  0  0  0  0  0
   -0.1486   -3.9311   -4.4997 N   0  0  0  0  0  0  0  0  0  0  0  0
   -1.4195   -4.1572   -5.1778 C   0  0  0  0  0  0  0  0  0  0  0  0
    0.6869   -4.3836   -4.8613 H   0  0  0  0  0  0  0  0  0  0  0  0
   -2.1788   -4.5012   -4.4675 H   0  0  0  0  0  0  0  0  0  0  0  0
   -1.7711   -3.2344   -5.6513 H   0  0  0  0  0  0  0  0  0  0  0  0
   -1.3033   -4.9209   -5.9531 H   0  0  0  0  0  0  0  0  0  0  0  0
  1  2  2  0  0  0  0
  1  3  1  0  0  0  0
  1  7  1  0  0  0  0
  3  4  1  0  0  0  0
  3  5  1  0  0  0  0
  3  6  1  0  0  0  0
  7  8  1  0  0  0  0
  7 13  1  0  0  0  0
  8  9  1  0  0  0  0
  8 11  1  0  0  0  0
  8 14  1  0  0  0  0
  9 10  2  0  0  0  0
  9 17  1  0  0  0  0
 11 12  1  0  0  0  0
 11 15  1  0  0  0  0
 11 16  1  0  0  0  0
 12 44  1  0  0  0  0
 17 18  1  0  0  0  0
 17 19  1  0  0  0  0
 18 20  1  0  0  0  0
 18 21  1  0  0  0  0
 18 22  1  0  0  0  0
 23 24  2  0  0  0  0
 23 25  1  0  0  0  0
 23 29  1  0  0  0  0
 25 26  1  0  0  0  0
 25 27  1  0  0  0  0
 25 28  1  0  0  0  0
 29 30  1  0  0  0  0
 29 34  1  0  0  0  0
 30 31  1  0  0  0  0
 30 33  1  0  0  0  0
 30 35  1  0  0  0  0
 31 32  2  0  0  0  0
 31 39  1  0  0  0  0
 33 36  1  0  0  0  0
 33 37  1  0  0  0  0
 33 38  1  0  0  0  0
 39 40  1  0  0  0  0
 39 45  1  0  0  0  0
 40 41  1  0  0  0  0
 40 43  1  0  0  0  0
 40 46  1  0  0  0  0
 41 42  2  0  0  0  0
 41 49  1  0  0  0  0
 43 44  1  0  0  0  0
 43 47  1  0  0  0  0
 43 48  1  0  0  0  0
 49 50  1  0  0  0  0
 49 54  1  0  0  0  0
 50 51  1  0  0  0  0
 50 53  1  0  0  0  0
 50 55  1  0  0  0  0
 51 52  2  0  0  0  0
 51 59  1  0  0  0  0
 53 56  1  0  0  0  0
 53 57  1  0  0  0  0
 53 58  1  0  0  0  0
 59 60  1  0  0  0  0
 59 61  1  0  0  0  0
 60 62  1  0  0  0  0
 60 63  1  0  0  0  0
 60 64  1  0  0  0  0
M  END
$$$$

  -OEChem-05262216053D

 64 63  0     1  0  0  0  0  0999 V2000
   -1.8500    1.8969    4.8297 C   0  0  0  0  0  0  0  0  0  0  0  0
   -2.9838    2.1576    4.4542 O   0  0  0  0  0  0  0  0  0  0  0  0
   -1.3837    2.3288    6.2068 C   0  0  0  0  0  0  0  0  0  0  0  0
   -0.5193    2.9912    6.1172 H   0  0  0  0  0  0  0  0  0  0  0  0
   -2.1847    2.8626    6.7254 H   0  0  0  0  0  0  0  0  0  0  0  0
   -1.1035    1.4529    6.7968 H   0  0  0  0  0  0  0  0  0  0  0  0
   -0.9977    1.1984    4.0033 N   0  0  0  0  0  0  0  0  0  0  0  0
   -1.3458    0.7420    2.6521 C   0  0  2  0  0  0  0  0  0  0  0  0
   -0.5003   -0.4639    2.1897 C   0  0  0  0  0  0  0  0  0  0  0  0
    0.5198   -0.7800    2.7942 O   0  0  0  0  0  0  0  0  0  0  0  0
   -1.2017    1.9094    1.6670 C   0  0  0  0  0  0  0  0  0  0  0  0
    0.4910    2.6285    1.6886 S   0  0  0  0  0  0  0  0  0  0  0  0
   -0.0604    0.9858    4.3411 H   0  0  0  0  0  0  0  0  0  0  0  0
   -2.3872    0.4068    2.6546 H   0  0  0  0  0  0  0  0  0  0  0  0
   -1.4316    1.5609    0.6579 H   0  0  0  0  0  0  0  0  0  0  0  0
   -1.9225    2.6939    1.9154 H   0  0  0  0  0  0  0  0  0  0  0  0
   -0.9217   -1.2432    1.1266 N   0  0  0  0  0  0  0  0  0  0  0  0
   -0.3382   -2.5439    0.8255 C   0  0  0  0  0  0  0  0  0  0  0  0
   -1.8690   -1.0480    0.7870 H   0  0  0  0  0  0  0  0  0  0  0  0
    0.7449   -2.4601    0.6848 H   0  0  0  0  0  0  0  0  0  0  0  0
   -0.5324   -3.2469    1.6425 H   0  0  0  0  0  0  0  0  0  0  0  0
   -0.7758   -2.9487   -0.0922 H   0  0  0  0  0  0  0  0  0  0  0  0
   -4.1416    0.6993    0.0387 C   0  0  0  0  0  0  0  0  0  0  0  0
   -3.5558   -0.3049    0.4214 O   0  0  0  0  0  0  0  0  0  0  0  0
   -4.9104    1.5540    1.0284 C   0  0  0  0  0  0  0  0  0  0  0  0
   -5.9649    1.5960    0.7461 H   0  0  0  0  0  0  0  0  0  0  0  0
   -4.8322    1.1339    2.0354 H   0  0  0  0  0  0  0  0  0  0  0  0
   -4.5040    2.5684    1.0433 H   0  0  0  0  0  0  0  0  0  0  0  0
   -4.0209    1.0975   -1.2759 N   0  0  0  0  0  0  0  0  0  0  0  0
   -3.0633    0.4813   -2.2066 C   0  0  2  0  0  0  0  0  0  0  0  0
   -1.6741    1.1500   -2.1296 C   0  0  0  0  0  0  0  0  0  0  0  0
   -1.6021    2.3681   -2.1394 O   0  0  0  0  0  0  0  0  0  0  0  0
   -3.6365    0.5924   -3.6209 C   0  0  0  0  0  0  0  0  0  0  0  0
   -4.3176    2.0489   -1.4823 H   0  0  0  0  0  0  0  0  0  0  0  0
   -2.9453   -0.5837   -1.9782 H   0  0  0  0  0  0  0  0  0  0  0  0
   -3.7618    1.6423   -3.9054 H   0  0  0  0  0  0  0  0  0  0  0  0
   -2.9641    0.1152   -4.3409 H   0  0  0  0  0  0  0  0  0  0  0  0
   -4.6100    0.0958   -3.6762 H   0  0  0  0  0  0  0  0  0  0  0  0
   -0.5477    0.3546   -2.2139 N   0  0  0  0  0  0  0  0  0  0  0  0
    0.8891    0.7383   -2.1938 C   0  0  2  0  0  0  0  0  0  0  0  0
    1.7690   -0.5241   -2.3248 C   0  0  0  0  0  0  0  0  0  0  0  0
    2.8107   -0.4632   -2.9618 O   0  0  0  0  0  0  0  0  0  0  0  0
    1.3970    1.3570   -0.8653 C   0  0  0  0  0  0  0  0  0  0  0  0
    0.7025    2.9791   -0.3552 S   0  0  0  0  0  0  0  0  0  0  0  0
   -0.7590   -0.5931   -2.5383 H   0  0  0  0  0  0  0  0  0  0  0  0
    1.0999    1.4212   -3.0236 H   0  0  0  0  0  0  0  0  0  0  0  0
    1.1985    0.6410   -0.0615 H   0  0  0  0  0  0  0  0  0  0  0  0
    2.4839    1.4809   -0.9252 H   0  0  0  0  0  0  0  0  0  0  0  0
    1.1968   -1.7657   -2.1153 N   0  0  0  0  0  0  0  0  0  0  0  0
    1.2366   -2.8217   -3.1336 C   0  0  2  0  0  0  0  0  0  0  0  0
   -0.1092   -2.8712   -3.8915 C   0  0  0  0  0  0  0  0  0  0  0  0
   -1.0748   -2.2460   -3.4525 O   0  0  0  0  0  0  0  0  0  0  0  0
    1.5228   -4.1478   -2.4268 C   0  0  0  0  0  0  0  0  0  0  0  0
    0.3291   -1.7191   -1.5857 H   0  0  0  0  0  0  0  0  0  0  0  0
    2.0330   -2.6345   -3.8624 H   0  0  0  0  0  0  0  0  0  0  0  0
    0.7278   -4.3839   -1.7124 H   0  0  0  0  0  0  0  0  0  0  0  0
    1.5911   -4.9626   -3.1540 H   0  0  0  0  0  0  0  0  0  0  0  0
    2.4722   -4.0886   -1.8847 H   0  0  0  0  0  0  0  0  0  0  0  0
   -0.2397   -3.5859   -5.0662 N   0  0  0  0  0  0  0  0  0  0  0  0
   -1.4731   -3.6327   -5.8424 C   0  0  0  0  0  0  0  0  0  0  0  0
    0.5863   -4.0545   -5.4290 H   0  0  0  0  0  0  0  0  0  0  0  0
   -2.2922   -4.0364   -5.2377 H   0  0  0  0  0  0  0  0  0  0  0  0
   -1.7490   -2.6301   -6.1861 H   0  0  0  0  0  0  0  0  0  0  0  0
   -1.3435   -4.2746   -6.7190 H   0  0  0  0  0  0  0  0  0  0  0  0
  1  2  2  0  0  0  0
  1  3  1  0  0  0  0
  1  7  1  0  0  0  0
  3  4  1  0  0  0  0
  3  5  1  0  0  0  0
  3  6  1  0  0  0  0
  7  8  1  0  0  0  0
  7 13  1  0  0  0  0
  8  9  1  0  0  0  0
  8 11  1  0  0  0  0
  8 14  1  0  0  0  0
  9 10  2  0  0  0  0
  9 17  1  0  0  0  0
 11 12  1  0  0  0  0
 11 15  1  0  0  0  0
 11 16  1  0  0  0  0
 12 44  1  0  0  0  0
 17 18  1  0  0  0  0
 17 19  1  0  0  0  0
 18 20  1  0  0  0  0
 18 21  1  0  0  0  0
 18 22  1  0  0  0  0
 23 24  2  0  0  0  0
 23 25  1  0  0  0  0
 23 29  1  0  0  0  0
 25 26  1  0  0  0  0
 25 27  1  0  0  0  0
 25 28  1  0  0  0  0
 29 30  1  0  0  0  0
 29 34  1  0  0  0  0
 30 31  1  0  0  0  0
 30 33  1  0  0  0  0
 30 35  1  0  0  0  0
 31 32  2  0  0  0  0
 31 39  1  0  0  0  0
 33 36  1  0  0  0  0
 33 37  1  0  0  0  0
 33 38  1  0  0  0  0
 39 40  1  0  0  0  0
 39 45  1  0  0  0  0
 40 41  1  0  0  0  0
 40 43  1  0  0  0  0
 40 46  1  0  0  0  0
 41 42  2  0  0  0  0
 41 49  1  0  0  0  0
 43 44  1  0  0  0  0
 43 47  1  0  0  0  0
 43 48  1  0  0  0  0
 49 50  1  0  0  0  0
 49 54  1  0  0  0  0
 50 51  1  0  0  0  0
 50 53  1  0  0  0  0
 50 55  1  0  0  0  0
 51 52  2  0  0  0  0
 51 59  1  0  0  0  0
 53 56  1  0  0  0  0
 53 57  1  0  0  0  0
 53 58  1  0  0  0  0
 59 60  1  0  0  0  0
 59 61  1  0  0  0  0
 60 62  1  0  0  0  0
 60 63  1  0  0  0  0
 60 64  1  0  0  0  0
M  END
$$$$

  -OEChem-05262216053D

 64 63  0     1  0  0  0  0  0999 V2000
   -2.6955    1.8803    4.4081 C   0  0  0  0  0  0  0  0  0  0  0  0
   -3.6345    1.8025    3.6273 O   0  0  0  0  0  0  0  0  0  0  0  0
   -2.8586    2.6001    5.7333 C   0  0  0  0  0  0  0  0  0  0  0  0
   -2.1177    3.3990    5.8172 H   0  0  0  0  0  0  0  0  0  0  0  0
   -3.8580    3.0384    5.8037 H   0  0  0  0  0  0  0  0  0  0  0  0
   -2.7223    1.8976    6.5593 H   0  0  0  0  0  0  0  0  0  0  0  0
   -1.4892    1.3015    4.0769 N   0  0  0  0  0  0  0  0  0  0  0  0
   -1.2671    0.5154    2.8570 C   0  0  2  0  0  0  0  0  0  0  0  0
   -0.1210   -0.5092    2.9965 C   0  0  0  0  0  0  0  0  0  0  0  0
    0.4661   -0.6329    4.0656 O   0  0  0  0  0  0  0  0  0  0  0  0
   -1.0262    1.4714    1.6798 C   0  0  0  0  0  0  0  0  0  0  0  0
    0.6448    2.2367    1.7351 S   0  0  0  0  0  0  0  0  0  0  0  0
   -0.7480    1.2970    4.7772 H   0  0  0  0  0  0  0  0  0  0  0  0
   -2.1676   -0.0703    2.6558 H   0  0  0  0  0  0  0  0  0  0  0  0
   -1.1273    0.9137    0.7482 H   0  0  0  0  0  0  0  0  0  0  0  0
   -1.7842    2.2610    1.6687 H   0  0  0  0  0  0  0  0  0  0  0  0
    0.2171   -1.3329    1.9362 N   0  0  0  0  0  0  0  0  0  0  0  0
    1.3405   -2.2607    1.9776 C   0  0  0  0  0  0  0  0  0  0  0  0
   -0.2622   -1.1880    1.0520 H   0  0  0  0  0  0  0  0  0  0  0  0
    2.2745   -1.7228    2.1730 H   0  0  0  0  0  0  0  0  0  0  0  0
    1.1928   -3.0074    2.7648 H   0  0  0  0  0  0  0  0  0  0  0  0
    1.4361   -2.7820    1.0201 H   0  0  0  0  0  0  0  0  0  0  0  0
   -3.3351    0.1185   -0.6462 C   0  0  0  0  0  0  0  0  0  0  0  0
   -2.5568   -0.5746   -1.2867 O   0  0  0  0  0  0  0  0  0  0  0  0
   -4.0823   -0.4686    0.5358 C   0  0  0  0  0  0  0  0  0  0  0  0
   -5.0892   -0.7613    0.2282 H   0  0  0  0  0  0  0  0  0  0  0  0
   -3.5590   -1.3504    0.9153 H   0  0  0  0  0  0  0  0  0  0  0  0
   -4.1607    0.2686    1.3391 H   0  0  0  0  0  0  0  0  0  0  0  0
   -3.4940    1.4483   -0.9751 N   0  0  0  0  0  0  0  0  0  0  0  0
   -3.0983    2.0336   -2.2673 C   0  0  2  0  0  0  0  0  0  0  0  0
   -1.5702    2.2252   -2.4572 C   0  0  0  0  0  0  0  0  0  0  0  0
   -1.0894    3.3321   -2.6542 O   0  0  0  0  0  0  0  0  0  0  0  0
   -3.8719    3.3525   -2.4031 C   0  0  0  0  0  0  0  0  0  0  0  0
   -4.1300    1.9861   -0.3900 H   0  0  0  0  0  0  0  0  0  0  0  0
   -3.4320    1.3704   -3.0727 H   0  0  0  0  0  0  0  0  0  0  0  0
   -3.5713    4.0564   -1.6197 H   0  0  0  0  0  0  0  0  0  0  0  0
   -3.6714    3.8136   -3.3758 H   0  0  0  0  0  0  0  0  0  0  0  0
   -4.9488    3.1763   -2.3237 H   0  0  0  0  0  0  0  0  0  0  0  0
   -0.7818    1.1176   -2.7048 N   0  0  0  0  0  0  0  0  0  0  0  0
    0.6901    1.0658   -2.5297 C   0  0  2  0  0  0  0  0  0  0  0  0
    1.2136   -0.3407   -2.9206 C   0  0  0  0  0  0  0  0  0  0  0  0
    2.3956   -0.6344   -2.7897 O   0  0  0  0  0  0  0  0  0  0  0  0
    1.1200    1.2302   -1.0465 C   0  0  0  0  0  0  0  0  0  0  0  0
    0.7547    2.8498   -0.2551 S   0  0  0  0  0  0  0  0  0  0  0  0
   -1.2807    0.2605   -2.4506 H   0  0  0  0  0  0  0  0  0  0  0  0
    1.1748    1.8227   -3.1554 H   0  0  0  0  0  0  0  0  0  0  0  0
    0.6512    0.4335   -0.4652 H   0  0  0  0  0  0  0  0  0  0  0  0
    2.2029    1.0875   -0.9674 H   0  0  0  0  0  0  0  0  0  0  0  0
    0.3437   -1.3255   -3.3566 N   0  0  0  0  0  0  0  0  0  0  0  0
    0.7478   -2.6542   -3.8319 C   0  0  2  0  0  0  0  0  0  0  0  0
   -0.1860   -3.1504   -4.9565 C   0  0  0  0  0  0  0  0  0  0  0  0
   -1.2406   -2.5660   -5.1817 O   0  0  0  0  0  0  0  0  0  0  0  0
    0.7197   -3.6144   -2.6393 C   0  0  0  0  0  0  0  0  0  0  0  0
   -0.5902   -1.0208   -3.6317 H   0  0  0  0  0  0  0  0  0  0  0  0
    1.7621   -2.6133   -4.2433 H   0  0  0  0  0  0  0  0  0  0  0  0
   -0.2876   -3.6643   -2.2132 H   0  0  0  0  0  0  0  0  0  0  0  0
    1.0183   -4.6209   -2.9471 H   0  0  0  0  0  0  0  0  0  0  0  0
    1.4109   -3.2715   -1.8630 H   0  0  0  0  0  0  0  0  0  0  0  0
    0.1604   -4.2438   -5.7291 N   0  0  0  0  0  0  0  0  0  0  0  0
   -0.6604   -4.7373   -6.8287 C   0  0  0  0  0  0  0  0  0  0  0  0
    1.0564   -4.6863   -5.5463 H   0  0  0  0  0  0  0  0  0  0  0  0
   -1.6647   -4.9918   -6.4735 H   0  0  0  0  0  0  0  0  0  0  0  0
   -0.7457   -3.9780   -7.6134 H   0  0  0  0  0  0  0  0  0  0  0  0
   -0.2116   -5.6358   -7.2630 H   0  0  0  0  0  0  0  0  0  0  0  0
  1  2  2  0  0  0  0
  1  3  1  0  0  0  0
  1  7  1  0  0  0  0
  3  4  1  0  0  0  0
  3  5  1  0  0  0  0
  3  6  1  0  0  0  0
  7  8  1  0  0  0  0
  7 13  1  0  0  0  0
  8  9  1  0  0  0  0
  8 11  1  0  0  0  0
  8 14  1  0  0  0  0
  9 10  2  0  0  0  0
  9 17  1  0  0  0  0
 11 12  1  0  0  0  0
 11 15  1  0  0  0  0
 11 16  1  0  0  0  0
 12 44  1  0  0  0  0
 17 18  1  0  0  0  0
 17 19  1  0  0  0  0
 18 20  1  0  0  0  0
 18 21  1  0  0  0  0
 18 22  1  0  0  0  0
 23 24  2  0  0  0  0
 23 25  1  0  0  0  0
 23 29  1  0  0  0  0
 25 26  1  0  0  0  0
 25 27  1  0  0  0  0
 25 28  1  0  0  0  0
 29 30  1  0  0  0  0
 29 34  1  0  0  0  0
 30 31  1  0  0  0  0
 30 33  1  0  0  0  0
 30 35  1  0  0  0  0
 31 32  2  0  0  0  0
 31 39  1  0  0  0  0
 33 36  1  0  0  0  0
 33 37  1  0  0  0  0
 33 38  1  0  0  0  0
 39 40  1  0  0  0  0
 39 45  1  0  0  0  0
 40 41  1  0  0  0  0
 40 43  1  0  0  0  0
 40 46  1  0  0  0  0
 41 42  2  0  0  0  0
 41 49  1  0  0  0  0
 43 44  1  0  0  0  0
 43 47  1  0  0  0  0
 43 48  1  0  0  0  0
 49 50  1  0  0  0  0
 49 54  1  0  0  0  0
 50 51  1  0  0  0  0
 50 53  1  0  0  0  0
 50 55  1  0  0  0  0
 51 52  2  0  0  0  0
 51 59  1  0  0  0  0
 53 56  1  0  0  0  0
 53 57  1  0  0  0  0
 53 58  1  0  0  0  0
 59 60  1  0  0  0  0
 59 61  1  0  0  0  0
 60 62  1  0  0  0  0
 60 63  1  0  0  0  0
 60 64  1  0  0  0  0
M  END
$$$$

  -OEChem-05262216053D

 64 63  0     1  0  0  0  0  0999 V2000
   -2.2100    2.2132    4.9139 C   0  0  0  0  0  0  0  0  0  0  0  0
   -3.2789    2.1057    4.3309 O   0  0  0  0  0  0  0  0  0  0  0  0
   -2.0345    3.2568    6.0000 C   0  0  0  0  0  0  0  0  0  0  0  0
   -1.2205    3.9359    5.7349 H   0  0  0  0  0  0  0  0  0  0  0  0
   -2.9537    3.8370    6.1178 H   0  0  0  0  0  0  0  0  0  0  0  0
   -1.7998    2.7709    6.9502 H   0  0  0  0  0  0  0  0  0  0  0  0
   -1.1628    1.3790    4.5904 N   0  0  0  0  0  0  0  0  0  0  0  0
   -1.2252    0.3033    3.5915 C   0  0  2  0  0  0  0  0  0  0  0  0
   -0.1256   -0.7574    3.8097 C   0  0  0  0  0  0  0  0  0  0  0  0
    0.6514   -0.6559    4.7539 O   0  0  0  0  0  0  0  0  0  0  0  0
   -1.1304    0.9051    2.1841 C   0  0  0  0  0  0  0  0  0  0  0  0
    0.4648    1.7652    1.8943 S   0  0  0  0  0  0  0  0  0  0  0  0
   -0.3041    1.4550    5.1347 H   0  0  0  0  0  0  0  0  0  0  0  0
   -2.1858   -0.2134    3.6865 H   0  0  0  0  0  0  0  0  0  0  0  0
   -1.2551    0.1172    1.4369 H   0  0  0  0  0  0  0  0  0  0  0  0
   -1.9401    1.6243    2.0426 H   0  0  0  0  0  0  0  0  0  0  0  0
   -0.0312   -1.8556    2.9733 N   0  0  0  0  0  0  0  0  0  0  0  0
    1.0073   -2.8697    3.1041 C   0  0  0  0  0  0  0  0  0  0  0  0
   -0.6681   -1.9017    2.1824 H   0  0  0  0  0  0  0  0  0  0  0  0
    1.9993   -2.4191    2.9931 H   0  0  0  0  0  0  0  0  0  0  0  0
    0.9478   -3.3537    4.0846 H   0  0  0  0  0  0  0  0  0  0  0  0
    0.8876   -3.6364    2.3327 H   0  0  0  0  0  0  0  0  0  0  0  0
   -3.9930    0.9537   -0.0272 C   0  0  0  0  0  0  0  0  0  0  0  0
   -3.4120   -0.1235   -0.0605 O   0  0  0  0  0  0  0  0  0  0  0  0
   -4.6157    1.4541    1.2623 C   0  0  0  0  0  0  0  0  0  0  0  0
   -5.6958    1.5618    1.1385 H   0  0  0  0  0  0  0  0  0  0  0  0
   -4.4243    0.7486    2.0758 H   0  0  0  0  0  0  0  0  0  0  0  0
   -4.1912    2.4242    1.5343 H   0  0  0  0  0  0  0  0  0  0  0  0
   -4.0859    1.7138   -1.1739 N   0  0  0  0  0  0  0  0  0  0  0  0
   -3.4597    1.3288   -2.4438 C   0  0  2  0  0  0  0  0  0  0  0  0
   -1.9693    1.7262   -2.5114 C   0  0  0  0  0  0  0  0  0  0  0  0
   -1.6476    2.9058   -2.5040 O   0  0  0  0  0  0  0  0  0  0  0  0
   -4.2539    1.9830   -3.5783 C   0  0  0  0  0  0  0  0  0  0  0  0
   -4.3868    2.6789   -1.0613 H   0  0  0  0  0  0  0  0  0  0  0  0
   -3.5313    0.2436   -2.5724 H   0  0  0  0  0  0  0  0  0  0  0  0
   -4.2206    3.0746   -3.4950 H   0  0  0  0  0  0  0  0  0  0  0  0
   -3.8343    1.6981   -4.5485 H   0  0  0  0  0  0  0  0  0  0  0  0
   -5.2995    1.6617   -3.5451 H   0  0  0  0  0  0  0  0  0  0  0  0
   -1.0224    0.7735   -2.8367 N   0  0  0  0  0  0  0  0  0  0  0  0
    0.4206    0.8496   -2.5009 C   0  0  2  0  0  0  0  0  0  0  0  0
    1.1466   -0.4063   -3.0502 C   0  0  0  0  0  0  0  0  0  0  0  0
    2.2588   -0.7373   -2.6591 O   0  0  0  0  0  0  0  0  0  0  0  0
    0.6994    0.8915   -0.9717 C   0  0  0  0  0  0  0  0  0  0  0  0
    0.0965    2.3714   -0.0652 S   0  0  0  0  0  0  0  0  0  0  0  0
   -1.4104   -0.1666   -2.8188 H   0  0  0  0  0  0  0  0  0  0  0  0
    0.8575    1.7368   -2.9716 H   0  0  0  0  0  0  0  0  0  0  0  0
    0.2553    0.0027   -0.5142 H   0  0  0  0  0  0  0  0  0  0  0  0
    1.7794    0.8416   -0.7999 H   0  0  0  0  0  0  0  0  0  0  0  0
    0.5196   -1.2102   -3.9865 N   0  0  0  0  0  0  0  0  0  0  0  0
    1.1722   -2.3112   -4.7069 C   0  0  2  0  0  0  0  0  0  0  0  0
    0.6141   -2.4385   -6.1398 C   0  0  0  0  0  0  0  0  0  0  0  0
   -0.4233   -1.8584   -6.4440 O   0  0  0  0  0  0  0  0  0  0  0  0
    0.9489   -3.6066   -3.9221 C   0  0  0  0  0  0  0  0  0  0  0  0
   -0.2879   -0.7985   -4.4557 H   0  0  0  0  0  0  0  0  0  0  0  0
    2.2472   -2.1188   -4.7908 H   0  0  0  0  0  0  0  0  0  0  0  0
   -0.1207   -3.8257   -3.8423 H   0  0  0  0  0  0  0  0  0  0  0  0
    1.4417   -4.4470   -4.4203 H   0  0  0  0  0  0  0  0  0  0  0  0
    1.3628   -3.5146   -2.9129 H   0  0  0  0  0  0  0  0  0  0  0  0
    1.2855   -3.1793   -7.0945 N   0  0  0  0  0  0  0  0  0  0  0  0
    0.8463   -3.2810   -8.4812 C   0  0  0  0  0  0  0  0  0  0  0  0
    2.1658   -3.6091   -6.8250 H   0  0  0  0  0  0  0  0  0  0  0  0
   -0.1723   -3.6799   -8.5341 H   0  0  0  0  0  0  0  0  0  0  0  0
    0.8644   -2.2971   -8.9615 H   0  0  0  0  0  0  0  0  0  0  0  0
    1.5077   -3.9509   -9.0390 H   0  0  0  0  0  0  0  0  0  0  0  0
  1  2  2  0  0  0  0
  1  3  1  0  0  0  0
  1  7  1  0  0  0  0
  3  4  1  0  0  0  0
  3  5  1  0  0  0  0
  3  6  1  0  0  0  0
  7  8  1  0  0  0  0
  7 13  1  0  0  0  0
  8  9  1  0  0  0  0
  8 11  1  0  0  0  0
  8 14  1  0  0  0  0
  9 10  2  0  0  0  0
  9 17  1  0  0  0  0
 11 12  1  0  0  0  0
 11 15  1  0  0  0  0
 11 16  1  0  0  0  0
 12 44  1  0  0  0  0
 17 18  1  0  0  0  0
 17 19  1  0  0  0  0
 18 20  1  0  0  0  0
 18 21  1  0  0  0  0
 18 22  1  0  0  0  0
 23 24  2  0  0  0  0
 23 25  1  0  0  0  0
 23 29  1  0  0  0  0
 25 26  1  0  0  0  0
 25 27  1  0  0  0  0
 25 28  1  0  0  0  0
 29 30  1  0  0  0  0
 29 34  1  0  0  0  0
 30 31  1  0  0  0  0
 30 33  1  0  0  0  0
 30 35  1  0  0  0  0
 31 32  2  0  0  0  0
 31 39  1  0  0  0  0
 33 36  1  0  0  0  0
 33 37  1  0  0  0  0
 33 38  1  0  0  0  0
 39 40  1  0  0  0  0
 39 45  1  0  0  0  0
 40 41  1  0  0  0  0
 40 43  1  0  0  0  0
 40 46  1  0  0  0  0
 41 42  2  0  0  0  0
 41 49  1  0  0  0  0
 43 44  1  0  0  0  0
 43 47  1  0  0  0  0
 43 48  1  0  0  0  0
 49 50  1  0  0  0  0
 49 54  1  0  0  0  0
 50 51  1  0  0  0  0
 50 53  1  0  0  0  0
 50 55  1  0  0  0  0
 51 52  2  0  0  0  0
 51 59  1  0  0  0  0
 53 56  1  0  0  0  0
 53 57  1  0  0  0  0
 53 58  1  0  0  0  0
 59 60  1  0  0  0  0
 59 61  1  0  0  0  0
 60 62  1  0  0  0  0
 60 63  1  0  0  0  0
 60 64  1  0  0  0  0
M  END
$$$$

  -OEChem-05262216053D

 64 63  0     1  0  0  0  0  0999 V2000
   -2.3013    2.1968    4.8634 C   0  0  0  0  0  0  0  0  0  0  0  0
   -3.3492    2.1059    4.2405 O   0  0  0  0  0  0  0  0  0  0  0  0
   -2.1749    3.1933    5.9994 C   0  0  0  0  0  0  0  0  0  0  0  0
   -1.3447    3.8767    5.8042 H   0  0  0  0  0  0  0  0  0  0  0  0
   -3.0956    3.7760    6.0946 H   0  0  0  0  0  0  0  0  0  0  0  0
   -1.9914    2.6666    6.9392 H   0  0  0  0  0  0  0  0  0  0  0  0
   -1.2351    1.3880    4.5362 N   0  0  0  0  0  0  0  0  0  0  0  0
   -1.2541    0.3676    3.4795 C   0  0  2  0  0  0  0  0  0  0  0  0
   -0.1678   -0.7100    3.6820 C   0  0  0  0  0  0  0  0  0  0  0  0
    0.5897   -0.6492    4.6452 O   0  0  0  0  0  0  0  0  0  0  0  0
   -1.1010    1.0460    2.1125 C   0  0  0  0  0  0  0  0  0  0  0  0
    0.5178    1.8886    1.9176 S   0  0  0  0  0  0  0  0  0  0  0  0
   -0.3946    1.4450    5.1103 H   0  0  0  0  0  0  0  0  0  0  0  0
   -2.2178   -0.1510    3.5065 H   0  0  0  0  0  0  0  0  0  0  0  0
   -1.2098    0.2999    1.3220 H   0  0  0  0  0  0  0  0  0  0  0  0
   -1.8947    1.7857    1.9805 H   0  0  0  0  0  0  0  0  0  0  0  0
   -0.0706   -1.7811    2.8108 N   0  0  0  0  0  0  0  0  0  0  0  0
    0.9562   -2.8098    2.9215 C   0  0  0  0  0  0  0  0  0  0  0  0
   -0.6938   -1.7926    2.0074 H   0  0  0  0  0  0  0  0  0  0  0  0
    1.9520   -2.3702    2.8020 H   0  0  0  0  0  0  0  0  0  0  0  0
    0.9032   -3.3028    3.8979 H   0  0  0  0  0  0  0  0  0  0  0  0
    0.8168   -3.5681    2.1453 H   0  0  0  0  0  0  0  0  0  0  0  0
   -3.9159    0.7732   -0.0317 C   0  0  0  0  0  0  0  0  0  0  0  0
   -3.2866   -0.2723   -0.1300 O   0  0  0  0  0  0  0  0  0  0  0  0
   -4.5898    1.1466    1.2750 C   0  0  0  0  0  0  0  0  0  0  0  0
   -5.6757    1.1041    1.1625 H   0  0  0  0  0  0  0  0  0  0  0  0
   -4.2924    0.4562    2.0686 H   0  0  0  0  0  0  0  0  0  0  0  0
   -4.3032    2.1592    1.5701 H   0  0  0  0  0  0  0  0  0  0  0  0
   -4.0111    1.6159   -1.1187 N   0  0  0  0  0  0  0  0  0  0  0  0
   -3.3709    1.3418   -2.4104 C   0  0  2  0  0  0  0  0  0  0  0  0
   -1.8870    1.7691   -2.4441 C   0  0  0  0  0  0  0  0  0  0  0  0
   -1.5886    2.9542   -2.4290 O   0  0  0  0  0  0  0  0  0  0  0  0
   -4.1792    2.0606   -3.4950 C   0  0  0  0  0  0  0  0  0  0  0  0
   -4.3705    2.5521   -0.9481 H   0  0  0  0  0  0  0  0  0  0  0  0
   -3.4189    0.2684   -2.6205 H   0  0  0  0  0  0  0  0  0  0  0  0
   -4.1781    3.1423   -3.3249 H   0  0  0  0  0  0  0  0  0  0  0  0
   -3.7478    1.8660   -4.4821 H   0  0  0  0  0  0  0  0  0  0  0  0
   -5.2150    1.7078   -3.4944 H   0  0  0  0  0  0  0  0  0  0  0  0
   -0.9192    0.8357   -2.7650 N   0  0  0  0  0  0  0  0  0  0  0  0
    0.5285    0.9415   -2.4612 C   0  0  2  0  0  0  0  0  0  0  0  0
    1.2407   -0.3220   -3.0119 C   0  0  0  0  0  0  0  0  0  0  0  0
    2.2326   -0.8107   -2.4845 O   0  0  0  0  0  0  0  0  0  0  0  0
    0.8485    1.0260   -0.9419 C   0  0  0  0  0  0  0  0  0  0  0  0
    0.2501    2.5177   -0.0515 S   0  0  0  0  0  0  0  0  0  0  0  0
   -1.2843   -0.1141   -2.7623 H   0  0  0  0  0  0  0  0  0  0  0  0
    0.9417    1.8225   -2.9636 H   0  0  0  0  0  0  0  0  0  0  0  0
    0.4297    0.1411   -0.4542 H   0  0  0  0  0  0  0  0  0  0  0  0
    1.9338    0.9946   -0.7997 H   0  0  0  0  0  0  0  0  0  0  0  0
    0.7227   -0.9520   -4.1291 N   0  0  0  0  0  0  0  0  0  0  0  0
    1.3841   -2.0435   -4.8554 C   0  0  2  0  0  0  0  0  0  0  0  0
    1.0507   -1.9885   -6.3610 C   0  0  0  0  0  0  0  0  0  0  0  0
    0.1247   -1.2884   -6.7572 O   0  0  0  0  0  0  0  0  0  0  0  0
    0.9338   -3.3772   -4.2511 C   0  0  0  0  0  0  0  0  0  0  0  0
    0.0145   -0.4328   -4.6504 H   0  0  0  0  0  0  0  0  0  0  0  0
    2.4710   -1.9497   -4.7575 H   0  0  0  0  0  0  0  0  0  0  0  0
   -0.1512   -3.4917   -4.3417 H   0  0  0  0  0  0  0  0  0  0  0  0
    1.4171   -4.2140   -4.7644 H   0  0  0  0  0  0  0  0  0  0  0  0
    1.2021   -3.4239   -3.1909 H   0  0  0  0  0  0  0  0  0  0  0  0
    1.7985   -2.7091   -7.2736 N   0  0  0  0  0  0  0  0  0  0  0  0
    1.5689   -2.6598   -8.7126 C   0  0  0  0  0  0  0  0  0  0  0  0
    2.5835   -3.2484   -6.9195 H   0  0  0  0  0  0  0  0  0  0  0  0
    0.5410   -2.9553   -8.9484 H   0  0  0  0  0  0  0  0  0  0  0  0
    1.7400   -1.6475   -9.0935 H   0  0  0  0  0  0  0  0  0  0  0  0
    2.2510   -3.3432   -9.2277 H   0  0  0  0  0  0  0  0  0  0  0  0
  1  2  2  0  0  0  0
  1  3  1  0  0  0  0
  1  7  1  0  0  0  0
  3  4  1  0  0  0  0
  3  5  1  0  0  0  0
  3  6  1  0  0  0  0
  7  8  1  0  0  0  0
  7 13  1  0  0  0  0
  8  9  1  0  0  0  0
  8 11  1  0  0  0  0
  8 14  1  0  0  0  0
  9 10  2  0  0  0  0
  9 17  1  0  0  0  0
 11 12  1  0  0  0  0
 11 15  1  0  0  0  0
 11 16  1  0  0  0  0
 12 44  1  0  0  0  0
 17 18  1  0  0  0  0
 17 19  1  0  0  0  0
 18 20  1  0  0  0  0
 18 21  1  0  0  0  0
 18 22  1  0  0  0  0
 23 24  2  0  0  0  0
 23 25  1  0  0  0  0
 23 29  1  0  0  0  0
 25 26  1  0  0  0  0
 25 27  1  0  0  0  0
 25 28  1  0  0  0  0
 29 30  1  0  0  0  0
 29 34  1  0  0  0  0
 30 31  1  0  0  0  0
 30 33  1  0  0  0  0
 30 35  1  0  0  0  0
 31 32  2  0  0  0  0
 31 39  1  0  0  0  0
 33 36  1  0  0  0  0
 33 37  1  0  0  0  0
 33 38  1  0  0  0  0
 39 40  1  0  0  0  0
 39 45  1  0  0  0  0
 40 41  1  0  0  0  0
 40 43  1  0  0  0  0
 40 46  1  0  0  0  0
 41 42  2  0  0  0  0
 41 49  1  0  0  0  0
 43 44  1  0  0  0  0
 43 47  1  0  0  0  0
 43 48  1  0  0  0  0
 49 50  1  0  0  0  0
 49 54  1  0  0  0  0
 50 51  1  0  0  0  0
 50 53  1  0  0  0  0
 50 55  1  0  0  0  0
 51 52  2  0  0  0  0
 51 59  1  0  0  0  0
 53 56  1  0  0  0  0
 53 57  1  0  0  0  0
 53 58  1  0  0  0  0
 59 60  1  0  0  0  0
 59 61  1  0  0  0  0
 60 62  1  0  0  0  0
 60 63  1  0  0  0  0
 60 64  1  0  0  0  0
M  END
$$$$

  -OEChem-05262216053D

 64 63  0     1  0  0  0  0  0999 V2000
   -2.3013    2.1717    4.8952 C   0  0  0  0  0  0  0  0  0  0  0  0
   -3.3564    2.0673    4.2870 O   0  0  0  0  0  0  0  0  0  0  0  0
   -2.1758    3.1646    6.0346 C   0  0  0  0  0  0  0  0  0  0  0  0
   -1.3608    3.8640    5.8323 H   0  0  0  0  0  0  0  0  0  0  0  0
   -3.1054    3.7299    6.1452 H   0  0  0  0  0  0  0  0  0  0  0  0
   -1.9703    2.6359    6.9685 H   0  0  0  0  0  0  0  0  0  0  0  0
   -1.2267    1.3829    4.5479 N   0  0  0  0  0  0  0  0  0  0  0  0
   -1.2418    0.3687    3.4847 C   0  0  2  0  0  0  0  0  0  0  0  0
   -0.1358   -0.6925    3.6705 C   0  0  0  0  0  0  0  0  0  0  0  0
    0.6252   -0.6295    4.6311 O   0  0  0  0  0  0  0  0  0  0  0  0
   -1.1125    1.0586    2.1214 C   0  0  0  0  0  0  0  0  0  0  0  0
    0.4859    1.9380    1.9223 S   0  0  0  0  0  0  0  0  0  0  0  0
   -0.3802    1.4487    5.1121 H   0  0  0  0  0  0  0  0  0  0  0  0
   -2.1974   -0.1649    3.5166 H   0  0  0  0  0  0  0  0  0  0  0  0
   -1.2111    0.3155    1.3268 H   0  0  0  0  0  0  0  0  0  0  0  0
   -1.9228    1.7815    1.9998 H   0  0  0  0  0  0  0  0  0  0  0  0
   -0.0186   -1.7485    2.7836 N   0  0  0  0  0  0  0  0  0  0  0  0
    1.0354   -2.7523    2.8698 C   0  0  0  0  0  0  0  0  0  0  0  0
   -0.6428   -1.7601    1.9811 H   0  0  0  0  0  0  0  0  0  0  0  0
    2.0203   -2.2826    2.7764 H   0  0  0  0  0  0  0  0  0  0  0  0
    0.9862   -3.2807    3.8278 H   0  0  0  0  0  0  0  0  0  0  0  0
    0.9250   -3.4862    2.0657 H   0  0  0  0  0  0  0  0  0  0  0  0
   -3.9788    0.8269    0.0157 C   0  0  0  0  0  0  0  0  0  0  0  0
   -3.3730   -0.2362   -0.0208 O   0  0  0  0  0  0  0  0  0  0  0  0
   -4.6481    1.2886    1.2961 C   0  0  0  0  0  0  0  0  0  0  0  0
   -5.7315    1.3240    1.1601 H   0  0  0  0  0  0  0  0  0  0  0  0
   -4.4192    0.6002    2.1141 H   0  0  0  0  0  0  0  0  0  0  0  0
   -4.2922    2.2852    1.5694 H   0  0  0  0  0  0  0  0  0  0  0  0
   -4.0567    1.6068   -1.1191 N   0  0  0  0  0  0  0  0  0  0  0  0
   -3.3998    1.2578   -2.3844 C   0  0  2  0  0  0  0  0  0  0  0  0
   -1.9262    1.7165   -2.4337 C   0  0  0  0  0  0  0  0  0  0  0  0
   -1.6562    2.9085   -2.4249 O   0  0  0  0  0  0  0  0  0  0  0  0
   -4.2095    1.8870   -3.5218 C   0  0  0  0  0  0  0  0  0  0  0  0
   -4.3850    2.5619   -0.9978 H   0  0  0  0  0  0  0  0  0  0  0  0
   -3.4236    0.1718   -2.5214 H   0  0  0  0  0  0  0  0  0  0  0  0
   -4.2267    2.9776   -3.4257 H   0  0  0  0  0  0  0  0  0  0  0  0
   -3.7660    1.6324   -4.4894 H   0  0  0  0  0  0  0  0  0  0  0  0
   -5.2396    1.5183   -3.5045 H   0  0  0  0  0  0  0  0  0  0  0  0
   -0.9368    0.8050   -2.7513 N   0  0  0  0  0  0  0  0  0  0  0  0
    0.5058    0.9457   -2.4453 C   0  0  2  0  0  0  0  0  0  0  0  0
    1.2366   -0.3062   -2.9956 C   0  0  0  0  0  0  0  0  0  0  0  0
    2.0427   -0.9549   -2.3388 O   0  0  0  0  0  0  0  0  0  0  0  0
    0.8293    1.0545   -0.9282 C   0  0  0  0  0  0  0  0  0  0  0  0
    0.2025    2.5430   -0.0521 S   0  0  0  0  0  0  0  0  0  0  0  0
   -1.2772   -0.1534   -2.7691 H   0  0  0  0  0  0  0  0  0  0  0  0
    0.8992    1.8319   -2.9542 H   0  0  0  0  0  0  0  0  0  0  0  0
    0.4322    0.1667   -0.4270 H   0  0  0  0  0  0  0  0  0  0  0  0
    1.9159    1.0455   -0.7938 H   0  0  0  0  0  0  0  0  0  0  0  0
    0.9237   -0.7540   -4.2662 N   0  0  0  0  0  0  0  0  0  0  0  0
    1.6430   -1.8199   -4.9775 C   0  0  2  0  0  0  0  0  0  0  0  0
    1.6848   -1.5529   -6.4964 C   0  0  0  0  0  0  0  0  0  0  0  0
    0.9296   -0.7249   -6.9942 O   0  0  0  0  0  0  0  0  0  0  0  0
    0.9542   -3.1561   -4.6849 C   0  0  0  0  0  0  0  0  0  0  0  0
    0.3487   -0.1345   -4.8399 H   0  0  0  0  0  0  0  0  0  0  0  0
    2.6801   -1.8639   -4.6281 H   0  0  0  0  0  0  0  0  0  0  0  0
   -0.0819   -3.1389   -5.0377 H   0  0  0  0  0  0  0  0  0  0  0  0
    1.4791   -3.9754   -5.1851 H   0  0  0  0  0  0  0  0  0  0  0  0
    0.9537   -3.3546   -3.6087 H   0  0  0  0  0  0  0  0  0  0  0  0
    2.5840   -2.2268   -7.3019 N   0  0  0  0  0  0  0  0  0  0  0  0
    2.7188   -1.9764   -8.7318 C   0  0  0  0  0  0  0  0  0  0  0  0
    3.2281   -2.8718   -6.8529 H   0  0  0  0  0  0  0  0  0  0  0  0
    1.7634   -2.1381   -9.2419 H   0  0  0  0  0  0  0  0  0  0  0  0
    3.0438   -0.9461   -8.9104 H   0  0  0  0  0  0  0  0  0  0  0  0
    3.4601   -2.6539   -9.1661 H   0  0  0  0  0  0  0  0  0  0  0  0
  1  2  2  0  0  0  0
  1  3  1  0  0  0  0
  1  7  1  0  0  0  0
  3  4  1  0  0  0  0
  3  5  1  0  0  0  0
  3  6  1  0  0  0  0
  7  8  1  0  0  0  0
  7 13  1  0  0  0  0
  8  9  1  0  0  0  0
  8 11  1  0  0  0  0
  8 14  1  0  0  0  0
  9 10  2  0  0  0  0
  9 17  1  0  0  0  0
 11 12  1  0  0  0  0
 11 15  1  0  0  0  0
 11 16  1  0  0  0  0
 12 44  1  0  0  0  0
 17 18  1  0  0  0  0
 17 19  1  0  0  0  0
 18 20  1  0  0  0  0
 18 21  1  0  0  0  0
 18 22  1  0  0  0  0
 23 24  2  0  0  0  0
 23 25  1  0  0  0  0
 23 29  1  0  0  0  0
 25 26  1  0  0  0  0
 25 27  1  0  0  0  0
 25 28  1  0  0  0  0
 29 30  1  0  0  0  0
 29 34  1  0  0  0  0
 30 31  1  0  0  0  0
 30 33  1  0  0  0  0
 30 35  1  0  0  0  0
 31 32  2  0  0  0  0
 31 39  1  0  0  0  0
 33 36  1  0  0  0  0
 33 37  1  0  0  0  0
 33 38  1  0  0  0  0
 39 40  1  0  0  0  0
 39 45  1  0  0  0  0
 40 41  1  0  0  0  0
 40 43  1  0  0  0  0
 40 46  1  0  0  0  0
 41 42  2  0  0  0  0
 41 49  1  0  0  0  0
 43 44  1  0  0  0  0
 43 47  1  0  0  0  0
 43 48  1  0  0  0  0
 49 50  1  0  0  0  0
 49 54  1  0  0  0  0
 50 51  1  0  0  0  0
 50 53  1  0  0  0  0
 50 55  1  0  0  0  0
 51 52  2  0  0  0  0
 51 59  1  0  0  0  0
 53 56  1  0  0  0  0
 53 57  1  0  0  0  0
 53 58  1  0  0  0  0
 59 60  1  0  0  0  0
 59 61  1  0  0  0  0
 60 62  1  0  0  0  0
 60 63  1  0  0  0  0
 60 64  1  0  0  0  0
M  END
$$$$

  -OEChem-05262216053D

 64 63  0     1  0  0  0  0  0999 V2000
   -2.0834    1.8350    5.0476 C   0  0  0  0  0  0  0  0  0  0  0  0
   -3.2171    1.9829    4.6135 O   0  0  0  0  0  0  0  0  0  0  0  0
   -1.7396    2.2813    6.4556 C   0  0  0  0  0  0  0  0  0  0  0  0
   -0.9173    3.0005    6.4288 H   0  0  0  0  0  0  0  0  0  0  0  0
   -2.6072    2.7551    6.9232 H   0  0  0  0  0  0  0  0  0  0  0  0
   -1.4413    1.4190    7.0566 H   0  0  0  0  0  0  0  0  0  0  0  0
   -1.1199    1.2480    4.2574 N   0  0  0  0  0  0  0  0  0  0  0  0
   -1.3581    0.7605    2.8937 C   0  0  2  0  0  0  0  0  0  0  0  0
   -0.3616   -0.3302    2.4543 C   0  0  0  0  0  0  0  0  0  0  0  0
    0.6425   -0.5598    3.1208 O   0  0  0  0  0  0  0  0  0  0  0  0
   -1.3132    1.9418    1.9151 C   0  0  0  0  0  0  0  0  0  0  0  0
    0.3229    2.7769    1.8957 S   0  0  0  0  0  0  0  0  0  0  0  0
   -0.1881    1.1113    4.6468 H   0  0  0  0  0  0  0  0  0  0  0  0
   -2.3501    0.3018    2.8546 H   0  0  0  0  0  0  0  0  0  0  0  0
   -1.5307    1.5812    0.9077 H   0  0  0  0  0  0  0  0  0  0  0  0
   -2.0828    2.6735    2.1777 H   0  0  0  0  0  0  0  0  0  0  0  0
   -0.6083   -1.0671    1.3103 N   0  0  0  0  0  0  0  0  0  0  0  0
    0.2940   -2.0927    0.8038 C   0  0  0  0  0  0  0  0  0  0  0  0
   -1.5173   -0.9337    0.8589 H   0  0  0  0  0  0  0  0  0  0  0  0
    1.2850   -1.6689    0.6094 H   0  0  0  0  0  0  0  0  0  0  0  0
    0.3946   -2.9071    1.5286 H   0  0  0  0  0  0  0  0  0  0  0  0
   -0.0920   -2.5065   -0.1325 H   0  0  0  0  0  0  0  0  0  0  0  0
   -4.0398    0.6237    0.2651 C   0  0  0  0  0  0  0  0  0  0  0  0
   -3.3051   -0.3500    0.3796 O   0  0  0  0  0  0  0  0  0  0  0  0
   -4.8595    1.1133    1.4448 C   0  0  0  0  0  0  0  0  0  0  0  0
   -5.9149    1.1724    1.1682 H   0  0  0  0  0  0  0  0  0  0  0  0
   -4.7581    0.4281    2.2911 H   0  0  0  0  0  0  0  0  0  0  0  0
   -4.5179    2.1039    1.7559 H   0  0  0  0  0  0  0  0  0  0  0  0
   -4.0675    1.3100   -0.9302 N   0  0  0  0  0  0  0  0  0  0  0  0
   -3.2626    0.9394   -2.1015 C   0  0  2  0  0  0  0  0  0  0  0  0
   -1.8780    1.6248   -2.1298 C   0  0  0  0  0  0  0  0  0  0  0  0
   -1.8100    2.8420   -2.1866 O   0  0  0  0  0  0  0  0  0  0  0  0
   -4.0711    1.3029   -3.3502 C   0  0  0  0  0  0  0  0  0  0  0  0
   -4.5216    2.2207   -0.9314 H   0  0  0  0  0  0  0  0  0  0  0  0
   -3.1057   -0.1442   -2.1129 H   0  0  0  0  0  0  0  0  0  0  0  0
   -4.2614    2.3806   -3.3852 H   0  0  0  0  0  0  0  0  0  0  0  0
   -3.5216    1.0198   -4.2533 H   0  0  0  0  0  0  0  0  0  0  0  0
   -5.0318    0.7788   -3.3503 H   0  0  0  0  0  0  0  0  0  0  0  0
   -0.7538    0.8559   -2.3677 N   0  0  0  0  0  0  0  0  0  0  0  0
    0.6691    1.2406   -2.2181 C   0  0  2  0  0  0  0  0  0  0  0  0
    1.5234    0.0147   -2.6221 C   0  0  0  0  0  0  0  0  0  0  0  0
    2.2487   -0.5845   -1.8378 O   0  0  0  0  0  0  0  0  0  0  0  0
    1.1068    1.6869   -0.7947 C   0  0  0  0  0  0  0  0  0  0  0  0
    0.3578    3.2322   -0.1379 S   0  0  0  0  0  0  0  0  0  0  0  0
   -0.9345   -0.1442   -2.3290 H   0  0  0  0  0  0  0  0  0  0  0  0
    0.8898    2.0590   -2.9110 H   0  0  0  0  0  0  0  0  0  0  0  0
    0.8756    0.8763   -0.0976 H   0  0  0  0  0  0  0  0  0  0  0  0
    2.1932    1.8219   -0.7801 H   0  0  0  0  0  0  0  0  0  0  0  0
    1.3958   -0.4867   -3.9039 N   0  0  0  0  0  0  0  0  0  0  0  0
    2.2121   -1.5705   -4.4676 C   0  0  2  0  0  0  0  0  0  0  0  0
    2.3245   -1.4445   -6.0019 C   0  0  0  0  0  0  0  0  0  0  0  0
    1.5768   -0.6858   -6.6094 O   0  0  0  0  0  0  0  0  0  0  0  0
    1.5825   -2.9147   -4.0870 C   0  0  0  0  0  0  0  0  0  0  0  0
    0.8575    0.0696   -4.5702 H   0  0  0  0  0  0  0  0  0  0  0  0
    3.2268   -1.5154   -4.0583 H   0  0  0  0  0  0  0  0  0  0  0  0
    0.5708   -2.9932   -4.4971 H   0  0  0  0  0  0  0  0  0  0  0  0
    2.1817   -3.7428   -4.4769 H   0  0  0  0  0  0  0  0  0  0  0  0
    1.5266   -3.0149   -2.9987 H   0  0  0  0  0  0  0  0  0  0  0  0
    3.2691   -2.1727   -6.7017 N   0  0  0  0  0  0  0  0  0  0  0  0
    3.4394   -2.0821   -8.1473 C   0  0  0  0  0  0  0  0  0  0  0  0
    3.8917   -2.7741   -6.1698 H   0  0  0  0  0  0  0  0  0  0  0  0
    2.5106   -2.3535   -8.6601 H   0  0  0  0  0  0  0  0  0  0  0  0
    3.7183   -1.0639   -8.4385 H   0  0  0  0  0  0  0  0  0  0  0  0
    4.2284   -2.7640   -8.4790 H   0  0  0  0  0  0  0  0  0  0  0  0
  1  2  2  0  0  0  0
  1  3  1  0  0  0  0
  1  7  1  0  0  0  0
  3  4  1  0  0  0  0
  3  5  1  0  0  0  0
  3  6  1  0  0  0  0
  7  8  1  0  0  0  0
  7 13  1  0  0  0  0
  8  9  1  0  0  0  0
  8 11  1  0  0  0  0
  8 14  1  0  0  0  0
  9 10  2  0  0  0  0
  9 17  1  0  0  0  0
 11 12  1  0  0  0  0
 11 15  1  0  0  0  0
 11 16  1  0  0  0  0
 12 44  1  0  0  0  0
 17 18  1  0  0  0  0
 17 19  1  0  0  0  0
 18 20  1  0  0  0  0
 18 21  1  0  0  0  0
 18 22  1  0  0  0  0
 23 24  2  0  0  0  0
 23 25  1  0  0  0  0
 23 29  1  0  0  0  0
 25 26  1  0  0  0  0
 25 27  1  0  0  0  0
 25 28  1  0  0  0  0
 29 30  1  0  0  0  0
 29 34  1  0  0  0  0
 30 31  1  0  0  0  0
 30 33  1  0  0  0  0
 30 35  1  0  0  0  0
 31 32  2  0  0  0  0
 31 39  1  0  0  0  0
 33 36  1  0  0  0  0
 33 37  1  0  0  0  0
 33 38  1  0  0  0  0
 39 40  1  0  0  0  0
 39 45  1  0  0  0  0
 40 41  1  0  0  0  0
 40 43  1  0  0  0  0
 40 46  1  0  0  0  0
 41 42  2  0  0  0  0
 41 49  1  0  0  0  0
 43 44  1  0  0  0  0
 43 47  1  0  0  0  0
 43 48  1  0  0  0  0
 49 50  1  0  0  0  0
 49 54  1  0  0  0  0
 50 51  1  0  0  0  0
 50 53  1  0  0  0  0
 50 55  1  0  0  0  0
 51 52  2  0  0  0  0
 51 59  1  0  0  0  0
 53 56  1  0  0  0  0
 53 57  1  0  0  0  0
 53 58  1  0  0  0  0
 59 60  1  0  0  0  0
 59 61  1  0  0  0  0
 60 62  1  0  0  0  0
 60 63  1  0  0  0  0
 60 64  1  0  0  0  0
M  END
$$$$

  -OEChem-05262216053D

 64 63  0     1  0  0  0  0  0999 V2000
   -2.0830    1.9194    5.0619 C   0  0  0  0  0  0  0  0  0  0  0  0
   -3.2227    2.0352    4.6338 O   0  0  0  0  0  0  0  0  0  0  0  0
   -1.7283    2.4443    6.4399 C   0  0  0  0  0  0  0  0  0  0  0  0
   -0.9799    3.2363    6.3553 H   0  0  0  0  0  0  0  0  0  0  0  0
   -2.6183    2.8501    6.9287 H   0  0  0  0  0  0  0  0  0  0  0  0
   -1.3255    1.6363    7.0554 H   0  0  0  0  0  0  0  0  0  0  0  0
   -1.1197    1.3132    4.2861 N   0  0  0  0  0  0  0  0  0  0  0  0
   -1.3605    0.7803    2.9404 C   0  0  2  0  0  0  0  0  0  0  0  0
   -0.3546   -0.3131    2.5319 C   0  0  0  0  0  0  0  0  0  0  0  0
    0.6488   -0.5189    3.2076 O   0  0  0  0  0  0  0  0  0  0  0  0
   -1.3317    1.9304    1.9249 C   0  0  0  0  0  0  0  0  0  0  0  0
    0.2909    2.7884    1.8739 S   0  0  0  0  0  0  0  0  0  0  0  0
   -0.1824    1.2028    4.6707 H   0  0  0  0  0  0  0  0  0  0  0  0
   -2.3481    0.3108    2.9199 H   0  0  0  0  0  0  0  0  0  0  0  0
   -1.5435    1.5348    0.9295 H   0  0  0  0  0  0  0  0  0  0  0  0
   -2.1114    2.6590    2.1647 H   0  0  0  0  0  0  0  0  0  0  0  0
   -0.5911   -1.0767    1.4041 N   0  0  0  0  0  0  0  0  0  0  0  0
    0.3256   -2.1014    0.9223 C   0  0  0  0  0  0  0  0  0  0  0  0
   -1.4951   -0.9546    0.9396 H   0  0  0  0  0  0  0  0  0  0  0  0
    1.3361   -1.6926    0.8136 H   0  0  0  0  0  0  0  0  0  0  0  0
    0.3592   -2.9429    1.6216 H   0  0  0  0  0  0  0  0  0  0  0  0
    0.0004   -2.4710   -0.0547 H   0  0  0  0  0  0  0  0  0  0  0  0
   -4.0367    0.5921    0.2972 C   0  0  0  0  0  0  0  0  0  0  0  0
   -3.2964   -0.3748    0.4329 O   0  0  0  0  0  0  0  0  0  0  0  0
   -4.8517    1.1085    1.4690 C   0  0  0  0  0  0  0  0  0  0  0  0
   -5.9127    1.1257    1.2083 H   0  0  0  0  0  0  0  0  0  0  0  0
   -4.7172    0.4626    2.3412 H   0  0  0  0  0  0  0  0  0  0  0  0
   -4.5339    2.1205    1.7332 H   0  0  0  0  0  0  0  0  0  0  0  0
   -4.0758    1.2480   -0.9150 N   0  0  0  0  0  0  0  0  0  0  0  0
   -3.2832    0.8503   -2.0862 C   0  0  2  0  0  0  0  0  0  0  0  0
   -1.9075    1.5507   -2.1570 C   0  0  0  0  0  0  0  0  0  0  0  0
   -1.8540    2.7662   -2.2570 O   0  0  0  0  0  0  0  0  0  0  0  0
   -4.1176    1.1640   -3.3320 C   0  0  0  0  0  0  0  0  0  0  0  0
   -4.5401    2.1531   -0.9379 H   0  0  0  0  0  0  0  0  0  0  0  0
   -3.1122   -0.2307   -2.0648 H   0  0  0  0  0  0  0  0  0  0  0  0
   -4.3236    2.2376   -3.3975 H   0  0  0  0  0  0  0  0  0  0  0  0
   -3.5806    0.8601   -4.2359 H   0  0  0  0  0  0  0  0  0  0  0  0
   -5.0708    0.6271   -3.2981 H   0  0  0  0  0  0  0  0  0  0  0  0
   -0.7735    0.7912   -2.3774 N   0  0  0  0  0  0  0  0  0  0  0  0
    0.6395    1.2040   -2.2234 C   0  0  2  0  0  0  0  0  0  0  0  0
    1.5283   -0.0036   -2.5994 C   0  0  0  0  0  0  0  0  0  0  0  0
    2.0066   -0.7524   -1.7559 O   0  0  0  0  0  0  0  0  0  0  0  0
    1.0616    1.6725   -0.8035 C   0  0  0  0  0  0  0  0  0  0  0  0
    0.2804    3.2101   -0.1675 S   0  0  0  0  0  0  0  0  0  0  0  0
   -0.9364   -0.2096   -2.2976 H   0  0  0  0  0  0  0  0  0  0  0  0
    0.8471    2.0214   -2.9216 H   0  0  0  0  0  0  0  0  0  0  0  0
    0.8354    0.8671   -0.0980 H   0  0  0  0  0  0  0  0  0  0  0  0
    2.1460    1.8215   -0.7826 H   0  0  0  0  0  0  0  0  0  0  0  0
    1.6774   -0.3419   -3.9308 N   0  0  0  0  0  0  0  0  0  0  0  0
    2.5523   -1.4123   -4.4285 C   0  0  2  0  0  0  0  0  0  0  0  0
    3.0461   -1.1157   -5.8602 C   0  0  0  0  0  0  0  0  0  0  0  0
    2.5186   -0.2253   -6.5175 O   0  0  0  0  0  0  0  0  0  0  0  0
    1.7822   -2.7370   -4.3923 C   0  0  0  0  0  0  0  0  0  0  0  0
    1.3217    0.3160   -4.6261 H   0  0  0  0  0  0  0  0  0  0  0  0
    3.4368   -1.4900   -3.7869 H   0  0  0  0  0  0  0  0  0  0  0  0
    0.8952   -2.6809   -5.0314 H   0  0  0  0  0  0  0  0  0  0  0  0
    2.4137   -3.5587   -4.7438 H   0  0  0  0  0  0  0  0  0  0  0  0
    1.4625   -2.9643   -3.3704 H   0  0  0  0  0  0  0  0  0  0  0  0
    4.0876   -1.8402   -6.4101 N   0  0  0  0  0  0  0  0  0  0  0  0
    4.6038   -1.6041   -7.7533 C   0  0  0  0  0  0  0  0  0  0  0  0
    4.5132   -2.5649   -5.8392 H   0  0  0  0  0  0  0  0  0  0  0  0
    3.8214   -1.7765   -8.4999 H   0  0  0  0  0  0  0  0  0  0  0  0
    4.9629   -0.5741   -7.8507 H   0  0  0  0  0  0  0  0  0  0  0  0
    5.4373   -2.2811   -7.9635 H   0  0  0  0  0  0  0  0  0  0  0  0
  1  2  2  0  0  0  0
  1  3  1  0  0  0  0
  1  7  1  0  0  0  0
  3  4  1  0  0  0  0
  3  5  1  0  0  0  0
  3  6  1  0  0  0  0
  7  8  1  0  0  0  0
  7 13  1  0  0  0  0
  8  9  1  0  0  0  0
  8 11  1  0  0  0  0
  8 14  1  0  0  0  0
  9 10  2  0  0  0  0
  9 17  1  0  0  0  0
 11 12  1  0  0  0  0
 11 15  1  0  0  0  0
 11 16  1  0  0  0  0
 12 44  1  0  0  0  0
 17 18  1  0  0  0  0
 17 19  1  0  0  0  0
 18 20  1  0  0  0  0
 18 21  1  0  0  0  0
 18 22  1  0  0  0  0
 23 24  2  0  0  0  0
 23 25  1  0  0  0  0
 23 29  1  0  0  0  0
 25 26  1  0  0  0  0
 25 27  1  0  0  0  0
 25 28  1  0  0  0  0
 29 30  1  0  0  0  0
 29 34  1  0  0  0  0
 30 31  1  0  0  0  0
 30 33  1  0  0  0  0
 30 35  1  0  0  0  0
 31 32  2  0  0  0  0
 31 39  1  0  0  0  0
 33 36  1  0  0  0  0
 33 37  1  0  0  0  0
 33 38  1  0  0  0  0
 39 40  1  0  0  0  0
 39 45  1  0  0  0  0
 40 41  1  0  0  0  0
 40 43  1  0  0  0  0
 40 46  1  0  0  0  0
 41 42  2  0  0  0  0
 41 49  1  0  0  0  0
 43 44  1  0  0  0  0
 43 47  1  0  0  0  0
 43 48  1  0  0  0  0
 49 50  1  0  0  0  0
 49 54  1  0  0  0  0
 50 51  1  0  0  0  0
 50 53  1  0  0  0  0
 50 55  1  0  0  0  0
 51 52  2  0  0  0  0
 51 59  1  0  0  0  0
 53 56  1  0  0  0  0
 53 57  1  0  0  0  0
 53 58  1  0  0  0  0
 59 60  1  0  0  0  0
 59 61  1  0  0  0  0
 60 62  1  0  0  0  0
 60 63  1  0  0  0  0
 60 64  1  0  0  0  0
M  END
$$$$

  -OEChem-05262216053D

 64 63  0     1  0  0  0  0  0999 V2000
   -2.0142    2.0533    5.1068 C   0  0  0  0  0  0  0  0  0  0  0  0
   -3.1609    2.1882    4.7043 O   0  0  0  0  0  0  0  0  0  0  0  0
   -1.6060    2.6208    6.4524 C   0  0  0  0  0  0  0  0  0  0  0  0
   -0.8238    3.3719    6.3167 H   0  0  0  0  0  0  0  0  0  0  0  0
   -2.4656    3.0894    6.9395 H   0  0  0  0  0  0  0  0  0  0  0  0
   -1.2281    1.8228    7.0960 H   0  0  0  0  0  0  0  0  0  0  0  0
   -1.0908    1.3863    4.3327 N   0  0  0  0  0  0  0  0  0  0  0  0
   -1.3761    0.8249    3.0069 C   0  0  2  0  0  0  0  0  0  0  0  0
   -0.3896   -0.2859    2.5955 C   0  0  0  0  0  0  0  0  0  0  0  0
    0.6319   -0.4827    3.2465 O   0  0  0  0  0  0  0  0  0  0  0  0
   -1.3643    1.9506    1.9638 C   0  0  0  0  0  0  0  0  0  0  0  0
    0.2583    2.8053    1.8660 S   0  0  0  0  0  0  0  0  0  0  0  0
   -0.1451    1.2713    4.6946 H   0  0  0  0  0  0  0  0  0  0  0  0
   -2.3691    0.3657    3.0250 H   0  0  0  0  0  0  0  0  0  0  0  0
   -1.5949    1.5333    0.9816 H   0  0  0  0  0  0  0  0  0  0  0  0
   -2.1389    2.6859    2.2002 H   0  0  0  0  0  0  0  0  0  0  0  0
   -0.6606   -1.0722    1.4912 N   0  0  0  0  0  0  0  0  0  0  0  0
    0.2294   -2.1203    1.0102 C   0  0  0  0  0  0  0  0  0  0  0  0
   -1.5756   -0.9530    1.0480 H   0  0  0  0  0  0  0  0  0  0  0  0
    1.2416   -1.7279    0.8660 H   0  0  0  0  0  0  0  0  0  0  0  0
    0.2706   -2.9468    1.7267 H   0  0  0  0  0  0  0  0  0  0  0  0
   -0.1265   -2.5073    0.0507 H   0  0  0  0  0  0  0  0  0  0  0  0
   -4.0790    0.5759    0.3165 C   0  0  0  0  0  0  0  0  0  0  0  0
   -3.3542   -0.3859    0.5394 O   0  0  0  0  0  0  0  0  0  0  0  0
   -4.8908    1.1993    1.4371 C   0  0  0  0  0  0  0  0  0  0  0  0
   -5.9534    1.1823    1.1840 H   0  0  0  0  0  0  0  0  0  0  0  0
   -4.7449    0.6439    2.3677 H   0  0  0  0  0  0  0  0  0  0  0  0
   -4.5792    2.2348    1.5966 H   0  0  0  0  0  0  0  0  0  0  0  0
   -4.0968    1.1330   -0.9448 N   0  0  0  0  0  0  0  0  0  0  0  0
   -3.2575    0.6622   -2.0554 C   0  0  2  0  0  0  0  0  0  0  0  0
   -1.9086    1.4094   -2.1512 C   0  0  0  0  0  0  0  0  0  0  0  0
   -1.8994    2.6247   -2.2708 O   0  0  0  0  0  0  0  0  0  0  0  0
   -4.0652    0.8331   -3.3447 C   0  0  0  0  0  0  0  0  0  0  0  0
   -4.5368    2.0460   -1.0382 H   0  0  0  0  0  0  0  0  0  0  0  0
   -3.0462   -0.4053   -1.9356 H   0  0  0  0  0  0  0  0  0  0  0  0
   -4.3117    1.8874   -3.5079 H   0  0  0  0  0  0  0  0  0  0  0  0
   -3.4899    0.4756   -4.2043 H   0  0  0  0  0  0  0  0  0  0  0  0
   -4.9967    0.2613   -3.2881 H   0  0  0  0  0  0  0  0  0  0  0  0
   -0.7492    0.6849   -2.3532 N   0  0  0  0  0  0  0  0  0  0  0  0
    0.6482    1.1441   -2.2031 C   0  0  2  0  0  0  0  0  0  0  0  0
    1.5721   -0.0410   -2.5531 C   0  0  0  0  0  0  0  0  0  0  0  0
    1.7846   -0.9377   -1.7458 O   0  0  0  0  0  0  0  0  0  0  0  0
    1.0596    1.6443   -0.7928 C   0  0  0  0  0  0  0  0  0  0  0  0
    0.2278    3.1673   -0.1856 S   0  0  0  0  0  0  0  0  0  0  0  0
   -0.8744   -0.3192   -2.2453 H   0  0  0  0  0  0  0  0  0  0  0  0
    0.8310    1.9563   -2.9141 H   0  0  0  0  0  0  0  0  0  0  0  0
    0.8574    0.8444   -0.0737 H   0  0  0  0  0  0  0  0  0  0  0  0
    2.1390    1.8261   -0.7758 H   0  0  0  0  0  0  0  0  0  0  0  0
    1.9927   -0.2183   -3.8570 N   0  0  0  0  0  0  0  0  0  0  0  0
    2.8772   -1.2988   -4.3137 C   0  0  2  0  0  0  0  0  0  0  0  0
    3.7134   -0.8634   -5.5356 C   0  0  0  0  0  0  0  0  0  0  0  0
    3.4348    0.1716   -6.1309 O   0  0  0  0  0  0  0  0  0  0  0  0
    2.0190   -2.5191   -4.6624 C   0  0  0  0  0  0  0  0  0  0  0  0
    1.8391    0.5504   -4.5112 H   0  0  0  0  0  0  0  0  0  0  0  0
    3.5774   -1.5637   -3.5143 H   0  0  0  0  0  0  0  0  0  0  0  0
    1.3103   -2.2716   -5.4592 H   0  0  0  0  0  0  0  0  0  0  0  0
    2.6474   -3.3487   -5.0002 H   0  0  0  0  0  0  0  0  0  0  0  0
    1.4560   -2.8510   -3.7847 H   0  0  0  0  0  0  0  0  0  0  0  0
    4.7811   -1.6287   -5.9672 N   0  0  0  0  0  0  0  0  0  0  0  0
    5.6138   -1.2664   -7.1079 C   0  0  0  0  0  0  0  0  0  0  0  0
    5.0018   -2.4714   -5.4444 H   0  0  0  0  0  0  0  0  0  0  0  0
    5.0066   -1.1861   -8.0158 H   0  0  0  0  0  0  0  0  0  0  0  0
    6.1102   -0.3066   -6.9300 H   0  0  0  0  0  0  0  0  0  0  0  0
    6.3821   -2.0279   -7.2731 H   0  0  0  0  0  0  0  0  0  0  0  0
  1  2  2  0  0  0  0
  1  3  1  0  0  0  0
  1  7  1  0  0  0  0
  3  4  1  0  0  0  0
  3  5  1  0  0  0  0
  3  6  1  0  0  0  0
  7  8  1  0  0  0  0
  7 13  1  0  0  0  0
  8  9  1  0  0  0  0
  8 11  1  0  0  0  0
  8 14  1  0  0  0  0
  9 10  2  0  0  0  0
  9 17  1  0  0  0  0
 11 12  1  0  0  0  0
 11 15  1  0  0  0  0
 11 16  1  0  0  0  0
 12 44  1  0  0  0  0
 17 18  1  0  0  0  0
 17 19  1  0  0  0  0
 18 20  1  0  0  0  0
 18 21  1  0  0  0  0
 18 22  1  0  0  0  0
 23 24  2  0  0  0  0
 23 25  1  0  0  0  0
 23 29  1  0  0  0  0
 25 26  1  0  0  0  0
 25 27  1  0  0  0  0
 25 28  1  0  0  0  0
 29 30  1  0  0  0  0
 29 34  1  0  0  0  0
 30 31  1  0  0  0  0
 30 33  1  0  0  0  0
 30 35  1  0  0  0  0
 31 32  2  0  0  0  0
 31 39  1  0  0  0  0
 33 36  1  0  0  0  0
 33 37  1  0  0  0  0
 33 38  1  0  0  0  0
 39 40  1  0  0  0  0
 39 45  1  0  0  0  0
 40 41  1  0  0  0  0
 40 43  1  0  0  0  0
 40 46  1  0  0  0  0
 41 42  2  0  0  0  0
 41 49  1  0  0  0  0
 43 44  1  0  0  0  0
 43 47  1  0  0  0  0
 43 48  1  0  0  0  0
 49 50  1  0  0  0  0
 49 54  1  0  0  0  0
 50 51  1  0  0  0  0
 50 53  1  0  0  0  0
 50 55  1  0  0  0  0
 51 52  2  0  0  0  0
 51 59  1  0  0  0  0
 53 56  1  0  0  0  0
 53 57  1  0  0  0  0
 53 58  1  0  0  0  0
 59 60  1  0  0  0  0
 59 61  1  0  0  0  0
 60 62  1  0  0  0  0
 60 63  1  0  0  0  0
 60 64  1  0  0  0  0
M  END
$$$$

  -OEChem-05262216053D

 64 63  0     1  0  0  0  0  0999 V2000
   -2.0256    2.1224    5.0561 C   0  0  0  0  0  0  0  0  0  0  0  0
   -3.1703    2.2432    4.6431 O   0  0  0  0  0  0  0  0  0  0  0  0
   -1.6338    2.7008    6.4019 C   0  0  0  0  0  0  0  0  0  0  0  0
   -0.8557    3.4564    6.2690 H   0  0  0  0  0  0  0  0  0  0  0  0
   -2.5004    3.1667    6.8790 H   0  0  0  0  0  0  0  0  0  0  0  0
   -1.2562    1.9085    7.0527 H   0  0  0  0  0  0  0  0  0  0  0  0
   -1.0894    1.4584    4.2950 N   0  0  0  0  0  0  0  0  0  0  0  0
   -1.3632    0.8716    2.9780 C   0  0  2  0  0  0  0  0  0  0  0  0
   -0.3829   -0.2560    2.6005 C   0  0  0  0  0  0  0  0  0  0  0  0
    0.6371   -0.4410    3.2573 O   0  0  0  0  0  0  0  0  0  0  0  0
   -1.3312    1.9745    1.9119 C   0  0  0  0  0  0  0  0  0  0  0  0
    0.2984    2.8159    1.8173 S   0  0  0  0  0  0  0  0  0  0  0  0
   -0.1465    1.3525    4.6665 H   0  0  0  0  0  0  0  0  0  0  0  0
   -2.3597    0.4207    2.9940 H   0  0  0  0  0  0  0  0  0  0  0  0
   -1.5530    1.5374    0.9359 H   0  0  0  0  0  0  0  0  0  0  0  0
   -2.1035    2.7199    2.1233 H   0  0  0  0  0  0  0  0  0  0  0  0
   -0.6622   -1.0726    1.5211 N   0  0  0  0  0  0  0  0  0  0  0  0
    0.2033   -2.1612    1.0879 C   0  0  0  0  0  0  0  0  0  0  0  0
   -1.5804   -0.9620    1.0821 H   0  0  0  0  0  0  0  0  0  0  0  0
    1.2261   -1.8014    0.9333 H   0  0  0  0  0  0  0  0  0  0  0  0
    0.2199   -2.9591    1.8371 H   0  0  0  0  0  0  0  0  0  0  0  0
   -0.1584   -2.5771    0.1427 H   0  0  0  0  0  0  0  0  0  0  0  0
   -4.0794    0.5851    0.3694 C   0  0  0  0  0  0  0  0  0  0  0  0
   -3.3731   -0.3831    0.6211 O   0  0  0  0  0  0  0  0  0  0  0  0
   -4.8850    1.2524    1.4686 C   0  0  0  0  0  0  0  0  0  0  0  0
   -5.9422    1.2794    1.1940 H   0  0  0  0  0  0  0  0  0  0  0  0
   -4.7810    0.6996    2.4066 H   0  0  0  0  0  0  0  0  0  0  0  0
   -4.5319    2.2746    1.6259 H   0  0  0  0  0  0  0  0  0  0  0  0
   -4.0821    1.1083   -0.9063 N   0  0  0  0  0  0  0  0  0  0  0  0
   -3.2448    0.5957   -1.9998 C   0  0  2  0  0  0  0  0  0  0  0  0
   -1.8953    1.3370   -2.1231 C   0  0  0  0  0  0  0  0  0  0  0  0
   -1.8834    2.5490   -2.2732 O   0  0  0  0  0  0  0  0  0  0  0  0
   -4.0481    0.7254   -3.2968 C   0  0  0  0  0  0  0  0  0  0  0  0
   -4.5034    2.0271   -1.0245 H   0  0  0  0  0  0  0  0  0  0  0  0
   -3.0357   -0.4677   -1.8426 H   0  0  0  0  0  0  0  0  0  0  0  0
   -4.2874    1.7748   -3.4983 H   0  0  0  0  0  0  0  0  0  0  0  0
   -3.4725    0.3341   -4.1414 H   0  0  0  0  0  0  0  0  0  0  0  0
   -4.9833    0.1619   -3.2236 H   0  0  0  0  0  0  0  0  0  0  0  0
   -0.7392    0.6044   -2.3098 N   0  0  0  0  0  0  0  0  0  0  0  0
    0.6604    1.0646   -2.2000 C   0  0  2  0  0  0  0  0  0  0  0  0
    1.5742   -0.1362   -2.5114 C   0  0  0  0  0  0  0  0  0  0  0  0
    1.5710   -1.1202   -1.7803 O   0  0  0  0  0  0  0  0  0  0  0  0
    1.1031    1.6028   -0.8162 C   0  0  0  0  0  0  0  0  0  0  0  0
    0.2850    3.1442   -0.2396 S   0  0  0  0  0  0  0  0  0  0  0  0
   -0.8598   -0.3969   -2.1685 H   0  0  0  0  0  0  0  0  0  0  0  0
    0.8320    1.8503   -2.9430 H   0  0  0  0  0  0  0  0  0  0  0  0
    0.9146    0.8226   -0.0717 H   0  0  0  0  0  0  0  0  0  0  0  0
    2.1827    1.7830   -0.8274 H   0  0  0  0  0  0  0  0  0  0  0  0
    2.2302   -0.2117   -3.7243 N   0  0  0  0  0  0  0  0  0  0  0  0
    3.1323   -1.3007   -4.1195 C   0  0  2  0  0  0  0  0  0  0  0  0
    4.2510   -0.7899   -5.0519 C   0  0  0  0  0  0  0  0  0  0  0  0
    4.1676    0.3258   -5.5534 O   0  0  0  0  0  0  0  0  0  0  0  0
    2.3046   -2.3874   -4.8133 C   0  0  0  0  0  0  0  0  0  0  0  0
    2.2581    0.6313   -4.2995 H   0  0  0  0  0  0  0  0  0  0  0  0
    3.6142   -1.7228   -3.2312 H   0  0  0  0  0  0  0  0  0  0  0  0
    1.8203   -1.9847   -5.7088 H   0  0  0  0  0  0  0  0  0  0  0  0
    2.9416   -3.2265   -5.1088 H   0  0  0  0  0  0  0  0  0  0  0  0
    1.5297   -2.7650   -4.1384 H   0  0  0  0  0  0  0  0  0  0  0  0
    5.3597   -1.5723   -5.3174 N   0  0  0  0  0  0  0  0  0  0  0  0
    6.4623   -1.1346   -6.1655 C   0  0  0  0  0  0  0  0  0  0  0  0
    5.4145   -2.4832   -4.8709 H   0  0  0  0  0  0  0  0  0  0  0  0
    6.1060   -0.9240   -7.1794 H   0  0  0  0  0  0  0  0  0  0  0  0
    6.9240   -0.2283   -5.7591 H   0  0  0  0  0  0  0  0  0  0  0  0
    7.2275   -1.9148   -6.2237 H   0  0  0  0  0  0  0  0  0  0  0  0
  1  2  2  0  0  0  0
  1  3  1  0  0  0  0
  1  7  1  0  0  0  0
  3  4  1  0  0  0  0
  3  5  1  0  0  0  0
  3  6  1  0  0  0  0
  7  8  1  0  0  0  0
  7 13  1  0  0  0  0
  8  9  1  0  0  0  0
  8 11  1  0  0  0  0
  8 14  1  0  0  0  0
  9 10  2  0  0  0  0
  9 17  1  0  0  0  0
 11 12  1  0  0  0  0
 11 15  1  0  0  0  0
 11 16  1  0  0  0  0
 12 44  1  0  0  0  0
 17 18  1  0  0  0  0
 17 19  1  0  0  0  0
 18 20  1  0  0  0  0
 18 21  1  0  0  0  0
 18 22  1  0  0  0  0
 23 24  2  0  0  0  0
 23 25  1  0  0  0  0
 23 29  1  0  0  0  0
 25 26  1  0  0  0  0
 25 27  1  0  0  0  0
 25 28  1  0  0  0  0
 29 30  1  0  0  0  0
 29 34  1  0  0  0  0
 30 31  1  0  0  0  0
 30 33  1  0  0  0  0
 30 35  1  0  0  0  0
 31 32  2  0  0  0  0
 31 39  1  0  0  0  0
 33 36  1  0  0  0  0
 33 37  1  0  0  0  0
 33 38  1  0  0  0  0
 39 40  1  0  0  0  0
 39 45  1  0  0  0  0
 40 41  1  0  0  0  0
 40 43  1  0  0  0  0
 40 46  1  0  0  0  0
 41 42  2  0  0  0  0
 41 49  1  0  0  0  0
 43 44  1  0  0  0  0
 43 47  1  0  0  0  0
 43 48  1  0  0  0  0
 49 50  1  0  0  0  0
 49 54  1  0  0  0  0
 50 51  1  0  0  0  0
 50 53  1  0  0  0  0
 50 55  1  0  0  0  0
 51 52  2  0  0  0  0
 51 59  1  0  0  0  0
 53 56  1  0  0  0  0
 53 57  1  0  0  0  0
 53 58  1  0  0  0  0
 59 60  1  0  0  0  0
 59 61  1  0  0  0  0
 60 62  1  0  0  0  0
 60 63  1  0  0  0  0
 60 64  1  0  0  0  0
M  END
$$$$

  -OEChem-05262216053D

 64 63  0     1  0  0  0  0  0999 V2000
   -1.9205    2.1892    5.0941 C   0  0  0  0  0  0  0  0  0  0  0  0
   -3.0722    2.3478    4.7152 O   0  0  0  0  0  0  0  0  0  0  0  0
   -1.4724    2.7462    6.4316 C   0  0  0  0  0  0  0  0  0  0  0  0
   -0.6456    3.4457    6.2856 H   0  0  0  0  0  0  0  0  0  0  0  0
   -2.2984    3.2731    6.9173 H   0  0  0  0  0  0  0  0  0  0  0  0
   -1.1420    1.9324    7.0814 H   0  0  0  0  0  0  0  0  0  0  0  0
   -1.0293    1.4942    4.3065 N   0  0  0  0  0  0  0  0  0  0  0  0
   -1.3613    0.9073    3.0024 C   0  0  2  0  0  0  0  0  0  0  0  0
   -0.4133   -0.2385    2.5956 C   0  0  0  0  0  0  0  0  0  0  0  0
    0.6248   -0.4398    3.2188 O   0  0  0  0  0  0  0  0  0  0  0  0
   -1.3518    2.0045    1.9296 C   0  0  0  0  0  0  0  0  0  0  0  0
    0.2813    2.8325    1.7826 S   0  0  0  0  0  0  0  0  0  0  0  0
   -0.0818    1.3532    4.6540 H   0  0  0  0  0  0  0  0  0  0  0  0
   -2.3641    0.4730    3.0575 H   0  0  0  0  0  0  0  0  0  0  0  0
   -1.6061    1.5647    0.9630 H   0  0  0  0  0  0  0  0  0  0  0  0
   -2.1125    2.7561    2.1605 H   0  0  0  0  0  0  0  0  0  0  0  0
   -0.7432   -1.0571    1.5318 N   0  0  0  0  0  0  0  0  0  0  0  0
    0.0756   -2.1787    1.0919 C   0  0  0  0  0  0  0  0  0  0  0  0
   -1.6766   -0.9365    1.1285 H   0  0  0  0  0  0  0  0  0  0  0  0
    1.1078   -1.8567    0.9180 H   0  0  0  0  0  0  0  0  0  0  0  0
    0.0756   -2.9721    1.8462 H   0  0  0  0  0  0  0  0  0  0  0  0
   -0.3164   -2.5875    0.1556 H   0  0  0  0  0  0  0  0  0  0  0  0
   -4.1275    0.6370    0.3688 C   0  0  0  0  0  0  0  0  0  0  0  0
   -3.4537   -0.3335    0.6900 O   0  0  0  0  0  0  0  0  0  0  0  0
   -4.9173    1.3987    1.4168 C   0  0  0  0  0  0  0  0  0  0  0  0
   -5.9840    1.3545    1.1848 H   0  0  0  0  0  0  0  0  0  0  0  0
   -4.7553    0.9640    2.4075 H   0  0  0  0  0  0  0  0  0  0  0  0
   -4.6008    2.4446    1.4405 H   0  0  0  0  0  0  0  0  0  0  0  0
   -4.1021    1.0799   -0.9368 N   0  0  0  0  0  0  0  0  0  0  0  0
   -3.2477    0.4931   -1.9790 C   0  0  2  0  0  0  0  0  0  0  0  0
   -1.9016    1.2329   -2.1362 C   0  0  0  0  0  0  0  0  0  0  0  0
   -1.8928    2.4390   -2.3303 O   0  0  0  0  0  0  0  0  0  0  0  0
   -4.0329    0.5220   -3.2933 C   0  0  0  0  0  0  0  0  0  0  0  0
   -4.4897    2.0044   -1.1127 H   0  0  0  0  0  0  0  0  0  0  0  0
   -3.0325   -0.5543   -1.7427 H   0  0  0  0  0  0  0  0  0  0  0  0
   -4.2818    1.5515   -3.5717 H   0  0  0  0  0  0  0  0  0  0  0  0
   -3.4408    0.0794   -4.1005 H   0  0  0  0  0  0  0  0  0  0  0  0
   -4.9619   -0.0477   -3.1935 H   0  0  0  0  0  0  0  0  0  0  0  0
   -0.7427    0.4974   -2.2886 N   0  0  0  0  0  0  0  0  0  0  0  0
    0.6547    0.9637   -2.1879 C   0  0  2  0  0  0  0  0  0  0  0  0
    1.5779   -0.2425   -2.4479 C   0  0  0  0  0  0  0  0  0  0  0  0
    1.3922   -1.2919   -1.8403 O   0  0  0  0  0  0  0  0  0  0  0  0
    1.0860    1.5372   -0.8156 C   0  0  0  0  0  0  0  0  0  0  0  0
    0.2557    3.0891   -0.2851 S   0  0  0  0  0  0  0  0  0  0  0  0
   -0.8568   -0.5011   -2.1206 H   0  0  0  0  0  0  0  0  0  0  0  0
    0.8262    1.7260   -2.9551 H   0  0  0  0  0  0  0  0  0  0  0  0
    0.8954    0.7742   -0.0539 H   0  0  0  0  0  0  0  0  0  0  0  0
    2.1649    1.7236   -0.8224 H   0  0  0  0  0  0  0  0  0  0  0  0
    2.4777   -0.2274   -3.4961 N   0  0  0  0  0  0  0  0  0  0  0  0
    3.3980   -1.3253   -3.8221 C   0  0  2  0  0  0  0  0  0  0  0  0
    4.7071   -0.7985   -4.4474 C   0  0  0  0  0  0  0  0  0  0  0  0
    4.7887    0.3724   -4.8016 O   0  0  0  0  0  0  0  0  0  0  0  0
    2.6902   -2.2824   -4.7869 C   0  0  0  0  0  0  0  0  0  0  0  0
    2.6617    0.6685   -3.9496 H   0  0  0  0  0  0  0  0  0  0  0  0
    3.6671   -1.8653   -2.9081 H   0  0  0  0  0  0  0  0  0  0  0  0
    2.4268   -1.7643   -5.7148 H   0  0  0  0  0  0  0  0  0  0  0  0
    3.3371   -3.1299   -5.0328 H   0  0  0  0  0  0  0  0  0  0  0  0
    1.7734   -2.6711   -4.3323 H   0  0  0  0  0  0  0  0  0  0  0  0
    5.7973   -1.6342   -4.6056 N   0  0  0  0  0  0  0  0  0  0  0  0
    7.0635   -1.1964   -5.1809 C   0  0  0  0  0  0  0  0  0  0  0  0
    5.7060   -2.5958   -4.2908 H   0  0  0  0  0  0  0  0  0  0  0  0
    6.9126   -0.8225   -6.1992 H   0  0  0  0  0  0  0  0  0  0  0  0
    7.5049   -0.3987   -4.5742 H   0  0  0  0  0  0  0  0  0  0  0  0
    7.7698   -2.0312   -5.2210 H   0  0  0  0  0  0  0  0  0  0  0  0
  1  2  2  0  0  0  0
  1  3  1  0  0  0  0
  1  7  1  0  0  0  0
  3  4  1  0  0  0  0
  3  5  1  0  0  0  0
  3  6  1  0  0  0  0
  7  8  1  0  0  0  0
  7 13  1  0  0  0  0
  8  9  1  0  0  0  0
  8 11  1  0  0  0  0
  8 14  1  0  0  0  0
  9 10  2  0  0  0  0
  9 17  1  0  0  0  0
 11 12  1  0  0  0  0
 11 15  1  0  0  0  0
 11 16  1  0  0  0  0
 12 44  1  0  0  0  0
 17 18  1  0  0  0  0
 17 19  1  0  0  0  0
 18 20  1  0  0  0  0
 18 21  1  0  0  0  0
 18 22  1  0  0  0  0
 23 24  2  0  0  0  0
 23 25  1  0  0  0  0
 23 29  1  0  0  0  0
 25 26  1  0  0  0  0
 25 27  1  0  0  0  0
 25 28  1  0  0  0  0
 29 30  1  0  0  0  0
 29 34  1  0  0  0  0
 30 31  1  0  0  0  0
 30 33  1  0  0  0  0
 30 35  1  0  0  0  0
 31 32  2  0  0  0  0
 31 39  1  0  0  0  0
 33 36  1  0  0  0  0
 33 37  1  0  0  0  0
 33 38  1  0  0  0  0
 39 40  1  0  0  0  0
 39 45  1  0  0  0  0
 40 41  1  0  0  0  0
 40 43  1  0  0  0  0
 40 46  1  0  0  0  0
 41 42  2  0  0  0  0
 41 49  1  0  0  0  0
 43 44  1  0  0  0  0
 43 47  1  0  0  0  0
 43 48  1  0  0  0  0
 49 50  1  0  0  0  0
 49 54  1  0  0  0  0
 50 51  1  0  0  0  0
 50 53  1  0  0  0  0
 50 55  1  0  0  0  0
 51 52  2  0  0  0  0
 51 59  1  0  0  0  0
 53 56  1  0  0  0  0
 53 57  1  0  0  0  0
 53 58  1  0  0  0  0
 59 60  1  0  0  0  0
 59 61  1  0  0  0  0
 60 62  1  0  0  0  0
 60 63  1  0  0  0  0
 60 64  1  0  0  0  0
M  END
$$$$

  -OEChem-05262216053D

 64 63  0     1  0  0  0  0  0999 V2000
   -1.8257    2.2366    5.0840 C   0  0  0  0  0  0  0  0  0  0  0  0
   -2.9771    2.4468    4.7309 O   0  0  0  0  0  0  0  0  0  0  0  0
   -1.3134    2.7997    6.3955 C   0  0  0  0  0  0  0  0  0  0  0  0
   -0.4486    3.4421    6.2125 H   0  0  0  0  0  0  0  0  0  0  0  0
   -2.0941    3.3899    6.8830 H   0  0  0  0  0  0  0  0  0  0  0  0
   -1.0193    1.9848    7.0611 H   0  0  0  0  0  0  0  0  0  0  0  0
   -0.9913    1.4821    4.2894 N   0  0  0  0  0  0  0  0  0  0  0  0
   -1.3758    0.9098    2.9935 C   0  0  2  0  0  0  0  0  0  0  0  0
   -0.4855   -0.2764    2.5712 C   0  0  0  0  0  0  0  0  0  0  0  0
    0.5681   -0.5051    3.1579 O   0  0  0  0  0  0  0  0  0  0  0  0
   -1.3335    2.0034    1.9179 C   0  0  0  0  0  0  0  0  0  0  0  0
    0.3296    2.7677    1.7577 S   0  0  0  0  0  0  0  0  0  0  0  0
   -0.0384    1.3140    4.6086 H   0  0  0  0  0  0  0  0  0  0  0  0
   -2.3969    0.5229    3.0681 H   0  0  0  0  0  0  0  0  0  0  0  0
   -1.6132    1.5716    0.9545 H   0  0  0  0  0  0  0  0  0  0  0  0
   -2.0624    2.7841    2.1543 H   0  0  0  0  0  0  0  0  0  0  0  0
   -0.8773   -1.0939    1.5275 N   0  0  0  0  0  0  0  0  0  0  0  0
   -0.1179   -2.2559    1.0853 C   0  0  0  0  0  0  0  0  0  0  0  0
   -1.8234   -0.9515    1.1624 H   0  0  0  0  0  0  0  0  0  0  0  0
    0.9203   -1.9795    0.8727 H   0  0  0  0  0  0  0  0  0  0  0  0
   -0.1251   -3.0332    1.8562 H   0  0  0  0  0  0  0  0  0  0  0  0
   -0.5558   -2.6667    0.1706 H   0  0  0  0  0  0  0  0  0  0  0  0
   -4.1771    0.7332    0.3999 C   0  0  0  0  0  0  0  0  0  0  0  0
   -3.5724   -0.2625    0.7758 O   0  0  0  0  0  0  0  0  0  0  0  0
   -4.9251    1.5940    1.4008 C   0  0  0  0  0  0  0  0  0  0  0  0
   -5.9913    1.6027    1.1622 H   0  0  0  0  0  0  0  0  0  0  0  0
   -4.7945    1.2012    2.4134 H   0  0  0  0  0  0  0  0  0  0  0  0
   -4.5453    2.6185    1.3745 H   0  0  0  0  0  0  0  0  0  0  0  0
   -4.1041    1.1125   -0.9238 N   0  0  0  0  0  0  0  0  0  0  0  0
   -3.2557    0.4394   -1.9179 C   0  0  2  0  0  0  0  0  0  0  0  0
   -1.8925    1.1394   -2.1045 C   0  0  0  0  0  0  0  0  0  0  0  0
   -1.8574    2.3413   -2.3215 O   0  0  0  0  0  0  0  0  0  0  0  0
   -4.0270    0.4101   -3.2398 C   0  0  0  0  0  0  0  0  0  0  0  0
   -4.4246    2.0530   -1.1450 H   0  0  0  0  0  0  0  0  0  0  0  0
   -3.0673   -0.5963   -1.6162 H   0  0  0  0  0  0  0  0  0  0  0  0
   -4.2306    1.4275   -3.5901 H   0  0  0  0  0  0  0  0  0  0  0  0
   -3.4457   -0.1101   -4.0075 H   0  0  0  0  0  0  0  0  0  0  0  0
   -4.9800   -0.1128   -3.1126 H   0  0  0  0  0  0  0  0  0  0  0  0
   -0.7506    0.3750   -2.2424 N   0  0  0  0  0  0  0  0  0  0  0  0
    0.6584    0.8116   -2.1694 C   0  0  2  0  0  0  0  0  0  0  0  0
    1.5603   -0.4170   -2.3963 C   0  0  0  0  0  0  0  0  0  0  0  0
    1.2382   -1.5056   -1.9296 O   0  0  0  0  0  0  0  0  0  0  0  0
    1.1138    1.4085   -0.8158 C   0  0  0  0  0  0  0  0  0  0  0  0
    0.3232    2.9902   -0.3145 S   0  0  0  0  0  0  0  0  0  0  0  0
   -0.8831   -0.6213   -2.0708 H   0  0  0  0  0  0  0  0  0  0  0  0
    0.8398    1.5460   -2.9608 H   0  0  0  0  0  0  0  0  0  0  0  0
    0.9158    0.6669   -0.0348 H   0  0  0  0  0  0  0  0  0  0  0  0
    2.1957    1.5734   -0.8377 H   0  0  0  0  0  0  0  0  0  0  0  0
    2.6506   -0.3398   -3.2409 N   0  0  0  0  0  0  0  0  0  0  0  0
    3.5852   -1.4416   -3.5049 C   0  0  2  0  0  0  0  0  0  0  0  0
    5.0050   -0.9177   -3.8085 C   0  0  0  0  0  0  0  0  0  0  0  0
    5.1862    0.2783   -4.0084 O   0  0  0  0  0  0  0  0  0  0  0  0
    3.0506   -2.2563   -4.6871 C   0  0  0  0  0  0  0  0  0  0  0  0
    2.9430    0.5870   -3.5529 H   0  0  0  0  0  0  0  0  0  0  0  0
    3.6566   -2.0860   -2.6224 H   0  0  0  0  0  0  0  0  0  0  0  0
    2.9834   -1.6309   -5.5832 H   0  0  0  0  0  0  0  0  0  0  0  0
    3.7097   -3.1028   -4.9021 H   0  0  0  0  0  0  0  0  0  0  0  0
    2.0539   -2.6465   -4.4590 H   0  0  0  0  0  0  0  0  0  0  0  0
    6.0825   -1.7837   -3.8498 N   0  0  0  0  0  0  0  0  0  0  0  0
    7.4498   -1.3461   -4.1068 C   0  0  0  0  0  0  0  0  0  0  0  0
    5.9093   -2.7646   -3.6502 H   0  0  0  0  0  0  0  0  0  0  0  0
    7.5152   -0.8373   -5.0744 H   0  0  0  0  0  0  0  0  0  0  0  0
    7.7844   -0.6576   -3.3238 H   0  0  0  0  0  0  0  0  0  0  0  0
    8.1266   -2.2059   -4.1238 H   0  0  0  0  0  0  0  0  0  0  0  0
  1  2  2  0  0  0  0
  1  3  1  0  0  0  0
  1  7  1  0  0  0  0
  3  4  1  0  0  0  0
  3  5  1  0  0  0  0
  3  6  1  0  0  0  0
  7  8  1  0  0  0  0
  7 13  1  0  0  0  0
  8  9  1  0  0  0  0
  8 11  1  0  0  0  0
  8 14  1  0  0  0  0
  9 10  2  0  0  0  0
  9 17  1  0  0  0  0
 11 12  1  0  0  0  0
 11 15  1  0  0  0  0
 11 16  1  0  0  0  0
 12 44  1  0  0  0  0
 17 18  1  0  0  0  0
 17 19  1  0  0  0  0
 18 20  1  0  0  0  0
 18 21  1  0  0  0  0
 18 22  1  0  0  0  0
 23 24  2  0  0  0  0
 23 25  1  0  0  0  0
 23 29  1  0  0  0  0
 25 26  1  0  0  0  0
 25 27  1  0  0  0  0
 25 28  1  0  0  0  0
 29 30  1  0  0  0  0
 29 34  1  0  0  0  0
 30 31  1  0  0  0  0
 30 33  1  0  0  0  0
 30 35  1  0  0  0  0
 31 32  2  0  0  0  0
 31 39  1  0  0  0  0
 33 36  1  0  0  0  0
 33 37  1  0  0  0  0
 33 38  1  0  0  0  0
 39 40  1  0  0  0  0
 39 45  1  0  0  0  0
 40 41  1  0  0  0  0
 40 43  1  0  0  0  0
 40 46  1  0  0  0  0
 41 42  2  0  0  0  0
 41 49  1  0  0  0  0
 43 44  1  0  0  0  0
 43 47  1  0  0  0  0
 43 48  1  0  0  0  0
 49 50  1  0  0  0  0
 49 54  1  0  0  0  0
 50 51  1  0  0  0  0
 50 53  1  0  0  0  0
 50 55  1  0  0  0  0
 51 52  2  0  0  0  0
 51 59  1  0  0  0  0
 53 56  1  0  0  0  0
 53 57  1  0  0  0  0
 53 58  1  0  0  0  0
 59 60  1  0  0  0  0
 59 61  1  0  0  0  0
 60 62  1  0  0  0  0
 60 63  1  0  0  0  0
 60 64  1  0  0  0  0
M  END
$$$$

  -OEChem-05262216053D

 64 63  0     1  0  0  0  0  0999 V2000
   -1.6409    2.1627    5.1068 C   0  0  0  0  0  0  0  0  0  0  0  0
   -2.8031    2.4163    4.8255 O   0  0  0  0  0  0  0  0  0  0  0  0
   -1.0516    2.6406    6.4202 C   0  0  0  0  0  0  0  0  0  0  0  0
   -0.1795    3.2709    6.2299 H   0  0  0  0  0  0  0  0  0  0  0  0
   -1.7922    3.2224    6.9760 H   0  0  0  0  0  0  0  0  0  0  0  0
   -0.7482    1.7838    7.0268 H   0  0  0  0  0  0  0  0  0  0  0  0
   -0.8671    1.4328    4.2318 N   0  0  0  0  0  0  0  0  0  0  0  0
   -1.3381    0.9191    2.9397 C   0  0  2  0  0  0  0  0  0  0  0  0
   -0.5098   -0.2793    2.4337 C   0  0  0  0  0  0  0  0  0  0  0  0
    0.5738   -0.5484    2.9435 O   0  0  0  0  0  0  0  0  0  0  0  0
   -1.3172    2.0494    1.9018 C   0  0  0  0  0  0  0  0  0  0  0  0
    0.3594    2.7715    1.6878 S   0  0  0  0  0  0  0  0  0  0  0  0
    0.0954    1.2248    4.4933 H   0  0  0  0  0  0  0  0  0  0  0  0
   -2.3662    0.5614    3.0561 H   0  0  0  0  0  0  0  0  0  0  0  0
   -1.6595    1.6627    0.9392 H   0  0  0  0  0  0  0  0  0  0  0  0
   -2.0089    2.8414    2.2042 H   0  0  0  0  0  0  0  0  0  0  0  0
   -0.9941   -1.0680    1.4068 N   0  0  0  0  0  0  0  0  0  0  0  0
   -0.3227   -2.2715    0.9328 C   0  0  0  0  0  0  0  0  0  0  0  0
   -1.9636   -0.8995    1.1231 H   0  0  0  0  0  0  0  0  0  0  0  0
    0.7311   -2.0677    0.7154 H   0  0  0  0  0  0  0  0  0  0  0  0
   -0.3793   -3.0624    1.6875 H   0  0  0  0  0  0  0  0  0  0  0  0
   -0.7964   -2.6306    0.0141 H   0  0  0  0  0  0  0  0  0  0  0  0
   -4.2405    0.8585    0.4023 C   0  0  0  0  0  0  0  0  0  0  0  0
   -3.6915   -0.1458    0.8357 O   0  0  0  0  0  0  0  0  0  0  0  0
   -4.9520    1.8066    1.3493 C   0  0  0  0  0  0  0  0  0  0  0  0
   -6.0202    1.8310    1.1210 H   0  0  0  0  0  0  0  0  0  0  0  0
   -4.8203    1.4796    2.3851 H   0  0  0  0  0  0  0  0  0  0  0  0
   -4.5432    2.8152    1.2486 H   0  0  0  0  0  0  0  0  0  0  0  0
   -4.1343    1.1671   -0.9377 N   0  0  0  0  0  0  0  0  0  0  0  0
   -3.2960    0.4153   -1.8831 C   0  0  2  0  0  0  0  0  0  0  0  0
   -1.9199    1.0771   -2.1091 C   0  0  0  0  0  0  0  0  0  0  0  0
   -1.8611    2.2698   -2.3683 O   0  0  0  0  0  0  0  0  0  0  0  0
   -4.0633    0.3126   -3.2029 C   0  0  0  0  0  0  0  0  0  0  0  0
   -4.4136    2.1073   -1.2104 H   0  0  0  0  0  0  0  0  0  0  0  0
   -3.1265   -0.6016   -1.5148 H   0  0  0  0  0  0  0  0  0  0  0  0
   -4.2472    1.3083   -3.6197 H   0  0  0  0  0  0  0  0  0  0  0  0
   -3.4893   -0.2681   -3.9317 H   0  0  0  0  0  0  0  0  0  0  0  0
   -5.0258   -0.1837   -3.0452 H   0  0  0  0  0  0  0  0  0  0  0  0
   -0.7955    0.2837   -2.2236 N   0  0  0  0  0  0  0  0  0  0  0  0
    0.6248    0.6859   -2.1777 C   0  0  2  0  0  0  0  0  0  0  0  0
    1.4989   -0.5721   -2.3614 C   0  0  0  0  0  0  0  0  0  0  0  0
    1.0622   -1.6750   -2.0431 O   0  0  0  0  0  0  0  0  0  0  0  0
    1.0950    1.3129   -0.8426 C   0  0  0  0  0  0  0  0  0  0  0  0
    0.3397    2.9258   -0.3900 S   0  0  0  0  0  0  0  0  0  0  0  0
   -0.9486   -0.7090   -2.0465 H   0  0  0  0  0  0  0  0  0  0  0  0
    0.8222    1.3871   -2.9948 H   0  0  0  0  0  0  0  0  0  0  0  0
    0.8813    0.5994   -0.0404 H   0  0  0  0  0  0  0  0  0  0  0  0
    2.1802    1.4550   -0.8667 H   0  0  0  0  0  0  0  0  0  0  0  0
    2.7424   -0.4866   -2.9575 N   0  0  0  0  0  0  0  0  0  0  0  0
    3.6789   -1.6096   -3.0983 C   0  0  2  0  0  0  0  0  0  0  0  0
    5.1440   -1.1241   -3.0835 C   0  0  0  0  0  0  0  0  0  0  0  0
    5.3934    0.0729   -3.1742 O   0  0  0  0  0  0  0  0  0  0  0  0
    3.3677   -2.3432   -4.4074 C   0  0  0  0  0  0  0  0  0  0  0  0
    3.1234    0.4449   -3.1298 H   0  0  0  0  0  0  0  0  0  0  0  0
    3.5560   -2.3009   -2.2576 H   0  0  0  0  0  0  0  0  0  0  0  0
    3.4937   -1.6706   -5.2620 H   0  0  0  0  0  0  0  0  0  0  0  0
    4.0363   -3.1996   -4.5370 H   0  0  0  0  0  0  0  0  0  0  0  0
    2.3364   -2.7106   -4.4027 H   0  0  0  0  0  0  0  0  0  0  0  0
    6.1835   -2.0268   -2.9554 N   0  0  0  0  0  0  0  0  0  0  0  0
    7.5863   -1.6305   -2.9147 C   0  0  0  0  0  0  0  0  0  0  0  0
    5.9468   -3.0103   -2.8620 H   0  0  0  0  0  0  0  0  0  0  0  0
    7.8634   -1.1033   -3.8338 H   0  0  0  0  0  0  0  0  0  0  0  0
    7.7747   -0.9713   -2.0606 H   0  0  0  0  0  0  0  0  0  0  0  0
    8.2259   -2.5131   -2.8174 H   0  0  0  0  0  0  0  0  0  0  0  0
  1  2  2  0  0  0  0
  1  3  1  0  0  0  0
  1  7  1  0  0  0  0
  3  4  1  0  0  0  0
  3  5  1  0  0  0  0
  3  6  1  0  0  0  0
  7  8  1  0  0  0  0
  7 13  1  0  0  0  0
  8  9  1  0  0  0  0
  8 11  1  0  0  0  0
  8 14  1  0  0  0  0
  9 10  2  0  0  0  0
  9 17  1  0  0  0  0
 11 12  1  0  0  0  0
 11 15  1  0  0  0  0
 11 16  1  0  0  0  0
 12 44  1  0  0  0  0
 17 18  1  0  0  0  0
 17 19  1  0  0  0  0
 18 20  1  0  0  0  0
 18 21  1  0  0  0  0
 18 22  1  0  0  0  0
 23 24  2  0  0  0  0
 23 25  1  0  0  0  0
 23 29  1  0  0  0  0
 25 26  1  0  0  0  0
 25 27  1  0  0  0  0
 25 28  1  0  0  0  0
 29 30  1  0  0  0  0
 29 34  1  0  0  0  0
 30 31  1  0  0  0  0
 30 33  1  0  0  0  0
 30 35  1  0  0  0  0
 31 32  2  0  0  0  0
 31 39  1  0  0  0  0
 33 36  1  0  0  0  0
 33 37  1  0  0  0  0
 33 38  1  0  0  0  0
 39 40  1  0  0  0  0
 39 45  1  0  0  0  0
 40 41  1  0  0  0  0
 40 43  1  0  0  0  0
 40 46  1  0  0  0  0
 41 42  2  0  0  0  0
 41 49  1  0  0  0  0
 43 44  1  0  0  0  0
 43 47  1  0  0  0  0
 43 48  1  0  0  0  0
 49 50  1  0  0  0  0
 49 54  1  0  0  0  0
 50 51  1  0  0  0  0
 50 53  1  0  0  0  0
 50 55  1  0  0  0  0
 51 52  2  0  0  0  0
 51 59  1  0  0  0  0
 53 56  1  0  0  0  0
 53 57  1  0  0  0  0
 53 58  1  0  0  0  0
 59 60  1  0  0  0  0
 59 61  1  0  0  0  0
 60 62  1  0  0  0  0
 60 63  1  0  0  0  0
 60 64  1  0  0  0  0
M  END
$$$$

  -OEChem-05262216053D

 64 63  0     1  0  0  0  0  0999 V2000
   -1.4062    2.0498    5.1405 C   0  0  0  0  0  0  0  0  0  0  0  0
   -2.5655    2.3860    4.9497 O   0  0  0  0  0  0  0  0  0  0  0  0
   -0.6995    2.4411    6.4243 C   0  0  0  0  0  0  0  0  0  0  0  0
    0.2037    3.0112    6.1935 H   0  0  0  0  0  0  0  0  0  0  0  0
   -1.3571    3.0573    7.0437 H   0  0  0  0  0  0  0  0  0  0  0  0
   -0.4235    1.5454    6.9859 H   0  0  0  0  0  0  0  0  0  0  0  0
   -0.7404    1.3090    4.1891 N   0  0  0  0  0  0  0  0  0  0  0  0
   -1.3234    0.8806    2.9109 C   0  0  2  0  0  0  0  0  0  0  0  0
   -0.5943   -0.3361    2.3044 C   0  0  0  0  0  0  0  0  0  0  0  0
    0.5098   -0.6732    2.7217 O   0  0  0  0  0  0  0  0  0  0  0  0
   -1.3083    2.0523    1.9194 C   0  0  0  0  0  0  0  0  0  0  0  0
    0.3822    2.7247    1.6522 S   0  0  0  0  0  0  0  0  0  0  0  0
    0.2242    1.0383    4.3744 H   0  0  0  0  0  0  0  0  0  0  0  0
   -2.3608    0.5732    3.0796 H   0  0  0  0  0  0  0  0  0  0  0  0
   -1.7120    1.7197    0.9607 H   0  0  0  0  0  0  0  0  0  0  0  0
   -1.9548    2.8540    2.2886 H   0  0  0  0  0  0  0  0  0  0  0  0
   -1.1870   -1.0634    1.2888 N   0  0  0  0  0  0  0  0  0  0  0  0
   -0.6203   -2.2911    0.7453 C   0  0  0  0  0  0  0  0  0  0  0  0
   -2.1653   -0.8394    1.0836 H   0  0  0  0  0  0  0  0  0  0  0  0
    0.4421   -2.1599    0.5146 H   0  0  0  0  0  0  0  0  0  0  0  0
   -0.7246   -3.1100    1.4642 H   0  0  0  0  0  0  0  0  0  0  0  0
   -1.1373   -2.5683   -0.1781 H   0  0  0  0  0  0  0  0  0  0  0  0
   -4.3207    1.0116    0.3700 C   0  0  0  0  0  0  0  0  0  0  0  0
   -3.8448    0.0054    0.8780 O   0  0  0  0  0  0  0  0  0  0  0  0
   -4.9746    2.0659    1.2429 C   0  0  0  0  0  0  0  0  0  0  0  0
   -6.0359    2.1500    0.9966 H   0  0  0  0  0  0  0  0  0  0  0  0
   -4.8775    1.7963    2.2988 H   0  0  0  0  0  0  0  0  0  0  0  0
   -4.4936    3.0345    1.0852 H   0  0  0  0  0  0  0  0  0  0  0  0
   -4.1762    1.2250   -0.9847 N   0  0  0  0  0  0  0  0  0  0  0  0
   -3.3416    0.3851   -1.8570 C   0  0  2  0  0  0  0  0  0  0  0  0
   -1.9534    1.0099   -2.1128 C   0  0  0  0  0  0  0  0  0  0  0  0
   -1.8714    2.1973   -2.3909 O   0  0  0  0  0  0  0  0  0  0  0  0
   -4.0966    0.1968   -3.1744 C   0  0  0  0  0  0  0  0  0  0  0  0
   -4.3837    2.1653   -1.3158 H   0  0  0  0  0  0  0  0  0  0  0  0
   -3.1915   -0.6030   -1.4101 H   0  0  0  0  0  0  0  0  0  0  0  0
   -4.2636    1.1626   -3.6624 H   0  0  0  0  0  0  0  0  0  0  0  0
   -3.5234   -0.4407   -3.8546 H   0  0  0  0  0  0  0  0  0  0  0  0
   -5.0672   -0.2750   -2.9921 H   0  0  0  0  0  0  0  0  0  0  0  0
   -0.8457    0.1913   -2.2117 N   0  0  0  0  0  0  0  0  0  0  0  0
    0.5849    0.5609   -2.1841 C   0  0  2  0  0  0  0  0  0  0  0  0
    1.4314   -0.7228   -2.3390 C   0  0  0  0  0  0  0  0  0  0  0  0
    0.9108   -1.8255   -2.1880 O   0  0  0  0  0  0  0  0  0  0  0  0
    1.0642    1.2013   -0.8566 C   0  0  0  0  0  0  0  0  0  0  0  0
    0.3414    2.8352   -0.4284 S   0  0  0  0  0  0  0  0  0  0  0  0
   -1.0204   -0.8000   -2.0469 H   0  0  0  0  0  0  0  0  0  0  0  0
    0.7994    1.2390   -3.0163 H   0  0  0  0  0  0  0  0  0  0  0  0
    0.8379    0.5048   -0.0440 H   0  0  0  0  0  0  0  0  0  0  0  0
    2.1514    1.3254   -0.8785 H   0  0  0  0  0  0  0  0  0  0  0  0
    2.7757   -0.6542   -2.6540 N   0  0  0  0  0  0  0  0  0  0  0  0
    3.6908   -1.8031   -2.6696 C   0  0  2  0  0  0  0  0  0  0  0  0
    5.1388   -1.3671   -2.3608 C   0  0  0  0  0  0  0  0  0  0  0  0
    5.4260   -0.1752   -2.3332 O   0  0  0  0  0  0  0  0  0  0  0  0
    3.6135   -2.4748   -4.0447 C   0  0  0  0  0  0  0  0  0  0  0  0
    3.2115    0.2690   -2.6764 H   0  0  0  0  0  0  0  0  0  0  0  0
    3.3940   -2.5206   -1.8970 H   0  0  0  0  0  0  0  0  0  0  0  0
    3.9264   -1.7776   -4.8284 H   0  0  0  0  0  0  0  0  0  0  0  0
    4.2630   -3.3544   -4.0813 H   0  0  0  0  0  0  0  0  0  0  0  0
    2.5886   -2.7965   -4.2538 H   0  0  0  0  0  0  0  0  0  0  0  0
    6.1187   -2.3082   -2.1044 N   0  0  0  0  0  0  0  0  0  0  0  0
    7.5001   -1.9585   -1.7970 C   0  0  0  0  0  0  0  0  0  0  0  0
    5.8504   -3.2879   -2.1181 H   0  0  0  0  0  0  0  0  0  0  0  0
    7.9510   -1.4105   -2.6312 H   0  0  0  0  0  0  0  0  0  0  0  0
    7.5459   -1.3340   -0.8985 H   0  0  0  0  0  0  0  0  0  0  0  0
    8.0889   -2.8634   -1.6191 H   0  0  0  0  0  0  0  0  0  0  0  0
  1  2  2  0  0  0  0
  1  3  1  0  0  0  0
  1  7  1  0  0  0  0
  3  4  1  0  0  0  0
  3  5  1  0  0  0  0
  3  6  1  0  0  0  0
  7  8  1  0  0  0  0
  7 13  1  0  0  0  0
  8  9  1  0  0  0  0
  8 11  1  0  0  0  0
  8 14  1  0  0  0  0
  9 10  2  0  0  0  0
  9 17  1  0  0  0  0
 11 12  1  0  0  0  0
 11 15  1  0  0  0  0
 11 16  1  0  0  0  0
 12 44  1  0  0  0  0
 17 18  1  0  0  0  0
 17 19  1  0  0  0  0
 18 20  1  0  0  0  0
 18 21  1  0  0  0  0
 18 22  1  0  0  0  0
 23 24  2  0  0  0  0
 23 25  1  0  0  0  0
 23 29  1  0  0  0  0
 25 26  1  0  0  0  0
 25 27  1  0  0  0  0
 25 28  1  0  0  0  0
 29 30  1  0  0  0  0
 29 34  1  0  0  0  0
 30 31  1  0  0  0  0
 30 33  1  0  0  0  0
 30 35  1  0  0  0  0
 31 32  2  0  0  0  0
 31 39  1  0  0  0  0
 33 36  1  0  0  0  0
 33 37  1  0  0  0  0
 33 38  1  0  0  0  0
 39 40  1  0  0  0  0
 39 45  1  0  0  0  0
 40 41  1  0  0  0  0
 40 43  1  0  0  0  0
 40 46  1  0  0  0  0
 41 42  2  0  0  0  0
 41 49  1  0  0  0  0
 43 44  1  0  0  0  0
 43 47  1  0  0  0  0
 43 48  1  0  0  0  0
 49 50  1  0  0  0  0
 49 54  1  0  0  0  0
 50 51  1  0  0  0  0
 50 53  1  0  0  0  0
 50 55  1  0  0  0  0
 51 52  2  0  0  0  0
 51 59  1  0  0  0  0
 53 56  1  0  0  0  0
 53 57  1  0  0  0  0
 53 58  1  0  0  0  0
 59 60  1  0  0  0  0
 59 61  1  0  0  0  0
 60 62  1  0  0  0  0
 60 63  1  0  0  0  0
 60 64  1  0  0  0  0
M  END
$$$$

  -OEChem-05262216053D

 64 63  0     1  0  0  0  0  0999 V2000
   -1.5664    0.1542    5.0738 C   0  0  0  0  0  0  0  0  0  0  0  0
   -2.7269    0.4713    4.8566 O   0  0  0  0  0  0  0  0  0  0  0  0
   -0.9804    0.3132    6.4637 C   0  0  0  0  0  0  0  0  0  0  0  0
   -0.1415    1.0129    6.4361 H   0  0  0  0  0  0  0  0  0  0  0  0
   -1.7387    0.7000    7.1503 H   0  0  0  0  0  0  0  0  0  0  0  0
   -0.6294   -0.6532    6.8337 H   0  0  0  0  0  0  0  0  0  0  0  0
   -0.7903   -0.3442    4.0502 N   0  0  0  0  0  0  0  0  0  0  0  0
   -1.2495   -0.4891    2.6630 C   0  0  2  0  0  0  0  0  0  0  0  0
   -0.4263   -1.5149    1.8571 C   0  0  0  0  0  0  0  0  0  0  0  0
    0.6587   -1.9099    2.2726 O   0  0  0  0  0  0  0  0  0  0  0  0
   -1.2128    0.8810    1.9711 C   0  0  0  0  0  0  0  0  0  0  0  0
    0.4649    1.6321    1.9872 S   0  0  0  0  0  0  0  0  0  0  0  0
    0.1770   -0.5937    4.2512 H   0  0  0  0  0  0  0  0  0  0  0  0
   -2.2805   -0.8566    2.6698 H   0  0  0  0  0  0  0  0  0  0  0  0
   -1.5393    0.7716    0.9346 H   0  0  0  0  0  0  0  0  0  0  0  0
   -1.9097    1.5630    2.4670 H   0  0  0  0  0  0  0  0  0  0  0  0
   -0.9119   -2.0039    0.6582 N   0  0  0  0  0  0  0  0  0  0  0  0
   -0.2365   -3.0325   -0.1227 C   0  0  0  0  0  0  0  0  0  0  0  0
   -1.8756   -1.7523    0.4184 H   0  0  0  0  0  0  0  0  0  0  0  0
    0.7942   -2.7350   -0.3428 H   0  0  0  0  0  0  0  0  0  0  0  0
   -0.2197   -3.9794    0.4262 H   0  0  0  0  0  0  0  0  0  0  0  0
   -0.7575   -3.1902   -1.0719 H   0  0  0  0  0  0  0  0  0  0  0  0
   -4.1440    0.1768    0.2513 C   0  0  0  0  0  0  0  0  0  0  0  0
   -3.5825   -0.9093    0.3105 O   0  0  0  0  0  0  0  0  0  0  0  0
   -4.8234    0.7532    1.4795 C   0  0  0  0  0  0  0  0  0  0  0  0
   -5.8974    0.8453    1.3027 H   0  0  0  0  0  0  0  0  0  0  0  0
   -4.6641    0.1017    2.3437 H   0  0  0  0  0  0  0  0  0  0  0  0
   -4.4140    1.7404    1.7081 H   0  0  0  0  0  0  0  0  0  0  0  0
   -4.0807    0.9089   -0.9154 N   0  0  0  0  0  0  0  0  0  0  0  0
   -3.3122    0.4921   -2.0970 C   0  0  2  0  0  0  0  0  0  0  0  0
   -1.8745    1.0572   -2.0980 C   0  0  0  0  0  0  0  0  0  0  0  0
   -1.6973    2.2652   -2.1593 O   0  0  0  0  0  0  0  0  0  0  0  0
   -4.0836    0.9537   -3.3371 C   0  0  0  0  0  0  0  0  0  0  0  0
   -4.3805    1.8800   -0.8657 H   0  0  0  0  0  0  0  0  0  0  0  0
   -3.2465   -0.6002   -2.1371 H   0  0  0  0  0  0  0  0  0  0  0  0
   -4.1824    2.0441   -3.3475 H   0  0  0  0  0  0  0  0  0  0  0  0
   -3.5593    0.6461   -4.2473 H   0  0  0  0  0  0  0  0  0  0  0  0
   -5.0850    0.5127   -3.3479 H   0  0  0  0  0  0  0  0  0  0  0  0
   -0.8013    0.1957   -2.2178 N   0  0  0  0  0  0  0  0  0  0  0  0
    0.6353    0.5344   -2.2265 C   0  0  2  0  0  0  0  0  0  0  0  0
    1.4406   -0.6743   -2.7604 C   0  0  0  0  0  0  0  0  0  0  0  0
    0.8693   -1.7292   -3.0260 O   0  0  0  0  0  0  0  0  0  0  0  0
    1.1838    0.8288   -0.8084 C   0  0  0  0  0  0  0  0  0  0  0  0
    0.4890    2.3156    0.0179 S   0  0  0  0  0  0  0  0  0  0  0  0
   -1.0181   -0.7994   -2.2608 H   0  0  0  0  0  0  0  0  0  0  0  0
    0.8113    1.3965   -2.8780 H   0  0  0  0  0  0  0  0  0  0  0  0
    0.9890   -0.0432   -0.1778 H   0  0  0  0  0  0  0  0  0  0  0  0
    2.2693    0.9625   -0.8452 H   0  0  0  0  0  0  0  0  0  0  0  0
    2.8172   -0.6185   -2.8725 N   0  0  0  0  0  0  0  0  0  0  0  0
    3.6853   -1.7811   -3.0980 C   0  0  2  0  0  0  0  0  0  0  0  0
    4.9939   -1.6530   -2.2911 C   0  0  0  0  0  0  0  0  0  0  0  0
    5.3269   -0.5622   -1.8404 O   0  0  0  0  0  0  0  0  0  0  0  0
    3.9803   -1.8794   -4.5969 C   0  0  0  0  0  0  0  0  0  0  0  0
    3.2800    0.2199   -2.5191 H   0  0  0  0  0  0  0  0  0  0  0  0
    3.1841   -2.6966   -2.7663 H   0  0  0  0  0  0  0  0  0  0  0  0
    4.4820   -0.9720   -4.9487 H   0  0  0  0  0  0  0  0  0  0  0  0
    4.6258   -2.7378   -4.8065 H   0  0  0  0  0  0  0  0  0  0  0  0
    3.0485   -2.0025   -5.1579 H   0  0  0  0  0  0  0  0  0  0  0  0
    5.7881   -2.7594   -2.0544 N   0  0  0  0  0  0  0  0  0  0  0  0
    7.0062   -2.7081   -1.2545 C   0  0  0  0  0  0  0  0  0  0  0  0
    5.4649   -3.6572   -2.4029 H   0  0  0  0  0  0  0  0  0  0  0  0
    7.7250   -2.0097   -1.6961 H   0  0  0  0  0  0  0  0  0  0  0  0
    6.7803   -2.3827   -0.2335 H   0  0  0  0  0  0  0  0  0  0  0  0
    7.4713   -3.6973   -1.2066 H   0  0  0  0  0  0  0  0  0  0  0  0
  1  2  2  0  0  0  0
  1  3  1  0  0  0  0
  1  7  1  0  0  0  0
  3  4  1  0  0  0  0
  3  5  1  0  0  0  0
  3  6  1  0  0  0  0
  7  8  1  0  0  0  0
  7 13  1  0  0  0  0
  8  9  1  0  0  0  0
  8 11  1  0  0  0  0
  8 14  1  0  0  0  0
  9 10  2  0  0  0  0
  9 17  1  0  0  0  0
 11 12  1  0  0  0  0
 11 15  1  0  0  0  0
 11 16  1  0  0  0  0
 12 44  1  0  0  0  0
 17 18  1  0  0  0  0
 17 19  1  0  0  0  0
 18 20  1  0  0  0  0
 18 21  1  0  0  0  0
 18 22  1  0  0  0  0
 23 24  2  0  0  0  0
 23 25  1  0  0  0  0
 23 29  1  0  0  0  0
 25 26  1  0  0  0  0
 25 27  1  0  0  0  0
 25 28  1  0  0  0  0
 29 30  1  0  0  0  0
 29 34  1  0  0  0  0
 30 31  1  0  0  0  0
 30 33  1  0  0  0  0
 30 35  1  0  0  0  0
 31 32  2  0  0  0  0
 31 39  1  0  0  0  0
 33 36  1  0  0  0  0
 33 37  1  0  0  0  0
 33 38  1  0  0  0  0
 39 40  1  0  0  0  0
 39 45  1  0  0  0  0
 40 41  1  0  0  0  0
 40 43  1  0  0  0  0
 40 46  1  0  0  0  0
 41 42  2  0  0  0  0
 41 49  1  0  0  0  0
 43 44  1  0  0  0  0
 43 47  1  0  0  0  0
 43 48  1  0  0  0  0
 49 50  1  0  0  0  0
 49 54  1  0  0  0  0
 50 51  1  0  0  0  0
 50 53  1  0  0  0  0
 50 55  1  0  0  0  0
 51 52  2  0  0  0  0
 51 59  1  0  0  0  0
 53 56  1  0  0  0  0
 53 57  1  0  0  0  0
 53 58  1  0  0  0  0
 59 60  1  0  0  0  0
 59 61  1  0  0  0  0
 60 62  1  0  0  0  0
 60 63  1  0  0  0  0
 60 64  1  0  0  0  0
M  END
$$$$

  -OEChem-05262216053D

 64 63  0     1  0  0  0  0  0999 V2000
   -1.0012   -0.2906    4.9697 C   0  0  0  0  0  0  0  0  0  0  0  0
   -2.1877    0.0007    4.9433 O   0  0  0  0  0  0  0  0  0  0  0  0
   -0.2303   -0.2387    6.2748 C   0  0  0  0  0  0  0  0  0  0  0  0
    0.6063    0.4585    6.1853 H   0  0  0  0  0  0  0  0  0  0  0  0
   -0.8830    0.0962    7.0855 H   0  0  0  0  0  0  0  0  0  0  0  0
    0.1559   -1.2310    6.5195 H   0  0  0  0  0  0  0  0  0  0  0  0
   -0.3597   -0.6685    3.8111 N   0  0  0  0  0  0  0  0  0  0  0  0
   -0.9891   -0.7154    2.4848 C   0  0  2  0  0  0  0  0  0  0  0  0
   -0.2152   -1.6157    1.4986 C   0  0  0  0  0  0  0  0  0  0  0  0
    0.8962   -2.0465    1.7889 O   0  0  0  0  0  0  0  0  0  0  0  0
   -1.1145    0.7098    1.9252 C   0  0  0  0  0  0  0  0  0  0  0  0
    0.4980    1.5925    1.8722 S   0  0  0  0  0  0  0  0  0  0  0  0
    0.6299   -0.9064    3.8633 H   0  0  0  0  0  0  0  0  0  0  0  0
   -1.9918   -1.1447    2.5813 H   0  0  0  0  0  0  0  0  0  0  0  0
   -1.5290    0.6693    0.9155 H   0  0  0  0  0  0  0  0  0  0  0  0
   -1.8104    1.2856    2.5430 H   0  0  0  0  0  0  0  0  0  0  0  0
   -0.7816   -1.9791    0.2905 N   0  0  0  0  0  0  0  0  0  0  0  0
   -0.1561   -2.9122   -0.6379 C   0  0  0  0  0  0  0  0  0  0  0  0
   -1.7725   -1.7495    0.1705 H   0  0  0  0  0  0  0  0  0  0  0  0
    0.8605   -2.5876   -0.8833 H   0  0  0  0  0  0  0  0  0  0  0  0
   -0.1092   -3.9139   -0.1986 H   0  0  0  0  0  0  0  0  0  0  0  0
   -0.7318   -2.9657   -1.5668 H   0  0  0  0  0  0  0  0  0  0  0  0
   -4.1099    0.0338    0.1160 C   0  0  0  0  0  0  0  0  0  0  0  0
   -3.5147   -1.0235    0.2757 O   0  0  0  0  0  0  0  0  0  0  0  0
   -4.8255    0.6874    1.2827 C   0  0  0  0  0  0  0  0  0  0  0  0
   -5.8902    0.7877    1.0589 H   0  0  0  0  0  0  0  0  0  0  0  0
   -4.7106    0.0809    2.1861 H   0  0  0  0  0  0  0  0  0  0  0  0
   -4.4051    1.6784    1.4718 H   0  0  0  0  0  0  0  0  0  0  0  0
   -4.0503    0.6698   -1.1062 N   0  0  0  0  0  0  0  0  0  0  0  0
   -3.1886    0.2227   -2.2098 C   0  0  2  0  0  0  0  0  0  0  0  0
   -1.8327    0.9596   -2.2237 C   0  0  0  0  0  0  0  0  0  0  0  0
   -1.8094    2.1822   -2.2354 O   0  0  0  0  0  0  0  0  0  0  0  0
   -3.9457    0.4587   -3.5186 C   0  0  0  0  0  0  0  0  0  0  0  0
   -4.3727    1.6351   -1.1310 H   0  0  0  0  0  0  0  0  0  0  0  0
   -2.9920   -0.8513   -2.1286 H   0  0  0  0  0  0  0  0  0  0  0  0
   -4.1617    1.5236   -3.6528 H   0  0  0  0  0  0  0  0  0  0  0  0
   -3.3483    0.1167   -4.3693 H   0  0  0  0  0  0  0  0  0  0  0  0
   -4.8914   -0.0920   -3.5149 H   0  0  0  0  0  0  0  0  0  0  0  0
   -0.6683    0.2391   -2.3999 N   0  0  0  0  0  0  0  0  0  0  0  0
    0.7189    0.7422   -2.4120 C   0  0  2  0  0  0  0  0  0  0  0  0
    1.6401   -0.3487   -3.0186 C   0  0  0  0  0  0  0  0  0  0  0  0
    1.1430   -1.3857   -3.4535 O   0  0  0  0  0  0  0  0  0  0  0  0
    1.2316    1.0160   -0.9731 C   0  0  0  0  0  0  0  0  0  0  0  0
    0.3699    2.3584   -0.0629 S   0  0  0  0  0  0  0  0  0  0  0  0
   -0.7696   -0.7684   -2.5150 H   0  0  0  0  0  0  0  0  0  0  0  0
    0.7889    1.6527   -3.0165 H   0  0  0  0  0  0  0  0  0  0  0  0
    1.1459    0.0902   -0.3955 H   0  0  0  0  0  0  0  0  0  0  0  0
    2.2911    1.2846   -0.9915 H   0  0  0  0  0  0  0  0  0  0  0  0
    3.0172   -0.2900   -2.8851 N   0  0  0  0  0  0  0  0  0  0  0  0
    3.8666   -1.4881   -2.8901 C   0  0  2  0  0  0  0  0  0  0  0  0
    4.0545   -1.9991   -1.4484 C   0  0  0  0  0  0  0  0  0  0  0  0
    4.3387   -1.1981   -0.5659 O   0  0  0  0  0  0  0  0  0  0  0  0
    5.2124   -1.1166   -3.5164 C   0  0  0  0  0  0  0  0  0  0  0  0
    3.3679    0.4894   -2.3320 H   0  0  0  0  0  0  0  0  0  0  0  0
    3.4202   -2.2862   -3.4919 H   0  0  0  0  0  0  0  0  0  0  0  0
    5.7023   -0.3271   -2.9369 H   0  0  0  0  0  0  0  0  0  0  0  0
    5.8737   -1.9882   -3.5423 H   0  0  0  0  0  0  0  0  0  0  0  0
    5.0683   -0.7596   -4.5408 H   0  0  0  0  0  0  0  0  0  0  0  0
    3.8579   -3.3309   -1.1367 N   0  0  0  0  0  0  0  0  0  0  0  0
    3.8340   -3.8177    0.2378 C   0  0  0  0  0  0  0  0  0  0  0  0
    3.5011   -3.9333   -1.8725 H   0  0  0  0  0  0  0  0  0  0  0  0
    4.7841   -3.6033    0.7380 H   0  0  0  0  0  0  0  0  0  0  0  0
    3.0259   -3.3390    0.8000 H   0  0  0  0  0  0  0  0  0  0  0  0
    3.6726   -4.8996    0.2538 H   0  0  0  0  0  0  0  0  0  0  0  0
  1  2  2  0  0  0  0
  1  3  1  0  0  0  0
  1  7  1  0  0  0  0
  3  4  1  0  0  0  0
  3  5  1  0  0  0  0
  3  6  1  0  0  0  0
  7  8  1  0  0  0  0
  7 13  1  0  0  0  0
  8  9  1  0  0  0  0
  8 11  1  0  0  0  0
  8 14  1  0  0  0  0
  9 10  2  0  0  0  0
  9 17  1  0  0  0  0
 11 12  1  0  0  0  0
 11 15  1  0  0  0  0
 11 16  1  0  0  0  0
 12 44  1  0  0  0  0
 17 18  1  0  0  0  0
 17 19  1  0  0  0  0
 18 20  1  0  0  0  0
 18 21  1  0  0  0  0
 18 22  1  0  0  0  0
 23 24  2  0  0  0  0
 23 25  1  0  0  0  0
 23 29  1  0  0  0  0
 25 26  1  0  0  0  0
 25 27  1  0  0  0  0
 25 28  1  0  0  0  0
 29 30  1  0  0  0  0
 29 34  1  0  0  0  0
 30 31  1  0  0  0  0
 30 33  1  0  0  0  0
 30 35  1  0  0  0  0
 31 32  2  0  0  0  0
 31 39  1  0  0  0  0
 33 36  1  0  0  0  0
 33 37  1  0  0  0  0
 33 38  1  0  0  0  0
 39 40  1  0  0  0  0
 39 45  1  0  0  0  0
 40 41  1  0  0  0  0
 40 43  1  0  0  0  0
 40 46  1  0  0  0  0
 41 42  2  0  0  0  0
 41 49  1  0  0  0  0
 43 44  1  0  0  0  0
 43 47  1  0  0  0  0
 43 48  1  0  0  0  0
 49 50  1  0  0  0  0
 49 54  1  0  0  0  0
 50 51  1  0  0  0  0
 50 53  1  0  0  0  0
 50 55  1  0  0  0  0
 51 52  2  0  0  0  0
 51 59  1  0  0  0  0
 53 56  1  0  0  0  0
 53 57  1  0  0  0  0
 53 58  1  0  0  0  0
 59 60  1  0  0  0  0
 59 61  1  0  0  0  0
 60 62  1  0  0  0  0
 60 63  1  0  0  0  0
 60 64  1  0  0  0  0
M  END
$$$$

  -OEChem-05262216053D

 64 63  0     1  0  0  0  0  0999 V2000
   -1.9083    0.5897    5.0214 C   0  0  0  0  0  0  0  0  0  0  0  0
   -3.0353    0.7357    4.5696 O   0  0  0  0  0  0  0  0  0  0  0  0
   -1.5974    1.0017    6.4474 C   0  0  0  0  0  0  0  0  0  0  0  0
   -0.7701    1.7154    6.4563 H   0  0  0  0  0  0  0  0  0  0  0  0
   -2.4727    1.4720    6.9036 H   0  0  0  0  0  0  0  0  0  0  0  0
   -1.3196    0.1250    7.0372 H   0  0  0  0  0  0  0  0  0  0  0  0
   -0.9188    0.0479    4.2313 N   0  0  0  0  0  0  0  0  0  0  0  0
   -1.1132   -0.3816    2.8412 C   0  0  2  0  0  0  0  0  0  0  0  0
   -0.0802   -1.4268    2.3777 C   0  0  0  0  0  0  0  0  0  0  0  0
    0.8871   -1.6944    3.0835 O   0  0  0  0  0  0  0  0  0  0  0  0
   -1.0662    0.8432    1.9184 C   0  0  0  0  0  0  0  0  0  0  0  0
    0.5499    1.7125    1.9962 S   0  0  0  0  0  0  0  0  0  0  0  0
    0.0045   -0.0950    4.6383 H   0  0  0  0  0  0  0  0  0  0  0  0
   -2.0930   -0.8590    2.7557 H   0  0  0  0  0  0  0  0  0  0  0  0
   -1.2409    0.5254    0.8882 H   0  0  0  0  0  0  0  0  0  0  0  0
   -1.8623    1.5440    2.1863 H   0  0  0  0  0  0  0  0  0  0  0  0
   -0.2469   -2.0670    1.1631 N   0  0  0  0  0  0  0  0  0  0  0  0
    0.6746   -3.0748    0.6532 C   0  0  0  0  0  0  0  0  0  0  0  0
   -1.1417   -1.9241    0.6865 H   0  0  0  0  0  0  0  0  0  0  0  0
    1.7121   -2.7548    0.7939 H   0  0  0  0  0  0  0  0  0  0  0  0
    0.5280   -4.0258    1.1746 H   0  0  0  0  0  0  0  0  0  0  0  0
    0.5106   -3.2319   -0.4171 H   0  0  0  0  0  0  0  0  0  0  0  0
   -3.7985   -0.4437    0.2432 C   0  0  0  0  0  0  0  0  0  0  0  0
   -2.9906   -1.3647    0.2651 O   0  0  0  0  0  0  0  0  0  0  0  0
   -4.6289   -0.1189    1.4710 C   0  0  0  0  0  0  0  0  0  0  0  0
   -5.6871   -0.0683    1.2044 H   0  0  0  0  0  0  0  0  0  0  0  0
   -4.4982   -0.8899    2.2352 H   0  0  0  0  0  0  0  0  0  0  0  0
   -4.3209    0.8429    1.8893 H   0  0  0  0  0  0  0  0  0  0  0  0
   -3.9058    0.3378   -0.8876 N   0  0  0  0  0  0  0  0  0  0  0  0
   -3.0853    0.1437   -2.0904 C   0  0  2  0  0  0  0  0  0  0  0  0
   -1.7348    0.8917   -2.0248 C   0  0  0  0  0  0  0  0  0  0  0  0
   -1.7186    2.1123   -1.9735 O   0  0  0  0  0  0  0  0  0  0  0  0
   -3.9100    0.6084   -3.2947 C   0  0  0  0  0  0  0  0  0  0  0  0
   -4.4319    1.2045   -0.8028 H   0  0  0  0  0  0  0  0  0  0  0  0
   -2.8753   -0.9229   -2.2230 H   0  0  0  0  0  0  0  0  0  0  0  0
   -4.1624    1.6699   -3.2028 H   0  0  0  0  0  0  0  0  0  0  0  0
   -3.3435    0.4672   -4.2203 H   0  0  0  0  0  0  0  0  0  0  0  0
   -4.8385    0.0337   -3.3659 H   0  0  0  0  0  0  0  0  0  0  0  0
   -0.5649    0.1836   -2.2230 N   0  0  0  0  0  0  0  0  0  0  0  0
    0.8273    0.6792   -2.2337 C   0  0  2  0  0  0  0  0  0  0  0  0
    1.7307   -0.4100   -2.8723 C   0  0  0  0  0  0  0  0  0  0  0  0
    1.2418   -1.1984   -3.6769 O   0  0  0  0  0  0  0  0  0  0  0  0
    1.3711    1.0215   -0.8212 C   0  0  0  0  0  0  0  0  0  0  0  0
    0.5422    2.4187    0.0380 S   0  0  0  0  0  0  0  0  0  0  0  0
   -0.6799   -0.8063   -2.4344 H   0  0  0  0  0  0  0  0  0  0  0  0
    0.8854    1.5765   -2.8580 H   0  0  0  0  0  0  0  0  0  0  0  0
    1.2868    0.1273   -0.1947 H   0  0  0  0  0  0  0  0  0  0  0  0
    2.4303    1.2849   -0.8822 H   0  0  0  0  0  0  0  0  0  0  0  0
    3.0629   -0.5876   -2.5341 N   0  0  0  0  0  0  0  0  0  0  0  0
    3.8631   -1.7186   -3.0234 C   0  0  2  0  0  0  0  0  0  0  0  0
    3.5570   -3.0189   -2.2507 C   0  0  0  0  0  0  0  0  0  0  0  0
    3.6356   -3.0378   -1.0290 O   0  0  0  0  0  0  0  0  0  0  0  0
    5.3416   -1.3439   -2.8914 C   0  0  0  0  0  0  0  0  0  0  0  0
    3.3938   -0.1074   -1.7014 H   0  0  0  0  0  0  0  0  0  0  0  0
    3.6514   -1.8893   -4.0842 H   0  0  0  0  0  0  0  0  0  0  0  0
    5.6012   -1.1610   -1.8436 H   0  0  0  0  0  0  0  0  0  0  0  0
    5.9735   -2.1543   -3.2676 H   0  0  0  0  0  0  0  0  0  0  0  0
    5.5589   -0.4398   -3.4683 H   0  0  0  0  0  0  0  0  0  0  0  0
    3.2052   -4.1717   -2.9274 N   0  0  0  0  0  0  0  0  0  0  0  0
    2.8434   -5.4115   -2.2512 C   0  0  0  0  0  0  0  0  0  0  0  0
    3.0078   -4.0810   -3.9203 H   0  0  0  0  0  0  0  0  0  0  0  0
    3.6487   -5.7337   -1.5825 H   0  0  0  0  0  0  0  0  0  0  0  0
    1.9303   -5.2747   -1.6630 H   0  0  0  0  0  0  0  0  0  0  0  0
    2.6692   -6.2050   -2.9841 H   0  0  0  0  0  0  0  0  0  0  0  0
  1  2  2  0  0  0  0
  1  3  1  0  0  0  0
  1  7  1  0  0  0  0
  3  4  1  0  0  0  0
  3  5  1  0  0  0  0
  3  6  1  0  0  0  0
  7  8  1  0  0  0  0
  7 13  1  0  0  0  0
  8  9  1  0  0  0  0
  8 11  1  0  0  0  0
  8 14  1  0  0  0  0
  9 10  2  0  0  0  0
  9 17  1  0  0  0  0
 11 12  1  0  0  0  0
 11 15  1  0  0  0  0
 11 16  1  0  0  0  0
 12 44  1  0  0  0  0
 17 18  1  0  0  0  0
 17 19  1  0  0  0  0
 18 20  1  0  0  0  0
 18 21  1  0  0  0  0
 18 22  1  0  0  0  0
 23 24  2  0  0  0  0
 23 25  1  0  0  0  0
 23 29  1  0  0  0  0
 25 26  1  0  0  0  0
 25 27  1  0  0  0  0
 25 28  1  0  0  0  0
 29 30  1  0  0  0  0
 29 34  1  0  0  0  0
 30 31  1  0  0  0  0
 30 33  1  0  0  0  0
 30 35  1  0  0  0  0
 31 32  2  0  0  0  0
 31 39  1  0  0  0  0
 33 36  1  0  0  0  0
 33 37  1  0  0  0  0
 33 38  1  0  0  0  0
 39 40  1  0  0  0  0
 39 45  1  0  0  0  0
 40 41  1  0  0  0  0
 40 43  1  0  0  0  0
 40 46  1  0  0  0  0
 41 42  2  0  0  0  0
 41 49  1  0  0  0  0
 43 44  1  0  0  0  0
 43 47  1  0  0  0  0
 43 48  1  0  0  0  0
 49 50  1  0  0  0  0
 49 54  1  0  0  0  0
 50 51  1  0  0  0  0
 50 53  1  0  0  0  0
 50 55  1  0  0  0  0
 51 52  2  0  0  0  0
 51 59  1  0  0  0  0
 53 56  1  0  0  0  0
 53 57  1  0  0  0  0
 53 58  1  0  0  0  0
 59 60  1  0  0  0  0
 59 61  1  0  0  0  0
 60 62  1  0  0  0  0
 60 63  1  0  0  0  0
 60 64  1  0  0  0  0
M  END
$$$$

  -OEChem-05262216053D

 64 63  0     1  0  0  0  0  0999 V2000
   -2.1396    0.2945    4.7579 C   0  0  0  0  0  0  0  0  0  0  0  0
   -3.1654    0.1599    4.1081 O   0  0  0  0  0  0  0  0  0  0  0  0
   -2.1774    0.9843    6.1081 C   0  0  0  0  0  0  0  0  0  0  0  0
   -1.5661    1.8896    6.0801 H   0  0  0  0  0  0  0  0  0  0  0  0
   -3.2044    1.2596    6.3630 H   0  0  0  0  0  0  0  0  0  0  0  0
   -1.7902    0.3155    6.8805 H   0  0  0  0  0  0  0  0  0  0  0  0
   -0.9451   -0.1828    4.2664 N   0  0  0  0  0  0  0  0  0  0  0  0
   -0.7872   -0.9184    3.0037 C   0  0  2  0  0  0  0  0  0  0  0  0
    0.4673   -1.8198    3.0158 C   0  0  0  0  0  0  0  0  0  0  0  0
    1.1889   -1.8465    4.0091 O   0  0  0  0  0  0  0  0  0  0  0  0
   -0.7458    0.0794    1.8405 C   0  0  0  0  0  0  0  0  0  0  0  0
    0.6936    1.2177    1.9394 S   0  0  0  0  0  0  0  0  0  0  0  0
   -0.1238   -0.1220    4.8670 H   0  0  0  0  0  0  0  0  0  0  0  0
   -1.6471   -1.5817    2.8641 H   0  0  0  0  0  0  0  0  0  0  0  0
   -0.7059   -0.4686    0.8958 H   0  0  0  0  0  0  0  0  0  0  0  0
   -1.6628    0.6752    1.8366 H   0  0  0  0  0  0  0  0  0  0  0  0
    0.7604   -2.6523    1.9499 N   0  0  0  0  0  0  0  0  0  0  0  0
    1.9431   -3.5027    1.9041 C   0  0  0  0  0  0  0  0  0  0  0  0
    0.2195   -2.5395    1.0941 H   0  0  0  0  0  0  0  0  0  0  0  0
    2.8430   -2.8952    1.7649 H   0  0  0  0  0  0  0  0  0  0  0  0
    2.0436   -4.0793    2.8296 H   0  0  0  0  0  0  0  0  0  0  0  0
    1.8666   -4.2088    1.0721 H   0  0  0  0  0  0  0  0  0  0  0  0
   -3.5709   -0.4263   -0.2297 C   0  0  0  0  0  0  0  0  0  0  0  0
   -2.7746   -1.3125   -0.5070 O   0  0  0  0  0  0  0  0  0  0  0  0
   -4.3091   -0.4444    1.0941 C   0  0  0  0  0  0  0  0  0  0  0  0
   -5.3730   -0.6253    0.9262 H   0  0  0  0  0  0  0  0  0  0  0  0
   -3.9149   -1.2355    1.7374 H   0  0  0  0  0  0  0  0  0  0  0  0
   -4.1888    0.5140    1.6051 H   0  0  0  0  0  0  0  0  0  0  0  0
   -3.8007    0.5929   -1.1292 N   0  0  0  0  0  0  0  0  0  0  0  0
   -3.1360    0.6874   -2.4345 C   0  0  2  0  0  0  0  0  0  0  0  0
   -1.7287    1.3193   -2.3451 C   0  0  0  0  0  0  0  0  0  0  0  0
   -1.5991    2.5295   -2.2177 O   0  0  0  0  0  0  0  0  0  0  0  0
   -4.0542    1.4840   -3.3672 C   0  0  0  0  0  0  0  0  0  0  0  0
   -4.3348    1.3926   -0.7993 H   0  0  0  0  0  0  0  0  0  0  0  0
   -3.0249   -0.3153   -2.8605 H   0  0  0  0  0  0  0  0  0  0  0  0
   -4.2202    2.4938   -2.9781 H   0  0  0  0  0  0  0  0  0  0  0  0
   -3.6032    1.5667   -4.3609 H   0  0  0  0  0  0  0  0  0  0  0  0
   -5.0226    0.9843   -3.4662 H   0  0  0  0  0  0  0  0  0  0  0  0
   -0.6209    0.5364   -2.6041 N   0  0  0  0  0  0  0  0  0  0  0  0
    0.7958    0.9247   -2.4599 C   0  0  2  0  0  0  0  0  0  0  0  0
    1.6656   -0.1145   -3.2197 C   0  0  0  0  0  0  0  0  0  0  0  0
    1.2361   -0.6218   -4.2509 O   0  0  0  0  0  0  0  0  0  0  0  0
    1.2303    0.9271   -0.9715 C   0  0  0  0  0  0  0  0  0  0  0  0
    0.4097    2.1661    0.1050 S   0  0  0  0  0  0  0  0  0  0  0  0
   -0.8081   -0.4517   -2.7654 H   0  0  0  0  0  0  0  0  0  0  0  0
    0.9650    1.9137   -2.8986 H   0  0  0  0  0  0  0  0  0  0  0  0
    1.0488   -0.0706   -0.5591 H   0  0  0  0  0  0  0  0  0  0  0  0
    2.3026    1.1296   -0.9012 H   0  0  0  0  0  0  0  0  0  0  0  0
    2.8217   -0.6554   -2.6756 N   0  0  0  0  0  0  0  0  0  0  0  0
    3.2338   -2.0275   -3.0006 C   0  0  2  0  0  0  0  0  0  0  0  0
    2.3441   -3.0653   -2.2787 C   0  0  0  0  0  0  0  0  0  0  0  0
    1.7842   -2.7714   -1.2261 O   0  0  0  0  0  0  0  0  0  0  0  0
    4.6960   -2.1912   -2.5814 C   0  0  0  0  0  0  0  0  0  0  0  0
    3.0195   -0.3548   -1.7257 H   0  0  0  0  0  0  0  0  0  0  0  0
    3.1626   -2.1971   -4.0804 H   0  0  0  0  0  0  0  0  0  0  0  0
    4.8060   -2.0389   -1.5027 H   0  0  0  0  0  0  0  0  0  0  0  0
    5.0537   -3.1956   -2.8286 H   0  0  0  0  0  0  0  0  0  0  0  0
    5.3246   -1.4627   -3.1034 H   0  0  0  0  0  0  0  0  0  0  0  0
    2.1803   -4.3345   -2.8008 N   0  0  0  0  0  0  0  0  0  0  0  0
    1.2912   -5.3292   -2.2128 C   0  0  0  0  0  0  0  0  0  0  0  0
    2.5705   -4.5132   -3.7218 H   0  0  0  0  0  0  0  0  0  0  0  0
    1.5979   -5.5601   -1.1873 H   0  0  0  0  0  0  0  0  0  0  0  0
    0.2598   -4.9611   -2.1986 H   0  0  0  0  0  0  0  0  0  0  0  0
    1.3205   -6.2547   -2.7963 H   0  0  0  0  0  0  0  0  0  0  0  0
  1  2  2  0  0  0  0
  1  3  1  0  0  0  0
  1  7  1  0  0  0  0
  3  4  1  0  0  0  0
  3  5  1  0  0  0  0
  3  6  1  0  0  0  0
  7  8  1  0  0  0  0
  7 13  1  0  0  0  0
  8  9  1  0  0  0  0
  8 11  1  0  0  0  0
  8 14  1  0  0  0  0
  9 10  2  0  0  0  0
  9 17  1  0  0  0  0
 11 12  1  0  0  0  0
 11 15  1  0  0  0  0
 11 16  1  0  0  0  0
 12 44  1  0  0  0  0
 17 18  1  0  0  0  0
 17 19  1  0  0  0  0
 18 20  1  0  0  0  0
 18 21  1  0  0  0  0
 18 22  1  0  0  0  0
 23 24  2  0  0  0  0
 23 25  1  0  0  0  0
 23 29  1  0  0  0  0
 25 26  1  0  0  0  0
 25 27  1  0  0  0  0
 25 28  1  0  0  0  0
 29 30  1  0  0  0  0
 29 34  1  0  0  0  0
 30 31  1  0  0  0  0
 30 33  1  0  0  0  0
 30 35  1  0  0  0  0
 31 32  2  0  0  0  0
 31 39  1  0  0  0  0
 33 36  1  0  0  0  0
 33 37  1  0  0  0  0
 33 38  1  0  0  0  0
 39 40  1  0  0  0  0
 39 45  1  0  0  0  0
 40 41  1  0  0  0  0
 40 43  1  0  0  0  0
 40 46  1  0  0  0  0
 41 42  2  0  0  0  0
 41 49  1  0  0  0  0
 43 44  1  0  0  0  0
 43 47  1  0  0  0  0
 43 48  1  0  0  0  0
 49 50  1  0  0  0  0
 49 54  1  0  0  0  0
 50 51  1  0  0  0  0
 50 53  1  0  0  0  0
 50 55  1  0  0  0  0
 51 52  2  0  0  0  0
 51 59  1  0  0  0  0
 53 56  1  0  0  0  0
 53 57  1  0  0  0  0
 53 58  1  0  0  0  0
 59 60  1  0  0  0  0
 59 61  1  0  0  0  0
 60 62  1  0  0  0  0
 60 63  1  0  0  0  0
 60 64  1  0  0  0  0
M  END
$$$$

  -OEChem-05262216053D

 64 63  0     1  0  0  0  0  0999 V2000
   -2.7888    0.3931    3.3406 C   0  0  0  0  0  0  0  0  0  0  0  0
   -3.4130    0.1556    2.3123 O   0  0  0  0  0  0  0  0  0  0  0  0
   -3.4833    1.0298    4.5286 C   0  0  0  0  0  0  0  0  0  0  0  0
   -3.0390    2.0056    4.7401 H   0  0  0  0  0  0  0  0  0  0  0  0
   -4.5475    1.1644    4.3166 H   0  0  0  0  0  0  0  0  0  0  0  0
   -3.3780    0.3912    5.4090 H   0  0  0  0  0  0  0  0  0  0  0  0
   -1.4520    0.0656    3.4171 N   0  0  0  0  0  0  0  0  0  0  0  0
   -0.7184   -0.6374    2.3571 C   0  0  2  0  0  0  0  0  0  0  0  0
    0.4959   -1.4343    2.8803 C   0  0  0  0  0  0  0  0  0  0  0  0
    0.7453   -1.4403    4.0818 O   0  0  0  0  0  0  0  0  0  0  0  0
   -0.3308    0.3697    1.2686 C   0  0  0  0  0  0  0  0  0  0  0  0
    1.1992    1.3188    1.6494 S   0  0  0  0  0  0  0  0  0  0  0  0
   -0.9745    0.1894    4.3098 H   0  0  0  0  0  0  0  0  0  0  0  0
   -1.3869   -1.3787    1.9146 H   0  0  0  0  0  0  0  0  0  0  0  0
   -0.1903   -0.1850    0.3397 H   0  0  0  0  0  0  0  0  0  0  0  0
   -1.1462    1.0795    1.1026 H   0  0  0  0  0  0  0  0  0  0  0  0
    1.2574   -2.2154    2.0284 N   0  0  0  0  0  0  0  0  0  0  0  0
    2.4215   -2.9713    2.4684 C   0  0  0  0  0  0  0  0  0  0  0  0
    1.0574   -2.1791    1.0247 H   0  0  0  0  0  0  0  0  0  0  0  0
    3.1776   -2.2997    2.8885 H   0  0  0  0  0  0  0  0  0  0  0  0
    2.1379   -3.7052    3.2299 H   0  0  0  0  0  0  0  0  0  0  0  0
    2.8636   -3.5053    1.6217 H   0  0  0  0  0  0  0  0  0  0  0  0
   -2.7889   -1.4072   -0.9550 C   0  0  0  0  0  0  0  0  0  0  0  0
   -2.3204   -1.6604   -2.0541 O   0  0  0  0  0  0  0  0  0  0  0  0
   -3.1292   -2.5391   -0.0048 C   0  0  0  0  0  0  0  0  0  0  0  0
   -3.6723   -3.3209   -0.5417 H   0  0  0  0  0  0  0  0  0  0  0  0
   -2.2141   -2.9630    0.4137 H   0  0  0  0  0  0  0  0  0  0  0  0
   -3.7587   -2.1753    0.8112 H   0  0  0  0  0  0  0  0  0  0  0  0
   -2.9805   -0.0944   -0.5825 N   0  0  0  0  0  0  0  0  0  0  0  0
   -2.9152    1.0485   -1.5093 C   0  0  2  0  0  0  0  0  0  0  0  0
   -1.4766    1.5280   -1.8375 C   0  0  0  0  0  0  0  0  0  0  0  0
   -1.1967    2.7190   -1.8430 O   0  0  0  0  0  0  0  0  0  0  0  0
   -3.7752    2.1564   -0.8869 C   0  0  0  0  0  0  0  0  0  0  0  0
   -3.3282    0.0706    0.3683 H   0  0  0  0  0  0  0  0  0  0  0  0
   -3.3731    0.7619   -2.4621 H   0  0  0  0  0  0  0  0  0  0  0  0
   -3.3370    2.4973    0.0568 H   0  0  0  0  0  0  0  0  0  0  0  0
   -3.8448    3.0121   -1.5659 H   0  0  0  0  0  0  0  0  0  0  0  0
   -4.7875    1.7908   -0.6911 H   0  0  0  0  0  0  0  0  0  0  0  0
   -0.5310    0.6206   -2.2753 N   0  0  0  0  0  0  0  0  0  0  0  0
    0.8961    0.8920   -2.5488 C   0  0  2  0  0  0  0  0  0  0  0  0
    1.4230   -0.3143   -3.3716 C   0  0  0  0  0  0  0  0  0  0  0  0
    0.7752   -0.7252   -4.3265 O   0  0  0  0  0  0  0  0  0  0  0  0
    1.7487    0.9934   -1.2542 C   0  0  0  0  0  0  0  0  0  0  0  0
    1.3454    2.3938   -0.1382 S   0  0  0  0  0  0  0  0  0  0  0  0
   -0.8810   -0.3310   -2.4311 H   0  0  0  0  0  0  0  0  0  0  0  0
    1.0038    1.8067   -3.1408 H   0  0  0  0  0  0  0  0  0  0  0  0
    1.6742    0.0592   -0.6937 H   0  0  0  0  0  0  0  0  0  0  0  0
    2.7982    1.1221   -1.5364 H   0  0  0  0  0  0  0  0  0  0  0  0
    2.4620   -1.1124   -2.9135 N   0  0  0  0  0  0  0  0  0  0  0  0
    2.3542   -2.5733   -3.0219 C   0  0  2  0  0  0  0  0  0  0  0  0
    1.3779   -3.1473   -1.9661 C   0  0  0  0  0  0  0  0  0  0  0  0
    1.1994   -2.5645   -0.8958 O   0  0  0  0  0  0  0  0  0  0  0  0
    3.7527   -3.1630   -2.8328 C   0  0  0  0  0  0  0  0  0  0  0  0
    2.8780   -0.7834   -2.0475 H   0  0  0  0  0  0  0  0  0  0  0  0
    1.9942   -2.8547   -4.0176 H   0  0  0  0  0  0  0  0  0  0  0  0
    4.1446   -2.9166   -1.8407 H   0  0  0  0  0  0  0  0  0  0  0  0
    3.7244   -4.2524   -2.9342 H   0  0  0  0  0  0  0  0  0  0  0  0
    4.4368   -2.7636   -3.5882 H   0  0  0  0  0  0  0  0  0  0  0  0
    0.7292   -4.3436   -2.2046 N   0  0  0  0  0  0  0  0  0  0  0  0
   -0.3001   -4.8825   -1.3252 C   0  0  0  0  0  0  0  0  0  0  0  0
    0.7932   -4.7146   -3.1490 H   0  0  0  0  0  0  0  0  0  0  0  0
    0.0267   -4.8579   -0.2801 H   0  0  0  0  0  0  0  0  0  0  0  0
   -1.2221   -4.3017   -1.4235 H   0  0  0  0  0  0  0  0  0  0  0  0
   -0.5142   -5.9224   -1.5898 H   0  0  0  0  0  0  0  0  0  0  0  0
  1  2  2  0  0  0  0
  1  3  1  0  0  0  0
  1  7  1  0  0  0  0
  3  4  1  0  0  0  0
  3  5  1  0  0  0  0
  3  6  1  0  0  0  0
  7  8  1  0  0  0  0
  7 13  1  0  0  0  0
  8  9  1  0  0  0  0
  8 11  1  0  0  0  0
  8 14  1  0  0  0  0
  9 10  2  0  0  0  0
  9 17  1  0  0  0  0
 11 12  1  0  0  0  0
 11 15  1  0  0  0  0
 11 16  1  0  0  0  0
 12 44  1  0  0  0  0
 17 18  1  0  0  0  0
 17 19  1  0  0  0  0
 18 20  1  0  0  0  0
 18 21  1  0  0  0  0
 18 22  1  0  0  0  0
 23 24  2  0  0  0  0
 23 25  1  0  0  0  0
 23 29  1  0  0  0  0
 25 26  1  0  0  0  0
 25 27  1  0  0  0  0
 25 28  1  0  0  0  0
 29 30  1  0  0  0  0
 29 34  1  0  0  0  0
 30 31  1  0  0  0  0
 30 33  1  0  0  0  0
 30 35  1  0  0  0  0
 31 32  2  0  0  0  0
 31 39  1  0  0  0  0
 33 36  1  0  0  0  0
 33 37  1  0  0  0  0
 33 38  1  0  0  0  0
 39 40  1  0  0  0  0
 39 45  1  0  0  0  0
 40 41  1  0  0  0  0
 40 43  1  0  0  0  0
 40 46  1  0  0  0  0
 41 42  2  0  0  0  0
 41 49  1  0  0  0  0
 43 44  1  0  0  0  0
 43 47  1  0  0  0  0
 43 48  1  0  0  0  0
 49 50  1  0  0  0  0
 49 54  1  0  0  0  0
 50 51  1  0  0  0  0
 50 53  1  0  0  0  0
 50 55  1  0  0  0  0
 51 52  2  0  0  0  0
 51 59  1  0  0  0  0
 53 56  1  0  0  0  0
 53 57  1  0  0  0  0
 53 58  1  0  0  0  0
 59 60  1  0  0  0  0
 59 61  1  0  0  0  0
 60 62  1  0  0  0  0
 60 63  1  0  0  0  0
 60 64  1  0  0  0  0
M  END
$$$$

  -OEChem-05262216053D

 64 63  0     1  0  0  0  0  0999 V2000
   -1.8166    0.4890    4.9747 C   0  0  0  0  0  0  0  0  0  0  0  0
   -2.9474    0.6887    4.5548 O   0  0  0  0  0  0  0  0  0  0  0  0
   -1.4140    0.9867    6.3498 C   0  0  0  0  0  0  0  0  0  0  0  0
   -0.5892    1.6980    6.2603 H   0  0  0  0  0  0  0  0  0  0  0  0
   -2.2590    1.4853    6.8328 H   0  0  0  0  0  0  0  0  0  0  0  0
   -1.0969    0.1472    6.9731 H   0  0  0  0  0  0  0  0  0  0  0  0
   -0.9046   -0.1873    4.1943 N   0  0  0  0  0  0  0  0  0  0  0  0
   -1.1741   -0.6513    2.8276 C   0  0  2  0  0  0  0  0  0  0  0  0
   -0.2545   -1.8029    2.3786 C   0  0  0  0  0  0  0  0  0  0  0  0
    0.7809   -2.0544    2.9884 O   0  0  0  0  0  0  0  0  0  0  0  0
   -1.0500    0.5255    1.8507 C   0  0  0  0  0  0  0  0  0  0  0  0
    0.5628    1.3933    1.9918 S   0  0  0  0  0  0  0  0  0  0  0  0
    0.0316   -0.3402    4.5649 H   0  0  0  0  0  0  0  0  0  0  0  0
   -2.1951   -1.0423    2.7871 H   0  0  0  0  0  0  0  0  0  0  0  0
   -1.1657    0.1613    0.8266 H   0  0  0  0  0  0  0  0  0  0  0  0
   -1.8525    1.2449    2.0381 H   0  0  0  0  0  0  0  0  0  0  0  0
   -0.6117   -2.5754    1.2904 N   0  0  0  0  0  0  0  0  0  0  0  0
    0.1575   -3.7181    0.8195 C   0  0  0  0  0  0  0  0  0  0  0  0
   -1.5102   -2.3664    0.8446 H   0  0  0  0  0  0  0  0  0  0  0  0
    1.1611   -3.4050    0.5140 H   0  0  0  0  0  0  0  0  0  0  0  0
    0.2463   -4.4726    1.6078 H   0  0  0  0  0  0  0  0  0  0  0  0
   -0.3393   -4.1751   -0.0419 H   0  0  0  0  0  0  0  0  0  0  0  0
   -3.8853   -0.5042    0.2573 C   0  0  0  0  0  0  0  0  0  0  0  0
   -3.2331   -1.5296    0.4093 O   0  0  0  0  0  0  0  0  0  0  0  0
   -4.7194    0.0402    1.4019 C   0  0  0  0  0  0  0  0  0  0  0  0
   -5.7619    0.1395    1.0909 H   0  0  0  0  0  0  0  0  0  0  0  0
   -4.6725   -0.6340    2.2621 H   0  0  0  0  0  0  0  0  0  0  0  0
   -4.3442    1.0204    1.7070 H   0  0  0  0  0  0  0  0  0  0  0  0
   -3.8056    0.1948   -0.9293 N   0  0  0  0  0  0  0  0  0  0  0  0
   -2.8851   -0.1483   -2.0235 C   0  0  2  0  0  0  0  0  0  0  0  0
   -1.6359    0.7566   -2.0521 C   0  0  0  0  0  0  0  0  0  0  0  0
   -1.7562    1.9687   -1.9428 O   0  0  0  0  0  0  0  0  0  0  0  0
   -3.6568   -0.0259   -3.3391 C   0  0  0  0  0  0  0  0  0  0  0  0
   -4.1853    1.1394   -0.9246 H   0  0  0  0  0  0  0  0  0  0  0  0
   -2.5462   -1.1854   -1.9275 H   0  0  0  0  0  0  0  0  0  0  0  0
   -4.0077    1.0009   -3.4852 H   0  0  0  0  0  0  0  0  0  0  0  0
   -3.0132   -0.2952   -4.1828 H   0  0  0  0  0  0  0  0  0  0  0  0
   -4.5229   -0.6951   -3.3362 H   0  0  0  0  0  0  0  0  0  0  0  0
   -0.4097    0.1915   -2.3328 N   0  0  0  0  0  0  0  0  0  0  0  0
    0.9235    0.8198   -2.2889 C   0  0  2  0  0  0  0  0  0  0  0  0
    1.8746   -0.1246   -3.0542 C   0  0  0  0  0  0  0  0  0  0  0  0
    1.7015   -0.3222   -4.2513 O   0  0  0  0  0  0  0  0  0  0  0  0
    1.4567    1.0861   -0.8612 C   0  0  0  0  0  0  0  0  0  0  0  0
    0.5114    2.3133    0.1248 S   0  0  0  0  0  0  0  0  0  0  0  0
   -0.4103   -0.8275   -2.4327 H   0  0  0  0  0  0  0  0  0  0  0  0
    0.8905    1.7725   -2.8287 H   0  0  0  0  0  0  0  0  0  0  0  0
    1.4464    0.1413   -0.3087 H   0  0  0  0  0  0  0  0  0  0  0  0
    2.4930    1.4343   -0.9189 H   0  0  0  0  0  0  0  0  0  0  0  0
    2.7766   -0.9321   -2.3790 N   0  0  0  0  0  0  0  0  0  0  0  0
    2.9505   -2.3166   -2.8448 C   0  0  2  0  0  0  0  0  0  0  0  0
    1.6271   -3.1299   -2.8175 C   0  0  0  0  0  0  0  0  0  0  0  0
    0.6399   -2.7147   -2.2114 O   0  0  0  0  0  0  0  0  0  0  0  0
    3.9966   -2.9776   -1.9439 C   0  0  0  0  0  0  0  0  0  0  0  0
    2.7594   -0.8125   -1.3704 H   0  0  0  0  0  0  0  0  0  0  0  0
    3.3250   -2.3076   -3.8744 H   0  0  0  0  0  0  0  0  0  0  0  0
    3.6461   -3.0088   -0.9069 H   0  0  0  0  0  0  0  0  0  0  0  0
    4.1955   -4.0020   -2.2736 H   0  0  0  0  0  0  0  0  0  0  0  0
    4.9363   -2.4170   -1.9783 H   0  0  0  0  0  0  0  0  0  0  0  0
    1.5367   -4.3368   -3.4859 N   0  0  0  0  0  0  0  0  0  0  0  0
    0.3028   -5.1091   -3.5775 C   0  0  0  0  0  0  0  0  0  0  0  0
    2.3282   -4.6133   -4.0599 H   0  0  0  0  0  0  0  0  0  0  0  0
   -0.0567   -5.3797   -2.5791 H   0  0  0  0  0  0  0  0  0  0  0  0
   -0.4745   -4.5303   -4.0876 H   0  0  0  0  0  0  0  0  0  0  0  0
    0.4743   -6.0308   -4.1420 H   0  0  0  0  0  0  0  0  0  0  0  0
  1  2  2  0  0  0  0
  1  3  1  0  0  0  0
  1  7  1  0  0  0  0
  3  4  1  0  0  0  0
  3  5  1  0  0  0  0
  3  6  1  0  0  0  0
  7  8  1  0  0  0  0
  7 13  1  0  0  0  0
  8  9  1  0  0  0  0
  8 11  1  0  0  0  0
  8 14  1  0  0  0  0
  9 10  2  0  0  0  0
  9 17  1  0  0  0  0
 11 12  1  0  0  0  0
 11 15  1  0  0  0  0
 11 16  1  0  0  0  0
 12 44  1  0  0  0  0
 17 18  1  0  0  0  0
 17 19  1  0  0  0  0
 18 20  1  0  0  0  0
 18 21  1  0  0  0  0
 18 22  1  0  0  0  0
 23 24  2  0  0  0  0
 23 25  1  0  0  0  0
 23 29  1  0  0  0  0
 25 26  1  0  0  0  0
 25 27  1  0  0  0  0
 25 28  1  0  0  0  0
 29 30  1  0  0  0  0
 29 34  1  0  0  0  0
 30 31  1  0  0  0  0
 30 33  1  0  0  0  0
 30 35  1  0  0  0  0
 31 32  2  0  0  0  0
 31 39  1  0  0  0  0
 33 36  1  0  0  0  0
 33 37  1  0  0  0  0
 33 38  1  0  0  0  0
 39 40  1  0  0  0  0
 39 45  1  0  0  0  0
 40 41  1  0  0  0  0
 40 43  1  0  0  0  0
 40 46  1  0  0  0  0
 41 42  2  0  0  0  0
 41 49  1  0  0  0  0
 43 44  1  0  0  0  0
 43 47  1  0  0  0  0
 43 48  1  0  0  0  0
 49 50  1  0  0  0  0
 49 54  1  0  0  0  0
 50 51  1  0  0  0  0
 50 53  1  0  0  0  0
 50 55  1  0  0  0  0
 51 52  2  0  0  0  0
 51 59  1  0  0  0  0
 53 56  1  0  0  0  0
 53 57  1  0  0  0  0
 53 58  1  0  0  0  0
 59 60  1  0  0  0  0
 59 61  1  0  0  0  0
 60 62  1  0  0  0  0
 60 63  1  0  0  0  0
 60 64  1  0  0  0  0
M  END
$$$$

  -OEChem-05262216053D

 64 63  0     1  0  0  0  0  0999 V2000
   -1.6962    0.4582    5.0613 C   0  0  0  0  0  0  0  0  0  0  0  0
   -2.8509    0.7199    4.7580 O   0  0  0  0  0  0  0  0  0  0  0  0
   -1.1575    0.8517    6.4236 C   0  0  0  0  0  0  0  0  0  0  0  0
   -0.2780    1.4899    6.3069 H   0  0  0  0  0  0  0  0  0  0  0  0
   -1.9188    1.4007    6.9848 H   0  0  0  0  0  0  0  0  0  0  0  0
   -0.8791   -0.0421    6.9872 H   0  0  0  0  0  0  0  0  0  0  0  0
   -0.8824   -0.1968    4.1633 N   0  0  0  0  0  0  0  0  0  0  0  0
   -1.2818   -0.5570    2.7969 C   0  0  2  0  0  0  0  0  0  0  0  0
   -0.4236   -1.6890    2.1982 C   0  0  0  0  0  0  0  0  0  0  0  0
    0.6780   -1.9595    2.6683 O   0  0  0  0  0  0  0  0  0  0  0  0
   -1.2136    0.6808    1.8928 C   0  0  0  0  0  0  0  0  0  0  0  0
    0.4185    1.5220    1.9731 S   0  0  0  0  0  0  0  0  0  0  0  0
    0.0815   -0.3853    4.4324 H   0  0  0  0  0  0  0  0  0  0  0  0
   -2.3132   -0.9240    2.8163 H   0  0  0  0  0  0  0  0  0  0  0  0
   -1.4111    0.3857    0.8591 H   0  0  0  0  0  0  0  0  0  0  0  0
   -1.9903    1.3930    2.1870 H   0  0  0  0  0  0  0  0  0  0  0  0
   -0.9043   -2.4242    1.1322 N   0  0  0  0  0  0  0  0  0  0  0  0
   -0.2310   -3.5942    0.5884 C   0  0  0  0  0  0  0  0  0  0  0  0
   -1.8576   -2.2147    0.8194 H   0  0  0  0  0  0  0  0  0  0  0  0
    0.7686   -3.3288    0.2310 H   0  0  0  0  0  0  0  0  0  0  0  0
   -0.1381   -4.3728    1.3526 H   0  0  0  0  0  0  0  0  0  0  0  0
   -0.8029   -3.9994   -0.2521 H   0  0  0  0  0  0  0  0  0  0  0  0
   -4.0825   -0.2944    0.1561 C   0  0  0  0  0  0  0  0  0  0  0  0
   -3.5138   -1.3307    0.4729 O   0  0  0  0  0  0  0  0  0  0  0  0
   -4.9064    0.4588    1.1832 C   0  0  0  0  0  0  0  0  0  0  0  0
   -5.9569    0.4703    0.8834 H   0  0  0  0  0  0  0  0  0  0  0  0
   -4.8235   -0.0216    2.1626 H   0  0  0  0  0  0  0  0  0  0  0  0
   -4.5482    1.4877    1.2698 H   0  0  0  0  0  0  0  0  0  0  0  0
   -3.9035    0.2326   -1.1059 N   0  0  0  0  0  0  0  0  0  0  0  0
   -2.9022   -0.2643   -2.0620 C   0  0  2  0  0  0  0  0  0  0  0  0
   -1.6560    0.6428   -2.1164 C   0  0  0  0  0  0  0  0  0  0  0  0
   -1.7840    1.8583   -2.0672 O   0  0  0  0  0  0  0  0  0  0  0  0
   -3.5639   -0.3407   -3.4386 C   0  0  0  0  0  0  0  0  0  0  0  0
   -4.2129    1.1942   -1.2350 H   0  0  0  0  0  0  0  0  0  0  0  0
   -2.5716   -1.2722   -1.7893 H   0  0  0  0  0  0  0  0  0  0  0  0
   -3.8964    0.6513   -3.7612 H   0  0  0  0  0  0  0  0  0  0  0  0
   -2.8568   -0.7275   -4.1793 H   0  0  0  0  0  0  0  0  0  0  0  0
   -4.4310   -1.0073   -3.4060 H   0  0  0  0  0  0  0  0  0  0  0  0
   -0.4195    0.0691   -2.3229 N   0  0  0  0  0  0  0  0  0  0  0  0
    0.9092    0.7064   -2.2607 C   0  0  2  0  0  0  0  0  0  0  0  0
    1.8962   -0.2624   -2.9384 C   0  0  0  0  0  0  0  0  0  0  0  0
    1.9393   -0.3349   -4.1603 O   0  0  0  0  0  0  0  0  0  0  0  0
    1.3959    1.0497   -0.8328 C   0  0  0  0  0  0  0  0  0  0  0  0
    0.4107    2.3230    0.0516 S   0  0  0  0  0  0  0  0  0  0  0  0
   -0.4215   -0.9524   -2.4140 H   0  0  0  0  0  0  0  0  0  0  0  0
    0.8901    1.6305   -2.8486 H   0  0  0  0  0  0  0  0  0  0  0  0
    1.3737    0.1391   -0.2266 H   0  0  0  0  0  0  0  0  0  0  0  0
    2.4331    1.3972   -0.8765 H   0  0  0  0  0  0  0  0  0  0  0  0
    2.5439   -1.2332   -2.1917 N   0  0  0  0  0  0  0  0  0  0  0  0
    2.6813   -2.5802   -2.7643 C   0  0  2  0  0  0  0  0  0  0  0  0
    1.3068   -3.2576   -3.0096 C   0  0  0  0  0  0  0  0  0  0  0  0
    0.2830   -2.8151   -2.4886 O   0  0  0  0  0  0  0  0  0  0  0  0
    3.5253   -3.4131   -1.7969 C   0  0  0  0  0  0  0  0  0  0  0  0
    2.3235   -1.2021   -1.1999 H   0  0  0  0  0  0  0  0  0  0  0  0
    3.2078   -2.5179   -3.7231 H   0  0  0  0  0  0  0  0  0  0  0  0
    3.0254   -3.5031   -0.8272 H   0  0  0  0  0  0  0  0  0  0  0  0
    3.6883   -4.4183   -2.1978 H   0  0  0  0  0  0  0  0  0  0  0  0
    4.5011   -2.9413   -1.6435 H   0  0  0  0  0  0  0  0  0  0  0  0
    1.2120   -4.3666   -3.8291 N   0  0  0  0  0  0  0  0  0  0  0  0
   -0.0580   -4.9889   -4.1842 C   0  0  0  0  0  0  0  0  0  0  0  0
    2.0499   -4.6492   -4.3299 H   0  0  0  0  0  0  0  0  0  0  0  0
   -0.5940   -5.3094   -3.2847 H   0  0  0  0  0  0  0  0  0  0  0  0
   -0.6874   -4.2843   -4.7380 H   0  0  0  0  0  0  0  0  0  0  0  0
    0.1141   -5.8681   -4.8126 H   0  0  0  0  0  0  0  0  0  0  0  0
  1  2  2  0  0  0  0
  1  3  1  0  0  0  0
  1  7  1  0  0  0  0
  3  4  1  0  0  0  0
  3  5  1  0  0  0  0
  3  6  1  0  0  0  0
  7  8  1  0  0  0  0
  7 13  1  0  0  0  0
  8  9  1  0  0  0  0
  8 11  1  0  0  0  0
  8 14  1  0  0  0  0
  9 10  2  0  0  0  0
  9 17  1  0  0  0  0
 11 12  1  0  0  0  0
 11 15  1  0  0  0  0
 11 16  1  0  0  0  0
 12 44  1  0  0  0  0
 17 18  1  0  0  0  0
 17 19  1  0  0  0  0
 18 20  1  0  0  0  0
 18 21  1  0  0  0  0
 18 22  1  0  0  0  0
 23 24  2  0  0  0  0
 23 25  1  0  0  0  0
 23 29  1  0  0  0  0
 25 26  1  0  0  0  0
 25 27  1  0  0  0  0
 25 28  1  0  0  0  0
 29 30  1  0  0  0  0
 29 34  1  0  0  0  0
 30 31  1  0  0  0  0
 30 33  1  0  0  0  0
 30 35  1  0  0  0  0
 31 32  2  0  0  0  0
 31 39  1  0  0  0  0
 33 36  1  0  0  0  0
 33 37  1  0  0  0  0
 33 38  1  0  0  0  0
 39 40  1  0  0  0  0
 39 45  1  0  0  0  0
 40 41  1  0  0  0  0
 40 43  1  0  0  0  0
 40 46  1  0  0  0  0
 41 42  2  0  0  0  0
 41 49  1  0  0  0  0
 43 44  1  0  0  0  0
 43 47  1  0  0  0  0
 43 48  1  0  0  0  0
 49 50  1  0  0  0  0
 49 54  1  0  0  0  0
 50 51  1  0  0  0  0
 50 53  1  0  0  0  0
 50 55  1  0  0  0  0
 51 52  2  0  0  0  0
 51 59  1  0  0  0  0
 53 56  1  0  0  0  0
 53 57  1  0  0  0  0
 53 58  1  0  0  0  0
 59 60  1  0  0  0  0
 59 61  1  0  0  0  0
 60 62  1  0  0  0  0
 60 63  1  0  0  0  0
 60 64  1  0  0  0  0
M  END
$$$$

  -OEChem-05262216053D

 64 63  0     1  0  0  0  0  0999 V2000
   -0.8359   -0.0476    5.2018 C   0  0  0  0  0  0  0  0  0  0  0  0
   -2.0264    0.1557    5.3811 O   0  0  0  0  0  0  0  0  0  0  0  0
    0.1452    0.1168    6.3469 C   0  0  0  0  0  0  0  0  0  0  0  0
    0.8639    0.9054    6.1107 H   0  0  0  0  0  0  0  0  0  0  0  0
   -0.3874    0.3882    7.2628 H   0  0  0  0  0  0  0  0  0  0  0  0
    0.6827   -0.8193    6.5159 H   0  0  0  0  0  0  0  0  0  0  0  0
   -0.3814   -0.4234    3.9565 N   0  0  0  0  0  0  0  0  0  0  0  0
   -1.2243   -0.5103    2.7551 C   0  0  2  0  0  0  0  0  0  0  0  0
   -0.6295   -1.4528    1.6879 C   0  0  0  0  0  0  0  0  0  0  0  0
    0.5691   -1.7271    1.6787 O   0  0  0  0  0  0  0  0  0  0  0  0
   -1.4604    0.8959    2.1859 C   0  0  0  0  0  0  0  0  0  0  0  0
    0.0924    1.8745    2.0418 S   0  0  0  0  0  0  0  0  0  0  0  0
    0.6206   -0.5539    3.8334 H   0  0  0  0  0  0  0  0  0  0  0  0
   -2.1955   -0.9352    3.0315 H   0  0  0  0  0  0  0  0  0  0  0  0
   -1.9399    0.8236    1.2059 H   0  0  0  0  0  0  0  0  0  0  0  0
   -2.1473    1.4339    2.8466 H   0  0  0  0  0  0  0  0  0  0  0  0
   -1.4665   -2.0804    0.7860 N   0  0  0  0  0  0  0  0  0  0  0  0
   -1.0998   -3.2808    0.0475 C   0  0  0  0  0  0  0  0  0  0  0  0
   -2.4596   -1.8292    0.8356 H   0  0  0  0  0  0  0  0  0  0  0  0
   -0.0717   -3.2166   -0.3172 H   0  0  0  0  0  0  0  0  0  0  0  0
   -1.1854   -4.1631    0.6898 H   0  0  0  0  0  0  0  0  0  0  0  0
   -1.7620   -3.4109   -0.8140 H   0  0  0  0  0  0  0  0  0  0  0  0
   -4.5163    0.1422   -0.0750 C   0  0  0  0  0  0  0  0  0  0  0  0
   -4.0075   -0.7836    0.5430 O   0  0  0  0  0  0  0  0  0  0  0  0
   -5.4377    1.1096    0.6425 C   0  0  0  0  0  0  0  0  0  0  0  0
   -6.4188    1.1165    0.1617 H   0  0  0  0  0  0  0  0  0  0  0  0
   -5.5599    0.8119    1.6877 H   0  0  0  0  0  0  0  0  0  0  0  0
   -5.0166    2.1176    0.6108 H   0  0  0  0  0  0  0  0  0  0  0  0
   -4.2154    0.3452   -1.4061 N   0  0  0  0  0  0  0  0  0  0  0  0
   -3.1076   -0.3296   -2.1003 C   0  0  2  0  0  0  0  0  0  0  0  0
   -1.8555    0.5679   -2.1822 C   0  0  0  0  0  0  0  0  0  0  0  0
   -1.9835    1.7825   -2.2630 O   0  0  0  0  0  0  0  0  0  0  0  0
   -3.5873   -0.7053   -3.5032 C   0  0  0  0  0  0  0  0  0  0  0  0
   -4.4847    1.2539   -1.7787 H   0  0  0  0  0  0  0  0  0  0  0  0
   -2.8289   -1.2504   -1.5793 H   0  0  0  0  0  0  0  0  0  0  0  0
   -3.8510    0.1921   -4.0723 H   0  0  0  0  0  0  0  0  0  0  0  0
   -2.8001   -1.2411   -4.0433 H   0  0  0  0  0  0  0  0  0  0  0  0
   -4.4676   -1.3528   -3.4430 H   0  0  0  0  0  0  0  0  0  0  0  0
   -0.6053   -0.0111   -2.2444 N   0  0  0  0  0  0  0  0  0  0  0  0
    0.7036    0.6600   -2.1233 C   0  0  2  0  0  0  0  0  0  0  0  0
    1.7697   -0.3214   -2.6358 C   0  0  0  0  0  0  0  0  0  0  0  0
    2.1332   -0.2803   -3.8045 O   0  0  0  0  0  0  0  0  0  0  0  0
    1.0713    1.0958   -0.6885 C   0  0  0  0  0  0  0  0  0  0  0  0
   -0.0123    2.3925    0.0282 S   0  0  0  0  0  0  0  0  0  0  0  0
   -0.5925   -1.0322   -2.3374 H   0  0  0  0  0  0  0  0  0  0  0  0
    0.7164    1.5444   -2.7702 H   0  0  0  0  0  0  0  0  0  0  0  0
    1.0296    0.2238   -0.0321 H   0  0  0  0  0  0  0  0  0  0  0  0
    2.1006    1.4683   -0.6760 H   0  0  0  0  0  0  0  0  0  0  0  0
    2.1415   -1.4018   -1.8516 N   0  0  0  0  0  0  0  0  0  0  0  0
    2.4002   -2.6919   -2.5052 C   0  0  2  0  0  0  0  0  0  0  0  0
    1.1276   -3.2733   -3.1750 C   0  0  0  0  0  0  0  0  0  0  0  0
    0.0081   -2.8602   -2.8715 O   0  0  0  0  0  0  0  0  0  0  0  0
    2.9471   -3.6525   -1.4468 C   0  0  0  0  0  0  0  0  0  0  0  0
    1.6783   -1.4445   -0.9443 H   0  0  0  0  0  0  0  0  0  0  0  0
    3.1631   -2.5606   -3.2805 H   0  0  0  0  0  0  0  0  0  0  0  0
    2.2163   -3.8055   -0.6466 H   0  0  0  0  0  0  0  0  0  0  0  0
    3.1804   -4.6231   -1.8949 H   0  0  0  0  0  0  0  0  0  0  0  0
    3.8634   -3.2468   -1.0063 H   0  0  0  0  0  0  0  0  0  0  0  0
    1.2370   -4.2630   -4.1337 N   0  0  0  0  0  0  0  0  0  0  0  0
    0.0964   -4.7769   -4.8823 C   0  0  0  0  0  0  0  0  0  0  0  0
    2.1730   -4.5071   -4.4449 H   0  0  0  0  0  0  0  0  0  0  0  0
   -0.6485   -5.2043   -4.2027 H   0  0  0  0  0  0  0  0  0  0  0  0
   -0.3728   -3.9748   -5.4620 H   0  0  0  0  0  0  0  0  0  0  0  0
    0.4200   -5.5607   -5.5740 H   0  0  0  0  0  0  0  0  0  0  0  0
  1  2  2  0  0  0  0
  1  3  1  0  0  0  0
  1  7  1  0  0  0  0
  3  4  1  0  0  0  0
  3  5  1  0  0  0  0
  3  6  1  0  0  0  0
  7  8  1  0  0  0  0
  7 13  1  0  0  0  0
  8  9  1  0  0  0  0
  8 11  1  0  0  0  0
  8 14  1  0  0  0  0
  9 10  2  0  0  0  0
  9 17  1  0  0  0  0
 11 12  1  0  0  0  0
 11 15  1  0  0  0  0
 11 16  1  0  0  0  0
 12 44  1  0  0  0  0
 17 18  1  0  0  0  0
 17 19  1  0  0  0  0
 18 20  1  0  0  0  0
 18 21  1  0  0  0  0
 18 22  1  0  0  0  0
 23 24  2  0  0  0  0
 23 25  1  0  0  0  0
 23 29  1  0  0  0  0
 25 26  1  0  0  0  0
 25 27  1  0  0  0  0
 25 28  1  0  0  0  0
 29 30  1  0  0  0  0
 29 34  1  0  0  0  0
 30 31  1  0  0  0  0
 30 33  1  0  0  0  0
 30 35  1  0  0  0  0
 31 32  2  0  0  0  0
 31 39  1  0  0  0  0
 33 36  1  0  0  0  0
 33 37  1  0  0  0  0
 33 38  1  0  0  0  0
 39 40  1  0  0  0  0
 39 45  1  0  0  0  0
 40 41  1  0  0  0  0
 40 43  1  0  0  0  0
 40 46  1  0  0  0  0
 41 42  2  0  0  0  0
 41 49  1  0  0  0  0
 43 44  1  0  0  0  0
 43 47  1  0  0  0  0
 43 48  1  0  0  0  0
 49 50  1  0  0  0  0
 49 54  1  0  0  0  0
 50 51  1  0  0  0  0
 50 53  1  0  0  0  0
 50 55  1  0  0  0  0
 51 52  2  0  0  0  0
 51 59  1  0  0  0  0
 53 56  1  0  0  0  0
 53 57  1  0  0  0  0
 53 58  1  0  0  0  0
 59 60  1  0  0  0  0
 59 61  1  0  0  0  0
 60 62  1  0  0  0  0
 60 63  1  0  0  0  0
 60 64  1  0  0  0  0
M  END
$$$$

  -OEChem-05262216053D

 64 63  0     1  0  0  0  0  0999 V2000
   -0.5776   -0.4758    4.8509 C   0  0  0  0  0  0  0  0  0  0  0  0
   -1.7390   -0.3117    5.1891 O   0  0  0  0  0  0  0  0  0  0  0  0
    0.5272   -0.4581    5.8900 C   0  0  0  0  0  0  0  0  0  0  0  0
    1.2464    0.3307    5.6564 H   0  0  0  0  0  0  0  0  0  0  0  0
    0.1074   -0.2689    6.8818 H   0  0  0  0  0  0  0  0  0  0  0  0
    1.0426   -1.4214    5.9030 H   0  0  0  0  0  0  0  0  0  0  0  0
   -0.2682   -0.6839    3.5244 N   0  0  0  0  0  0  0  0  0  0  0  0
   -1.2444   -0.6260    2.4268 C   0  0  2  0  0  0  0  0  0  0  0  0
   -0.8349   -1.5209    1.2365 C   0  0  0  0  0  0  0  0  0  0  0  0
    0.3457   -1.7701    0.9961 O   0  0  0  0  0  0  0  0  0  0  0  0
   -1.4850    0.8347    2.0030 C   0  0  0  0  0  0  0  0  0  0  0  0
    0.0295    1.8845    2.0684 S   0  0  0  0  0  0  0  0  0  0  0  0
    0.7137   -0.7740    3.2741 H   0  0  0  0  0  0  0  0  0  0  0  0
   -2.1996   -1.0285    2.7820 H   0  0  0  0  0  0  0  0  0  0  0  0
   -1.9091    0.8651    0.9954 H   0  0  0  0  0  0  0  0  0  0  0  0
   -2.2246    1.2722    2.6811 H   0  0  0  0  0  0  0  0  0  0  0  0
   -1.8186   -2.1560    0.5043 N   0  0  0  0  0  0  0  0  0  0  0  0
   -1.6153   -3.3513   -0.3053 C   0  0  0  0  0  0  0  0  0  0  0  0
   -2.7834   -1.8704    0.7027 H   0  0  0  0  0  0  0  0  0  0  0  0
   -0.5723   -3.4603   -0.6102 H   0  0  0  0  0  0  0  0  0  0  0  0
   -1.8983   -4.2412    0.2652 H   0  0  0  0  0  0  0  0  0  0  0  0
   -2.2301   -3.3049   -1.2094 H   0  0  0  0  0  0  0  0  0  0  0  0
   -4.6383    0.3848   -0.1142 C   0  0  0  0  0  0  0  0  0  0  0  0
   -4.1909   -0.5762    0.4975 O   0  0  0  0  0  0  0  0  0  0  0  0
   -5.5477    1.3713    0.5929 C   0  0  0  0  0  0  0  0  0  0  0  0
   -6.4866    1.4744    0.0433 H   0  0  0  0  0  0  0  0  0  0  0  0
   -5.7687    1.0239    1.6063 H   0  0  0  0  0  0  0  0  0  0  0  0
   -5.0606    2.3481    0.6545 H   0  0  0  0  0  0  0  0  0  0  0  0
   -4.2771    0.6124   -1.4262 N   0  0  0  0  0  0  0  0  0  0  0  0
   -3.1615   -0.0768   -2.0931 C   0  0  2  0  0  0  0  0  0  0  0  0
   -1.8703    0.7667   -2.0579 C   0  0  0  0  0  0  0  0  0  0  0  0
   -1.9533    1.9866   -2.1095 O   0  0  0  0  0  0  0  0  0  0  0  0
   -3.5730   -0.3555   -3.5393 C   0  0  0  0  0  0  0  0  0  0  0  0
   -4.4982    1.5410   -1.7807 H   0  0  0  0  0  0  0  0  0  0  0  0
   -2.9570   -1.0356   -1.6120 H   0  0  0  0  0  0  0  0  0  0  0  0
   -3.7686    0.5816   -4.0707 H   0  0  0  0  0  0  0  0  0  0  0  0
   -2.7764   -0.8931   -4.0640 H   0  0  0  0  0  0  0  0  0  0  0  0
   -4.4789   -0.9687   -3.5647 H   0  0  0  0  0  0  0  0  0  0  0  0
   -0.6374    0.1463   -2.0834 N   0  0  0  0  0  0  0  0  0  0  0  0
    0.6846    0.8032   -2.0261 C   0  0  2  0  0  0  0  0  0  0  0  0
    1.7244   -0.2383   -2.4672 C   0  0  0  0  0  0  0  0  0  0  0  0
    2.2640   -0.1448   -3.5621 O   0  0  0  0  0  0  0  0  0  0  0  0
    1.1115    1.2740   -0.6205 C   0  0  0  0  0  0  0  0  0  0  0  0
    0.0806    2.6007    0.1133 S   0  0  0  0  0  0  0  0  0  0  0  0
   -0.6506   -0.8645   -2.2571 H   0  0  0  0  0  0  0  0  0  0  0  0
    0.7095    1.6519   -2.7186 H   0  0  0  0  0  0  0  0  0  0  0  0
    1.1061    0.4229    0.0607 H   0  0  0  0  0  0  0  0  0  0  0  0
    2.1418    1.6414   -0.6671 H   0  0  0  0  0  0  0  0  0  0  0  0
    1.8508   -1.4147   -1.7449 N   0  0  0  0  0  0  0  0  0  0  0  0
    2.0930   -2.6779   -2.4508 C   0  0  2  0  0  0  0  0  0  0  0  0
    0.8510   -3.1374   -3.2554 C   0  0  0  0  0  0  0  0  0  0  0  0
   -0.2550   -2.6350   -3.0547 O   0  0  0  0  0  0  0  0  0  0  0  0
    2.4993   -3.7236   -1.4097 C   0  0  0  0  0  0  0  0  0  0  0  0
    1.2749   -1.4696   -0.8998 H   0  0  0  0  0  0  0  0  0  0  0  0
    2.9242   -2.5535   -3.1533 H   0  0  0  0  0  0  0  0  0  0  0  0
    1.7026   -3.8713   -0.6745 H   0  0  0  0  0  0  0  0  0  0  0  0
    2.7108   -4.6831   -1.8910 H   0  0  0  0  0  0  0  0  0  0  0  0
    3.3998   -3.3970   -0.8803 H   0  0  0  0  0  0  0  0  0  0  0  0
    0.9748   -4.1154   -4.2245 N   0  0  0  0  0  0  0  0  0  0  0  0
   -0.1216   -4.5170   -5.0975 C   0  0  0  0  0  0  0  0  0  0  0  0
    1.9141   -4.4343   -4.4450 H   0  0  0  0  0  0  0  0  0  0  0  0
   -0.9729   -4.8729   -4.5078 H   0  0  0  0  0  0  0  0  0  0  0  0
   -0.4479   -3.6732   -5.7146 H   0  0  0  0  0  0  0  0  0  0  0  0
    0.2001   -5.3266   -5.7598 H   0  0  0  0  0  0  0  0  0  0  0  0
  1  2  2  0  0  0  0
  1  3  1  0  0  0  0
  1  7  1  0  0  0  0
  3  4  1  0  0  0  0
  3  5  1  0  0  0  0
  3  6  1  0  0  0  0
  7  8  1  0  0  0  0
  7 13  1  0  0  0  0
  8  9  1  0  0  0  0
  8 11  1  0  0  0  0
  8 14  1  0  0  0  0
  9 10  2  0  0  0  0
  9 17  1  0  0  0  0
 11 12  1  0  0  0  0
 11 15  1  0  0  0  0
 11 16  1  0  0  0  0
 12 44  1  0  0  0  0
 17 18  1  0  0  0  0
 17 19  1  0  0  0  0
 18 20  1  0  0  0  0
 18 21  1  0  0  0  0
 18 22  1  0  0  0  0
 23 24  2  0  0  0  0
 23 25  1  0  0  0  0
 23 29  1  0  0  0  0
 25 26  1  0  0  0  0
 25 27  1  0  0  0  0
 25 28  1  0  0  0  0
 29 30  1  0  0  0  0
 29 34  1  0  0  0  0
 30 31  1  0  0  0  0
 30 33  1  0  0  0  0
 30 35  1  0  0  0  0
 31 32  2  0  0  0  0
 31 39  1  0  0  0  0
 33 36  1  0  0  0  0
 33 37  1  0  0  0  0
 33 38  1  0  0  0  0
 39 40  1  0  0  0  0
 39 45  1  0  0  0  0
 40 41  1  0  0  0  0
 40 43  1  0  0  0  0
 40 46  1  0  0  0  0
 41 42  2  0  0  0  0
 41 49  1  0  0  0  0
 43 44  1  0  0  0  0
 43 47  1  0  0  0  0
 43 48  1  0  0  0  0
 49 50  1  0  0  0  0
 49 54  1  0  0  0  0
 50 51  1  0  0  0  0
 50 53  1  0  0  0  0
 50 55  1  0  0  0  0
 51 52  2  0  0  0  0
 51 59  1  0  0  0  0
 53 56  1  0  0  0  0
 53 57  1  0  0  0  0
 53 58  1  0  0  0  0
 59 60  1  0  0  0  0
 59 61  1  0  0  0  0
 60 62  1  0  0  0  0
 60 63  1  0  0  0  0
 60 64  1  0  0  0  0
M  END
$$$$

  -OEChem-05262216053D

 64 63  0     1  0  0  0  0  0999 V2000
   -1.7355    0.0942    4.9808 C   0  0  0  0  0  0  0  0  0  0  0  0
   -2.8893    0.4027    4.7213 O   0  0  0  0  0  0  0  0  0  0  0  0
   -1.1965    0.2714    6.3871 C   0  0  0  0  0  0  0  0  0  0  0  0
   -0.3412    0.9512    6.3745 H   0  0  0  0  0  0  0  0  0  0  0  0
   -1.9701    0.6897    7.0369 H   0  0  0  0  0  0  0  0  0  0  0  0
   -0.8812   -0.6940    6.7900 H   0  0  0  0  0  0  0  0  0  0  0  0
   -0.9229   -0.4183    3.9933 N   0  0  0  0  0  0  0  0  0  0  0  0
   -1.3299   -0.5847    2.5921 C   0  0  2  0  0  0  0  0  0  0  0  0
   -0.4846   -1.6324    1.8393 C   0  0  0  0  0  0  0  0  0  0  0  0
    0.5872   -2.0193    2.2952 O   0  0  0  0  0  0  0  0  0  0  0  0
   -1.2557    0.7675    1.8723 C   0  0  0  0  0  0  0  0  0  0  0  0
    0.4060    1.5400    2.0214 S   0  0  0  0  0  0  0  0  0  0  0  0
    0.0388   -0.6542    4.2321 H   0  0  0  0  0  0  0  0  0  0  0  0
   -2.3637   -0.9433    2.5689 H   0  0  0  0  0  0  0  0  0  0  0  0
   -1.4940    0.6299    0.8148 H   0  0  0  0  0  0  0  0  0  0  0  0
   -2.0016    1.4496    2.2915 H   0  0  0  0  0  0  0  0  0  0  0  0
   -0.9547   -2.1864    0.6627 N   0  0  0  0  0  0  0  0  0  0  0  0
   -0.3719   -3.3809    0.0697 C   0  0  0  0  0  0  0  0  0  0  0  0
   -1.9209   -1.9482    0.4158 H   0  0  0  0  0  0  0  0  0  0  0  0
    0.7047   -3.2499   -0.0757 H   0  0  0  0  0  0  0  0  0  0  0  0
   -0.5352   -4.2473    0.7189 H   0  0  0  0  0  0  0  0  0  0  0  0
   -0.8326   -3.5839   -0.9016 H   0  0  0  0  0  0  0  0  0  0  0  0
   -4.1755   -0.0623    0.0384 C   0  0  0  0  0  0  0  0  0  0  0  0
   -3.6121   -1.1217    0.2783 O   0  0  0  0  0  0  0  0  0  0  0  0
   -4.9701    0.6364    1.1251 C   0  0  0  0  0  0  0  0  0  0  0  0
   -6.0070    0.7643    0.8057 H   0  0  0  0  0  0  0  0  0  0  0  0
   -4.9549    0.0465    2.0464 H   0  0  0  0  0  0  0  0  0  0  0  0
   -4.5368    1.6179    1.3337 H   0  0  0  0  0  0  0  0  0  0  0  0
   -4.0079    0.5385   -1.1915 N   0  0  0  0  0  0  0  0  0  0  0  0
   -3.0201    0.0806   -2.1799 C   0  0  2  0  0  0  0  0  0  0  0  0
   -1.6958    0.8633   -2.0687 C   0  0  0  0  0  0  0  0  0  0  0  0
   -1.7221    2.0800   -1.9542 O   0  0  0  0  0  0  0  0  0  0  0  0
   -3.6269    0.2531   -3.5734 C   0  0  0  0  0  0  0  0  0  0  0  0
   -4.2973    1.5126   -1.2539 H   0  0  0  0  0  0  0  0  0  0  0  0
   -2.7996   -0.9833   -2.0403 H   0  0  0  0  0  0  0  0  0  0  0  0
   -3.8399    1.3083   -3.7728 H   0  0  0  0  0  0  0  0  0  0  0  0
   -2.9317   -0.1114   -4.3363 H   0  0  0  0  0  0  0  0  0  0  0  0
   -4.5593   -0.3137   -3.6546 H   0  0  0  0  0  0  0  0  0  0  0  0
   -0.5027    0.1892   -2.2301 N   0  0  0  0  0  0  0  0  0  0  0  0
    0.8679    0.7468   -2.1988 C   0  0  2  0  0  0  0  0  0  0  0  0
    1.8339   -0.2899   -2.7975 C   0  0  0  0  0  0  0  0  0  0  0  0
    2.4726   -0.0159   -3.8035 O   0  0  0  0  0  0  0  0  0  0  0  0
    1.3975    1.0607   -0.7816 C   0  0  0  0  0  0  0  0  0  0  0  0
    0.5089    2.3900    0.1237 S   0  0  0  0  0  0  0  0  0  0  0  0
   -0.6055   -0.7846   -2.5325 H   0  0  0  0  0  0  0  0  0  0  0  0
    0.9060    1.6578   -2.8065 H   0  0  0  0  0  0  0  0  0  0  0  0
    1.3482    0.1480   -0.1796 H   0  0  0  0  0  0  0  0  0  0  0  0
    2.4511    1.3511   -0.8487 H   0  0  0  0  0  0  0  0  0  0  0  0
    1.7160   -1.6137   -2.4075 N   0  0  0  0  0  0  0  0  0  0  0  0
    1.7357   -2.6898   -3.4091 C   0  0  2  0  0  0  0  0  0  0  0  0
    0.3190   -2.9329   -3.9779 C   0  0  0  0  0  0  0  0  0  0  0  0
   -0.6643   -2.4878   -3.3866 O   0  0  0  0  0  0  0  0  0  0  0  0
    2.2895   -3.9553   -2.7515 C   0  0  0  0  0  0  0  0  0  0  0  0
    1.0756   -1.7520   -1.6281 H   0  0  0  0  0  0  0  0  0  0  0  0
    2.3964   -2.4266   -4.2422 H   0  0  0  0  0  0  0  0  0  0  0  0
    1.6296   -4.2994   -1.9504 H   0  0  0  0  0  0  0  0  0  0  0  0
    2.3836   -4.7582   -3.4890 H   0  0  0  0  0  0  0  0  0  0  0  0
    3.2795   -3.7581   -2.3279 H   0  0  0  0  0  0  0  0  0  0  0  0
    0.1420   -3.6286   -5.1582 N   0  0  0  0  0  0  0  0  0  0  0  0
   -1.1616   -3.8384   -5.7772 C   0  0  0  0  0  0  0  0  0  0  0  0
    0.9756   -3.9188   -5.6625 H   0  0  0  0  0  0  0  0  0  0  0  0
   -1.8205   -4.3963   -5.1036 H   0  0  0  0  0  0  0  0  0  0  0  0
   -1.6323   -2.8791   -6.0172 H   0  0  0  0  0  0  0  0  0  0  0  0
   -1.0525   -4.4104   -6.7038 H   0  0  0  0  0  0  0  0  0  0  0  0
  1  2  2  0  0  0  0
  1  3  1  0  0  0  0
  1  7  1  0  0  0  0
  3  4  1  0  0  0  0
  3  5  1  0  0  0  0
  3  6  1  0  0  0  0
  7  8  1  0  0  0  0
  7 13  1  0  0  0  0
  8  9  1  0  0  0  0
  8 11  1  0  0  0  0
  8 14  1  0  0  0  0
  9 10  2  0  0  0  0
  9 17  1  0  0  0  0
 11 12  1  0  0  0  0
 11 15  1  0  0  0  0
 11 16  1  0  0  0  0
 12 44  1  0  0  0  0
 17 18  1  0  0  0  0
 17 19  1  0  0  0  0
 18 20  1  0  0  0  0
 18 21  1  0  0  0  0
 18 22  1  0  0  0  0
 23 24  2  0  0  0  0
 23 25  1  0  0  0  0
 23 29  1  0  0  0  0
 25 26  1  0  0  0  0
 25 27  1  0  0  0  0
 25 28  1  0  0  0  0
 29 30  1  0  0  0  0
 29 34  1  0  0  0  0
 30 31  1  0  0  0  0
 30 33  1  0  0  0  0
 30 35  1  0  0  0  0
 31 32  2  0  0  0  0
 31 39  1  0  0  0  0
 33 36  1  0  0  0  0
 33 37  1  0  0  0  0
 33 38  1  0  0  0  0
 39 40  1  0  0  0  0
 39 45  1  0  0  0  0
 40 41  1  0  0  0  0
 40 43  1  0  0  0  0
 40 46  1  0  0  0  0
 41 42  2  0  0  0  0
 41 49  1  0  0  0  0
 43 44  1  0  0  0  0
 43 47  1  0  0  0  0
 43 48  1  0  0  0  0
 49 50  1  0  0  0  0
 49 54  1  0  0  0  0
 50 51  1  0  0  0  0
 50 53  1  0  0  0  0
 50 55  1  0  0  0  0
 51 52  2  0  0  0  0
 51 59  1  0  0  0  0
 53 56  1  0  0  0  0
 53 57  1  0  0  0  0
 53 58  1  0  0  0  0
 59 60  1  0  0  0  0
 59 61  1  0  0  0  0
 60 62  1  0  0  0  0
 60 63  1  0  0  0  0
 60 64  1  0  0  0  0
M  END
$$$$

  -OEChem-05262216053D

 64 63  0     1  0  0  0  0  0999 V2000
   -1.6562   -0.0277    4.9351 C   0  0  0  0  0  0  0  0  0  0  0  0
   -2.8180    0.2970    4.7408 O   0  0  0  0  0  0  0  0  0  0  0  0
   -1.0590    0.0720    6.3254 C   0  0  0  0  0  0  0  0  0  0  0  0
   -0.1883    0.7319    6.3096 H   0  0  0  0  0  0  0  0  0  0  0  0
   -1.7959    0.4777    7.0242 H   0  0  0  0  0  0  0  0  0  0  0  0
   -0.7521   -0.9180    6.6710 H   0  0  0  0  0  0  0  0  0  0  0  0
   -0.8863   -0.4868    3.8889 N   0  0  0  0  0  0  0  0  0  0  0  0
   -1.3442   -0.5673    2.4957 C   0  0  2  0  0  0  0  0  0  0  0  0
   -0.5300   -1.5740    1.6551 C   0  0  0  0  0  0  0  0  0  0  0  0
    0.5643   -1.9734    2.0411 O   0  0  0  0  0  0  0  0  0  0  0  0
   -1.2912    0.8261    1.8554 C   0  0  0  0  0  0  0  0  0  0  0  0
    0.3663    1.6058    2.0241 S   0  0  0  0  0  0  0  0  0  0  0  0
    0.0848   -0.7306    4.0754 H   0  0  0  0  0  0  0  0  0  0  0  0
   -2.3805   -0.9197    2.4876 H   0  0  0  0  0  0  0  0  0  0  0  0
   -1.5485    0.7499    0.7962 H   0  0  0  0  0  0  0  0  0  0  0  0
   -2.0347    1.4751    2.3279 H   0  0  0  0  0  0  0  0  0  0  0  0
   -1.0562   -2.0865    0.4828 N   0  0  0  0  0  0  0  0  0  0  0  0
   -0.5141   -3.2690   -0.1718 C   0  0  0  0  0  0  0  0  0  0  0  0
   -2.0340   -1.8407    0.2961 H   0  0  0  0  0  0  0  0  0  0  0  0
    0.5641   -3.1656   -0.3280 H   0  0  0  0  0  0  0  0  0  0  0  0
   -0.6942   -4.1588    0.4401 H   0  0  0  0  0  0  0  0  0  0  0  0
   -0.9936   -3.4133   -1.1443 H   0  0  0  0  0  0  0  0  0  0  0  0
   -4.2366    0.0767   -0.0256 C   0  0  0  0  0  0  0  0  0  0  0  0
   -3.7110   -1.0000    0.2213 O   0  0  0  0  0  0  0  0  0  0  0  0
   -5.0252    0.7980    1.0504 C   0  0  0  0  0  0  0  0  0  0  0  0
   -6.0728    0.8828    0.7525 H   0  0  0  0  0  0  0  0  0  0  0  0
   -4.9692    0.2473    1.9942 H   0  0  0  0  0  0  0  0  0  0  0  0
   -4.6160    1.7992    1.2073 H   0  0  0  0  0  0  0  0  0  0  0  0
   -4.0273    0.6750   -1.2504 N   0  0  0  0  0  0  0  0  0  0  0  0
   -3.0265    0.1970   -2.2161 C   0  0  2  0  0  0  0  0  0  0  0  0
   -1.6880    0.9485   -2.0659 C   0  0  0  0  0  0  0  0  0  0  0  0
   -1.6928    2.1662   -1.9626 O   0  0  0  0  0  0  0  0  0  0  0  0
   -3.5939    0.3899   -3.6239 C   0  0  0  0  0  0  0  0  0  0  0  0
   -4.2897    1.6565   -1.3159 H   0  0  0  0  0  0  0  0  0  0  0  0
   -2.8356   -0.8726   -2.0769 H   0  0  0  0  0  0  0  0  0  0  0  0
   -3.7860    1.4498   -3.8207 H   0  0  0  0  0  0  0  0  0  0  0  0
   -2.8848    0.0202   -4.3715 H   0  0  0  0  0  0  0  0  0  0  0  0
   -4.5323   -0.1622   -3.7338 H   0  0  0  0  0  0  0  0  0  0  0  0
   -0.5052    0.2476   -2.1889 N   0  0  0  0  0  0  0  0  0  0  0  0
    0.8702    0.7994   -2.1773 C   0  0  2  0  0  0  0  0  0  0  0  0
    1.8557   -0.2548   -2.7169 C   0  0  0  0  0  0  0  0  0  0  0  0
    2.6668    0.0599   -3.5759 O   0  0  0  0  0  0  0  0  0  0  0  0
    1.3918    1.1278   -0.7600 C   0  0  0  0  0  0  0  0  0  0  0  0
    0.5086    2.4686    0.1328 S   0  0  0  0  0  0  0  0  0  0  0  0
   -0.6260   -0.6999   -2.5576 H   0  0  0  0  0  0  0  0  0  0  0  0
    0.9192    1.6944   -2.8076 H   0  0  0  0  0  0  0  0  0  0  0  0
    1.3399    0.2192   -0.1514 H   0  0  0  0  0  0  0  0  0  0  0  0
    2.4465    1.4159   -0.8249 H   0  0  0  0  0  0  0  0  0  0  0  0
    1.5672   -1.5946   -2.5224 N   0  0  0  0  0  0  0  0  0  0  0  0
    1.5916   -2.5527   -3.6355 C   0  0  2  0  0  0  0  0  0  0  0  0
    0.1853   -2.6861   -4.2615 C   0  0  0  0  0  0  0  0  0  0  0  0
   -0.7967   -2.2651   -3.6505 O   0  0  0  0  0  0  0  0  0  0  0  0
    2.0819   -3.8983   -3.0973 C   0  0  0  0  0  0  0  0  0  0  0  0
    0.8418   -1.7538   -1.8260 H   0  0  0  0  0  0  0  0  0  0  0  0
    2.2841   -2.2212   -4.4169 H   0  0  0  0  0  0  0  0  0  0  0  0
    1.3895   -4.2914   -2.3470 H   0  0  0  0  0  0  0  0  0  0  0  0
    2.1635   -4.6278   -3.9087 H   0  0  0  0  0  0  0  0  0  0  0  0
    3.0680   -3.7836   -2.6360 H   0  0  0  0  0  0  0  0  0  0  0  0
    0.0157   -3.2594   -5.5069 N   0  0  0  0  0  0  0  0  0  0  0  0
   -1.2792   -3.3726   -6.1677 C   0  0  0  0  0  0  0  0  0  0  0  0
    0.8500   -3.5479   -6.0113 H   0  0  0  0  0  0  0  0  0  0  0  0
   -1.9629   -3.9842   -5.5696 H   0  0  0  0  0  0  0  0  0  0  0  0
   -1.7248   -2.3827   -6.3120 H   0  0  0  0  0  0  0  0  0  0  0  0
   -1.1632   -3.8446   -7.1483 H   0  0  0  0  0  0  0  0  0  0  0  0
  1  2  2  0  0  0  0
  1  3  1  0  0  0  0
  1  7  1  0  0  0  0
  3  4  1  0  0  0  0
  3  5  1  0  0  0  0
  3  6  1  0  0  0  0
  7  8  1  0  0  0  0
  7 13  1  0  0  0  0
  8  9  1  0  0  0  0
  8 11  1  0  0  0  0
  8 14  1  0  0  0  0
  9 10  2  0  0  0  0
  9 17  1  0  0  0  0
 11 12  1  0  0  0  0
 11 15  1  0  0  0  0
 11 16  1  0  0  0  0
 12 44  1  0  0  0  0
 17 18  1  0  0  0  0
 17 19  1  0  0  0  0
 18 20  1  0  0  0  0
 18 21  1  0  0  0  0
 18 22  1  0  0  0  0
 23 24  2  0  0  0  0
 23 25  1  0  0  0  0
 23 29  1  0  0  0  0
 25 26  1  0  0  0  0
 25 27  1  0  0  0  0
 25 28  1  0  0  0  0
 29 30  1  0  0  0  0
 29 34  1  0  0  0  0
 30 31  1  0  0  0  0
 30 33  1  0  0  0  0
 30 35  1  0  0  0  0
 31 32  2  0  0  0  0
 31 39  1  0  0  0  0
 33 36  1  0  0  0  0
 33 37  1  0  0  0  0
 33 38  1  0  0  0  0
 39 40  1  0  0  0  0
 39 45  1  0  0  0  0
 40 41  1  0  0  0  0
 40 43  1  0  0  0  0
 40 46  1  0  0  0  0
 41 42  2  0  0  0  0
 41 49  1  0  0  0  0
 43 44  1  0  0  0  0
 43 47  1  0  0  0  0
 43 48  1  0  0  0  0
 49 50  1  0  0  0  0
 49 54  1  0  0  0  0
 50 51  1  0  0  0  0
 50 53  1  0  0  0  0
 50 55  1  0  0  0  0
 51 52  2  0  0  0  0
 51 59  1  0  0  0  0
 53 56  1  0  0  0  0
 53 57  1  0  0  0  0
 53 58  1  0  0  0  0
 59 60  1  0  0  0  0
 59 61  1  0  0  0  0
 60 62  1  0  0  0  0
 60 63  1  0  0  0  0
 60 64  1  0  0  0  0
M  END
$$$$

  -OEChem-05262216053D

 64 63  0     1  0  0  0  0  0999 V2000
   -2.5523    0.5172    4.4929 C   0  0  0  0  0  0  0  0  0  0  0  0
   -3.5025    0.5227    3.7226 O   0  0  0  0  0  0  0  0  0  0  0  0
   -2.6360    1.2525    5.8167 C   0  0  0  0  0  0  0  0  0  0  0  0
   -1.9070    2.0664    5.8366 H   0  0  0  0  0  0  0  0  0  0  0  0
   -3.6368    1.6718    5.9519 H   0  0  0  0  0  0  0  0  0  0  0  0
   -2.4278    0.5658    6.6409 H   0  0  0  0  0  0  0  0  0  0  0  0
   -1.4020   -0.1596    4.1503 N   0  0  0  0  0  0  0  0  0  0  0  0
   -1.2240   -0.9197    2.9062 C   0  0  2  0  0  0  0  0  0  0  0  0
   -0.0995   -1.9734    3.0099 C   0  0  0  0  0  0  0  0  0  0  0  0
    0.4870   -2.1447    4.0732 O   0  0  0  0  0  0  0  0  0  0  0  0
   -0.9645    0.0589    1.7525 C   0  0  0  0  0  0  0  0  0  0  0  0
    0.6564    0.9078    1.9161 S   0  0  0  0  0  0  0  0  0  0  0  0
   -0.6473   -0.2031    4.8346 H   0  0  0  0  0  0  0  0  0  0  0  0
   -2.1455   -1.4723    2.6992 H   0  0  0  0  0  0  0  0  0  0  0  0
   -0.9902   -0.4849    0.8061 H   0  0  0  0  0  0  0  0  0  0  0  0
   -1.7562    0.8135    1.7178 H   0  0  0  0  0  0  0  0  0  0  0  0
    0.2190   -2.7728    1.9252 N   0  0  0  0  0  0  0  0  0  0  0  0
    1.2871   -3.7648    1.9516 C   0  0  0  0  0  0  0  0  0  0  0  0
   -0.2547   -2.5879    1.0457 H   0  0  0  0  0  0  0  0  0  0  0  0
    2.2502   -3.2864    2.1592 H   0  0  0  0  0  0  0  0  0  0  0  0
    1.0928   -4.5168    2.7236 H   0  0  0  0  0  0  0  0  0  0  0  0
    1.3554   -4.2734    0.9851 H   0  0  0  0  0  0  0  0  0  0  0  0
   -3.4054   -0.3292   -0.7101 C   0  0  0  0  0  0  0  0  0  0  0  0
   -2.6380   -0.9292   -1.4511 O   0  0  0  0  0  0  0  0  0  0  0  0
   -4.1302   -1.0673    0.3990 C   0  0  0  0  0  0  0  0  0  0  0  0
   -5.1852   -1.1832    0.1391 H   0  0  0  0  0  0  0  0  0  0  0  0
   -3.6925   -2.0581    0.5458 H   0  0  0  0  0  0  0  0  0  0  0  0
   -4.0595   -0.5076    1.3342 H   0  0  0  0  0  0  0  0  0  0  0  0
   -3.5969    1.0261   -0.8746 N   0  0  0  0  0  0  0  0  0  0  0  0
   -3.2158    1.7758   -2.0826 C   0  0  2  0  0  0  0  0  0  0  0  0
   -1.6931    2.0292   -2.2277 C   0  0  0  0  0  0  0  0  0  0  0  0
   -1.2280    3.1609   -2.2134 O   0  0  0  0  0  0  0  0  0  0  0  0
   -4.0269    3.0783   -2.0687 C   0  0  0  0  0  0  0  0  0  0  0  0
   -4.2114    1.4842   -0.2052 H   0  0  0  0  0  0  0  0  0  0  0  0
   -3.5242    1.2055   -2.9655 H   0  0  0  0  0  0  0  0  0  0  0  0
   -3.7556    3.6907   -1.2023 H   0  0  0  0  0  0  0  0  0  0  0  0
   -3.8292    3.6577   -2.9765 H   0  0  0  0  0  0  0  0  0  0  0  0
   -5.0991    2.8632   -2.0256 H   0  0  0  0  0  0  0  0  0  0  0  0
   -0.8786    0.9765   -2.5996 N   0  0  0  0  0  0  0  0  0  0  0  0
    0.5970    0.9944   -2.4963 C   0  0  2  0  0  0  0  0  0  0  0  0
    1.2294   -0.1439   -3.3273 C   0  0  0  0  0  0  0  0  0  0  0  0
    2.4410   -0.1803   -3.5001 O   0  0  0  0  0  0  0  0  0  0  0  0
    1.0550    0.7313   -1.0458 C   0  0  0  0  0  0  0  0  0  0  0  0
    0.5716    2.0290    0.1613 S   0  0  0  0  0  0  0  0  0  0  0  0
   -1.3377    0.0755   -2.4417 H   0  0  0  0  0  0  0  0  0  0  0  0
    0.9941    1.9513   -2.8527 H   0  0  0  0  0  0  0  0  0  0  0  0
    0.6499   -0.2305   -0.7223 H   0  0  0  0  0  0  0  0  0  0  0  0
    2.1470    0.6490   -1.0184 H   0  0  0  0  0  0  0  0  0  0  0  0
    0.4639   -1.1986   -3.7937 N   0  0  0  0  0  0  0  0  0  0  0  0
    0.9673   -2.2699   -4.6620 C   0  0  2  0  0  0  0  0  0  0  0  0
   -0.1031   -2.7229   -5.6765 C   0  0  0  0  0  0  0  0  0  0  0  0
   -1.2717   -2.3789   -5.5350 O   0  0  0  0  0  0  0  0  0  0  0  0
    1.4022   -3.4391   -3.7741 C   0  0  0  0  0  0  0  0  0  0  0  0
   -0.5482   -1.0736   -3.7765 H   0  0  0  0  0  0  0  0  0  0  0  0
    1.8278   -1.9115   -5.2372 H   0  0  0  0  0  0  0  0  0  0  0  0
    0.5514   -3.8216   -3.2011 H   0  0  0  0  0  0  0  0  0  0  0  0
    1.8082   -4.2533   -4.3816 H   0  0  0  0  0  0  0  0  0  0  0  0
    2.1769   -3.1130   -3.0731 H   0  0  0  0  0  0  0  0  0  0  0  0
    0.2463   -3.5101   -6.7582 N   0  0  0  0  0  0  0  0  0  0  0  0
   -0.7084   -3.9509   -7.7676 C   0  0  0  0  0  0  0  0  0  0  0  0
    1.2263   -3.7545   -6.8672 H   0  0  0  0  0  0  0  0  0  0  0  0
   -1.4924   -4.5641   -7.3110 H   0  0  0  0  0  0  0  0  0  0  0  0
   -1.1748   -3.0892   -8.2567 H   0  0  0  0  0  0  0  0  0  0  0  0
   -0.2023   -4.5491   -8.5314 H   0  0  0  0  0  0  0  0  0  0  0  0
  1  2  2  0  0  0  0
  1  3  1  0  0  0  0
  1  7  1  0  0  0  0
  3  4  1  0  0  0  0
  3  5  1  0  0  0  0
  3  6  1  0  0  0  0
  7  8  1  0  0  0  0
  7 13  1  0  0  0  0
  8  9  1  0  0  0  0
  8 11  1  0  0  0  0
  8 14  1  0  0  0  0
  9 10  2  0  0  0  0
  9 17  1  0  0  0  0
 11 12  1  0  0  0  0
 11 15  1  0  0  0  0
 11 16  1  0  0  0  0
 12 44  1  0  0  0  0
 17 18  1  0  0  0  0
 17 19  1  0  0  0  0
 18 20  1  0  0  0  0
 18 21  1  0  0  0  0
 18 22  1  0  0  0  0
 23 24  2  0  0  0  0
 23 25  1  0  0  0  0
 23 29  1  0  0  0  0
 25 26  1  0  0  0  0
 25 27  1  0  0  0  0
 25 28  1  0  0  0  0
 29 30  1  0  0  0  0
 29 34  1  0  0  0  0
 30 31  1  0  0  0  0
 30 33  1  0  0  0  0
 30 35  1  0  0  0  0
 31 32  2  0  0  0  0
 31 39  1  0  0  0  0
 33 36  1  0  0  0  0
 33 37  1  0  0  0  0
 33 38  1  0  0  0  0
 39 40  1  0  0  0  0
 39 45  1  0  0  0  0
 40 41  1  0  0  0  0
 40 43  1  0  0  0  0
 40 46  1  0  0  0  0
 41 42  2  0  0  0  0
 41 49  1  0  0  0  0
 43 44  1  0  0  0  0
 43 47  1  0  0  0  0
 43 48  1  0  0  0  0
 49 50  1  0  0  0  0
 49 54  1  0  0  0  0
 50 51  1  0  0  0  0
 50 53  1  0  0  0  0
 50 55  1  0  0  0  0
 51 52  2  0  0  0  0
 51 59  1  0  0  0  0
 53 56  1  0  0  0  0
 53 57  1  0  0  0  0
 53 58  1  0  0  0  0
 59 60  1  0  0  0  0
 59 61  1  0  0  0  0
 60 62  1  0  0  0  0
 60 63  1  0  0  0  0
 60 64  1  0  0  0  0
M  END
$$$$

  -OEChem-05262216053D

 64 63  0     1  0  0  0  0  0999 V2000
   -2.5423    0.5001    4.6476 C   0  0  0  0  0  0  0  0  0  0  0  0
   -3.5206    0.5078    3.9133 O   0  0  0  0  0  0  0  0  0  0  0  0
   -2.5835    1.2104    5.9869 C   0  0  0  0  0  0  0  0  0  0  0  0
   -1.8283    2.0000    6.0124 H   0  0  0  0  0  0  0  0  0  0  0  0
   -3.5681    1.6588    6.1459 H   0  0  0  0  0  0  0  0  0  0  0  0
   -2.3858    0.4997    6.7931 H   0  0  0  0  0  0  0  0  0  0  0  0
   -1.3985   -0.1576    4.2509 N   0  0  0  0  0  0  0  0  0  0  0  0
   -1.2604   -0.8936    2.9877 C   0  0  2  0  0  0  0  0  0  0  0  0
   -0.1317   -1.9463    3.0300 C   0  0  0  0  0  0  0  0  0  0  0  0
    0.5064   -2.1237    4.0619 O   0  0  0  0  0  0  0  0  0  0  0  0
   -1.0375    0.1062    1.8453 C   0  0  0  0  0  0  0  0  0  0  0  0
    0.5725    0.9780    1.9903 S   0  0  0  0  0  0  0  0  0  0  0  0
   -0.6180   -0.2042    4.9054 H   0  0  0  0  0  0  0  0  0  0  0  0
   -2.1880   -1.4431    2.8005 H   0  0  0  0  0  0  0  0  0  0  0  0
   -1.0698   -0.4243    0.8915 H   0  0  0  0  0  0  0  0  0  0  0  0
   -1.8415    0.8485    1.8364 H   0  0  0  0  0  0  0  0  0  0  0  0
    0.1359   -2.7342    1.9232 N   0  0  0  0  0  0  0  0  0  0  0  0
    1.2205   -3.7076    1.8805 C   0  0  0  0  0  0  0  0  0  0  0  0
   -0.3783   -2.5396    1.0687 H   0  0  0  0  0  0  0  0  0  0  0  0
    2.1876   -3.2096    2.0094 H   0  0  0  0  0  0  0  0  0  0  0  0
    1.0991   -4.4537    2.6731 H   0  0  0  0  0  0  0  0  0  0  0  0
    1.2240   -4.2271    0.9171 H   0  0  0  0  0  0  0  0  0  0  0  0
   -3.4296   -0.2682   -0.6520 C   0  0  0  0  0  0  0  0  0  0  0  0
   -2.6583   -0.9080   -1.3550 O   0  0  0  0  0  0  0  0  0  0  0  0
   -4.1475   -0.9403    0.5034 C   0  0  0  0  0  0  0  0  0  0  0  0
   -5.1956   -1.1051    0.2422 H   0  0  0  0  0  0  0  0  0  0  0  0
   -3.6845   -1.9047    0.7279 H   0  0  0  0  0  0  0  0  0  0  0  0
   -4.1036   -0.3113    1.3961 H   0  0  0  0  0  0  0  0  0  0  0  0
   -3.6312    1.0719   -0.9045 N   0  0  0  0  0  0  0  0  0  0  0  0
   -3.2191    1.7485   -2.1443 C   0  0  2  0  0  0  0  0  0  0  0  0
   -1.6940    2.0023   -2.2546 C   0  0  0  0  0  0  0  0  0  0  0  0
   -1.2331    3.1358   -2.2437 O   0  0  0  0  0  0  0  0  0  0  0  0
   -4.0364    3.0434   -2.2409 C   0  0  0  0  0  0  0  0  0  0  0  0
   -4.2506    1.5712   -0.2704 H   0  0  0  0  0  0  0  0  0  0  0  0
   -3.4960    1.1222   -2.9991 H   0  0  0  0  0  0  0  0  0  0  0  0
   -3.8041    3.7105   -1.4041 H   0  0  0  0  0  0  0  0  0  0  0  0
   -3.8054    3.5672   -3.1742 H   0  0  0  0  0  0  0  0  0  0  0  0
   -5.1078    2.8225   -2.2269 H   0  0  0  0  0  0  0  0  0  0  0  0
   -0.8649    0.9505   -2.5991 N   0  0  0  0  0  0  0  0  0  0  0  0
    0.6072    0.9770   -2.4401 C   0  0  2  0  0  0  0  0  0  0  0  0
    1.2734   -0.1589   -3.2518 C   0  0  0  0  0  0  0  0  0  0  0  0
    2.4862   -0.3273   -3.2160 O   0  0  0  0  0  0  0  0  0  0  0  0
    1.0063    0.7354   -0.9661 C   0  0  0  0  0  0  0  0  0  0  0  0
    0.4701    2.0471    0.2047 S   0  0  0  0  0  0  0  0  0  0  0  0
   -1.3199    0.0468   -2.4400 H   0  0  0  0  0  0  0  0  0  0  0  0
    1.0121    1.9340   -2.7874 H   0  0  0  0  0  0  0  0  0  0  0  0
    0.5915   -0.2243   -0.6472 H   0  0  0  0  0  0  0  0  0  0  0  0
    2.0963    0.6594   -0.8896 H   0  0  0  0  0  0  0  0  0  0  0  0
    0.5090   -1.0364   -4.0002 N   0  0  0  0  0  0  0  0  0  0  0  0
    1.0583   -2.0216   -4.9409 C   0  0  2  0  0  0  0  0  0  0  0  0
    0.1358   -2.1999   -6.1656 C   0  0  0  0  0  0  0  0  0  0  0  0
   -1.0109   -1.7651   -6.1394 O   0  0  0  0  0  0  0  0  0  0  0  0
    1.2404   -3.3498   -4.2011 C   0  0  0  0  0  0  0  0  0  0  0  0
   -0.4645   -0.7695   -4.1498 H   0  0  0  0  0  0  0  0  0  0  0  0
    2.0300   -1.6789   -5.3126 H   0  0  0  0  0  0  0  0  0  0  0  0
    0.2780   -3.7143   -3.8278 H   0  0  0  0  0  0  0  0  0  0  0  0
    1.6654   -4.1062   -4.8677 H   0  0  0  0  0  0  0  0  0  0  0  0
    1.9182   -3.2194   -3.3516 H   0  0  0  0  0  0  0  0  0  0  0  0
    0.5948   -2.8314   -7.3073 N   0  0  0  0  0  0  0  0  0  0  0  0
   -0.2142   -2.9953   -8.5096 C   0  0  0  0  0  0  0  0  0  0  0  0
    1.5584   -3.1537   -7.3144 H   0  0  0  0  0  0  0  0  0  0  0  0
   -1.1059   -3.5928   -8.2928 H   0  0  0  0  0  0  0  0  0  0  0  0
   -0.5287   -2.0200   -8.8961 H   0  0  0  0  0  0  0  0  0  0  0  0
    0.3621   -3.5053   -9.2875 H   0  0  0  0  0  0  0  0  0  0  0  0
  1  2  2  0  0  0  0
  1  3  1  0  0  0  0
  1  7  1  0  0  0  0
  3  4  1  0  0  0  0
  3  5  1  0  0  0  0
  3  6  1  0  0  0  0
  7  8  1  0  0  0  0
  7 13  1  0  0  0  0
  8  9  1  0  0  0  0
  8 11  1  0  0  0  0
  8 14  1  0  0  0  0
  9 10  2  0  0  0  0
  9 17  1  0  0  0  0
 11 12  1  0  0  0  0
 11 15  1  0  0  0  0
 11 16  1  0  0  0  0
 12 44  1  0  0  0  0
 17 18  1  0  0  0  0
 17 19  1  0  0  0  0
 18 20  1  0  0  0  0
 18 21  1  0  0  0  0
 18 22  1  0  0  0  0
 23 24  2  0  0  0  0
 23 25  1  0  0  0  0
 23 29  1  0  0  0  0
 25 26  1  0  0  0  0
 25 27  1  0  0  0  0
 25 28  1  0  0  0  0
 29 30  1  0  0  0  0
 29 34  1  0  0  0  0
 30 31  1  0  0  0  0
 30 33  1  0  0  0  0
 30 35  1  0  0  0  0
 31 32  2  0  0  0  0
 31 39  1  0  0  0  0
 33 36  1  0  0  0  0
 33 37  1  0  0  0  0
 33 38  1  0  0  0  0
 39 40  1  0  0  0  0
 39 45  1  0  0  0  0
 40 41  1  0  0  0  0
 40 43  1  0  0  0  0
 40 46  1  0  0  0  0
 41 42  2  0  0  0  0
 41 49  1  0  0  0  0
 43 44  1  0  0  0  0
 43 47  1  0  0  0  0
 43 48  1  0  0  0  0
 49 50  1  0  0  0  0
 49 54  1  0  0  0  0
 50 51  1  0  0  0  0
 50 53  1  0  0  0  0
 50 55  1  0  0  0  0
 51 52  2  0  0  0  0
 51 59  1  0  0  0  0
 53 56  1  0  0  0  0
 53 57  1  0  0  0  0
 53 58  1  0  0  0  0
 59 60  1  0  0  0  0
 59 61  1  0  0  0  0
 60 62  1  0  0  0  0
 60 63  1  0  0  0  0
 60 64  1  0  0  0  0
M  END
$$$$

  -OEChem-05262216053D

 64 63  0     1  0  0  0  0  0999 V2000
   -2.6218    0.4315    4.6383 C   0  0  0  0  0  0  0  0  0  0  0  0
   -3.5750    0.4188    3.8720 O   0  0  0  0  0  0  0  0  0  0  0  0
   -2.7267    1.1281    5.9815 C   0  0  0  0  0  0  0  0  0  0  0  0
   -1.9956    1.9382    6.0386 H   0  0  0  0  0  0  0  0  0  0  0  0
   -3.7281    1.5470    6.1126 H   0  0  0  0  0  0  0  0  0  0  0  0
   -2.5341    0.4158    6.7873 H   0  0  0  0  0  0  0  0  0  0  0  0
   -1.4490   -0.1951    4.2777 N   0  0  0  0  0  0  0  0  0  0  0  0
   -1.2552   -0.9425    3.0282 C   0  0  2  0  0  0  0  0  0  0  0  0
   -0.0954   -1.9581    3.1240 C   0  0  0  0  0  0  0  0  0  0  0  0
    0.4849   -2.1278    4.1909 O   0  0  0  0  0  0  0  0  0  0  0  0
   -1.0362    0.0487    1.8770 C   0  0  0  0  0  0  0  0  0  0  0  0
    0.5518    0.9576    2.0350 S   0  0  0  0  0  0  0  0  0  0  0  0
   -0.6958   -0.2352    4.9640 H   0  0  0  0  0  0  0  0  0  0  0  0
   -2.1596   -1.5241    2.8239 H   0  0  0  0  0  0  0  0  0  0  0  0
   -1.0469   -0.4916    0.9279 H   0  0  0  0  0  0  0  0  0  0  0  0
   -1.8544    0.7744    1.8503 H   0  0  0  0  0  0  0  0  0  0  0  0
    0.2663   -2.7233    2.0285 N   0  0  0  0  0  0  0  0  0  0  0  0
    1.3942   -3.6473    2.0421 C   0  0  0  0  0  0  0  0  0  0  0  0
   -0.1873   -2.5218    1.1421 H   0  0  0  0  0  0  0  0  0  0  0  0
    2.3272   -3.1092    2.2407 H   0  0  0  0  0  0  0  0  0  0  0  0
    1.2564   -4.4112    2.8147 H   0  0  0  0  0  0  0  0  0  0  0  0
    1.4842   -4.1499    1.0741 H   0  0  0  0  0  0  0  0  0  0  0  0
   -3.4059   -0.2471   -0.7111 C   0  0  0  0  0  0  0  0  0  0  0  0
   -2.6438   -0.8735   -1.4354 O   0  0  0  0  0  0  0  0  0  0  0  0
   -4.1225   -0.9420    0.4310 C   0  0  0  0  0  0  0  0  0  0  0  0
   -5.1716   -1.0996    0.1689 H   0  0  0  0  0  0  0  0  0  0  0  0
   -3.6606   -1.9113    0.6356 H   0  0  0  0  0  0  0  0  0  0  0  0
   -4.0744   -0.3302    1.3349 H   0  0  0  0  0  0  0  0  0  0  0  0
   -3.6071    1.0979   -0.9348 N   0  0  0  0  0  0  0  0  0  0  0  0
   -3.1924    1.8018   -2.1579 C   0  0  2  0  0  0  0  0  0  0  0  0
   -1.6680    2.0649   -2.2485 C   0  0  0  0  0  0  0  0  0  0  0  0
   -1.2107    3.1993   -2.2085 O   0  0  0  0  0  0  0  0  0  0  0  0
   -4.0162    3.0938   -2.2322 C   0  0  0  0  0  0  0  0  0  0  0  0
   -4.2178    1.5866   -0.2844 H   0  0  0  0  0  0  0  0  0  0  0  0
   -3.4592    1.1914   -3.0274 H   0  0  0  0  0  0  0  0  0  0  0  0
   -3.7841    3.7483   -1.3855 H   0  0  0  0  0  0  0  0  0  0  0  0
   -3.7907    3.6338   -3.1575 H   0  0  0  0  0  0  0  0  0  0  0  0
   -5.0867    2.8680   -2.2183 H   0  0  0  0  0  0  0  0  0  0  0  0
   -0.8293    1.0235   -2.5992 N   0  0  0  0  0  0  0  0  0  0  0  0
    0.6372    1.0444   -2.3994 C   0  0  2  0  0  0  0  0  0  0  0  0
    1.3051   -0.0765   -3.2324 C   0  0  0  0  0  0  0  0  0  0  0  0
    2.4546   -0.4413   -3.0157 O   0  0  0  0  0  0  0  0  0  0  0  0
    0.9912    0.7703   -0.9184 C   0  0  0  0  0  0  0  0  0  0  0  0
    0.4231    2.0539    0.2674 S   0  0  0  0  0  0  0  0  0  0  0  0
   -1.2864    0.1136   -2.4842 H   0  0  0  0  0  0  0  0  0  0  0  0
    1.0544    2.0072   -2.7138 H   0  0  0  0  0  0  0  0  0  0  0  0
    0.5676   -0.1962   -0.6345 H   0  0  0  0  0  0  0  0  0  0  0  0
    2.0781    0.6938   -0.8092 H   0  0  0  0  0  0  0  0  0  0  0  0
    0.5973   -0.7075   -4.2386 N   0  0  0  0  0  0  0  0  0  0  0  0
    1.1656   -1.6743   -5.1853 C   0  0  2  0  0  0  0  0  0  0  0  0
    0.4372   -1.6243   -6.5447 C   0  0  0  0  0  0  0  0  0  0  0  0
   -0.6423   -1.0508   -6.6448 O   0  0  0  0  0  0  0  0  0  0  0  0
    1.0618   -3.0739   -4.5717 C   0  0  0  0  0  0  0  0  0  0  0  0
   -0.2975   -0.2887   -4.4956 H   0  0  0  0  0  0  0  0  0  0  0  0
    2.2186   -1.4348   -5.3687 H   0  0  0  0  0  0  0  0  0  0  0  0
    0.0141   -3.3327   -4.3875 H   0  0  0  0  0  0  0  0  0  0  0  0
    1.4936   -3.8213   -5.2438 H   0  0  0  0  0  0  0  0  0  0  0  0
    1.6028   -3.1131   -3.6210 H   0  0  0  0  0  0  0  0  0  0  0  0
    0.9979   -2.2152   -7.6621 N   0  0  0  0  0  0  0  0  0  0  0  0
    0.3752   -2.1864   -8.9801 C   0  0  0  0  0  0  0  0  0  0  0  0
    1.9055   -2.6591   -7.5555 H   0  0  0  0  0  0  0  0  0  0  0  0
   -0.6028   -2.6784   -8.9530 H   0  0  0  0  0  0  0  0  0  0  0  0
    0.2410   -1.1535   -9.3181 H   0  0  0  0  0  0  0  0  0  0  0  0
    1.0040   -2.7087   -9.7074 H   0  0  0  0  0  0  0  0  0  0  0  0
  1  2  2  0  0  0  0
  1  3  1  0  0  0  0
  1  7  1  0  0  0  0
  3  4  1  0  0  0  0
  3  5  1  0  0  0  0
  3  6  1  0  0  0  0
  7  8  1  0  0  0  0
  7 13  1  0  0  0  0
  8  9  1  0  0  0  0
  8 11  1  0  0  0  0
  8 14  1  0  0  0  0
  9 10  2  0  0  0  0
  9 17  1  0  0  0  0
 11 12  1  0  0  0  0
 11 15  1  0  0  0  0
 11 16  1  0  0  0  0
 12 44  1  0  0  0  0
 17 18  1  0  0  0  0
 17 19  1  0  0  0  0
 18 20  1  0  0  0  0
 18 21  1  0  0  0  0
 18 22  1  0  0  0  0
 23 24  2  0  0  0  0
 23 25  1  0  0  0  0
 23 29  1  0  0  0  0
 25 26  1  0  0  0  0
 25 27  1  0  0  0  0
 25 28  1  0  0  0  0
 29 30  1  0  0  0  0
 29 34  1  0  0  0  0
 30 31  1  0  0  0  0
 30 33  1  0  0  0  0
 30 35  1  0  0  0  0
 31 32  2  0  0  0  0
 31 39  1  0  0  0  0
 33 36  1  0  0  0  0
 33 37  1  0  0  0  0
 33 38  1  0  0  0  0
 39 40  1  0  0  0  0
 39 45  1  0  0  0  0
 40 41  1  0  0  0  0
 40 43  1  0  0  0  0
 40 46  1  0  0  0  0
 41 42  2  0  0  0  0
 41 49  1  0  0  0  0
 43 44  1  0  0  0  0
 43 47  1  0  0  0  0
 43 48  1  0  0  0  0
 49 50  1  0  0  0  0
 49 54  1  0  0  0  0
 50 51  1  0  0  0  0
 50 53  1  0  0  0  0
 50 55  1  0  0  0  0
 51 52  2  0  0  0  0
 51 59  1  0  0  0  0
 53 56  1  0  0  0  0
 53 57  1  0  0  0  0
 53 58  1  0  0  0  0
 59 60  1  0  0  0  0
 59 61  1  0  0  0  0
 60 62  1  0  0  0  0
 60 63  1  0  0  0  0
 60 64  1  0  0  0  0
M  END
$$$$

  -OEChem-05262216053D

 64 63  0     1  0  0  0  0  0999 V2000
   -2.6756    0.4099    4.6726 C   0  0  0  0  0  0  0  0  0  0  0  0
   -3.6277    0.4030    3.9046 O   0  0  0  0  0  0  0  0  0  0  0  0
   -2.7935    1.0687    6.0340 C   0  0  0  0  0  0  0  0  0  0  0  0
   -2.0669    1.8804    6.1194 H   0  0  0  0  0  0  0  0  0  0  0  0
   -3.7979    1.4801    6.1688 H   0  0  0  0  0  0  0  0  0  0  0  0
   -2.6030    0.3353    6.8213 H   0  0  0  0  0  0  0  0  0  0  0  0
   -1.4918   -0.1854    4.2948 N   0  0  0  0  0  0  0  0  0  0  0  0
   -1.2831   -0.8825    3.0188 C   0  0  2  0  0  0  0  0  0  0  0  0
   -0.1063   -1.8819    3.0721 C   0  0  0  0  0  0  0  0  0  0  0  0
    0.4752   -2.0888    4.1317 O   0  0  0  0  0  0  0  0  0  0  0  0
   -1.0778    0.1554    1.9068 C   0  0  0  0  0  0  0  0  0  0  0  0
    0.5049    1.0690    2.0953 S   0  0  0  0  0  0  0  0  0  0  0  0
   -0.7378   -0.2332    4.9796 H   0  0  0  0  0  0  0  0  0  0  0  0
   -2.1774   -1.4705    2.7908 H   0  0  0  0  0  0  0  0  0  0  0  0
   -1.0849   -0.3497    0.9388 H   0  0  0  0  0  0  0  0  0  0  0  0
   -1.9033    0.8737    1.9072 H   0  0  0  0  0  0  0  0  0  0  0  0
    0.2750   -2.5846    1.9415 N   0  0  0  0  0  0  0  0  0  0  0  0
    1.4320   -3.4713    1.9087 C   0  0  0  0  0  0  0  0  0  0  0  0
   -0.1794   -2.3480    1.0640 H   0  0  0  0  0  0  0  0  0  0  0  0
    2.3491   -2.9124    2.1233 H   0  0  0  0  0  0  0  0  0  0  0  0
    1.3248   -4.2715    2.6489 H   0  0  0  0  0  0  0  0  0  0  0  0
    1.5296   -3.9283    0.9191 H   0  0  0  0  0  0  0  0  0  0  0  0
   -3.3852   -0.3125   -0.6989 C   0  0  0  0  0  0  0  0  0  0  0  0
   -2.6026   -0.9234   -1.4143 O   0  0  0  0  0  0  0  0  0  0  0  0
   -4.0998   -1.0215    0.4357 C   0  0  0  0  0  0  0  0  0  0  0  0
   -5.1438   -1.1952    0.1636 H   0  0  0  0  0  0  0  0  0  0  0  0
   -3.6239   -1.9839    0.6420 H   0  0  0  0  0  0  0  0  0  0  0  0
   -4.0705   -0.4112    1.3418 H   0  0  0  0  0  0  0  0  0  0  0  0
   -3.6078    1.0294   -0.9199 N   0  0  0  0  0  0  0  0  0  0  0  0
   -3.1871    1.7476   -2.1328 C   0  0  2  0  0  0  0  0  0  0  0  0
   -1.6665    2.0387   -2.2023 C   0  0  0  0  0  0  0  0  0  0  0  0
   -1.2334    3.1826   -2.1629 O   0  0  0  0  0  0  0  0  0  0  0  0
   -4.0315    3.0267   -2.2077 C   0  0  0  0  0  0  0  0  0  0  0  0
   -4.2355    1.5043   -0.2753 H   0  0  0  0  0  0  0  0  0  0  0  0
   -3.4312    1.1390   -3.0102 H   0  0  0  0  0  0  0  0  0  0  0  0
   -3.8299    3.6721   -1.3461 H   0  0  0  0  0  0  0  0  0  0  0  0
   -3.7940    3.5845   -3.1195 H   0  0  0  0  0  0  0  0  0  0  0  0
   -5.0982    2.7835   -2.2225 H   0  0  0  0  0  0  0  0  0  0  0  0
   -0.8006    1.0148   -2.5399 N   0  0  0  0  0  0  0  0  0  0  0  0
    0.6635    1.0643   -2.3309 C   0  0  2  0  0  0  0  0  0  0  0  0
    1.3420   -0.0547   -3.1605 C   0  0  0  0  0  0  0  0  0  0  0  0
    2.3792   -0.6010   -2.8014 O   0  0  0  0  0  0  0  0  0  0  0  0
    1.0227    0.8329   -0.8431 C   0  0  0  0  0  0  0  0  0  0  0  0
    0.4309    2.1375    0.3086 S   0  0  0  0  0  0  0  0  0  0  0  0
   -1.2387    0.0932   -2.4487 H   0  0  0  0  0  0  0  0  0  0  0  0
    1.0626    2.0292   -2.6616 H   0  0  0  0  0  0  0  0  0  0  0  0
    0.6197   -0.1350   -0.5354 H   0  0  0  0  0  0  0  0  0  0  0  0
    2.1113    0.7816   -0.7332 H   0  0  0  0  0  0  0  0  0  0  0  0
    0.7621   -0.4723   -4.3440 N   0  0  0  0  0  0  0  0  0  0  0  0
    1.3684   -1.4145   -5.2926 C   0  0  2  0  0  0  0  0  0  0  0  0
    0.9302   -1.1178   -6.7421 C   0  0  0  0  0  0  0  0  0  0  0  0
   -0.0497   -0.4124   -6.9566 O   0  0  0  0  0  0  0  0  0  0  0  0
    0.9617   -2.8350   -4.8898 C   0  0  0  0  0  0  0  0  0  0  0  0
   -0.0341    0.0713   -4.6801 H   0  0  0  0  0  0  0  0  0  0  0  0
    2.4594   -1.3244   -5.2554 H   0  0  0  0  0  0  0  0  0  0  0  0
   -0.1271   -2.9443   -4.9251 H   0  0  0  0  0  0  0  0  0  0  0  0
    1.4086   -3.5699   -5.5662 H   0  0  0  0  0  0  0  0  0  0  0  0
    1.3007   -3.0528   -3.8721 H   0  0  0  0  0  0  0  0  0  0  0  0
    1.6392   -1.6364   -7.8103 N   0  0  0  0  0  0  0  0  0  0  0  0
    1.2886   -1.3800   -9.2022 C   0  0  0  0  0  0  0  0  0  0  0  0
    2.4613   -2.1967   -7.6044 H   0  0  0  0  0  0  0  0  0  0  0  0
    0.2855   -1.7613   -9.4200 H   0  0  0  0  0  0  0  0  0  0  0  0
    1.3105   -0.3053   -9.4120 H   0  0  0  0  0  0  0  0  0  0  0  0
    1.9993   -1.8761   -9.8700 H   0  0  0  0  0  0  0  0  0  0  0  0
  1  2  2  0  0  0  0
  1  3  1  0  0  0  0
  1  7  1  0  0  0  0
  3  4  1  0  0  0  0
  3  5  1  0  0  0  0
  3  6  1  0  0  0  0
  7  8  1  0  0  0  0
  7 13  1  0  0  0  0
  8  9  1  0  0  0  0
  8 11  1  0  0  0  0
  8 14  1  0  0  0  0
  9 10  2  0  0  0  0
  9 17  1  0  0  0  0
 11 12  1  0  0  0  0
 11 15  1  0  0  0  0
 11 16  1  0  0  0  0
 12 44  1  0  0  0  0
 17 18  1  0  0  0  0
 17 19  1  0  0  0  0
 18 20  1  0  0  0  0
 18 21  1  0  0  0  0
 18 22  1  0  0  0  0
 23 24  2  0  0  0  0
 23 25  1  0  0  0  0
 23 29  1  0  0  0  0
 25 26  1  0  0  0  0
 25 27  1  0  0  0  0
 25 28  1  0  0  0  0
 29 30  1  0  0  0  0
 29 34  1  0  0  0  0
 30 31  1  0  0  0  0
 30 33  1  0  0  0  0
 30 35  1  0  0  0  0
 31 32  2  0  0  0  0
 31 39  1  0  0  0  0
 33 36  1  0  0  0  0
 33 37  1  0  0  0  0
 33 38  1  0  0  0  0
 39 40  1  0  0  0  0
 39 45  1  0  0  0  0
 40 41  1  0  0  0  0
 40 43  1  0  0  0  0
 40 46  1  0  0  0  0
 41 42  2  0  0  0  0
 41 49  1  0  0  0  0
 43 44  1  0  0  0  0
 43 47  1  0  0  0  0
 43 48  1  0  0  0  0
 49 50  1  0  0  0  0
 49 54  1  0  0  0  0
 50 51  1  0  0  0  0
 50 53  1  0  0  0  0
 50 55  1  0  0  0  0
 51 52  2  0  0  0  0
 51 59  1  0  0  0  0
 53 56  1  0  0  0  0
 53 57  1  0  0  0  0
 53 58  1  0  0  0  0
 59 60  1  0  0  0  0
 59 61  1  0  0  0  0
 60 62  1  0  0  0  0
 60 63  1  0  0  0  0
 60 64  1  0  0  0  0
M  END
$$$$

  -OEChem-05262216053D

 64 63  0     1  0  0  0  0  0999 V2000
   -2.7312    0.2808    4.6788 C   0  0  0  0  0  0  0  0  0  0  0  0
   -3.6791    0.2854    3.9058 O   0  0  0  0  0  0  0  0  0  0  0  0
   -2.8776    0.8535    6.0755 C   0  0  0  0  0  0  0  0  0  0  0  0
   -2.2211    1.7192    6.1918 H   0  0  0  0  0  0  0  0  0  0  0  0
   -3.9104    1.1682    6.2486 H   0  0  0  0  0  0  0  0  0  0  0  0
   -2.6097    0.0997    6.8198 H   0  0  0  0  0  0  0  0  0  0  0  0
   -1.5232   -0.2424    4.2725 N   0  0  0  0  0  0  0  0  0  0  0  0
   -1.2816   -0.8527    2.9590 C   0  0  2  0  0  0  0  0  0  0  0  0
   -0.0661   -1.8062    2.9610 C   0  0  0  0  0  0  0  0  0  0  0  0
    0.5257   -2.0416    4.0090 O   0  0  0  0  0  0  0  0  0  0  0  0
   -1.1128    0.2575    1.9133 C   0  0  0  0  0  0  0  0  0  0  0  0
    0.4445    1.2030    2.1533 S   0  0  0  0  0  0  0  0  0  0  0  0
   -0.7701   -0.2997    4.9573 H   0  0  0  0  0  0  0  0  0  0  0  0
   -2.1503   -1.4613    2.6906 H   0  0  0  0  0  0  0  0  0  0  0  0
   -1.1096   -0.1897    0.9177 H   0  0  0  0  0  0  0  0  0  0  0  0
   -1.9594    0.9491    1.9573 H   0  0  0  0  0  0  0  0  0  0  0  0
    0.3425   -2.4329    1.7959 N   0  0  0  0  0  0  0  0  0  0  0  0
    1.5446   -3.2538    1.7165 C   0  0  0  0  0  0  0  0  0  0  0  0
   -0.1224   -2.1710    0.9311 H   0  0  0  0  0  0  0  0  0  0  0  0
    2.4304   -2.6585    1.9620 H   0  0  0  0  0  0  0  0  0  0  0  0
    1.4818   -4.0964    2.4131 H   0  0  0  0  0  0  0  0  0  0  0  0
    1.6651   -3.6517    0.7041 H   0  0  0  0  0  0  0  0  0  0  0  0
   -3.3909   -0.3017   -0.7024 C   0  0  0  0  0  0  0  0  0  0  0  0
   -2.6036   -0.9045   -1.4191 O   0  0  0  0  0  0  0  0  0  0  0  0
   -4.1148   -1.0250    0.4176 C   0  0  0  0  0  0  0  0  0  0  0  0
   -5.1518   -1.2130    0.1287 H   0  0  0  0  0  0  0  0  0  0  0  0
   -3.6285   -1.9812    0.6282 H   0  0  0  0  0  0  0  0  0  0  0  0
   -4.1084   -0.4185    1.3266 H   0  0  0  0  0  0  0  0  0  0  0  0
   -3.6007    1.0455   -0.9047 N   0  0  0  0  0  0  0  0  0  0  0  0
   -3.1770    1.7747   -2.1106 C   0  0  2  0  0  0  0  0  0  0  0  0
   -1.6563    2.0690   -2.1753 C   0  0  0  0  0  0  0  0  0  0  0  0
   -1.2280    3.2153   -2.1597 O   0  0  0  0  0  0  0  0  0  0  0  0
   -4.0225    3.0538   -2.1751 C   0  0  0  0  0  0  0  0  0  0  0  0
   -4.2339    1.5134   -0.2605 H   0  0  0  0  0  0  0  0  0  0  0  0
   -3.4192    1.1740   -2.9937 H   0  0  0  0  0  0  0  0  0  0  0  0
   -3.8090    3.7004   -1.3174 H   0  0  0  0  0  0  0  0  0  0  0  0
   -3.7980    3.6109   -3.0906 H   0  0  0  0  0  0  0  0  0  0  0  0
   -5.0892    2.8105   -2.1742 H   0  0  0  0  0  0  0  0  0  0  0  0
   -0.7786    1.0450   -2.4804 N   0  0  0  0  0  0  0  0  0  0  0  0
    0.6818    1.1165   -2.2583 C   0  0  2  0  0  0  0  0  0  0  0  0
    1.3640   -0.0200   -3.0596 C   0  0  0  0  0  0  0  0  0  0  0  0
    2.2266   -0.7469   -2.5781 O   0  0  0  0  0  0  0  0  0  0  0  0
    1.0340    0.9305   -0.7626 C   0  0  0  0  0  0  0  0  0  0  0  0
    0.4225    2.2555    0.3552 S   0  0  0  0  0  0  0  0  0  0  0  0
   -1.2092    0.1196   -2.3900 H   0  0  0  0  0  0  0  0  0  0  0  0
    1.0751    2.0754   -2.6119 H   0  0  0  0  0  0  0  0  0  0  0  0
    0.6433   -0.0347   -0.4322 H   0  0  0  0  0  0  0  0  0  0  0  0
    2.1227    0.8951   -0.6495 H   0  0  0  0  0  0  0  0  0  0  0  0
    0.9726   -0.2474   -4.3652 N   0  0  0  0  0  0  0  0  0  0  0  0
    1.6099   -1.1992   -5.2833 C   0  0  2  0  0  0  0  0  0  0  0  0
    1.5059   -0.7276   -6.7485 C   0  0  0  0  0  0  0  0  0  0  0  0
    0.6885    0.1303   -7.0630 O   0  0  0  0  0  0  0  0  0  0  0  0
    0.9393   -2.5657   -5.1106 C   0  0  0  0  0  0  0  0  0  0  0  0
    0.3143    0.4185   -4.7721 H   0  0  0  0  0  0  0  0  0  0  0  0
    2.6746   -1.2858   -5.0417 H   0  0  0  0  0  0  0  0  0  0  0  0
   -0.1230   -2.5061   -5.3692 H   0  0  0  0  0  0  0  0  0  0  0  0
    1.4140   -3.3114   -5.7555 H   0  0  0  0  0  0  0  0  0  0  0  0
    1.0266   -2.9031   -4.0729 H   0  0  0  0  0  0  0  0  0  0  0  0
    2.3382   -1.2588   -7.7164 N   0  0  0  0  0  0  0  0  0  0  0  0
    2.3132   -0.8360   -9.1114 C   0  0  0  0  0  0  0  0  0  0  0  0
    3.0231   -1.9493   -7.4229 H   0  0  0  0  0  0  0  0  0  0  0  0
    1.3340   -1.0421   -9.5563 H   0  0  0  0  0  0  0  0  0  0  0  0
    2.5180    0.2370   -9.1910 H   0  0  0  0  0  0  0  0  0  0  0  0
    3.0735   -1.3758   -9.6840 H   0  0  0  0  0  0  0  0  0  0  0  0
  1  2  2  0  0  0  0
  1  3  1  0  0  0  0
  1  7  1  0  0  0  0
  3  4  1  0  0  0  0
  3  5  1  0  0  0  0
  3  6  1  0  0  0  0
  7  8  1  0  0  0  0
  7 13  1  0  0  0  0
  8  9  1  0  0  0  0
  8 11  1  0  0  0  0
  8 14  1  0  0  0  0
  9 10  2  0  0  0  0
  9 17  1  0  0  0  0
 11 12  1  0  0  0  0
 11 15  1  0  0  0  0
 11 16  1  0  0  0  0
 12 44  1  0  0  0  0
 17 18  1  0  0  0  0
 17 19  1  0  0  0  0
 18 20  1  0  0  0  0
 18 21  1  0  0  0  0
 18 22  1  0  0  0  0
 23 24  2  0  0  0  0
 23 25  1  0  0  0  0
 23 29  1  0  0  0  0
 25 26  1  0  0  0  0
 25 27  1  0  0  0  0
 25 28  1  0  0  0  0
 29 30  1  0  0  0  0
 29 34  1  0  0  0  0
 30 31  1  0  0  0  0
 30 33  1  0  0  0  0
 30 35  1  0  0  0  0
 31 32  2  0  0  0  0
 31 39  1  0  0  0  0
 33 36  1  0  0  0  0
 33 37  1  0  0  0  0
 33 38  1  0  0  0  0
 39 40  1  0  0  0  0
 39 45  1  0  0  0  0
 40 41  1  0  0  0  0
 40 43  1  0  0  0  0
 40 46  1  0  0  0  0
 41 42  2  0  0  0  0
 41 49  1  0  0  0  0
 43 44  1  0  0  0  0
 43 47  1  0  0  0  0
 43 48  1  0  0  0  0
 49 50  1  0  0  0  0
 49 54  1  0  0  0  0
 50 51  1  0  0  0  0
 50 53  1  0  0  0  0
 50 55  1  0  0  0  0
 51 52  2  0  0  0  0
 51 59  1  0  0  0  0
 53 56  1  0  0  0  0
 53 57  1  0  0  0  0
 53 58  1  0  0  0  0
 59 60  1  0  0  0  0
 59 61  1  0  0  0  0
 60 62  1  0  0  0  0
 60 63  1  0  0  0  0
 60 64  1  0  0  0  0
M  END
$$$$

  -OEChem-05262216053D

 64 63  0     1  0  0  0  0  0999 V2000
   -2.4721   -0.0806    4.8009 C   0  0  0  0  0  0  0  0  0  0  0  0
   -3.5515    0.0182    4.2335 O   0  0  0  0  0  0  0  0  0  0  0  0
   -2.3809    0.0665    6.3076 C   0  0  0  0  0  0  0  0  0  0  0  0
   -1.7294    0.9069    6.5594 H   0  0  0  0  0  0  0  0  0  0  0  0
   -3.3728    0.2502    6.7295 H   0  0  0  0  0  0  0  0  0  0  0  0
   -1.9736   -0.8468    6.7482 H   0  0  0  0  0  0  0  0  0  0  0  0
   -1.3363   -0.3273    4.0615 N   0  0  0  0  0  0  0  0  0  0  0  0
   -1.3256   -0.4988    2.6040 C   0  0  2  0  0  0  0  0  0  0  0  0
   -0.1575   -1.3738    2.1038 C   0  0  0  0  0  0  0  0  0  0  0  0
    0.7279   -1.7185    2.8791 O   0  0  0  0  0  0  0  0  0  0  0  0
   -1.3111    0.8848    1.9387 C   0  0  0  0  0  0  0  0  0  0  0  0
    0.2208    1.8269    2.3168 S   0  0  0  0  0  0  0  0  0  0  0  0
   -0.4536   -0.4580    4.5550 H   0  0  0  0  0  0  0  0  0  0  0  0
   -2.2367   -1.0239    2.3108 H   0  0  0  0  0  0  0  0  0  0  0  0
   -1.3861    0.7633    0.8574 H   0  0  0  0  0  0  0  0  0  0  0  0
   -2.1790    1.4662    2.2647 H   0  0  0  0  0  0  0  0  0  0  0  0
   -0.1316   -1.8247    0.7953 N   0  0  0  0  0  0  0  0  0  0  0  0
    0.9761   -2.5902    0.2372 C   0  0  0  0  0  0  0  0  0  0  0  0
   -0.8840   -1.5311    0.1693 H   0  0  0  0  0  0  0  0  0  0  0  0
    1.9239   -2.0621    0.3888 H   0  0  0  0  0  0  0  0  0  0  0  0
    1.0402   -3.5747    0.7121 H   0  0  0  0  0  0  0  0  0  0  0  0
    0.8314   -2.7318   -0.8382 H   0  0  0  0  0  0  0  0  0  0  0  0
   -3.3981   -0.4054   -0.5439 C   0  0  0  0  0  0  0  0  0  0  0  0
   -2.3905   -0.9407   -0.9901 O   0  0  0  0  0  0  0  0  0  0  0  0
   -4.2736   -1.1285    0.4620 C   0  0  0  0  0  0  0  0  0  0  0  0
   -5.2655   -1.2998    0.0370 H   0  0  0  0  0  0  0  0  0  0  0  0
   -3.8334   -2.0948    0.7232 H   0  0  0  0  0  0  0  0  0  0  0  0
   -4.3783   -0.5305    1.3716 H   0  0  0  0  0  0  0  0  0  0  0  0
   -3.7153    0.8791   -0.9291 N   0  0  0  0  0  0  0  0  0  0  0  0
   -3.1724    1.5381   -2.1274 C   0  0  2  0  0  0  0  0  0  0  0  0
   -1.7035    2.0205   -2.0031 C   0  0  0  0  0  0  0  0  0  0  0  0
   -1.4244    3.2107   -2.0334 O   0  0  0  0  0  0  0  0  0  0  0  0
   -4.1364    2.6834   -2.4682 C   0  0  0  0  0  0  0  0  0  0  0  0
   -4.5400    1.2908   -0.4987 H   0  0  0  0  0  0  0  0  0  0  0  0
   -3.1969    0.8301   -2.9629 H   0  0  0  0  0  0  0  0  0  0  0  0
   -4.1562    3.4229   -1.6605 H   0  0  0  0  0  0  0  0  0  0  0  0
   -3.8196    3.1860   -3.3881 H   0  0  0  0  0  0  0  0  0  0  0  0
   -5.1506    2.3011   -2.6191 H   0  0  0  0  0  0  0  0  0  0  0  0
   -0.6866    1.1003   -2.1744 N   0  0  0  0  0  0  0  0  0  0  0  0
    0.7523    1.3749   -1.9748 C   0  0  2  0  0  0  0  0  0  0  0  0
    1.5516    0.2263   -2.6364 C   0  0  0  0  0  0  0  0  0  0  0  0
    2.2940   -0.5217   -2.0098 O   0  0  0  0  0  0  0  0  0  0  0  0
    1.1416    1.4361   -0.4775 C   0  0  0  0  0  0  0  0  0  0  0  0
    0.3944    2.8118    0.4854 S   0  0  0  0  0  0  0  0  0  0  0  0
   -0.9944    0.1329   -2.0476 H   0  0  0  0  0  0  0  0  0  0  0  0
    1.0290    2.3185   -2.4572 H   0  0  0  0  0  0  0  0  0  0  0  0
    0.8668    0.4890   -0.0099 H   0  0  0  0  0  0  0  0  0  0  0  0
    2.2289    1.5311   -0.3918 H   0  0  0  0  0  0  0  0  0  0  0  0
    1.3978    0.0055   -3.9918 N   0  0  0  0  0  0  0  0  0  0  0  0
    2.1135   -1.0134   -4.7700 C   0  0  2  0  0  0  0  0  0  0  0  0
    2.2023   -0.6282   -6.2612 C   0  0  0  0  0  0  0  0  0  0  0  0
    1.4535    0.2267   -6.7211 O   0  0  0  0  0  0  0  0  0  0  0  0
    1.3875   -2.3538   -4.6106 C   0  0  0  0  0  0  0  0  0  0  0  0
    0.8178    0.6654   -4.5117 H   0  0  0  0  0  0  0  0  0  0  0  0
    3.1370   -1.1076   -4.3920 H   0  0  0  0  0  0  0  0  0  0  0  0
    0.3626   -2.2807   -4.9884 H   0  0  0  0  0  0  0  0  0  0  0  0
    1.9079   -3.1406   -5.1648 H   0  0  0  0  0  0  0  0  0  0  0  0
    1.3496   -2.6447   -3.5561 H   0  0  0  0  0  0  0  0  0  0  0  0
    3.1269   -1.2380   -7.0891 N   0  0  0  0  0  0  0  0  0  0  0  0
    3.2932   -0.8897   -8.4953 C   0  0  0  0  0  0  0  0  0  0  0  0
    3.7588   -1.9156   -6.6725 H   0  0  0  0  0  0  0  0  0  0  0  0
    2.3482   -1.0085   -9.0360 H   0  0  0  0  0  0  0  0  0  0  0  0
    3.6282    0.1481   -8.5954 H   0  0  0  0  0  0  0  0  0  0  0  0
    4.0393   -1.5410   -8.9609 H   0  0  0  0  0  0  0  0  0  0  0  0
  1  2  2  0  0  0  0
  1  3  1  0  0  0  0
  1  7  1  0  0  0  0
  3  4  1  0  0  0  0
  3  5  1  0  0  0  0
  3  6  1  0  0  0  0
  7  8  1  0  0  0  0
  7 13  1  0  0  0  0
  8  9  1  0  0  0  0
  8 11  1  0  0  0  0
  8 14  1  0  0  0  0
  9 10  2  0  0  0  0
  9 17  1  0  0  0  0
 11 12  1  0  0  0  0
 11 15  1  0  0  0  0
 11 16  1  0  0  0  0
 12 44  1  0  0  0  0
 17 18  1  0  0  0  0
 17 19  1  0  0  0  0
 18 20  1  0  0  0  0
 18 21  1  0  0  0  0
 18 22  1  0  0  0  0
 23 24  2  0  0  0  0
 23 25  1  0  0  0  0
 23 29  1  0  0  0  0
 25 26  1  0  0  0  0
 25 27  1  0  0  0  0
 25 28  1  0  0  0  0
 29 30  1  0  0  0  0
 29 34  1  0  0  0  0
 30 31  1  0  0  0  0
 30 33  1  0  0  0  0
 30 35  1  0  0  0  0
 31 32  2  0  0  0  0
 31 39  1  0  0  0  0
 33 36  1  0  0  0  0
 33 37  1  0  0  0  0
 33 38  1  0  0  0  0
 39 40  1  0  0  0  0
 39 45  1  0  0  0  0
 40 41  1  0  0  0  0
 40 43  1  0  0  0  0
 40 46  1  0  0  0  0
 41 42  2  0  0  0  0
 41 49  1  0  0  0  0
 43 44  1  0  0  0  0
 43 47  1  0  0  0  0
 43 48  1  0  0  0  0
 49 50  1  0  0  0  0
 49 54  1  0  0  0  0
 50 51  1  0  0  0  0
 50 53  1  0  0  0  0
 50 55  1  0  0  0  0
 51 52  2  0  0  0  0
 51 59  1  0  0  0  0
 53 56  1  0  0  0  0
 53 57  1  0  0  0  0
 53 58  1  0  0  0  0
 59 60  1  0  0  0  0
 59 61  1  0  0  0  0
 60 62  1  0  0  0  0
 60 63  1  0  0  0  0
 60 64  1  0  0  0  0
M  END
$$$$

  -OEChem-05262216053D

 64 63  0     1  0  0  0  0  0999 V2000
   -2.5285    0.0744    4.8514 C   0  0  0  0  0  0  0  0  0  0  0  0
   -3.5978    0.1328    4.2600 O   0  0  0  0  0  0  0  0  0  0  0  0
   -2.4698    0.2934    6.3509 C   0  0  0  0  0  0  0  0  0  0  0  0
   -1.8754    1.1830    6.5732 H   0  0  0  0  0  0  0  0  0  0  0  0
   -3.4779    0.4327    6.7514 H   0  0  0  0  0  0  0  0  0  0  0  0
   -2.0137   -0.5720    6.8375 H   0  0  0  0  0  0  0  0  0  0  0  0
   -1.3757   -0.1930    4.1463 N   0  0  0  0  0  0  0  0  0  0  0  0
   -1.3363   -0.4393    2.7001 C   0  0  2  0  0  0  0  0  0  0  0  0
   -0.1563   -1.3324    2.2649 C   0  0  0  0  0  0  0  0  0  0  0  0
    0.7070   -1.6495    3.0764 O   0  0  0  0  0  0  0  0  0  0  0  0
   -1.3138    0.9073    1.9642 C   0  0  0  0  0  0  0  0  0  0  0  0
    0.2128    1.8675    2.3164 S   0  0  0  0  0  0  0  0  0  0  0  0
   -0.5036   -0.2998    4.6632 H   0  0  0  0  0  0  0  0  0  0  0  0
   -2.2398   -0.9829    2.4181 H   0  0  0  0  0  0  0  0  0  0  0  0
   -1.3728    0.7305    0.8892 H   0  0  0  0  0  0  0  0  0  0  0  0
   -2.1864    1.5041    2.2472 H   0  0  0  0  0  0  0  0  0  0  0  0
   -0.0987   -1.8342    0.9763 N   0  0  0  0  0  0  0  0  0  0  0  0
    1.0207   -2.6226    0.4768 C   0  0  0  0  0  0  0  0  0  0  0  0
   -0.8233   -1.5487    0.3150 H   0  0  0  0  0  0  0  0  0  0  0  0
    1.9538   -2.0541    0.5514 H   0  0  0  0  0  0  0  0  0  0  0  0
    1.1251   -3.5499    1.0495 H   0  0  0  0  0  0  0  0  0  0  0  0
    0.8594   -2.8813   -0.5741 H   0  0  0  0  0  0  0  0  0  0  0  0
   -3.3651   -0.5171   -0.4945 C   0  0  0  0  0  0  0  0  0  0  0  0
   -2.3381   -1.0352   -0.9154 O   0  0  0  0  0  0  0  0  0  0  0  0
   -4.2278   -1.2368    0.5250 C   0  0  0  0  0  0  0  0  0  0  0  0
   -5.2029   -1.4693    0.0899 H   0  0  0  0  0  0  0  0  0  0  0  0
   -3.7508   -2.1710    0.8344 H   0  0  0  0  0  0  0  0  0  0  0  0
   -4.3765   -0.6076    1.4071 H   0  0  0  0  0  0  0  0  0  0  0  0
   -3.7179    0.7442   -0.9234 N   0  0  0  0  0  0  0  0  0  0  0  0
   -3.1762    1.3838   -2.1323 C   0  0  2  0  0  0  0  0  0  0  0  0
   -1.7230    1.9105   -2.0037 C   0  0  0  0  0  0  0  0  0  0  0  0
   -1.4798    3.1085   -2.0424 O   0  0  0  0  0  0  0  0  0  0  0  0
   -4.1610    2.4956   -2.5203 C   0  0  0  0  0  0  0  0  0  0  0  0
   -4.5606    1.1429   -0.5165 H   0  0  0  0  0  0  0  0  0  0  0  0
   -3.1711    0.6512   -2.9466 H   0  0  0  0  0  0  0  0  0  0  0  0
   -4.2079    3.2591   -1.7364 H   0  0  0  0  0  0  0  0  0  0  0  0
   -3.8417    2.9774   -3.4503 H   0  0  0  0  0  0  0  0  0  0  0  0
   -5.1643    2.0867   -2.6726 H   0  0  0  0  0  0  0  0  0  0  0  0
   -0.6787    1.0202   -2.1657 N   0  0  0  0  0  0  0  0  0  0  0  0
    0.7512    1.3348   -1.9710 C   0  0  2  0  0  0  0  0  0  0  0  0
    1.5842    0.2058   -2.6195 C   0  0  0  0  0  0  0  0  0  0  0  0
    2.1032   -0.6919   -1.9655 O   0  0  0  0  0  0  0  0  0  0  0  0
    1.1483    1.4305   -0.4779 C   0  0  0  0  0  0  0  0  0  0  0  0
    0.3690    2.8058    0.4607 S   0  0  0  0  0  0  0  0  0  0  0  0
   -0.9560    0.0447   -2.0309 H   0  0  0  0  0  0  0  0  0  0  0  0
    0.9978    2.2814   -2.4635 H   0  0  0  0  0  0  0  0  0  0  0  0
    0.8925    0.4871    0.0100 H   0  0  0  0  0  0  0  0  0  0  0  0
    2.2341    1.5470   -0.4005 H   0  0  0  0  0  0  0  0  0  0  0  0
    1.6895    0.1584   -3.9962 N   0  0  0  0  0  0  0  0  0  0  0  0
    2.4541   -0.8411   -4.7527 C   0  0  2  0  0  0  0  0  0  0  0  0
    2.9001   -0.2909   -6.1234 C   0  0  0  0  0  0  0  0  0  0  0  0
    2.3661    0.7109   -6.5864 O   0  0  0  0  0  0  0  0  0  0  0  0
    1.5823   -2.0874   -4.9399 C   0  0  0  0  0  0  0  0  0  0  0  0
    1.2879    0.9320   -4.5276 H   0  0  0  0  0  0  0  0  0  0  0  0
    3.3578   -1.1097   -4.1955 H   0  0  0  0  0  0  0  0  0  0  0  0
    0.6731   -1.8378   -5.4962 H   0  0  0  0  0  0  0  0  0  0  0  0
    2.1286   -2.8574   -5.4923 H   0  0  0  0  0  0  0  0  0  0  0  0
    1.2935   -2.5007   -3.9686 H   0  0  0  0  0  0  0  0  0  0  0  0
    3.9010   -0.9194   -6.8413 N   0  0  0  0  0  0  0  0  0  0  0  0
    4.3698   -0.4477   -8.1386 C   0  0  0  0  0  0  0  0  0  0  0  0
    4.3395   -1.7365   -6.4262 H   0  0  0  0  0  0  0  0  0  0  0  0
    3.5448   -0.4233   -8.8584 H   0  0  0  0  0  0  0  0  0  0  0  0
    4.7911    0.5593   -8.0508 H   0  0  0  0  0  0  0  0  0  0  0  0
    5.1455   -1.1152   -8.5258 H   0  0  0  0  0  0  0  0  0  0  0  0
  1  2  2  0  0  0  0
  1  3  1  0  0  0  0
  1  7  1  0  0  0  0
  3  4  1  0  0  0  0
  3  5  1  0  0  0  0
  3  6  1  0  0  0  0
  7  8  1  0  0  0  0
  7 13  1  0  0  0  0
  8  9  1  0  0  0  0
  8 11  1  0  0  0  0
  8 14  1  0  0  0  0
  9 10  2  0  0  0  0
  9 17  1  0  0  0  0
 11 12  1  0  0  0  0
 11 15  1  0  0  0  0
 11 16  1  0  0  0  0
 12 44  1  0  0  0  0
 17 18  1  0  0  0  0
 17 19  1  0  0  0  0
 18 20  1  0  0  0  0
 18 21  1  0  0  0  0
 18 22  1  0  0  0  0
 23 24  2  0  0  0  0
 23 25  1  0  0  0  0
 23 29  1  0  0  0  0
 25 26  1  0  0  0  0
 25 27  1  0  0  0  0
 25 28  1  0  0  0  0
 29 30  1  0  0  0  0
 29 34  1  0  0  0  0
 30 31  1  0  0  0  0
 30 33  1  0  0  0  0
 30 35  1  0  0  0  0
 31 32  2  0  0  0  0
 31 39  1  0  0  0  0
 33 36  1  0  0  0  0
 33 37  1  0  0  0  0
 33 38  1  0  0  0  0
 39 40  1  0  0  0  0
 39 45  1  0  0  0  0
 40 41  1  0  0  0  0
 40 43  1  0  0  0  0
 40 46  1  0  0  0  0
 41 42  2  0  0  0  0
 41 49  1  0  0  0  0
 43 44  1  0  0  0  0
 43 47  1  0  0  0  0
 43 48  1  0  0  0  0
 49 50  1  0  0  0  0
 49 54  1  0  0  0  0
 50 51  1  0  0  0  0
 50 53  1  0  0  0  0
 50 55  1  0  0  0  0
 51 52  2  0  0  0  0
 51 59  1  0  0  0  0
 53 56  1  0  0  0  0
 53 57  1  0  0  0  0
 53 58  1  0  0  0  0
 59 60  1  0  0  0  0
 59 61  1  0  0  0  0
 60 62  1  0  0  0  0
 60 63  1  0  0  0  0
 60 64  1  0  0  0  0
M  END
$$$$

  -OEChem-05262216053D

 64 63  0     1  0  0  0  0  0999 V2000
   -2.4591    0.1992    4.8784 C   0  0  0  0  0  0  0  0  0  0  0  0
   -3.5359    0.2367    4.2989 O   0  0  0  0  0  0  0  0  0  0  0  0
   -2.3810    0.4687    6.3687 C   0  0  0  0  0  0  0  0  0  0  0  0
   -1.7513    1.3418    6.5566 H   0  0  0  0  0  0  0  0  0  0  0  0
   -3.3798    0.6615    6.7699 H   0  0  0  0  0  0  0  0  0  0  0  0
   -1.9551   -0.3965    6.8823 H   0  0  0  0  0  0  0  0  0  0  0  0
   -1.3145   -0.0929    4.1698 N   0  0  0  0  0  0  0  0  0  0  0  0
   -1.2907   -0.3870    2.7325 C   0  0  2  0  0  0  0  0  0  0  0  0
   -0.1111   -1.2872    2.3126 C   0  0  0  0  0  0  0  0  0  0  0  0
    0.7728   -1.5592    3.1187 O   0  0  0  0  0  0  0  0  0  0  0  0
   -1.2859    0.9339    1.9520 C   0  0  0  0  0  0  0  0  0  0  0  0
    0.2391    1.9144    2.2494 S   0  0  0  0  0  0  0  0  0  0  0  0
   -0.4347   -0.1722    4.6784 H   0  0  0  0  0  0  0  0  0  0  0  0
   -2.1935   -0.9455    2.4788 H   0  0  0  0  0  0  0  0  0  0  0  0
   -1.3569    0.7193    0.8848 H   0  0  0  0  0  0  0  0  0  0  0  0
   -2.1590    1.5345    2.2252 H   0  0  0  0  0  0  0  0  0  0  0  0
   -0.0807   -1.8501    1.0489 N   0  0  0  0  0  0  0  0  0  0  0  0
    1.0185   -2.6782    0.5699 C   0  0  0  0  0  0  0  0  0  0  0  0
   -0.8268   -1.6069    0.3941 H   0  0  0  0  0  0  0  0  0  0  0  0
    1.9558   -2.1116    0.5733 H   0  0  0  0  0  0  0  0  0  0  0  0
    1.1373   -3.5631    1.2034 H   0  0  0  0  0  0  0  0  0  0  0  0
    0.8212   -3.0103   -0.4541 H   0  0  0  0  0  0  0  0  0  0  0  0
   -3.4293   -0.5417   -0.3535 C   0  0  0  0  0  0  0  0  0  0  0  0
   -2.4161   -1.0967   -0.7608 O   0  0  0  0  0  0  0  0  0  0  0  0
   -4.2865   -1.1862    0.7197 C   0  0  0  0  0  0  0  0  0  0  0  0
   -5.2818   -1.4003    0.3225 H   0  0  0  0  0  0  0  0  0  0  0  0
   -3.8356   -2.1242    1.0557 H   0  0  0  0  0  0  0  0  0  0  0  0
   -4.3859   -0.5148    1.5775 H   0  0  0  0  0  0  0  0  0  0  0  0
   -3.7756    0.6946   -0.8528 N   0  0  0  0  0  0  0  0  0  0  0  0
   -3.2475    1.2484   -2.1078 C   0  0  2  0  0  0  0  0  0  0  0  0
   -1.7971    1.7910   -2.0249 C   0  0  0  0  0  0  0  0  0  0  0  0
   -1.5679    2.9899   -2.1041 O   0  0  0  0  0  0  0  0  0  0  0  0
   -4.2460    2.3206   -2.5648 C   0  0  0  0  0  0  0  0  0  0  0  0
   -4.6057    1.1292   -0.4573 H   0  0  0  0  0  0  0  0  0  0  0  0
   -3.2431    0.4607   -2.8686 H   0  0  0  0  0  0  0  0  0  0  0  0
   -4.2914    3.1392   -1.8385 H   0  0  0  0  0  0  0  0  0  0  0  0
   -3.9431    2.7348   -3.5323 H   0  0  0  0  0  0  0  0  0  0  0  0
   -5.2470    1.8919   -2.6728 H   0  0  0  0  0  0  0  0  0  0  0  0
   -0.7469    0.9056   -2.1794 N   0  0  0  0  0  0  0  0  0  0  0  0
    0.6836    1.2414   -2.0277 C   0  0  2  0  0  0  0  0  0  0  0  0
    1.5291    0.1085   -2.6499 C   0  0  0  0  0  0  0  0  0  0  0  0
    1.8274   -0.8974   -2.0160 O   0  0  0  0  0  0  0  0  0  0  0  0
    1.1215    1.3905   -0.5513 C   0  0  0  0  0  0  0  0  0  0  0  0
    0.3524    2.7897    0.3606 S   0  0  0  0  0  0  0  0  0  0  0  0
   -1.0072   -0.0675   -2.0016 H   0  0  0  0  0  0  0  0  0  0  0  0
    0.9043    2.1756   -2.5545 H   0  0  0  0  0  0  0  0  0  0  0  0
    0.8876    0.4626   -0.0237 H   0  0  0  0  0  0  0  0  0  0  0  0
    2.2078    1.5183   -0.5085 H   0  0  0  0  0  0  0  0  0  0  0  0
    1.8835    0.1738   -3.9840 N   0  0  0  0  0  0  0  0  0  0  0  0
    2.7377   -0.8021   -4.6739 C   0  0  2  0  0  0  0  0  0  0  0  0
    3.5708   -0.1368   -5.7894 C   0  0  0  0  0  0  0  0  0  0  0  0
    3.2684    0.9779   -6.2004 O   0  0  0  0  0  0  0  0  0  0  0  0
    1.8439   -1.9029   -5.2532 C   0  0  0  0  0  0  0  0  0  0  0  0
    1.6771    1.0386   -4.4853 H   0  0  0  0  0  0  0  0  0  0  0  0
    3.4418   -1.2453   -3.9616 H   0  0  0  0  0  0  0  0  0  0  0  0
    1.1338   -1.4800   -5.9711 H   0  0  0  0  0  0  0  0  0  0  0  0
    2.4473   -2.6594   -5.7637 H   0  0  0  0  0  0  0  0  0  0  0  0
    1.2804   -2.3941   -4.4535 H   0  0  0  0  0  0  0  0  0  0  0  0
    4.6711   -0.7818   -6.3243 N   0  0  0  0  0  0  0  0  0  0  0  0
    5.5272   -0.1883   -7.3446 C   0  0  0  0  0  0  0  0  0  0  0  0
    4.9179   -1.6903   -5.9427 H   0  0  0  0  0  0  0  0  0  0  0  0
    4.9476    0.0410   -8.2451 H   0  0  0  0  0  0  0  0  0  0  0  0
    5.9825    0.7360   -6.9734 H   0  0  0  0  0  0  0  0  0  0  0  0
    6.3283   -0.8822   -7.6169 H   0  0  0  0  0  0  0  0  0  0  0  0
  1  2  2  0  0  0  0
  1  3  1  0  0  0  0
  1  7  1  0  0  0  0
  3  4  1  0  0  0  0
  3  5  1  0  0  0  0
  3  6  1  0  0  0  0
  7  8  1  0  0  0  0
  7 13  1  0  0  0  0
  8  9  1  0  0  0  0
  8 11  1  0  0  0  0
  8 14  1  0  0  0  0
  9 10  2  0  0  0  0
  9 17  1  0  0  0  0
 11 12  1  0  0  0  0
 11 15  1  0  0  0  0
 11 16  1  0  0  0  0
 12 44  1  0  0  0  0
 17 18  1  0  0  0  0
 17 19  1  0  0  0  0
 18 20  1  0  0  0  0
 18 21  1  0  0  0  0
 18 22  1  0  0  0  0
 23 24  2  0  0  0  0
 23 25  1  0  0  0  0
 23 29  1  0  0  0  0
 25 26  1  0  0  0  0
 25 27  1  0  0  0  0
 25 28  1  0  0  0  0
 29 30  1  0  0  0  0
 29 34  1  0  0  0  0
 30 31  1  0  0  0  0
 30 33  1  0  0  0  0
 30 35  1  0  0  0  0
 31 32  2  0  0  0  0
 31 39  1  0  0  0  0
 33 36  1  0  0  0  0
 33 37  1  0  0  0  0
 33 38  1  0  0  0  0
 39 40  1  0  0  0  0
 39 45  1  0  0  0  0
 40 41  1  0  0  0  0
 40 43  1  0  0  0  0
 40 46  1  0  0  0  0
 41 42  2  0  0  0  0
 41 49  1  0  0  0  0
 43 44  1  0  0  0  0
 43 47  1  0  0  0  0
 43 48  1  0  0  0  0
 49 50  1  0  0  0  0
 49 54  1  0  0  0  0
 50 51  1  0  0  0  0
 50 53  1  0  0  0  0
 50 55  1  0  0  0  0
 51 52  2  0  0  0  0
 51 59  1  0  0  0  0
 53 56  1  0  0  0  0
 53 57  1  0  0  0  0
 53 58  1  0  0  0  0
 59 60  1  0  0  0  0
 59 61  1  0  0  0  0
 60 62  1  0  0  0  0
 60 63  1  0  0  0  0
 60 64  1  0  0  0  0
M  END
$$$$

  -OEChem-05262216053D

 64 63  0     1  0  0  0  0  0999 V2000
   -2.3239    0.2872    4.9889 C   0  0  0  0  0  0  0  0  0  0  0  0
   -3.4278    0.3313    4.4638 O   0  0  0  0  0  0  0  0  0  0  0  0
   -2.1633    0.6040    6.4633 C   0  0  0  0  0  0  0  0  0  0  0  0
   -1.4883    1.4541    6.5885 H   0  0  0  0  0  0  0  0  0  0  0  0
   -3.1323    0.8560    6.9032 H   0  0  0  0  0  0  0  0  0  0  0  0
   -1.7507   -0.2607    6.9885 H   0  0  0  0  0  0  0  0  0  0  0  0
   -1.2231   -0.0480    4.2317 N   0  0  0  0  0  0  0  0  0  0  0  0
   -1.2771   -0.3803    2.8031 C   0  0  2  0  0  0  0  0  0  0  0  0
   -0.1267   -1.3005    2.3478 C   0  0  0  0  0  0  0  0  0  0  0  0
    0.7996   -1.5518    3.1122 O   0  0  0  0  0  0  0  0  0  0  0  0
   -1.2982    0.9184    1.9870 C   0  0  0  0  0  0  0  0  0  0  0  0
    0.2346    1.9073    2.1996 S   0  0  0  0  0  0  0  0  0  0  0  0
   -0.3196   -0.1285    4.6965 H   0  0  0  0  0  0  0  0  0  0  0  0
   -2.1969   -0.9370    2.6110 H   0  0  0  0  0  0  0  0  0  0  0  0
   -1.4060    0.6753    0.9293 H   0  0  0  0  0  0  0  0  0  0  0  0
   -2.1610    1.5266    2.2750 H   0  0  0  0  0  0  0  0  0  0  0  0
   -0.1649   -1.8984    1.1007 N   0  0  0  0  0  0  0  0  0  0  0  0
    0.9043   -2.7451    0.5883 C   0  0  0  0  0  0  0  0  0  0  0  0
   -0.9412   -1.6644    0.4773 H   0  0  0  0  0  0  0  0  0  0  0  0
    1.8348   -2.1750    0.4983 H   0  0  0  0  0  0  0  0  0  0  0  0
    1.0747   -3.5965    1.2551 H   0  0  0  0  0  0  0  0  0  0  0  0
    0.6379   -3.1291   -0.4012 H   0  0  0  0  0  0  0  0  0  0  0  0
   -3.5453   -0.4837   -0.2534 C   0  0  0  0  0  0  0  0  0  0  0  0
   -2.5570   -1.1200   -0.5986 O   0  0  0  0  0  0  0  0  0  0  0  0
   -4.3949   -0.9500    0.9137 C   0  0  0  0  0  0  0  0  0  0  0  0
   -5.4290   -1.0906    0.5901 H   0  0  0  0  0  0  0  0  0  0  0  0
   -4.0192   -1.9009    1.3012 H   0  0  0  0  0  0  0  0  0  0  0  0
   -4.3735   -0.2074    1.7162 H   0  0  0  0  0  0  0  0  0  0  0  0
   -3.8648    0.6852   -0.9091 N   0  0  0  0  0  0  0  0  0  0  0  0
   -3.2914    1.0815   -2.2025 C   0  0  2  0  0  0  0  0  0  0  0  0
   -1.8512    1.6489   -2.1188 C   0  0  0  0  0  0  0  0  0  0  0  0
   -1.6419    2.8507   -2.2114 O   0  0  0  0  0  0  0  0  0  0  0  0
   -4.2730    2.0766   -2.8365 C   0  0  0  0  0  0  0  0  0  0  0  0
   -4.6630    1.2090   -0.5587 H   0  0  0  0  0  0  0  0  0  0  0  0
   -3.2491    0.2042   -2.8570 H   0  0  0  0  0  0  0  0  0  0  0  0
   -4.3699    2.9730   -2.2148 H   0  0  0  0  0  0  0  0  0  0  0  0
   -3.9182    2.3806   -3.8266 H   0  0  0  0  0  0  0  0  0  0  0  0
   -5.2612    1.6207   -2.9503 H   0  0  0  0  0  0  0  0  0  0  0  0
   -0.7840    0.7784   -2.2364 N   0  0  0  0  0  0  0  0  0  0  0  0
    0.6382    1.1405   -2.0762 C   0  0  2  0  0  0  0  0  0  0  0  0
    1.5148    0.0107   -2.6544 C   0  0  0  0  0  0  0  0  0  0  0  0
    1.5768   -1.0820   -2.1022 O   0  0  0  0  0  0  0  0  0  0  0  0
    1.0643    1.3212   -0.6017 C   0  0  0  0  0  0  0  0  0  0  0  0
    0.2667    2.7223    0.2807 S   0  0  0  0  0  0  0  0  0  0  0  0
   -1.0238   -0.1982   -2.0542 H   0  0  0  0  0  0  0  0  0  0  0  0
    0.8458    2.0672   -2.6212 H   0  0  0  0  0  0  0  0  0  0  0  0
    0.8412    0.3978   -0.0610 H   0  0  0  0  0  0  0  0  0  0  0  0
    2.1478    1.4686   -0.5532 H   0  0  0  0  0  0  0  0  0  0  0  0
    2.1508    0.1761   -3.8700 N   0  0  0  0  0  0  0  0  0  0  0  0
    3.0731   -0.7989   -4.4674 C   0  0  2  0  0  0  0  0  0  0  0  0
    4.1875   -0.1021   -5.2759 C   0  0  0  0  0  0  0  0  0  0  0  0
    4.0887    1.0862   -5.5608 O   0  0  0  0  0  0  0  0  0  0  0  0
    2.2664   -1.7430   -5.3638 C   0  0  0  0  0  0  0  0  0  0  0  0
    2.1433    1.1094   -4.2830 H   0  0  0  0  0  0  0  0  0  0  0  0
    3.5601   -1.3800   -3.6770 H   0  0  0  0  0  0  0  0  0  0  0  0
    1.7821   -1.1840   -6.1710 H   0  0  0  0  0  0  0  0  0  0  0  0
    2.9178   -2.5022   -5.8070 H   0  0  0  0  0  0  0  0  0  0  0  0
    1.4934   -2.2520   -4.7795 H   0  0  0  0  0  0  0  0  0  0  0  0
    5.3122   -0.8033   -5.6700 N   0  0  0  0  0  0  0  0  0  0  0  0
    6.4191   -0.1940   -6.3975 C   0  0  0  0  0  0  0  0  0  0  0  0
    5.3815   -1.7788   -5.3950 H   0  0  0  0  0  0  0  0  0  0  0  0
    6.0662    0.2471   -7.3358 H   0  0  0  0  0  0  0  0  0  0  0  0
    6.8875    0.5905   -5.7938 H   0  0  0  0  0  0  0  0  0  0  0  0
    7.1765   -0.9474   -6.6348 H   0  0  0  0  0  0  0  0  0  0  0  0
  1  2  2  0  0  0  0
  1  3  1  0  0  0  0
  1  7  1  0  0  0  0
  3  4  1  0  0  0  0
  3  5  1  0  0  0  0
  3  6  1  0  0  0  0
  7  8  1  0  0  0  0
  7 13  1  0  0  0  0
  8  9  1  0  0  0  0
  8 11  1  0  0  0  0
  8 14  1  0  0  0  0
  9 10  2  0  0  0  0
  9 17  1  0  0  0  0
 11 12  1  0  0  0  0
 11 15  1  0  0  0  0
 11 16  1  0  0  0  0
 12 44  1  0  0  0  0
 17 18  1  0  0  0  0
 17 19  1  0  0  0  0
 18 20  1  0  0  0  0
 18 21  1  0  0  0  0
 18 22  1  0  0  0  0
 23 24  2  0  0  0  0
 23 25  1  0  0  0  0
 23 29  1  0  0  0  0
 25 26  1  0  0  0  0
 25 27  1  0  0  0  0
 25 28  1  0  0  0  0
 29 30  1  0  0  0  0
 29 34  1  0  0  0  0
 30 31  1  0  0  0  0
 30 33  1  0  0  0  0
 30 35  1  0  0  0  0
 31 32  2  0  0  0  0
 31 39  1  0  0  0  0
 33 36  1  0  0  0  0
 33 37  1  0  0  0  0
 33 38  1  0  0  0  0
 39 40  1  0  0  0  0
 39 45  1  0  0  0  0
 40 41  1  0  0  0  0
 40 43  1  0  0  0  0
 40 46  1  0  0  0  0
 41 42  2  0  0  0  0
 41 49  1  0  0  0  0
 43 44  1  0  0  0  0
 43 47  1  0  0  0  0
 43 48  1  0  0  0  0
 49 50  1  0  0  0  0
 49 54  1  0  0  0  0
 50 51  1  0  0  0  0
 50 53  1  0  0  0  0
 50 55  1  0  0  0  0
 51 52  2  0  0  0  0
 51 59  1  0  0  0  0
 53 56  1  0  0  0  0
 53 57  1  0  0  0  0
 53 58  1  0  0  0  0
 59 60  1  0  0  0  0
 59 61  1  0  0  0  0
 60 62  1  0  0  0  0
 60 63  1  0  0  0  0
 60 64  1  0  0  0  0
M  END
$$$$

  -OEChem-05262216053D

 64 63  0     1  0  0  0  0  0999 V2000
   -2.2041    0.3422    5.0272 C   0  0  0  0  0  0  0  0  0  0  0  0
   -3.3254    0.4273    4.5465 O   0  0  0  0  0  0  0  0  0  0  0  0
   -1.9715    0.6716    6.4892 C   0  0  0  0  0  0  0  0  0  0  0  0
   -1.2386    1.4775    6.5769 H   0  0  0  0  0  0  0  0  0  0  0  0
   -2.9063    0.9936    6.9567 H   0  0  0  0  0  0  0  0  0  0  0  0
   -1.5983   -0.2102    7.0156 H   0  0  0  0  0  0  0  0  0  0  0  0
   -1.1507   -0.0556    4.2337 N   0  0  0  0  0  0  0  0  0  0  0  0
   -1.2703   -0.3871    2.8088 C   0  0  2  0  0  0  0  0  0  0  0  0
   -0.1597   -1.3328    2.3104 C   0  0  0  0  0  0  0  0  0  0  0  0
    0.8103   -1.5771    3.0210 O   0  0  0  0  0  0  0  0  0  0  0  0
   -1.2888    0.9090    1.9877 C   0  0  0  0  0  0  0  0  0  0  0  0
    0.2555    1.8850    2.1766 S   0  0  0  0  0  0  0  0  0  0  0  0
   -0.2303   -0.1522    4.6605 H   0  0  0  0  0  0  0  0  0  0  0  0
   -2.2112   -0.9198    2.6512 H   0  0  0  0  0  0  0  0  0  0  0  0
   -1.4129    0.6623    0.9320 H   0  0  0  0  0  0  0  0  0  0  0  0
   -2.1415    1.5275    2.2841 H   0  0  0  0  0  0  0  0  0  0  0  0
   -0.2783   -1.9511    1.0794 N   0  0  0  0  0  0  0  0  0  0  0  0
    0.7296   -2.8477    0.5293 C   0  0  0  0  0  0  0  0  0  0  0  0
   -1.1109   -1.7464    0.5208 H   0  0  0  0  0  0  0  0  0  0  0  0
    1.6787   -2.3188    0.3934 H   0  0  0  0  0  0  0  0  0  0  0  0
    0.8925   -3.7004    1.1966 H   0  0  0  0  0  0  0  0  0  0  0  0
    0.4041   -3.2284   -0.4438 H   0  0  0  0  0  0  0  0  0  0  0  0
   -3.7193   -0.3918   -0.0705 C   0  0  0  0  0  0  0  0  0  0  0  0
   -2.8017   -1.1677   -0.3082 O   0  0  0  0  0  0  0  0  0  0  0  0
   -4.5856   -0.5764    1.1615 C   0  0  0  0  0  0  0  0  0  0  0  0
   -5.6404   -0.5919    0.8777 H   0  0  0  0  0  0  0  0  0  0  0  0
   -4.3454   -1.5205    1.6580 H   0  0  0  0  0  0  0  0  0  0  0  0
   -4.4202    0.2432    1.8659 H   0  0  0  0  0  0  0  0  0  0  0  0
   -3.9358    0.6789   -0.9104 N   0  0  0  0  0  0  0  0  0  0  0  0
   -3.2707    0.8493   -2.2090 C   0  0  2  0  0  0  0  0  0  0  0  0
   -1.8535    1.4661   -2.1134 C   0  0  0  0  0  0  0  0  0  0  0  0
   -1.6906    2.6757   -2.1934 O   0  0  0  0  0  0  0  0  0  0  0  0
   -4.2027    1.6943   -3.0865 C   0  0  0  0  0  0  0  0  0  0  0  0
   -4.6503    1.3503   -0.6400 H   0  0  0  0  0  0  0  0  0  0  0  0
   -3.1675   -0.1288   -2.6918 H   0  0  0  0  0  0  0  0  0  0  0  0
   -4.3641    2.6820   -2.6417 H   0  0  0  0  0  0  0  0  0  0  0  0
   -3.7648    1.8320   -4.0803 H   0  0  0  0  0  0  0  0  0  0  0  0
   -5.1722    1.2004   -3.2013 H   0  0  0  0  0  0  0  0  0  0  0  0
   -0.7547    0.6344   -2.2112 N   0  0  0  0  0  0  0  0  0  0  0  0
    0.6589    1.0353   -2.0746 C   0  0  2  0  0  0  0  0  0  0  0  0
    1.5548   -0.0897   -2.6255 C   0  0  0  0  0  0  0  0  0  0  0  0
    1.4279   -1.2364   -2.2097 O   0  0  0  0  0  0  0  0  0  0  0  0
    1.1066    1.2620   -0.6149 C   0  0  0  0  0  0  0  0  0  0  0  0
    0.2884    2.6657    0.2438 S   0  0  0  0  0  0  0  0  0  0  0  0
   -0.9527   -0.3573   -2.0739 H   0  0  0  0  0  0  0  0  0  0  0  0
    0.8355    1.9506   -2.6495 H   0  0  0  0  0  0  0  0  0  0  0  0
    0.9128    0.3463   -0.0486 H   0  0  0  0  0  0  0  0  0  0  0  0
    2.1871    1.4353   -0.5884 H   0  0  0  0  0  0  0  0  0  0  0  0
    2.4172    0.1485   -3.6782 N   0  0  0  0  0  0  0  0  0  0  0  0
    3.3603   -0.8408   -4.2159 C   0  0  2  0  0  0  0  0  0  0  0  0
    4.6610   -0.1755   -4.7122 C   0  0  0  0  0  0  0  0  0  0  0  0
    4.7145    1.0414   -4.8514 O   0  0  0  0  0  0  0  0  0  0  0  0
    2.6690   -1.5952   -5.3553 C   0  0  0  0  0  0  0  0  0  0  0  0
    2.5637    1.1186   -3.9602 H   0  0  0  0  0  0  0  0  0  0  0  0
    3.6398   -1.5506   -3.4300 H   0  0  0  0  0  0  0  0  0  0  0  0
    2.3949   -0.9049   -6.1595 H   0  0  0  0  0  0  0  0  0  0  0  0
    3.3305   -2.3640   -5.7655 H   0  0  0  0  0  0  0  0  0  0  0  0
    1.7601   -2.0832   -4.9895 H   0  0  0  0  0  0  0  0  0  0  0  0
    5.7785   -0.9420   -4.9874 N   0  0  0  0  0  0  0  0  0  0  0  0
    7.0478   -0.3771   -5.4293 C   0  0  0  0  0  0  0  0  0  0  0  0
    5.7137   -1.9436   -4.8312 H   0  0  0  0  0  0  0  0  0  0  0  0
    6.9124    0.1959   -6.3526 H   0  0  0  0  0  0  0  0  0  0  0  0
    7.4609    0.2847   -4.6610 H   0  0  0  0  0  0  0  0  0  0  0  0
    7.7701   -1.1759   -5.6228 H   0  0  0  0  0  0  0  0  0  0  0  0
  1  2  2  0  0  0  0
  1  3  1  0  0  0  0
  1  7  1  0  0  0  0
  3  4  1  0  0  0  0
  3  5  1  0  0  0  0
  3  6  1  0  0  0  0
  7  8  1  0  0  0  0
  7 13  1  0  0  0  0
  8  9  1  0  0  0  0
  8 11  1  0  0  0  0
  8 14  1  0  0  0  0
  9 10  2  0  0  0  0
  9 17  1  0  0  0  0
 11 12  1  0  0  0  0
 11 15  1  0  0  0  0
 11 16  1  0  0  0  0
 12 44  1  0  0  0  0
 17 18  1  0  0  0  0
 17 19  1  0  0  0  0
 18 20  1  0  0  0  0
 18 21  1  0  0  0  0
 18 22  1  0  0  0  0
 23 24  2  0  0  0  0
 23 25  1  0  0  0  0
 23 29  1  0  0  0  0
 25 26  1  0  0  0  0
 25 27  1  0  0  0  0
 25 28  1  0  0  0  0
 29 30  1  0  0  0  0
 29 34  1  0  0  0  0
 30 31  1  0  0  0  0
 30 33  1  0  0  0  0
 30 35  1  0  0  0  0
 31 32  2  0  0  0  0
 31 39  1  0  0  0  0
 33 36  1  0  0  0  0
 33 37  1  0  0  0  0
 33 38  1  0  0  0  0
 39 40  1  0  0  0  0
 39 45  1  0  0  0  0
 40 41  1  0  0  0  0
 40 43  1  0  0  0  0
 40 46  1  0  0  0  0
 41 42  2  0  0  0  0
 41 49  1  0  0  0  0
 43 44  1  0  0  0  0
 43 47  1  0  0  0  0
 43 48  1  0  0  0  0
 49 50  1  0  0  0  0
 49 54  1  0  0  0  0
 50 51  1  0  0  0  0
 50 53  1  0  0  0  0
 50 55  1  0  0  0  0
 51 52  2  0  0  0  0
 51 59  1  0  0  0  0
 53 56  1  0  0  0  0
 53 57  1  0  0  0  0
 53 58  1  0  0  0  0
 59 60  1  0  0  0  0
 59 61  1  0  0  0  0
 60 62  1  0  0  0  0
 60 63  1  0  0  0  0
 60 64  1  0  0  0  0
M  END
$$$$

  -OEChem-05262216053D

 64 63  0     1  0  0  0  0  0999 V2000
   -2.1021    0.3884    5.0681 C   0  0  0  0  0  0  0  0  0  0  0  0
   -3.2366    0.5325    4.6345 O   0  0  0  0  0  0  0  0  0  0  0  0
   -1.7908    0.7117    6.5166 C   0  0  0  0  0  0  0  0  0  0  0  0
   -1.0238    1.4884    6.5676 H   0  0  0  0  0  0  0  0  0  0  0  0
   -2.6904    1.0707    7.0240 H   0  0  0  0  0  0  0  0  0  0  0  0
   -1.4294   -0.1827    7.0298 H   0  0  0  0  0  0  0  0  0  0  0  0
   -1.1045   -0.0654    4.2336 N   0  0  0  0  0  0  0  0  0  0  0  0
   -1.2970   -0.3784    2.8126 C   0  0  2  0  0  0  0  0  0  0  0  0
   -0.2475   -1.3632    2.2596 C   0  0  0  0  0  0  0  0  0  0  0  0
    0.7598   -1.6279    2.9086 O   0  0  0  0  0  0  0  0  0  0  0  0
   -1.2850    0.9240    2.0013 C   0  0  0  0  0  0  0  0  0  0  0  0
    0.3016    1.8366    2.1541 S   0  0  0  0  0  0  0  0  0  0  0  0
   -0.1695   -0.1944    4.6178 H   0  0  0  0  0  0  0  0  0  0  0  0
   -2.2680   -0.8662    2.6888 H   0  0  0  0  0  0  0  0  0  0  0  0
   -1.4511    0.6903    0.9477 H   0  0  0  0  0  0  0  0  0  0  0  0
   -2.1009    1.5756    2.3277 H   0  0  0  0  0  0  0  0  0  0  0  0
   -0.4532   -1.9750    1.0372 N   0  0  0  0  0  0  0  0  0  0  0  0
    0.4734   -2.9318    0.4468 C   0  0  0  0  0  0  0  0  0  0  0  0
   -1.3440   -1.7941    0.5661 H   0  0  0  0  0  0  0  0  0  0  0  0
    1.4558   -2.4726    0.2955 H   0  0  0  0  0  0  0  0  0  0  0  0
    0.5886   -3.8059    1.0959 H   0  0  0  0  0  0  0  0  0  0  0  0
    0.0987   -3.2686   -0.5246 H   0  0  0  0  0  0  0  0  0  0  0  0
   -3.9028   -0.2389    0.1029 C   0  0  0  0  0  0  0  0  0  0  0  0
   -3.0934   -1.1539    0.0144 O   0  0  0  0  0  0  0  0  0  0  0  0
   -4.7627   -0.0880    1.3440 C   0  0  0  0  0  0  0  0  0  0  0  0
   -5.8156   -0.0143    1.0615 H   0  0  0  0  0  0  0  0  0  0  0  0
   -4.6378   -0.9527    2.0017 H   0  0  0  0  0  0  0  0  0  0  0  0
   -4.4788    0.8134    1.8935 H   0  0  0  0  0  0  0  0  0  0  0  0
   -3.9930    0.6859   -0.9151 N   0  0  0  0  0  0  0  0  0  0  0  0
   -3.2341    0.6019   -2.1696 C   0  0  2  0  0  0  0  0  0  0  0  0
   -1.8325    1.2511   -2.0851 C   0  0  0  0  0  0  0  0  0  0  0  0
   -1.7083    2.4656   -2.1511 O   0  0  0  0  0  0  0  0  0  0  0  0
   -4.0892    1.2506   -3.2641 C   0  0  0  0  0  0  0  0  0  0  0  0
   -4.5692    1.5082   -0.7527 H   0  0  0  0  0  0  0  0  0  0  0  0
   -3.0966   -0.4493   -2.4445 H   0  0  0  0  0  0  0  0  0  0  0  0
   -4.2784    2.3045   -3.0344 H   0  0  0  0  0  0  0  0  0  0  0  0
   -3.5752    1.1946   -4.2289 H   0  0  0  0  0  0  0  0  0  0  0  0
   -5.0504    0.7348   -3.3527 H   0  0  0  0  0  0  0  0  0  0  0  0
   -0.7116    0.4480   -2.1702 N   0  0  0  0  0  0  0  0  0  0  0  0
    0.6984    0.8696   -2.0647 C   0  0  2  0  0  0  0  0  0  0  0  0
    1.6018   -0.2604   -2.5930 C   0  0  0  0  0  0  0  0  0  0  0  0
    1.3312   -1.4300   -2.3385 O   0  0  0  0  0  0  0  0  0  0  0  0
    1.1675    1.1469   -0.6211 C   0  0  0  0  0  0  0  0  0  0  0  0
    0.3460    2.5681    0.2041 S   0  0  0  0  0  0  0  0  0  0  0  0
   -0.8788   -0.5551   -2.0943 H   0  0  0  0  0  0  0  0  0  0  0  0
    0.8525    1.7672   -2.6723 H   0  0  0  0  0  0  0  0  0  0  0  0
    0.9918    0.2470   -0.0240 H   0  0  0  0  0  0  0  0  0  0  0  0
    2.2464    1.3333   -0.6145 H   0  0  0  0  0  0  0  0  0  0  0  0
    2.6554    0.0168   -3.4421 N   0  0  0  0  0  0  0  0  0  0  0  0
    3.6053   -0.9856   -3.9419 C   0  0  2  0  0  0  0  0  0  0  0  0
    5.0110   -0.3815   -4.1435 C   0  0  0  0  0  0  0  0  0  0  0  0
    5.1646    0.8347   -4.1210 O   0  0  0  0  0  0  0  0  0  0  0  0
    3.0610   -1.5464   -5.2591 C   0  0  0  0  0  0  0  0  0  0  0  0
    2.9148    0.9955   -3.5728 H   0  0  0  0  0  0  0  0  0  0  0  0
    3.7028   -1.7988   -3.2147 H   0  0  0  0  0  0  0  0  0  0  0  0
    2.9618   -0.7488   -6.0023 H   0  0  0  0  0  0  0  0  0  0  0  0
    3.7310   -2.3135   -5.6579 H   0  0  0  0  0  0  0  0  0  0  0  0
    2.0770   -1.9984   -5.1000 H   0  0  0  0  0  0  0  0  0  0  0  0
    6.1084   -1.2015   -4.3321 N   0  0  0  0  0  0  0  0  0  0  0  0
    7.4667   -0.6955   -4.4917 C   0  0  0  0  0  0  0  0  0  0  0  0
    5.9556   -2.2057   -4.3214 H   0  0  0  0  0  0  0  0  0  0  0  0
    7.5246   -0.0164   -5.3488 H   0  0  0  0  0  0  0  0  0  0  0  0
    7.7837   -0.1561   -3.5929 H   0  0  0  0  0  0  0  0  0  0  0  0
    8.1617   -1.5237   -4.6609 H   0  0  0  0  0  0  0  0  0  0  0  0
  1  2  2  0  0  0  0
  1  3  1  0  0  0  0
  1  7  1  0  0  0  0
  3  4  1  0  0  0  0
  3  5  1  0  0  0  0
  3  6  1  0  0  0  0
  7  8  1  0  0  0  0
  7 13  1  0  0  0  0
  8  9  1  0  0  0  0
  8 11  1  0  0  0  0
  8 14  1  0  0  0  0
  9 10  2  0  0  0  0
  9 17  1  0  0  0  0
 11 12  1  0  0  0  0
 11 15  1  0  0  0  0
 11 16  1  0  0  0  0
 12 44  1  0  0  0  0
 17 18  1  0  0  0  0
 17 19  1  0  0  0  0
 18 20  1  0  0  0  0
 18 21  1  0  0  0  0
 18 22  1  0  0  0  0
 23 24  2  0  0  0  0
 23 25  1  0  0  0  0
 23 29  1  0  0  0  0
 25 26  1  0  0  0  0
 25 27  1  0  0  0  0
 25 28  1  0  0  0  0
 29 30  1  0  0  0  0
 29 34  1  0  0  0  0
 30 31  1  0  0  0  0
 30 33  1  0  0  0  0
 30 35  1  0  0  0  0
 31 32  2  0  0  0  0
 31 39  1  0  0  0  0
 33 36  1  0  0  0  0
 33 37  1  0  0  0  0
 33 38  1  0  0  0  0
 39 40  1  0  0  0  0
 39 45  1  0  0  0  0
 40 41  1  0  0  0  0
 40 43  1  0  0  0  0
 40 46  1  0  0  0  0
 41 42  2  0  0  0  0
 41 49  1  0  0  0  0
 43 44  1  0  0  0  0
 43 47  1  0  0  0  0
 43 48  1  0  0  0  0
 49 50  1  0  0  0  0
 49 54  1  0  0  0  0
 50 51  1  0  0  0  0
 50 53  1  0  0  0  0
 50 55  1  0  0  0  0
 51 52  2  0  0  0  0
 51 59  1  0  0  0  0
 53 56  1  0  0  0  0
 53 57  1  0  0  0  0
 53 58  1  0  0  0  0
 59 60  1  0  0  0  0
 59 61  1  0  0  0  0
 60 62  1  0  0  0  0
 60 63  1  0  0  0  0
 60 64  1  0  0  0  0
M  END
$$$$

  -OEChem-05262216053D

 64 63  0     1  0  0  0  0  0999 V2000
   -1.9504    0.3724    5.1258 C   0  0  0  0  0  0  0  0  0  0  0  0
   -3.1046    0.5528    4.7644 O   0  0  0  0  0  0  0  0  0  0  0  0
   -1.5440    0.6551    6.5596 C   0  0  0  0  0  0  0  0  0  0  0  0
   -0.7518    1.4078    6.5797 H   0  0  0  0  0  0  0  0  0  0  0  0
   -2.4004    1.0288    7.1280 H   0  0  0  0  0  0  0  0  0  0  0  0
   -1.1795   -0.2606    7.0316 H   0  0  0  0  0  0  0  0  0  0  0  0
   -1.0156   -0.0870    4.2244 N   0  0  0  0  0  0  0  0  0  0  0  0
   -1.2980   -0.3661    2.8111 C   0  0  2  0  0  0  0  0  0  0  0  0
   -0.3091   -1.3691    2.1839 C   0  0  0  0  0  0  0  0  0  0  0  0
    0.7385   -1.6530    2.7564 O   0  0  0  0  0  0  0  0  0  0  0  0
   -1.2910    0.9508    2.0231 C   0  0  0  0  0  0  0  0  0  0  0  0
    0.3254    1.8194    2.1188 S   0  0  0  0  0  0  0  0  0  0  0  0
   -0.0630   -0.2440    4.5503 H   0  0  0  0  0  0  0  0  0  0  0  0
   -2.2895   -0.8218    2.7321 H   0  0  0  0  0  0  0  0  0  0  0  0
   -1.5144    0.7429    0.9742 H   0  0  0  0  0  0  0  0  0  0  0  0
   -2.0731    1.6150    2.4031 H   0  0  0  0  0  0  0  0  0  0  0  0
   -0.6094   -1.9704    0.9761 N   0  0  0  0  0  0  0  0  0  0  0  0
    0.2446   -2.9616    0.3352 C   0  0  0  0  0  0  0  0  0  0  0  0
   -1.5362   -1.7855    0.5819 H   0  0  0  0  0  0  0  0  0  0  0  0
    1.2403   -2.5465    0.1472 H   0  0  0  0  0  0  0  0  0  0  0  0
    0.3460   -3.8478    0.9700 H   0  0  0  0  0  0  0  0  0  0  0  0
   -0.1866   -3.2682   -0.6227 H   0  0  0  0  0  0  0  0  0  0  0  0
   -4.0174   -0.1053    0.1614 C   0  0  0  0  0  0  0  0  0  0  0  0
   -3.2787   -1.0820    0.1658 O   0  0  0  0  0  0  0  0  0  0  0  0
   -4.8357    0.2422    1.3911 C   0  0  0  0  0  0  0  0  0  0  0  0
   -5.8947    0.3075    1.1295 H   0  0  0  0  0  0  0  0  0  0  0  0
   -4.7126   -0.5254    2.1603 H   0  0  0  0  0  0  0  0  0  0  0  0
   -4.5102    1.2018    1.8010 H   0  0  0  0  0  0  0  0  0  0  0  0
   -4.0486    0.7156   -0.9460 N   0  0  0  0  0  0  0  0  0  0  0  0
   -3.2452    0.4860   -2.1549 C   0  0  2  0  0  0  0  0  0  0  0  0
   -1.8424    1.1310   -2.0837 C   0  0  0  0  0  0  0  0  0  0  0  0
   -1.7186    2.3454   -2.1516 O   0  0  0  0  0  0  0  0  0  0  0  0
   -4.0391    1.0245   -3.3491 C   0  0  0  0  0  0  0  0  0  0  0  0
   -4.5335    1.6052   -0.8534 H   0  0  0  0  0  0  0  0  0  0  0  0
   -3.1113   -0.5898   -2.3105 H   0  0  0  0  0  0  0  0  0  0  0  0
   -4.2283    2.0973   -3.2365 H   0  0  0  0  0  0  0  0  0  0  0  0
   -3.4796    0.8679   -4.2768 H   0  0  0  0  0  0  0  0  0  0  0  0
   -4.9994    0.5065   -3.4318 H   0  0  0  0  0  0  0  0  0  0  0  0
   -0.7254    0.3225   -2.1580 N   0  0  0  0  0  0  0  0  0  0  0  0
    0.6910    0.7272   -2.0792 C   0  0  2  0  0  0  0  0  0  0  0  0
    1.5753   -0.4297   -2.5867 C   0  0  0  0  0  0  0  0  0  0  0  0
    1.1731   -1.5876   -2.5142 O   0  0  0  0  0  0  0  0  0  0  0  0
    1.1729    1.0367   -0.6459 C   0  0  0  0  0  0  0  0  0  0  0  0
    0.3758    2.4904    0.1467 S   0  0  0  0  0  0  0  0  0  0  0  0
   -0.8959   -0.6824   -2.1238 H   0  0  0  0  0  0  0  0  0  0  0  0
    0.8519    1.6049   -2.7141 H   0  0  0  0  0  0  0  0  0  0  0  0
    0.9890    0.1557   -0.0236 H   0  0  0  0  0  0  0  0  0  0  0  0
    2.2537    1.2101   -0.6501 H   0  0  0  0  0  0  0  0  0  0  0  0
    2.7905   -0.1790   -3.1943 N   0  0  0  0  0  0  0  0  0  0  0  0
    3.7313   -1.2202   -3.6293 C   0  0  2  0  0  0  0  0  0  0  0  0
    5.1947   -0.7410   -3.5264 C   0  0  0  0  0  0  0  0  0  0  0  0
    5.4388    0.4432   -3.3233 O   0  0  0  0  0  0  0  0  0  0  0  0
    3.3886   -1.6062   -5.0718 C   0  0  0  0  0  0  0  0  0  0  0  0
    3.1525    0.7748   -3.1574 H   0  0  0  0  0  0  0  0  0  0  0  0
    3.6324   -2.1006   -2.9850 H   0  0  0  0  0  0  0  0  0  0  0  0
    3.4983   -0.7417   -5.7346 H   0  0  0  0  0  0  0  0  0  0  0  0
    4.0499   -2.4031   -5.4249 H   0  0  0  0  0  0  0  0  0  0  0  0
    2.3558   -1.9639   -5.1346 H   0  0  0  0  0  0  0  0  0  0  0  0
    6.2390   -1.6398   -3.6457 N   0  0  0  0  0  0  0  0  0  0  0  0
    7.6407   -1.2596   -3.5153 C   0  0  0  0  0  0  0  0  0  0  0  0
    6.0067   -2.6188   -3.7862 H   0  0  0  0  0  0  0  0  0  0  0  0
    7.9008   -0.4915   -4.2513 H   0  0  0  0  0  0  0  0  0  0  0  0
    7.8397   -0.8680   -2.5122 H   0  0  0  0  0  0  0  0  0  0  0  0
    8.2855   -2.1280   -3.6811 H   0  0  0  0  0  0  0  0  0  0  0  0
  1  2  2  0  0  0  0
  1  3  1  0  0  0  0
  1  7  1  0  0  0  0
  3  4  1  0  0  0  0
  3  5  1  0  0  0  0
  3  6  1  0  0  0  0
  7  8  1  0  0  0  0
  7 13  1  0  0  0  0
  8  9  1  0  0  0  0
  8 11  1  0  0  0  0
  8 14  1  0  0  0  0
  9 10  2  0  0  0  0
  9 17  1  0  0  0  0
 11 12  1  0  0  0  0
 11 15  1  0  0  0  0
 11 16  1  0  0  0  0
 12 44  1  0  0  0  0
 17 18  1  0  0  0  0
 17 19  1  0  0  0  0
 18 20  1  0  0  0  0
 18 21  1  0  0  0  0
 18 22  1  0  0  0  0
 23 24  2  0  0  0  0
 23 25  1  0  0  0  0
 23 29  1  0  0  0  0
 25 26  1  0  0  0  0
 25 27  1  0  0  0  0
 25 28  1  0  0  0  0
 29 30  1  0  0  0  0
 29 34  1  0  0  0  0
 30 31  1  0  0  0  0
 30 33  1  0  0  0  0
 30 35  1  0  0  0  0
 31 32  2  0  0  0  0
 31 39  1  0  0  0  0
 33 36  1  0  0  0  0
 33 37  1  0  0  0  0
 33 38  1  0  0  0  0
 39 40  1  0  0  0  0
 39 45  1  0  0  0  0
 40 41  1  0  0  0  0
 40 43  1  0  0  0  0
 40 46  1  0  0  0  0
 41 42  2  0  0  0  0
 41 49  1  0  0  0  0
 43 44  1  0  0  0  0
 43 47  1  0  0  0  0
 43 48  1  0  0  0  0
 49 50  1  0  0  0  0
 49 54  1  0  0  0  0
 50 51  1  0  0  0  0
 50 53  1  0  0  0  0
 50 55  1  0  0  0  0
 51 52  2  0  0  0  0
 51 59  1  0  0  0  0
 53 56  1  0  0  0  0
 53 57  1  0  0  0  0
 53 58  1  0  0  0  0
 59 60  1  0  0  0  0
 59 61  1  0  0  0  0
 60 62  1  0  0  0  0
 60 63  1  0  0  0  0
 60 64  1  0  0  0  0
M  END
$$$$

  -OEChem-05262216053D

 64 63  0     1  0  0  0  0  0999 V2000
   -1.7193    0.2992    5.1588 C   0  0  0  0  0  0  0  0  0  0  0  0
   -2.8793    0.5846    4.8990 O   0  0  0  0  0  0  0  0  0  0  0  0
   -1.1887    0.4645    6.5699 C   0  0  0  0  0  0  0  0  0  0  0  0
   -0.3776    1.1966    6.5787 H   0  0  0  0  0  0  0  0  0  0  0  0
   -1.9850    0.8112    7.2344 H   0  0  0  0  0  0  0  0  0  0  0  0
   -0.8118   -0.4915    6.9409 H   0  0  0  0  0  0  0  0  0  0  0  0
   -0.8931   -0.1818    4.1674 N   0  0  0  0  0  0  0  0  0  0  0  0
   -1.3043   -0.3858    2.7731 C   0  0  2  0  0  0  0  0  0  0  0  0
   -0.4290   -1.4209    2.0379 C   0  0  0  0  0  0  0  0  0  0  0  0
    0.6408   -1.7853    2.5165 O   0  0  0  0  0  0  0  0  0  0  0  0
   -1.2784    0.9572    2.0310 C   0  0  0  0  0  0  0  0  0  0  0  0
    0.3845    1.7391    2.0493 S   0  0  0  0  0  0  0  0  0  0  0  0
    0.0636   -0.4325    4.4125 H   0  0  0  0  0  0  0  0  0  0  0  0
   -2.3259   -0.7782    2.7598 H   0  0  0  0  0  0  0  0  0  0  0  0
   -1.5816    0.8013    0.9933 H   0  0  0  0  0  0  0  0  0  0  0  0
   -1.9981    1.6444    2.4858 H   0  0  0  0  0  0  0  0  0  0  0  0
   -0.8575   -1.9632    0.8406 N   0  0  0  0  0  0  0  0  0  0  0  0
   -0.1367   -3.0123    0.1310 C   0  0  0  0  0  0  0  0  0  0  0  0
   -1.8129   -1.7352    0.5504 H   0  0  0  0  0  0  0  0  0  0  0  0
    0.9013   -2.7130   -0.0480 H   0  0  0  0  0  0  0  0  0  0  0  0
   -0.1403   -3.9396    0.7130 H   0  0  0  0  0  0  0  0  0  0  0  0
   -0.6083   -3.2070   -0.8370 H   0  0  0  0  0  0  0  0  0  0  0  0
   -4.1480    0.1191    0.2315 C   0  0  0  0  0  0  0  0  0  0  0  0
   -3.5330   -0.9333    0.3439 O   0  0  0  0  0  0  0  0  0  0  0  0
   -4.8968    0.6970    1.4179 C   0  0  0  0  0  0  0  0  0  0  0  0
   -5.9682    0.7249    1.2045 H   0  0  0  0  0  0  0  0  0  0  0  0
   -4.7309    0.0837    2.3085 H   0  0  0  0  0  0  0  0  0  0  0  0
   -4.5476    1.7115    1.6255 H   0  0  0  0  0  0  0  0  0  0  0  0
   -4.0927    0.8115   -0.9596 N   0  0  0  0  0  0  0  0  0  0  0  0
   -3.2790    0.3894   -2.1081 C   0  0  2  0  0  0  0  0  0  0  0  0
   -1.8618    1.0039   -2.0925 C   0  0  0  0  0  0  0  0  0  0  0  0
   -1.7226    2.2156   -2.1762 O   0  0  0  0  0  0  0  0  0  0  0  0
   -4.0329    0.7879   -3.3796 C   0  0  0  0  0  0  0  0  0  0  0  0
   -4.4516    1.7637   -0.9574 H   0  0  0  0  0  0  0  0  0  0  0  0
   -3.1756   -0.7006   -2.1143 H   0  0  0  0  0  0  0  0  0  0  0  0
   -4.1672    1.8736   -3.4244 H   0  0  0  0  0  0  0  0  0  0  0  0
   -3.4753    0.4712   -4.2665 H   0  0  0  0  0  0  0  0  0  0  0  0
   -5.0184    0.3128   -3.4021 H   0  0  0  0  0  0  0  0  0  0  0  0
   -0.7591    0.1758   -2.1718 N   0  0  0  0  0  0  0  0  0  0  0  0
    0.6649    0.5603   -2.1384 C   0  0  2  0  0  0  0  0  0  0  0  0
    1.5284   -0.6199   -2.6345 C   0  0  0  0  0  0  0  0  0  0  0  0
    1.0485   -1.7478   -2.7136 O   0  0  0  0  0  0  0  0  0  0  0  0
    1.1738    0.8918   -0.7177 C   0  0  0  0  0  0  0  0  0  0  0  0
    0.4136    2.3706    0.0639 S   0  0  0  0  0  0  0  0  0  0  0  0
   -0.9421   -0.8270   -2.1591 H   0  0  0  0  0  0  0  0  0  0  0  0
    0.8266    1.4208   -2.7956 H   0  0  0  0  0  0  0  0  0  0  0  0
    0.9896    0.0248   -0.0765 H   0  0  0  0  0  0  0  0  0  0  0  0
    2.2563    1.0528   -0.7400 H   0  0  0  0  0  0  0  0  0  0  0  0
    2.8492   -0.4265   -2.9917 N   0  0  0  0  0  0  0  0  0  0  0  0
    3.7912   -1.5034   -3.3234 C   0  0  2  0  0  0  0  0  0  0  0  0
    5.2320   -1.1291   -2.9169 C   0  0  0  0  0  0  0  0  0  0  0  0
    5.5001    0.0285   -2.6144 O   0  0  0  0  0  0  0  0  0  0  0  0
    3.7071   -1.7728   -4.8290 C   0  0  0  0  0  0  0  0  0  0  0  0
    3.2576    0.4920   -2.8129 H   0  0  0  0  0  0  0  0  0  0  0  0
    3.5230   -2.4131   -2.7755 H   0  0  0  0  0  0  0  0  0  0  0  0
    3.9816   -0.8756   -5.3931 H   0  0  0  0  0  0  0  0  0  0  0  0
    4.3833   -2.5840   -5.1138 H   0  0  0  0  0  0  0  0  0  0  0  0
    2.6885   -2.0610   -5.1076 H   0  0  0  0  0  0  0  0  0  0  0  0
    6.2257   -2.0895   -2.8751 N   0  0  0  0  0  0  0  0  0  0  0  0
    7.5964   -1.8014   -2.4705 C   0  0  0  0  0  0  0  0  0  0  0  0
    5.9699   -3.0461   -3.1016 H   0  0  0  0  0  0  0  0  0  0  0  0
    8.0361   -1.0386   -3.1216 H   0  0  0  0  0  0  0  0  0  0  0  0
    7.6226   -1.4401   -1.4372 H   0  0  0  0  0  0  0  0  0  0  0  0
    8.2094   -2.7053   -2.5367 H   0  0  0  0  0  0  0  0  0  0  0  0
  1  2  2  0  0  0  0
  1  3  1  0  0  0  0
  1  7  1  0  0  0  0
  3  4  1  0  0  0  0
  3  5  1  0  0  0  0
  3  6  1  0  0  0  0
  7  8  1  0  0  0  0
  7 13  1  0  0  0  0
  8  9  1  0  0  0  0
  8 11  1  0  0  0  0
  8 14  1  0  0  0  0
  9 10  2  0  0  0  0
  9 17  1  0  0  0  0
 11 12  1  0  0  0  0
 11 15  1  0  0  0  0
 11 16  1  0  0  0  0
 12 44  1  0  0  0  0
 17 18  1  0  0  0  0
 17 19  1  0  0  0  0
 18 20  1  0  0  0  0
 18 21  1  0  0  0  0
 18 22  1  0  0  0  0
 23 24  2  0  0  0  0
 23 25  1  0  0  0  0
 23 29  1  0  0  0  0
 25 26  1  0  0  0  0
 25 27  1  0  0  0  0
 25 28  1  0  0  0  0
 29 30  1  0  0  0  0
 29 34  1  0  0  0  0
 30 31  1  0  0  0  0
 30 33  1  0  0  0  0
 30 35  1  0  0  0  0
 31 32  2  0  0  0  0
 31 39  1  0  0  0  0
 33 36  1  0  0  0  0
 33 37  1  0  0  0  0
 33 38  1  0  0  0  0
 39 40  1  0  0  0  0
 39 45  1  0  0  0  0
 40 41  1  0  0  0  0
 40 43  1  0  0  0  0
 40 46  1  0  0  0  0
 41 42  2  0  0  0  0
 41 49  1  0  0  0  0
 43 44  1  0  0  0  0
 43 47  1  0  0  0  0
 43 48  1  0  0  0  0
 49 50  1  0  0  0  0
 49 54  1  0  0  0  0
 50 51  1  0  0  0  0
 50 53  1  0  0  0  0
 50 55  1  0  0  0  0
 51 52  2  0  0  0  0
 51 59  1  0  0  0  0
 53 56  1  0  0  0  0
 53 57  1  0  0  0  0
 53 58  1  0  0  0  0
 59 60  1  0  0  0  0
 59 61  1  0  0  0  0
 60 62  1  0  0  0  0
 60 63  1  0  0  0  0
 60 64  1  0  0  0  0
M  END
$$$$

  -OEChem-05262216053D

 64 63  0     1  0  0  0  0  0999 V2000
   -1.5503   -1.9546    5.1674 C   0  0  0  0  0  0  0  0  0  0  0  0
   -2.6741   -2.1065    4.7145 O   0  0  0  0  0  0  0  0  0  0  0  0
   -1.3573   -1.3861    6.5602 C   0  0  0  0  0  0  0  0  0  0  0  0
   -0.7223   -0.4980    6.5153 H   0  0  0  0  0  0  0  0  0  0  0  0
   -2.3234   -1.1077    6.9900 H   0  0  0  0  0  0  0  0  0  0  0  0
   -0.8853   -2.1312    7.2051 H   0  0  0  0  0  0  0  0  0  0  0  0
   -0.4550   -2.3151    4.4146 N   0  0  0  0  0  0  0  0  0  0  0  0
   -0.5210   -2.9217    3.0773 C   0  0  2  0  0  0  0  0  0  0  0  0
    0.7514   -3.7356    2.7542 C   0  0  0  0  0  0  0  0  0  0  0  0
    1.6710   -3.7945    3.5641 O   0  0  0  0  0  0  0  0  0  0  0  0
   -0.7558   -1.8216    2.0292 C   0  0  0  0  0  0  0  0  0  0  0  0
    0.6140   -0.5944    2.0185 S   0  0  0  0  0  0  0  0  0  0  0  0
    0.4660   -2.2446    4.8460 H   0  0  0  0  0  0  0  0  0  0  0  0
   -1.3621   -3.6225    3.0458 H   0  0  0  0  0  0  0  0  0  0  0  0
   -0.8532   -2.2655    1.0348 H   0  0  0  0  0  0  0  0  0  0  0  0
   -1.6952   -1.3048    2.2501 H   0  0  0  0  0  0  0  0  0  0  0  0
    0.8526   -4.4475    1.5716 N   0  0  0  0  0  0  0  0  0  0  0  0
    2.0340   -5.2186    1.2032 C   0  0  0  0  0  0  0  0  0  0  0  0
    0.0793   -4.3886    0.9161 H   0  0  0  0  0  0  0  0  0  0  0  0
    2.9096   -4.5650    1.1271 H   0  0  0  0  0  0  0  0  0  0  0  0
    2.2361   -5.9920    1.9518 H   0  0  0  0  0  0  0  0  0  0  0  0
    1.8811   -5.7065    0.2358 H   0  0  0  0  0  0  0  0  0  0  0  0
   -5.4072    1.1034   -1.0338 C   0  0  0  0  0  0  0  0  0  0  0  0
   -5.7606    0.0067   -1.4382 O   0  0  0  0  0  0  0  0  0  0  0  0
   -6.1419    1.7624    0.1179 C   0  0  0  0  0  0  0  0  0  0  0  0
   -6.5505    2.7241   -0.2014 H   0  0  0  0  0  0  0  0  0  0  0  0
   -6.9631    1.1238    0.4548 H   0  0  0  0  0  0  0  0  0  0  0  0
   -5.4565    1.9243    0.9534 H   0  0  0  0  0  0  0  0  0  0  0  0
   -4.3311    1.7414   -1.6136 N   0  0  0  0  0  0  0  0  0  0  0  0
   -3.4180    1.1093   -2.5748 C   0  0  2  0  0  0  0  0  0  0  0  0
   -1.9470    1.4045   -2.2217 C   0  0  0  0  0  0  0  0  0  0  0  0
   -1.6540    2.4439   -1.6422 O   0  0  0  0  0  0  0  0  0  0  0  0
   -3.7564    1.6324   -3.9724 C   0  0  0  0  0  0  0  0  0  0  0  0
   -3.9863    2.5788   -1.1453 H   0  0  0  0  0  0  0  0  0  0  0  0
   -3.5439    0.0215   -2.5610 H   0  0  0  0  0  0  0  0  0  0  0  0
   -3.6463    2.7210   -4.0116 H   0  0  0  0  0  0  0  0  0  0  0  0
   -3.0926    1.1877   -4.7201 H   0  0  0  0  0  0  0  0  0  0  0  0
   -4.7891    1.3763   -4.2301 H   0  0  0  0  0  0  0  0  0  0  0  0
   -0.9519    0.5244   -2.6010 N   0  0  0  0  0  0  0  0  0  0  0  0
    0.4792    0.6544   -2.2769 C   0  0  2  0  0  0  0  0  0  0  0  0
    1.3472    0.0229   -3.3876 C   0  0  0  0  0  0  0  0  0  0  0  0
    0.8169   -0.5600   -4.3284 O   0  0  0  0  0  0  0  0  0  0  0  0
    0.7872   -0.0764   -0.9516 C   0  0  0  0  0  0  0  0  0  0  0  0
   -0.0450    0.6771    0.5028 S   0  0  0  0  0  0  0  0  0  0  0  0
   -1.2140   -0.2304   -3.2335 H   0  0  0  0  0  0  0  0  0  0  0  0
    0.7550    1.7111   -2.1893 H   0  0  0  0  0  0  0  0  0  0  0  0
    0.4770   -1.1226   -1.0364 H   0  0  0  0  0  0  0  0  0  0  0  0
    1.8646   -0.0657   -0.7604 H   0  0  0  0  0  0  0  0  0  0  0  0
    2.7266    0.0301   -3.2965 N   0  0  0  0  0  0  0  0  0  0  0  0
    3.6252   -0.7481   -4.1604 C   0  0  2  0  0  0  0  0  0  0  0  0
    4.7691   -1.3874   -3.3446 C   0  0  0  0  0  0  0  0  0  0  0  0
    4.9092   -1.1021   -2.1603 O   0  0  0  0  0  0  0  0  0  0  0  0
    4.1749    0.1910   -5.2374 C   0  0  0  0  0  0  0  0  0  0  0  0
    3.1308    0.3728   -2.4246 H   0  0  0  0  0  0  0  0  0  0  0  0
    3.0781   -1.5650   -4.6429 H   0  0  0  0  0  0  0  0  0  0  0  0
    4.7424    1.0083   -4.7805 H   0  0  0  0  0  0  0  0  0  0  0  0
    4.8334   -0.3510   -5.9227 H   0  0  0  0  0  0  0  0  0  0  0  0
    3.3523    0.6201   -5.8185 H   0  0  0  0  0  0  0  0  0  0  0  0
    5.6296   -2.2981   -3.9293 N   0  0  0  0  0  0  0  0  0  0  0  0
    6.7181   -2.9467   -3.2076 C   0  0  0  0  0  0  0  0  0  0  0  0
    5.4803   -2.5297   -4.9071 H   0  0  0  0  0  0  0  0  0  0  0  0
    7.3700   -2.1997   -2.7421 H   0  0  0  0  0  0  0  0  0  0  0  0
    6.3209   -3.6034   -2.4266 H   0  0  0  0  0  0  0  0  0  0  0  0
    7.3216   -3.5485   -3.8939 H   0  0  0  0  0  0  0  0  0  0  0  0
  1  2  2  0  0  0  0
  1  3  1  0  0  0  0
  1  7  1  0  0  0  0
  3  4  1  0  0  0  0
  3  5  1  0  0  0  0
  3  6  1  0  0  0  0
  7  8  1  0  0  0  0
  7 13  1  0  0  0  0
  8  9  1  0  0  0  0
  8 11  1  0  0  0  0
  8 14  1  0  0  0  0
  9 10  2  0  0  0  0
  9 17  1  0  0  0  0
 11 12  1  0  0  0  0
 11 15  1  0  0  0  0
 11 16  1  0  0  0  0
 12 44  1  0  0  0  0
 17 18  1  0  0  0  0
 17 19  1  0  0  0  0
 18 20  1  0  0  0  0
 18 21  1  0  0  0  0
 18 22  1  0  0  0  0
 23 24  2  0  0  0  0
 23 25  1  0  0  0  0
 23 29  1  0  0  0  0
 25 26  1  0  0  0  0
 25 27  1  0  0  0  0
 25 28  1  0  0  0  0
 29 30  1  0  0  0  0
 29 34  1  0  0  0  0
 30 31  1  0  0  0  0
 30 33  1  0  0  0  0
 30 35  1  0  0  0  0
 31 32  2  0  0  0  0
 31 39  1  0  0  0  0
 33 36  1  0  0  0  0
 33 37  1  0  0  0  0
 33 38  1  0  0  0  0
 39 40  1  0  0  0  0
 39 45  1  0  0  0  0
 40 41  1  0  0  0  0
 40 43  1  0  0  0  0
 40 46  1  0  0  0  0
 41 42  2  0  0  0  0
 41 49  1  0  0  0  0
 43 44  1  0  0  0  0
 43 47  1  0  0  0  0
 43 48  1  0  0  0  0
 49 50  1  0  0  0  0
 49 54  1  0  0  0  0
 50 51  1  0  0  0  0
 50 53  1  0  0  0  0
 50 55  1  0  0  0  0
 51 52  2  0  0  0  0
 51 59  1  0  0  0  0
 53 56  1  0  0  0  0
 53 57  1  0  0  0  0
 53 58  1  0  0  0  0
 59 60  1  0  0  0  0
 59 61  1  0  0  0  0
 60 62  1  0  0  0  0
 60 63  1  0  0  0  0
 60 64  1  0  0  0  0
M  END
$$$$

  -OEChem-05262216053D

 64 63  0     1  0  0  0  0  0999 V2000
   -2.1368   -1.4716    4.3890 C   0  0  0  0  0  0  0  0  0  0  0  0
   -3.1067   -1.5633    3.6499 O   0  0  0  0  0  0  0  0  0  0  0  0
   -2.3244   -1.1760    5.8648 C   0  0  0  0  0  0  0  0  0  0  0  0
   -1.8303   -0.2357    6.1223 H   0  0  0  0  0  0  0  0  0  0  0  0
   -3.3891   -1.0911    6.1005 H   0  0  0  0  0  0  0  0  0  0  0  0
   -1.8939   -1.9817    6.4644 H   0  0  0  0  0  0  0  0  0  0  0  0
   -0.8695   -1.6361    3.8743 N   0  0  0  0  0  0  0  0  0  0  0  0
   -0.5790   -1.9771    2.4758 C   0  0  2  0  0  0  0  0  0  0  0  0
    0.8138   -2.6225    2.3039 C   0  0  0  0  0  0  0  0  0  0  0  0
    1.5364   -2.7877    3.2812 O   0  0  0  0  0  0  0  0  0  0  0  0
   -0.7082   -0.7153    1.6125 C   0  0  0  0  0  0  0  0  0  0  0  0
    0.6327    0.4966    1.9485 S   0  0  0  0  0  0  0  0  0  0  0  0
   -0.0822   -1.6255    4.5222 H   0  0  0  0  0  0  0  0  0  0  0  0
   -1.3110   -2.7158    2.1339 H   0  0  0  0  0  0  0  0  0  0  0  0
   -0.6773   -1.0030    0.5599 H   0  0  0  0  0  0  0  0  0  0  0  0
   -1.6737   -0.2336    1.7912 H   0  0  0  0  0  0  0  0  0  0  0  0
    1.2499   -3.0401    1.0579 N   0  0  0  0  0  0  0  0  0  0  0  0
    2.5910   -3.5631    0.8172 C   0  0  0  0  0  0  0  0  0  0  0  0
    0.6432   -2.8687    0.2610 H   0  0  0  0  0  0  0  0  0  0  0  0
    3.3387   -2.7728    0.9422 H   0  0  0  0  0  0  0  0  0  0  0  0
    2.8186   -4.3777    1.5130 H   0  0  0  0  0  0  0  0  0  0  0  0
    2.6704   -3.9548   -0.2005 H   0  0  0  0  0  0  0  0  0  0  0  0
   -3.0646   -1.1038   -1.0289 C   0  0  0  0  0  0  0  0  0  0  0  0
   -2.1502   -1.6202   -1.6574 O   0  0  0  0  0  0  0  0  0  0  0  0
   -3.7273   -1.8543    0.1106 C   0  0  0  0  0  0  0  0  0  0  0  0
   -4.7439   -2.1372   -0.1728 H   0  0  0  0  0  0  0  0  0  0  0  0
   -3.1636   -2.7602    0.3482 H   0  0  0  0  0  0  0  0  0  0  0  0
   -3.7722   -1.2250    1.0028 H   0  0  0  0  0  0  0  0  0  0  0  0
   -3.4877    0.1689   -1.3505 N   0  0  0  0  0  0  0  0  0  0  0  0
   -3.0588    0.9110   -2.5462 C   0  0  2  0  0  0  0  0  0  0  0  0
   -1.6190    1.4728   -2.4472 C   0  0  0  0  0  0  0  0  0  0  0  0
   -1.3987    2.6722   -2.3339 O   0  0  0  0  0  0  0  0  0  0  0  0
   -4.1002    2.0097   -2.7917 C   0  0  0  0  0  0  0  0  0  0  0  0
   -4.2130    0.5762   -0.7660 H   0  0  0  0  0  0  0  0  0  0  0  0
   -3.0774    0.2383   -3.4104 H   0  0  0  0  0  0  0  0  0  0  0  0
   -4.1324    2.7063   -1.9474 H   0  0  0  0  0  0  0  0  0  0  0  0
   -3.8485    2.5742   -3.6952 H   0  0  0  0  0  0  0  0  0  0  0  0
   -5.0947    1.5729   -2.9245 H   0  0  0  0  0  0  0  0  0  0  0  0
   -0.5584    0.6047   -2.6084 N   0  0  0  0  0  0  0  0  0  0  0  0
    0.8638    0.9403   -2.4162 C   0  0  2  0  0  0  0  0  0  0  0  0
    1.7585    0.0808   -3.3436 C   0  0  0  0  0  0  0  0  0  0  0  0
    1.2639   -0.6299   -4.2143 O   0  0  0  0  0  0  0  0  0  0  0  0
    1.2523    0.6347   -0.9559 C   0  0  0  0  0  0  0  0  0  0  0  0
    0.3768    1.6937    0.2630 S   0  0  0  0  0  0  0  0  0  0  0  0
   -0.8139   -0.3848   -2.6605 H   0  0  0  0  0  0  0  0  0  0  0  0
    1.0466    1.9963   -2.6418 H   0  0  0  0  0  0  0  0  0  0  0  0
    1.0420   -0.4182   -0.7494 H   0  0  0  0  0  0  0  0  0  0  0  0
    2.3239    0.7897   -0.8041 H   0  0  0  0  0  0  0  0  0  0  0  0
    3.1260   -0.0145   -3.1382 N   0  0  0  0  0  0  0  0  0  0  0  0
    3.9548   -1.0715   -3.7364 C   0  0  2  0  0  0  0  0  0  0  0  0
    3.6143   -2.4675   -3.1578 C   0  0  0  0  0  0  0  0  0  0  0  0
    4.2347   -2.9360   -2.2107 O   0  0  0  0  0  0  0  0  0  0  0  0
    5.4248   -0.6949   -3.5174 C   0  0  0  0  0  0  0  0  0  0  0  0
    3.5105    0.4964   -2.3484 H   0  0  0  0  0  0  0  0  0  0  0  0
    3.7769   -1.1086   -4.8166 H   0  0  0  0  0  0  0  0  0  0  0  0
    5.6518   -0.6228   -2.4489 H   0  0  0  0  0  0  0  0  0  0  0  0
    6.0792   -1.4540   -3.9576 H   0  0  0  0  0  0  0  0  0  0  0  0
    5.6462    0.2678   -3.9884 H   0  0  0  0  0  0  0  0  0  0  0  0
    2.5370   -3.1612   -3.6745 N   0  0  0  0  0  0  0  0  0  0  0  0
    2.0225   -4.4037   -3.1134 C   0  0  0  0  0  0  0  0  0  0  0  0
    1.9182   -2.6096   -4.2743 H   0  0  0  0  0  0  0  0  0  0  0  0
    2.8403   -5.0822   -2.8477 H   0  0  0  0  0  0  0  0  0  0  0  0
    1.4268   -4.1995   -2.2186 H   0  0  0  0  0  0  0  0  0  0  0  0
    1.3869   -4.9095   -3.8467 H   0  0  0  0  0  0  0  0  0  0  0  0
  1  2  2  0  0  0  0
  1  3  1  0  0  0  0
  1  7  1  0  0  0  0
  3  4  1  0  0  0  0
  3  5  1  0  0  0  0
  3  6  1  0  0  0  0
  7  8  1  0  0  0  0
  7 13  1  0  0  0  0
  8  9  1  0  0  0  0
  8 11  1  0  0  0  0
  8 14  1  0  0  0  0
  9 10  2  0  0  0  0
  9 17  1  0  0  0  0
 11 12  1  0  0  0  0
 11 15  1  0  0  0  0
 11 16  1  0  0  0  0
 12 44  1  0  0  0  0
 17 18  1  0  0  0  0
 17 19  1  0  0  0  0
 18 20  1  0  0  0  0
 18 21  1  0  0  0  0
 18 22  1  0  0  0  0
 23 24  2  0  0  0  0
 23 25  1  0  0  0  0
 23 29  1  0  0  0  0
 25 26  1  0  0  0  0
 25 27  1  0  0  0  0
 25 28  1  0  0  0  0
 29 30  1  0  0  0  0
 29 34  1  0  0  0  0
 30 31  1  0  0  0  0
 30 33  1  0  0  0  0
 30 35  1  0  0  0  0
 31 32  2  0  0  0  0
 31 39  1  0  0  0  0
 33 36  1  0  0  0  0
 33 37  1  0  0  0  0
 33 38  1  0  0  0  0
 39 40  1  0  0  0  0
 39 45  1  0  0  0  0
 40 41  1  0  0  0  0
 40 43  1  0  0  0  0
 40 46  1  0  0  0  0
 41 42  2  0  0  0  0
 41 49  1  0  0  0  0
 43 44  1  0  0  0  0
 43 47  1  0  0  0  0
 43 48  1  0  0  0  0
 49 50  1  0  0  0  0
 49 54  1  0  0  0  0
 50 51  1  0  0  0  0
 50 53  1  0  0  0  0
 50 55  1  0  0  0  0
 51 52  2  0  0  0  0
 51 59  1  0  0  0  0
 53 56  1  0  0  0  0
 53 57  1  0  0  0  0
 53 58  1  0  0  0  0
 59 60  1  0  0  0  0
 59 61  1  0  0  0  0
 60 62  1  0  0  0  0
 60 63  1  0  0  0  0
 60 64  1  0  0  0  0
M  END
$$$$

  -OEChem-05262216053D

 64 63  0     1  0  0  0  0  0999 V2000
   -1.9280   -2.1780    4.0647 C   0  0  0  0  0  0  0  0  0  0  0  0
   -2.7254   -2.5480    3.2154 O   0  0  0  0  0  0  0  0  0  0  0  0
   -2.4089   -1.8167    5.4571 C   0  0  0  0  0  0  0  0  0  0  0  0
   -2.1527   -0.7785    5.6819 H   0  0  0  0  0  0  0  0  0  0  0  0
   -3.4939   -1.9348    5.5248 H   0  0  0  0  0  0  0  0  0  0  0  0
   -1.9359   -2.4688    6.1953 H   0  0  0  0  0  0  0  0  0  0  0  0
   -0.5870   -2.0868    3.7620 N   0  0  0  0  0  0  0  0  0  0  0  0
    0.0180   -2.4915    2.4846 C   0  0  2  0  0  0  0  0  0  0  0  0
    1.5442   -2.7088    2.6180 C   0  0  0  0  0  0  0  0  0  0  0  0
    2.0546   -2.7087    3.7349 O   0  0  0  0  0  0  0  0  0  0  0  0
   -0.3163   -1.4528    1.4079 C   0  0  0  0  0  0  0  0  0  0  0  0
    0.5007    0.1667    1.7227 S   0  0  0  0  0  0  0  0  0  0  0  0
    0.0560   -1.8598    4.5199 H   0  0  0  0  0  0  0  0  0  0  0  0
   -0.4100   -3.4522    2.1810 H   0  0  0  0  0  0  0  0  0  0  0  0
   -0.0043   -1.8466    0.4387 H   0  0  0  0  0  0  0  0  0  0  0  0
   -1.3962   -1.2999    1.3641 H   0  0  0  0  0  0  0  0  0  0  0  0
    2.3497   -2.9588    1.5193 N   0  0  0  0  0  0  0  0  0  0  0  0
    3.7942   -3.1198    1.6169 C   0  0  0  0  0  0  0  0  0  0  0  0
    1.9467   -2.8450    0.5856 H   0  0  0  0  0  0  0  0  0  0  0  0
    4.2545   -2.2095    2.0147 H   0  0  0  0  0  0  0  0  0  0  0  0
    4.0444   -3.9589    2.2745 H   0  0  0  0  0  0  0  0  0  0  0  0
    4.2173   -3.3190    0.6275 H   0  0  0  0  0  0  0  0  0  0  0  0
   -3.2927   -0.6397   -1.4505 C   0  0  0  0  0  0  0  0  0  0  0  0
   -2.5701   -1.2481   -2.2282 O   0  0  0  0  0  0  0  0  0  0  0  0
   -3.7868   -1.3068   -0.1805 C   0  0  0  0  0  0  0  0  0  0  0  0
   -4.8586   -1.5046   -0.2568 H   0  0  0  0  0  0  0  0  0  0  0  0
   -3.2647   -2.2545   -0.0207 H   0  0  0  0  0  0  0  0  0  0  0  0
   -3.6067   -0.6590    0.6812 H   0  0  0  0  0  0  0  0  0  0  0  0
   -3.6558    0.6626   -1.7294 N   0  0  0  0  0  0  0  0  0  0  0  0
   -3.2248    1.4031   -2.9256 C   0  0  2  0  0  0  0  0  0  0  0  0
   -1.7397    1.8286   -2.8476 C   0  0  0  0  0  0  0  0  0  0  0  0
   -1.4094    2.9848   -2.6112 O   0  0  0  0  0  0  0  0  0  0  0  0
   -4.1728    2.5968   -3.0960 C   0  0  0  0  0  0  0  0  0  0  0  0
   -4.1410    1.1730   -0.9965 H   0  0  0  0  0  0  0  0  0  0  0  0
   -3.3319    0.7639   -3.8086 H   0  0  0  0  0  0  0  0  0  0  0  0
   -4.1173    3.2615   -2.2276 H   0  0  0  0  0  0  0  0  0  0  0  0
   -3.9023    3.1712   -3.9879 H   0  0  0  0  0  0  0  0  0  0  0  0
   -5.2052    2.2517   -3.2078 H   0  0  0  0  0  0  0  0  0  0  0  0
   -0.7681    0.8647   -3.0215 N   0  0  0  0  0  0  0  0  0  0  0  0
    0.6346    1.0206   -2.6054 C   0  0  2  0  0  0  0  0  0  0  0  0
    1.5871    0.2122   -3.5296 C   0  0  0  0  0  0  0  0  0  0  0  0
    1.1932   -0.2218   -4.6065 O   0  0  0  0  0  0  0  0  0  0  0  0
    0.7349    0.4159   -1.1919 C   0  0  0  0  0  0  0  0  0  0  0  0
   -0.2231    1.2811    0.1099 S   0  0  0  0  0  0  0  0  0  0  0  0
   -1.1287   -0.0891   -3.1101 H   0  0  0  0  0  0  0  0  0  0  0  0
    0.9447    2.0706   -2.6052 H   0  0  0  0  0  0  0  0  0  0  0  0
    0.4009   -0.6225   -1.2487 H   0  0  0  0  0  0  0  0  0  0  0  0
    1.7738    0.4188   -0.8532 H   0  0  0  0  0  0  0  0  0  0  0  0
    2.7795   -0.3010   -3.0382 N   0  0  0  0  0  0  0  0  0  0  0  0
    3.2263   -1.6522   -3.4028 C   0  0  2  0  0  0  0  0  0  0  0  0
    2.4477   -2.7253   -2.6061 C   0  0  0  0  0  0  0  0  0  0  0  0
    2.2030   -2.5544   -1.4128 O   0  0  0  0  0  0  0  0  0  0  0  0
    4.7252   -1.7501   -3.1116 C   0  0  0  0  0  0  0  0  0  0  0  0
    3.0004   -0.0140   -2.0889 H   0  0  0  0  0  0  0  0  0  0  0  0
    3.0738   -1.8284   -4.4731 H   0  0  0  0  0  0  0  0  0  0  0  0
    4.9231   -1.5904   -2.0466 H   0  0  0  0  0  0  0  0  0  0  0  0
    5.1034   -2.7386   -3.3902 H   0  0  0  0  0  0  0  0  0  0  0  0
    5.2730   -0.9961   -3.6858 H   0  0  0  0  0  0  0  0  0  0  0  0
    2.0152   -3.8826   -3.2239 N   0  0  0  0  0  0  0  0  0  0  0  0
    1.1597   -4.8628   -2.5655 C   0  0  0  0  0  0  0  0  0  0  0  0
    2.1046   -3.9230   -4.2360 H   0  0  0  0  0  0  0  0  0  0  0  0
    1.6279   -5.2272   -1.6450 H   0  0  0  0  0  0  0  0  0  0  0  0
    0.1898   -4.4188   -2.3172 H   0  0  0  0  0  0  0  0  0  0  0  0
    0.9906   -5.7194   -3.2252 H   0  0  0  0  0  0  0  0  0  0  0  0
  1  2  2  0  0  0  0
  1  3  1  0  0  0  0
  1  7  1  0  0  0  0
  3  4  1  0  0  0  0
  3  5  1  0  0  0  0
  3  6  1  0  0  0  0
  7  8  1  0  0  0  0
  7 13  1  0  0  0  0
  8  9  1  0  0  0  0
  8 11  1  0  0  0  0
  8 14  1  0  0  0  0
  9 10  2  0  0  0  0
  9 17  1  0  0  0  0
 11 12  1  0  0  0  0
 11 15  1  0  0  0  0
 11 16  1  0  0  0  0
 12 44  1  0  0  0  0
 17 18  1  0  0  0  0
 17 19  1  0  0  0  0
 18 20  1  0  0  0  0
 18 21  1  0  0  0  0
 18 22  1  0  0  0  0
 23 24  2  0  0  0  0
 23 25  1  0  0  0  0
 23 29  1  0  0  0  0
 25 26  1  0  0  0  0
 25 27  1  0  0  0  0
 25 28  1  0  0  0  0
 29 30  1  0  0  0  0
 29 34  1  0  0  0  0
 30 31  1  0  0  0  0
 30 33  1  0  0  0  0
 30 35  1  0  0  0  0
 31 32  2  0  0  0  0
 31 39  1  0  0  0  0
 33 36  1  0  0  0  0
 33 37  1  0  0  0  0
 33 38  1  0  0  0  0
 39 40  1  0  0  0  0
 39 45  1  0  0  0  0
 40 41  1  0  0  0  0
 40 43  1  0  0  0  0
 40 46  1  0  0  0  0
 41 42  2  0  0  0  0
 41 49  1  0  0  0  0
 43 44  1  0  0  0  0
 43 47  1  0  0  0  0
 43 48  1  0  0  0  0
 49 50  1  0  0  0  0
 49 54  1  0  0  0  0
 50 51  1  0  0  0  0
 50 53  1  0  0  0  0
 50 55  1  0  0  0  0
 51 52  2  0  0  0  0
 51 59  1  0  0  0  0
 53 56  1  0  0  0  0
 53 57  1  0  0  0  0
 53 58  1  0  0  0  0
 59 60  1  0  0  0  0
 59 61  1  0  0  0  0
 60 62  1  0  0  0  0
 60 63  1  0  0  0  0
 60 64  1  0  0  0  0
M  END
$$$$

  -OEChem-05262216053D

 64 63  0     1  0  0  0  0  0999 V2000
   -2.1762   -1.7666    4.0207 C   0  0  0  0  0  0  0  0  0  0  0  0
   -3.0219   -1.9964    3.1686 O   0  0  0  0  0  0  0  0  0  0  0  0
   -2.5915   -1.4806    5.4510 C   0  0  0  0  0  0  0  0  0  0  0  0
   -2.2310   -0.4947    5.7544 H   0  0  0  0  0  0  0  0  0  0  0  0
   -3.6814   -1.4987    5.5382 H   0  0  0  0  0  0  0  0  0  0  0  0
   -2.1709   -2.2363    6.1190 H   0  0  0  0  0  0  0  0  0  0  0  0
   -0.8417   -1.7725    3.6805 N   0  0  0  0  0  0  0  0  0  0  0  0
   -0.3182   -2.1635    2.3639 C   0  0  2  0  0  0  0  0  0  0  0  0
    1.1395   -2.6742    2.4587 C   0  0  0  0  0  0  0  0  0  0  0  0
    1.6629   -2.7887    3.5638 O   0  0  0  0  0  0  0  0  0  0  0  0
   -0.4562   -0.9778    1.4006 C   0  0  0  0  0  0  0  0  0  0  0  0
    0.7475    0.3657    1.7743 S   0  0  0  0  0  0  0  0  0  0  0  0
   -0.1602   -1.6856    4.4343 H   0  0  0  0  0  0  0  0  0  0  0  0
   -0.9147   -2.9966    1.9780 H   0  0  0  0  0  0  0  0  0  0  0  0
   -0.3067   -1.3408    0.3818 H   0  0  0  0  0  0  0  0  0  0  0  0
   -1.4693   -0.5692    1.4531 H   0  0  0  0  0  0  0  0  0  0  0  0
    1.8574   -3.0677    1.3418 N   0  0  0  0  0  0  0  0  0  0  0  0
    3.2290   -3.5543    1.4127 C   0  0  0  0  0  0  0  0  0  0  0  0
    1.4555   -2.9123    0.4143 H   0  0  0  0  0  0  0  0  0  0  0  0
    3.8864   -2.7868    1.8342 H   0  0  0  0  0  0  0  0  0  0  0  0
    3.2856   -4.4517    2.0374 H   0  0  0  0  0  0  0  0  0  0  0  0
    3.5906   -3.8088    0.4117 H   0  0  0  0  0  0  0  0  0  0  0  0
   -2.9379   -1.2620   -1.3643 C   0  0  0  0  0  0  0  0  0  0  0  0
   -2.1497   -1.7028   -2.1882 O   0  0  0  0  0  0  0  0  0  0  0  0
   -3.4429   -2.1508   -0.2451 C   0  0  0  0  0  0  0  0  0  0  0  0
   -4.3548   -2.6634   -0.5603 H   0  0  0  0  0  0  0  0  0  0  0  0
   -2.6879   -2.8968    0.0161 H   0  0  0  0  0  0  0  0  0  0  0  0
   -3.6647   -1.5527    0.6417 H   0  0  0  0  0  0  0  0  0  0  0  0
   -3.3675    0.0451   -1.4609 N   0  0  0  0  0  0  0  0  0  0  0  0
   -3.0660    0.9369   -2.5925 C   0  0  2  0  0  0  0  0  0  0  0  0
   -1.6235    1.4993   -2.5627 C   0  0  0  0  0  0  0  0  0  0  0  0
   -1.3998    2.6967   -2.4329 O   0  0  0  0  0  0  0  0  0  0  0  0
   -4.1305    2.0411   -2.5903 C   0  0  0  0  0  0  0  0  0  0  0  0
   -3.9789    0.3881   -0.7245 H   0  0  0  0  0  0  0  0  0  0  0  0
   -3.1688    0.3779   -3.5288 H   0  0  0  0  0  0  0  0  0  0  0  0
   -4.0616    2.6412   -1.6769 H   0  0  0  0  0  0  0  0  0  0  0  0
   -3.9889    2.7036   -3.4502 H   0  0  0  0  0  0  0  0  0  0  0  0
   -5.1336    1.6076   -2.6505 H   0  0  0  0  0  0  0  0  0  0  0  0
   -0.5667    0.6315   -2.7474 N   0  0  0  0  0  0  0  0  0  0  0  0
    0.8545    0.9741   -2.5700 C   0  0  2  0  0  0  0  0  0  0  0  0
    1.7056    0.1037   -3.5356 C   0  0  0  0  0  0  0  0  0  0  0  0
    1.2409   -0.2647   -4.6094 O   0  0  0  0  0  0  0  0  0  0  0  0
    1.2489    0.6337   -1.1194 C   0  0  0  0  0  0  0  0  0  0  0  0
    0.3886    1.6338    0.1552 S   0  0  0  0  0  0  0  0  0  0  0  0
   -0.8225   -0.3562   -2.8344 H   0  0  0  0  0  0  0  0  0  0  0  0
    1.0439    2.0314   -2.7831 H   0  0  0  0  0  0  0  0  0  0  0  0
    1.0590   -0.4268   -0.9478 H   0  0  0  0  0  0  0  0  0  0  0  0
    2.3185    0.8085   -0.9741 H   0  0  0  0  0  0  0  0  0  0  0  0
    2.8675   -0.5236   -3.1068 N   0  0  0  0  0  0  0  0  0  0  0  0
    3.1221   -1.9151   -3.5017 C   0  0  2  0  0  0  0  0  0  0  0  0
    2.0938   -2.8601   -2.8360 C   0  0  0  0  0  0  0  0  0  0  0  0
    1.9162   -2.8173   -1.6200 O   0  0  0  0  0  0  0  0  0  0  0  0
    4.5476   -2.2811   -3.0829 C   0  0  0  0  0  0  0  0  0  0  0  0
    3.1464   -0.2874   -2.1593 H   0  0  0  0  0  0  0  0  0  0  0  0
    3.0477   -2.0189   -4.5899 H   0  0  0  0  0  0  0  0  0  0  0  0
    4.6680   -2.1901   -1.9986 H   0  0  0  0  0  0  0  0  0  0  0  0
    4.7745   -3.3123   -3.3708 H   0  0  0  0  0  0  0  0  0  0  0  0
    5.2681   -1.6177   -3.5715 H   0  0  0  0  0  0  0  0  0  0  0  0
    1.3213   -3.7057   -3.6071 N   0  0  0  0  0  0  0  0  0  0  0  0
    0.2043   -4.4673   -3.0613 C   0  0  0  0  0  0  0  0  0  0  0  0
    1.3405   -3.5402   -4.6107 H   0  0  0  0  0  0  0  0  0  0  0  0
    0.5470   -5.1331   -2.2625 H   0  0  0  0  0  0  0  0  0  0  0  0
   -0.5582   -3.7944   -2.6569 H   0  0  0  0  0  0  0  0  0  0  0  0
   -0.2542   -5.0780   -3.8450 H   0  0  0  0  0  0  0  0  0  0  0  0
  1  2  2  0  0  0  0
  1  3  1  0  0  0  0
  1  7  1  0  0  0  0
  3  4  1  0  0  0  0
  3  5  1  0  0  0  0
  3  6  1  0  0  0  0
  7  8  1  0  0  0  0
  7 13  1  0  0  0  0
  8  9  1  0  0  0  0
  8 11  1  0  0  0  0
  8 14  1  0  0  0  0
  9 10  2  0  0  0  0
  9 17  1  0  0  0  0
 11 12  1  0  0  0  0
 11 15  1  0  0  0  0
 11 16  1  0  0  0  0
 12 44  1  0  0  0  0
 17 18  1  0  0  0  0
 17 19  1  0  0  0  0
 18 20  1  0  0  0  0
 18 21  1  0  0  0  0
 18 22  1  0  0  0  0
 23 24  2  0  0  0  0
 23 25  1  0  0  0  0
 23 29  1  0  0  0  0
 25 26  1  0  0  0  0
 25 27  1  0  0  0  0
 25 28  1  0  0  0  0
 29 30  1  0  0  0  0
 29 34  1  0  0  0  0
 30 31  1  0  0  0  0
 30 33  1  0  0  0  0
 30 35  1  0  0  0  0
 31 32  2  0  0  0  0
 31 39  1  0  0  0  0
 33 36  1  0  0  0  0
 33 37  1  0  0  0  0
 33 38  1  0  0  0  0
 39 40  1  0  0  0  0
 39 45  1  0  0  0  0
 40 41  1  0  0  0  0
 40 43  1  0  0  0  0
 40 46  1  0  0  0  0
 41 42  2  0  0  0  0
 41 49  1  0  0  0  0
 43 44  1  0  0  0  0
 43 47  1  0  0  0  0
 43 48  1  0  0  0  0
 49 50  1  0  0  0  0
 49 54  1  0  0  0  0
 50 51  1  0  0  0  0
 50 53  1  0  0  0  0
 50 55  1  0  0  0  0
 51 52  2  0  0  0  0
 51 59  1  0  0  0  0
 53 56  1  0  0  0  0
 53 57  1  0  0  0  0
 53 58  1  0  0  0  0
 59 60  1  0  0  0  0
 59 61  1  0  0  0  0
 60 62  1  0  0  0  0
 60 63  1  0  0  0  0
 60 64  1  0  0  0  0
M  END
$$$$

  -OEChem-05262216053D

 64 63  0     1  0  0  0  0  0999 V2000
   -2.7107   -0.9724    3.0671 C   0  0  0  0  0  0  0  0  0  0  0  0
   -3.3286   -0.9670    2.0078 O   0  0  0  0  0  0  0  0  0  0  0  0
   -3.4132   -0.6192    4.3638 C   0  0  0  0  0  0  0  0  0  0  0  0
   -2.8911    0.2026    4.8604 H   0  0  0  0  0  0  0  0  0  0  0  0
   -4.4430   -0.3110    4.1632 H   0  0  0  0  0  0  0  0  0  0  0  0
   -3.4271   -1.4865    5.0284 H   0  0  0  0  0  0  0  0  0  0  0  0
   -1.3752   -1.3152    3.0757 N   0  0  0  0  0  0  0  0  0  0  0  0
   -0.6286   -1.7371    1.8838 C   0  0  2  0  0  0  0  0  0  0  0  0
    0.6124   -2.5984    2.2017 C   0  0  0  0  0  0  0  0  0  0  0  0
    0.8613   -2.8950    3.3659 O   0  0  0  0  0  0  0  0  0  0  0  0
   -0.2655   -0.5006    1.0572 C   0  0  0  0  0  0  0  0  0  0  0  0
    1.1868    0.4206    1.7106 S   0  0  0  0  0  0  0  0  0  0  0  0
   -0.9006   -1.3923    3.9750 H   0  0  0  0  0  0  0  0  0  0  0  0
   -1.2812   -2.3729    1.2829 H   0  0  0  0  0  0  0  0  0  0  0  0
   -0.0543   -0.8362    0.0411 H   0  0  0  0  0  0  0  0  0  0  0  0
   -1.1155    0.1852    1.0054 H   0  0  0  0  0  0  0  0  0  0  0  0
    1.4060   -3.1094    1.1880 N   0  0  0  0  0  0  0  0  0  0  0  0
    2.6044   -3.8984    1.4372 C   0  0  0  0  0  0  0  0  0  0  0  0
    1.2068   -2.8292    0.2234 H   0  0  0  0  0  0  0  0  0  0  0  0
    3.3244   -3.3242    2.0297 H   0  0  0  0  0  0  0  0  0  0  0  0
    2.3544   -4.8173    1.9774 H   0  0  0  0  0  0  0  0  0  0  0  0
    3.0768   -4.1724    0.4889 H   0  0  0  0  0  0  0  0  0  0  0  0
   -2.6702   -1.7837   -1.5246 C   0  0  0  0  0  0  0  0  0  0  0  0
   -2.1873   -1.7753   -2.6460 O   0  0  0  0  0  0  0  0  0  0  0  0
   -2.9432   -3.1078   -0.8371 C   0  0  0  0  0  0  0  0  0  0  0  0
   -3.5250   -3.7543   -1.4990 H   0  0  0  0  0  0  0  0  0  0  0  0
   -2.0000   -3.6021   -0.5938 H   0  0  0  0  0  0  0  0  0  0  0  0
   -3.5109   -2.9508    0.0836 H   0  0  0  0  0  0  0  0  0  0  0  0
   -2.9223   -0.5886   -0.8866 N   0  0  0  0  0  0  0  0  0  0  0  0
   -2.8948    0.7274   -1.5499 C   0  0  2  0  0  0  0  0  0  0  0  0
   -1.4747    1.3222   -1.7440 C   0  0  0  0  0  0  0  0  0  0  0  0
   -1.2614    2.5149   -1.5696 O   0  0  0  0  0  0  0  0  0  0  0  0
   -3.8021    1.6439   -0.7188 C   0  0  0  0  0  0  0  0  0  0  0  0
   -3.2677   -0.6413    0.0777 H   0  0  0  0  0  0  0  0  0  0  0  0
   -3.3330    0.6332   -2.5492 H   0  0  0  0  0  0  0  0  0  0  0  0
   -3.3797    1.7960    0.2799 H   0  0  0  0  0  0  0  0  0  0  0  0
   -3.9066    2.6198   -1.2039 H   0  0  0  0  0  0  0  0  0  0  0  0
   -4.7993    1.2052   -0.6145 H   0  0  0  0  0  0  0  0  0  0  0  0
   -0.4407    0.5155   -2.1802 N   0  0  0  0  0  0  0  0  0  0  0  0
    0.9455    0.9558   -2.4318 C   0  0  2  0  0  0  0  0  0  0  0  0
    1.5120    0.0516   -3.5555 C   0  0  0  0  0  0  0  0  0  0  0  0
    0.8435   -0.1709   -4.5576 O   0  0  0  0  0  0  0  0  0  0  0  0
    1.8215    0.8059   -1.1646 C   0  0  0  0  0  0  0  0  0  0  0  0
    1.3062    1.8873    0.2255 S   0  0  0  0  0  0  0  0  0  0  0  0
   -0.7318   -0.3991   -2.5410 H   0  0  0  0  0  0  0  0  0  0  0  0
    0.9667    1.9949   -2.7772 H   0  0  0  0  0  0  0  0  0  0  0  0
    1.8278   -0.2365   -0.8374 H   0  0  0  0  0  0  0  0  0  0  0  0
    2.8521    1.0797   -1.4098 H   0  0  0  0  0  0  0  0  0  0  0  0
    2.6298   -0.7416   -3.3396 N   0  0  0  0  0  0  0  0  0  0  0  0
    2.6052   -2.1392   -3.7904 C   0  0  2  0  0  0  0  0  0  0  0  0
    1.6127   -2.9892   -2.9582 C   0  0  0  0  0  0  0  0  0  0  0  0
    1.4105   -2.7336   -1.7699 O   0  0  0  0  0  0  0  0  0  0  0  0
    4.0216   -2.7025   -3.6623 C   0  0  0  0  0  0  0  0  0  0  0  0
    3.0643   -0.5955   -2.4337 H   0  0  0  0  0  0  0  0  0  0  0  0
    2.3083   -2.1863   -4.8439 H   0  0  0  0  0  0  0  0  0  0  0  0
    4.3508   -2.6817   -2.6183 H   0  0  0  0  0  0  0  0  0  0  0  0
    4.0539   -3.7380   -4.0157 H   0  0  0  0  0  0  0  0  0  0  0  0
    4.7209   -2.1111   -4.2620 H   0  0  0  0  0  0  0  0  0  0  0  0
    0.9736   -4.0649   -3.5439 N   0  0  0  0  0  0  0  0  0  0  0  0
   -0.0752   -4.8299   -2.8819 C   0  0  0  0  0  0  0  0  0  0  0  0
    1.0506   -4.1397   -4.5548 H   0  0  0  0  0  0  0  0  0  0  0  0
    0.2229   -5.1044   -1.8646 H   0  0  0  0  0  0  0  0  0  0  0  0
   -0.9988   -4.2457   -2.8355 H   0  0  0  0  0  0  0  0  0  0  0  0
   -0.2753   -5.7512   -3.4373 H   0  0  0  0  0  0  0  0  0  0  0  0
  1  2  2  0  0  0  0
  1  3  1  0  0  0  0
  1  7  1  0  0  0  0
  3  4  1  0  0  0  0
  3  5  1  0  0  0  0
  3  6  1  0  0  0  0
  7  8  1  0  0  0  0
  7 13  1  0  0  0  0
  8  9  1  0  0  0  0
  8 11  1  0  0  0  0
  8 14  1  0  0  0  0
  9 10  2  0  0  0  0
  9 17  1  0  0  0  0
 11 12  1  0  0  0  0
 11 15  1  0  0  0  0
 11 16  1  0  0  0  0
 12 44  1  0  0  0  0
 17 18  1  0  0  0  0
 17 19  1  0  0  0  0
 18 20  1  0  0  0  0
 18 21  1  0  0  0  0
 18 22  1  0  0  0  0
 23 24  2  0  0  0  0
 23 25  1  0  0  0  0
 23 29  1  0  0  0  0
 25 26  1  0  0  0  0
 25 27  1  0  0  0  0
 25 28  1  0  0  0  0
 29 30  1  0  0  0  0
 29 34  1  0  0  0  0
 30 31  1  0  0  0  0
 30 33  1  0  0  0  0
 30 35  1  0  0  0  0
 31 32  2  0  0  0  0
 31 39  1  0  0  0  0
 33 36  1  0  0  0  0
 33 37  1  0  0  0  0
 33 38  1  0  0  0  0
 39 40  1  0  0  0  0
 39 45  1  0  0  0  0
 40 41  1  0  0  0  0
 40 43  1  0  0  0  0
 40 46  1  0  0  0  0
 41 42  2  0  0  0  0
 41 49  1  0  0  0  0
 43 44  1  0  0  0  0
 43 47  1  0  0  0  0
 43 48  1  0  0  0  0
 49 50  1  0  0  0  0
 49 54  1  0  0  0  0
 50 51  1  0  0  0  0
 50 53  1  0  0  0  0
 50 55  1  0  0  0  0
 51 52  2  0  0  0  0
 51 59  1  0  0  0  0
 53 56  1  0  0  0  0
 53 57  1  0  0  0  0
 53 58  1  0  0  0  0
 59 60  1  0  0  0  0
 59 61  1  0  0  0  0
 60 62  1  0  0  0  0
 60 63  1  0  0  0  0
 60 64  1  0  0  0  0
M  END
$$$$

  -OEChem-05262216053D

 64 63  0     1  0  0  0  0  0999 V2000
   -1.4092   -1.5256    4.5873 C   0  0  0  0  0  0  0  0  0  0  0  0
   -2.6090   -1.3815    4.4036 O   0  0  0  0  0  0  0  0  0  0  0  0
   -0.8430   -1.5236    5.9941 C   0  0  0  0  0  0  0  0  0  0  0  0
   -0.1664   -0.6748    6.1207 H   0  0  0  0  0  0  0  0  0  0  0  0
   -1.6518   -1.4430    6.7258 H   0  0  0  0  0  0  0  0  0  0  0  0
   -0.2931   -2.4499    6.1775 H   0  0  0  0  0  0  0  0  0  0  0  0
   -0.5680   -1.6801    3.5075 N   0  0  0  0  0  0  0  0  0  0  0  0
   -1.0052   -1.6157    2.1074 C   0  0  2  0  0  0  0  0  0  0  0  0
   -0.0393   -2.3411    1.1474 C   0  0  0  0  0  0  0  0  0  0  0  0
    1.1365   -2.5107    1.4546 O   0  0  0  0  0  0  0  0  0  0  0  0
   -1.1806   -0.1451    1.7002 C   0  0  0  0  0  0  0  0  0  0  0  0
    0.3340    0.8568    1.9928 S   0  0  0  0  0  0  0  0  0  0  0  0
    0.4315   -1.7689    3.6837 H   0  0  0  0  0  0  0  0  0  0  0  0
   -1.9708   -2.1234    2.0150 H   0  0  0  0  0  0  0  0  0  0  0  0
   -1.4432   -0.0917    0.6412 H   0  0  0  0  0  0  0  0  0  0  0  0
   -2.0060    0.2946    2.2678 H   0  0  0  0  0  0  0  0  0  0  0  0
   -0.4906   -2.8109   -0.0735 N   0  0  0  0  0  0  0  0  0  0  0  0
    0.2507   -3.7783   -0.8763 C   0  0  0  0  0  0  0  0  0  0  0  0
   -1.4986   -2.7237   -0.2381 H   0  0  0  0  0  0  0  0  0  0  0  0
    1.3229   -3.5616   -0.8676 H   0  0  0  0  0  0  0  0  0  0  0  0
    0.1018   -4.7898   -0.4850 H   0  0  0  0  0  0  0  0  0  0  0  0
   -0.0936   -3.7509   -1.9145 H   0  0  0  0  0  0  0  0  0  0  0  0
   -3.9192   -0.9178   -0.2813 C   0  0  0  0  0  0  0  0  0  0  0  0
   -3.1923   -1.8901   -0.4402 O   0  0  0  0  0  0  0  0  0  0  0  0
   -4.7205   -0.7627    0.9977 C   0  0  0  0  0  0  0  0  0  0  0  0
   -5.7892   -0.7622    0.7703 H   0  0  0  0  0  0  0  0  0  0  0  0
   -4.5073   -1.5888    1.6825 H   0  0  0  0  0  0  0  0  0  0  0  0
   -4.4616    0.1764    1.4934 H   0  0  0  0  0  0  0  0  0  0  0  0
   -3.9392    0.0728   -1.2398 N   0  0  0  0  0  0  0  0  0  0  0  0
   -3.1413    0.0362   -2.4735 C   0  0  2  0  0  0  0  0  0  0  0  0
   -1.7463    0.6820   -2.3055 C   0  0  0  0  0  0  0  0  0  0  0  0
   -1.6315    1.8991   -2.3013 O   0  0  0  0  0  0  0  0  0  0  0  0
   -3.9540    0.7364   -3.5684 C   0  0  0  0  0  0  0  0  0  0  0  0
   -4.4317    0.9339   -1.0127 H   0  0  0  0  0  0  0  0  0  0  0  0
   -2.9933   -1.0010   -2.7915 H   0  0  0  0  0  0  0  0  0  0  0  0
   -4.1557    1.7776   -3.2955 H   0  0  0  0  0  0  0  0  0  0  0  0
   -3.4017    0.7284   -4.5134 H   0  0  0  0  0  0  0  0  0  0  0  0
   -4.9091    0.2244   -3.7209 H   0  0  0  0  0  0  0  0  0  0  0  0
   -0.6144   -0.1141   -2.3019 N   0  0  0  0  0  0  0  0  0  0  0  0
    0.7788    0.3743   -2.2460 C   0  0  2  0  0  0  0  0  0  0  0  0
    1.6994   -0.6195   -2.9896 C   0  0  0  0  0  0  0  0  0  0  0  0
    1.6248   -0.7124   -4.2088 O   0  0  0  0  0  0  0  0  0  0  0  0
    1.2770    0.5475   -0.7972 C   0  0  0  0  0  0  0  0  0  0  0  0
    0.3947    1.8425    0.1576 S   0  0  0  0  0  0  0  0  0  0  0  0
   -0.7712   -1.1190   -2.2988 H   0  0  0  0  0  0  0  0  0  0  0  0
    0.8561    1.3389   -2.7609 H   0  0  0  0  0  0  0  0  0  0  0  0
    1.1765   -0.4032   -0.2719 H   0  0  0  0  0  0  0  0  0  0  0  0
    2.3397    0.8104   -0.8051 H   0  0  0  0  0  0  0  0  0  0  0  0
    2.5423   -1.4944   -2.3212 N   0  0  0  0  0  0  0  0  0  0  0  0
    3.3926   -2.4987   -2.9796 C   0  0  2  0  0  0  0  0  0  0  0  0
    2.5933   -3.7273   -3.4817 C   0  0  0  0  0  0  0  0  0  0  0  0
    2.7176   -4.8332   -2.9703 O   0  0  0  0  0  0  0  0  0  0  0  0
    4.4933   -2.8794   -1.9816 C   0  0  0  0  0  0  0  0  0  0  0  0
    2.4954   -1.5036   -1.3037 H   0  0  0  0  0  0  0  0  0  0  0  0
    3.8759   -2.0489   -3.8536 H   0  0  0  0  0  0  0  0  0  0  0  0
    4.0606   -3.3225   -1.0784 H   0  0  0  0  0  0  0  0  0  0  0  0
    5.1767   -3.6075   -2.4303 H   0  0  0  0  0  0  0  0  0  0  0  0
    5.0715   -1.9957   -1.6953 H   0  0  0  0  0  0  0  0  0  0  0  0
    1.6793   -3.5687   -4.5043 N   0  0  0  0  0  0  0  0  0  0  0  0
    0.8486   -4.6420   -5.0333 C   0  0  0  0  0  0  0  0  0  0  0  0
    1.5452   -2.6132   -4.8453 H   0  0  0  0  0  0  0  0  0  0  0  0
    1.4744   -5.4522   -5.4220 H   0  0  0  0  0  0  0  0  0  0  0  0
    0.1956   -5.0440   -4.2516 H   0  0  0  0  0  0  0  0  0  0  0  0
    0.2231   -4.2673   -5.8493 H   0  0  0  0  0  0  0  0  0  0  0  0
  1  2  2  0  0  0  0
  1  3  1  0  0  0  0
  1  7  1  0  0  0  0
  3  4  1  0  0  0  0
  3  5  1  0  0  0  0
  3  6  1  0  0  0  0
  7  8  1  0  0  0  0
  7 13  1  0  0  0  0
  8  9  1  0  0  0  0
  8 11  1  0  0  0  0
  8 14  1  0  0  0  0
  9 10  2  0  0  0  0
  9 17  1  0  0  0  0
 11 12  1  0  0  0  0
 11 15  1  0  0  0  0
 11 16  1  0  0  0  0
 12 44  1  0  0  0  0
 17 18  1  0  0  0  0
 17 19  1  0  0  0  0
 18 20  1  0  0  0  0
 18 21  1  0  0  0  0
 18 22  1  0  0  0  0
 23 24  2  0  0  0  0
 23 25  1  0  0  0  0
 23 29  1  0  0  0  0
 25 26  1  0  0  0  0
 25 27  1  0  0  0  0
 25 28  1  0  0  0  0
 29 30  1  0  0  0  0
 29 34  1  0  0  0  0
 30 31  1  0  0  0  0
 30 33  1  0  0  0  0
 30 35  1  0  0  0  0
 31 32  2  0  0  0  0
 31 39  1  0  0  0  0
 33 36  1  0  0  0  0
 33 37  1  0  0  0  0
 33 38  1  0  0  0  0
 39 40  1  0  0  0  0
 39 45  1  0  0  0  0
 40 41  1  0  0  0  0
 40 43  1  0  0  0  0
 40 46  1  0  0  0  0
 41 42  2  0  0  0  0
 41 49  1  0  0  0  0
 43 44  1  0  0  0  0
 43 47  1  0  0  0  0
 43 48  1  0  0  0  0
 49 50  1  0  0  0  0
 49 54  1  0  0  0  0
 50 51  1  0  0  0  0
 50 53  1  0  0  0  0
 50 55  1  0  0  0  0
 51 52  2  0  0  0  0
 51 59  1  0  0  0  0
 53 56  1  0  0  0  0
 53 57  1  0  0  0  0
 53 58  1  0  0  0  0
 59 60  1  0  0  0  0
 59 61  1  0  0  0  0
 60 62  1  0  0  0  0
 60 63  1  0  0  0  0
 60 64  1  0  0  0  0
M  END
$$$$

  -OEChem-05262216053D

 64 63  0     1  0  0  0  0  0999 V2000
   -1.8310   -1.3572    4.6808 C   0  0  0  0  0  0  0  0  0  0  0  0
   -2.9619   -1.0277    4.3537 O   0  0  0  0  0  0  0  0  0  0  0  0
   -1.4142   -1.3125    6.1385 C   0  0  0  0  0  0  0  0  0  0  0  0
   -0.5849   -0.6126    6.2669 H   0  0  0  0  0  0  0  0  0  0  0  0
   -2.2517   -0.9848    6.7608 H   0  0  0  0  0  0  0  0  0  0  0  0
   -1.0984   -2.3057    6.4671 H   0  0  0  0  0  0  0  0  0  0  0  0
   -0.9326   -1.7722    3.7223 N   0  0  0  0  0  0  0  0  0  0  0  0
   -1.2203   -1.8084    2.2828 C   0  0  2  0  0  0  0  0  0  0  0  0
   -0.3138   -2.7811    1.5037 C   0  0  0  0  0  0  0  0  0  0  0  0
    0.7381   -3.1872    1.9894 O   0  0  0  0  0  0  0  0  0  0  0  0
   -1.0947   -0.3976    1.6940 C   0  0  0  0  0  0  0  0  0  0  0  0
    0.5291    0.3764    2.0687 S   0  0  0  0  0  0  0  0  0  0  0  0
    0.0061   -2.0329    4.0190 H   0  0  0  0  0  0  0  0  0  0  0  0
   -2.2459   -2.1624    2.1405 H   0  0  0  0  0  0  0  0  0  0  0  0
   -1.2236   -0.4443    0.6095 H   0  0  0  0  0  0  0  0  0  0  0  0
   -1.8893    0.2391    2.0943 H   0  0  0  0  0  0  0  0  0  0  0  0
   -0.6989   -3.2188    0.2511 N   0  0  0  0  0  0  0  0  0  0  0  0
    0.0339   -4.2124   -0.5202 C   0  0  0  0  0  0  0  0  0  0  0  0
   -1.6182   -2.9134   -0.0835 H   0  0  0  0  0  0  0  0  0  0  0  0
    1.0376   -3.8472   -0.7591 H   0  0  0  0  0  0  0  0  0  0  0  0
    0.1218   -5.1478    0.0418 H   0  0  0  0  0  0  0  0  0  0  0  0
   -0.4912   -4.4209   -1.4573 H   0  0  0  0  0  0  0  0  0  0  0  0
   -3.9092   -0.9152   -0.2496 C   0  0  0  0  0  0  0  0  0  0  0  0
   -3.3027   -1.9787   -0.2601 O   0  0  0  0  0  0  0  0  0  0  0  0
   -4.7627   -0.5417    0.9483 C   0  0  0  0  0  0  0  0  0  0  0  0
   -5.8029   -0.4113    0.6404 H   0  0  0  0  0  0  0  0  0  0  0  0
   -4.7164   -1.3275    1.7081 H   0  0  0  0  0  0  0  0  0  0  0  0
   -4.4020    0.3903    1.3908 H   0  0  0  0  0  0  0  0  0  0  0  0
   -3.7516   -0.0245   -1.2915 N   0  0  0  0  0  0  0  0  0  0  0  0
   -2.7662   -0.1980   -2.3696 C   0  0  2  0  0  0  0  0  0  0  0  0
   -1.4990    0.6499   -2.1384 C   0  0  0  0  0  0  0  0  0  0  0  0
   -1.5977    1.8385   -1.8653 O   0  0  0  0  0  0  0  0  0  0  0  0
   -3.4364    0.1888   -3.6892 C   0  0  0  0  0  0  0  0  0  0  0  0
   -4.1012    0.9191   -1.1359 H   0  0  0  0  0  0  0  0  0  0  0  0
   -2.4596   -1.2468   -2.4461 H   0  0  0  0  0  0  0  0  0  0  0  0
   -3.7519    1.2370   -3.6688 H   0  0  0  0  0  0  0  0  0  0  0  0
   -2.7392    0.0524   -4.5220 H   0  0  0  0  0  0  0  0  0  0  0  0
   -4.3154   -0.4384   -3.8665 H   0  0  0  0  0  0  0  0  0  0  0  0
   -0.2608    0.0688   -2.3138 N   0  0  0  0  0  0  0  0  0  0  0  0
    1.0557    0.7153   -2.1800 C   0  0  2  0  0  0  0  0  0  0  0  0
    2.0173   -0.0018   -3.1450 C   0  0  0  0  0  0  0  0  0  0  0  0
    1.9762    0.2427   -4.3445 O   0  0  0  0  0  0  0  0  0  0  0  0
    1.5928    0.6952   -0.7336 C   0  0  0  0  0  0  0  0  0  0  0  0
    0.5900    1.6819    0.4483 S   0  0  0  0  0  0  0  0  0  0  0  0
   -0.2624   -0.9090   -2.6229 H   0  0  0  0  0  0  0  0  0  0  0  0
    0.9844    1.7594   -2.5057 H   0  0  0  0  0  0  0  0  0  0  0  0
    1.6150   -0.3389   -0.3764 H   0  0  0  0  0  0  0  0  0  0  0  0
    2.6176    1.0792   -0.7174 H   0  0  0  0  0  0  0  0  0  0  0  0
    2.7394   -1.1027   -2.7136 N   0  0  0  0  0  0  0  0  0  0  0  0
    2.8727   -2.2503   -3.6231 C   0  0  2  0  0  0  0  0  0  0  0  0
    1.5032   -2.8995   -3.9555 C   0  0  0  0  0  0  0  0  0  0  0  0
    0.5060   -2.6493   -3.2788 O   0  0  0  0  0  0  0  0  0  0  0  0
    3.7971   -3.2695   -2.9538 C   0  0  0  0  0  0  0  0  0  0  0  0
    2.5833   -1.3364   -1.7369 H   0  0  0  0  0  0  0  0  0  0  0  0
    3.3332   -1.9219   -4.5614 H   0  0  0  0  0  0  0  0  0  0  0  0
    3.3578   -3.6312   -2.0184 H   0  0  0  0  0  0  0  0  0  0  0  0
    3.9642   -4.1268   -3.6132 H   0  0  0  0  0  0  0  0  0  0  0  0
    4.7666   -2.8127   -2.7310 H   0  0  0  0  0  0  0  0  0  0  0  0
    1.3853   -3.7708   -5.0219 N   0  0  0  0  0  0  0  0  0  0  0  0
    0.1149   -4.3505   -5.4420 C   0  0  0  0  0  0  0  0  0  0  0  0
    2.1953   -3.8821   -5.6255 H   0  0  0  0  0  0  0  0  0  0  0  0
   -0.3455   -4.9062   -4.6180 H   0  0  0  0  0  0  0  0  0  0  0  0
   -0.5751   -3.5646   -5.7669 H   0  0  0  0  0  0  0  0  0  0  0  0
    0.2714   -5.0413   -6.2763 H   0  0  0  0  0  0  0  0  0  0  0  0
  1  2  2  0  0  0  0
  1  3  1  0  0  0  0
  1  7  1  0  0  0  0
  3  4  1  0  0  0  0
  3  5  1  0  0  0  0
  3  6  1  0  0  0  0
  7  8  1  0  0  0  0
  7 13  1  0  0  0  0
  8  9  1  0  0  0  0
  8 11  1  0  0  0  0
  8 14  1  0  0  0  0
  9 10  2  0  0  0  0
  9 17  1  0  0  0  0
 11 12  1  0  0  0  0
 11 15  1  0  0  0  0
 11 16  1  0  0  0  0
 12 44  1  0  0  0  0
 17 18  1  0  0  0  0
 17 19  1  0  0  0  0
 18 20  1  0  0  0  0
 18 21  1  0  0  0  0
 18 22  1  0  0  0  0
 23 24  2  0  0  0  0
 23 25  1  0  0  0  0
 23 29  1  0  0  0  0
 25 26  1  0  0  0  0
 25 27  1  0  0  0  0
 25 28  1  0  0  0  0
 29 30  1  0  0  0  0
 29 34  1  0  0  0  0
 30 31  1  0  0  0  0
 30 33  1  0  0  0  0
 30 35  1  0  0  0  0
 31 32  2  0  0  0  0
 31 39  1  0  0  0  0
 33 36  1  0  0  0  0
 33 37  1  0  0  0  0
 33 38  1  0  0  0  0
 39 40  1  0  0  0  0
 39 45  1  0  0  0  0
 40 41  1  0  0  0  0
 40 43  1  0  0  0  0
 40 46  1  0  0  0  0
 41 42  2  0  0  0  0
 41 49  1  0  0  0  0
 43 44  1  0  0  0  0
 43 47  1  0  0  0  0
 43 48  1  0  0  0  0
 49 50  1  0  0  0  0
 49 54  1  0  0  0  0
 50 51  1  0  0  0  0
 50 53  1  0  0  0  0
 50 55  1  0  0  0  0
 51 52  2  0  0  0  0
 51 59  1  0  0  0  0
 53 56  1  0  0  0  0
 53 57  1  0  0  0  0
 53 58  1  0  0  0  0
 59 60  1  0  0  0  0
 59 61  1  0  0  0  0
 60 62  1  0  0  0  0
 60 63  1  0  0  0  0
 60 64  1  0  0  0  0
M  END
$$$$

  -OEChem-05262216053D

 64 63  0     1  0  0  0  0  0999 V2000
   -1.4243   -1.6187    4.7030 C   0  0  0  0  0  0  0  0  0  0  0  0
   -2.6063   -1.3190    4.6310 O   0  0  0  0  0  0  0  0  0  0  0  0
   -0.7436   -1.7149    6.0546 C   0  0  0  0  0  0  0  0  0  0  0  0
    0.0624   -0.9797    6.1172 H   0  0  0  0  0  0  0  0  0  0  0  0
   -1.4640   -1.5184    6.8534 H   0  0  0  0  0  0  0  0  0  0  0  0
   -0.3282   -2.7159    6.1932 H   0  0  0  0  0  0  0  0  0  0  0  0
   -0.7056   -1.8678    3.5547 N   0  0  0  0  0  0  0  0  0  0  0  0
   -1.2420   -1.7212    2.1950 C   0  0  2  0  0  0  0  0  0  0  0  0
   -0.4518   -2.5406    1.1553 C   0  0  0  0  0  0  0  0  0  0  0  0
    0.7119   -2.8741    1.3636 O   0  0  0  0  0  0  0  0  0  0  0  0
   -1.2579   -0.2400    1.7969 C   0  0  0  0  0  0  0  0  0  0  0  0
    0.3615    0.5791    2.0987 S   0  0  0  0  0  0  0  0  0  0  0  0
    0.2872   -2.0759    3.6446 H   0  0  0  0  0  0  0  0  0  0  0  0
   -2.2695   -2.0998    2.1764 H   0  0  0  0  0  0  0  0  0  0  0  0
   -1.5179   -0.1507    0.7387 H   0  0  0  0  0  0  0  0  0  0  0  0
   -2.0286    0.2843    2.3704 H   0  0  0  0  0  0  0  0  0  0  0  0
   -1.0720   -2.9545   -0.0069 N   0  0  0  0  0  0  0  0  0  0  0  0
   -0.5152   -3.9661   -0.8927 C   0  0  0  0  0  0  0  0  0  0  0  0
   -2.0634   -2.7125   -0.1044 H   0  0  0  0  0  0  0  0  0  0  0  0
    0.4970   -3.6917   -1.2033 H   0  0  0  0  0  0  0  0  0  0  0  0
   -0.4767   -4.9362   -0.3873 H   0  0  0  0  0  0  0  0  0  0  0  0
   -1.1372   -4.0650   -1.7876 H   0  0  0  0  0  0  0  0  0  0  0  0
   -4.1941   -0.6269   -0.2797 C   0  0  0  0  0  0  0  0  0  0  0  0
   -3.6688   -1.7190   -0.1122 O   0  0  0  0  0  0  0  0  0  0  0  0
   -5.0657   -0.0353    0.8111 C   0  0  0  0  0  0  0  0  0  0  0  0
   -6.0833    0.1078    0.4400 H   0  0  0  0  0  0  0  0  0  0  0  0
   -5.0961   -0.7053    1.6755 H   0  0  0  0  0  0  0  0  0  0  0  0
   -4.6623    0.9290    1.1303 H   0  0  0  0  0  0  0  0  0  0  0  0
   -3.9315    0.0994   -1.4226 N   0  0  0  0  0  0  0  0  0  0  0  0
   -2.8707   -0.2490   -2.3798 C   0  0  2  0  0  0  0  0  0  0  0  0
   -1.6075    0.6079   -2.1643 C   0  0  0  0  0  0  0  0  0  0  0  0
   -1.7150    1.8065   -1.9414 O   0  0  0  0  0  0  0  0  0  0  0  0
   -3.4177   -0.0407   -3.7923 C   0  0  0  0  0  0  0  0  0  0  0  0
   -4.2145    1.0774   -1.4013 H   0  0  0  0  0  0  0  0  0  0  0  0
   -2.5868   -1.3021   -2.2800 H   0  0  0  0  0  0  0  0  0  0  0  0
   -3.7016    1.0057   -3.9448 H   0  0  0  0  0  0  0  0  0  0  0  0
   -2.6588   -0.3065   -4.5351 H   0  0  0  0  0  0  0  0  0  0  0  0
   -4.2981   -0.6699   -3.9547 H   0  0  0  0  0  0  0  0  0  0  0  0
   -0.3656    0.0190   -2.2739 N   0  0  0  0  0  0  0  0  0  0  0  0
    0.9422    0.6876   -2.1530 C   0  0  2  0  0  0  0  0  0  0  0  0
    1.9394   -0.0738   -3.0407 C   0  0  0  0  0  0  0  0  0  0  0  0
    2.1248    0.2727   -4.2001 O   0  0  0  0  0  0  0  0  0  0  0  0
    1.4564    0.7522   -0.7015 C   0  0  0  0  0  0  0  0  0  0  0  0
    0.4215    1.7897    0.4069 S   0  0  0  0  0  0  0  0  0  0  0  0
   -0.3629   -0.9455   -2.6230 H   0  0  0  0  0  0  0  0  0  0  0  0
    0.8685    1.7103   -2.5407 H   0  0  0  0  0  0  0  0  0  0  0  0
    1.4917   -0.2600   -0.2875 H   0  0  0  0  0  0  0  0  0  0  0  0
    2.4755    1.1515   -0.6935 H   0  0  0  0  0  0  0  0  0  0  0  0
    2.4198   -1.3021   -2.6174 N   0  0  0  0  0  0  0  0  0  0  0  0
    2.5853   -2.3805   -3.6016 C   0  0  2  0  0  0  0  0  0  0  0  0
    1.2254   -2.8755   -4.1585 C   0  0  0  0  0  0  0  0  0  0  0  0
    0.1678   -2.5535   -3.6176 O   0  0  0  0  0  0  0  0  0  0  0  0
    3.3402   -3.5223   -2.9161 C   0  0  0  0  0  0  0  0  0  0  0  0
    2.0758   -1.5869   -1.7029 H   0  0  0  0  0  0  0  0  0  0  0  0
    3.1883   -2.0220   -4.4432 H   0  0  0  0  0  0  0  0  0  0  0  0
    2.7664   -3.9116   -2.0691 H   0  0  0  0  0  0  0  0  0  0  0  0
    3.5197   -4.3413   -3.6195 H   0  0  0  0  0  0  0  0  0  0  0  0
    4.3079   -3.1679   -2.5465 H   0  0  0  0  0  0  0  0  0  0  0  0
    1.1822   -3.6978   -5.2687 N   0  0  0  0  0  0  0  0  0  0  0  0
   -0.0618   -4.1541   -5.8776 C   0  0  0  0  0  0  0  0  0  0  0  0
    2.0575   -3.8767   -5.7530 H   0  0  0  0  0  0  0  0  0  0  0  0
   -0.6813   -4.6771   -5.1411 H   0  0  0  0  0  0  0  0  0  0  0  0
   -0.6275   -3.3048   -6.2752 H   0  0  0  0  0  0  0  0  0  0  0  0
    0.1505   -4.8451   -6.6993 H   0  0  0  0  0  0  0  0  0  0  0  0
  1  2  2  0  0  0  0
  1  3  1  0  0  0  0
  1  7  1  0  0  0  0
  3  4  1  0  0  0  0
  3  5  1  0  0  0  0
  3  6  1  0  0  0  0
  7  8  1  0  0  0  0
  7 13  1  0  0  0  0
  8  9  1  0  0  0  0
  8 11  1  0  0  0  0
  8 14  1  0  0  0  0
  9 10  2  0  0  0  0
  9 17  1  0  0  0  0
 11 12  1  0  0  0  0
 11 15  1  0  0  0  0
 11 16  1  0  0  0  0
 12 44  1  0  0  0  0
 17 18  1  0  0  0  0
 17 19  1  0  0  0  0
 18 20  1  0  0  0  0
 18 21  1  0  0  0  0
 18 22  1  0  0  0  0
 23 24  2  0  0  0  0
 23 25  1  0  0  0  0
 23 29  1  0  0  0  0
 25 26  1  0  0  0  0
 25 27  1  0  0  0  0
 25 28  1  0  0  0  0
 29 30  1  0  0  0  0
 29 34  1  0  0  0  0
 30 31  1  0  0  0  0
 30 33  1  0  0  0  0
 30 35  1  0  0  0  0
 31 32  2  0  0  0  0
 31 39  1  0  0  0  0
 33 36  1  0  0  0  0
 33 37  1  0  0  0  0
 33 38  1  0  0  0  0
 39 40  1  0  0  0  0
 39 45  1  0  0  0  0
 40 41  1  0  0  0  0
 40 43  1  0  0  0  0
 40 46  1  0  0  0  0
 41 42  2  0  0  0  0
 41 49  1  0  0  0  0
 43 44  1  0  0  0  0
 43 47  1  0  0  0  0
 43 48  1  0  0  0  0
 49 50  1  0  0  0  0
 49 54  1  0  0  0  0
 50 51  1  0  0  0  0
 50 53  1  0  0  0  0
 50 55  1  0  0  0  0
 51 52  2  0  0  0  0
 51 59  1  0  0  0  0
 53 56  1  0  0  0  0
 53 57  1  0  0  0  0
 53 58  1  0  0  0  0
 59 60  1  0  0  0  0
 59 61  1  0  0  0  0
 60 62  1  0  0  0  0
 60 63  1  0  0  0  0
 60 64  1  0  0  0  0
M  END
$$$$

  -OEChem-05262216053D

 64 63  0     1  0  0  0  0  0999 V2000
   -0.4822   -2.1563    4.3268 C   0  0  0  0  0  0  0  0  0  0  0  0
   -1.6499   -2.1410    4.6826 O   0  0  0  0  0  0  0  0  0  0  0  0
    0.6251   -2.2873    5.3548 C   0  0  0  0  0  0  0  0  0  0  0  0
    1.2312   -1.3781    5.3648 H   0  0  0  0  0  0  0  0  0  0  0  0
    0.1984   -2.4380    6.3503 H   0  0  0  0  0  0  0  0  0  0  0  0
    1.2629   -3.1405    5.1120 H   0  0  0  0  0  0  0  0  0  0  0  0
   -0.1650   -2.0434    2.9907 N   0  0  0  0  0  0  0  0  0  0  0  0
   -1.1421   -1.7556    1.9302 C   0  0  2  0  0  0  0  0  0  0  0  0
   -0.7048   -2.3276    0.5633 C   0  0  0  0  0  0  0  0  0  0  0  0
    0.4833   -2.4623    0.2714 O   0  0  0  0  0  0  0  0  0  0  0  0
   -1.4342   -0.2445    1.8667 C   0  0  0  0  0  0  0  0  0  0  0  0
    0.0274    0.8094    2.2573 S   0  0  0  0  0  0  0  0  0  0  0  0
    0.8205   -2.0031    2.7418 H   0  0  0  0  0  0  0  0  0  0  0  0
   -2.0833   -2.2622    2.1713 H   0  0  0  0  0  0  0  0  0  0  0  0
   -1.8249    0.0195    0.8799 H   0  0  0  0  0  0  0  0  0  0  0  0
   -2.2160   -0.0145    2.5970 H   0  0  0  0  0  0  0  0  0  0  0  0
   -1.6711   -2.8198   -0.2924 N   0  0  0  0  0  0  0  0  0  0  0  0
   -1.4370   -3.8018   -1.3446 C   0  0  0  0  0  0  0  0  0  0  0  0
   -2.6427   -2.6086   -0.0418 H   0  0  0  0  0  0  0  0  0  0  0  0
   -0.3848   -3.8412   -1.6359 H   0  0  0  0  0  0  0  0  0  0  0  0
   -1.7308   -4.7976   -0.9986 H   0  0  0  0  0  0  0  0  0  0  0  0
   -2.0273   -3.5526   -2.2316 H   0  0  0  0  0  0  0  0  0  0  0  0
   -4.5631   -0.2534   -0.3963 C   0  0  0  0  0  0  0  0  0  0  0  0
   -4.0666   -1.2956    0.0107 O   0  0  0  0  0  0  0  0  0  0  0  0
   -5.5565    0.4960    0.4703 C   0  0  0  0  0  0  0  0  0  0  0  0
   -6.5124    0.5855   -0.0513 H   0  0  0  0  0  0  0  0  0  0  0  0
   -5.7167   -0.0382    1.4111 H   0  0  0  0  0  0  0  0  0  0  0  0
   -5.1762    1.4960    0.6946 H   0  0  0  0  0  0  0  0  0  0  0  0
   -4.1941    0.2690   -1.6188 N   0  0  0  0  0  0  0  0  0  0  0  0
   -3.0300   -0.2060   -2.3811 C   0  0  2  0  0  0  0  0  0  0  0  0
   -1.7746    0.6390   -2.0845 C   0  0  0  0  0  0  0  0  0  0  0  0
   -1.8838    1.8491   -1.9334 O   0  0  0  0  0  0  0  0  0  0  0  0
   -3.3738   -0.1422   -3.8701 C   0  0  0  0  0  0  0  0  0  0  0  0
   -4.4708    1.2349   -1.7822 H   0  0  0  0  0  0  0  0  0  0  0  0
   -2.8087   -1.2472   -2.1347 H   0  0  0  0  0  0  0  0  0  0  0  0
   -3.5806    0.8893   -4.1735 H   0  0  0  0  0  0  0  0  0  0  0  0
   -2.5378   -0.5196   -4.4683 H   0  0  0  0  0  0  0  0  0  0  0  0
   -4.2557   -0.7539   -4.0835 H   0  0  0  0  0  0  0  0  0  0  0  0
   -0.5345    0.0353   -2.0523 N   0  0  0  0  0  0  0  0  0  0  0  0
    0.7570    0.7354   -1.9153 C   0  0  2  0  0  0  0  0  0  0  0  0
    1.8090   -0.1043   -2.6524 C   0  0  0  0  0  0  0  0  0  0  0  0
    2.2768    0.2797   -3.7168 O   0  0  0  0  0  0  0  0  0  0  0  0
    1.2143    0.9013   -0.4571 C   0  0  0  0  0  0  0  0  0  0  0  0
    0.1161    1.9804    0.5390 S   0  0  0  0  0  0  0  0  0  0  0  0
   -0.5081   -0.9236   -2.4148 H   0  0  0  0  0  0  0  0  0  0  0  0
    0.7045    1.7215   -2.3907 H   0  0  0  0  0  0  0  0  0  0  0  0
    1.2784   -0.0773    0.0213 H   0  0  0  0  0  0  0  0  0  0  0  0
    2.2187    1.3359   -0.4431 H   0  0  0  0  0  0  0  0  0  0  0  0
    2.0332   -1.4083   -2.2392 N   0  0  0  0  0  0  0  0  0  0  0  0
    2.2780   -2.4450   -3.2486 C   0  0  2  0  0  0  0  0  0  0  0  0
    1.0251   -2.7097   -4.1218 C   0  0  0  0  0  0  0  0  0  0  0  0
   -0.0920   -2.3495   -3.7510 O   0  0  0  0  0  0  0  0  0  0  0  0
    2.7163   -3.7153   -2.5171 C   0  0  0  0  0  0  0  0  0  0  0  0
    1.4952   -1.6972   -1.4164 H   0  0  0  0  0  0  0  0  0  0  0  0
    3.0925   -2.1279   -3.9089 H   0  0  0  0  0  0  0  0  0  0  0  0
    1.9359   -4.0552   -1.8298 H   0  0  0  0  0  0  0  0  0  0  0  0
    2.9246   -4.5171   -3.2317 H   0  0  0  0  0  0  0  0  0  0  0  0
    3.6254   -3.5225   -1.9390 H   0  0  0  0  0  0  0  0  0  0  0  0
    1.1504   -3.3453   -5.3428 N   0  0  0  0  0  0  0  0  0  0  0  0
    0.0379   -3.5160   -6.2697 C   0  0  0  0  0  0  0  0  0  0  0  0
    2.0931   -3.5264   -5.6760 H   0  0  0  0  0  0  0  0  0  0  0  0
   -0.7778   -4.0710   -5.7944 H   0  0  0  0  0  0  0  0  0  0  0  0
   -0.3413   -2.5417   -6.5961 H   0  0  0  0  0  0  0  0  0  0  0  0
    0.3645   -4.0743   -7.1523 H   0  0  0  0  0  0  0  0  0  0  0  0
  1  2  2  0  0  0  0
  1  3  1  0  0  0  0
  1  7  1  0  0  0  0
  3  4  1  0  0  0  0
  3  5  1  0  0  0  0
  3  6  1  0  0  0  0
  7  8  1  0  0  0  0
  7 13  1  0  0  0  0
  8  9  1  0  0  0  0
  8 11  1  0  0  0  0
  8 14  1  0  0  0  0
  9 10  2  0  0  0  0
  9 17  1  0  0  0  0
 11 12  1  0  0  0  0
 11 15  1  0  0  0  0
 11 16  1  0  0  0  0
 12 44  1  0  0  0  0
 17 18  1  0  0  0  0
 17 19  1  0  0  0  0
 18 20  1  0  0  0  0
 18 21  1  0  0  0  0
 18 22  1  0  0  0  0
 23 24  2  0  0  0  0
 23 25  1  0  0  0  0
 23 29  1  0  0  0  0
 25 26  1  0  0  0  0
 25 27  1  0  0  0  0
 25 28  1  0  0  0  0
 29 30  1  0  0  0  0
 29 34  1  0  0  0  0
 30 31  1  0  0  0  0
 30 33  1  0  0  0  0
 30 35  1  0  0  0  0
 31 32  2  0  0  0  0
 31 39  1  0  0  0  0
 33 36  1  0  0  0  0
 33 37  1  0  0  0  0
 33 38  1  0  0  0  0
 39 40  1  0  0  0  0
 39 45  1  0  0  0  0
 40 41  1  0  0  0  0
 40 43  1  0  0  0  0
 40 46  1  0  0  0  0
 41 42  2  0  0  0  0
 41 49  1  0  0  0  0
 43 44  1  0  0  0  0
 43 47  1  0  0  0  0
 43 48  1  0  0  0  0
 49 50  1  0  0  0  0
 49 54  1  0  0  0  0
 50 51  1  0  0  0  0
 50 53  1  0  0  0  0
 50 55  1  0  0  0  0
 51 52  2  0  0  0  0
 51 59  1  0  0  0  0
 53 56  1  0  0  0  0
 53 57  1  0  0  0  0
 53 58  1  0  0  0  0
 59 60  1  0  0  0  0
 59 61  1  0  0  0  0
 60 62  1  0  0  0  0
 60 63  1  0  0  0  0
 60 64  1  0  0  0  0
M  END
$$$$

  -OEChem-05262216053D

 64 63  0     1  0  0  0  0  0999 V2000
   -0.6455   -2.2684    4.2350 C   0  0  0  0  0  0  0  0  0  0  0  0
   -1.8213   -2.2146    4.5588 O   0  0  0  0  0  0  0  0  0  0  0  0
    0.4234   -2.4917    5.2879 C   0  0  0  0  0  0  0  0  0  0  0  0
    1.0898   -1.6266    5.3298 H   0  0  0  0  0  0  0  0  0  0  0  0
   -0.0377   -2.6293    6.2699 H   0  0  0  0  0  0  0  0  0  0  0  0
    1.0074   -3.3827    5.0456 H   0  0  0  0  0  0  0  0  0  0  0  0
   -0.2846   -2.1191    2.9132 N   0  0  0  0  0  0  0  0  0  0  0  0
   -1.2173   -1.7470    1.8388 C   0  0  2  0  0  0  0  0  0  0  0  0
   -0.7784   -2.3016    0.4651 C   0  0  0  0  0  0  0  0  0  0  0  0
    0.4082   -2.4346    0.1683 O   0  0  0  0  0  0  0  0  0  0  0  0
   -1.4203   -0.2207    1.8143 C   0  0  0  0  0  0  0  0  0  0  0  0
    0.0974    0.7331    2.2463 S   0  0  0  0  0  0  0  0  0  0  0  0
    0.7089   -2.1043    2.6950 H   0  0  0  0  0  0  0  0  0  0  0  0
   -2.1921   -2.2048    2.0415 H   0  0  0  0  0  0  0  0  0  0  0  0
   -1.7836    0.0913    0.8314 H   0  0  0  0  0  0  0  0  0  0  0  0
   -2.1955    0.0354    2.5429 H   0  0  0  0  0  0  0  0  0  0  0  0
   -1.7428   -2.7682   -0.4066 N   0  0  0  0  0  0  0  0  0  0  0  0
   -1.5002   -3.6932   -1.5063 C   0  0  0  0  0  0  0  0  0  0  0  0
   -2.7155   -2.5659   -0.1524 H   0  0  0  0  0  0  0  0  0  0  0  0
   -0.4696   -3.6319   -1.8615 H   0  0  0  0  0  0  0  0  0  0  0  0
   -1.6900   -4.7208   -1.1815 H   0  0  0  0  0  0  0  0  0  0  0  0
   -2.1634   -3.4631   -2.3456 H   0  0  0  0  0  0  0  0  0  0  0  0
   -4.5475   -0.1325   -0.3541 C   0  0  0  0  0  0  0  0  0  0  0  0
   -4.1016   -1.2192   -0.0105 O   0  0  0  0  0  0  0  0  0  0  0  0
   -5.4863    0.6216    0.5678 C   0  0  0  0  0  0  0  0  0  0  0  0
   -6.4426    0.7941    0.0682 H   0  0  0  0  0  0  0  0  0  0  0  0
   -5.6638    0.0455    1.4803 H   0  0  0  0  0  0  0  0  0  0  0  0
   -5.0466    1.5844    0.8403 H   0  0  0  0  0  0  0  0  0  0  0  0
   -4.1557    0.4400   -1.5470 N   0  0  0  0  0  0  0  0  0  0  0  0
   -3.0127   -0.0418   -2.3378 C   0  0  2  0  0  0  0  0  0  0  0  0
   -1.7299    0.7507   -2.0141 C   0  0  0  0  0  0  0  0  0  0  0  0
   -1.8042    1.9588   -1.8297 O   0  0  0  0  0  0  0  0  0  0  0  0
   -3.3632    0.0949   -3.8203 C   0  0  0  0  0  0  0  0  0  0  0  0
   -4.3851    1.4264   -1.6528 H   0  0  0  0  0  0  0  0  0  0  0  0
   -2.8233   -1.0987   -2.1378 H   0  0  0  0  0  0  0  0  0  0  0  0
   -3.5462    1.1430   -4.0783 H   0  0  0  0  0  0  0  0  0  0  0  0
   -2.5407   -0.2769   -4.4399 H   0  0  0  0  0  0  0  0  0  0  0  0
   -4.2611   -0.4858   -4.0526 H   0  0  0  0  0  0  0  0  0  0  0  0
   -0.5066    0.1105   -2.0043 N   0  0  0  0  0  0  0  0  0  0  0  0
    0.7993    0.7947   -1.9116 C   0  0  2  0  0  0  0  0  0  0  0  0
    1.8473   -0.0488   -2.6537 C   0  0  0  0  0  0  0  0  0  0  0  0
    2.4429    0.4220   -3.6137 O   0  0  0  0  0  0  0  0  0  0  0  0
    1.2950    0.9235   -0.4619 C   0  0  0  0  0  0  0  0  0  0  0  0
    0.2433    1.9928    0.5944 S   0  0  0  0  0  0  0  0  0  0  0  0
   -0.5137   -0.8227   -2.4275 H   0  0  0  0  0  0  0  0  0  0  0  0
    0.7490    1.7866   -2.3752 H   0  0  0  0  0  0  0  0  0  0  0  0
    1.3579   -0.0693   -0.0107 H   0  0  0  0  0  0  0  0  0  0  0  0
    2.3062    1.3430   -0.4645 H   0  0  0  0  0  0  0  0  0  0  0  0
    1.8721   -1.4187   -2.4454 N   0  0  0  0  0  0  0  0  0  0  0  0
    2.0496   -2.3364   -3.5771 C   0  0  2  0  0  0  0  0  0  0  0  0
    0.7551   -2.4611   -4.4164 C   0  0  0  0  0  0  0  0  0  0  0  0
   -0.3274   -2.0968   -3.9587 O   0  0  0  0  0  0  0  0  0  0  0  0
    2.4863   -3.6934   -3.0207 C   0  0  0  0  0  0  0  0  0  0  0  0
    1.2943   -1.7497   -1.6672 H   0  0  0  0  0  0  0  0  0  0  0  0
    2.8443   -1.9669   -4.2341 H   0  0  0  0  0  0  0  0  0  0  0  0
    1.7271   -4.1003   -2.3467 H   0  0  0  0  0  0  0  0  0  0  0  0
    2.6481   -4.4074   -3.8338 H   0  0  0  0  0  0  0  0  0  0  0  0
    3.4220   -3.5879   -2.4628 H   0  0  0  0  0  0  0  0  0  0  0  0
    0.8009   -2.9735   -5.6991 N   0  0  0  0  0  0  0  0  0  0  0  0
   -0.3591   -3.0211   -6.5813 C   0  0  0  0  0  0  0  0  0  0  0  0
    1.7187   -3.1672   -6.0901 H   0  0  0  0  0  0  0  0  0  0  0  0
   -1.1687   -3.5986   -6.1228 H   0  0  0  0  0  0  0  0  0  0  0  0
   -0.7226   -2.0096   -6.7908 H   0  0  0  0  0  0  0  0  0  0  0  0
   -0.0935   -3.4973   -7.5300 H   0  0  0  0  0  0  0  0  0  0  0  0
  1  2  2  0  0  0  0
  1  3  1  0  0  0  0
  1  7  1  0  0  0  0
  3  4  1  0  0  0  0
  3  5  1  0  0  0  0
  3  6  1  0  0  0  0
  7  8  1  0  0  0  0
  7 13  1  0  0  0  0
  8  9  1  0  0  0  0
  8 11  1  0  0  0  0
  8 14  1  0  0  0  0
  9 10  2  0  0  0  0
  9 17  1  0  0  0  0
 11 12  1  0  0  0  0
 11 15  1  0  0  0  0
 11 16  1  0  0  0  0
 12 44  1  0  0  0  0
 17 18  1  0  0  0  0
 17 19  1  0  0  0  0
 18 20  1  0  0  0  0
 18 21  1  0  0  0  0
 18 22  1  0  0  0  0
 23 24  2  0  0  0  0
 23 25  1  0  0  0  0
 23 29  1  0  0  0  0
 25 26  1  0  0  0  0
 25 27  1  0  0  0  0
 25 28  1  0  0  0  0
 29 30  1  0  0  0  0
 29 34  1  0  0  0  0
 30 31  1  0  0  0  0
 30 33  1  0  0  0  0
 30 35  1  0  0  0  0
 31 32  2  0  0  0  0
 31 39  1  0  0  0  0
 33 36  1  0  0  0  0
 33 37  1  0  0  0  0
 33 38  1  0  0  0  0
 39 40  1  0  0  0  0
 39 45  1  0  0  0  0
 40 41  1  0  0  0  0
 40 43  1  0  0  0  0
 40 46  1  0  0  0  0
 41 42  2  0  0  0  0
 41 49  1  0  0  0  0
 43 44  1  0  0  0  0
 43 47  1  0  0  0  0
 43 48  1  0  0  0  0
 49 50  1  0  0  0  0
 49 54  1  0  0  0  0
 50 51  1  0  0  0  0
 50 53  1  0  0  0  0
 50 55  1  0  0  0  0
 51 52  2  0  0  0  0
 51 59  1  0  0  0  0
 53 56  1  0  0  0  0
 53 57  1  0  0  0  0
 53 58  1  0  0  0  0
 59 60  1  0  0  0  0
 59 61  1  0  0  0  0
 60 62  1  0  0  0  0
 60 63  1  0  0  0  0
 60 64  1  0  0  0  0
M  END
$$$$

  -OEChem-05262216053D

 64 63  0     1  0  0  0  0  0999 V2000
   -1.8026   -1.9715    4.5734 C   0  0  0  0  0  0  0  0  0  0  0  0
   -2.9600   -1.6442    4.3545 O   0  0  0  0  0  0  0  0  0  0  0  0
   -1.3370   -2.2411    5.9917 C   0  0  0  0  0  0  0  0  0  0  0  0
   -0.5579   -1.5269    6.2697 H   0  0  0  0  0  0  0  0  0  0  0  0
   -2.1732   -2.1402    6.6894 H   0  0  0  0  0  0  0  0  0  0  0  0
   -0.9362   -3.2549    6.0673 H   0  0  0  0  0  0  0  0  0  0  0  0
   -0.9215   -2.0978    3.5222 N   0  0  0  0  0  0  0  0  0  0  0  0
   -1.2742   -1.8716    2.1151 C   0  0  2  0  0  0  0  0  0  0  0  0
   -0.3669   -2.6485    1.1375 C   0  0  0  0  0  0  0  0  0  0  0  0
    0.6271   -3.2356    1.5516 O   0  0  0  0  0  0  0  0  0  0  0  0
   -1.2384   -0.3652    1.8272 C   0  0  0  0  0  0  0  0  0  0  0  0
    0.4193    0.3744    2.1047 S   0  0  0  0  0  0  0  0  0  0  0  0
    0.0279   -2.4105    3.7215 H   0  0  0  0  0  0  0  0  0  0  0  0
   -2.2903   -2.2387    1.9429 H   0  0  0  0  0  0  0  0  0  0  0  0
   -1.5243   -0.1905    0.7898 H   0  0  0  0  0  0  0  0  0  0  0  0
   -1.9661    0.1492    2.4624 H   0  0  0  0  0  0  0  0  0  0  0  0
   -0.6981   -2.7490   -0.2028 N   0  0  0  0  0  0  0  0  0  0  0  0
    0.0627   -3.5433   -1.1571 C   0  0  0  0  0  0  0  0  0  0  0  0
   -1.5451   -2.2765   -0.5275 H   0  0  0  0  0  0  0  0  0  0  0  0
    1.0899   -3.1717   -1.2255 H   0  0  0  0  0  0  0  0  0  0  0  0
    0.0862   -4.5940   -0.8500 H   0  0  0  0  0  0  0  0  0  0  0  0
   -0.3964   -3.4851   -2.1486 H   0  0  0  0  0  0  0  0  0  0  0  0
   -3.7045   -0.4042   -0.7618 C   0  0  0  0  0  0  0  0  0  0  0  0
   -2.8412   -1.0790   -1.3103 O   0  0  0  0  0  0  0  0  0  0  0  0
   -4.5259   -0.9889    0.3720 C   0  0  0  0  0  0  0  0  0  0  0  0
   -5.5913   -0.8542    0.1694 H   0  0  0  0  0  0  0  0  0  0  0  0
   -4.3242   -2.0588    0.4749 H   0  0  0  0  0  0  0  0  0  0  0  0
   -4.2789   -0.4909    1.3135 H   0  0  0  0  0  0  0  0  0  0  0  0
   -3.8746    0.9122   -1.1306 N   0  0  0  0  0  0  0  0  0  0  0  0
   -3.2654    1.5191   -2.3227 C   0  0  2  0  0  0  0  0  0  0  0  0
   -1.7536    1.8267   -2.1727 C   0  0  0  0  0  0  0  0  0  0  0  0
   -1.3525    2.9751   -2.0436 O   0  0  0  0  0  0  0  0  0  0  0  0
   -4.0851    2.7730   -2.6571 C   0  0  0  0  0  0  0  0  0  0  0  0
   -4.5541    1.4591   -0.6076 H   0  0  0  0  0  0  0  0  0  0  0  0
   -3.3664    0.8279   -3.1667 H   0  0  0  0  0  0  0  0  0  0  0  0
   -4.0305    3.4996   -1.8395 H   0  0  0  0  0  0  0  0  0  0  0  0
   -3.6981    3.2473   -3.5651 H   0  0  0  0  0  0  0  0  0  0  0  0
   -5.1347    2.5130   -2.8257 H   0  0  0  0  0  0  0  0  0  0  0  0
   -0.8424    0.8082   -2.3881 N   0  0  0  0  0  0  0  0  0  0  0  0
    0.6215    0.9546   -2.2173 C   0  0  2  0  0  0  0  0  0  0  0  0
    1.4183    0.0359   -3.1649 C   0  0  0  0  0  0  0  0  0  0  0  0
    2.5386    0.3636   -3.5316 O   0  0  0  0  0  0  0  0  0  0  0  0
    1.0502    0.5801   -0.7891 C   0  0  0  0  0  0  0  0  0  0  0  0
    0.3840    1.7060    0.5002 S   0  0  0  0  0  0  0  0  0  0  0  0
   -1.2509   -0.1226   -2.2916 H   0  0  0  0  0  0  0  0  0  0  0  0
    0.9272    1.9860   -2.4271 H   0  0  0  0  0  0  0  0  0  0  0  0
    0.7261   -0.4415   -0.5769 H   0  0  0  0  0  0  0  0  0  0  0  0
    2.1432    0.5964   -0.7192 H   0  0  0  0  0  0  0  0  0  0  0  0
    0.9113   -1.1804   -3.5870 N   0  0  0  0  0  0  0  0  0  0  0  0
    1.5200   -2.0058   -4.6388 C   0  0  2  0  0  0  0  0  0  0  0  0
    0.4544   -2.8573   -5.3593 C   0  0  0  0  0  0  0  0  0  0  0  0
   -0.6800   -2.9372   -4.8983 O   0  0  0  0  0  0  0  0  0  0  0  0
    2.5997   -2.9019   -4.0208 C   0  0  0  0  0  0  0  0  0  0  0  0
   -0.0665   -1.3728   -3.3758 H   0  0  0  0  0  0  0  0  0  0  0  0
    1.9811   -1.3550   -5.3897 H   0  0  0  0  0  0  0  0  0  0  0  0
    2.1580   -3.5984   -3.3027 H   0  0  0  0  0  0  0  0  0  0  0  0
    3.1079   -3.4817   -4.7969 H   0  0  0  0  0  0  0  0  0  0  0  0
    3.3489   -2.2952   -3.5023 H   0  0  0  0  0  0  0  0  0  0  0  0
    0.7599   -3.5207   -6.5330 N   0  0  0  0  0  0  0  0  0  0  0  0
   -0.2050   -4.3243   -7.2737 C   0  0  0  0  0  0  0  0  0  0  0  0
    1.7011   -3.4176   -6.9020 H   0  0  0  0  0  0  0  0  0  0  0  0
   -0.6035   -5.1249   -6.6415 H   0  0  0  0  0  0  0  0  0  0  0  0
   -1.0364   -3.7013   -7.6200 H   0  0  0  0  0  0  0  0  0  0  0  0
    0.2723   -4.7806   -8.1465 H   0  0  0  0  0  0  0  0  0  0  0  0
  1  2  2  0  0  0  0
  1  3  1  0  0  0  0
  1  7  1  0  0  0  0
  3  4  1  0  0  0  0
  3  5  1  0  0  0  0
  3  6  1  0  0  0  0
  7  8  1  0  0  0  0
  7 13  1  0  0  0  0
  8  9  1  0  0  0  0
  8 11  1  0  0  0  0
  8 14  1  0  0  0  0
  9 10  2  0  0  0  0
  9 17  1  0  0  0  0
 11 12  1  0  0  0  0
 11 15  1  0  0  0  0
 11 16  1  0  0  0  0
 12 44  1  0  0  0  0
 17 18  1  0  0  0  0
 17 19  1  0  0  0  0
 18 20  1  0  0  0  0
 18 21  1  0  0  0  0
 18 22  1  0  0  0  0
 23 24  2  0  0  0  0
 23 25  1  0  0  0  0
 23 29  1  0  0  0  0
 25 26  1  0  0  0  0
 25 27  1  0  0  0  0
 25 28  1  0  0  0  0
 29 30  1  0  0  0  0
 29 34  1  0  0  0  0
 30 31  1  0  0  0  0
 30 33  1  0  0  0  0
 30 35  1  0  0  0  0
 31 32  2  0  0  0  0
 31 39  1  0  0  0  0
 33 36  1  0  0  0  0
 33 37  1  0  0  0  0
 33 38  1  0  0  0  0
 39 40  1  0  0  0  0
 39 45  1  0  0  0  0
 40 41  1  0  0  0  0
 40 43  1  0  0  0  0
 40 46  1  0  0  0  0
 41 42  2  0  0  0  0
 41 49  1  0  0  0  0
 43 44  1  0  0  0  0
 43 47  1  0  0  0  0
 43 48  1  0  0  0  0
 49 50  1  0  0  0  0
 49 54  1  0  0  0  0
 50 51  1  0  0  0  0
 50 53  1  0  0  0  0
 50 55  1  0  0  0  0
 51 52  2  0  0  0  0
 51 59  1  0  0  0  0
 53 56  1  0  0  0  0
 53 57  1  0  0  0  0
 53 58  1  0  0  0  0
 59 60  1  0  0  0  0
 59 61  1  0  0  0  0
 60 62  1  0  0  0  0
 60 63  1  0  0  0  0
 60 64  1  0  0  0  0
M  END
$$$$

  -OEChem-05262216053D

 64 63  0     1  0  0  0  0  0999 V2000
   -2.3177   -1.3488    4.5169 C   0  0  0  0  0  0  0  0  0  0  0  0
   -3.3420   -1.2446    3.8567 O   0  0  0  0  0  0  0  0  0  0  0  0
   -2.3299   -1.0409    6.0022 C   0  0  0  0  0  0  0  0  0  0  0  0
   -1.6831   -0.1849    6.2100 H   0  0  0  0  0  0  0  0  0  0  0  0
   -3.3461   -0.8039    6.3298 H   0  0  0  0  0  0  0  0  0  0  0  0
   -1.9712   -1.9050    6.5669 H   0  0  0  0  0  0  0  0  0  0  0  0
   -1.1511   -1.7523    3.9046 N   0  0  0  0  0  0  0  0  0  0  0  0
   -1.0494   -2.1348    2.4904 C   0  0  2  0  0  0  0  0  0  0  0  0
    0.1545   -3.0582    2.2057 C   0  0  0  0  0  0  0  0  0  0  0  0
    0.8909   -3.4111    3.1204 O   0  0  0  0  0  0  0  0  0  0  0  0
   -0.9868   -0.8690    1.6268 C   0  0  0  0  0  0  0  0  0  0  0  0
    0.5556    0.0904    1.8944 S   0  0  0  0  0  0  0  0  0  0  0  0
   -0.3273   -1.8992    4.4873 H   0  0  0  0  0  0  0  0  0  0  0  0
   -1.9445   -2.7019    2.2162 H   0  0  0  0  0  0  0  0  0  0  0  0
   -1.0505   -1.1518    0.5742 H   0  0  0  0  0  0  0  0  0  0  0  0
   -1.8423   -0.2244    1.8478 H   0  0  0  0  0  0  0  0  0  0  0  0
    0.3839   -3.5370    0.9270 N   0  0  0  0  0  0  0  0  0  0  0  0
    1.5209   -4.3818    0.5819 C   0  0  0  0  0  0  0  0  0  0  0  0
   -0.2296   -3.2137    0.1840 H   0  0  0  0  0  0  0  0  0  0  0  0
    2.4616   -3.8537    0.7712 H   0  0  0  0  0  0  0  0  0  0  0  0
    1.5083   -5.3036    1.1733 H   0  0  0  0  0  0  0  0  0  0  0  0
    1.4833   -4.6519   -0.4779 H   0  0  0  0  0  0  0  0  0  0  0  0
   -3.5111   -0.6070   -0.8050 C   0  0  0  0  0  0  0  0  0  0  0  0
   -2.7159   -1.1851   -1.5354 O   0  0  0  0  0  0  0  0  0  0  0  0
   -4.2129   -1.3590    0.3105 C   0  0  0  0  0  0  0  0  0  0  0  0
   -5.2725   -1.4756    0.0705 H   0  0  0  0  0  0  0  0  0  0  0  0
   -3.7708   -2.3506    0.4374 H   0  0  0  0  0  0  0  0  0  0  0  0
   -4.1242   -0.8114    1.2523 H   0  0  0  0  0  0  0  0  0  0  0  0
   -3.7656    0.7348   -0.9949 N   0  0  0  0  0  0  0  0  0  0  0  0
   -3.3605    1.4962   -2.1871 C   0  0  2  0  0  0  0  0  0  0  0  0
   -1.8476    1.8272   -2.2411 C   0  0  0  0  0  0  0  0  0  0  0  0
   -1.4384    2.9751   -2.1284 O   0  0  0  0  0  0  0  0  0  0  0  0
   -4.2379    2.7544   -2.2324 C   0  0  0  0  0  0  0  0  0  0  0  0
   -4.3999    1.1802   -0.3363 H   0  0  0  0  0  0  0  0  0  0  0  0
   -3.5861    0.9055   -3.0817 H   0  0  0  0  0  0  0  0  0  0  0  0
   -4.0562    3.3840   -1.3549 H   0  0  0  0  0  0  0  0  0  0  0  0
   -4.0131    3.3404   -3.1295 H   0  0  0  0  0  0  0  0  0  0  0  0
   -5.2979    2.4834   -2.2562 H   0  0  0  0  0  0  0  0  0  0  0  0
   -0.9599    0.8205   -2.5735 N   0  0  0  0  0  0  0  0  0  0  0  0
    0.5074    0.9396   -2.4325 C   0  0  2  0  0  0  0  0  0  0  0  0
    1.2570    0.0966   -3.4854 C   0  0  0  0  0  0  0  0  0  0  0  0
    2.4706    0.2027   -3.6083 O   0  0  0  0  0  0  0  0  0  0  0  0
    0.9448    0.4282   -1.0491 C   0  0  0  0  0  0  0  0  0  0  0  0
    0.2993    1.4499    0.3352 S   0  0  0  0  0  0  0  0  0  0  0  0
   -1.3680   -0.1110   -2.4555 H   0  0  0  0  0  0  0  0  0  0  0  0
    0.8247    1.9808   -2.5572 H   0  0  0  0  0  0  0  0  0  0  0  0
    0.6100   -0.6056   -0.9296 H   0  0  0  0  0  0  0  0  0  0  0  0
    2.0385    0.4287   -0.9864 H   0  0  0  0  0  0  0  0  0  0  0  0
    0.5981   -0.8808   -4.2097 N   0  0  0  0  0  0  0  0  0  0  0  0
    1.2040   -1.6461   -5.3069 C   0  0  2  0  0  0  0  0  0  0  0  0
    0.2163   -1.8308   -6.4776 C   0  0  0  0  0  0  0  0  0  0  0  0
   -0.9803   -1.6172   -6.3134 O   0  0  0  0  0  0  0  0  0  0  0  0
    1.6487   -3.0019   -4.7523 C   0  0  0  0  0  0  0  0  0  0  0  0
   -0.4204   -0.8257   -4.2117 H   0  0  0  0  0  0  0  0  0  0  0  0
    2.0768   -1.1141   -5.7004 H   0  0  0  0  0  0  0  0  0  0  0  0
    0.7884   -3.5555   -4.3625 H   0  0  0  0  0  0  0  0  0  0  0  0
    2.1242   -3.6012   -5.5346 H   0  0  0  0  0  0  0  0  0  0  0  0
    2.3699   -2.8596   -3.9411 H   0  0  0  0  0  0  0  0  0  0  0  0
    0.6724   -2.2251   -7.7219 N   0  0  0  0  0  0  0  0  0  0  0  0
   -0.1965   -2.3626   -8.8844 C   0  0  0  0  0  0  0  0  0  0  0  0
    1.6746   -2.3433   -7.8404 H   0  0  0  0  0  0  0  0  0  0  0  0
   -1.0068   -3.0693   -8.6760 H   0  0  0  0  0  0  0  0  0  0  0  0
   -0.6327   -1.3946   -9.1527 H   0  0  0  0  0  0  0  0  0  0  0  0
    0.3737   -2.7352   -9.7409 H   0  0  0  0  0  0  0  0  0  0  0  0
  1  2  2  0  0  0  0
  1  3  1  0  0  0  0
  1  7  1  0  0  0  0
  3  4  1  0  0  0  0
  3  5  1  0  0  0  0
  3  6  1  0  0  0  0
  7  8  1  0  0  0  0
  7 13  1  0  0  0  0
  8  9  1  0  0  0  0
  8 11  1  0  0  0  0
  8 14  1  0  0  0  0
  9 10  2  0  0  0  0
  9 17  1  0  0  0  0
 11 12  1  0  0  0  0
 11 15  1  0  0  0  0
 11 16  1  0  0  0  0
 12 44  1  0  0  0  0
 17 18  1  0  0  0  0
 17 19  1  0  0  0  0
 18 20  1  0  0  0  0
 18 21  1  0  0  0  0
 18 22  1  0  0  0  0
 23 24  2  0  0  0  0
 23 25  1  0  0  0  0
 23 29  1  0  0  0  0
 25 26  1  0  0  0  0
 25 27  1  0  0  0  0
 25 28  1  0  0  0  0
 29 30  1  0  0  0  0
 29 34  1  0  0  0  0
 30 31  1  0  0  0  0
 30 33  1  0  0  0  0
 30 35  1  0  0  0  0
 31 32  2  0  0  0  0
 31 39  1  0  0  0  0
 33 36  1  0  0  0  0
 33 37  1  0  0  0  0
 33 38  1  0  0  0  0
 39 40  1  0  0  0  0
 39 45  1  0  0  0  0
 40 41  1  0  0  0  0
 40 43  1  0  0  0  0
 40 46  1  0  0  0  0
 41 42  2  0  0  0  0
 41 49  1  0  0  0  0
 43 44  1  0  0  0  0
 43 47  1  0  0  0  0
 43 48  1  0  0  0  0
 49 50  1  0  0  0  0
 49 54  1  0  0  0  0
 50 51  1  0  0  0  0
 50 53  1  0  0  0  0
 50 55  1  0  0  0  0
 51 52  2  0  0  0  0
 51 59  1  0  0  0  0
 53 56  1  0  0  0  0
 53 57  1  0  0  0  0
 53 58  1  0  0  0  0
 59 60  1  0  0  0  0
 59 61  1  0  0  0  0
 60 62  1  0  0  0  0
 60 63  1  0  0  0  0
 60 64  1  0  0  0  0
M  END
$$$$

  -OEChem-05262216053D

 64 63  0     1  0  0  0  0  0999 V2000
   -2.3548   -1.3997    4.5471 C   0  0  0  0  0  0  0  0  0  0  0  0
   -3.3776   -1.2997    3.8838 O   0  0  0  0  0  0  0  0  0  0  0  0
   -2.3664   -1.0830    6.0301 C   0  0  0  0  0  0  0  0  0  0  0  0
   -1.6928   -0.2477    6.2367 H   0  0  0  0  0  0  0  0  0  0  0  0
   -3.3757   -0.8102    6.3502 H   0  0  0  0  0  0  0  0  0  0  0  0
   -2.0388   -1.9553    6.6007 H   0  0  0  0  0  0  0  0  0  0  0  0
   -1.1852   -1.8011    3.9401 N   0  0  0  0  0  0  0  0  0  0  0  0
   -1.0709   -2.1723    2.5241 C   0  0  2  0  0  0  0  0  0  0  0  0
    0.1496   -3.0745    2.2434 C   0  0  0  0  0  0  0  0  0  0  0  0
    0.8838   -3.4217    3.1623 O   0  0  0  0  0  0  0  0  0  0  0  0
   -1.0224   -0.8997    1.6691 C   0  0  0  0  0  0  0  0  0  0  0  0
    0.5056    0.0790    1.9492 S   0  0  0  0  0  0  0  0  0  0  0  0
   -0.3629   -1.9425    4.5263 H   0  0  0  0  0  0  0  0  0  0  0  0
   -1.9558   -2.7511    2.2413 H   0  0  0  0  0  0  0  0  0  0  0  0
   -1.0806   -1.1764    0.6146 H   0  0  0  0  0  0  0  0  0  0  0  0
   -1.8864   -0.2680    1.8931 H   0  0  0  0  0  0  0  0  0  0  0  0
    0.3955   -3.5429    0.9643 N   0  0  0  0  0  0  0  0  0  0  0  0
    1.5495   -4.3656    0.6240 C   0  0  0  0  0  0  0  0  0  0  0  0
   -0.2130   -3.2203    0.2170 H   0  0  0  0  0  0  0  0  0  0  0  0
    2.4792   -3.8193    0.8153 H   0  0  0  0  0  0  0  0  0  0  0  0
    1.5529   -5.2866    1.2167 H   0  0  0  0  0  0  0  0  0  0  0  0
    1.5203   -4.6379   -0.4355 H   0  0  0  0  0  0  0  0  0  0  0  0
   -3.5191   -0.5643   -0.7928 C   0  0  0  0  0  0  0  0  0  0  0  0
   -2.7302   -1.1535   -1.5210 O   0  0  0  0  0  0  0  0  0  0  0  0
   -4.2302   -1.3049    0.3249 C   0  0  0  0  0  0  0  0  0  0  0  0
   -5.2915   -1.4084    0.0858 H   0  0  0  0  0  0  0  0  0  0  0  0
   -3.8003   -2.3017    0.4546 H   0  0  0  0  0  0  0  0  0  0  0  0
   -4.1342   -0.7567    1.2655 H   0  0  0  0  0  0  0  0  0  0  0  0
   -3.7615    0.7782   -0.9921 N   0  0  0  0  0  0  0  0  0  0  0  0
   -3.3384    1.5292   -2.1841 C   0  0  2  0  0  0  0  0  0  0  0  0
   -1.8233    1.8508   -2.2195 C   0  0  0  0  0  0  0  0  0  0  0  0
   -1.4081    2.9954   -2.0951 O   0  0  0  0  0  0  0  0  0  0  0  0
   -4.2073    2.7921   -2.2490 C   0  0  0  0  0  0  0  0  0  0  0  0
   -4.3875    1.2363   -0.3346 H   0  0  0  0  0  0  0  0  0  0  0  0
   -3.5557    0.9334   -3.0773 H   0  0  0  0  0  0  0  0  0  0  0  0
   -4.0377    3.4229   -1.3702 H   0  0  0  0  0  0  0  0  0  0  0  0
   -3.9641    3.3748   -3.1434 H   0  0  0  0  0  0  0  0  0  0  0  0
   -5.2677    2.5258   -2.2908 H   0  0  0  0  0  0  0  0  0  0  0  0
   -0.9357    0.8433   -2.5503 N   0  0  0  0  0  0  0  0  0  0  0  0
    0.5293    0.9544   -2.3788 C   0  0  2  0  0  0  0  0  0  0  0  0
    1.2895    0.1207   -3.4338 C   0  0  0  0  0  0  0  0  0  0  0  0
    2.5111    0.0392   -3.4043 O   0  0  0  0  0  0  0  0  0  0  0  0
    0.9255    0.4262   -0.9879 C   0  0  0  0  0  0  0  0  0  0  0  0
    0.2506    1.4383    0.3897 S   0  0  0  0  0  0  0  0  0  0  0  0
   -1.3468   -0.0898   -2.4534 H   0  0  0  0  0  0  0  0  0  0  0  0
    0.8556    1.9949   -2.4845 H   0  0  0  0  0  0  0  0  0  0  0  0
    0.5805   -0.6063   -0.8886 H   0  0  0  0  0  0  0  0  0  0  0  0
    2.0165    0.4185   -0.8929 H   0  0  0  0  0  0  0  0  0  0  0  0
    0.5991   -0.6084   -4.3848 N   0  0  0  0  0  0  0  0  0  0  0  0
    1.2268   -1.2936   -5.5217 C   0  0  2  0  0  0  0  0  0  0  0  0
    0.3658   -1.1730   -6.7964 C   0  0  0  0  0  0  0  0  0  0  0  0
   -0.8085   -0.8281   -6.7158 O   0  0  0  0  0  0  0  0  0  0  0  0
    1.4320   -2.7626   -5.1421 C   0  0  0  0  0  0  0  0  0  0  0  0
   -0.3919   -0.3861   -4.4835 H   0  0  0  0  0  0  0  0  0  0  0  0
    2.1987   -0.8394   -5.7426 H   0  0  0  0  0  0  0  0  0  0  0  0
    0.4700   -3.2401   -4.9295 H   0  0  0  0  0  0  0  0  0  0  0  0
    1.9193   -3.3064   -5.9570 H   0  0  0  0  0  0  0  0  0  0  0  0
    2.0639   -2.8381   -4.2512 H   0  0  0  0  0  0  0  0  0  0  0  0
    0.9132   -1.4366   -8.0386 N   0  0  0  0  0  0  0  0  0  0  0  0
    0.1749   -1.2871   -9.2869 C   0  0  0  0  0  0  0  0  0  0  0  0
    1.8988   -1.6801   -8.0768 H   0  0  0  0  0  0  0  0  0  0  0  0
   -0.7092   -1.9332   -9.2905 H   0  0  0  0  0  0  0  0  0  0  0  0
   -0.1467   -0.2488   -9.4199 H   0  0  0  0  0  0  0  0  0  0  0  0
    0.8075   -1.5646  -10.1356 H   0  0  0  0  0  0  0  0  0  0  0  0
  1  2  2  0  0  0  0
  1  3  1  0  0  0  0
  1  7  1  0  0  0  0
  3  4  1  0  0  0  0
  3  5  1  0  0  0  0
  3  6  1  0  0  0  0
  7  8  1  0  0  0  0
  7 13  1  0  0  0  0
  8  9  1  0  0  0  0
  8 11  1  0  0  0  0
  8 14  1  0  0  0  0
  9 10  2  0  0  0  0
  9 17  1  0  0  0  0
 11 12  1  0  0  0  0
 11 15  1  0  0  0  0
 11 16  1  0  0  0  0
 12 44  1  0  0  0  0
 17 18  1  0  0  0  0
 17 19  1  0  0  0  0
 18 20  1  0  0  0  0
 18 21  1  0  0  0  0
 18 22  1  0  0  0  0
 23 24  2  0  0  0  0
 23 25  1  0  0  0  0
 23 29  1  0  0  0  0
 25 26  1  0  0  0  0
 25 27  1  0  0  0  0
 25 28  1  0  0  0  0
 29 30  1  0  0  0  0
 29 34  1  0  0  0  0
 30 31  1  0  0  0  0
 30 33  1  0  0  0  0
 30 35  1  0  0  0  0
 31 32  2  0  0  0  0
 31 39  1  0  0  0  0
 33 36  1  0  0  0  0
 33 37  1  0  0  0  0
 33 38  1  0  0  0  0
 39 40  1  0  0  0  0
 39 45  1  0  0  0  0
 40 41  1  0  0  0  0
 40 43  1  0  0  0  0
 40 46  1  0  0  0  0
 41 42  2  0  0  0  0
 41 49  1  0  0  0  0
 43 44  1  0  0  0  0
 43 47  1  0  0  0  0
 43 48  1  0  0  0  0
 49 50  1  0  0  0  0
 49 54  1  0  0  0  0
 50 51  1  0  0  0  0
 50 53  1  0  0  0  0
 50 55  1  0  0  0  0
 51 52  2  0  0  0  0
 51 59  1  0  0  0  0
 53 56  1  0  0  0  0
 53 57  1  0  0  0  0
 53 58  1  0  0  0  0
 59 60  1  0  0  0  0
 59 61  1  0  0  0  0
 60 62  1  0  0  0  0
 60 63  1  0  0  0  0
 60 64  1  0  0  0  0
M  END
$$$$

  -OEChem-05262216053D

 64 63  0     1  0  0  0  0  0999 V2000
   -2.4629   -1.4804    4.4808 C   0  0  0  0  0  0  0  0  0  0  0  0
   -3.4576   -1.3933    3.7748 O   0  0  0  0  0  0  0  0  0  0  0  0
   -2.5597   -1.2259    5.9727 C   0  0  0  0  0  0  0  0  0  0  0  0
   -1.9532   -0.3580    6.2428 H   0  0  0  0  0  0  0  0  0  0  0  0
   -3.5981   -1.0331    6.2562 H   0  0  0  0  0  0  0  0  0  0  0  0
   -2.2010   -2.0980    6.5245 H   0  0  0  0  0  0  0  0  0  0  0  0
   -1.2527   -1.8163    3.9144 N   0  0  0  0  0  0  0  0  0  0  0  0
   -1.0690   -2.1549    2.4973 C   0  0  2  0  0  0  0  0  0  0  0  0
    0.1787   -3.0314    2.2541 C   0  0  0  0  0  0  0  0  0  0  0  0
    0.8646   -3.4014    3.2009 O   0  0  0  0  0  0  0  0  0  0  0  0
   -1.0078   -0.8628    1.6729 C   0  0  0  0  0  0  0  0  0  0  0  0
    0.5101    0.1148    2.0082 S   0  0  0  0  0  0  0  0  0  0  0  0
   -0.4560   -1.9623    4.5338 H   0  0  0  0  0  0  0  0  0  0  0  0
   -1.9294   -2.7430    2.1627 H   0  0  0  0  0  0  0  0  0  0  0  0
   -1.0410   -1.1156    0.6113 H   0  0  0  0  0  0  0  0  0  0  0  0
   -1.8804   -0.2405    1.8907 H   0  0  0  0  0  0  0  0  0  0  0  0
    0.5071   -3.4489    0.9759 N   0  0  0  0  0  0  0  0  0  0  0  0
    1.6966   -4.2355    0.6737 C   0  0  0  0  0  0  0  0  0  0  0  0
   -0.0623   -3.1082    0.2064 H   0  0  0  0  0  0  0  0  0  0  0  0
    2.6005   -3.6955    0.9749 H   0  0  0  0  0  0  0  0  0  0  0  0
    1.6668   -5.1947    1.2012 H   0  0  0  0  0  0  0  0  0  0  0  0
    1.7553   -4.4340   -0.4008 H   0  0  0  0  0  0  0  0  0  0  0  0
   -3.4861   -0.5736   -0.8251 C   0  0  0  0  0  0  0  0  0  0  0  0
   -2.6816   -1.1377   -1.5557 O   0  0  0  0  0  0  0  0  0  0  0  0
   -4.2076   -1.3453    0.2633 C   0  0  0  0  0  0  0  0  0  0  0  0
   -5.2578   -1.4763   -0.0086 H   0  0  0  0  0  0  0  0  0  0  0  0
   -3.7527   -2.3301    0.3968 H   0  0  0  0  0  0  0  0  0  0  0  0
   -4.1550   -0.8029    1.2106 H   0  0  0  0  0  0  0  0  0  0  0  0
   -3.7355    0.7717   -0.9918 N   0  0  0  0  0  0  0  0  0  0  0  0
   -3.2944    1.5594   -2.1528 C   0  0  2  0  0  0  0  0  0  0  0  0
   -1.7806    1.8918   -2.1506 C   0  0  0  0  0  0  0  0  0  0  0  0
   -1.3764    3.0375   -2.0016 O   0  0  0  0  0  0  0  0  0  0  0  0
   -4.1711    2.8178   -2.1958 C   0  0  0  0  0  0  0  0  0  0  0  0
   -4.3784    1.2058   -0.3344 H   0  0  0  0  0  0  0  0  0  0  0  0
   -3.4914    0.9892   -3.0671 H   0  0  0  0  0  0  0  0  0  0  0  0
   -4.0094    3.4314   -1.3032 H   0  0  0  0  0  0  0  0  0  0  0  0
   -3.9259    3.4192   -3.0772 H   0  0  0  0  0  0  0  0  0  0  0  0
   -5.2301    2.5469   -2.2481 H   0  0  0  0  0  0  0  0  0  0  0  0
   -0.8784    0.8993   -2.4873 N   0  0  0  0  0  0  0  0  0  0  0  0
    0.5847    1.0214   -2.3097 C   0  0  2  0  0  0  0  0  0  0  0  0
    1.3387    0.1985   -3.3805 C   0  0  0  0  0  0  0  0  0  0  0  0
    2.5184   -0.1018   -3.2422 O   0  0  0  0  0  0  0  0  0  0  0  0
    0.9798    0.4923   -0.9176 C   0  0  0  0  0  0  0  0  0  0  0  0
    0.2919    1.4942    0.4609 S   0  0  0  0  0  0  0  0  0  0  0  0
   -1.2806   -0.0412   -2.4321 H   0  0  0  0  0  0  0  0  0  0  0  0
    0.9021    2.0650   -2.4101 H   0  0  0  0  0  0  0  0  0  0  0  0
    0.6457   -0.5437   -0.8240 H   0  0  0  0  0  0  0  0  0  0  0  0
    2.0700    0.4945   -0.8156 H   0  0  0  0  0  0  0  0  0  0  0  0
    0.6704   -0.2594   -4.5007 N   0  0  0  0  0  0  0  0  0  0  0  0
    1.3068   -0.9284   -5.6419 C   0  0  2  0  0  0  0  0  0  0  0  0
    0.6068   -0.5697   -6.9688 C   0  0  0  0  0  0  0  0  0  0  0  0
   -0.5178   -0.0807   -6.9591 O   0  0  0  0  0  0  0  0  0  0  0  0
    1.2623   -2.4399   -5.4015 C   0  0  0  0  0  0  0  0  0  0  0  0
   -0.2645    0.1202   -4.6543 H   0  0  0  0  0  0  0  0  0  0  0  0
    2.3500   -0.6059   -5.7260 H   0  0  0  0  0  0  0  0  0  0  0  0
    0.2259   -2.7847   -5.3260 H   0  0  0  0  0  0  0  0  0  0  0  0
    1.7488   -2.9734   -6.2236 H   0  0  0  0  0  0  0  0  0  0  0  0
    1.7822   -2.6914   -4.4715 H   0  0  0  0  0  0  0  0  0  0  0  0
    1.2446   -0.7832   -8.1769 N   0  0  0  0  0  0  0  0  0  0  0  0
    0.6664   -0.4119   -9.4626 C   0  0  0  0  0  0  0  0  0  0  0  0
    2.1927   -1.1473   -8.1515 H   0  0  0  0  0  0  0  0  0  0  0  0
   -0.2994   -0.9075   -9.6077 H   0  0  0  0  0  0  0  0  0  0  0  0
    0.5180    0.6717   -9.5173 H   0  0  0  0  0  0  0  0  0  0  0  0
    1.3333   -0.7118  -10.2766 H   0  0  0  0  0  0  0  0  0  0  0  0
  1  2  2  0  0  0  0
  1  3  1  0  0  0  0
  1  7  1  0  0  0  0
  3  4  1  0  0  0  0
  3  5  1  0  0  0  0
  3  6  1  0  0  0  0
  7  8  1  0  0  0  0
  7 13  1  0  0  0  0
  8  9  1  0  0  0  0
  8 11  1  0  0  0  0
  8 14  1  0  0  0  0
  9 10  2  0  0  0  0
  9 17  1  0  0  0  0
 11 12  1  0  0  0  0
 11 15  1  0  0  0  0
 11 16  1  0  0  0  0
 12 44  1  0  0  0  0
 17 18  1  0  0  0  0
 17 19  1  0  0  0  0
 18 20  1  0  0  0  0
 18 21  1  0  0  0  0
 18 22  1  0  0  0  0
 23 24  2  0  0  0  0
 23 25  1  0  0  0  0
 23 29  1  0  0  0  0
 25 26  1  0  0  0  0
 25 27  1  0  0  0  0
 25 28  1  0  0  0  0
 29 30  1  0  0  0  0
 29 34  1  0  0  0  0
 30 31  1  0  0  0  0
 30 33  1  0  0  0  0
 30 35  1  0  0  0  0
 31 32  2  0  0  0  0
 31 39  1  0  0  0  0
 33 36  1  0  0  0  0
 33 37  1  0  0  0  0
 33 38  1  0  0  0  0
 39 40  1  0  0  0  0
 39 45  1  0  0  0  0
 40 41  1  0  0  0  0
 40 43  1  0  0  0  0
 40 46  1  0  0  0  0
 41 42  2  0  0  0  0
 41 49  1  0  0  0  0
 43 44  1  0  0  0  0
 43 47  1  0  0  0  0
 43 48  1  0  0  0  0
 49 50  1  0  0  0  0
 49 54  1  0  0  0  0
 50 51  1  0  0  0  0
 50 53  1  0  0  0  0
 50 55  1  0  0  0  0
 51 52  2  0  0  0  0
 51 59  1  0  0  0  0
 53 56  1  0  0  0  0
 53 57  1  0  0  0  0
 53 58  1  0  0  0  0
 59 60  1  0  0  0  0
 59 61  1  0  0  0  0
 60 62  1  0  0  0  0
 60 63  1  0  0  0  0
 60 64  1  0  0  0  0
M  END
$$$$

  -OEChem-05262216053D

 64 63  0     1  0  0  0  0  0999 V2000
   -2.3297   -1.9663    4.2553 C   0  0  0  0  0  0  0  0  0  0  0  0
   -3.4251   -1.7325    3.7637 O   0  0  0  0  0  0  0  0  0  0  0  0
   -2.2052   -2.2878    5.7322 C   0  0  0  0  0  0  0  0  0  0  0  0
   -1.5933   -1.5299    6.2276 H   0  0  0  0  0  0  0  0  0  0  0  0
   -3.1938   -2.3037    6.1996 H   0  0  0  0  0  0  0  0  0  0  0  0
   -1.7375   -3.2666    5.8639 H   0  0  0  0  0  0  0  0  0  0  0  0
   -1.2074   -1.9394    3.4570 N   0  0  0  0  0  0  0  0  0  0  0  0
   -1.2321   -1.6744    2.0144 C   0  0  2  0  0  0  0  0  0  0  0  0
   -0.0789   -2.3605    1.2544 C   0  0  0  0  0  0  0  0  0  0  0  0
    0.8665   -2.8425    1.8685 O   0  0  0  0  0  0  0  0  0  0  0  0
   -1.2276   -0.1559    1.7850 C   0  0  0  0  0  0  0  0  0  0  0  0
    0.3129    0.6421    2.3928 S   0  0  0  0  0  0  0  0  0  0  0  0
   -0.3093   -2.1845    3.8722 H   0  0  0  0  0  0  0  0  0  0  0  0
   -2.1515   -2.0918    1.5987 H   0  0  0  0  0  0  0  0  0  0  0  0
   -1.3245    0.0465    0.7174 H   0  0  0  0  0  0  0  0  0  0  0  0
   -2.0883    0.2987    2.2855 H   0  0  0  0  0  0  0  0  0  0  0  0
   -0.1290   -2.4820   -0.1234 N   0  0  0  0  0  0  0  0  0  0  0  0
    0.9465   -3.0622   -0.9178 C   0  0  0  0  0  0  0  0  0  0  0  0
   -0.9451   -2.0994   -0.6061 H   0  0  0  0  0  0  0  0  0  0  0  0
    1.8366   -2.4251   -0.8816 H   0  0  0  0  0  0  0  0  0  0  0  0
    1.2099   -4.0574   -0.5441 H   0  0  0  0  0  0  0  0  0  0  0  0
    0.6313   -3.1595   -1.9607 H   0  0  0  0  0  0  0  0  0  0  0  0
   -3.4391   -0.6570   -0.8580 C   0  0  0  0  0  0  0  0  0  0  0  0
   -2.4581   -1.1585   -1.3950 O   0  0  0  0  0  0  0  0  0  0  0  0
   -4.3479   -1.4966    0.0198 C   0  0  0  0  0  0  0  0  0  0  0  0
   -5.3673   -1.4770   -0.3730 H   0  0  0  0  0  0  0  0  0  0  0  0
   -4.0028   -2.5340    0.0427 H   0  0  0  0  0  0  0  0  0  0  0  0
   -4.3546   -1.1051    1.0410 H   0  0  0  0  0  0  0  0  0  0  0  0
   -3.6871    0.6900   -1.0124 N   0  0  0  0  0  0  0  0  0  0  0  0
   -3.0838    1.5254   -2.0628 C   0  0  2  0  0  0  0  0  0  0  0  0
   -1.6101    1.9345   -1.8048 C   0  0  0  0  0  0  0  0  0  0  0  0
   -1.2941    3.1059   -1.6500 O   0  0  0  0  0  0  0  0  0  0  0  0
   -4.0028    2.7423   -2.2409 C   0  0  0  0  0  0  0  0  0  0  0  0
   -4.4933    1.0639   -0.5174 H   0  0  0  0  0  0  0  0  0  0  0  0
   -3.0908    0.9681   -3.0061 H   0  0  0  0  0  0  0  0  0  0  0  0
   -4.0286    3.3423   -1.3252 H   0  0  0  0  0  0  0  0  0  0  0  0
   -3.6405    3.3753   -3.0576 H   0  0  0  0  0  0  0  0  0  0  0  0
   -5.0218    2.4244   -2.4811 H   0  0  0  0  0  0  0  0  0  0  0  0
   -0.6143    0.9976   -2.0102 N   0  0  0  0  0  0  0  0  0  0  0  0
    0.8349    1.2469   -1.8417 C   0  0  2  0  0  0  0  0  0  0  0  0
    1.6206    0.3421   -2.8211 C   0  0  0  0  0  0  0  0  0  0  0  0
    2.7412   -0.0835   -2.5703 O   0  0  0  0  0  0  0  0  0  0  0  0
    1.2824    0.9362   -0.3988 C   0  0  0  0  0  0  0  0  0  0  0  0
    0.5335    2.0437    0.8621 S   0  0  0  0  0  0  0  0  0  0  0  0
   -0.9420    0.0288   -2.0280 H   0  0  0  0  0  0  0  0  0  0  0  0
    1.0766    2.2883   -2.0800 H   0  0  0  0  0  0  0  0  0  0  0  0
    1.0418   -0.1018   -0.1665 H   0  0  0  0  0  0  0  0  0  0  0  0
    2.3696    1.0395   -0.3206 H   0  0  0  0  0  0  0  0  0  0  0  0
    1.0354   -0.0155   -4.0212 N   0  0  0  0  0  0  0  0  0  0  0  0
    1.6930   -0.7519   -5.1068 C   0  0  2  0  0  0  0  0  0  0  0  0
    1.0106   -0.4621   -6.4610 C   0  0  0  0  0  0  0  0  0  0  0  0
   -0.0770    0.1049   -6.4918 O   0  0  0  0  0  0  0  0  0  0  0  0
    1.6426   -2.2518   -4.7945 C   0  0  0  0  0  0  0  0  0  0  0  0
    0.1525    0.4430   -4.2505 H   0  0  0  0  0  0  0  0  0  0  0  0
    2.7373   -0.4313   -5.1849 H   0  0  0  0  0  0  0  0  0  0  0  0
    0.6048   -2.5883   -4.7031 H   0  0  0  0  0  0  0  0  0  0  0  0
    2.1269   -2.8267   -5.5894 H   0  0  0  0  0  0  0  0  0  0  0  0
    2.1628   -2.4632   -3.8552 H   0  0  0  0  0  0  0  0  0  0  0  0
    1.6160   -0.8298   -7.6487 N   0  0  0  0  0  0  0  0  0  0  0  0
    1.0305   -0.5718   -8.9592 C   0  0  0  0  0  0  0  0  0  0  0  0
    2.5261   -1.2783   -7.5963 H   0  0  0  0  0  0  0  0  0  0  0  0
    0.0529   -1.0579   -9.0455 H   0  0  0  0  0  0  0  0  0  0  0  0
    0.9040    0.5045   -9.1178 H   0  0  0  0  0  0  0  0  0  0  0  0
    1.6805   -0.9630   -9.7480 H   0  0  0  0  0  0  0  0  0  0  0  0
  1  2  2  0  0  0  0
  1  3  1  0  0  0  0
  1  7  1  0  0  0  0
  3  4  1  0  0  0  0
  3  5  1  0  0  0  0
  3  6  1  0  0  0  0
  7  8  1  0  0  0  0
  7 13  1  0  0  0  0
  8  9  1  0  0  0  0
  8 11  1  0  0  0  0
  8 14  1  0  0  0  0
  9 10  2  0  0  0  0
  9 17  1  0  0  0  0
 11 12  1  0  0  0  0
 11 15  1  0  0  0  0
 11 16  1  0  0  0  0
 12 44  1  0  0  0  0
 17 18  1  0  0  0  0
 17 19  1  0  0  0  0
 18 20  1  0  0  0  0
 18 21  1  0  0  0  0
 18 22  1  0  0  0  0
 23 24  2  0  0  0  0
 23 25  1  0  0  0  0
 23 29  1  0  0  0  0
 25 26  1  0  0  0  0
 25 27  1  0  0  0  0
 25 28  1  0  0  0  0
 29 30  1  0  0  0  0
 29 34  1  0  0  0  0
 30 31  1  0  0  0  0
 30 33  1  0  0  0  0
 30 35  1  0  0  0  0
 31 32  2  0  0  0  0
 31 39  1  0  0  0  0
 33 36  1  0  0  0  0
 33 37  1  0  0  0  0
 33 38  1  0  0  0  0
 39 40  1  0  0  0  0
 39 45  1  0  0  0  0
 40 41  1  0  0  0  0
 40 43  1  0  0  0  0
 40 46  1  0  0  0  0
 41 42  2  0  0  0  0
 41 49  1  0  0  0  0
 43 44  1  0  0  0  0
 43 47  1  0  0  0  0
 43 48  1  0  0  0  0
 49 50  1  0  0  0  0
 49 54  1  0  0  0  0
 50 51  1  0  0  0  0
 50 53  1  0  0  0  0
 50 55  1  0  0  0  0
 51 52  2  0  0  0  0
 51 59  1  0  0  0  0
 53 56  1  0  0  0  0
 53 57  1  0  0  0  0
 53 58  1  0  0  0  0
 59 60  1  0  0  0  0
 59 61  1  0  0  0  0
 60 62  1  0  0  0  0
 60 63  1  0  0  0  0
 60 64  1  0  0  0  0
M  END
$$$$

  -OEChem-05262216053D

 64 63  0     1  0  0  0  0  0999 V2000
   -2.1499   -1.9460    4.5125 C   0  0  0  0  0  0  0  0  0  0  0  0
   -3.2889   -1.7817    4.0985 O   0  0  0  0  0  0  0  0  0  0  0  0
   -1.8978   -2.2080    5.9851 C   0  0  0  0  0  0  0  0  0  0  0  0
   -1.2982   -1.3993    6.4100 H   0  0  0  0  0  0  0  0  0  0  0  0
   -2.8464   -2.2664    6.5259 H   0  0  0  0  0  0  0  0  0  0  0  0
   -1.3628   -3.1525    6.1107 H   0  0  0  0  0  0  0  0  0  0  0  0
   -1.0936   -1.9016    3.6300 N   0  0  0  0  0  0  0  0  0  0  0  0
   -1.2341   -1.6990    2.1833 C   0  0  2  0  0  0  0  0  0  0  0  0
   -0.0742   -2.3206    1.3775 C   0  0  0  0  0  0  0  0  0  0  0  0
    0.9183   -2.7475    1.9574 O   0  0  0  0  0  0  0  0  0  0  0  0
   -1.3696   -0.1954    1.8983 C   0  0  0  0  0  0  0  0  0  0  0  0
    0.1142    0.7601    2.4109 S   0  0  0  0  0  0  0  0  0  0  0  0
   -0.1573   -2.0917    3.9857 H   0  0  0  0  0  0  0  0  0  0  0  0
   -2.1409   -2.2071    1.8452 H   0  0  0  0  0  0  0  0  0  0  0  0
   -1.5242   -0.0440    0.8294 H   0  0  0  0  0  0  0  0  0  0  0  0
   -2.2464    0.2032    2.4181 H   0  0  0  0  0  0  0  0  0  0  0  0
   -0.1634   -2.4478    0.0020 N   0  0  0  0  0  0  0  0  0  0  0  0
    0.9195   -2.9651   -0.8256 C   0  0  0  0  0  0  0  0  0  0  0  0
   -1.0094   -2.1043   -0.4577 H   0  0  0  0  0  0  0  0  0  0  0  0
    1.8390   -2.3938   -0.6583 H   0  0  0  0  0  0  0  0  0  0  0  0
    1.1110   -4.0174   -0.5925 H   0  0  0  0  0  0  0  0  0  0  0  0
    0.6554   -2.8864   -1.8844 H   0  0  0  0  0  0  0  0  0  0  0  0
   -3.5374   -0.7667   -0.8022 C   0  0  0  0  0  0  0  0  0  0  0  0
   -2.5485   -1.2804   -1.3121 O   0  0  0  0  0  0  0  0  0  0  0  0
   -4.3734   -1.5395    0.2006 C   0  0  0  0  0  0  0  0  0  0  0  0
   -5.4195   -1.5494   -0.1152 H   0  0  0  0  0  0  0  0  0  0  0  0
   -4.0221   -2.5727    0.2728 H   0  0  0  0  0  0  0  0  0  0  0  0
   -4.3064   -1.0737    1.1879 H   0  0  0  0  0  0  0  0  0  0  0  0
   -3.8525    0.5426   -1.0946 N   0  0  0  0  0  0  0  0  0  0  0  0
   -3.2724    1.3023   -2.2120 C   0  0  2  0  0  0  0  0  0  0  0  0
   -1.8269    1.8048   -1.9635 C   0  0  0  0  0  0  0  0  0  0  0  0
   -1.5816    2.9971   -1.8423 O   0  0  0  0  0  0  0  0  0  0  0  0
   -4.2445    2.4496   -2.5197 C   0  0  0  0  0  0  0  0  0  0  0  0
   -4.6549    0.9417   -0.6134 H   0  0  0  0  0  0  0  0  0  0  0  0
   -3.2340    0.6592   -3.0979 H   0  0  0  0  0  0  0  0  0  0  0  0
   -4.3204    3.1309   -1.6656 H   0  0  0  0  0  0  0  0  0  0  0  0
   -3.8942    3.0209   -3.3856 H   0  0  0  0  0  0  0  0  0  0  0  0
   -5.2413    2.0592   -2.7463 H   0  0  0  0  0  0  0  0  0  0  0  0
   -0.7754    0.9182   -2.1064 N   0  0  0  0  0  0  0  0  0  0  0  0
    0.6454    1.2529   -1.8692 C   0  0  2  0  0  0  0  0  0  0  0  0
    1.5331    0.3837   -2.7926 C   0  0  0  0  0  0  0  0  0  0  0  0
    2.5245   -0.2114   -2.3868 O   0  0  0  0  0  0  0  0  0  0  0  0
    1.0324    1.0031   -0.3966 C   0  0  0  0  0  0  0  0  0  0  0  0
    0.1643    2.0908    0.8028 S   0  0  0  0  0  0  0  0  0  0  0  0
   -1.0487   -0.0669   -2.0875 H   0  0  0  0  0  0  0  0  0  0  0  0
    0.8383    2.3025   -2.1163 H   0  0  0  0  0  0  0  0  0  0  0  0
    0.8348   -0.0405   -0.1507 H   0  0  0  0  0  0  0  0  0  0  0  0
    2.1074    1.1653   -0.2671 H   0  0  0  0  0  0  0  0  0  0  0  0
    1.1834    0.2335   -4.1216 N   0  0  0  0  0  0  0  0  0  0  0  0
    1.9906   -0.4625   -5.1326 C   0  0  2  0  0  0  0  0  0  0  0  0
    1.7544    0.1228   -6.5408 C   0  0  0  0  0  0  0  0  0  0  0  0
    0.7586    0.8031   -6.7631 O   0  0  0  0  0  0  0  0  0  0  0  0
    1.6316   -1.9516   -5.1061 C   0  0  0  0  0  0  0  0  0  0  0  0
    0.4098    0.8053   -4.4632 H   0  0  0  0  0  0  0  0  0  0  0  0
    3.0543   -0.3414   -4.9005 H   0  0  0  0  0  0  0  0  0  0  0  0
    0.5690   -2.0926   -5.3287 H   0  0  0  0  0  0  0  0  0  0  0  0
    2.2192   -2.5013   -5.8474 H   0  0  0  0  0  0  0  0  0  0  0  0
    1.8410   -2.3751   -4.1190 H   0  0  0  0  0  0  0  0  0  0  0  0
    2.6627   -0.1049   -7.5586 N   0  0  0  0  0  0  0  0  0  0  0  0
    2.5255    0.4633   -8.8945 C   0  0  0  0  0  0  0  0  0  0  0  0
    3.4985   -0.6373   -7.3345 H   0  0  0  0  0  0  0  0  0  0  0  0
    1.5705    0.1684   -9.3421 H   0  0  0  0  0  0  0  0  0  0  0  0
    2.5719    1.5566   -8.8522 H   0  0  0  0  0  0  0  0  0  0  0  0
    3.3327    0.1070   -9.5416 H   0  0  0  0  0  0  0  0  0  0  0  0
  1  2  2  0  0  0  0
  1  3  1  0  0  0  0
  1  7  1  0  0  0  0
  3  4  1  0  0  0  0
  3  5  1  0  0  0  0
  3  6  1  0  0  0  0
  7  8  1  0  0  0  0
  7 13  1  0  0  0  0
  8  9  1  0  0  0  0
  8 11  1  0  0  0  0
  8 14  1  0  0  0  0
  9 10  2  0  0  0  0
  9 17  1  0  0  0  0
 11 12  1  0  0  0  0
 11 15  1  0  0  0  0
 11 16  1  0  0  0  0
 12 44  1  0  0  0  0
 17 18  1  0  0  0  0
 17 19  1  0  0  0  0
 18 20  1  0  0  0  0
 18 21  1  0  0  0  0
 18 22  1  0  0  0  0
 23 24  2  0  0  0  0
 23 25  1  0  0  0  0
 23 29  1  0  0  0  0
 25 26  1  0  0  0  0
 25 27  1  0  0  0  0
 25 28  1  0  0  0  0
 29 30  1  0  0  0  0
 29 34  1  0  0  0  0
 30 31  1  0  0  0  0
 30 33  1  0  0  0  0
 30 35  1  0  0  0  0
 31 32  2  0  0  0  0
 31 39  1  0  0  0  0
 33 36  1  0  0  0  0
 33 37  1  0  0  0  0
 33 38  1  0  0  0  0
 39 40  1  0  0  0  0
 39 45  1  0  0  0  0
 40 41  1  0  0  0  0
 40 43  1  0  0  0  0
 40 46  1  0  0  0  0
 41 42  2  0  0  0  0
 41 49  1  0  0  0  0
 43 44  1  0  0  0  0
 43 47  1  0  0  0  0
 43 48  1  0  0  0  0
 49 50  1  0  0  0  0
 49 54  1  0  0  0  0
 50 51  1  0  0  0  0
 50 53  1  0  0  0  0
 50 55  1  0  0  0  0
 51 52  2  0  0  0  0
 51 59  1  0  0  0  0
 53 56  1  0  0  0  0
 53 57  1  0  0  0  0
 53 58  1  0  0  0  0
 59 60  1  0  0  0  0
 59 61  1  0  0  0  0
 60 62  1  0  0  0  0
 60 63  1  0  0  0  0
 60 64  1  0  0  0  0
M  END
$$$$

  -OEChem-05262216053D

 64 63  0     1  0  0  0  0  0999 V2000
   -1.8626   -2.1534    4.9840 C   0  0  0  0  0  0  0  0  0  0  0  0
   -3.0064   -2.2882    4.5751 O   0  0  0  0  0  0  0  0  0  0  0  0
   -1.5888   -2.0579    6.4732 C   0  0  0  0  0  0  0  0  0  0  0  0
   -1.1134   -1.1013    6.7041 H   0  0  0  0  0  0  0  0  0  0  0  0
   -2.5251   -2.1308    7.0338 H   0  0  0  0  0  0  0  0  0  0  0  0
   -0.9274   -2.8704    6.7845 H   0  0  0  0  0  0  0  0  0  0  0  0
   -0.8198   -2.0913    4.0861 N   0  0  0  0  0  0  0  0  0  0  0  0
   -0.9635   -2.2349    2.6310 C   0  0  2  0  0  0  0  0  0  0  0  0
    0.3572   -2.6637    1.9540 C   0  0  0  0  0  0  0  0  0  0  0  0
    1.3717   -2.8141    2.6273 O   0  0  0  0  0  0  0  0  0  0  0  0
   -1.4752   -0.9154    2.0359 C   0  0  0  0  0  0  0  0  0  0  0  0
   -0.2582    0.4475    2.2449 S   0  0  0  0  0  0  0  0  0  0  0  0
    0.1299   -2.0439    4.4545 H   0  0  0  0  0  0  0  0  0  0  0  0
   -1.6949   -3.0228    2.4231 H   0  0  0  0  0  0  0  0  0  0  0  0
   -1.6785   -1.0586    0.9723 H   0  0  0  0  0  0  0  0  0  0  0  0
   -2.4158   -0.6311    2.5163 H   0  0  0  0  0  0  0  0  0  0  0  0
    0.4060   -2.8998    0.5909 N   0  0  0  0  0  0  0  0  0  0  0  0
    1.6506   -3.1454   -0.1291 C   0  0  0  0  0  0  0  0  0  0  0  0
   -0.4355   -2.7172    0.0506 H   0  0  0  0  0  0  0  0  0  0  0  0
    2.3089   -2.2723   -0.0654 H   0  0  0  0  0  0  0  0  0  0  0  0
    2.1729   -4.0127    0.2883 H   0  0  0  0  0  0  0  0  0  0  0  0
    1.4438   -3.3436   -1.1855 H   0  0  0  0  0  0  0  0  0  0  0  0
   -3.8548   -0.2978   -0.9051 C   0  0  0  0  0  0  0  0  0  0  0  0
   -3.0294   -1.0008   -1.4747 O   0  0  0  0  0  0  0  0  0  0  0  0
   -4.5593   -0.7953    0.3430 C   0  0  0  0  0  0  0  0  0  0  0  0
   -5.6329   -0.8761    0.1567 H   0  0  0  0  0  0  0  0  0  0  0  0
   -4.1784   -1.7795    0.6287 H   0  0  0  0  0  0  0  0  0  0  0  0
   -4.3950   -0.0994    1.1694 H   0  0  0  0  0  0  0  0  0  0  0  0
   -4.1451    0.9579   -1.3963 N   0  0  0  0  0  0  0  0  0  0  0  0
   -3.5779    1.5175   -2.6311 C   0  0  2  0  0  0  0  0  0  0  0  0
   -2.0802    1.8795   -2.4927 C   0  0  0  0  0  0  0  0  0  0  0  0
   -1.7070    3.0382   -2.3643 O   0  0  0  0  0  0  0  0  0  0  0  0
   -4.4373    2.7252   -3.0246 C   0  0  0  0  0  0  0  0  0  0  0  0
   -4.7574    1.5460   -0.8368 H   0  0  0  0  0  0  0  0  0  0  0  0
   -3.6603    0.7769   -3.4337 H   0  0  0  0  0  0  0  0  0  0  0  0
   -4.3912    3.5005   -2.2527 H   0  0  0  0  0  0  0  0  0  0  0  0
   -4.0785    3.1544   -3.9656 H   0  0  0  0  0  0  0  0  0  0  0  0
   -5.4810    2.4247   -3.1578 H   0  0  0  0  0  0  0  0  0  0  0  0
   -1.1384    0.8759   -2.6102 N   0  0  0  0  0  0  0  0  0  0  0  0
    0.2449    1.0125   -2.1222 C   0  0  2  0  0  0  0  0  0  0  0  0
    1.1865    0.1611   -3.0045 C   0  0  0  0  0  0  0  0  0  0  0  0
    1.8455   -0.7713   -2.5549 O   0  0  0  0  0  0  0  0  0  0  0  0
    0.3188    0.5264   -0.6621 C   0  0  0  0  0  0  0  0  0  0  0  0
   -0.6507    1.5498    0.5173 S   0  0  0  0  0  0  0  0  0  0  0  0
   -1.5506   -0.0585   -2.5433 H   0  0  0  0  0  0  0  0  0  0  0  0
    0.5842    2.0526   -2.1740 H   0  0  0  0  0  0  0  0  0  0  0  0
   -0.0372   -0.5050   -0.6168 H   0  0  0  0  0  0  0  0  0  0  0  0
    1.3633    0.5305   -0.3323 H   0  0  0  0  0  0  0  0  0  0  0  0
    1.2663    0.4338   -4.3565 N   0  0  0  0  0  0  0  0  0  0  0  0
    2.1926   -0.2118   -5.2956 C   0  0  2  0  0  0  0  0  0  0  0  0
    2.5495    0.7208   -6.4719 C   0  0  0  0  0  0  0  0  0  0  0  0
    1.8595    1.7058   -6.7089 O   0  0  0  0  0  0  0  0  0  0  0  0
    1.5469   -1.5008   -5.8142 C   0  0  0  0  0  0  0  0  0  0  0  0
    0.7524    1.2478   -4.6975 H   0  0  0  0  0  0  0  0  0  0  0  0
    3.1257   -0.4577   -4.7778 H   0  0  0  0  0  0  0  0  0  0  0  0
    0.6126   -1.2762   -6.3389 H   0  0  0  0  0  0  0  0  0  0  0  0
    2.2202   -2.0159   -6.5062 H   0  0  0  0  0  0  0  0  0  0  0  0
    1.3257   -2.1768   -4.9822 H   0  0  0  0  0  0  0  0  0  0  0  0
    3.6528    0.4600   -7.2638 N   0  0  0  0  0  0  0  0  0  0  0  0
    4.0624    1.3161   -8.3707 C   0  0  0  0  0  0  0  0  0  0  0  0
    4.2236   -0.3464   -7.0279 H   0  0  0  0  0  0  0  0  0  0  0  0
    3.2685    1.3772   -9.1227 H   0  0  0  0  0  0  0  0  0  0  0  0
    4.2860    2.3263   -8.0116 H   0  0  0  0  0  0  0  0  0  0  0  0
    4.9603    0.9130   -8.8489 H   0  0  0  0  0  0  0  0  0  0  0  0
  1  2  2  0  0  0  0
  1  3  1  0  0  0  0
  1  7  1  0  0  0  0
  3  4  1  0  0  0  0
  3  5  1  0  0  0  0
  3  6  1  0  0  0  0
  7  8  1  0  0  0  0
  7 13  1  0  0  0  0
  8  9  1  0  0  0  0
  8 11  1  0  0  0  0
  8 14  1  0  0  0  0
  9 10  2  0  0  0  0
  9 17  1  0  0  0  0
 11 12  1  0  0  0  0
 11 15  1  0  0  0  0
 11 16  1  0  0  0  0
 12 44  1  0  0  0  0
 17 18  1  0  0  0  0
 17 19  1  0  0  0  0
 18 20  1  0  0  0  0
 18 21  1  0  0  0  0
 18 22  1  0  0  0  0
 23 24  2  0  0  0  0
 23 25  1  0  0  0  0
 23 29  1  0  0  0  0
 25 26  1  0  0  0  0
 25 27  1  0  0  0  0
 25 28  1  0  0  0  0
 29 30  1  0  0  0  0
 29 34  1  0  0  0  0
 30 31  1  0  0  0  0
 30 33  1  0  0  0  0
 30 35  1  0  0  0  0
 31 32  2  0  0  0  0
 31 39  1  0  0  0  0
 33 36  1  0  0  0  0
 33 37  1  0  0  0  0
 33 38  1  0  0  0  0
 39 40  1  0  0  0  0
 39 45  1  0  0  0  0
 40 41  1  0  0  0  0
 40 43  1  0  0  0  0
 40 46  1  0  0  0  0
 41 42  2  0  0  0  0
 41 49  1  0  0  0  0
 43 44  1  0  0  0  0
 43 47  1  0  0  0  0
 43 48  1  0  0  0  0
 49 50  1  0  0  0  0
 49 54  1  0  0  0  0
 50 51  1  0  0  0  0
 50 53  1  0  0  0  0
 50 55  1  0  0  0  0
 51 52  2  0  0  0  0
 51 59  1  0  0  0  0
 53 56  1  0  0  0  0
 53 57  1  0  0  0  0
 53 58  1  0  0  0  0
 59 60  1  0  0  0  0
 59 61  1  0  0  0  0
 60 62  1  0  0  0  0
 60 63  1  0  0  0  0
 60 64  1  0  0  0  0
M  END
$$$$

  -OEChem-05262216053D

 64 63  0     1  0  0  0  0  0999 V2000
   -1.6346   -2.0366    5.1745 C   0  0  0  0  0  0  0  0  0  0  0  0
   -2.7523   -2.2680    4.7407 O   0  0  0  0  0  0  0  0  0  0  0  0
   -1.4600   -1.4054    6.5424 C   0  0  0  0  0  0  0  0  0  0  0  0
   -0.8878   -0.4789    6.4533 H   0  0  0  0  0  0  0  0  0  0  0  0
   -2.4356   -1.1757    6.9792 H   0  0  0  0  0  0  0  0  0  0  0  0
   -0.9286   -2.0920    7.2054 H   0  0  0  0  0  0  0  0  0  0  0  0
   -0.5283   -2.3515    4.4170 N   0  0  0  0  0  0  0  0  0  0  0  0
   -0.5715   -2.9549    3.0774 C   0  0  2  0  0  0  0  0  0  0  0  0
    0.7546   -3.6647    2.7261 C   0  0  0  0  0  0  0  0  0  0  0  0
    1.7128   -3.6007    3.4896 O   0  0  0  0  0  0  0  0  0  0  0  0
   -0.9033   -1.8712    2.0390 C   0  0  0  0  0  0  0  0  0  0  0  0
    0.3511   -0.5268    2.0513 S   0  0  0  0  0  0  0  0  0  0  0  0
    0.3933   -2.1875    4.8209 H   0  0  0  0  0  0  0  0  0  0  0  0
   -1.3574   -3.7172    3.0548 H   0  0  0  0  0  0  0  0  0  0  0  0
   -0.9528   -2.3134    1.0403 H   0  0  0  0  0  0  0  0  0  0  0  0
   -1.8875   -1.4442    2.2578 H   0  0  0  0  0  0  0  0  0  0  0  0
    0.8670   -4.4136    1.5677 N   0  0  0  0  0  0  0  0  0  0  0  0
    2.0989   -5.0810    1.1650 C   0  0  0  0  0  0  0  0  0  0  0  0
    0.0626   -4.4533    0.9492 H   0  0  0  0  0  0  0  0  0  0  0  0
    2.8932   -4.3464    0.9962 H   0  0  0  0  0  0  0  0  0  0  0  0
    2.4261   -5.7836    1.9387 H   0  0  0  0  0  0  0  0  0  0  0  0
    1.9411   -5.6395    0.2375 H   0  0  0  0  0  0  0  0  0  0  0  0
   -5.3818    1.0906   -0.8675 C   0  0  0  0  0  0  0  0  0  0  0  0
   -5.7188   -0.0363   -1.1962 O   0  0  0  0  0  0  0  0  0  0  0  0
   -6.0786    1.7874    0.2854 C   0  0  0  0  0  0  0  0  0  0  0  0
   -6.4554    2.7603   -0.0389 H   0  0  0  0  0  0  0  0  0  0  0  0
   -6.9197    1.1840    0.6383 H   0  0  0  0  0  0  0  0  0  0  0  0
   -5.3770    1.9320    1.1106 H   0  0  0  0  0  0  0  0  0  0  0  0
   -4.3611    1.7291   -1.5405 N   0  0  0  0  0  0  0  0  0  0  0  0
   -3.5023    1.0822   -2.5404 C   0  0  2  0  0  0  0  0  0  0  0  0
   -2.0180    1.4297   -2.3147 C   0  0  0  0  0  0  0  0  0  0  0  0
   -1.7078    2.5196   -1.8495 O   0  0  0  0  0  0  0  0  0  0  0  0
   -3.9571    1.5383   -3.9286 C   0  0  0  0  0  0  0  0  0  0  0  0
   -4.0229    2.6066   -1.1463 H   0  0  0  0  0  0  0  0  0  0  0  0
   -3.5977   -0.0065   -2.4728 H   0  0  0  0  0  0  0  0  0  0  0  0
   -3.8660    2.6253   -4.0230 H   0  0  0  0  0  0  0  0  0  0  0  0
   -3.3473    1.0686   -4.7064 H   0  0  0  0  0  0  0  0  0  0  0  0
   -5.0028    1.2601   -4.0936 H   0  0  0  0  0  0  0  0  0  0  0  0
   -1.0276    0.5412   -2.6922 N   0  0  0  0  0  0  0  0  0  0  0  0
    0.3767    0.6367   -2.2555 C   0  0  2  0  0  0  0  0  0  0  0  0
    1.3030    0.0589   -3.3460 C   0  0  0  0  0  0  0  0  0  0  0  0
    1.7745   -1.0694   -3.2591 O   0  0  0  0  0  0  0  0  0  0  0  0
    0.5828   -0.1135   -0.9226 C   0  0  0  0  0  0  0  0  0  0  0  0
   -0.3418    0.6450    0.4730 S   0  0  0  0  0  0  0  0  0  0  0  0
   -1.3477   -0.3628   -3.0293 H   0  0  0  0  0  0  0  0  0  0  0  0
    0.6591    1.6849   -2.1073 H   0  0  0  0  0  0  0  0  0  0  0  0
    0.2741   -1.1574   -1.0336 H   0  0  0  0  0  0  0  0  0  0  0  0
    1.6483   -0.1105   -0.6709 H   0  0  0  0  0  0  0  0  0  0  0  0
    1.5396    0.7969   -4.4893 N   0  0  0  0  0  0  0  0  0  0  0  0
    2.4591    0.4129   -5.5680 C   0  0  2  0  0  0  0  0  0  0  0  0
    3.0453    1.6541   -6.2751 C   0  0  0  0  0  0  0  0  0  0  0  0
    2.5720    2.7639   -6.0582 O   0  0  0  0  0  0  0  0  0  0  0  0
    1.6979   -0.4647   -6.5673 C   0  0  0  0  0  0  0  0  0  0  0  0
    1.1934    1.7576   -4.5049 H   0  0  0  0  0  0  0  0  0  0  0  0
    3.2983   -0.1544   -5.1514 H   0  0  0  0  0  0  0  0  0  0  0  0
    0.8577    0.0881   -7.0000 H   0  0  0  0  0  0  0  0  0  0  0  0
    2.3582   -0.7857   -7.3784 H   0  0  0  0  0  0  0  0  0  0  0  0
    1.3077   -1.3573   -6.0684 H   0  0  0  0  0  0  0  0  0  0  0  0
    4.1105    1.5317   -7.1485 N   0  0  0  0  0  0  0  0  0  0  0  0
    4.7256    2.6688   -7.8239 C   0  0  0  0  0  0  0  0  0  0  0  0
    4.5004    0.6047   -7.2917 H   0  0  0  0  0  0  0  0  0  0  0  0
    3.9781    3.2240   -8.4007 H   0  0  0  0  0  0  0  0  0  0  0  0
    5.1821    3.3468   -7.0950 H   0  0  0  0  0  0  0  0  0  0  0  0
    5.5043    2.3250   -8.5115 H   0  0  0  0  0  0  0  0  0  0  0  0
  1  2  2  0  0  0  0
  1  3  1  0  0  0  0
  1  7  1  0  0  0  0
  3  4  1  0  0  0  0
  3  5  1  0  0  0  0
  3  6  1  0  0  0  0
  7  8  1  0  0  0  0
  7 13  1  0  0  0  0
  8  9  1  0  0  0  0
  8 11  1  0  0  0  0
  8 14  1  0  0  0  0
  9 10  2  0  0  0  0
  9 17  1  0  0  0  0
 11 12  1  0  0  0  0
 11 15  1  0  0  0  0
 11 16  1  0  0  0  0
 12 44  1  0  0  0  0
 17 18  1  0  0  0  0
 17 19  1  0  0  0  0
 18 20  1  0  0  0  0
 18 21  1  0  0  0  0
 18 22  1  0  0  0  0
 23 24  2  0  0  0  0
 23 25  1  0  0  0  0
 23 29  1  0  0  0  0
 25 26  1  0  0  0  0
 25 27  1  0  0  0  0
 25 28  1  0  0  0  0
 29 30  1  0  0  0  0
 29 34  1  0  0  0  0
 30 31  1  0  0  0  0
 30 33  1  0  0  0  0
 30 35  1  0  0  0  0
 31 32  2  0  0  0  0
 31 39  1  0  0  0  0
 33 36  1  0  0  0  0
 33 37  1  0  0  0  0
 33 38  1  0  0  0  0
 39 40  1  0  0  0  0
 39 45  1  0  0  0  0
 40 41  1  0  0  0  0
 40 43  1  0  0  0  0
 40 46  1  0  0  0  0
 41 42  2  0  0  0  0
 41 49  1  0  0  0  0
 43 44  1  0  0  0  0
 43 47  1  0  0  0  0
 43 48  1  0  0  0  0
 49 50  1  0  0  0  0
 49 54  1  0  0  0  0
 50 51  1  0  0  0  0
 50 53  1  0  0  0  0
 50 55  1  0  0  0  0
 51 52  2  0  0  0  0
 51 59  1  0  0  0  0
 53 56  1  0  0  0  0
 53 57  1  0  0  0  0
 53 58  1  0  0  0  0
 59 60  1  0  0  0  0
 59 61  1  0  0  0  0
 60 62  1  0  0  0  0
 60 63  1  0  0  0  0
 60 64  1  0  0  0  0
M  END
$$$$

  -OEChem-05262216053D

 64 63  0     1  0  0  0  0  0999 V2000
   -1.7121   -2.0765    5.1199 C   0  0  0  0  0  0  0  0  0  0  0  0
   -2.8213   -2.2903    4.6564 O   0  0  0  0  0  0  0  0  0  0  0  0
   -1.5649   -1.5135    6.5204 C   0  0  0  0  0  0  0  0  0  0  0  0
   -1.0107   -0.5725    6.4852 H   0  0  0  0  0  0  0  0  0  0  0  0
   -2.5499   -1.3260    6.9571 H   0  0  0  0  0  0  0  0  0  0  0  0
   -1.0265   -2.2226    7.1539 H   0  0  0  0  0  0  0  0  0  0  0  0
   -0.5915   -2.3456    4.3658 N   0  0  0  0  0  0  0  0  0  0  0  0
   -0.6096   -2.8887    3.0004 C   0  0  2  0  0  0  0  0  0  0  0  0
    0.7204   -3.5886    2.6437 C   0  0  0  0  0  0  0  0  0  0  0  0
    1.6551   -3.5846    3.4386 O   0  0  0  0  0  0  0  0  0  0  0  0
   -0.9190   -1.7569    2.0075 C   0  0  0  0  0  0  0  0  0  0  0  0
    0.3567   -0.4338    2.0747 S   0  0  0  0  0  0  0  0  0  0  0  0
    0.3215   -2.2063    4.7971 H   0  0  0  0  0  0  0  0  0  0  0  0
   -1.3974   -3.6461    2.9280 H   0  0  0  0  0  0  0  0  0  0  0  0
   -0.9729   -2.1575    0.9915 H   0  0  0  0  0  0  0  0  0  0  0  0
   -1.8966   -1.3223    2.2411 H   0  0  0  0  0  0  0  0  0  0  0  0
    0.8633   -4.2636    1.4439 N   0  0  0  0  0  0  0  0  0  0  0  0
    2.0994   -4.9254    1.0434 C   0  0  0  0  0  0  0  0  0  0  0  0
    0.0776   -4.2595    0.8003 H   0  0  0  0  0  0  0  0  0  0  0  0
    2.9193   -4.2016    0.9859 H   0  0  0  0  0  0  0  0  0  0  0  0
    2.3681   -5.7054    1.7638 H   0  0  0  0  0  0  0  0  0  0  0  0
    1.9790   -5.3901    0.0601 H   0  0  0  0  0  0  0  0  0  0  0  0
   -5.3124    1.0764   -0.7718 C   0  0  0  0  0  0  0  0  0  0  0  0
   -5.6297   -0.0760   -1.0225 O   0  0  0  0  0  0  0  0  0  0  0  0
   -5.9880    1.8243    0.3614 C   0  0  0  0  0  0  0  0  0  0  0  0
   -6.4649    2.7296   -0.0217 H   0  0  0  0  0  0  0  0  0  0  0  0
   -6.7506    1.1942    0.8275 H   0  0  0  0  0  0  0  0  0  0  0  0
   -5.2495    2.1016    1.1176 H   0  0  0  0  0  0  0  0  0  0  0  0
   -4.3337    1.7007   -1.5161 N   0  0  0  0  0  0  0  0  0  0  0  0
   -3.4790    1.0145   -2.4931 C   0  0  2  0  0  0  0  0  0  0  0  0
   -2.0005    1.4135   -2.3183 C   0  0  0  0  0  0  0  0  0  0  0  0
   -1.7112    2.5298   -1.9040 O   0  0  0  0  0  0  0  0  0  0  0  0
   -3.9750    1.3683   -3.8967 C   0  0  0  0  0  0  0  0  0  0  0  0
   -4.0070    2.6069   -1.1819 H   0  0  0  0  0  0  0  0  0  0  0  0
   -3.5429   -0.0698   -2.3558 H   0  0  0  0  0  0  0  0  0  0  0  0
   -3.9086    2.4480   -4.0659 H   0  0  0  0  0  0  0  0  0  0  0  0
   -3.3735    0.8582   -4.6556 H   0  0  0  0  0  0  0  0  0  0  0  0
   -5.0188    1.0600   -4.0162 H   0  0  0  0  0  0  0  0  0  0  0  0
   -0.9925    0.5320   -2.6634 N   0  0  0  0  0  0  0  0  0  0  0  0
    0.4119    0.6787   -2.2425 C   0  0  2  0  0  0  0  0  0  0  0  0
    1.3457    0.0749   -3.3098 C   0  0  0  0  0  0  0  0  0  0  0  0
    1.6080   -1.1228   -3.3131 O   0  0  0  0  0  0  0  0  0  0  0  0
    0.6504   -0.0193   -0.8880 C   0  0  0  0  0  0  0  0  0  0  0  0
   -0.2815    0.7611    0.4905 S   0  0  0  0  0  0  0  0  0  0  0  0
   -1.2903   -0.3928   -2.9638 H   0  0  0  0  0  0  0  0  0  0  0  0
    0.6702    1.7380   -2.1354 H   0  0  0  0  0  0  0  0  0  0  0  0
    0.3650   -1.0733   -0.9612 H   0  0  0  0  0  0  0  0  0  0  0  0
    1.7180    0.0170   -0.6474 H   0  0  0  0  0  0  0  0  0  0  0  0
    1.8168    0.8690   -4.3371 N   0  0  0  0  0  0  0  0  0  0  0  0
    2.7723    0.4365   -5.3647 C   0  0  2  0  0  0  0  0  0  0  0  0
    3.6573    1.6096   -5.8375 C   0  0  0  0  0  0  0  0  0  0  0  0
    3.3580    2.7610   -5.5417 O   0  0  0  0  0  0  0  0  0  0  0  0
    1.9868   -0.1524   -6.5406 C   0  0  0  0  0  0  0  0  0  0  0  0
    1.6357    1.8722   -4.2765 H   0  0  0  0  0  0  0  0  0  0  0  0
    3.4365   -0.3303   -4.9523 H   0  0  0  0  0  0  0  0  0  0  0  0
    1.3215    0.6017   -6.9729 H   0  0  0  0  0  0  0  0  0  0  0  0
    2.6679   -0.5035   -7.3212 H   0  0  0  0  0  0  0  0  0  0  0  0
    1.3811   -1.0003   -6.2061 H   0  0  0  0  0  0  0  0  0  0  0  0
    4.7955    1.3768   -6.5875 N   0  0  0  0  0  0  0  0  0  0  0  0
    5.6754    2.4409   -7.0567 C   0  0  0  0  0  0  0  0  0  0  0  0
    5.0299    0.4127   -6.8047 H   0  0  0  0  0  0  0  0  0  0  0  0
    5.1265    3.1364   -7.7004 H   0  0  0  0  0  0  0  0  0  0  0  0
    6.0895    2.9977   -6.2094 H   0  0  0  0  0  0  0  0  0  0  0  0
    6.5050    2.0198   -7.6328 H   0  0  0  0  0  0  0  0  0  0  0  0
  1  2  2  0  0  0  0
  1  3  1  0  0  0  0
  1  7  1  0  0  0  0
  3  4  1  0  0  0  0
  3  5  1  0  0  0  0
  3  6  1  0  0  0  0
  7  8  1  0  0  0  0
  7 13  1  0  0  0  0
  8  9  1  0  0  0  0
  8 11  1  0  0  0  0
  8 14  1  0  0  0  0
  9 10  2  0  0  0  0
  9 17  1  0  0  0  0
 11 12  1  0  0  0  0
 11 15  1  0  0  0  0
 11 16  1  0  0  0  0
 12 44  1  0  0  0  0
 17 18  1  0  0  0  0
 17 19  1  0  0  0  0
 18 20  1  0  0  0  0
 18 21  1  0  0  0  0
 18 22  1  0  0  0  0
 23 24  2  0  0  0  0
 23 25  1  0  0  0  0
 23 29  1  0  0  0  0
 25 26  1  0  0  0  0
 25 27  1  0  0  0  0
 25 28  1  0  0  0  0
 29 30  1  0  0  0  0
 29 34  1  0  0  0  0
 30 31  1  0  0  0  0
 30 33  1  0  0  0  0
 30 35  1  0  0  0  0
 31 32  2  0  0  0  0
 31 39  1  0  0  0  0
 33 36  1  0  0  0  0
 33 37  1  0  0  0  0
 33 38  1  0  0  0  0
 39 40  1  0  0  0  0
 39 45  1  0  0  0  0
 40 41  1  0  0  0  0
 40 43  1  0  0  0  0
 40 46  1  0  0  0  0
 41 42  2  0  0  0  0
 41 49  1  0  0  0  0
 43 44  1  0  0  0  0
 43 47  1  0  0  0  0
 43 48  1  0  0  0  0
 49 50  1  0  0  0  0
 49 54  1  0  0  0  0
 50 51  1  0  0  0  0
 50 53  1  0  0  0  0
 50 55  1  0  0  0  0
 51 52  2  0  0  0  0
 51 59  1  0  0  0  0
 53 56  1  0  0  0  0
 53 57  1  0  0  0  0
 53 58  1  0  0  0  0
 59 60  1  0  0  0  0
 59 61  1  0  0  0  0
 60 62  1  0  0  0  0
 60 63  1  0  0  0  0
 60 64  1  0  0  0  0
M  END
$$$$

  -OEChem-05262216053D

 64 63  0     1  0  0  0  0  0999 V2000
   -1.7115   -2.0492    5.1123 C   0  0  0  0  0  0  0  0  0  0  0  0
   -2.8244   -2.2340    4.6450 O   0  0  0  0  0  0  0  0  0  0  0  0
   -1.5529   -1.4966    6.5160 C   0  0  0  0  0  0  0  0  0  0  0  0
   -0.9636   -0.5766    6.4895 H   0  0  0  0  0  0  0  0  0  0  0  0
   -2.5330   -1.2740    6.9472 H   0  0  0  0  0  0  0  0  0  0  0  0
   -1.0459   -2.2287    7.1493 H   0  0  0  0  0  0  0  0  0  0  0  0
   -0.5964   -2.3458    4.3605 N   0  0  0  0  0  0  0  0  0  0  0  0
   -0.6255   -2.8830    2.9928 C   0  0  2  0  0  0  0  0  0  0  0  0
    0.6967   -3.5915    2.6245 C   0  0  0  0  0  0  0  0  0  0  0  0
    1.6308   -3.6119    3.4196 O   0  0  0  0  0  0  0  0  0  0  0  0
   -0.9290   -1.7464    2.0032 C   0  0  0  0  0  0  0  0  0  0  0  0
    0.3500   -0.4268    2.0841 S   0  0  0  0  0  0  0  0  0  0  0  0
    0.3188   -2.2335    4.7951 H   0  0  0  0  0  0  0  0  0  0  0  0
   -1.4196   -3.6337    2.9228 H   0  0  0  0  0  0  0  0  0  0  0  0
   -0.9790   -2.1421    0.9851 H   0  0  0  0  0  0  0  0  0  0  0  0
   -1.9069   -1.3111    2.2331 H   0  0  0  0  0  0  0  0  0  0  0  0
    0.8338   -4.2406    1.4097 N   0  0  0  0  0  0  0  0  0  0  0  0
    2.0640   -4.9028    0.9927 C   0  0  0  0  0  0  0  0  0  0  0  0
    0.0495   -4.2111    0.7649 H   0  0  0  0  0  0  0  0  0  0  0  0
    2.8894   -4.1842    0.9473 H   0  0  0  0  0  0  0  0  0  0  0  0
    2.3278   -5.6993    1.6966 H   0  0  0  0  0  0  0  0  0  0  0  0
    1.9375   -5.3463    0.0003 H   0  0  0  0  0  0  0  0  0  0  0  0
   -5.3110    1.0964   -0.7823 C   0  0  0  0  0  0  0  0  0  0  0  0
   -5.6436   -0.0531   -1.0263 O   0  0  0  0  0  0  0  0  0  0  0  0
   -5.9861    1.8648    0.3380 C   0  0  0  0  0  0  0  0  0  0  0  0
   -6.4818    2.7517   -0.0635 H   0  0  0  0  0  0  0  0  0  0  0  0
   -6.7330    1.2360    0.8306 H   0  0  0  0  0  0  0  0  0  0  0  0
   -5.2430    2.1736    1.0771 H   0  0  0  0  0  0  0  0  0  0  0  0
   -4.3116    1.6955   -1.5199 N   0  0  0  0  0  0  0  0  0  0  0  0
   -3.4550    0.9813   -2.4751 C   0  0  2  0  0  0  0  0  0  0  0  0
   -1.9797    1.3996   -2.3217 C   0  0  0  0  0  0  0  0  0  0  0  0
   -1.6996    2.5227   -1.9194 O   0  0  0  0  0  0  0  0  0  0  0  0
   -3.9572    1.2788   -3.8893 C   0  0  0  0  0  0  0  0  0  0  0  0
   -3.9706    2.5978   -1.1893 H   0  0  0  0  0  0  0  0  0  0  0  0
   -3.5087   -0.0978   -2.2959 H   0  0  0  0  0  0  0  0  0  0  0  0
   -3.9001    2.3518   -4.0985 H   0  0  0  0  0  0  0  0  0  0  0  0
   -3.3536    0.7462   -4.6302 H   0  0  0  0  0  0  0  0  0  0  0  0
   -4.9981    0.9574   -3.9959 H   0  0  0  0  0  0  0  0  0  0  0  0
   -0.9649    0.5200   -2.6498 N   0  0  0  0  0  0  0  0  0  0  0  0
    0.4375    0.6839   -2.2320 C   0  0  2  0  0  0  0  0  0  0  0  0
    1.3801    0.0690   -3.2834 C   0  0  0  0  0  0  0  0  0  0  0  0
    1.4424   -1.1486   -3.4170 O   0  0  0  0  0  0  0  0  0  0  0  0
    0.6795   -0.0060   -0.8758 C   0  0  0  0  0  0  0  0  0  0  0  0
   -0.2637    0.7742    0.4951 S   0  0  0  0  0  0  0  0  0  0  0  0
   -1.2503   -0.4082   -2.9527 H   0  0  0  0  0  0  0  0  0  0  0  0
    0.6858    1.7466   -2.1343 H   0  0  0  0  0  0  0  0  0  0  0  0
    0.4013   -1.0622   -0.9461 H   0  0  0  0  0  0  0  0  0  0  0  0
    1.7459    0.0389   -0.6324 H   0  0  0  0  0  0  0  0  0  0  0  0
    2.0988    0.8809   -4.1395 N   0  0  0  0  0  0  0  0  0  0  0  0
    3.0810    0.4033   -5.1218 C   0  0  2  0  0  0  0  0  0  0  0  0
    4.2051    1.4373   -5.3472 C   0  0  0  0  0  0  0  0  0  0  0  0
    4.0883    2.5762   -4.9093 O   0  0  0  0  0  0  0  0  0  0  0  0
    2.3490    0.1096   -6.4355 C   0  0  0  0  0  0  0  0  0  0  0  0
    2.0829    1.8863   -3.9623 H   0  0  0  0  0  0  0  0  0  0  0  0
    3.5517   -0.5153   -4.7556 H   0  0  0  0  0  0  0  0  0  0  0  0
    1.8793    1.0201   -6.8221 H   0  0  0  0  0  0  0  0  0  0  0  0
    3.0459   -0.2703   -7.1887 H   0  0  0  0  0  0  0  0  0  0  0  0
    1.5710   -0.6443   -6.2771 H   0  0  0  0  0  0  0  0  0  0  0  0
    5.3574    1.0878   -6.0273 N   0  0  0  0  0  0  0  0  0  0  0  0
    6.4605    2.0127   -6.2610 C   0  0  0  0  0  0  0  0  0  0  0  0
    5.4342    0.1346   -6.3698 H   0  0  0  0  0  0  0  0  0  0  0  0
    6.1221    2.8744   -6.8460 H   0  0  0  0  0  0  0  0  0  0  0  0
    6.8685    2.3706   -5.3099 H   0  0  0  0  0  0  0  0  0  0  0  0
    7.2617    1.5138   -6.8149 H   0  0  0  0  0  0  0  0  0  0  0  0
  1  2  2  0  0  0  0
  1  3  1  0  0  0  0
  1  7  1  0  0  0  0
  3  4  1  0  0  0  0
  3  5  1  0  0  0  0
  3  6  1  0  0  0  0
  7  8  1  0  0  0  0
  7 13  1  0  0  0  0
  8  9  1  0  0  0  0
  8 11  1  0  0  0  0
  8 14  1  0  0  0  0
  9 10  2  0  0  0  0
  9 17  1  0  0  0  0
 11 12  1  0  0  0  0
 11 15  1  0  0  0  0
 11 16  1  0  0  0  0
 12 44  1  0  0  0  0
 17 18  1  0  0  0  0
 17 19  1  0  0  0  0
 18 20  1  0  0  0  0
 18 21  1  0  0  0  0
 18 22  1  0  0  0  0
 23 24  2  0  0  0  0
 23 25  1  0  0  0  0
 23 29  1  0  0  0  0
 25 26  1  0  0  0  0
 25 27  1  0  0  0  0
 25 28  1  0  0  0  0
 29 30  1  0  0  0  0
 29 34  1  0  0  0  0
 30 31  1  0  0  0  0
 30 33  1  0  0  0  0
 30 35  1  0  0  0  0
 31 32  2  0  0  0  0
 31 39  1  0  0  0  0
 33 36  1  0  0  0  0
 33 37  1  0  0  0  0
 33 38  1  0  0  0  0
 39 40  1  0  0  0  0
 39 45  1  0  0  0  0
 40 41  1  0  0  0  0
 40 43  1  0  0  0  0
 40 46  1  0  0  0  0
 41 42  2  0  0  0  0
 41 49  1  0  0  0  0
 43 44  1  0  0  0  0
 43 47  1  0  0  0  0
 43 48  1  0  0  0  0
 49 50  1  0  0  0  0
 49 54  1  0  0  0  0
 50 51  1  0  0  0  0
 50 53  1  0  0  0  0
 50 55  1  0  0  0  0
 51 52  2  0  0  0  0
 51 59  1  0  0  0  0
 53 56  1  0  0  0  0
 53 57  1  0  0  0  0
 53 58  1  0  0  0  0
 59 60  1  0  0  0  0
 59 61  1  0  0  0  0
 60 62  1  0  0  0  0
 60 63  1  0  0  0  0
 60 64  1  0  0  0  0
M  END
$$$$

  -OEChem-05262216053D

 64 63  0     1  0  0  0  0  0999 V2000
   -1.6938   -2.0308    5.1097 C   0  0  0  0  0  0  0  0  0  0  0  0
   -2.8107   -2.2072    4.6491 O   0  0  0  0  0  0  0  0  0  0  0  0
   -1.5241   -1.4805    6.5128 C   0  0  0  0  0  0  0  0  0  0  0  0
   -0.9079   -0.5785    6.4869 H   0  0  0  0  0  0  0  0  0  0  0  0
   -2.4989   -1.2280    6.9394 H   0  0  0  0  0  0  0  0  0  0  0  0
   -1.0422   -2.2256    7.1504 H   0  0  0  0  0  0  0  0  0  0  0  0
   -0.5853   -2.3343    4.3508 N   0  0  0  0  0  0  0  0  0  0  0  0
   -0.6269   -2.8610    2.9797 C   0  0  2  0  0  0  0  0  0  0  0  0
    0.6816   -3.5894    2.6025 C   0  0  0  0  0  0  0  0  0  0  0  0
    1.6283   -3.6080    3.3825 O   0  0  0  0  0  0  0  0  0  0  0  0
   -0.9106   -1.7106    2.0012 C   0  0  0  0  0  0  0  0  0  0  0  0
    0.3978   -0.4209    2.0887 S   0  0  0  0  0  0  0  0  0  0  0  0
    0.3338   -2.2196    4.7760 H   0  0  0  0  0  0  0  0  0  0  0  0
   -1.4346   -3.5963    2.9041 H   0  0  0  0  0  0  0  0  0  0  0  0
   -0.9742   -2.0966    0.9800 H   0  0  0  0  0  0  0  0  0  0  0  0
   -1.8774   -1.2553    2.2398 H   0  0  0  0  0  0  0  0  0  0  0  0
    0.7934   -4.2555    1.3945 N   0  0  0  0  0  0  0  0  0  0  0  0
    2.0062   -4.9447    0.9707 C   0  0  0  0  0  0  0  0  0  0  0  0
   -0.0063   -4.2397    0.7686 H   0  0  0  0  0  0  0  0  0  0  0  0
    2.8500   -4.2475    0.9344 H   0  0  0  0  0  0  0  0  0  0  0  0
    2.2486   -5.7564    1.6646 H   0  0  0  0  0  0  0  0  0  0  0  0
    1.8696   -5.3724   -0.0272 H   0  0  0  0  0  0  0  0  0  0  0  0
   -5.3096    1.1071   -0.8056 C   0  0  0  0  0  0  0  0  0  0  0  0
   -5.6502   -0.0408   -1.0449 O   0  0  0  0  0  0  0  0  0  0  0  0
   -5.9863    1.8869    0.3057 C   0  0  0  0  0  0  0  0  0  0  0  0
   -6.4644    2.7797   -0.1036 H   0  0  0  0  0  0  0  0  0  0  0  0
   -6.7477    1.2700    0.7911 H   0  0  0  0  0  0  0  0  0  0  0  0
   -5.2481    2.1870    1.0535 H   0  0  0  0  0  0  0  0  0  0  0  0
   -4.2999    1.6939   -1.5389 N   0  0  0  0  0  0  0  0  0  0  0  0
   -3.4333    0.9657   -2.4743 C   0  0  2  0  0  0  0  0  0  0  0  0
   -1.9587    1.3782   -2.3009 C   0  0  0  0  0  0  0  0  0  0  0  0
   -1.6798    2.5025   -1.9007 O   0  0  0  0  0  0  0  0  0  0  0  0
   -3.9106    1.2527   -3.8991 C   0  0  0  0  0  0  0  0  0  0  0  0
   -3.9587    2.5983   -1.2140 H   0  0  0  0  0  0  0  0  0  0  0  0
   -3.4953   -0.1113   -2.2861 H   0  0  0  0  0  0  0  0  0  0  0  0
   -3.8629    2.3257   -4.1099 H   0  0  0  0  0  0  0  0  0  0  0  0
   -3.2849    0.7262   -4.6259 H   0  0  0  0  0  0  0  0  0  0  0  0
   -4.9448    0.9175   -4.0257 H   0  0  0  0  0  0  0  0  0  0  0  0
   -0.9429    0.4953   -2.6156 N   0  0  0  0  0  0  0  0  0  0  0  0
    0.4640    0.6722   -2.2209 C   0  0  2  0  0  0  0  0  0  0  0  0
    1.3958    0.0316   -3.2650 C   0  0  0  0  0  0  0  0  0  0  0  0
    1.2779   -1.1584   -3.5380 O   0  0  0  0  0  0  0  0  0  0  0  0
    0.7295    0.0062   -0.8594 C   0  0  0  0  0  0  0  0  0  0  0  0
   -0.1968    0.8034    0.5121 S   0  0  0  0  0  0  0  0  0  0  0  0
   -1.2203   -0.4304   -2.9344 H   0  0  0  0  0  0  0  0  0  0  0  0
    0.7090    1.7377   -2.1514 H   0  0  0  0  0  0  0  0  0  0  0  0
    0.4553   -1.0520   -0.9101 H   0  0  0  0  0  0  0  0  0  0  0  0
    1.7987    0.0603   -0.6310 H   0  0  0  0  0  0  0  0  0  0  0  0
    2.3286    0.7955   -3.9389 N   0  0  0  0  0  0  0  0  0  0  0  0
    3.3275    0.2645   -4.8750 C   0  0  2  0  0  0  0  0  0  0  0  0
    4.6306    1.0912   -4.8338 C   0  0  0  0  0  0  0  0  0  0  0  0
    4.6595    2.1605   -4.2347 O   0  0  0  0  0  0  0  0  0  0  0  0
    2.7230    0.2757   -6.2825 C   0  0  0  0  0  0  0  0  0  0  0  0
    2.4639    1.7587   -3.6283 H   0  0  0  0  0  0  0  0  0  0  0  0
    3.5849   -0.7636   -4.5991 H   0  0  0  0  0  0  0  0  0  0  0  0
    2.4675    1.2977   -6.5807 H   0  0  0  0  0  0  0  0  0  0  0  0
    3.4311   -0.1329   -7.0094 H   0  0  0  0  0  0  0  0  0  0  0  0
    1.8134   -0.3326   -6.3095 H   0  0  0  0  0  0  0  0  0  0  0  0
    5.7778    0.6318   -5.4545 N   0  0  0  0  0  0  0  0  0  0  0  0
    7.0381    1.3654   -5.4457 C   0  0  0  0  0  0  0  0  0  0  0  0
    5.7309   -0.2614   -5.9363 H   0  0  0  0  0  0  0  0  0  0  0  0
    6.9144    2.3444   -5.9207 H   0  0  0  0  0  0  0  0  0  0  0  0
    7.3888    1.5143   -4.4188 H   0  0  0  0  0  0  0  0  0  0  0  0
    7.8042    0.8093   -5.9946 H   0  0  0  0  0  0  0  0  0  0  0  0
  1  2  2  0  0  0  0
  1  3  1  0  0  0  0
  1  7  1  0  0  0  0
  3  4  1  0  0  0  0
  3  5  1  0  0  0  0
  3  6  1  0  0  0  0
  7  8  1  0  0  0  0
  7 13  1  0  0  0  0
  8  9  1  0  0  0  0
  8 11  1  0  0  0  0
  8 14  1  0  0  0  0
  9 10  2  0  0  0  0
  9 17  1  0  0  0  0
 11 12  1  0  0  0  0
 11 15  1  0  0  0  0
 11 16  1  0  0  0  0
 12 44  1  0  0  0  0
 17 18  1  0  0  0  0
 17 19  1  0  0  0  0
 18 20  1  0  0  0  0
 18 21  1  0  0  0  0
 18 22  1  0  0  0  0
 23 24  2  0  0  0  0
 23 25  1  0  0  0  0
 23 29  1  0  0  0  0
 25 26  1  0  0  0  0
 25 27  1  0  0  0  0
 25 28  1  0  0  0  0
 29 30  1  0  0  0  0
 29 34  1  0  0  0  0
 30 31  1  0  0  0  0
 30 33  1  0  0  0  0
 30 35  1  0  0  0  0
 31 32  2  0  0  0  0
 31 39  1  0  0  0  0
 33 36  1  0  0  0  0
 33 37  1  0  0  0  0
 33 38  1  0  0  0  0
 39 40  1  0  0  0  0
 39 45  1  0  0  0  0
 40 41  1  0  0  0  0
 40 43  1  0  0  0  0
 40 46  1  0  0  0  0
 41 42  2  0  0  0  0
 41 49  1  0  0  0  0
 43 44  1  0  0  0  0
 43 47  1  0  0  0  0
 43 48  1  0  0  0  0
 49 50  1  0  0  0  0
 49 54  1  0  0  0  0
 50 51  1  0  0  0  0
 50 53  1  0  0  0  0
 50 55  1  0  0  0  0
 51 52  2  0  0  0  0
 51 59  1  0  0  0  0
 53 56  1  0  0  0  0
 53 57  1  0  0  0  0
 53 58  1  0  0  0  0
 59 60  1  0  0  0  0
 59 61  1  0  0  0  0
 60 62  1  0  0  0  0
 60 63  1  0  0  0  0
 60 64  1  0  0  0  0
M  END
$$$$

  -OEChem-05262216053D

 64 63  0     1  0  0  0  0  0999 V2000
   -1.6722   -2.0164    5.1030 C   0  0  0  0  0  0  0  0  0  0  0  0
   -2.7935   -2.1797    4.6483 O   0  0  0  0  0  0  0  0  0  0  0  0
   -1.4866   -1.4726    6.5068 C   0  0  0  0  0  0  0  0  0  0  0  0
   -0.9125   -0.5434    6.4731 H   0  0  0  0  0  0  0  0  0  0  0  0
   -2.4589   -1.2690    6.9641 H   0  0  0  0  0  0  0  0  0  0  0  0
   -0.9529   -2.2014    7.1216 H   0  0  0  0  0  0  0  0  0  0  0  0
   -0.5719   -2.3279    4.3357 N   0  0  0  0  0  0  0  0  0  0  0  0
   -0.6272   -2.8445    2.9611 C   0  0  2  0  0  0  0  0  0  0  0  0
    0.6626   -3.6019    2.5767 C   0  0  0  0  0  0  0  0  0  0  0  0
    1.6151   -3.6375    3.3491 O   0  0  0  0  0  0  0  0  0  0  0  0
   -0.8851   -1.6795    1.9925 C   0  0  0  0  0  0  0  0  0  0  0  0
    0.4476   -0.4149    2.0957 S   0  0  0  0  0  0  0  0  0  0  0  0
    0.3509   -2.2217    4.7549 H   0  0  0  0  0  0  0  0  0  0  0  0
   -1.4524   -3.5602    2.8813 H   0  0  0  0  0  0  0  0  0  0  0  0
   -0.9525   -2.0551    0.9678 H   0  0  0  0  0  0  0  0  0  0  0  0
   -1.8445   -1.2095    2.2324 H   0  0  0  0  0  0  0  0  0  0  0  0
    0.7481   -4.2816    1.3740 N   0  0  0  0  0  0  0  0  0  0  0  0
    1.9332   -5.0221    0.9584 C   0  0  0  0  0  0  0  0  0  0  0  0
   -0.0602   -4.2625    0.7591 H   0  0  0  0  0  0  0  0  0  0  0  0
    2.8011   -4.3563    0.9055 H   0  0  0  0  0  0  0  0  0  0  0  0
    2.1495   -5.8280    1.6677 H   0  0  0  0  0  0  0  0  0  0  0  0
    1.7770   -5.4644   -0.0303 H   0  0  0  0  0  0  0  0  0  0  0  0
   -5.3014    1.1043   -0.8030 C   0  0  0  0  0  0  0  0  0  0  0  0
   -5.6261   -0.0524   -1.0214 O   0  0  0  0  0  0  0  0  0  0  0  0
   -5.9976    1.8999    0.2850 C   0  0  0  0  0  0  0  0  0  0  0  0
   -6.4793    2.7803   -0.1475 H   0  0  0  0  0  0  0  0  0  0  0  0
   -6.7588    1.2855    0.7740 H   0  0  0  0  0  0  0  0  0  0  0  0
   -5.2700    2.2211    1.0344 H   0  0  0  0  0  0  0  0  0  0  0  0
   -4.2971    1.6913   -1.5435 N   0  0  0  0  0  0  0  0  0  0  0  0
   -3.4182    0.9604   -2.4658 C   0  0  2  0  0  0  0  0  0  0  0  0
   -1.9449    1.3715   -2.2734 C   0  0  0  0  0  0  0  0  0  0  0  0
   -1.6708    2.4930   -1.8617 O   0  0  0  0  0  0  0  0  0  0  0  0
   -3.8808    1.2466   -3.8959 C   0  0  0  0  0  0  0  0  0  0  0  0
   -3.9657    2.6025   -1.2281 H   0  0  0  0  0  0  0  0  0  0  0  0
   -3.4831   -0.1163   -2.2778 H   0  0  0  0  0  0  0  0  0  0  0  0
   -3.8350    2.3202   -4.1054 H   0  0  0  0  0  0  0  0  0  0  0  0
   -3.2456    0.7228   -4.6167 H   0  0  0  0  0  0  0  0  0  0  0  0
   -4.9128    0.9081   -4.0334 H   0  0  0  0  0  0  0  0  0  0  0  0
   -0.9255    0.4899   -2.5798 N   0  0  0  0  0  0  0  0  0  0  0  0
    0.4886    0.6781   -2.2168 C   0  0  2  0  0  0  0  0  0  0  0  0
    1.4017    0.0126   -3.2622 C   0  0  0  0  0  0  0  0  0  0  0  0
    1.1328   -1.1112   -3.6748 O   0  0  0  0  0  0  0  0  0  0  0  0
    0.7863    0.0312   -0.8529 C   0  0  0  0  0  0  0  0  0  0  0  0
   -0.1139    0.8399    0.5295 S   0  0  0  0  0  0  0  0  0  0  0  0
   -1.1902   -0.4195   -2.9533 H   0  0  0  0  0  0  0  0  0  0  0  0
    0.7314    1.7455   -2.1742 H   0  0  0  0  0  0  0  0  0  0  0  0
    0.5155   -1.0287   -0.8862 H   0  0  0  0  0  0  0  0  0  0  0  0
    1.8598    0.0920   -0.6457 H   0  0  0  0  0  0  0  0  0  0  0  0
    2.5151    0.6689   -3.7502 N   0  0  0  0  0  0  0  0  0  0  0  0
    3.5183    0.0649   -4.6374 C   0  0  2  0  0  0  0  0  0  0  0  0
    4.9295    0.6219   -4.3542 C   0  0  0  0  0  0  0  0  0  0  0  0
    5.0669    1.6059   -3.6362 O   0  0  0  0  0  0  0  0  0  0  0  0
    3.1094    0.3420   -6.0874 C   0  0  0  0  0  0  0  0  0  0  0  0
    2.7749    1.5510   -3.3066 H   0  0  0  0  0  0  0  0  0  0  0  0
    3.5573   -1.0172   -4.4728 H   0  0  0  0  0  0  0  0  0  0  0  0
    3.0805    1.4199   -6.2775 H   0  0  0  0  0  0  0  0  0  0  0  0
    3.8204   -0.1152   -6.7818 H   0  0  0  0  0  0  0  0  0  0  0  0
    2.1171   -0.0741   -6.2882 H   0  0  0  0  0  0  0  0  0  0  0  0
    6.0475    0.0125   -4.8928 N   0  0  0  0  0  0  0  0  0  0  0  0
    7.4053    0.4965   -4.6732 C   0  0  0  0  0  0  0  0  0  0  0  0
    5.9040   -0.7986   -5.4871 H   0  0  0  0  0  0  0  0  0  0  0  0
    7.5318    1.4918   -5.1121 H   0  0  0  0  0  0  0  0  0  0  0  0
    7.6253    0.5537   -3.6016 H   0  0  0  0  0  0  0  0  0  0  0  0
    8.1284   -0.1813   -5.1370 H   0  0  0  0  0  0  0  0  0  0  0  0
  1  2  2  0  0  0  0
  1  3  1  0  0  0  0
  1  7  1  0  0  0  0
  3  4  1  0  0  0  0
  3  5  1  0  0  0  0
  3  6  1  0  0  0  0
  7  8  1  0  0  0  0
  7 13  1  0  0  0  0
  8  9  1  0  0  0  0
  8 11  1  0  0  0  0
  8 14  1  0  0  0  0
  9 10  2  0  0  0  0
  9 17  1  0  0  0  0
 11 12  1  0  0  0  0
 11 15  1  0  0  0  0
 11 16  1  0  0  0  0
 12 44  1  0  0  0  0
 17 18  1  0  0  0  0
 17 19  1  0  0  0  0
 18 20  1  0  0  0  0
 18 21  1  0  0  0  0
 18 22  1  0  0  0  0
 23 24  2  0  0  0  0
 23 25  1  0  0  0  0
 23 29  1  0  0  0  0
 25 26  1  0  0  0  0
 25 27  1  0  0  0  0
 25 28  1  0  0  0  0
 29 30  1  0  0  0  0
 29 34  1  0  0  0  0
 30 31  1  0  0  0  0
 30 33  1  0  0  0  0
 30 35  1  0  0  0  0
 31 32  2  0  0  0  0
 31 39  1  0  0  0  0
 33 36  1  0  0  0  0
 33 37  1  0  0  0  0
 33 38  1  0  0  0  0
 39 40  1  0  0  0  0
 39 45  1  0  0  0  0
 40 41  1  0  0  0  0
 40 43  1  0  0  0  0
 40 46  1  0  0  0  0
 41 42  2  0  0  0  0
 41 49  1  0  0  0  0
 43 44  1  0  0  0  0
 43 47  1  0  0  0  0
 43 48  1  0  0  0  0
 49 50  1  0  0  0  0
 49 54  1  0  0  0  0
 50 51  1  0  0  0  0
 50 53  1  0  0  0  0
 50 55  1  0  0  0  0
 51 52  2  0  0  0  0
 51 59  1  0  0  0  0
 53 56  1  0  0  0  0
 53 57  1  0  0  0  0
 53 58  1  0  0  0  0
 59 60  1  0  0  0  0
 59 61  1  0  0  0  0
 60 62  1  0  0  0  0
 60 63  1  0  0  0  0
 60 64  1  0  0  0  0
M  END
$$$$

  -OEChem-05262216053D

 64 63  0     1  0  0  0  0  0999 V2000
   -1.5632   -1.9577    5.1859 C   0  0  0  0  0  0  0  0  0  0  0  0
   -2.6920   -2.1237    4.7504 O   0  0  0  0  0  0  0  0  0  0  0  0
   -1.3545   -1.3827    6.5739 C   0  0  0  0  0  0  0  0  0  0  0  0
   -0.7339   -0.4850    6.5158 H   0  0  0  0  0  0  0  0  0  0  0  0
   -2.3170   -1.1171    7.0198 H   0  0  0  0  0  0  0  0  0  0  0  0
   -0.8602   -2.1186    7.2128 H   0  0  0  0  0  0  0  0  0  0  0  0
   -0.4751   -2.3025    4.4155 N   0  0  0  0  0  0  0  0  0  0  0  0
   -0.5526   -2.8983    3.0744 C   0  0  2  0  0  0  0  0  0  0  0  0
    0.7196   -3.7037    2.7313 C   0  0  0  0  0  0  0  0  0  0  0  0
    1.6599   -3.7421    3.5183 O   0  0  0  0  0  0  0  0  0  0  0  0
   -0.8020   -1.7901    2.0387 C   0  0  0  0  0  0  0  0  0  0  0  0
    0.5554   -0.5492    2.0386 S   0  0  0  0  0  0  0  0  0  0  0  0
    0.4517   -2.2162    4.8310 H   0  0  0  0  0  0  0  0  0  0  0  0
   -1.3904   -3.6029    3.0452 H   0  0  0  0  0  0  0  0  0  0  0  0
   -0.8967   -2.2251    1.0402 H   0  0  0  0  0  0  0  0  0  0  0  0
   -1.7464   -1.2853    2.2668 H   0  0  0  0  0  0  0  0  0  0  0  0
    0.8003   -4.4283    1.5548 N   0  0  0  0  0  0  0  0  0  0  0  0
    1.9727   -5.2080    1.1763 C   0  0  0  0  0  0  0  0  0  0  0  0
    0.0061   -4.3961    0.9226 H   0  0  0  0  0  0  0  0  0  0  0  0
    2.8482   -4.5578    1.0761 H   0  0  0  0  0  0  0  0  0  0  0  0
    2.1862   -5.9718    1.9317 H   0  0  0  0  0  0  0  0  0  0  0  0
    1.8021   -5.7088    0.2184 H   0  0  0  0  0  0  0  0  0  0  0  0
   -5.3981    1.1061   -0.9993 C   0  0  0  0  0  0  0  0  0  0  0  0
   -5.7472   -0.0073   -1.3593 O   0  0  0  0  0  0  0  0  0  0  0  0
   -6.1254    1.8017    0.1359 C   0  0  0  0  0  0  0  0  0  0  0  0
   -6.5052    2.7698   -0.2001 H   0  0  0  0  0  0  0  0  0  0  0  0
   -6.9669    1.1907    0.4743 H   0  0  0  0  0  0  0  0  0  0  0  0
   -5.4425    1.9566    0.9750 H   0  0  0  0  0  0  0  0  0  0  0  0
   -4.3339    1.7301   -1.6154 N   0  0  0  0  0  0  0  0  0  0  0  0
   -3.4337    1.0734   -2.5721 C   0  0  2  0  0  0  0  0  0  0  0  0
   -1.9594    1.4003   -2.2629 C   0  0  0  0  0  0  0  0  0  0  0  0
   -1.6665    2.4684   -1.7381 O   0  0  0  0  0  0  0  0  0  0  0  0
   -3.8088    1.5406   -3.9801 C   0  0  0  0  0  0  0  0  0  0  0  0
   -3.9903    2.5879   -1.1845 H   0  0  0  0  0  0  0  0  0  0  0  0
   -3.5465   -0.0144   -2.5142 H   0  0  0  0  0  0  0  0  0  0  0  0
   -3.7098    2.6280   -4.0614 H   0  0  0  0  0  0  0  0  0  0  0  0
   -3.1576    1.0743   -4.7259 H   0  0  0  0  0  0  0  0  0  0  0  0
   -4.8445    1.2658   -4.2042 H   0  0  0  0  0  0  0  0  0  0  0  0
   -0.9594    0.5149   -2.6162 N   0  0  0  0  0  0  0  0  0  0  0  0
    0.4635    0.6491   -2.2628 C   0  0  2  0  0  0  0  0  0  0  0  0
    1.3528    0.0106   -3.3462 C   0  0  0  0  0  0  0  0  0  0  0  0
    0.9399   -0.9498   -3.9888 O   0  0  0  0  0  0  0  0  0  0  0  0
    0.7644   -0.0633   -0.9316 C   0  0  0  0  0  0  0  0  0  0  0  0
   -0.0912    0.7040    0.5019 S   0  0  0  0  0  0  0  0  0  0  0  0
   -1.2339   -0.3261   -3.1214 H   0  0  0  0  0  0  0  0  0  0  0  0
    0.7308    1.7082   -2.1798 H   0  0  0  0  0  0  0  0  0  0  0  0
    0.4634   -1.1127   -1.0069 H   0  0  0  0  0  0  0  0  0  0  0  0
    1.8421   -0.0393   -0.7402 H   0  0  0  0  0  0  0  0  0  0  0  0
    2.6213    0.4990   -3.5924 N   0  0  0  0  0  0  0  0  0  0  0  0
    3.6021   -0.1387   -4.4803 C   0  0  2  0  0  0  0  0  0  0  0  0
    5.0364    0.0133   -3.9310 C   0  0  0  0  0  0  0  0  0  0  0  0
    5.2505    0.7491   -2.9738 O   0  0  0  0  0  0  0  0  0  0  0  0
    3.4765    0.4974   -5.8679 C   0  0  0  0  0  0  0  0  0  0  0  0
    2.9848    1.2062   -2.9519 H   0  0  0  0  0  0  0  0  0  0  0  0
    3.3967   -1.2117   -4.5563 H   0  0  0  0  0  0  0  0  0  0  0  0
    3.6918    1.5698   -5.8185 H   0  0  0  0  0  0  0  0  0  0  0  0
    4.1758    0.0331   -6.5697 H   0  0  0  0  0  0  0  0  0  0  0  0
    2.4610    0.3634   -6.2545 H   0  0  0  0  0  0  0  0  0  0  0  0
    6.0846   -0.6915   -4.4936 N   0  0  0  0  0  0  0  0  0  0  0  0
    7.4527   -0.6235   -3.9934 C   0  0  0  0  0  0  0  0  0  0  0  0
    5.8737   -1.3160   -5.2667 H   0  0  0  0  0  0  0  0  0  0  0  0
    7.7885    0.4174   -3.9304 H   0  0  0  0  0  0  0  0  0  0  0  0
    7.5188   -1.0760   -2.9981 H   0  0  0  0  0  0  0  0  0  0  0  0
    8.1281   -1.1614   -4.6658 H   0  0  0  0  0  0  0  0  0  0  0  0
  1  2  2  0  0  0  0
  1  3  1  0  0  0  0
  1  7  1  0  0  0  0
  3  4  1  0  0  0  0
  3  5  1  0  0  0  0
  3  6  1  0  0  0  0
  7  8  1  0  0  0  0
  7 13  1  0  0  0  0
  8  9  1  0  0  0  0
  8 11  1  0  0  0  0
  8 14  1  0  0  0  0
  9 10  2  0  0  0  0
  9 17  1  0  0  0  0
 11 12  1  0  0  0  0
 11 15  1  0  0  0  0
 11 16  1  0  0  0  0
 12 44  1  0  0  0  0
 17 18  1  0  0  0  0
 17 19  1  0  0  0  0
 18 20  1  0  0  0  0
 18 21  1  0  0  0  0
 18 22  1  0  0  0  0
 23 24  2  0  0  0  0
 23 25  1  0  0  0  0
 23 29  1  0  0  0  0
 25 26  1  0  0  0  0
 25 27  1  0  0  0  0
 25 28  1  0  0  0  0
 29 30  1  0  0  0  0
 29 34  1  0  0  0  0
 30 31  1  0  0  0  0
 30 33  1  0  0  0  0
 30 35  1  0  0  0  0
 31 32  2  0  0  0  0
 31 39  1  0  0  0  0
 33 36  1  0  0  0  0
 33 37  1  0  0  0  0
 33 38  1  0  0  0  0
 39 40  1  0  0  0  0
 39 45  1  0  0  0  0
 40 41  1  0  0  0  0
 40 43  1  0  0  0  0
 40 46  1  0  0  0  0
 41 42  2  0  0  0  0
 41 49  1  0  0  0  0
 43 44  1  0  0  0  0
 43 47  1  0  0  0  0
 43 48  1  0  0  0  0
 49 50  1  0  0  0  0
 49 54  1  0  0  0  0
 50 51  1  0  0  0  0
 50 53  1  0  0  0  0
 50 55  1  0  0  0  0
 51 52  2  0  0  0  0
 51 59  1  0  0  0  0
 53 56  1  0  0  0  0
 53 57  1  0  0  0  0
 53 58  1  0  0  0  0
 59 60  1  0  0  0  0
 59 61  1  0  0  0  0
 60 62  1  0  0  0  0
 60 63  1  0  0  0  0
 60 64  1  0  0  0  0
M  END
$$$$

  -OEChem-05262216053D

 64 63  0     1  0  0  0  0  0999 V2000
   -1.5437   -1.9559    5.1876 C   0  0  0  0  0  0  0  0  0  0  0  0
   -2.6717   -2.1258    4.7519 O   0  0  0  0  0  0  0  0  0  0  0  0
   -1.3375   -1.3784    6.5751 C   0  0  0  0  0  0  0  0  0  0  0  0
   -0.7432   -0.4633    6.5131 H   0  0  0  0  0  0  0  0  0  0  0  0
   -2.3027   -1.1415    7.0316 H   0  0  0  0  0  0  0  0  0  0  0  0
   -0.8160   -2.1011    7.2076 H   0  0  0  0  0  0  0  0  0  0  0  0
   -0.4550   -2.2997    4.4179 N   0  0  0  0  0  0  0  0  0  0  0  0
   -0.5326   -2.9036    3.0805 C   0  0  2  0  0  0  0  0  0  0  0  0
    0.7337   -3.7225    2.7491 C   0  0  0  0  0  0  0  0  0  0  0  0
    1.6707   -3.7621    3.5400 O   0  0  0  0  0  0  0  0  0  0  0  0
   -0.7687   -1.7990    2.0381 C   0  0  0  0  0  0  0  0  0  0  0  0
    0.6026   -0.5732    2.0282 S   0  0  0  0  0  0  0  0  0  0  0  0
    0.4712   -2.2171    4.8354 H   0  0  0  0  0  0  0  0  0  0  0  0
   -1.3771   -3.6002    3.0509 H   0  0  0  0  0  0  0  0  0  0  0  0
   -0.8695   -2.2385    1.0419 H   0  0  0  0  0  0  0  0  0  0  0  0
   -1.7066   -1.2819    2.2654 H   0  0  0  0  0  0  0  0  0  0  0  0
    0.8110   -4.4606    1.5811 N   0  0  0  0  0  0  0  0  0  0  0  0
    1.9773   -5.2566    1.2163 C   0  0  0  0  0  0  0  0  0  0  0  0
    0.0177   -4.4296    0.9475 H   0  0  0  0  0  0  0  0  0  0  0  0
    2.8621   -4.6185    1.1179 H   0  0  0  0  0  0  0  0  0  0  0  0
    2.1767   -6.0179    1.9783 H   0  0  0  0  0  0  0  0  0  0  0  0
    1.8065   -5.7612    0.2605 H   0  0  0  0  0  0  0  0  0  0  0  0
   -5.4125    1.0992   -1.0357 C   0  0  0  0  0  0  0  0  0  0  0  0
   -5.7621   -0.0022   -1.4301 O   0  0  0  0  0  0  0  0  0  0  0  0
   -6.1526    1.7681    0.1070 C   0  0  0  0  0  0  0  0  0  0  0  0
   -6.5476    2.7332   -0.2191 H   0  0  0  0  0  0  0  0  0  0  0  0
   -6.9847    1.1396    0.4364 H   0  0  0  0  0  0  0  0  0  0  0  0
   -5.4745    1.9249    0.9496 H   0  0  0  0  0  0  0  0  0  0  0  0
   -4.3376    1.7346   -1.6207 N   0  0  0  0  0  0  0  0  0  0  0  0
   -3.4258    1.0983   -2.5804 C   0  0  2  0  0  0  0  0  0  0  0  0
   -1.9544    1.4016   -2.2360 C   0  0  0  0  0  0  0  0  0  0  0  0
   -1.6606    2.4523   -1.6779 O   0  0  0  0  0  0  0  0  0  0  0  0
   -3.7708    1.6103   -3.9806 C   0  0  0  0  0  0  0  0  0  0  0  0
   -3.9969    2.5792   -1.1627 H   0  0  0  0  0  0  0  0  0  0  0  0
   -3.5485    0.0104   -2.5575 H   0  0  0  0  0  0  0  0  0  0  0  0
   -3.6597    2.6984   -4.0285 H   0  0  0  0  0  0  0  0  0  0  0  0
   -3.1114    1.1591   -4.7283 H   0  0  0  0  0  0  0  0  0  0  0  0
   -4.8048    1.3532   -4.2310 H   0  0  0  0  0  0  0  0  0  0  0  0
   -0.9571    0.5185   -2.6025 N   0  0  0  0  0  0  0  0  0  0  0  0
    0.4715    0.6519   -2.2707 C   0  0  2  0  0  0  0  0  0  0  0  0
    1.3467    0.0130   -3.3683 C   0  0  0  0  0  0  0  0  0  0  0  0
    0.8536   -0.7788   -4.1661 O   0  0  0  0  0  0  0  0  0  0  0  0
    0.7864   -0.0667   -0.9436 C   0  0  0  0  0  0  0  0  0  0  0  0
   -0.0486    0.6942    0.5053 S   0  0  0  0  0  0  0  0  0  0  0  0
   -1.2247   -0.2793   -3.1771 H   0  0  0  0  0  0  0  0  0  0  0  0
    0.7428    1.7099   -2.1891 H   0  0  0  0  0  0  0  0  0  0  0  0
    0.4824   -1.1152   -1.0188 H   0  0  0  0  0  0  0  0  0  0  0  0
    1.8658   -0.0468   -0.7615 H   0  0  0  0  0  0  0  0  0  0  0  0
    2.7006    0.2827   -3.4326 N   0  0  0  0  0  0  0  0  0  0  0  0
    3.6509   -0.4200   -4.3055 C   0  0  2  0  0  0  0  0  0  0  0  0
    4.9961   -0.6656   -3.5899 C   0  0  0  0  0  0  0  0  0  0  0  0
    5.2194   -0.1358   -2.5071 O   0  0  0  0  0  0  0  0  0  0  0  0
    3.8490    0.4216   -5.5694 C   0  0  0  0  0  0  0  0  0  0  0  0
    3.1057    0.8242   -2.6680 H   0  0  0  0  0  0  0  0  0  0  0  0
    3.2517   -1.4004   -4.5862 H   0  0  0  0  0  0  0  0  0  0  0  0
    4.2637    1.4027   -5.3159 H   0  0  0  0  0  0  0  0  0  0  0  0
    4.5331   -0.0781   -6.2616 H   0  0  0  0  0  0  0  0  0  0  0  0
    2.8914    0.5694   -6.0789 H   0  0  0  0  0  0  0  0  0  0  0  0
    5.9493   -1.4967   -4.1490 N   0  0  0  0  0  0  0  0  0  0  0  0
    7.2259   -1.7941   -3.5100 C   0  0  0  0  0  0  0  0  0  0  0  0
    5.7297   -1.9377   -5.0373 H   0  0  0  0  0  0  0  0  0  0  0  0
    7.7705   -0.8696   -3.2894 H   0  0  0  0  0  0  0  0  0  0  0  0
    7.0670   -2.3412   -2.5746 H   0  0  0  0  0  0  0  0  0  0  0  0
    7.8459   -2.4088   -4.1703 H   0  0  0  0  0  0  0  0  0  0  0  0
  1  2  2  0  0  0  0
  1  3  1  0  0  0  0
  1  7  1  0  0  0  0
  3  4  1  0  0  0  0
  3  5  1  0  0  0  0
  3  6  1  0  0  0  0
  7  8  1  0  0  0  0
  7 13  1  0  0  0  0
  8  9  1  0  0  0  0
  8 11  1  0  0  0  0
  8 14  1  0  0  0  0
  9 10  2  0  0  0  0
  9 17  1  0  0  0  0
 11 12  1  0  0  0  0
 11 15  1  0  0  0  0
 11 16  1  0  0  0  0
 12 44  1  0  0  0  0
 17 18  1  0  0  0  0
 17 19  1  0  0  0  0
 18 20  1  0  0  0  0
 18 21  1  0  0  0  0
 18 22  1  0  0  0  0
 23 24  2  0  0  0  0
 23 25  1  0  0  0  0
 23 29  1  0  0  0  0
 25 26  1  0  0  0  0
 25 27  1  0  0  0  0
 25 28  1  0  0  0  0
 29 30  1  0  0  0  0
 29 34  1  0  0  0  0
 30 31  1  0  0  0  0
 30 33  1  0  0  0  0
 30 35  1  0  0  0  0
 31 32  2  0  0  0  0
 31 39  1  0  0  0  0
 33 36  1  0  0  0  0
 33 37  1  0  0  0  0
 33 38  1  0  0  0  0
 39 40  1  0  0  0  0
 39 45  1  0  0  0  0
 40 41  1  0  0  0  0
 40 43  1  0  0  0  0
 40 46  1  0  0  0  0
 41 42  2  0  0  0  0
 41 49  1  0  0  0  0
 43 44  1  0  0  0  0
 43 47  1  0  0  0  0
 43 48  1  0  0  0  0
 49 50  1  0  0  0  0
 49 54  1  0  0  0  0
 50 51  1  0  0  0  0
 50 53  1  0  0  0  0
 50 55  1  0  0  0  0
 51 52  2  0  0  0  0
 51 59  1  0  0  0  0
 53 56  1  0  0  0  0
 53 57  1  0  0  0  0
 53 58  1  0  0  0  0
 59 60  1  0  0  0  0
 59 61  1  0  0  0  0
 60 62  1  0  0  0  0
 60 63  1  0  0  0  0
 60 64  1  0  0  0  0
M  END
$$$$

  -OEChem-05262216053D

 64 63  0     1  0  0  0  0  0999 V2000
   -1.2807   -3.8941    4.3794 C   0  0  0  0  0  0  0  0  0  0  0  0
   -2.3996   -4.0163    3.9057 O   0  0  0  0  0  0  0  0  0  0  0  0
   -1.1003   -3.6849    5.8708 C   0  0  0  0  0  0  0  0  0  0  0  0
   -0.5843   -2.7392    6.0532 H   0  0  0  0  0  0  0  0  0  0  0  0
   -2.0740   -3.6567    6.3680 H   0  0  0  0  0  0  0  0  0  0  0  0
   -0.5104   -4.5014    6.2946 H   0  0  0  0  0  0  0  0  0  0  0  0
   -0.1790   -3.9497    3.5550 N   0  0  0  0  0  0  0  0  0  0  0  0
   -0.2296   -4.1894    2.1062 C   0  0  2  0  0  0  0  0  0  0  0  0
    1.0790   -4.8185    1.5803 C   0  0  0  0  0  0  0  0  0  0  0  0
    2.0204   -5.0169    2.3416 O   0  0  0  0  0  0  0  0  0  0  0  0
   -0.5385   -2.8682    1.3843 C   0  0  0  0  0  0  0  0  0  0  0  0
    0.7705   -1.6120    1.6866 S   0  0  0  0  0  0  0  0  0  0  0  0
    0.7435   -3.9194    3.9873 H   0  0  0  0  0  0  0  0  0  0  0  0
   -1.0311   -4.9036    1.8909 H   0  0  0  0  0  0  0  0  0  0  0  0
   -0.6324   -3.0426    0.3091 H   0  0  0  0  0  0  0  0  0  0  0  0
   -1.4979   -2.4761    1.7377 H   0  0  0  0  0  0  0  0  0  0  0  0
    1.1916   -5.2093    0.2574 N   0  0  0  0  0  0  0  0  0  0  0  0
    2.4015   -5.8035   -0.2982 C   0  0  0  0  0  0  0  0  0  0  0  0
    0.3978   -5.0453   -0.3546 H   0  0  0  0  0  0  0  0  0  0  0  0
    3.2403   -5.1034   -0.2215 H   0  0  0  0  0  0  0  0  0  0  0  0
    2.6583   -6.7231    0.2386 H   0  0  0  0  0  0  0  0  0  0  0  0
    2.2528   -6.0504   -1.3536 H   0  0  0  0  0  0  0  0  0  0  0  0
   -5.5421    1.0890   -1.2432 C   0  0  0  0  0  0  0  0  0  0  0  0
   -5.9447    0.1001   -1.8356 O   0  0  0  0  0  0  0  0  0  0  0  0
   -6.3531    1.6768   -0.1042 C   0  0  0  0  0  0  0  0  0  0  0  0
   -6.6612    2.6953   -0.3520 H   0  0  0  0  0  0  0  0  0  0  0  0
   -7.2460    1.0713    0.0748 H   0  0  0  0  0  0  0  0  0  0  0  0
   -5.7526    1.6968    0.8084 H   0  0  0  0  0  0  0  0  0  0  0  0
   -4.3409    1.6654   -1.5979 N   0  0  0  0  0  0  0  0  0  0  0  0
   -3.3832    1.0643   -2.5343 C   0  0  2  0  0  0  0  0  0  0  0  0
   -1.9308    1.2775   -2.0629 C   0  0  0  0  0  0  0  0  0  0  0  0
   -1.6569    2.2218   -1.3304 O   0  0  0  0  0  0  0  0  0  0  0  0
   -3.6020    1.6855   -3.9164 C   0  0  0  0  0  0  0  0  0  0  0  0
   -3.9821    2.4035   -0.9928 H   0  0  0  0  0  0  0  0  0  0  0  0
   -3.5488   -0.0165   -2.5961 H   0  0  0  0  0  0  0  0  0  0  0  0
   -3.4485    2.7687   -3.8792 H   0  0  0  0  0  0  0  0  0  0  0  0
   -2.9050    1.2599   -4.6447 H   0  0  0  0  0  0  0  0  0  0  0  0
   -4.6225    1.4903   -4.2608 H   0  0  0  0  0  0  0  0  0  0  0  0
   -0.9341    0.4153   -2.4792 N   0  0  0  0  0  0  0  0  0  0  0  0
    0.4988    0.5862   -2.1839 C   0  0  2  0  0  0  0  0  0  0  0  0
    1.3559    0.3390   -3.4441 C   0  0  0  0  0  0  0  0  0  0  0  0
    0.8249   -0.0378   -4.4846 O   0  0  0  0  0  0  0  0  0  0  0  0
    0.9005   -0.4123   -1.0827 C   0  0  0  0  0  0  0  0  0  0  0  0
    0.0536   -0.0488    0.5072 S   0  0  0  0  0  0  0  0  0  0  0  0
   -1.1690   -0.2117   -3.2469 H   0  0  0  0  0  0  0  0  0  0  0  0
    0.7059    1.6061   -1.8417 H   0  0  0  0  0  0  0  0  0  0  0  0
    0.6517   -1.4287   -1.4022 H   0  0  0  0  0  0  0  0  0  0  0  0
    1.9806   -0.3731   -0.9108 H   0  0  0  0  0  0  0  0  0  0  0  0
    2.7330    0.4487   -3.3922 N   0  0  0  0  0  0  0  0  0  0  0  0
    3.6481   -0.0187   -4.4427 C   0  0  2  0  0  0  0  0  0  0  0  0
    4.8363   -0.7991   -3.8420 C   0  0  0  0  0  0  0  0  0  0  0  0
    5.0007   -0.8245   -2.6271 O   0  0  0  0  0  0  0  0  0  0  0  0
    4.1348    1.2040   -5.2255 C   0  0  0  0  0  0  0  0  0  0  0  0
    3.1483    0.5940   -2.4718 H   0  0  0  0  0  0  0  0  0  0  0  0
    3.1295   -0.6987   -5.1266 H   0  0  0  0  0  0  0  0  0  0  0  0
    4.6777    1.8900   -4.5672 H   0  0  0  0  0  0  0  0  0  0  0  0
    4.8011    0.9014   -6.0388 H   0  0  0  0  0  0  0  0  0  0  0  0
    3.2833    1.7379   -5.6596 H   0  0  0  0  0  0  0  0  0  0  0  0
    5.7100   -1.4908   -4.6602 N   0  0  0  0  0  0  0  0  0  0  0  0
    6.8446   -2.2542   -4.1543 C   0  0  0  0  0  0  0  0  0  0  0  0
    5.5461   -1.4581   -5.6623 H   0  0  0  0  0  0  0  0  0  0  0  0
    7.5141   -1.6087   -3.5759 H   0  0  0  0  0  0  0  0  0  0  0  0
    6.5008   -3.0716   -3.5115 H   0  0  0  0  0  0  0  0  0  0  0  0
    7.4123   -2.6830   -4.9858 H   0  0  0  0  0  0  0  0  0  0  0  0
  1  2  2  0  0  0  0
  1  3  1  0  0  0  0
  1  7  1  0  0  0  0
  3  4  1  0  0  0  0
  3  5  1  0  0  0  0
  3  6  1  0  0  0  0
  7  8  1  0  0  0  0
  7 13  1  0  0  0  0
  8  9  1  0  0  0  0
  8 11  1  0  0  0  0
  8 14  1  0  0  0  0
  9 10  2  0  0  0  0
  9 17  1  0  0  0  0
 11 12  1  0  0  0  0
 11 15  1  0  0  0  0
 11 16  1  0  0  0  0
 12 44  1  0  0  0  0
 17 18  1  0  0  0  0
 17 19  1  0  0  0  0
 18 20  1  0  0  0  0
 18 21  1  0  0  0  0
 18 22  1  0  0  0  0
 23 24  2  0  0  0  0
 23 25  1  0  0  0  0
 23 29  1  0  0  0  0
 25 26  1  0  0  0  0
 25 27  1  0  0  0  0
 25 28  1  0  0  0  0
 29 30  1  0  0  0  0
 29 34  1  0  0  0  0
 30 31  1  0  0  0  0
 30 33  1  0  0  0  0
 30 35  1  0  0  0  0
 31 32  2  0  0  0  0
 31 39  1  0  0  0  0
 33 36  1  0  0  0  0
 33 37  1  0  0  0  0
 33 38  1  0  0  0  0
 39 40  1  0  0  0  0
 39 45  1  0  0  0  0
 40 41  1  0  0  0  0
 40 43  1  0  0  0  0
 40 46  1  0  0  0  0
 41 42  2  0  0  0  0
 41 49  1  0  0  0  0
 43 44  1  0  0  0  0
 43 47  1  0  0  0  0
 43 48  1  0  0  0  0
 49 50  1  0  0  0  0
 49 54  1  0  0  0  0
 50 51  1  0  0  0  0
 50 53  1  0  0  0  0
 50 55  1  0  0  0  0
 51 52  2  0  0  0  0
 51 59  1  0  0  0  0
 53 56  1  0  0  0  0
 53 57  1  0  0  0  0
 53 58  1  0  0  0  0
 59 60  1  0  0  0  0
 59 61  1  0  0  0  0
 60 62  1  0  0  0  0
 60 63  1  0  0  0  0
 60 64  1  0  0  0  0
M  END
$$$$

  -OEChem-05262216053D

 64 63  0     1  0  0  0  0  0999 V2000
   -0.7532   -4.3773    4.1917 C   0  0  0  0  0  0  0  0  0  0  0  0
   -1.7760   -4.7112    3.6143 O   0  0  0  0  0  0  0  0  0  0  0  0
   -0.7108   -4.3324    5.7074 C   0  0  0  0  0  0  0  0  0  0  0  0
   -0.5234   -3.3098    6.0439 H   0  0  0  0  0  0  0  0  0  0  0  0
   -1.6647   -4.6710    6.1211 H   0  0  0  0  0  0  0  0  0  0  0  0
    0.0852   -4.9822    6.0789 H   0  0  0  0  0  0  0  0  0  0  0  0
    0.3680   -4.0461    3.4635 N   0  0  0  0  0  0  0  0  0  0  0  0
    0.4649   -4.1173    1.9984 C   0  0  2  0  0  0  0  0  0  0  0  0
    1.9275   -4.2900    1.5283 C   0  0  0  0  0  0  0  0  0  0  0  0
    2.8258   -4.4179    2.3550 O   0  0  0  0  0  0  0  0  0  0  0  0
   -0.1769   -2.8628    1.3865 C   0  0  0  0  0  0  0  0  0  0  0  0
    0.7368   -1.3401    1.8640 S   0  0  0  0  0  0  0  0  0  0  0  0
    1.2316   -3.8689    3.9748 H   0  0  0  0  0  0  0  0  0  0  0  0
   -0.0837   -4.9977    1.6476 H   0  0  0  0  0  0  0  0  0  0  0  0
   -0.1923   -2.9511    0.2971 H   0  0  0  0  0  0  0  0  0  0  0  0
   -1.2160   -2.7790    1.7215 H   0  0  0  0  0  0  0  0  0  0  0  0
    2.2400   -4.3505    0.1813 N   0  0  0  0  0  0  0  0  0  0  0  0
    3.6086   -4.4303   -0.3137 C   0  0  0  0  0  0  0  0  0  0  0  0
    1.5054   -4.1224   -0.4822 H   0  0  0  0  0  0  0  0  0  0  0  0
    4.1330   -3.4862   -0.1349 H   0  0  0  0  0  0  0  0  0  0  0  0
    4.1544   -5.2391    0.1834 H   0  0  0  0  0  0  0  0  0  0  0  0
    3.6095   -4.6303   -1.3893 H   0  0  0  0  0  0  0  0  0  0  0  0
   -5.7525    1.2218   -1.7533 C   0  0  0  0  0  0  0  0  0  0  0  0
   -6.1129    0.1952   -2.3074 O   0  0  0  0  0  0  0  0  0  0  0  0
   -6.6998    1.9559   -0.8231 C   0  0  0  0  0  0  0  0  0  0  0  0
   -6.8830    2.9658   -1.1974 H   0  0  0  0  0  0  0  0  0  0  0  0
   -7.6536    1.4246   -0.7606 H   0  0  0  0  0  0  0  0  0  0  0  0
   -6.2657    2.0182    0.1778 H   0  0  0  0  0  0  0  0  0  0  0  0
   -4.4788    1.7065   -1.9614 N   0  0  0  0  0  0  0  0  0  0  0  0
   -3.4245    0.9745   -2.6755 C   0  0  2  0  0  0  0  0  0  0  0  0
   -2.0274    1.2984   -2.1070 C   0  0  0  0  0  0  0  0  0  0  0  0
   -1.8713    2.2669   -1.3706 O   0  0  0  0  0  0  0  0  0  0  0  0
   -3.5014    1.3320   -4.1631 C   0  0  0  0  0  0  0  0  0  0  0  0
   -4.1770    2.4924   -1.3858 H   0  0  0  0  0  0  0  0  0  0  0  0
   -3.5790   -0.1034   -2.5559 H   0  0  0  0  0  0  0  0  0  0  0  0
   -3.3504    2.4065   -4.3070 H   0  0  0  0  0  0  0  0  0  0  0  0
   -2.7357    0.7933   -4.7299 H   0  0  0  0  0  0  0  0  0  0  0  0
   -4.4823    1.0605   -4.5662 H   0  0  0  0  0  0  0  0  0  0  0  0
   -0.9455    0.5042   -2.4367 N   0  0  0  0  0  0  0  0  0  0  0  0
    0.4426    0.7694   -2.0222 C   0  0  2  0  0  0  0  0  0  0  0  0
    1.4159    0.5825   -3.2090 C   0  0  0  0  0  0  0  0  0  0  0  0
    0.9784    0.3451   -4.3313 O   0  0  0  0  0  0  0  0  0  0  0  0
    0.8056   -0.2221   -0.9006 C   0  0  0  0  0  0  0  0  0  0  0  0
   -0.1934    0.0466    0.6161 S   0  0  0  0  0  0  0  0  0  0  0  0
   -1.0780   -0.1460   -3.2092 H   0  0  0  0  0  0  0  0  0  0  0  0
    0.5570    1.7958   -1.6571 H   0  0  0  0  0  0  0  0  0  0  0  0
    0.6614   -1.2465   -1.2580 H   0  0  0  0  0  0  0  0  0  0  0  0
    1.8579   -0.1143   -0.6250 H   0  0  0  0  0  0  0  0  0  0  0  0
    2.7798    0.4767   -2.9950 N   0  0  0  0  0  0  0  0  0  0  0  0
    3.6427   -0.2664   -3.9224 C   0  0  2  0  0  0  0  0  0  0  0  0
    3.4879   -1.7948   -3.7504 C   0  0  0  0  0  0  0  0  0  0  0  0
    3.1088   -2.2636   -2.6809 O   0  0  0  0  0  0  0  0  0  0  0  0
    5.0882    0.1588   -3.6565 C   0  0  0  0  0  0  0  0  0  0  0  0
    3.0650    0.4806   -2.0195 H   0  0  0  0  0  0  0  0  0  0  0  0
    3.3902   -0.0070   -4.9563 H   0  0  0  0  0  0  0  0  0  0  0  0
    5.3842   -0.1028   -2.6352 H   0  0  0  0  0  0  0  0  0  0  0  0
    5.7680   -0.3412   -4.3533 H   0  0  0  0  0  0  0  0  0  0  0  0
    5.1962    1.2406   -3.7858 H   0  0  0  0  0  0  0  0  0  0  0  0
    3.7939   -2.6496   -4.7925 N   0  0  0  0  0  0  0  0  0  0  0  0
    3.6481   -4.0979   -4.7121 C   0  0  0  0  0  0  0  0  0  0  0  0
    4.0352   -2.2309   -5.6863 H   0  0  0  0  0  0  0  0  0  0  0  0
    4.3278   -4.5099   -3.9590 H   0  0  0  0  0  0  0  0  0  0  0  0
    2.6204   -4.3679   -4.4468 H   0  0  0  0  0  0  0  0  0  0  0  0
    3.8858   -4.5552   -5.6774 H   0  0  0  0  0  0  0  0  0  0  0  0
  1  2  2  0  0  0  0
  1  3  1  0  0  0  0
  1  7  1  0  0  0  0
  3  4  1  0  0  0  0
  3  5  1  0  0  0  0
  3  6  1  0  0  0  0
  7  8  1  0  0  0  0
  7 13  1  0  0  0  0
  8  9  1  0  0  0  0
  8 11  1  0  0  0  0
  8 14  1  0  0  0  0
  9 10  2  0  0  0  0
  9 17  1  0  0  0  0
 11 12  1  0  0  0  0
 11 15  1  0  0  0  0
 11 16  1  0  0  0  0
 12 44  1  0  0  0  0
 17 18  1  0  0  0  0
 17 19  1  0  0  0  0
 18 20  1  0  0  0  0
 18 21  1  0  0  0  0
 18 22  1  0  0  0  0
 23 24  2  0  0  0  0
 23 25  1  0  0  0  0
 23 29  1  0  0  0  0
 25 26  1  0  0  0  0
 25 27  1  0  0  0  0
 25 28  1  0  0  0  0
 29 30  1  0  0  0  0
 29 34  1  0  0  0  0
 30 31  1  0  0  0  0
 30 33  1  0  0  0  0
 30 35  1  0  0  0  0
 31 32  2  0  0  0  0
 31 39  1  0  0  0  0
 33 36  1  0  0  0  0
 33 37  1  0  0  0  0
 33 38  1  0  0  0  0
 39 40  1  0  0  0  0
 39 45  1  0  0  0  0
 40 41  1  0  0  0  0
 40 43  1  0  0  0  0
 40 46  1  0  0  0  0
 41 42  2  0  0  0  0
 41 49  1  0  0  0  0
 43 44  1  0  0  0  0
 43 47  1  0  0  0  0
 43 48  1  0  0  0  0
 49 50  1  0  0  0  0
 49 54  1  0  0  0  0
 50 51  1  0  0  0  0
 50 53  1  0  0  0  0
 50 55  1  0  0  0  0
 51 52  2  0  0  0  0
 51 59  1  0  0  0  0
 53 56  1  0  0  0  0
 53 57  1  0  0  0  0
 53 58  1  0  0  0  0
 59 60  1  0  0  0  0
 59 61  1  0  0  0  0
 60 62  1  0  0  0  0
 60 63  1  0  0  0  0
 60 64  1  0  0  0  0
M  END
$$$$

  -OEChem-05262216053D

 64 63  0     1  0  0  0  0  0999 V2000
   -0.4803   -5.0391    3.6733 C   0  0  0  0  0  0  0  0  0  0  0  0
   -1.2531   -5.5426    2.8729 O   0  0  0  0  0  0  0  0  0  0  0  0
   -0.7102   -5.2069    5.1636 C   0  0  0  0  0  0  0  0  0  0  0  0
   -0.8049   -4.2274    5.6384 H   0  0  0  0  0  0  0  0  0  0  0  0
   -1.6279   -5.7744    5.3414 H   0  0  0  0  0  0  0  0  0  0  0  0
    0.1285   -5.7432    5.6139 H   0  0  0  0  0  0  0  0  0  0  0  0
    0.6070   -4.3247    3.2200 N   0  0  0  0  0  0  0  0  0  0  0  0
    0.9796   -4.1812    1.8047 C   0  0  2  0  0  0  0  0  0  0  0  0
    2.4965   -3.9259    1.6354 C   0  0  0  0  0  0  0  0  0  0  0  0
    3.2312   -3.9671    2.6184 O   0  0  0  0  0  0  0  0  0  0  0  0
    0.1363   -3.0638    1.1746 C   0  0  0  0  0  0  0  0  0  0  0  0
    0.5908   -1.4104    1.8465 S   0  0  0  0  0  0  0  0  0  0  0  0
    1.2914   -4.0150    3.9088 H   0  0  0  0  0  0  0  0  0  0  0  0
    0.7605   -5.1178    1.2814 H   0  0  0  0  0  0  0  0  0  0  0  0
    0.2867   -3.0763    0.0927 H   0  0  0  0  0  0  0  0  0  0  0  0
   -0.9266   -3.2502    1.3582 H   0  0  0  0  0  0  0  0  0  0  0  0
    3.0673   -3.7013    0.3934 N   0  0  0  0  0  0  0  0  0  0  0  0
    4.4917   -3.4596    0.2053 C   0  0  0  0  0  0  0  0  0  0  0  0
    2.4516   -3.5910   -0.4152 H   0  0  0  0  0  0  0  0  0  0  0  0
    4.7942   -2.5387    0.7142 H   0  0  0  0  0  0  0  0  0  0  0  0
    5.0791   -4.2934    0.6038 H   0  0  0  0  0  0  0  0  0  0  0  0
    4.7181   -3.3587   -0.8602 H   0  0  0  0  0  0  0  0  0  0  0  0
   -5.8213    1.6947   -2.0396 C   0  0  0  0  0  0  0  0  0  0  0  0
   -6.2478    0.7456   -2.6786 O   0  0  0  0  0  0  0  0  0  0  0  0
   -6.7390    2.4553   -1.1015 C   0  0  0  0  0  0  0  0  0  0  0  0
   -6.7390    3.5170   -1.3594 H   0  0  0  0  0  0  0  0  0  0  0  0
   -7.7603    2.0724   -1.1809 H   0  0  0  0  0  0  0  0  0  0  0  0
   -6.3972    2.3373   -0.0702 H   0  0  0  0  0  0  0  0  0  0  0  0
   -4.4998    2.0686   -2.1558 N   0  0  0  0  0  0  0  0  0  0  0  0
   -3.4795    1.2841   -2.8631 C   0  0  2  0  0  0  0  0  0  0  0  0
   -2.0998    1.4198   -2.1861 C   0  0  0  0  0  0  0  0  0  0  0  0
   -1.8958    2.3309   -1.3903 O   0  0  0  0  0  0  0  0  0  0  0  0
   -3.4193    1.7615   -4.3173 C   0  0  0  0  0  0  0  0  0  0  0  0
   -4.1575    2.7804   -1.5104 H   0  0  0  0  0  0  0  0  0  0  0  0
   -3.7499    0.2226   -2.8423 H   0  0  0  0  0  0  0  0  0  0  0  0
   -3.1388    2.8186   -4.3625 H   0  0  0  0  0  0  0  0  0  0  0  0
   -2.6842    1.1814   -4.8832 H   0  0  0  0  0  0  0  0  0  0  0  0
   -4.3963    1.6395   -4.7959 H   0  0  0  0  0  0  0  0  0  0  0  0
   -1.0846    0.5313   -2.4867 N   0  0  0  0  0  0  0  0  0  0  0  0
    0.3007    0.6758   -2.0075 C   0  0  2  0  0  0  0  0  0  0  0  0
    1.3001    0.4150   -3.1645 C   0  0  0  0  0  0  0  0  0  0  0  0
    0.8908    0.3818   -4.3208 O   0  0  0  0  0  0  0  0  0  0  0  0
    0.5253   -0.3826   -0.9125 C   0  0  0  0  0  0  0  0  0  0  0  0
   -0.4965   -0.1437    0.5906 S   0  0  0  0  0  0  0  0  0  0  0  0
   -1.2284   -0.0539   -3.3073 H   0  0  0  0  0  0  0  0  0  0  0  0
    0.4910    1.6771   -1.6067 H   0  0  0  0  0  0  0  0  0  0  0  0
    0.3204   -1.3725   -1.3302 H   0  0  0  0  0  0  0  0  0  0  0  0
    1.5679   -0.3631   -0.5852 H   0  0  0  0  0  0  0  0  0  0  0  0
    2.5584   -0.1076   -2.9067 N   0  0  0  0  0  0  0  0  0  0  0  0
    3.1892   -1.0932   -3.7952 C   0  0  2  0  0  0  0  0  0  0  0  0
    2.7092   -2.5284   -3.4759 C   0  0  0  0  0  0  0  0  0  0  0  0
    2.3262   -2.8196   -2.3439 O   0  0  0  0  0  0  0  0  0  0  0  0
    4.7040   -0.9825   -3.6112 C   0  0  0  0  0  0  0  0  0  0  0  0
    2.7771   -0.2111   -1.9195 H   0  0  0  0  0  0  0  0  0  0  0  0
    2.9533   -0.8729   -4.8420 H   0  0  0  0  0  0  0  0  0  0  0  0
    4.9849   -1.2091   -2.5776 H   0  0  0  0  0  0  0  0  0  0  0  0
    5.2216   -1.6832   -4.2736 H   0  0  0  0  0  0  0  0  0  0  0  0
    5.0409    0.0312   -3.8500 H   0  0  0  0  0  0  0  0  0  0  0  0
    2.7276   -3.5049   -4.4531 N   0  0  0  0  0  0  0  0  0  0  0  0
    2.2394   -4.8625   -4.2403 C   0  0  0  0  0  0  0  0  0  0  0  0
    2.9740   -3.2178   -5.3967 H   0  0  0  0  0  0  0  0  0  0  0  0
    2.7588   -5.3316   -3.3979 H   0  0  0  0  0  0  0  0  0  0  0  0
    1.1643   -4.8551   -4.0325 H   0  0  0  0  0  0  0  0  0  0  0  0
    2.4155   -5.4702   -5.1332 H   0  0  0  0  0  0  0  0  0  0  0  0
  1  2  2  0  0  0  0
  1  3  1  0  0  0  0
  1  7  1  0  0  0  0
  3  4  1  0  0  0  0
  3  5  1  0  0  0  0
  3  6  1  0  0  0  0
  7  8  1  0  0  0  0
  7 13  1  0  0  0  0
  8  9  1  0  0  0  0
  8 11  1  0  0  0  0
  8 14  1  0  0  0  0
  9 10  2  0  0  0  0
  9 17  1  0  0  0  0
 11 12  1  0  0  0  0
 11 15  1  0  0  0  0
 11 16  1  0  0  0  0
 12 44  1  0  0  0  0
 17 18  1  0  0  0  0
 17 19  1  0  0  0  0
 18 20  1  0  0  0  0
 18 21  1  0  0  0  0
 18 22  1  0  0  0  0
 23 24  2  0  0  0  0
 23 25  1  0  0  0  0
 23 29  1  0  0  0  0
 25 26  1  0  0  0  0
 25 27  1  0  0  0  0
 25 28  1  0  0  0  0
 29 30  1  0  0  0  0
 29 34  1  0  0  0  0
 30 31  1  0  0  0  0
 30 33  1  0  0  0  0
 30 35  1  0  0  0  0
 31 32  2  0  0  0  0
 31 39  1  0  0  0  0
 33 36  1  0  0  0  0
 33 37  1  0  0  0  0
 33 38  1  0  0  0  0
 39 40  1  0  0  0  0
 39 45  1  0  0  0  0
 40 41  1  0  0  0  0
 40 43  1  0  0  0  0
 40 46  1  0  0  0  0
 41 42  2  0  0  0  0
 41 49  1  0  0  0  0
 43 44  1  0  0  0  0
 43 47  1  0  0  0  0
 43 48  1  0  0  0  0
 49 50  1  0  0  0  0
 49 54  1  0  0  0  0
 50 51  1  0  0  0  0
 50 53  1  0  0  0  0
 50 55  1  0  0  0  0
 51 52  2  0  0  0  0
 51 59  1  0  0  0  0
 53 56  1  0  0  0  0
 53 57  1  0  0  0  0
 53 58  1  0  0  0  0
 59 60  1  0  0  0  0
 59 61  1  0  0  0  0
 60 62  1  0  0  0  0
 60 63  1  0  0  0  0
 60 64  1  0  0  0  0
M  END
$$$$

  -OEChem-05262216053D

 64 63  0     1  0  0  0  0  0999 V2000
   -1.1407   -4.2119    4.3095 C   0  0  0  0  0  0  0  0  0  0  0  0
   -2.2403   -4.4216    3.8217 O   0  0  0  0  0  0  0  0  0  0  0  0
   -0.9691   -4.1706    5.8160 C   0  0  0  0  0  0  0  0  0  0  0  0
   -0.6116   -3.1848    6.1231 H   0  0  0  0  0  0  0  0  0  0  0  0
   -1.9248   -4.3685    6.3095 H   0  0  0  0  0  0  0  0  0  0  0  0
   -0.2466   -4.9274    6.1308 H   0  0  0  0  0  0  0  0  0  0  0  0
   -0.0520   -4.0224    3.4875 N   0  0  0  0  0  0  0  0  0  0  0  0
   -0.0860   -4.1229    2.0218 C   0  0  2  0  0  0  0  0  0  0  0  0
    1.2807   -4.5502    1.4419 C   0  0  0  0  0  0  0  0  0  0  0  0
    2.2423   -4.7157    2.1861 O   0  0  0  0  0  0  0  0  0  0  0  0
   -0.5434   -2.7792    1.4344 C   0  0  0  0  0  0  0  0  0  0  0  0
    0.6435   -1.4323    1.8363 S   0  0  0  0  0  0  0  0  0  0  0  0
    0.8656   -3.9391    3.9229 H   0  0  0  0  0  0  0  0  0  0  0  0
   -0.8054   -4.8958    1.7323 H   0  0  0  0  0  0  0  0  0  0  0  0
   -0.6433   -2.8646    0.3487 H   0  0  0  0  0  0  0  0  0  0  0  0
   -1.5293   -2.5192    1.8343 H   0  0  0  0  0  0  0  0  0  0  0  0
    1.4273   -4.7956    0.0880 N   0  0  0  0  0  0  0  0  0  0  0  0
    2.6968   -5.1669   -0.5259 C   0  0  0  0  0  0  0  0  0  0  0  0
    0.6336   -4.6093   -0.5171 H   0  0  0  0  0  0  0  0  0  0  0  0
    3.4171   -4.3462   -0.4439 H   0  0  0  0  0  0  0  0  0  0  0  0
    3.1152   -6.0547   -0.0399 H   0  0  0  0  0  0  0  0  0  0  0  0
    2.5508   -5.3942   -1.5863 H   0  0  0  0  0  0  0  0  0  0  0  0
   -5.5058    1.0517   -1.3843 C   0  0  0  0  0  0  0  0  0  0  0  0
   -5.8325   -0.0118   -1.8873 O   0  0  0  0  0  0  0  0  0  0  0  0
   -6.3473    1.6576   -0.2775 C   0  0  0  0  0  0  0  0  0  0  0  0
   -6.6932    2.6505   -0.5743 H   0  0  0  0  0  0  0  0  0  0  0  0
   -7.2173    1.0263   -0.0763 H   0  0  0  0  0  0  0  0  0  0  0  0
   -5.7548    1.7425    0.6368 H   0  0  0  0  0  0  0  0  0  0  0  0
   -4.3666    1.7015   -1.8108 N   0  0  0  0  0  0  0  0  0  0  0  0
   -3.3537    1.0959   -2.6863 C   0  0  2  0  0  0  0  0  0  0  0  0
   -1.9347    1.2873   -2.1139 C   0  0  0  0  0  0  0  0  0  0  0  0
   -1.7038    2.2318   -1.3668 O   0  0  0  0  0  0  0  0  0  0  0  0
   -3.4666    1.7428   -4.0685 C   0  0  0  0  0  0  0  0  0  0  0  0
   -4.0584    2.4957   -1.2505 H   0  0  0  0  0  0  0  0  0  0  0  0
   -3.5255    0.0185   -2.7802 H   0  0  0  0  0  0  0  0  0  0  0  0
   -3.2928    2.8216   -4.0020 H   0  0  0  0  0  0  0  0  0  0  0  0
   -2.7298    1.3138   -4.7546 H   0  0  0  0  0  0  0  0  0  0  0  0
   -4.4654    1.5750   -4.4835 H   0  0  0  0  0  0  0  0  0  0  0  0
   -0.9190    0.4168   -2.4664 N   0  0  0  0  0  0  0  0  0  0  0  0
    0.4960    0.6147   -2.1032 C   0  0  2  0  0  0  0  0  0  0  0  0
    1.4029    0.3423   -3.3295 C   0  0  0  0  0  0  0  0  0  0  0  0
    1.0058    0.6478   -4.4477 O   0  0  0  0  0  0  0  0  0  0  0  0
    0.8399   -0.3309   -0.9345 C   0  0  0  0  0  0  0  0  0  0  0  0
   -0.0861    0.0774    0.5981 S   0  0  0  0  0  0  0  0  0  0  0  0
   -1.1148   -0.1988   -3.2521 H   0  0  0  0  0  0  0  0  0  0  0  0
    0.6810    1.6484   -1.7904 H   0  0  0  0  0  0  0  0  0  0  0  0
    0.6273   -1.3651   -1.2233 H   0  0  0  0  0  0  0  0  0  0  0  0
    1.9051   -0.2571   -0.6963 H   0  0  0  0  0  0  0  0  0  0  0  0
    2.5594   -0.4128   -3.2264 N   0  0  0  0  0  0  0  0  0  0  0  0
    3.2203   -1.0837   -4.3559 C   0  0  2  0  0  0  0  0  0  0  0  0
    3.2730   -2.6117   -4.1399 C   0  0  0  0  0  0  0  0  0  0  0  0
    2.9454   -3.0914   -3.0587 O   0  0  0  0  0  0  0  0  0  0  0  0
    4.6285   -0.4977   -4.4832 C   0  0  0  0  0  0  0  0  0  0  0  0
    2.7297   -0.8328   -2.3145 H   0  0  0  0  0  0  0  0  0  0  0  0
    2.6796   -0.9061   -5.2913 H   0  0  0  0  0  0  0  0  0  0  0  0
    5.2061   -0.6826   -3.5717 H   0  0  0  0  0  0  0  0  0  0  0  0
    5.1585   -0.9467   -5.3285 H   0  0  0  0  0  0  0  0  0  0  0  0
    4.5723    0.5833   -4.6470 H   0  0  0  0  0  0  0  0  0  0  0  0
    3.6876   -3.4530   -5.1554 N   0  0  0  0  0  0  0  0  0  0  0  0
    3.8014   -4.8987   -5.0037 C   0  0  0  0  0  0  0  0  0  0  0  0
    3.9547   -3.0292   -6.0396 H   0  0  0  0  0  0  0  0  0  0  0  0
    4.5444   -5.1460   -4.2385 H   0  0  0  0  0  0  0  0  0  0  0  0
    2.8388   -5.3325   -4.7135 H   0  0  0  0  0  0  0  0  0  0  0  0
    4.1135   -5.3545   -5.9481 H   0  0  0  0  0  0  0  0  0  0  0  0
  1  2  2  0  0  0  0
  1  3  1  0  0  0  0
  1  7  1  0  0  0  0
  3  4  1  0  0  0  0
  3  5  1  0  0  0  0
  3  6  1  0  0  0  0
  7  8  1  0  0  0  0
  7 13  1  0  0  0  0
  8  9  1  0  0  0  0
  8 11  1  0  0  0  0
  8 14  1  0  0  0  0
  9 10  2  0  0  0  0
  9 17  1  0  0  0  0
 11 12  1  0  0  0  0
 11 15  1  0  0  0  0
 11 16  1  0  0  0  0
 12 44  1  0  0  0  0
 17 18  1  0  0  0  0
 17 19  1  0  0  0  0
 18 20  1  0  0  0  0
 18 21  1  0  0  0  0
 18 22  1  0  0  0  0
 23 24  2  0  0  0  0
 23 25  1  0  0  0  0
 23 29  1  0  0  0  0
 25 26  1  0  0  0  0
 25 27  1  0  0  0  0
 25 28  1  0  0  0  0
 29 30  1  0  0  0  0
 29 34  1  0  0  0  0
 30 31  1  0  0  0  0
 30 33  1  0  0  0  0
 30 35  1  0  0  0  0
 31 32  2  0  0  0  0
 31 39  1  0  0  0  0
 33 36  1  0  0  0  0
 33 37  1  0  0  0  0
 33 38  1  0  0  0  0
 39 40  1  0  0  0  0
 39 45  1  0  0  0  0
 40 41  1  0  0  0  0
 40 43  1  0  0  0  0
 40 46  1  0  0  0  0
 41 42  2  0  0  0  0
 41 49  1  0  0  0  0
 43 44  1  0  0  0  0
 43 47  1  0  0  0  0
 43 48  1  0  0  0  0
 49 50  1  0  0  0  0
 49 54  1  0  0  0  0
 50 51  1  0  0  0  0
 50 53  1  0  0  0  0
 50 55  1  0  0  0  0
 51 52  2  0  0  0  0
 51 59  1  0  0  0  0
 53 56  1  0  0  0  0
 53 57  1  0  0  0  0
 53 58  1  0  0  0  0
 59 60  1  0  0  0  0
 59 61  1  0  0  0  0
 60 62  1  0  0  0  0
 60 63  1  0  0  0  0
 60 64  1  0  0  0  0
M  END
$$$$

  -OEChem-05262216053D

 64 63  0     1  0  0  0  0  0999 V2000
   -1.1754   -4.1373    4.3215 C   0  0  0  0  0  0  0  0  0  0  0  0
   -2.2991   -4.2932    3.8698 O   0  0  0  0  0  0  0  0  0  0  0  0
   -0.9615   -4.0432    5.8204 C   0  0  0  0  0  0  0  0  0  0  0  0
   -0.4434   -3.1128    6.0651 H   0  0  0  0  0  0  0  0  0  0  0  0
   -1.9240   -4.0559    6.3397 H   0  0  0  0  0  0  0  0  0  0  0  0
   -0.3617   -4.8887    6.1661 H   0  0  0  0  0  0  0  0  0  0  0  0
   -0.1011   -4.0467    3.4642 N   0  0  0  0  0  0  0  0  0  0  0  0
   -0.1904   -4.1299    1.9996 C   0  0  2  0  0  0  0  0  0  0  0  0
    1.1416   -4.5826    1.3614 C   0  0  0  0  0  0  0  0  0  0  0  0
    2.1438   -4.7233    2.0550 O   0  0  0  0  0  0  0  0  0  0  0  0
   -0.6274   -2.7668    1.4416 C   0  0  0  0  0  0  0  0  0  0  0  0
    0.5980   -1.4548    1.8448 S   0  0  0  0  0  0  0  0  0  0  0  0
    0.8308   -3.9657    3.8689 H   0  0  0  0  0  0  0  0  0  0  0  0
   -0.9420   -4.8791    1.7296 H   0  0  0  0  0  0  0  0  0  0  0  0
   -0.7471   -2.8329    0.3567 H   0  0  0  0  0  0  0  0  0  0  0  0
   -1.6001   -2.4903    1.8617 H   0  0  0  0  0  0  0  0  0  0  0  0
    1.2134   -4.8634    0.0080 N   0  0  0  0  0  0  0  0  0  0  0  0
    2.4441   -5.2563   -0.6686 C   0  0  0  0  0  0  0  0  0  0  0  0
    0.3810   -4.7116   -0.5536 H   0  0  0  0  0  0  0  0  0  0  0  0
    3.1393   -4.4119   -0.7185 H   0  0  0  0  0  0  0  0  0  0  0  0
    2.9298   -6.0840   -0.1411 H   0  0  0  0  0  0  0  0  0  0  0  0
    2.2242   -5.5856   -1.6888 H   0  0  0  0  0  0  0  0  0  0  0  0
   -5.4456    1.0045   -1.3128 C   0  0  0  0  0  0  0  0  0  0  0  0
   -5.7597   -0.0624   -1.8169 O   0  0  0  0  0  0  0  0  0  0  0  0
   -6.2750    1.5863   -0.1840 C   0  0  0  0  0  0  0  0  0  0  0  0
   -6.6673    2.5633   -0.4755 H   0  0  0  0  0  0  0  0  0  0  0  0
   -7.1139    0.9243    0.0483 H   0  0  0  0  0  0  0  0  0  0  0  0
   -5.6574    1.7008    0.7103 H   0  0  0  0  0  0  0  0  0  0  0  0
   -4.3304    1.6814   -1.7596 N   0  0  0  0  0  0  0  0  0  0  0  0
   -3.3315    1.1105   -2.6729 C   0  0  2  0  0  0  0  0  0  0  0  0
   -1.9026    1.2952   -2.1249 C   0  0  0  0  0  0  0  0  0  0  0  0
   -1.6508    2.2476   -1.3955 O   0  0  0  0  0  0  0  0  0  0  0  0
   -3.4816    1.8013   -4.0298 C   0  0  0  0  0  0  0  0  0  0  0  0
   -4.0272    2.4798   -1.2028 H   0  0  0  0  0  0  0  0  0  0  0  0
   -3.4973    0.0354   -2.7988 H   0  0  0  0  0  0  0  0  0  0  0  0
   -3.3154    2.8790   -3.9312 H   0  0  0  0  0  0  0  0  0  0  0  0
   -2.7579    1.4021   -4.7469 H   0  0  0  0  0  0  0  0  0  0  0  0
   -4.4887    1.6383   -4.4265 H   0  0  0  0  0  0  0  0  0  0  0  0
   -0.9058    0.4006   -2.4705 N   0  0  0  0  0  0  0  0  0  0  0  0
    0.5129    0.5619   -2.1045 C   0  0  2  0  0  0  0  0  0  0  0  0
    1.4189    0.2641   -3.3233 C   0  0  0  0  0  0  0  0  0  0  0  0
    1.1833    0.8085   -4.3940 O   0  0  0  0  0  0  0  0  0  0  0  0
    0.8337   -0.3774   -0.9253 C   0  0  0  0  0  0  0  0  0  0  0  0
   -0.0804    0.0735    0.6016 S   0  0  0  0  0  0  0  0  0  0  0  0
   -1.1343   -0.2632   -3.2053 H   0  0  0  0  0  0  0  0  0  0  0  0
    0.7221    1.5935   -1.7997 H   0  0  0  0  0  0  0  0  0  0  0  0
    0.5893   -1.4088   -1.1979 H   0  0  0  0  0  0  0  0  0  0  0  0
    1.9031   -0.3300   -0.6966 H   0  0  0  0  0  0  0  0  0  0  0  0
    2.3643   -0.7477   -3.2941 N   0  0  0  0  0  0  0  0  0  0  0  0
    2.9743   -1.3609   -4.4824 C   0  0  2  0  0  0  0  0  0  0  0  0
    2.8445   -2.8990   -4.4384 C   0  0  0  0  0  0  0  0  0  0  0  0
    2.4176   -3.4500   -3.4276 O   0  0  0  0  0  0  0  0  0  0  0  0
    4.4431   -0.9322   -4.5234 C   0  0  0  0  0  0  0  0  0  0  0  0
    2.3788   -1.3214   -2.4524 H   0  0  0  0  0  0  0  0  0  0  0  0
    2.4775   -1.0196   -5.3967 H   0  0  0  0  0  0  0  0  0  0  0  0
    4.9713   -1.2878   -3.6328 H   0  0  0  0  0  0  0  0  0  0  0  0
    4.9402   -1.3379   -5.4095 H   0  0  0  0  0  0  0  0  0  0  0  0
    4.5158    0.1596   -4.5587 H   0  0  0  0  0  0  0  0  0  0  0  0
    3.1979   -3.6688   -5.5311 N   0  0  0  0  0  0  0  0  0  0  0  0
    3.1194   -5.1247   -5.5447 C   0  0  0  0  0  0  0  0  0  0  0  0
    3.5432   -3.1874   -6.3570 H   0  0  0  0  0  0  0  0  0  0  0  0
    3.7560   -5.5498   -4.7615 H   0  0  0  0  0  0  0  0  0  0  0  0
    2.0885   -5.4553   -5.3796 H   0  0  0  0  0  0  0  0  0  0  0  0
    3.4556   -5.5132   -6.5110 H   0  0  0  0  0  0  0  0  0  0  0  0
  1  2  2  0  0  0  0
  1  3  1  0  0  0  0
  1  7  1  0  0  0  0
  3  4  1  0  0  0  0
  3  5  1  0  0  0  0
  3  6  1  0  0  0  0
  7  8  1  0  0  0  0
  7 13  1  0  0  0  0
  8  9  1  0  0  0  0
  8 11  1  0  0  0  0
  8 14  1  0  0  0  0
  9 10  2  0  0  0  0
  9 17  1  0  0  0  0
 11 12  1  0  0  0  0
 11 15  1  0  0  0  0
 11 16  1  0  0  0  0
 12 44  1  0  0  0  0
 17 18  1  0  0  0  0
 17 19  1  0  0  0  0
 18 20  1  0  0  0  0
 18 21  1  0  0  0  0
 18 22  1  0  0  0  0
 23 24  2  0  0  0  0
 23 25  1  0  0  0  0
 23 29  1  0  0  0  0
 25 26  1  0  0  0  0
 25 27  1  0  0  0  0
 25 28  1  0  0  0  0
 29 30  1  0  0  0  0
 29 34  1  0  0  0  0
 30 31  1  0  0  0  0
 30 33  1  0  0  0  0
 30 35  1  0  0  0  0
 31 32  2  0  0  0  0
 31 39  1  0  0  0  0
 33 36  1  0  0  0  0
 33 37  1  0  0  0  0
 33 38  1  0  0  0  0
 39 40  1  0  0  0  0
 39 45  1  0  0  0  0
 40 41  1  0  0  0  0
 40 43  1  0  0  0  0
 40 46  1  0  0  0  0
 41 42  2  0  0  0  0
 41 49  1  0  0  0  0
 43 44  1  0  0  0  0
 43 47  1  0  0  0  0
 43 48  1  0  0  0  0
 49 50  1  0  0  0  0
 49 54  1  0  0  0  0
 50 51  1  0  0  0  0
 50 53  1  0  0  0  0
 50 55  1  0  0  0  0
 51 52  2  0  0  0  0
 51 59  1  0  0  0  0
 53 56  1  0  0  0  0
 53 57  1  0  0  0  0
 53 58  1  0  0  0  0
 59 60  1  0  0  0  0
 59 61  1  0  0  0  0
 60 62  1  0  0  0  0
 60 63  1  0  0  0  0
 60 64  1  0  0  0  0
M  END
$$$$

  -OEChem-05262216053D

 64 63  0     1  0  0  0  0  0999 V2000
   -1.1750   -4.1553    4.2636 C   0  0  0  0  0  0  0  0  0  0  0  0
   -2.3162   -4.2729    3.8455 O   0  0  0  0  0  0  0  0  0  0  0  0
   -0.9041   -4.1368    5.7558 C   0  0  0  0  0  0  0  0  0  0  0  0
   -0.3895   -3.2122    6.0282 H   0  0  0  0  0  0  0  0  0  0  0  0
   -1.8447   -4.1930    6.3105 H   0  0  0  0  0  0  0  0  0  0  0  0
   -0.2797   -4.9895    6.0332 H   0  0  0  0  0  0  0  0  0  0  0  0
   -0.1300   -4.0423    3.3736 N   0  0  0  0  0  0  0  0  0  0  0  0
   -0.2717   -4.0583    1.9111 C   0  0  2  0  0  0  0  0  0  0  0  0
    1.0266   -4.5133    1.2086 C   0  0  0  0  0  0  0  0  0  0  0  0
    2.0564   -4.6749    1.8557 O   0  0  0  0  0  0  0  0  0  0  0  0
   -0.6905   -2.6621    1.4270 C   0  0  0  0  0  0  0  0  0  0  0  0
    0.5706   -1.3954    1.8653 S   0  0  0  0  0  0  0  0  0  0  0  0
    0.8167   -3.9957    3.7482 H   0  0  0  0  0  0  0  0  0  0  0  0
   -1.0511   -4.7766    1.6358 H   0  0  0  0  0  0  0  0  0  0  0  0
   -0.8321   -2.6766    0.3430 H   0  0  0  0  0  0  0  0  0  0  0  0
   -1.6492   -2.3867    1.8787 H   0  0  0  0  0  0  0  0  0  0  0  0
    1.0388   -4.7718   -0.1511 N   0  0  0  0  0  0  0  0  0  0  0  0
    2.2268   -5.2051   -0.8776 C   0  0  0  0  0  0  0  0  0  0  0  0
    0.1769   -4.6335   -0.6709 H   0  0  0  0  0  0  0  0  0  0  0  0
    2.9343   -4.3763   -0.9813 H   0  0  0  0  0  0  0  0  0  0  0  0
    2.7234   -6.0300   -0.3556 H   0  0  0  0  0  0  0  0  0  0  0  0
    1.9498   -5.5543   -1.8769 H   0  0  0  0  0  0  0  0  0  0  0  0
   -5.4051    0.9767   -1.2613 C   0  0  0  0  0  0  0  0  0  0  0  0
   -5.7097   -0.1148   -1.7165 O   0  0  0  0  0  0  0  0  0  0  0  0
   -6.2294    1.5933   -0.1468 C   0  0  0  0  0  0  0  0  0  0  0  0
   -6.6254    2.5601   -0.4662 H   0  0  0  0  0  0  0  0  0  0  0  0
   -7.0657    0.9378    0.1110 H   0  0  0  0  0  0  0  0  0  0  0  0
   -5.6079    1.7366    0.7404 H   0  0  0  0  0  0  0  0  0  0  0  0
   -4.3027    1.6469   -1.7486 N   0  0  0  0  0  0  0  0  0  0  0  0
   -3.3072    1.0499   -2.6495 C   0  0  2  0  0  0  0  0  0  0  0  0
   -1.8731    1.2864   -2.1361 C   0  0  0  0  0  0  0  0  0  0  0  0
   -1.6273    2.2782   -1.4594 O   0  0  0  0  0  0  0  0  0  0  0  0
   -3.4891    1.6687   -4.0369 C   0  0  0  0  0  0  0  0  0  0  0  0
   -4.0047    2.4741   -1.2324 H   0  0  0  0  0  0  0  0  0  0  0  0
   -3.4550   -0.0327   -2.7191 H   0  0  0  0  0  0  0  0  0  0  0  0
   -3.3504    2.7539   -3.9930 H   0  0  0  0  0  0  0  0  0  0  0  0
   -2.7618    1.2534   -4.7411 H   0  0  0  0  0  0  0  0  0  0  0  0
   -4.4951    1.4600   -4.4141 H   0  0  0  0  0  0  0  0  0  0  0  0
   -0.8657    0.3926   -2.4536 N   0  0  0  0  0  0  0  0  0  0  0  0
    0.5513    0.5820   -2.0951 C   0  0  2  0  0  0  0  0  0  0  0  0
    1.4608    0.2564   -3.3013 C   0  0  0  0  0  0  0  0  0  0  0  0
    1.3946    0.9438   -4.3109 O   0  0  0  0  0  0  0  0  0  0  0  0
    0.8866   -0.3169   -0.8896 C   0  0  0  0  0  0  0  0  0  0  0  0
   -0.0296    0.1681    0.6255 S   0  0  0  0  0  0  0  0  0  0  0  0
   -1.1025   -0.3419   -3.1144 H   0  0  0  0  0  0  0  0  0  0  0  0
    0.7483    1.6252   -1.8228 H   0  0  0  0  0  0  0  0  0  0  0  0
    0.6474   -1.3580   -1.1269 H   0  0  0  0  0  0  0  0  0  0  0  0
    1.9580   -0.2551   -0.6715 H   0  0  0  0  0  0  0  0  0  0  0  0
    2.1903   -0.9197   -3.3496 N   0  0  0  0  0  0  0  0  0  0  0  0
    2.7200   -1.5273   -4.5778 C   0  0  2  0  0  0  0  0  0  0  0  0
    2.3065   -3.0114   -4.6790 C   0  0  0  0  0  0  0  0  0  0  0  0
    1.7682   -3.5644   -3.7237 O   0  0  0  0  0  0  0  0  0  0  0  0
    4.2433   -1.3821   -4.5542 C   0  0  0  0  0  0  0  0  0  0  0  0
    2.0547   -1.5611   -2.5699 H   0  0  0  0  0  0  0  0  0  0  0  0
    2.3270   -1.0187   -5.4645 H   0  0  0  0  0  0  0  0  0  0  0  0
    4.6652   -1.9037   -3.6891 H   0  0  0  0  0  0  0  0  0  0  0  0
    4.6846   -1.8013   -5.4633 H   0  0  0  0  0  0  0  0  0  0  0  0
    4.5204   -0.3246   -4.4932 H   0  0  0  0  0  0  0  0  0  0  0  0
    2.5288   -3.7272   -5.8407 N   0  0  0  0  0  0  0  0  0  0  0  0
    2.1733   -5.1323   -5.9993 C   0  0  0  0  0  0  0  0  0  0  0  0
    2.9639   -3.2401   -6.6194 H   0  0  0  0  0  0  0  0  0  0  0  0
    2.7141   -5.7486   -5.2734 H   0  0  0  0  0  0  0  0  0  0  0  0
    1.0976   -5.2760   -5.8528 H   0  0  0  0  0  0  0  0  0  0  0  0
    2.4328   -5.4766   -7.0052 H   0  0  0  0  0  0  0  0  0  0  0  0
  1  2  2  0  0  0  0
  1  3  1  0  0  0  0
  1  7  1  0  0  0  0
  3  4  1  0  0  0  0
  3  5  1  0  0  0  0
  3  6  1  0  0  0  0
  7  8  1  0  0  0  0
  7 13  1  0  0  0  0
  8  9  1  0  0  0  0
  8 11  1  0  0  0  0
  8 14  1  0  0  0  0
  9 10  2  0  0  0  0
  9 17  1  0  0  0  0
 11 12  1  0  0  0  0
 11 15  1  0  0  0  0
 11 16  1  0  0  0  0
 12 44  1  0  0  0  0
 17 18  1  0  0  0  0
 17 19  1  0  0  0  0
 18 20  1  0  0  0  0
 18 21  1  0  0  0  0
 18 22  1  0  0  0  0
 23 24  2  0  0  0  0
 23 25  1  0  0  0  0
 23 29  1  0  0  0  0
 25 26  1  0  0  0  0
 25 27  1  0  0  0  0
 25 28  1  0  0  0  0
 29 30  1  0  0  0  0
 29 34  1  0  0  0  0
 30 31  1  0  0  0  0
 30 33  1  0  0  0  0
 30 35  1  0  0  0  0
 31 32  2  0  0  0  0
 31 39  1  0  0  0  0
 33 36  1  0  0  0  0
 33 37  1  0  0  0  0
 33 38  1  0  0  0  0
 39 40  1  0  0  0  0
 39 45  1  0  0  0  0
 40 41  1  0  0  0  0
 40 43  1  0  0  0  0
 40 46  1  0  0  0  0
 41 42  2  0  0  0  0
 41 49  1  0  0  0  0
 43 44  1  0  0  0  0
 43 47  1  0  0  0  0
 43 48  1  0  0  0  0
 49 50  1  0  0  0  0
 49 54  1  0  0  0  0
 50 51  1  0  0  0  0
 50 53  1  0  0  0  0
 50 55  1  0  0  0  0
 51 52  2  0  0  0  0
 51 59  1  0  0  0  0
 53 56  1  0  0  0  0
 53 57  1  0  0  0  0
 53 58  1  0  0  0  0
 59 60  1  0  0  0  0
 59 61  1  0  0  0  0
 60 62  1  0  0  0  0
 60 63  1  0  0  0  0
 60 64  1  0  0  0  0
M  END
$$$$

  -OEChem-05262216053D

 64 63  0     1  0  0  0  0  0999 V2000
   -0.7742   -4.1516    3.5774 C   0  0  0  0  0  0  0  0  0  0  0  0
   -1.7378   -4.8113    3.2213 O   0  0  0  0  0  0  0  0  0  0  0  0
    0.1045   -4.6447    4.7113 C   0  0  0  0  0  0  0  0  0  0  0  0
    0.1452   -3.8950    5.5049 H   0  0  0  0  0  0  0  0  0  0  0  0
   -0.2998   -5.5731    5.1238 H   0  0  0  0  0  0  0  0  0  0  0  0
    1.1161   -4.8335    4.3436 H   0  0  0  0  0  0  0  0  0  0  0  0
   -0.4740   -2.9620    2.9495 N   0  0  0  0  0  0  0  0  0  0  0  0
   -1.1051   -2.5314    1.6926 C   0  0  2  0  0  0  0  0  0  0  0  0
   -0.3444   -3.0173    0.4405 C   0  0  0  0  0  0  0  0  0  0  0  0
    0.8611   -3.2538    0.4791 O   0  0  0  0  0  0  0  0  0  0  0  0
   -1.2174   -1.0047    1.6948 C   0  0  0  0  0  0  0  0  0  0  0  0
    0.3695   -0.1858    2.1388 S   0  0  0  0  0  0  0  0  0  0  0  0
    0.4317   -2.5542    3.1670 H   0  0  0  0  0  0  0  0  0  0  0  0
   -2.1206   -2.9374    1.6278 H   0  0  0  0  0  0  0  0  0  0  0  0
   -1.5431   -0.6616    0.7083 H   0  0  0  0  0  0  0  0  0  0  0  0
   -1.9809   -0.7011    2.4169 H   0  0  0  0  0  0  0  0  0  0  0  0
   -1.0363   -3.2261   -0.7366 N   0  0  0  0  0  0  0  0  0  0  0  0
   -0.5277   -4.0561   -1.8196 C   0  0  0  0  0  0  0  0  0  0  0  0
   -2.0413   -3.0282   -0.7092 H   0  0  0  0  0  0  0  0  0  0  0  0
    0.5306   -3.8517   -2.0093 H   0  0  0  0  0  0  0  0  0  0  0  0
   -0.6362   -5.1153   -1.5658 H   0  0  0  0  0  0  0  0  0  0  0  0
   -1.0866   -3.8583   -2.7393 H   0  0  0  0  0  0  0  0  0  0  0  0
   -4.1832   -0.8001   -0.7716 C   0  0  0  0  0  0  0  0  0  0  0  0
   -3.5875   -1.8545   -0.5949 O   0  0  0  0  0  0  0  0  0  0  0  0
   -5.2125   -0.3356    0.2405 C   0  0  0  0  0  0  0  0  0  0  0  0
   -6.1629   -0.1333   -0.2594 H   0  0  0  0  0  0  0  0  0  0  0  0
   -5.3719   -1.1065    0.9998 H   0  0  0  0  0  0  0  0  0  0  0  0
   -4.8656    0.5772    0.7312 H   0  0  0  0  0  0  0  0  0  0  0  0
   -3.8866   -0.0033   -1.8577 N   0  0  0  0  0  0  0  0  0  0  0  0
   -2.7301   -0.2324   -2.7350 C   0  0  2  0  0  0  0  0  0  0  0  0
   -1.5013    0.5866   -2.2912 C   0  0  0  0  0  0  0  0  0  0  0  0
   -1.6294    1.7577   -1.9566 O   0  0  0  0  0  0  0  0  0  0  0  0
   -3.1336    0.1436   -4.1615 C   0  0  0  0  0  0  0  0  0  0  0  0
   -4.2491    0.9470   -1.8229 H   0  0  0  0  0  0  0  0  0  0  0  0
   -2.4521   -1.2918   -2.7318 H   0  0  0  0  0  0  0  0  0  0  0  0
   -3.3986    1.2043   -4.2197 H   0  0  0  0  0  0  0  0  0  0  0  0
   -2.3055   -0.0456   -4.8521 H   0  0  0  0  0  0  0  0  0  0  0  0
   -3.9947   -0.4509   -4.4815 H   0  0  0  0  0  0  0  0  0  0  0  0
   -0.2621   -0.0160   -2.2888 N   0  0  0  0  0  0  0  0  0  0  0  0
    1.0305    0.6414   -2.0385 C   0  0  2  0  0  0  0  0  0  0  0  0
    2.0277    0.1451   -3.0950 C   0  0  0  0  0  0  0  0  0  0  0  0
    2.0569    0.6531   -4.2096 O   0  0  0  0  0  0  0  0  0  0  0  0
    1.5196    0.4291   -0.5970 C   0  0  0  0  0  0  0  0  0  0  0  0
    0.4099    1.2390    0.6246 S   0  0  0  0  0  0  0  0  0  0  0  0
   -0.2254   -0.9490   -2.7092 H   0  0  0  0  0  0  0  0  0  0  0  0
    0.9276    1.7212   -2.1965 H   0  0  0  0  0  0  0  0  0  0  0  0
    1.5611   -0.6428   -0.3799 H   0  0  0  0  0  0  0  0  0  0  0  0
    2.5286    0.8367   -0.4808 H   0  0  0  0  0  0  0  0  0  0  0  0
    2.7888   -0.9842   -2.8470 N   0  0  0  0  0  0  0  0  0  0  0  0
    3.0775   -1.8877   -3.9703 C   0  0  2  0  0  0  0  0  0  0  0  0
    1.7935   -2.4086   -4.6724 C   0  0  0  0  0  0  0  0  0  0  0  0
    0.6972   -2.3494   -4.1165 O   0  0  0  0  0  0  0  0  0  0  0  0
    3.8870   -3.0637   -3.4195 C   0  0  0  0  0  0  0  0  0  0  0  0
    2.5773   -1.4362   -1.9601 H   0  0  0  0  0  0  0  0  0  0  0  0
    3.6814   -1.3556   -4.7134 H   0  0  0  0  0  0  0  0  0  0  0  0
    3.3011   -3.6196   -2.6798 H   0  0  0  0  0  0  0  0  0  0  0  0
    4.1657   -3.7483   -4.2264 H   0  0  0  0  0  0  0  0  0  0  0  0
    4.8033   -2.7042   -2.9410 H   0  0  0  0  0  0  0  0  0  0  0  0
    1.8694   -2.9539   -5.9406 N   0  0  0  0  0  0  0  0  0  0  0  0
    0.6986   -3.3831   -6.6961 C   0  0  0  0  0  0  0  0  0  0  0  0
    2.7636   -2.8951   -6.4194 H   0  0  0  0  0  0  0  0  0  0  0  0
    0.1354   -4.1380   -6.1374 H   0  0  0  0  0  0  0  0  0  0  0  0
    0.0412   -2.5313   -6.8995 H   0  0  0  0  0  0  0  0  0  0  0  0
    1.0048   -3.8206   -7.6512 H   0  0  0  0  0  0  0  0  0  0  0  0
  1  2  2  0  0  0  0
  1  3  1  0  0  0  0
  1  7  1  0  0  0  0
  3  4  1  0  0  0  0
  3  5  1  0  0  0  0
  3  6  1  0  0  0  0
  7  8  1  0  0  0  0
  7 13  1  0  0  0  0
  8  9  1  0  0  0  0
  8 11  1  0  0  0  0
  8 14  1  0  0  0  0
  9 10  2  0  0  0  0
  9 17  1  0  0  0  0
 11 12  1  0  0  0  0
 11 15  1  0  0  0  0
 11 16  1  0  0  0  0
 12 44  1  0  0  0  0
 17 18  1  0  0  0  0
 17 19  1  0  0  0  0
 18 20  1  0  0  0  0
 18 21  1  0  0  0  0
 18 22  1  0  0  0  0
 23 24  2  0  0  0  0
 23 25  1  0  0  0  0
 23 29  1  0  0  0  0
 25 26  1  0  0  0  0
 25 27  1  0  0  0  0
 25 28  1  0  0  0  0
 29 30  1  0  0  0  0
 29 34  1  0  0  0  0
 30 31  1  0  0  0  0
 30 33  1  0  0  0  0
 30 35  1  0  0  0  0
 31 32  2  0  0  0  0
 31 39  1  0  0  0  0
 33 36  1  0  0  0  0
 33 37  1  0  0  0  0
 33 38  1  0  0  0  0
 39 40  1  0  0  0  0
 39 45  1  0  0  0  0
 40 41  1  0  0  0  0
 40 43  1  0  0  0  0
 40 46  1  0  0  0  0
 41 42  2  0  0  0  0
 41 49  1  0  0  0  0
 43 44  1  0  0  0  0
 43 47  1  0  0  0  0
 43 48  1  0  0  0  0
 49 50  1  0  0  0  0
 49 54  1  0  0  0  0
 50 51  1  0  0  0  0
 50 53  1  0  0  0  0
 50 55  1  0  0  0  0
 51 52  2  0  0  0  0
 51 59  1  0  0  0  0
 53 56  1  0  0  0  0
 53 57  1  0  0  0  0
 53 58  1  0  0  0  0
 59 60  1  0  0  0  0
 59 61  1  0  0  0  0
 60 62  1  0  0  0  0
 60 63  1  0  0  0  0
 60 64  1  0  0  0  0
M  END
$$$$

  -OEChem-05262216053D

 64 63  0     1  0  0  0  0  0999 V2000
   -0.4855   -4.1821    3.0849 C   0  0  0  0  0  0  0  0  0  0  0  0
   -1.4009   -4.8917    2.6987 O   0  0  0  0  0  0  0  0  0  0  0  0
    0.5142   -4.7136    4.0939 C   0  0  0  0  0  0  0  0  0  0  0  0
    0.5010   -4.0948    4.9942 H   0  0  0  0  0  0  0  0  0  0  0  0
    0.2620   -5.7415    4.3689 H   0  0  0  0  0  0  0  0  0  0  0  0
    1.5187   -4.7003    3.6644 H   0  0  0  0  0  0  0  0  0  0  0  0
   -0.3456   -2.9022    2.5936 N   0  0  0  0  0  0  0  0  0  0  0  0
   -1.1238   -2.3880    1.4570 C   0  0  2  0  0  0  0  0  0  0  0  0
   -0.5314   -2.7992    0.0900 C   0  0  0  0  0  0  0  0  0  0  0  0
    0.6808   -2.9225   -0.0817 O   0  0  0  0  0  0  0  0  0  0  0  0
   -1.2592   -0.8642    1.5784 C   0  0  0  0  0  0  0  0  0  0  0  0
    0.2912   -0.0460    2.1422 S   0  0  0  0  0  0  0  0  0  0  0  0
    0.5176   -2.4164    2.8222 H   0  0  0  0  0  0  0  0  0  0  0  0
   -2.1369   -2.8038    1.4959 H   0  0  0  0  0  0  0  0  0  0  0  0
   -1.5697   -0.4453    0.6166 H   0  0  0  0  0  0  0  0  0  0  0  0
   -2.0478   -0.6369    2.3015 H   0  0  0  0  0  0  0  0  0  0  0  0
   -1.3960   -3.1052   -0.9428 N   0  0  0  0  0  0  0  0  0  0  0  0
   -1.0566   -3.9993   -2.0422 C   0  0  0  0  0  0  0  0  0  0  0  0
   -2.3891   -2.9451   -0.7485 H   0  0  0  0  0  0  0  0  0  0  0  0
    0.0082   -3.9527   -2.2863 H   0  0  0  0  0  0  0  0  0  0  0  0
   -1.3004   -5.0317   -1.7734 H   0  0  0  0  0  0  0  0  0  0  0  0
   -1.6248   -3.7268   -2.9365 H   0  0  0  0  0  0  0  0  0  0  0  0
   -4.3244   -0.5018   -0.7768 C   0  0  0  0  0  0  0  0  0  0  0  0
   -3.8096   -1.5740   -0.4875 O   0  0  0  0  0  0  0  0  0  0  0  0
   -5.3610    0.1103    0.1459 C   0  0  0  0  0  0  0  0  0  0  0  0
   -6.3023    0.2487   -0.3914 H   0  0  0  0  0  0  0  0  0  0  0  0
   -5.5380   -0.5447    1.0037 H   0  0  0  0  0  0  0  0  0  0  0  0
   -5.0111    1.0799    0.5098 H   0  0  0  0  0  0  0  0  0  0  0  0
   -3.9330    0.1809   -1.9102 N   0  0  0  0  0  0  0  0  0  0  0  0
   -2.7425   -0.1780   -2.6946 C   0  0  2  0  0  0  0  0  0  0  0  0
   -1.4993    0.6125   -2.2394 C   0  0  0  0  0  0  0  0  0  0  0  0
   -1.5967    1.8014   -1.9612 O   0  0  0  0  0  0  0  0  0  0  0  0
   -3.0341    0.0988   -4.1698 C   0  0  0  0  0  0  0  0  0  0  0  0
   -4.2303    1.1529   -1.9623 H   0  0  0  0  0  0  0  0  0  0  0  0
   -2.5260   -1.2455   -2.5931 H   0  0  0  0  0  0  0  0  0  0  0  0
   -3.2340    1.1632   -4.3301 H   0  0  0  0  0  0  0  0  0  0  0  0
   -2.1752   -0.1900   -4.7847 H   0  0  0  0  0  0  0  0  0  0  0  0
   -3.9050   -0.4758   -4.4995 H   0  0  0  0  0  0  0  0  0  0  0  0
   -0.2836   -0.0315   -2.1591 N   0  0  0  0  0  0  0  0  0  0  0  0
    1.0209    0.6229   -1.9587 C   0  0  2  0  0  0  0  0  0  0  0  0
    2.0038   -0.0124   -2.9493 C   0  0  0  0  0  0  0  0  0  0  0  0
    2.2504    0.5226   -4.0234 O   0  0  0  0  0  0  0  0  0  0  0  0
    1.5335    0.5122   -0.5166 C   0  0  0  0  0  0  0  0  0  0  0  0
    0.4610    1.4138    0.6694 S   0  0  0  0  0  0  0  0  0  0  0  0
   -0.2661   -0.9662   -2.5795 H   0  0  0  0  0  0  0  0  0  0  0  0
    0.9478    1.6865   -2.2129 H   0  0  0  0  0  0  0  0  0  0  0  0
    1.5887   -0.5381   -0.2231 H   0  0  0  0  0  0  0  0  0  0  0  0
    2.5448    0.9261   -0.4553 H   0  0  0  0  0  0  0  0  0  0  0  0
    2.4809   -1.2870   -2.6919 N   0  0  0  0  0  0  0  0  0  0  0  0
    2.7062   -2.1897   -3.8279 C   0  0  2  0  0  0  0  0  0  0  0  0
    1.4146   -2.4450   -4.6502 C   0  0  0  0  0  0  0  0  0  0  0  0
    0.3030   -2.2146   -4.1748 O   0  0  0  0  0  0  0  0  0  0  0  0
    3.2527   -3.5049   -3.2688 C   0  0  0  0  0  0  0  0  0  0  0  0
    2.0841   -1.7176   -1.8550 H   0  0  0  0  0  0  0  0  0  0  0  0
    3.4559   -1.7502   -4.4947 H   0  0  0  0  0  0  0  0  0  0  0  0
    2.5232   -3.9701   -2.5974 H   0  0  0  0  0  0  0  0  0  0  0  0
    3.4744   -4.2041   -4.0809 H   0  0  0  0  0  0  0  0  0  0  0  0
    4.1753   -3.3243   -2.7079 H   0  0  0  0  0  0  0  0  0  0  0  0
    1.4983   -2.9305   -5.9419 N   0  0  0  0  0  0  0  0  0  0  0  0
    0.3375   -3.0823   -6.8110 C   0  0  0  0  0  0  0  0  0  0  0  0
    2.4256   -3.0066   -6.3501 H   0  0  0  0  0  0  0  0  0  0  0  0
   -0.3890   -3.7700   -6.3652 H   0  0  0  0  0  0  0  0  0  0  0  0
   -0.1475   -2.1139   -6.9747 H   0  0  0  0  0  0  0  0  0  0  0  0
    0.6423   -3.4858   -7.7815 H   0  0  0  0  0  0  0  0  0  0  0  0
  1  2  2  0  0  0  0
  1  3  1  0  0  0  0
  1  7  1  0  0  0  0
  3  4  1  0  0  0  0
  3  5  1  0  0  0  0
  3  6  1  0  0  0  0
  7  8  1  0  0  0  0
  7 13  1  0  0  0  0
  8  9  1  0  0  0  0
  8 11  1  0  0  0  0
  8 14  1  0  0  0  0
  9 10  2  0  0  0  0
  9 17  1  0  0  0  0
 11 12  1  0  0  0  0
 11 15  1  0  0  0  0
 11 16  1  0  0  0  0
 12 44  1  0  0  0  0
 17 18  1  0  0  0  0
 17 19  1  0  0  0  0
 18 20  1  0  0  0  0
 18 21  1  0  0  0  0
 18 22  1  0  0  0  0
 23 24  2  0  0  0  0
 23 25  1  0  0  0  0
 23 29  1  0  0  0  0
 25 26  1  0  0  0  0
 25 27  1  0  0  0  0
 25 28  1  0  0  0  0
 29 30  1  0  0  0  0
 29 34  1  0  0  0  0
 30 31  1  0  0  0  0
 30 33  1  0  0  0  0
 30 35  1  0  0  0  0
 31 32  2  0  0  0  0
 31 39  1  0  0  0  0
 33 36  1  0  0  0  0
 33 37  1  0  0  0  0
 33 38  1  0  0  0  0
 39 40  1  0  0  0  0
 39 45  1  0  0  0  0
 40 41  1  0  0  0  0
 40 43  1  0  0  0  0
 40 46  1  0  0  0  0
 41 42  2  0  0  0  0
 41 49  1  0  0  0  0
 43 44  1  0  0  0  0
 43 47  1  0  0  0  0
 43 48  1  0  0  0  0
 49 50  1  0  0  0  0
 49 54  1  0  0  0  0
 50 51  1  0  0  0  0
 50 53  1  0  0  0  0
 50 55  1  0  0  0  0
 51 52  2  0  0  0  0
 51 59  1  0  0  0  0
 53 56  1  0  0  0  0
 53 57  1  0  0  0  0
 53 58  1  0  0  0  0
 59 60  1  0  0  0  0
 59 61  1  0  0  0  0
 60 62  1  0  0  0  0
 60 63  1  0  0  0  0
 60 64  1  0  0  0  0
M  END
$$$$

  -OEChem-05262216053D

 64 63  0     1  0  0  0  0  0999 V2000
   -1.3626   -3.4681    3.7448 C   0  0  0  0  0  0  0  0  0  0  0  0
   -2.5340   -3.1244    3.7869 O   0  0  0  0  0  0  0  0  0  0  0  0
   -0.6806   -3.9988    4.9909 C   0  0  0  0  0  0  0  0  0  0  0  0
    0.1605   -3.3541    5.2576 H   0  0  0  0  0  0  0  0  0  0  0  0
   -1.3863   -4.0211    5.8261 H   0  0  0  0  0  0  0  0  0  0  0  0
   -0.3133   -5.0121    4.8116 H   0  0  0  0  0  0  0  0  0  0  0  0
   -0.6566   -3.3717    2.5655 N   0  0  0  0  0  0  0  0  0  0  0  0
   -1.1855   -2.7680    1.3351 C   0  0  2  0  0  0  0  0  0  0  0  0
   -0.4396   -3.2419    0.0713 C   0  0  0  0  0  0  0  0  0  0  0  0
    0.7259   -3.6260    0.1255 O   0  0  0  0  0  0  0  0  0  0  0  0
   -1.1308   -1.2389    1.4408 C   0  0  0  0  0  0  0  0  0  0  0  0
    0.5185   -0.6409    1.9967 S   0  0  0  0  0  0  0  0  0  0  0  0
    0.3329   -3.6106    2.5793 H   0  0  0  0  0  0  0  0  0  0  0  0
   -2.2305   -3.0725    1.2133 H   0  0  0  0  0  0  0  0  0  0  0  0
   -1.3731   -0.7967    0.4707 H   0  0  0  0  0  0  0  0  0  0  0  0
   -1.8866   -0.8976    2.1548 H   0  0  0  0  0  0  0  0  0  0  0  0
   -1.1078   -3.2961   -1.1359 N   0  0  0  0  0  0  0  0  0  0  0  0
   -0.6148   -4.0358   -2.2879 C   0  0  0  0  0  0  0  0  0  0  0  0
   -2.0981   -3.0312   -1.1143 H   0  0  0  0  0  0  0  0  0  0  0  0
    0.3951   -3.7089   -2.5503 H   0  0  0  0  0  0  0  0  0  0  0  0
   -0.5920   -5.1087   -2.0715 H   0  0  0  0  0  0  0  0  0  0  0  0
   -1.2686   -3.8690   -3.1494 H   0  0  0  0  0  0  0  0  0  0  0  0
   -4.1170   -0.8651   -0.7199 C   0  0  0  0  0  0  0  0  0  0  0  0
   -3.6383   -1.9892   -0.7774 O   0  0  0  0  0  0  0  0  0  0  0  0
   -5.0290   -0.4921    0.4326 C   0  0  0  0  0  0  0  0  0  0  0  0
   -6.0280   -0.2583    0.0575 H   0  0  0  0  0  0  0  0  0  0  0  0
   -5.1025   -1.3227    1.1408 H   0  0  0  0  0  0  0  0  0  0  0  0
   -4.6308    0.3797    0.9576 H   0  0  0  0  0  0  0  0  0  0  0  0
   -3.7721    0.0815   -1.6620 N   0  0  0  0  0  0  0  0  0  0  0  0
   -2.6599   -0.0896   -2.6091 C   0  0  2  0  0  0  0  0  0  0  0  0
   -1.3844    0.6193   -2.1128 C   0  0  0  0  0  0  0  0  0  0  0  0
   -1.4541    1.7568   -1.6651 O   0  0  0  0  0  0  0  0  0  0  0  0
   -3.0907    0.4742   -3.9636 C   0  0  0  0  0  0  0  0  0  0  0  0
   -4.0330    1.0406   -1.4412 H   0  0  0  0  0  0  0  0  0  0  0  0
   -2.4270   -1.1505   -2.7477 H   0  0  0  0  0  0  0  0  0  0  0  0
   -3.3048    1.5450   -3.8849 H   0  0  0  0  0  0  0  0  0  0  0  0
   -2.2953    0.3320   -4.7023 H   0  0  0  0  0  0  0  0  0  0  0  0
   -3.9897   -0.0379   -4.3194 H   0  0  0  0  0  0  0  0  0  0  0  0
   -0.1736   -0.0364   -2.1900 N   0  0  0  0  0  0  0  0  0  0  0  0
    1.1422    0.6008   -1.9972 C   0  0  2  0  0  0  0  0  0  0  0  0
    2.0939    0.1181   -3.1014 C   0  0  0  0  0  0  0  0  0  0  0  0
    2.3956    0.8587   -4.0275 O   0  0  0  0  0  0  0  0  0  0  0  0
    1.7228    0.2862   -0.6104 C   0  0  0  0  0  0  0  0  0  0  0  0
    0.7144    1.0097    0.7458 S   0  0  0  0  0  0  0  0  0  0  0  0
   -0.1959   -0.8799   -2.7711 H   0  0  0  0  0  0  0  0  0  0  0  0
    1.0539    1.6889   -2.0963 H   0  0  0  0  0  0  0  0  0  0  0  0
    1.7780   -0.7986   -0.4743 H   0  0  0  0  0  0  0  0  0  0  0  0
    2.7402    0.6837   -0.5377 H   0  0  0  0  0  0  0  0  0  0  0  0
    2.3598   -1.2372   -3.2027 N   0  0  0  0  0  0  0  0  0  0  0  0
    2.4212   -1.8654   -4.5295 C   0  0  2  0  0  0  0  0  0  0  0  0
    1.0167   -1.9829   -5.1716 C   0  0  0  0  0  0  0  0  0  0  0  0
    0.0034   -1.8645   -4.4836 O   0  0  0  0  0  0  0  0  0  0  0  0
    3.0680   -3.2433   -4.3695 C   0  0  0  0  0  0  0  0  0  0  0  0
    1.9486   -1.7987   -2.4594 H   0  0  0  0  0  0  0  0  0  0  0  0
    3.0515   -1.2660   -5.1957 H   0  0  0  0  0  0  0  0  0  0  0  0
    2.4661   -3.8811   -3.7151 H   0  0  0  0  0  0  0  0  0  0  0  0
    3.1647   -3.7369   -5.3414 H   0  0  0  0  0  0  0  0  0  0  0  0
    4.0669   -3.1429   -3.9329 H   0  0  0  0  0  0  0  0  0  0  0  0
    0.8823   -2.2211   -6.5261 N   0  0  0  0  0  0  0  0  0  0  0  0
   -0.4069   -2.2524   -7.2066 C   0  0  0  0  0  0  0  0  0  0  0  0
    1.7303   -2.2249   -7.0863 H   0  0  0  0  0  0  0  0  0  0  0  0
   -1.0556   -3.0167   -6.7658 H   0  0  0  0  0  0  0  0  0  0  0  0
   -0.9040   -1.2796   -7.1291 H   0  0  0  0  0  0  0  0  0  0  0  0
   -0.2705   -2.4881   -8.2665 H   0  0  0  0  0  0  0  0  0  0  0  0
  1  2  2  0  0  0  0
  1  3  1  0  0  0  0
  1  7  1  0  0  0  0
  3  4  1  0  0  0  0
  3  5  1  0  0  0  0
  3  6  1  0  0  0  0
  7  8  1  0  0  0  0
  7 13  1  0  0  0  0
  8  9  1  0  0  0  0
  8 11  1  0  0  0  0
  8 14  1  0  0  0  0
  9 10  2  0  0  0  0
  9 17  1  0  0  0  0
 11 12  1  0  0  0  0
 11 15  1  0  0  0  0
 11 16  1  0  0  0  0
 12 44  1  0  0  0  0
 17 18  1  0  0  0  0
 17 19  1  0  0  0  0
 18 20  1  0  0  0  0
 18 21  1  0  0  0  0
 18 22  1  0  0  0  0
 23 24  2  0  0  0  0
 23 25  1  0  0  0  0
 23 29  1  0  0  0  0
 25 26  1  0  0  0  0
 25 27  1  0  0  0  0
 25 28  1  0  0  0  0
 29 30  1  0  0  0  0
 29 34  1  0  0  0  0
 30 31  1  0  0  0  0
 30 33  1  0  0  0  0
 30 35  1  0  0  0  0
 31 32  2  0  0  0  0
 31 39  1  0  0  0  0
 33 36  1  0  0  0  0
 33 37  1  0  0  0  0
 33 38  1  0  0  0  0
 39 40  1  0  0  0  0
 39 45  1  0  0  0  0
 40 41  1  0  0  0  0
 40 43  1  0  0  0  0
 40 46  1  0  0  0  0
 41 42  2  0  0  0  0
 41 49  1  0  0  0  0
 43 44  1  0  0  0  0
 43 47  1  0  0  0  0
 43 48  1  0  0  0  0
 49 50  1  0  0  0  0
 49 54  1  0  0  0  0
 50 51  1  0  0  0  0
 50 53  1  0  0  0  0
 50 55  1  0  0  0  0
 51 52  2  0  0  0  0
 51 59  1  0  0  0  0
 53 56  1  0  0  0  0
 53 57  1  0  0  0  0
 53 58  1  0  0  0  0
 59 60  1  0  0  0  0
 59 61  1  0  0  0  0
 60 62  1  0  0  0  0
 60 63  1  0  0  0  0
 60 64  1  0  0  0  0
M  END
$$$$

  -OEChem-05262216053D

 64 63  0     1  0  0  0  0  0999 V2000
   -1.7145   -3.2960    3.7137 C   0  0  0  0  0  0  0  0  0  0  0  0
   -2.8474   -2.8669    3.5509 O   0  0  0  0  0  0  0  0  0  0  0  0
   -1.2744   -3.7880    5.0792 C   0  0  0  0  0  0  0  0  0  0  0  0
   -0.4271   -3.1953    5.4327 H   0  0  0  0  0  0  0  0  0  0  0  0
   -2.0946   -3.6932    5.7963 H   0  0  0  0  0  0  0  0  0  0  0  0
   -0.9773   -4.8378    5.0197 H   0  0  0  0  0  0  0  0  0  0  0  0
   -0.8341   -3.3302    2.6547 N   0  0  0  0  0  0  0  0  0  0  0  0
   -1.1363   -2.8185    1.3117 C   0  0  2  0  0  0  0  0  0  0  0  0
   -0.2430   -3.4333    0.2145 C   0  0  0  0  0  0  0  0  0  0  0  0
    0.7949   -4.0199    0.5064 O   0  0  0  0  0  0  0  0  0  0  0  0
   -1.0004   -1.2909    1.3023 C   0  0  0  0  0  0  0  0  0  0  0  0
    0.6488   -0.7404    1.8997 S   0  0  0  0  0  0  0  0  0  0  0  0
    0.1095   -3.6753    2.8216 H   0  0  0  0  0  0  0  0  0  0  0  0
   -2.1672   -3.0853    1.0599 H   0  0  0  0  0  0  0  0  0  0  0  0
   -1.1575   -0.9197    0.2868 H   0  0  0  0  0  0  0  0  0  0  0  0
   -1.7725   -0.8474    1.9378 H   0  0  0  0  0  0  0  0  0  0  0  0
   -0.6274   -3.3662   -1.1124 N   0  0  0  0  0  0  0  0  0  0  0  0
    0.0185   -4.1416   -2.1617 C   0  0  0  0  0  0  0  0  0  0  0  0
   -1.5708   -3.0040   -1.2868 H   0  0  0  0  0  0  0  0  0  0  0  0
    1.0858   -3.9048   -2.2115 H   0  0  0  0  0  0  0  0  0  0  0  0
   -0.0953   -5.2134   -1.9692 H   0  0  0  0  0  0  0  0  0  0  0  0
   -0.4341   -3.9150   -3.1315 H   0  0  0  0  0  0  0  0  0  0  0  0
   -3.8512   -1.0924   -0.8142 C   0  0  0  0  0  0  0  0  0  0  0  0
   -3.2388   -2.1139   -1.0952 O   0  0  0  0  0  0  0  0  0  0  0  0
   -4.6984   -1.0377    0.4430 C   0  0  0  0  0  0  0  0  0  0  0  0
   -5.7430   -0.8512    0.1826 H   0  0  0  0  0  0  0  0  0  0  0  0
   -4.6345   -1.9852    0.9864 H   0  0  0  0  0  0  0  0  0  0  0  0
   -4.3446   -0.2374    1.0978 H   0  0  0  0  0  0  0  0  0  0  0  0
   -3.6936    0.0350   -1.5930 N   0  0  0  0  0  0  0  0  0  0  0  0
   -2.6781    0.1428   -2.6500 C   0  0  2  0  0  0  0  0  0  0  0  0
   -1.3639    0.7462   -2.1119 C   0  0  0  0  0  0  0  0  0  0  0  0
   -1.3658    1.8650   -1.6162 O   0  0  0  0  0  0  0  0  0  0  0  0
   -3.2531    1.0006   -3.7796 C   0  0  0  0  0  0  0  0  0  0  0  0
   -4.0500    0.9051   -1.2037 H   0  0  0  0  0  0  0  0  0  0  0  0
   -2.4562   -0.8446   -3.0684 H   0  0  0  0  0  0  0  0  0  0  0  0
   -3.4875    2.0077   -3.4196 H   0  0  0  0  0  0  0  0  0  0  0  0
   -2.5293    1.0838   -4.5965 H   0  0  0  0  0  0  0  0  0  0  0  0
   -4.1688    0.5474   -4.1717 H   0  0  0  0  0  0  0  0  0  0  0  0
   -0.1876    0.0317   -2.2281 N   0  0  0  0  0  0  0  0  0  0  0  0
    1.1579    0.6234   -2.0675 C   0  0  2  0  0  0  0  0  0  0  0  0
    2.0840    0.1280   -3.1903 C   0  0  0  0  0  0  0  0  0  0  0  0
    2.5680    0.9266   -3.9801 O   0  0  0  0  0  0  0  0  0  0  0  0
    1.7757    0.2486   -0.7115 C   0  0  0  0  0  0  0  0  0  0  0  0
    0.8485    0.9563    0.7093 S   0  0  0  0  0  0  0  0  0  0  0  0
   -0.2696   -0.7808   -2.8455 H   0  0  0  0  0  0  0  0  0  0  0  0
    1.1055    1.7160   -2.1406 H   0  0  0  0  0  0  0  0  0  0  0  0
    1.8045   -0.8410   -0.6131 H   0  0  0  0  0  0  0  0  0  0  0  0
    2.8072    0.6128   -0.6658 H   0  0  0  0  0  0  0  0  0  0  0  0
    2.0759   -1.2193   -3.5118 N   0  0  0  0  0  0  0  0  0  0  0  0
    2.0009   -1.6401   -4.9177 C   0  0  2  0  0  0  0  0  0  0  0  0
    0.5389   -1.6024   -5.4169 C   0  0  0  0  0  0  0  0  0  0  0  0
   -0.3849   -1.6529   -4.6063 O   0  0  0  0  0  0  0  0  0  0  0  0
    2.5811   -3.0505   -5.0347 C   0  0  0  0  0  0  0  0  0  0  0  0
    1.5551   -1.7941   -2.8529 H   0  0  0  0  0  0  0  0  0  0  0  0
    2.5992   -0.9733   -5.5483 H   0  0  0  0  0  0  0  0  0  0  0  0
    1.9859   -3.7643   -4.4579 H   0  0  0  0  0  0  0  0  0  0  0  0
    2.5896   -3.3730   -6.0804 H   0  0  0  0  0  0  0  0  0  0  0  0
    3.6091   -3.0692   -4.6592 H   0  0  0  0  0  0  0  0  0  0  0  0
    0.2530   -1.4915   -6.7636 N   0  0  0  0  0  0  0  0  0  0  0  0
   -1.1025   -1.3546   -7.2835 C   0  0  0  0  0  0  0  0  0  0  0  0
    1.0355   -1.3615   -7.3995 H   0  0  0  0  0  0  0  0  0  0  0  0
   -1.7156   -2.2134   -6.9902 H   0  0  0  0  0  0  0  0  0  0  0  0
   -1.5693   -0.4405   -6.9016 H   0  0  0  0  0  0  0  0  0  0  0  0
   -1.0841   -1.3026   -8.3765 H   0  0  0  0  0  0  0  0  0  0  0  0
  1  2  2  0  0  0  0
  1  3  1  0  0  0  0
  1  7  1  0  0  0  0
  3  4  1  0  0  0  0
  3  5  1  0  0  0  0
  3  6  1  0  0  0  0
  7  8  1  0  0  0  0
  7 13  1  0  0  0  0
  8  9  1  0  0  0  0
  8 11  1  0  0  0  0
  8 14  1  0  0  0  0
  9 10  2  0  0  0  0
  9 17  1  0  0  0  0
 11 12  1  0  0  0  0
 11 15  1  0  0  0  0
 11 16  1  0  0  0  0
 12 44  1  0  0  0  0
 17 18  1  0  0  0  0
 17 19  1  0  0  0  0
 18 20  1  0  0  0  0
 18 21  1  0  0  0  0
 18 22  1  0  0  0  0
 23 24  2  0  0  0  0
 23 25  1  0  0  0  0
 23 29  1  0  0  0  0
 25 26  1  0  0  0  0
 25 27  1  0  0  0  0
 25 28  1  0  0  0  0
 29 30  1  0  0  0  0
 29 34  1  0  0  0  0
 30 31  1  0  0  0  0
 30 33  1  0  0  0  0
 30 35  1  0  0  0  0
 31 32  2  0  0  0  0
 31 39  1  0  0  0  0
 33 36  1  0  0  0  0
 33 37  1  0  0  0  0
 33 38  1  0  0  0  0
 39 40  1  0  0  0  0
 39 45  1  0  0  0  0
 40 41  1  0  0  0  0
 40 43  1  0  0  0  0
 40 46  1  0  0  0  0
 41 42  2  0  0  0  0
 41 49  1  0  0  0  0
 43 44  1  0  0  0  0
 43 47  1  0  0  0  0
 43 48  1  0  0  0  0
 49 50  1  0  0  0  0
 49 54  1  0  0  0  0
 50 51  1  0  0  0  0
 50 53  1  0  0  0  0
 50 55  1  0  0  0  0
 51 52  2  0  0  0  0
 51 59  1  0  0  0  0
 53 56  1  0  0  0  0
 53 57  1  0  0  0  0
 53 58  1  0  0  0  0
 59 60  1  0  0  0  0
 59 61  1  0  0  0  0
 60 62  1  0  0  0  0
 60 63  1  0  0  0  0
 60 64  1  0  0  0  0
M  END
$$$$

  -OEChem-05262216053D

 64 63  0     1  0  0  0  0  0999 V2000
   -1.3034   -3.9170    4.4560 C   0  0  0  0  0  0  0  0  0  0  0  0
   -2.4231   -4.1577    4.0325 O   0  0  0  0  0  0  0  0  0  0  0  0
   -1.0889   -3.6228    5.9285 C   0  0  0  0  0  0  0  0  0  0  0  0
   -0.6103   -2.6476    6.0473 H   0  0  0  0  0  0  0  0  0  0  0  0
   -2.0477   -3.6106    6.4542 H   0  0  0  0  0  0  0  0  0  0  0  0
   -0.4518   -4.3907    6.3739 H   0  0  0  0  0  0  0  0  0  0  0  0
   -0.2315   -3.9192    3.5911 N   0  0  0  0  0  0  0  0  0  0  0  0
   -0.3158   -4.2198    2.1551 C   0  0  2  0  0  0  0  0  0  0  0  0
    1.0051   -4.8021    1.6074 C   0  0  0  0  0  0  0  0  0  0  0  0
    2.0017   -4.8591    2.3201 O   0  0  0  0  0  0  0  0  0  0  0  0
   -0.7086   -2.9437    1.3949 C   0  0  0  0  0  0  0  0  0  0  0  0
    0.5425   -1.6146    1.6227 S   0  0  0  0  0  0  0  0  0  0  0  0
    0.6996   -3.7835    3.9830 H   0  0  0  0  0  0  0  0  0  0  0  0
   -1.0878   -4.9793    1.9927 H   0  0  0  0  0  0  0  0  0  0  0  0
   -0.8143   -3.1632    0.3292 H   0  0  0  0  0  0  0  0  0  0  0  0
   -1.6792   -2.5890    1.7570 H   0  0  0  0  0  0  0  0  0  0  0  0
    1.0720   -5.2982    0.3170 N   0  0  0  0  0  0  0  0  0  0  0  0
    2.2882   -5.8587   -0.2604 C   0  0  0  0  0  0  0  0  0  0  0  0
    0.2238   -5.2816   -0.2411 H   0  0  0  0  0  0  0  0  0  0  0  0
    3.0848   -5.1074   -0.2761 H   0  0  0  0  0  0  0  0  0  0  0  0
    2.6291   -6.7212    0.3223 H   0  0  0  0  0  0  0  0  0  0  0  0
    2.1037   -6.1872   -1.2876 H   0  0  0  0  0  0  0  0  0  0  0  0
   -5.3613    1.1187   -0.7789 C   0  0  0  0  0  0  0  0  0  0  0  0
   -5.6992   -0.0342   -0.9977 O   0  0  0  0  0  0  0  0  0  0  0  0
   -6.0309    1.9090    0.3292 C   0  0  0  0  0  0  0  0  0  0  0  0
   -6.5456    2.7763   -0.0913 H   0  0  0  0  0  0  0  0  0  0  0  0
   -6.7611    1.2837    0.8507 H   0  0  0  0  0  0  0  0  0  0  0  0
   -5.2829    2.2502    1.0487 H   0  0  0  0  0  0  0  0  0  0  0  0
   -4.3723    1.7071   -1.5394 N   0  0  0  0  0  0  0  0  0  0  0  0
   -3.5320    0.9825   -2.5022 C   0  0  2  0  0  0  0  0  0  0  0  0
   -2.0348    1.2733   -2.2781 C   0  0  0  0  0  0  0  0  0  0  0  0
   -1.6853    2.3387   -1.7851 O   0  0  0  0  0  0  0  0  0  0  0  0
   -3.9552    1.4003   -3.9126 C   0  0  0  0  0  0  0  0  0  0  0  0
   -4.0185    2.6064   -1.2149 H   0  0  0  0  0  0  0  0  0  0  0  0
   -3.6738   -0.0977   -2.3945 H   0  0  0  0  0  0  0  0  0  0  0  0
   -3.8138    2.4770   -4.0517 H   0  0  0  0  0  0  0  0  0  0  0  0
   -3.3621    0.8711   -4.6650 H   0  0  0  0  0  0  0  0  0  0  0  0
   -5.0113    1.1632   -4.0761 H   0  0  0  0  0  0  0  0  0  0  0  0
   -1.0866    0.3467   -2.6744 N   0  0  0  0  0  0  0  0  0  0  0  0
    0.3463    0.4320   -2.3200 C   0  0  2  0  0  0  0  0  0  0  0  0
    1.2575    0.1527   -3.5302 C   0  0  0  0  0  0  0  0  0  0  0  0
    2.3964    0.5961   -3.5650 O   0  0  0  0  0  0  0  0  0  0  0  0
    0.6653   -0.5742   -1.2055 C   0  0  0  0  0  0  0  0  0  0  0  0
   -0.2162   -0.1475    0.3496 S   0  0  0  0  0  0  0  0  0  0  0  0
   -1.4577   -0.5566   -2.9519 H   0  0  0  0  0  0  0  0  0  0  0  0
    0.5975    1.4378   -1.9639 H   0  0  0  0  0  0  0  0  0  0  0  0
    0.3919   -1.5857   -1.5190 H   0  0  0  0  0  0  0  0  0  0  0  0
    1.7430   -0.5646   -1.0081 H   0  0  0  0  0  0  0  0  0  0  0  0
    0.8343   -0.6939   -4.5377 N   0  0  0  0  0  0  0  0  0  0  0  0
    1.4936   -0.7996   -5.8442 C   0  0  2  0  0  0  0  0  0  0  0  0
    0.4394   -0.8119   -6.9719 C   0  0  0  0  0  0  0  0  0  0  0  0
   -0.7446   -0.9831   -6.6938 O   0  0  0  0  0  0  0  0  0  0  0  0
    2.3293   -2.0812   -5.8608 C   0  0  0  0  0  0  0  0  0  0  0  0
   -0.1644   -0.8914   -4.5507 H   0  0  0  0  0  0  0  0  0  0  0  0
    2.1484    0.0623   -6.0135 H   0  0  0  0  0  0  0  0  0  0  0  0
    1.6897   -2.9569   -5.7120 H   0  0  0  0  0  0  0  0  0  0  0  0
    2.8500   -2.1882   -6.8170 H   0  0  0  0  0  0  0  0  0  0  0  0
    3.0768   -2.0539   -5.0616 H   0  0  0  0  0  0  0  0  0  0  0  0
    0.8087   -0.6149   -8.2894 N   0  0  0  0  0  0  0  0  0  0  0  0
   -0.1458   -0.5877   -9.3916 C   0  0  0  0  0  0  0  0  0  0  0  0
    1.7904   -0.4381   -8.4839 H   0  0  0  0  0  0  0  0  0  0  0  0
   -0.6749   -1.5438   -9.4635 H   0  0  0  0  0  0  0  0  0  0  0  0
   -0.8800    0.2117   -9.2448 H   0  0  0  0  0  0  0  0  0  0  0  0
    0.3742   -0.4097  -10.3377 H   0  0  0  0  0  0  0  0  0  0  0  0
  1  2  2  0  0  0  0
  1  3  1  0  0  0  0
  1  7  1  0  0  0  0
  3  4  1  0  0  0  0
  3  5  1  0  0  0  0
  3  6  1  0  0  0  0
  7  8  1  0  0  0  0
  7 13  1  0  0  0  0
  8  9  1  0  0  0  0
  8 11  1  0  0  0  0
  8 14  1  0  0  0  0
  9 10  2  0  0  0  0
  9 17  1  0  0  0  0
 11 12  1  0  0  0  0
 11 15  1  0  0  0  0
 11 16  1  0  0  0  0
 12 44  1  0  0  0  0
 17 18  1  0  0  0  0
 17 19  1  0  0  0  0
 18 20  1  0  0  0  0
 18 21  1  0  0  0  0
 18 22  1  0  0  0  0
 23 24  2  0  0  0  0
 23 25  1  0  0  0  0
 23 29  1  0  0  0  0
 25 26  1  0  0  0  0
 25 27  1  0  0  0  0
 25 28  1  0  0  0  0
 29 30  1  0  0  0  0
 29 34  1  0  0  0  0
 30 31  1  0  0  0  0
 30 33  1  0  0  0  0
 30 35  1  0  0  0  0
 31 32  2  0  0  0  0
 31 39  1  0  0  0  0
 33 36  1  0  0  0  0
 33 37  1  0  0  0  0
 33 38  1  0  0  0  0
 39 40  1  0  0  0  0
 39 45  1  0  0  0  0
 40 41  1  0  0  0  0
 40 43  1  0  0  0  0
 40 46  1  0  0  0  0
 41 42  2  0  0  0  0
 41 49  1  0  0  0  0
 43 44  1  0  0  0  0
 43 47  1  0  0  0  0
 43 48  1  0  0  0  0
 49 50  1  0  0  0  0
 49 54  1  0  0  0  0
 50 51  1  0  0  0  0
 50 53  1  0  0  0  0
 50 55  1  0  0  0  0
 51 52  2  0  0  0  0
 51 59  1  0  0  0  0
 53 56  1  0  0  0  0
 53 57  1  0  0  0  0
 53 58  1  0  0  0  0
 59 60  1  0  0  0  0
 59 61  1  0  0  0  0
 60 62  1  0  0  0  0
 60 63  1  0  0  0  0
 60 64  1  0  0  0  0
M  END
$$$$

  -OEChem-05262216053D

 64 63  0     1  0  0  0  0  0999 V2000
   -1.2989   -3.9190    4.4328 C   0  0  0  0  0  0  0  0  0  0  0  0
   -2.4170   -4.1547    4.0021 O   0  0  0  0  0  0  0  0  0  0  0  0
   -1.0924   -3.6165    5.9049 C   0  0  0  0  0  0  0  0  0  0  0  0
   -0.6058   -2.6452    6.0223 H   0  0  0  0  0  0  0  0  0  0  0  0
   -2.0548   -3.5930    6.4234 H   0  0  0  0  0  0  0  0  0  0  0  0
   -0.4654   -4.3872    6.3594 H   0  0  0  0  0  0  0  0  0  0  0  0
   -0.2196   -3.9403    3.5777 N   0  0  0  0  0  0  0  0  0  0  0  0
   -0.2915   -4.2608    2.1455 C   0  0  2  0  0  0  0  0  0  0  0  0
    1.0407   -4.8331    1.6150 C   0  0  0  0  0  0  0  0  0  0  0  0
    2.0263   -4.8911    2.3427 O   0  0  0  0  0  0  0  0  0  0  0  0
   -0.6969   -3.0000    1.3651 C   0  0  0  0  0  0  0  0  0  0  0  0
    0.5345   -1.6510    1.5835 S   0  0  0  0  0  0  0  0  0  0  0  0
    0.7085   -3.8023    3.9756 H   0  0  0  0  0  0  0  0  0  0  0  0
   -1.0515   -5.0338    1.9896 H   0  0  0  0  0  0  0  0  0  0  0  0
   -0.7934   -3.2341    0.3016 H   0  0  0  0  0  0  0  0  0  0  0  0
   -1.6742   -2.6529    1.7166 H   0  0  0  0  0  0  0  0  0  0  0  0
    1.1292   -5.3210    0.3230 N   0  0  0  0  0  0  0  0  0  0  0  0
    2.3568   -5.8679   -0.2418 C   0  0  0  0  0  0  0  0  0  0  0  0
    0.2925   -5.2948   -0.2513 H   0  0  0  0  0  0  0  0  0  0  0  0
    3.1482   -5.1108   -0.2422 H   0  0  0  0  0  0  0  0  0  0  0  0
    2.6958   -6.7316    0.3397 H   0  0  0  0  0  0  0  0  0  0  0  0
    2.1878   -6.1913   -1.2733 H   0  0  0  0  0  0  0  0  0  0  0  0
   -5.4189    1.1433   -0.7418 C   0  0  0  0  0  0  0  0  0  0  0  0
   -5.7859    0.0077   -0.9996 O   0  0  0  0  0  0  0  0  0  0  0  0
   -6.0679    1.9133    0.3929 C   0  0  0  0  0  0  0  0  0  0  0  0
   -6.5182    2.8327    0.0107 H   0  0  0  0  0  0  0  0  0  0  0  0
   -6.8485    1.3075    0.8619 H   0  0  0  0  0  0  0  0  0  0  0  0
   -5.3187    2.1681    1.1469 H   0  0  0  0  0  0  0  0  0  0  0  0
   -4.4094    1.7276   -1.4775 N   0  0  0  0  0  0  0  0  0  0  0  0
   -3.5842    1.0134   -2.4602 C   0  0  2  0  0  0  0  0  0  0  0  0
   -2.0829    1.2925   -2.2473 C   0  0  0  0  0  0  0  0  0  0  0  0
   -1.7235    2.3470   -1.7382 O   0  0  0  0  0  0  0  0  0  0  0  0
   -4.0164    1.4596   -3.8592 C   0  0  0  0  0  0  0  0  0  0  0  0
   -4.0374    2.6099   -1.1281 H   0  0  0  0  0  0  0  0  0  0  0  0
   -3.7336   -0.0673   -2.3691 H   0  0  0  0  0  0  0  0  0  0  0  0
   -3.8662    2.5375   -3.9802 H   0  0  0  0  0  0  0  0  0  0  0  0
   -3.4350    0.9394   -4.6274 H   0  0  0  0  0  0  0  0  0  0  0  0
   -5.0761    1.2348   -4.0164 H   0  0  0  0  0  0  0  0  0  0  0  0
   -1.1400    0.3752   -2.6781 N   0  0  0  0  0  0  0  0  0  0  0  0
    0.2964    0.4505   -2.3326 C   0  0  2  0  0  0  0  0  0  0  0  0
    1.1998    0.2047   -3.5577 C   0  0  0  0  0  0  0  0  0  0  0  0
    2.4063    0.3939   -3.4890 O   0  0  0  0  0  0  0  0  0  0  0  0
    0.6161   -0.5834   -1.2425 C   0  0  0  0  0  0  0  0  0  0  0  0
   -0.2577   -0.1877    0.3258 S   0  0  0  0  0  0  0  0  0  0  0  0
   -1.5123   -0.5268   -2.9605 H   0  0  0  0  0  0  0  0  0  0  0  0
    0.5517    1.4467   -1.9538 H   0  0  0  0  0  0  0  0  0  0  0  0
    0.3398   -1.5866   -1.5792 H   0  0  0  0  0  0  0  0  0  0  0  0
    1.6941   -0.5816   -1.0472 H   0  0  0  0  0  0  0  0  0  0  0  0
    0.6713   -0.3452   -4.7108 N   0  0  0  0  0  0  0  0  0  0  0  0
    1.3827   -0.4068   -5.9931 C   0  0  2  0  0  0  0  0  0  0  0  0
    0.4176   -0.1055   -7.1594 C   0  0  0  0  0  0  0  0  0  0  0  0
   -0.7931   -0.0775   -6.9565 O   0  0  0  0  0  0  0  0  0  0  0  0
    2.0011   -1.7992   -6.1419 C   0  0  0  0  0  0  0  0  0  0  0  0
   -0.3445   -0.3049   -4.7850 H   0  0  0  0  0  0  0  0  0  0  0  0
    2.1772    0.3471   -6.0213 H   0  0  0  0  0  0  0  0  0  0  0  0
    1.2212   -2.5674   -6.1428 H   0  0  0  0  0  0  0  0  0  0  0  0
    2.5632   -1.8722   -7.0778 H   0  0  0  0  0  0  0  0  0  0  0  0
    2.6861   -1.9980   -5.3116 H   0  0  0  0  0  0  0  0  0  0  0  0
    0.9031    0.1535   -8.4276 N   0  0  0  0  0  0  0  0  0  0  0  0
    0.0476    0.4911   -9.5589 C   0  0  0  0  0  0  0  0  0  0  0  0
    1.9112    0.1570   -8.5556 H   0  0  0  0  0  0  0  0  0  0  0  0
   -0.6616   -0.3189   -9.7584 H   0  0  0  0  0  0  0  0  0  0  0  0
   -0.5136    1.4092   -9.3555 H   0  0  0  0  0  0  0  0  0  0  0  0
    0.6531    0.6492  -10.4565 H   0  0  0  0  0  0  0  0  0  0  0  0
  1  2  2  0  0  0  0
  1  3  1  0  0  0  0
  1  7  1  0  0  0  0
  3  4  1  0  0  0  0
  3  5  1  0  0  0  0
  3  6  1  0  0  0  0
  7  8  1  0  0  0  0
  7 13  1  0  0  0  0
  8  9  1  0  0  0  0
  8 11  1  0  0  0  0
  8 14  1  0  0  0  0
  9 10  2  0  0  0  0
  9 17  1  0  0  0  0
 11 12  1  0  0  0  0
 11 15  1  0  0  0  0
 11 16  1  0  0  0  0
 12 44  1  0  0  0  0
 17 18  1  0  0  0  0
 17 19  1  0  0  0  0
 18 20  1  0  0  0  0
 18 21  1  0  0  0  0
 18 22  1  0  0  0  0
 23 24  2  0  0  0  0
 23 25  1  0  0  0  0
 23 29  1  0  0  0  0
 25 26  1  0  0  0  0
 25 27  1  0  0  0  0
 25 28  1  0  0  0  0
 29 30  1  0  0  0  0
 29 34  1  0  0  0  0
 30 31  1  0  0  0  0
 30 33  1  0  0  0  0
 30 35  1  0  0  0  0
 31 32  2  0  0  0  0
 31 39  1  0  0  0  0
 33 36  1  0  0  0  0
 33 37  1  0  0  0  0
 33 38  1  0  0  0  0
 39 40  1  0  0  0  0
 39 45  1  0  0  0  0
 40 41  1  0  0  0  0
 40 43  1  0  0  0  0
 40 46  1  0  0  0  0
 41 42  2  0  0  0  0
 41 49  1  0  0  0  0
 43 44  1  0  0  0  0
 43 47  1  0  0  0  0
 43 48  1  0  0  0  0
 49 50  1  0  0  0  0
 49 54  1  0  0  0  0
 50 51  1  0  0  0  0
 50 53  1  0  0  0  0
 50 55  1  0  0  0  0
 51 52  2  0  0  0  0
 51 59  1  0  0  0  0
 53 56  1  0  0  0  0
 53 57  1  0  0  0  0
 53 58  1  0  0  0  0
 59 60  1  0  0  0  0
 59 61  1  0  0  0  0
 60 62  1  0  0  0  0
 60 63  1  0  0  0  0
 60 64  1  0  0  0  0
M  END
$$$$

  -OEChem-05262216053D

 64 63  0     1  0  0  0  0  0999 V2000
   -1.2925   -3.9255    4.4331 C   0  0  0  0  0  0  0  0  0  0  0  0
   -2.4121   -4.1368    3.9936 O   0  0  0  0  0  0  0  0  0  0  0  0
   -1.0928   -3.6244    5.9067 C   0  0  0  0  0  0  0  0  0  0  0  0
   -0.5779   -2.6678    6.0260 H   0  0  0  0  0  0  0  0  0  0  0  0
   -2.0598   -3.5687    6.4144 H   0  0  0  0  0  0  0  0  0  0  0  0
   -0.4953   -4.4129    6.3707 H   0  0  0  0  0  0  0  0  0  0  0  0
   -0.2071   -3.9728    3.5863 N   0  0  0  0  0  0  0  0  0  0  0  0
   -0.2762   -4.2894    2.1526 C   0  0  2  0  0  0  0  0  0  0  0  0
    1.0610   -4.8528    1.6235 C   0  0  0  0  0  0  0  0  0  0  0  0
    2.0373   -4.9270    2.3622 O   0  0  0  0  0  0  0  0  0  0  0  0
   -0.6949   -3.0328    1.3719 C   0  0  0  0  0  0  0  0  0  0  0  0
    0.5239   -1.6722    1.5828 S   0  0  0  0  0  0  0  0  0  0  0  0
    0.7216   -3.8631    3.9919 H   0  0  0  0  0  0  0  0  0  0  0  0
   -1.0304   -5.0674    1.9969 H   0  0  0  0  0  0  0  0  0  0  0  0
   -0.7941   -3.2691    0.3090 H   0  0  0  0  0  0  0  0  0  0  0  0
   -1.6736   -2.6931    1.7271 H   0  0  0  0  0  0  0  0  0  0  0  0
    1.1642   -5.3233    0.3258 N   0  0  0  0  0  0  0  0  0  0  0  0
    2.3957   -5.8733   -0.2282 C   0  0  0  0  0  0  0  0  0  0  0  0
    0.3386   -5.2750   -0.2631 H   0  0  0  0  0  0  0  0  0  0  0  0
    3.1980   -5.1286   -0.1916 H   0  0  0  0  0  0  0  0  0  0  0  0
    2.7094   -6.7578    0.3365 H   0  0  0  0  0  0  0  0  0  0  0  0
    2.2439   -6.1656   -1.2717 H   0  0  0  0  0  0  0  0  0  0  0  0
   -5.4484    1.1236   -0.8038 C   0  0  0  0  0  0  0  0  0  0  0  0
   -5.8154    0.0023   -1.1188 O   0  0  0  0  0  0  0  0  0  0  0  0
   -6.1103    1.8420    0.3564 C   0  0  0  0  0  0  0  0  0  0  0  0
   -6.4850    2.8144    0.0281 H   0  0  0  0  0  0  0  0  0  0  0  0
   -6.9491    1.2518    0.7360 H   0  0  0  0  0  0  0  0  0  0  0  0
   -5.3886    1.9902    1.1636 H   0  0  0  0  0  0  0  0  0  0  0  0
   -4.4242    1.7367   -1.4944 N   0  0  0  0  0  0  0  0  0  0  0  0
   -3.5804    1.0583   -2.4864 C   0  0  2  0  0  0  0  0  0  0  0  0
   -2.0836    1.3169   -2.2265 C   0  0  0  0  0  0  0  0  0  0  0  0
   -1.7259    2.3472   -1.6693 O   0  0  0  0  0  0  0  0  0  0  0  0
   -3.9757    1.5599   -3.8773 C   0  0  0  0  0  0  0  0  0  0  0  0
   -4.0537    2.5988   -1.0962 H   0  0  0  0  0  0  0  0  0  0  0  0
   -3.7369   -0.0243   -2.4419 H   0  0  0  0  0  0  0  0  0  0  0  0
   -3.8212    2.6411   -3.9537 H   0  0  0  0  0  0  0  0  0  0  0  0
   -3.3753    1.0679   -4.6491 H   0  0  0  0  0  0  0  0  0  0  0  0
   -5.0310    1.3437   -4.0710 H   0  0  0  0  0  0  0  0  0  0  0  0
   -1.1398    0.4095   -2.6734 N   0  0  0  0  0  0  0  0  0  0  0  0
    0.2940    0.4618   -2.3172 C   0  0  2  0  0  0  0  0  0  0  0  0
    1.1954    0.2427   -3.5509 C   0  0  0  0  0  0  0  0  0  0  0  0
    2.4115    0.1717   -3.4379 O   0  0  0  0  0  0  0  0  0  0  0  0
    0.5898   -0.5998   -1.2445 C   0  0  0  0  0  0  0  0  0  0  0  0
   -0.2931   -0.2235    0.3235 S   0  0  0  0  0  0  0  0  0  0  0  0
   -1.5086   -0.4709   -3.0217 H   0  0  0  0  0  0  0  0  0  0  0  0
    0.5556    1.4462   -1.9132 H   0  0  0  0  0  0  0  0  0  0  0  0
    0.3030   -1.5922   -1.6035 H   0  0  0  0  0  0  0  0  0  0  0  0
    1.6651   -0.6181   -1.0369 H   0  0  0  0  0  0  0  0  0  0  0  0
    0.6255    0.0333   -4.7928 N   0  0  0  0  0  0  0  0  0  0  0  0
    1.3685    0.0284   -6.0579 C   0  0  2  0  0  0  0  0  0  0  0  0
    0.5069    0.6233   -7.1928 C   0  0  0  0  0  0  0  0  0  0  0  0
   -0.6918    0.8173   -7.0113 O   0  0  0  0  0  0  0  0  0  0  0  0
    1.7766   -1.4119   -6.3811 C   0  0  0  0  0  0  0  0  0  0  0  0
   -0.3624    0.2762   -4.8683 H   0  0  0  0  0  0  0  0  0  0  0  0
    2.2673    0.6480   -5.9656 H   0  0  0  0  0  0  0  0  0  0  0  0
    0.8905   -2.0461   -6.4860 H   0  0  0  0  0  0  0  0  0  0  0  0
    2.3457   -1.4498   -7.3151 H   0  0  0  0  0  0  0  0  0  0  0  0
    2.4030   -1.8169   -5.5797 H   0  0  0  0  0  0  0  0  0  0  0  0
    1.0727    0.9530   -8.4105 N   0  0  0  0  0  0  0  0  0  0  0  0
    0.3193    1.5536   -9.5049 C   0  0  0  0  0  0  0  0  0  0  0  0
    2.0731    0.8128   -8.5205 H   0  0  0  0  0  0  0  0  0  0  0  0
   -0.5382    0.9260   -9.7704 H   0  0  0  0  0  0  0  0  0  0  0  0
   -0.0447    2.5461   -9.2190 H   0  0  0  0  0  0  0  0  0  0  0  0
    0.9547    1.6589  -10.3896 H   0  0  0  0  0  0  0  0  0  0  0  0
  1  2  2  0  0  0  0
  1  3  1  0  0  0  0
  1  7  1  0  0  0  0
  3  4  1  0  0  0  0
  3  5  1  0  0  0  0
  3  6  1  0  0  0  0
  7  8  1  0  0  0  0
  7 13  1  0  0  0  0
  8  9  1  0  0  0  0
  8 11  1  0  0  0  0
  8 14  1  0  0  0  0
  9 10  2  0  0  0  0
  9 17  1  0  0  0  0
 11 12  1  0  0  0  0
 11 15  1  0  0  0  0
 11 16  1  0  0  0  0
 12 44  1  0  0  0  0
 17 18  1  0  0  0  0
 17 19  1  0  0  0  0
 18 20  1  0  0  0  0
 18 21  1  0  0  0  0
 18 22  1  0  0  0  0
 23 24  2  0  0  0  0
 23 25  1  0  0  0  0
 23 29  1  0  0  0  0
 25 26  1  0  0  0  0
 25 27  1  0  0  0  0
 25 28  1  0  0  0  0
 29 30  1  0  0  0  0
 29 34  1  0  0  0  0
 30 31  1  0  0  0  0
 30 33  1  0  0  0  0
 30 35  1  0  0  0  0
 31 32  2  0  0  0  0
 31 39  1  0  0  0  0
 33 36  1  0  0  0  0
 33 37  1  0  0  0  0
 33 38  1  0  0  0  0
 39 40  1  0  0  0  0
 39 45  1  0  0  0  0
 40 41  1  0  0  0  0
 40 43  1  0  0  0  0
 40 46  1  0  0  0  0
 41 42  2  0  0  0  0
 41 49  1  0  0  0  0
 43 44  1  0  0  0  0
 43 47  1  0  0  0  0
 43 48  1  0  0  0  0
 49 50  1  0  0  0  0
 49 54  1  0  0  0  0
 50 51  1  0  0  0  0
 50 53  1  0  0  0  0
 50 55  1  0  0  0  0
 51 52  2  0  0  0  0
 51 59  1  0  0  0  0
 53 56  1  0  0  0  0
 53 57  1  0  0  0  0
 53 58  1  0  0  0  0
 59 60  1  0  0  0  0
 59 61  1  0  0  0  0
 60 62  1  0  0  0  0
 60 63  1  0  0  0  0
 60 64  1  0  0  0  0
M  END
$$$$

  -OEChem-05262216053D

 64 63  0     1  0  0  0  0  0999 V2000
   -1.2952   -3.9461    4.4222 C   0  0  0  0  0  0  0  0  0  0  0  0
   -2.4122   -4.1629    3.9791 O   0  0  0  0  0  0  0  0  0  0  0  0
   -1.0993   -3.6436    5.8951 C   0  0  0  0  0  0  0  0  0  0  0  0
   -0.6168   -2.6704    6.0134 H   0  0  0  0  0  0  0  0  0  0  0  0
   -2.0648   -3.6233    6.4078 H   0  0  0  0  0  0  0  0  0  0  0  0
   -0.4722   -4.4121    6.3530 H   0  0  0  0  0  0  0  0  0  0  0  0
   -0.2063   -3.9861    3.5803 N   0  0  0  0  0  0  0  0  0  0  0  0
   -0.2673   -4.3006    2.1462 C   0  0  2  0  0  0  0  0  0  0  0  0
    1.0733   -4.8631    1.6242 C   0  0  0  0  0  0  0  0  0  0  0  0
    2.0456   -4.9387    2.3684 O   0  0  0  0  0  0  0  0  0  0  0  0
   -0.6813   -3.0408    1.3679 C   0  0  0  0  0  0  0  0  0  0  0  0
    0.5329   -1.6781    1.5944 S   0  0  0  0  0  0  0  0  0  0  0  0
    0.7198   -3.8696    3.9900 H   0  0  0  0  0  0  0  0  0  0  0  0
   -1.0214   -5.0779    1.9834 H   0  0  0  0  0  0  0  0  0  0  0  0
   -0.7725   -3.2721    0.3033 H   0  0  0  0  0  0  0  0  0  0  0  0
   -1.6633   -2.7045    1.7168 H   0  0  0  0  0  0  0  0  0  0  0  0
    1.1830   -5.3339    0.3271 N   0  0  0  0  0  0  0  0  0  0  0  0
    2.4198   -5.8743   -0.2252 C   0  0  0  0  0  0  0  0  0  0  0  0
    0.3600   -5.2865   -0.2655 H   0  0  0  0  0  0  0  0  0  0  0  0
    3.2191   -5.1267   -0.1776 H   0  0  0  0  0  0  0  0  0  0  0  0
    2.7335   -6.7629    0.3333 H   0  0  0  0  0  0  0  0  0  0  0  0
    2.2749   -6.1579   -1.2723 H   0  0  0  0  0  0  0  0  0  0  0  0
   -5.4846    1.1168   -0.9021 C   0  0  0  0  0  0  0  0  0  0  0  0
   -5.8729    0.0334   -1.3104 O   0  0  0  0  0  0  0  0  0  0  0  0
   -6.1734    1.7757    0.2778 C   0  0  0  0  0  0  0  0  0  0  0  0
   -6.5289    2.7697   -0.0044 H   0  0  0  0  0  0  0  0  0  0  0  0
   -7.0281    1.1738    0.5992 H   0  0  0  0  0  0  0  0  0  0  0  0
   -5.4741    1.8687    1.1125 H   0  0  0  0  0  0  0  0  0  0  0  0
   -4.4106    1.7370   -1.5050 N   0  0  0  0  0  0  0  0  0  0  0  0
   -3.5502    1.0993   -2.5092 C   0  0  2  0  0  0  0  0  0  0  0  0
   -2.0587    1.3378   -2.2062 C   0  0  0  0  0  0  0  0  0  0  0  0
   -1.7067    2.3494   -1.6124 O   0  0  0  0  0  0  0  0  0  0  0  0
   -3.9121    1.6676   -3.8836 C   0  0  0  0  0  0  0  0  0  0  0  0
   -4.0363    2.5658   -1.0442 H   0  0  0  0  0  0  0  0  0  0  0  0
   -3.7136    0.0166   -2.5153 H   0  0  0  0  0  0  0  0  0  0  0  0
   -3.7490    2.7501   -3.9056 H   0  0  0  0  0  0  0  0  0  0  0  0
   -3.2978    1.2083   -4.6644 H   0  0  0  0  0  0  0  0  0  0  0  0
   -4.9645    1.4686   -4.1093 H   0  0  0  0  0  0  0  0  0  0  0  0
   -1.1095    0.4402   -2.6605 N   0  0  0  0  0  0  0  0  0  0  0  0
    0.3215    0.4855   -2.2937 C   0  0  2  0  0  0  0  0  0  0  0  0
    1.2203    0.2866   -3.5340 C   0  0  0  0  0  0  0  0  0  0  0  0
    2.3963   -0.0351   -3.4279 O   0  0  0  0  0  0  0  0  0  0  0  0
    0.6081   -0.5856   -1.2255 C   0  0  0  0  0  0  0  0  0  0  0  0
   -0.2827   -0.2219    0.3413 S   0  0  0  0  0  0  0  0  0  0  0  0
   -1.4683   -0.4178   -3.0706 H   0  0  0  0  0  0  0  0  0  0  0  0
    0.5822    1.4659   -1.8795 H   0  0  0  0  0  0  0  0  0  0  0  0
    0.3213   -1.5742   -1.5947 H   0  0  0  0  0  0  0  0  0  0  0  0
    1.6819   -0.6092   -1.0105 H   0  0  0  0  0  0  0  0  0  0  0  0
    0.6738    0.4117   -4.7973 N   0  0  0  0  0  0  0  0  0  0  0  0
    1.4397    0.4216   -6.0484 C   0  0  2  0  0  0  0  0  0  0  0  0
    0.7288    1.2809   -7.1158 C   0  0  0  0  0  0  0  0  0  0  0  0
   -0.4387    1.6199   -6.9480 O   0  0  0  0  0  0  0  0  0  0  0  0
    1.5987   -1.0209   -6.5376 C   0  0  0  0  0  0  0  0  0  0  0  0
   -0.2580    0.8260   -4.8411 H   0  0  0  0  0  0  0  0  0  0  0  0
    2.4286    0.8589   -5.8732 H   0  0  0  0  0  0  0  0  0  0  0  0
    0.6182   -1.4733   -6.7176 H   0  0  0  0  0  0  0  0  0  0  0  0
    2.1727   -1.0503   -7.4685 H   0  0  0  0  0  0  0  0  0  0  0  0
    2.1272   -1.6197   -5.7891 H   0  0  0  0  0  0  0  0  0  0  0  0
    1.3974    1.6867   -8.2561 N   0  0  0  0  0  0  0  0  0  0  0  0
    0.7936    2.5338   -9.2781 C   0  0  0  0  0  0  0  0  0  0  0  0
    2.3721    1.4171   -8.3542 H   0  0  0  0  0  0  0  0  0  0  0  0
   -0.1179    2.0714   -9.6715 H   0  0  0  0  0  0  0  0  0  0  0  0
    0.5401    3.5147   -8.8621 H   0  0  0  0  0  0  0  0  0  0  0  0
    1.4905    2.6801  -10.1092 H   0  0  0  0  0  0  0  0  0  0  0  0
  1  2  2  0  0  0  0
  1  3  1  0  0  0  0
  1  7  1  0  0  0  0
  3  4  1  0  0  0  0
  3  5  1  0  0  0  0
  3  6  1  0  0  0  0
  7  8  1  0  0  0  0
  7 13  1  0  0  0  0
  8  9  1  0  0  0  0
  8 11  1  0  0  0  0
  8 14  1  0  0  0  0
  9 10  2  0  0  0  0
  9 17  1  0  0  0  0
 11 12  1  0  0  0  0
 11 15  1  0  0  0  0
 11 16  1  0  0  0  0
 12 44  1  0  0  0  0
 17 18  1  0  0  0  0
 17 19  1  0  0  0  0
 18 20  1  0  0  0  0
 18 21  1  0  0  0  0
 18 22  1  0  0  0  0
 23 24  2  0  0  0  0
 23 25  1  0  0  0  0
 23 29  1  0  0  0  0
 25 26  1  0  0  0  0
 25 27  1  0  0  0  0
 25 28  1  0  0  0  0
 29 30  1  0  0  0  0
 29 34  1  0  0  0  0
 30 31  1  0  0  0  0
 30 33  1  0  0  0  0
 30 35  1  0  0  0  0
 31 32  2  0  0  0  0
 31 39  1  0  0  0  0
 33 36  1  0  0  0  0
 33 37  1  0  0  0  0
 33 38  1  0  0  0  0
 39 40  1  0  0  0  0
 39 45  1  0  0  0  0
 40 41  1  0  0  0  0
 40 43  1  0  0  0  0
 40 46  1  0  0  0  0
 41 42  2  0  0  0  0
 41 49  1  0  0  0  0
 43 44  1  0  0  0  0
 43 47  1  0  0  0  0
 43 48  1  0  0  0  0
 49 50  1  0  0  0  0
 49 54  1  0  0  0  0
 50 51  1  0  0  0  0
 50 53  1  0  0  0  0
 50 55  1  0  0  0  0
 51 52  2  0  0  0  0
 51 59  1  0  0  0  0
 53 56  1  0  0  0  0
 53 57  1  0  0  0  0
 53 58  1  0  0  0  0
 59 60  1  0  0  0  0
 59 61  1  0  0  0  0
 60 62  1  0  0  0  0
 60 63  1  0  0  0  0
 60 64  1  0  0  0  0
M  END
$$$$

  -OEChem-05262216053D

 64 63  0     1  0  0  0  0  0999 V2000
   -1.3004   -3.9595    4.4059 C   0  0  0  0  0  0  0  0  0  0  0  0
   -2.4140   -4.1764    3.9541 O   0  0  0  0  0  0  0  0  0  0  0  0
   -1.1166   -3.6649    5.8825 C   0  0  0  0  0  0  0  0  0  0  0  0
   -0.6494   -2.6854    6.0106 H   0  0  0  0  0  0  0  0  0  0  0  0
   -2.0851   -3.6631    6.3904 H   0  0  0  0  0  0  0  0  0  0  0  0
   -0.4804   -4.4267    6.3393 H   0  0  0  0  0  0  0  0  0  0  0  0
   -0.2057   -3.9922    3.5709 N   0  0  0  0  0  0  0  0  0  0  0  0
   -0.2569   -4.2997    2.1347 C   0  0  2  0  0  0  0  0  0  0  0  0
    1.0872   -4.8561    1.6160 C   0  0  0  0  0  0  0  0  0  0  0  0
    2.0594   -4.9233    2.3610 O   0  0  0  0  0  0  0  0  0  0  0  0
   -0.6671   -3.0379    1.3580 C   0  0  0  0  0  0  0  0  0  0  0  0
    0.5347   -1.6693    1.6112 S   0  0  0  0  0  0  0  0  0  0  0  0
    0.7174   -3.8766    3.9876 H   0  0  0  0  0  0  0  0  0  0  0  0
   -1.0085   -5.0778    1.9647 H   0  0  0  0  0  0  0  0  0  0  0  0
   -0.7392   -3.2629    0.2905 H   0  0  0  0  0  0  0  0  0  0  0  0
   -1.6566   -2.7102    1.6932 H   0  0  0  0  0  0  0  0  0  0  0  0
    1.1991   -5.3309    0.3206 N   0  0  0  0  0  0  0  0  0  0  0  0
    2.4399   -5.8613   -0.2320 C   0  0  0  0  0  0  0  0  0  0  0  0
    0.3752   -5.2908   -0.2715 H   0  0  0  0  0  0  0  0  0  0  0  0
    3.2356   -5.1106   -0.1781 H   0  0  0  0  0  0  0  0  0  0  0  0
    2.7570   -6.7513    0.3218 H   0  0  0  0  0  0  0  0  0  0  0  0
    2.2992   -6.1388   -1.2811 H   0  0  0  0  0  0  0  0  0  0  0  0
   -5.5031    1.1084   -0.9683 C   0  0  0  0  0  0  0  0  0  0  0  0
   -5.8931    0.0463   -1.4274 O   0  0  0  0  0  0  0  0  0  0  0  0
   -6.2277    1.7407    0.2044 C   0  0  0  0  0  0  0  0  0  0  0  0
   -6.5666    2.7443   -0.0634 H   0  0  0  0  0  0  0  0  0  0  0  0
   -7.0972    1.1370    0.4792 H   0  0  0  0  0  0  0  0  0  0  0  0
   -5.5585    1.8064    1.0658 H   0  0  0  0  0  0  0  0  0  0  0  0
   -4.3979    1.7297   -1.5106 N   0  0  0  0  0  0  0  0  0  0  0  0
   -3.5234    1.1197   -2.5197 C   0  0  2  0  0  0  0  0  0  0  0  0
   -2.0350    1.3536   -2.1952 C   0  0  0  0  0  0  0  0  0  0  0  0
   -1.6907    2.3546   -1.5794 O   0  0  0  0  0  0  0  0  0  0  0  0
   -3.8762    1.7194   -3.8831 C   0  0  0  0  0  0  0  0  0  0  0  0
   -4.0316    2.5435   -1.0177 H   0  0  0  0  0  0  0  0  0  0  0  0
   -3.6836    0.0370   -2.5528 H   0  0  0  0  0  0  0  0  0  0  0  0
   -3.7169    2.8026   -3.8777 H   0  0  0  0  0  0  0  0  0  0  0  0
   -3.2546    1.2811   -4.6701 H   0  0  0  0  0  0  0  0  0  0  0  0
   -4.9263    1.5227   -4.1216 H   0  0  0  0  0  0  0  0  0  0  0  0
   -1.0776    0.4640   -2.6494 N   0  0  0  0  0  0  0  0  0  0  0  0
    0.3496    0.5074   -2.2696 C   0  0  2  0  0  0  0  0  0  0  0  0
    1.2514    0.3226   -3.5099 C   0  0  0  0  0  0  0  0  0  0  0  0
    2.3355   -0.2425   -3.4438 O   0  0  0  0  0  0  0  0  0  0  0  0
    0.6263   -0.5685   -1.2033 C   0  0  0  0  0  0  0  0  0  0  0  0
   -0.2776   -0.2128    0.3575 S   0  0  0  0  0  0  0  0  0  0  0  0
   -1.4250   -0.3792   -3.0985 H   0  0  0  0  0  0  0  0  0  0  0  0
    0.6067    1.4842   -1.8454 H   0  0  0  0  0  0  0  0  0  0  0  0
    0.3433   -1.5550   -1.5811 H   0  0  0  0  0  0  0  0  0  0  0  0
    1.6977   -0.5936   -0.9783 H   0  0  0  0  0  0  0  0  0  0  0  0
    0.8022    0.7589   -4.7414 N   0  0  0  0  0  0  0  0  0  0  0  0
    1.5965    0.7719   -5.9752 C   0  0  2  0  0  0  0  0  0  0  0  0
    1.1083    1.8783   -6.9335 C   0  0  0  0  0  0  0  0  0  0  0  0
    0.0136    2.4022   -6.7548 O   0  0  0  0  0  0  0  0  0  0  0  0
    1.4838   -0.6009   -6.6451 C   0  0  0  0  0  0  0  0  0  0  0  0
   -0.0446    1.3293   -4.7403 H   0  0  0  0  0  0  0  0  0  0  0  0
    2.6456    0.9778   -5.7366 H   0  0  0  0  0  0  0  0  0  0  0  0
    0.4394   -0.8215   -6.8880 H   0  0  0  0  0  0  0  0  0  0  0  0
    2.0697   -0.6281   -7.5687 H   0  0  0  0  0  0  0  0  0  0  0  0
    1.8594   -1.3818   -5.9766 H   0  0  0  0  0  0  0  0  0  0  0  0
    1.8959    2.2925   -7.9915 N   0  0  0  0  0  0  0  0  0  0  0  0
    1.5059    3.3568   -8.9091 C   0  0  0  0  0  0  0  0  0  0  0  0
    2.8102    1.8620   -8.0966 H   0  0  0  0  0  0  0  0  0  0  0  0
    0.5535    3.1172   -9.3939 H   0  0  0  0  0  0  0  0  0  0  0  0
    1.3982    4.3051   -8.3722 H   0  0  0  0  0  0  0  0  0  0  0  0
    2.2655    3.4831   -9.6865 H   0  0  0  0  0  0  0  0  0  0  0  0
  1  2  2  0  0  0  0
  1  3  1  0  0  0  0
  1  7  1  0  0  0  0
  3  4  1  0  0  0  0
  3  5  1  0  0  0  0
  3  6  1  0  0  0  0
  7  8  1  0  0  0  0
  7 13  1  0  0  0  0
  8  9  1  0  0  0  0
  8 11  1  0  0  0  0
  8 14  1  0  0  0  0
  9 10  2  0  0  0  0
  9 17  1  0  0  0  0
 11 12  1  0  0  0  0
 11 15  1  0  0  0  0
 11 16  1  0  0  0  0
 12 44  1  0  0  0  0
 17 18  1  0  0  0  0
 17 19  1  0  0  0  0
 18 20  1  0  0  0  0
 18 21  1  0  0  0  0
 18 22  1  0  0  0  0
 23 24  2  0  0  0  0
 23 25  1  0  0  0  0
 23 29  1  0  0  0  0
 25 26  1  0  0  0  0
 25 27  1  0  0  0  0
 25 28  1  0  0  0  0
 29 30  1  0  0  0  0
 29 34  1  0  0  0  0
 30 31  1  0  0  0  0
 30 33  1  0  0  0  0
 30 35  1  0  0  0  0
 31 32  2  0  0  0  0
 31 39  1  0  0  0  0
 33 36  1  0  0  0  0
 33 37  1  0  0  0  0
 33 38  1  0  0  0  0
 39 40  1  0  0  0  0
 39 45  1  0  0  0  0
 40 41  1  0  0  0  0
 40 43  1  0  0  0  0
 40 46  1  0  0  0  0
 41 42  2  0  0  0  0
 41 49  1  0  0  0  0
 43 44  1  0  0  0  0
 43 47  1  0  0  0  0
 43 48  1  0  0  0  0
 49 50  1  0  0  0  0
 49 54  1  0  0  0  0
 50 51  1  0  0  0  0
 50 53  1  0  0  0  0
 50 55  1  0  0  0  0
 51 52  2  0  0  0  0
 51 59  1  0  0  0  0
 53 56  1  0  0  0  0
 53 57  1  0  0  0  0
 53 58  1  0  0  0  0
 59 60  1  0  0  0  0
 59 61  1  0  0  0  0
 60 62  1  0  0  0  0
 60 63  1  0  0  0  0
 60 64  1  0  0  0  0
M  END
$$$$

  -OEChem-05262216053D

 64 63  0     1  0  0  0  0  0999 V2000
   -1.3185   -3.9738    4.3776 C   0  0  0  0  0  0  0  0  0  0  0  0
   -2.4285   -4.1924    3.9181 O   0  0  0  0  0  0  0  0  0  0  0  0
   -1.1461   -3.6730    5.8543 C   0  0  0  0  0  0  0  0  0  0  0  0
   -0.6612   -2.7019    5.9817 H   0  0  0  0  0  0  0  0  0  0  0  0
   -2.1203   -3.6486    6.3508 H   0  0  0  0  0  0  0  0  0  0  0  0
   -0.5305   -4.4448    6.3226 H   0  0  0  0  0  0  0  0  0  0  0  0
   -0.2175   -4.0056    3.5510 N   0  0  0  0  0  0  0  0  0  0  0  0
   -0.2571   -4.2985    2.1116 C   0  0  2  0  0  0  0  0  0  0  0  0
    1.0963   -4.8367    1.5970 C   0  0  0  0  0  0  0  0  0  0  0  0
    2.0632   -4.9054    2.3489 O   0  0  0  0  0  0  0  0  0  0  0  0
   -0.6742   -3.0319    1.3467 C   0  0  0  0  0  0  0  0  0  0  0  0
    0.5089   -1.6529    1.6304 S   0  0  0  0  0  0  0  0  0  0  0  0
    0.7019   -3.8808    3.9732 H   0  0  0  0  0  0  0  0  0  0  0  0
   -1.0004   -5.0813    1.9275 H   0  0  0  0  0  0  0  0  0  0  0  0
   -0.7334   -3.2450    0.2760 H   0  0  0  0  0  0  0  0  0  0  0  0
   -1.6705   -2.7192    1.6759 H   0  0  0  0  0  0  0  0  0  0  0  0
    1.2237   -5.2917    0.2960 N   0  0  0  0  0  0  0  0  0  0  0  0
    2.4730   -5.8053   -0.2535 C   0  0  0  0  0  0  0  0  0  0  0  0
    0.4076   -5.2403   -0.3058 H   0  0  0  0  0  0  0  0  0  0  0  0
    3.2522   -5.0364   -0.2187 H   0  0  0  0  0  0  0  0  0  0  0  0
    2.8126   -6.6778    0.3148 H   0  0  0  0  0  0  0  0  0  0  0  0
    2.3319   -6.1066   -1.2961 H   0  0  0  0  0  0  0  0  0  0  0  0
   -5.5168    1.1145   -0.9968 C   0  0  0  0  0  0  0  0  0  0  0  0
   -5.9279    0.0747   -1.4879 O   0  0  0  0  0  0  0  0  0  0  0  0
   -6.2464    1.7445    0.1745 C   0  0  0  0  0  0  0  0  0  0  0  0
   -6.5583    2.7595   -0.0829 H   0  0  0  0  0  0  0  0  0  0  0  0
   -7.1331    1.1560    0.4263 H   0  0  0  0  0  0  0  0  0  0  0  0
   -5.5895    1.7820    1.0469 H   0  0  0  0  0  0  0  0  0  0  0  0
   -4.3823    1.7123   -1.5044 N   0  0  0  0  0  0  0  0  0  0  0  0
   -3.5087    1.0984   -2.5123 C   0  0  2  0  0  0  0  0  0  0  0  0
   -2.0211    1.3576   -2.2035 C   0  0  0  0  0  0  0  0  0  0  0  0
   -1.6876    2.3649   -1.5921 O   0  0  0  0  0  0  0  0  0  0  0  0
   -3.8813    1.6685   -3.8834 C   0  0  0  0  0  0  0  0  0  0  0  0
   -4.0053    2.5109   -0.9946 H   0  0  0  0  0  0  0  0  0  0  0  0
   -3.6553    0.0130   -2.5225 H   0  0  0  0  0  0  0  0  0  0  0  0
   -3.7419    2.7544   -3.8982 H   0  0  0  0  0  0  0  0  0  0  0  0
   -3.2569    1.2270   -4.6658 H   0  0  0  0  0  0  0  0  0  0  0  0
   -4.9290    1.4487   -4.1119 H   0  0  0  0  0  0  0  0  0  0  0  0
   -1.0538    0.4744   -2.6480 N   0  0  0  0  0  0  0  0  0  0  0  0
    0.3658    0.5261   -2.2475 C   0  0  2  0  0  0  0  0  0  0  0  0
    1.2812    0.3507   -3.4783 C   0  0  0  0  0  0  0  0  0  0  0  0
    2.2218   -0.4340   -3.4807 O   0  0  0  0  0  0  0  0  0  0  0  0
    0.6337   -0.5462   -1.1749 C   0  0  0  0  0  0  0  0  0  0  0  0
   -0.2938   -0.1947    0.3729 S   0  0  0  0  0  0  0  0  0  0  0  0
   -1.3900   -0.3705   -3.1018 H   0  0  0  0  0  0  0  0  0  0  0  0
    0.6113    1.5043   -1.8195 H   0  0  0  0  0  0  0  0  0  0  0  0
    0.3613   -1.5351   -1.5547 H   0  0  0  0  0  0  0  0  0  0  0  0
    1.7028   -0.5643   -0.9374 H   0  0  0  0  0  0  0  0  0  0  0  0
    0.9961    1.0513   -4.6346 N   0  0  0  0  0  0  0  0  0  0  0  0
    1.8285    1.0604   -5.8440 C   0  0  2  0  0  0  0  0  0  0  0  0
    1.6400    2.3671   -6.6435 C   0  0  0  0  0  0  0  0  0  0  0  0
    0.6820    3.0958   -6.4097 O   0  0  0  0  0  0  0  0  0  0  0  0
    1.4514   -0.1480   -6.7069 C   0  0  0  0  0  0  0  0  0  0  0  0
    0.2677    1.7647   -4.5741 H   0  0  0  0  0  0  0  0  0  0  0  0
    2.8852    0.9931   -5.5632 H   0  0  0  0  0  0  0  0  0  0  0  0
    0.3983   -0.0928   -7.0007 H   0  0  0  0  0  0  0  0  0  0  0  0
    2.0646   -0.1805   -7.6124 H   0  0  0  0  0  0  0  0  0  0  0  0
    1.6101   -1.0774   -6.1512 H   0  0  0  0  0  0  0  0  0  0  0  0
    2.5409    2.7258   -7.6293 N   0  0  0  0  0  0  0  0  0  0  0  0
    2.4202    3.9480   -8.4156 C   0  0  0  0  0  0  0  0  0  0  0  0
    3.3365    2.1145   -7.7885 H   0  0  0  0  0  0  0  0  0  0  0  0
    1.4623    3.9702   -8.9461 H   0  0  0  0  0  0  0  0  0  0  0  0
    2.4844    4.8286   -7.7677 H   0  0  0  0  0  0  0  0  0  0  0  0
    3.2248    4.0030   -9.1552 H   0  0  0  0  0  0  0  0  0  0  0  0
  1  2  2  0  0  0  0
  1  3  1  0  0  0  0
  1  7  1  0  0  0  0
  3  4  1  0  0  0  0
  3  5  1  0  0  0  0
  3  6  1  0  0  0  0
  7  8  1  0  0  0  0
  7 13  1  0  0  0  0
  8  9  1  0  0  0  0
  8 11  1  0  0  0  0
  8 14  1  0  0  0  0
  9 10  2  0  0  0  0
  9 17  1  0  0  0  0
 11 12  1  0  0  0  0
 11 15  1  0  0  0  0
 11 16  1  0  0  0  0
 12 44  1  0  0  0  0
 17 18  1  0  0  0  0
 17 19  1  0  0  0  0
 18 20  1  0  0  0  0
 18 21  1  0  0  0  0
 18 22  1  0  0  0  0
 23 24  2  0  0  0  0
 23 25  1  0  0  0  0
 23 29  1  0  0  0  0
 25 26  1  0  0  0  0
 25 27  1  0  0  0  0
 25 28  1  0  0  0  0
 29 30  1  0  0  0  0
 29 34  1  0  0  0  0
 30 31  1  0  0  0  0
 30 33  1  0  0  0  0
 30 35  1  0  0  0  0
 31 32  2  0  0  0  0
 31 39  1  0  0  0  0
 33 36  1  0  0  0  0
 33 37  1  0  0  0  0
 33 38  1  0  0  0  0
 39 40  1  0  0  0  0
 39 45  1  0  0  0  0
 40 41  1  0  0  0  0
 40 43  1  0  0  0  0
 40 46  1  0  0  0  0
 41 42  2  0  0  0  0
 41 49  1  0  0  0  0
 43 44  1  0  0  0  0
 43 47  1  0  0  0  0
 43 48  1  0  0  0  0
 49 50  1  0  0  0  0
 49 54  1  0  0  0  0
 50 51  1  0  0  0  0
 50 53  1  0  0  0  0
 50 55  1  0  0  0  0
 51 52  2  0  0  0  0
 51 59  1  0  0  0  0
 53 56  1  0  0  0  0
 53 57  1  0  0  0  0
 53 58  1  0  0  0  0
 59 60  1  0  0  0  0
 59 61  1  0  0  0  0
 60 62  1  0  0  0  0
 60 63  1  0  0  0  0
 60 64  1  0  0  0  0
M  END
$$$$

  -OEChem-05262216053D

 64 63  0     1  0  0  0  0  0999 V2000
   -1.3447   -3.9666    4.3533 C   0  0  0  0  0  0  0  0  0  0  0  0
   -2.4523   -4.1659    3.8796 O   0  0  0  0  0  0  0  0  0  0  0  0
   -1.1868   -3.6821    5.8347 C   0  0  0  0  0  0  0  0  0  0  0  0
   -0.7114   -2.7088    5.9790 H   0  0  0  0  0  0  0  0  0  0  0  0
   -2.1648   -3.6715    6.3237 H   0  0  0  0  0  0  0  0  0  0  0  0
   -0.5692   -4.4552    6.2982 H   0  0  0  0  0  0  0  0  0  0  0  0
   -0.2349   -4.0093    3.5386 N   0  0  0  0  0  0  0  0  0  0  0  0
   -0.2639   -4.2802    2.0946 C   0  0  2  0  0  0  0  0  0  0  0  0
    1.0940   -4.8065    1.5797 C   0  0  0  0  0  0  0  0  0  0  0  0
    2.0618   -4.8653    2.3312 O   0  0  0  0  0  0  0  0  0  0  0  0
   -0.6754   -3.0024    1.3457 C   0  0  0  0  0  0  0  0  0  0  0  0
    0.5121   -1.6322    1.6543 S   0  0  0  0  0  0  0  0  0  0  0  0
    0.6809   -3.8865    3.9687 H   0  0  0  0  0  0  0  0  0  0  0  0
   -1.0047   -5.0609    1.8934 H   0  0  0  0  0  0  0  0  0  0  0  0
   -0.7299   -3.2005    0.2718 H   0  0  0  0  0  0  0  0  0  0  0  0
   -1.6729   -2.6921    1.6744 H   0  0  0  0  0  0  0  0  0  0  0  0
    1.2266   -5.2521    0.2760 N   0  0  0  0  0  0  0  0  0  0  0  0
    2.4889   -5.7179   -0.2863 C   0  0  0  0  0  0  0  0  0  0  0  0
    0.4124   -5.1961   -0.3281 H   0  0  0  0  0  0  0  0  0  0  0  0
    3.2277   -4.9096   -0.2883 H   0  0  0  0  0  0  0  0  0  0  0  0
    2.8848   -6.5562    0.2966 H   0  0  0  0  0  0  0  0  0  0  0  0
    2.3421   -6.0549   -1.3171 H   0  0  0  0  0  0  0  0  0  0  0  0
   -5.5084    1.1075   -1.0132 C   0  0  0  0  0  0  0  0  0  0  0  0
   -5.9190    0.0633   -1.4951 O   0  0  0  0  0  0  0  0  0  0  0  0
   -6.2514    1.7590    0.1374 C   0  0  0  0  0  0  0  0  0  0  0  0
   -6.5514    2.7725   -0.1387 H   0  0  0  0  0  0  0  0  0  0  0  0
   -7.1462    1.1809    0.3839 H   0  0  0  0  0  0  0  0  0  0  0  0
   -5.6081    1.8038    1.0193 H   0  0  0  0  0  0  0  0  0  0  0  0
   -4.3633    1.6910   -1.5128 N   0  0  0  0  0  0  0  0  0  0  0  0
   -3.4838    1.0622   -2.5057 C   0  0  2  0  0  0  0  0  0  0  0  0
   -1.9987    1.3417   -2.2032 C   0  0  0  0  0  0  0  0  0  0  0  0
   -1.6750    2.3584   -1.6018 O   0  0  0  0  0  0  0  0  0  0  0  0
   -3.8596    1.5966   -3.8903 C   0  0  0  0  0  0  0  0  0  0  0  0
   -3.9883    2.4950   -1.0102 H   0  0  0  0  0  0  0  0  0  0  0  0
   -3.6209   -0.0242   -2.4894 H   0  0  0  0  0  0  0  0  0  0  0  0
   -3.7271    2.6828   -3.9296 H   0  0  0  0  0  0  0  0  0  0  0  0
   -3.2322    1.1409   -4.6624 H   0  0  0  0  0  0  0  0  0  0  0  0
   -4.9057    1.3646   -4.1140 H   0  0  0  0  0  0  0  0  0  0  0  0
   -1.0233    0.4611   -2.6342 N   0  0  0  0  0  0  0  0  0  0  0  0
    0.3933    0.5293   -2.2317 C   0  0  2  0  0  0  0  0  0  0  0  0
    1.3078    0.3452   -3.4602 C   0  0  0  0  0  0  0  0  0  0  0  0
    2.0687   -0.6102   -3.5618 O   0  0  0  0  0  0  0  0  0  0  0  0
    0.6705   -0.5265   -1.1468 C   0  0  0  0  0  0  0  0  0  0  0  0
   -0.2625   -0.1627    0.3942 S   0  0  0  0  0  0  0  0  0  0  0  0
   -1.3485   -0.3893   -3.0854 H   0  0  0  0  0  0  0  0  0  0  0  0
    0.6297    1.5135   -1.8135 H   0  0  0  0  0  0  0  0  0  0  0  0
    0.4048   -1.5219   -1.5139 H   0  0  0  0  0  0  0  0  0  0  0  0
    1.7401   -0.5340   -0.9116 H   0  0  0  0  0  0  0  0  0  0  0  0
    1.2158    1.2419   -4.5069 N   0  0  0  0  0  0  0  0  0  0  0  0
    2.0865    1.2468   -5.6893 C   0  0  2  0  0  0  0  0  0  0  0  0
    2.2409    2.6684   -6.2705 C   0  0  0  0  0  0  0  0  0  0  0  0
    1.4822    3.5628   -5.9140 O   0  0  0  0  0  0  0  0  0  0  0  0
    1.4886    0.3035   -6.7377 C   0  0  0  0  0  0  0  0  0  0  0  0
    0.6364    2.0705   -4.3596 H   0  0  0  0  0  0  0  0  0  0  0  0
    3.0857    0.8946   -5.4112 H   0  0  0  0  0  0  0  0  0  0  0  0
    0.4923    0.6463   -7.0352 H   0  0  0  0  0  0  0  0  0  0  0  0
    2.1242    0.2652   -7.6274 H   0  0  0  0  0  0  0  0  0  0  0  0
    1.4027   -0.7097   -6.3322 H   0  0  0  0  0  0  0  0  0  0  0  0
    3.2317    2.9486   -7.1934 N   0  0  0  0  0  0  0  0  0  0  0  0
    3.4303    4.2710   -7.7751 C   0  0  0  0  0  0  0  0  0  0  0  0
    3.8559    2.1933   -7.4615 H   0  0  0  0  0  0  0  0  0  0  0  0
    2.5354    4.5882   -8.3207 H   0  0  0  0  0  0  0  0  0  0  0  0
    3.6446    5.0063   -6.9923 H   0  0  0  0  0  0  0  0  0  0  0  0
    4.2721    4.2549   -8.4737 H   0  0  0  0  0  0  0  0  0  0  0  0
  1  2  2  0  0  0  0
  1  3  1  0  0  0  0
  1  7  1  0  0  0  0
  3  4  1  0  0  0  0
  3  5  1  0  0  0  0
  3  6  1  0  0  0  0
  7  8  1  0  0  0  0
  7 13  1  0  0  0  0
  8  9  1  0  0  0  0
  8 11  1  0  0  0  0
  8 14  1  0  0  0  0
  9 10  2  0  0  0  0
  9 17  1  0  0  0  0
 11 12  1  0  0  0  0
 11 15  1  0  0  0  0
 11 16  1  0  0  0  0
 12 44  1  0  0  0  0
 17 18  1  0  0  0  0
 17 19  1  0  0  0  0
 18 20  1  0  0  0  0
 18 21  1  0  0  0  0
 18 22  1  0  0  0  0
 23 24  2  0  0  0  0
 23 25  1  0  0  0  0
 23 29  1  0  0  0  0
 25 26  1  0  0  0  0
 25 27  1  0  0  0  0
 25 28  1  0  0  0  0
 29 30  1  0  0  0  0
 29 34  1  0  0  0  0
 30 31  1  0  0  0  0
 30 33  1  0  0  0  0
 30 35  1  0  0  0  0
 31 32  2  0  0  0  0
 31 39  1  0  0  0  0
 33 36  1  0  0  0  0
 33 37  1  0  0  0  0
 33 38  1  0  0  0  0
 39 40  1  0  0  0  0
 39 45  1  0  0  0  0
 40 41  1  0  0  0  0
 40 43  1  0  0  0  0
 40 46  1  0  0  0  0
 41 42  2  0  0  0  0
 41 49  1  0  0  0  0
 43 44  1  0  0  0  0
 43 47  1  0  0  0  0
 43 48  1  0  0  0  0
 49 50  1  0  0  0  0
 49 54  1  0  0  0  0
 50 51  1  0  0  0  0
 50 53  1  0  0  0  0
 50 55  1  0  0  0  0
 51 52  2  0  0  0  0
 51 59  1  0  0  0  0
 53 56  1  0  0  0  0
 53 57  1  0  0  0  0
 53 58  1  0  0  0  0
 59 60  1  0  0  0  0
 59 61  1  0  0  0  0
 60 62  1  0  0  0  0
 60 63  1  0  0  0  0
 60 64  1  0  0  0  0
M  END
$$$$

  -OEChem-05262216053D

 64 63  0     1  0  0  0  0  0999 V2000
   -1.3481   -3.9678    4.3424 C   0  0  0  0  0  0  0  0  0  0  0  0
   -2.4543   -4.1668    3.8652 O   0  0  0  0  0  0  0  0  0  0  0  0
   -1.1918   -3.6947    5.8261 C   0  0  0  0  0  0  0  0  0  0  0  0
   -0.7035   -2.7288    5.9776 H   0  0  0  0  0  0  0  0  0  0  0  0
   -2.1717   -3.6737    6.3109 H   0  0  0  0  0  0  0  0  0  0  0  0
   -0.5866   -4.4785    6.2876 H   0  0  0  0  0  0  0  0  0  0  0  0
   -0.2379   -3.9977    3.5282 N   0  0  0  0  0  0  0  0  0  0  0  0
   -0.2661   -4.2537    2.0814 C   0  0  2  0  0  0  0  0  0  0  0  0
    1.0908   -4.7786    1.5638 C   0  0  0  0  0  0  0  0  0  0  0  0
    2.0519   -4.8653    2.3212 O   0  0  0  0  0  0  0  0  0  0  0  0
   -0.6724   -2.9674    1.3452 C   0  0  0  0  0  0  0  0  0  0  0  0
    0.5169   -1.6043    1.6752 S   0  0  0  0  0  0  0  0  0  0  0  0
    0.6778   -3.8857    3.9618 H   0  0  0  0  0  0  0  0  0  0  0  0
   -1.0085   -5.0308    1.8715 H   0  0  0  0  0  0  0  0  0  0  0  0
   -0.7230   -3.1529    0.2689 H   0  0  0  0  0  0  0  0  0  0  0  0
   -1.6703   -2.6588    1.6731 H   0  0  0  0  0  0  0  0  0  0  0  0
    1.2295   -5.1960    0.2516 N   0  0  0  0  0  0  0  0  0  0  0  0
    2.4881   -5.6799   -0.3033 C   0  0  0  0  0  0  0  0  0  0  0  0
    0.4225   -5.1155   -0.3595 H   0  0  0  0  0  0  0  0  0  0  0  0
    3.2488   -4.8928   -0.2711 H   0  0  0  0  0  0  0  0  0  0  0  0
    2.8512   -6.5436    0.2639 H   0  0  0  0  0  0  0  0  0  0  0  0
    2.3500   -5.9853   -1.3450 H   0  0  0  0  0  0  0  0  0  0  0  0
   -5.5056    1.0927   -1.0307 C   0  0  0  0  0  0  0  0  0  0  0  0
   -5.9060    0.0384   -1.4988 O   0  0  0  0  0  0  0  0  0  0  0  0
   -6.2635    1.7604    0.1006 C   0  0  0  0  0  0  0  0  0  0  0  0
   -6.5440    2.7761   -0.1881 H   0  0  0  0  0  0  0  0  0  0  0  0
   -7.1712    1.1955    0.3308 H   0  0  0  0  0  0  0  0  0  0  0  0
   -5.6381    1.8021    0.9957 H   0  0  0  0  0  0  0  0  0  0  0  0
   -4.3606    1.6760   -1.5307 N   0  0  0  0  0  0  0  0  0  0  0  0
   -3.4702    1.0393   -2.5089 C   0  0  2  0  0  0  0  0  0  0  0  0
   -1.9893    1.3368   -2.2037 C   0  0  0  0  0  0  0  0  0  0  0  0
   -1.6779    2.3678   -1.6197 O   0  0  0  0  0  0  0  0  0  0  0  0
   -3.8446    1.5491   -3.9026 C   0  0  0  0  0  0  0  0  0  0  0  0
   -3.9987    2.4947   -1.0423 H   0  0  0  0  0  0  0  0  0  0  0  0
   -3.5976   -0.0479   -2.4765 H   0  0  0  0  0  0  0  0  0  0  0  0
   -3.7246    2.6359   -3.9574 H   0  0  0  0  0  0  0  0  0  0  0  0
   -3.2076    1.0894   -4.6640 H   0  0  0  0  0  0  0  0  0  0  0  0
   -4.8865    1.3008   -4.1282 H   0  0  0  0  0  0  0  0  0  0  0  0
   -1.0036    0.4596   -2.6176 N   0  0  0  0  0  0  0  0  0  0  0  0
    0.4102    0.5500   -2.2138 C   0  0  2  0  0  0  0  0  0  0  0  0
    1.3275    0.3549   -3.4373 C   0  0  0  0  0  0  0  0  0  0  0  0
    1.8868   -0.7148   -3.6505 O   0  0  0  0  0  0  0  0  0  0  0  0
    0.6979   -0.4932   -1.1199 C   0  0  0  0  0  0  0  0  0  0  0  0
   -0.2437   -0.1276    0.4160 S   0  0  0  0  0  0  0  0  0  0  0  0
   -1.3166   -0.4029   -3.0548 H   0  0  0  0  0  0  0  0  0  0  0  0
    0.6370    1.5399   -1.8033 H   0  0  0  0  0  0  0  0  0  0  0  0
    0.4412   -1.4942   -1.4794 H   0  0  0  0  0  0  0  0  0  0  0  0
    1.7678   -0.4892   -0.8852 H   0  0  0  0  0  0  0  0  0  0  0  0
    1.4650    1.3793   -4.3544 N   0  0  0  0  0  0  0  0  0  0  0  0
    2.3743    1.3584   -5.5081 C   0  0  2  0  0  0  0  0  0  0  0  0
    2.8657    2.7769   -5.8681 C   0  0  0  0  0  0  0  0  0  0  0  0
    2.3097    3.7593   -5.3908 O   0  0  0  0  0  0  0  0  0  0  0  0
    1.6391    0.7293   -6.6961 C   0  0  0  0  0  0  0  0  0  0  0  0
    1.0470    2.2805   -4.1158 H   0  0  0  0  0  0  0  0  0  0  0  0
    3.2581    0.7573   -5.2696 H   0  0  0  0  0  0  0  0  0  0  0  0
    0.7568    1.3230   -6.9566 H   0  0  0  0  0  0  0  0  0  0  0  0
    2.2944    0.6770   -7.5709 H   0  0  0  0  0  0  0  0  0  0  0  0
    1.3156   -0.2865   -6.4478 H   0  0  0  0  0  0  0  0  0  0  0  0
    3.9381    2.9536   -6.7233 N   0  0  0  0  0  0  0  0  0  0  0  0
    4.4686    4.2637   -7.0832 C   0  0  0  0  0  0  0  0  0  0  0  0
    4.3988    2.1216   -7.0799 H   0  0  0  0  0  0  0  0  0  0  0  0
    3.6842    4.8912   -7.5197 H   0  0  0  0  0  0  0  0  0  0  0  0
    4.8730    4.7692   -6.1999 H   0  0  0  0  0  0  0  0  0  0  0  0
    5.2716    4.1569   -7.8188 H   0  0  0  0  0  0  0  0  0  0  0  0
  1  2  2  0  0  0  0
  1  3  1  0  0  0  0
  1  7  1  0  0  0  0
  3  4  1  0  0  0  0
  3  5  1  0  0  0  0
  3  6  1  0  0  0  0
  7  8  1  0  0  0  0
  7 13  1  0  0  0  0
  8  9  1  0  0  0  0
  8 11  1  0  0  0  0
  8 14  1  0  0  0  0
  9 10  2  0  0  0  0
  9 17  1  0  0  0  0
 11 12  1  0  0  0  0
 11 15  1  0  0  0  0
 11 16  1  0  0  0  0
 12 44  1  0  0  0  0
 17 18  1  0  0  0  0
 17 19  1  0  0  0  0
 18 20  1  0  0  0  0
 18 21  1  0  0  0  0
 18 22  1  0  0  0  0
 23 24  2  0  0  0  0
 23 25  1  0  0  0  0
 23 29  1  0  0  0  0
 25 26  1  0  0  0  0
 25 27  1  0  0  0  0
 25 28  1  0  0  0  0
 29 30  1  0  0  0  0
 29 34  1  0  0  0  0
 30 31  1  0  0  0  0
 30 33  1  0  0  0  0
 30 35  1  0  0  0  0
 31 32  2  0  0  0  0
 31 39  1  0  0  0  0
 33 36  1  0  0  0  0
 33 37  1  0  0  0  0
 33 38  1  0  0  0  0
 39 40  1  0  0  0  0
 39 45  1  0  0  0  0
 40 41  1  0  0  0  0
 40 43  1  0  0  0  0
 40 46  1  0  0  0  0
 41 42  2  0  0  0  0
 41 49  1  0  0  0  0
 43 44  1  0  0  0  0
 43 47  1  0  0  0  0
 43 48  1  0  0  0  0
 49 50  1  0  0  0  0
 49 54  1  0  0  0  0
 50 51  1  0  0  0  0
 50 53  1  0  0  0  0
 50 55  1  0  0  0  0
 51 52  2  0  0  0  0
 51 59  1  0  0  0  0
 53 56  1  0  0  0  0
 53 57  1  0  0  0  0
 53 58  1  0  0  0  0
 59 60  1  0  0  0  0
 59 61  1  0  0  0  0
 60 62  1  0  0  0  0
 60 63  1  0  0  0  0
 60 64  1  0  0  0  0
M  END
$$$$

  -OEChem-05262216053D

 64 63  0     1  0  0  0  0  0999 V2000
   -1.3420   -3.9488    4.3472 C   0  0  0  0  0  0  0  0  0  0  0  0
   -2.4509   -4.1288    3.8686 O   0  0  0  0  0  0  0  0  0  0  0  0
   -1.1825   -3.6962    5.8345 C   0  0  0  0  0  0  0  0  0  0  0  0
   -0.6696   -2.7455    5.9994 H   0  0  0  0  0  0  0  0  0  0  0  0
   -2.1630   -3.6552    6.3171 H   0  0  0  0  0  0  0  0  0  0  0  0
   -0.5989   -4.5005    6.2885 H   0  0  0  0  0  0  0  0  0  0  0  0
   -0.2326   -3.9836    3.5316 N   0  0  0  0  0  0  0  0  0  0  0  0
   -0.2648   -4.2318    2.0835 C   0  0  2  0  0  0  0  0  0  0  0  0
    1.0860   -4.7666    1.5591 C   0  0  0  0  0  0  0  0  0  0  0  0
    2.0512   -4.8588    2.3107 O   0  0  0  0  0  0  0  0  0  0  0  0
   -0.6611   -2.9382    1.3540 C   0  0  0  0  0  0  0  0  0  0  0  0
    0.5397   -1.5859    1.6893 S   0  0  0  0  0  0  0  0  0  0  0  0
    0.6845   -3.8824    3.9645 H   0  0  0  0  0  0  0  0  0  0  0  0
   -1.0149   -5.0009    1.8709 H   0  0  0  0  0  0  0  0  0  0  0  0
   -0.7141   -3.1181    0.2768 H   0  0  0  0  0  0  0  0  0  0  0  0
   -1.6564   -2.6229    1.6839 H   0  0  0  0  0  0  0  0  0  0  0  0
    1.2133   -5.1845    0.2458 N   0  0  0  0  0  0  0  0  0  0  0  0
    2.4634   -5.6761   -0.3207 C   0  0  0  0  0  0  0  0  0  0  0  0
    0.4007   -5.1013   -0.3577 H   0  0  0  0  0  0  0  0  0  0  0  0
    3.2362   -4.9017   -0.2734 H   0  0  0  0  0  0  0  0  0  0  0  0
    2.8140   -6.5578    0.2260 H   0  0  0  0  0  0  0  0  0  0  0  0
    2.3179   -5.9558   -1.3684 H   0  0  0  0  0  0  0  0  0  0  0  0
   -5.5112    1.0804   -1.0702 C   0  0  0  0  0  0  0  0  0  0  0  0
   -5.9062    0.0260   -1.5424 O   0  0  0  0  0  0  0  0  0  0  0  0
   -6.2768    1.7436    0.0594 C   0  0  0  0  0  0  0  0  0  0  0  0
   -6.5419    2.7666   -0.2182 H   0  0  0  0  0  0  0  0  0  0  0  0
   -7.1945    1.1871    0.2694 H   0  0  0  0  0  0  0  0  0  0  0  0
   -5.6631    1.7657    0.9633 H   0  0  0  0  0  0  0  0  0  0  0  0
   -4.3628    1.6655   -1.5607 N   0  0  0  0  0  0  0  0  0  0  0  0
   -3.4581    1.0278   -2.5256 C   0  0  2  0  0  0  0  0  0  0  0  0
   -1.9825    1.3355   -2.2019 C   0  0  0  0  0  0  0  0  0  0  0  0
   -1.6864    2.3661   -1.6088 O   0  0  0  0  0  0  0  0  0  0  0  0
   -3.8155    1.5295   -3.9269 C   0  0  0  0  0  0  0  0  0  0  0  0
   -4.0025    2.4789   -1.0625 H   0  0  0  0  0  0  0  0  0  0  0  0
   -3.5803   -0.0602   -2.4904 H   0  0  0  0  0  0  0  0  0  0  0  0
   -3.7029    2.6171   -3.9834 H   0  0  0  0  0  0  0  0  0  0  0  0
   -3.1632    1.0720   -4.6769 H   0  0  0  0  0  0  0  0  0  0  0  0
   -4.8523    1.2731   -4.1674 H   0  0  0  0  0  0  0  0  0  0  0  0
   -0.9854    0.4628   -2.5965 N   0  0  0  0  0  0  0  0  0  0  0  0
    0.4271    0.5719   -2.1946 C   0  0  2  0  0  0  0  0  0  0  0  0
    1.3476    0.3624   -3.4115 C   0  0  0  0  0  0  0  0  0  0  0  0
    1.6853   -0.7654   -3.7536 O   0  0  0  0  0  0  0  0  0  0  0  0
    0.7304   -0.4595   -1.0955 C   0  0  0  0  0  0  0  0  0  0  0  0
   -0.2115   -0.0963    0.4396 S   0  0  0  0  0  0  0  0  0  0  0  0
   -1.2805   -0.3918   -3.0616 H   0  0  0  0  0  0  0  0  0  0  0  0
    0.6427    1.5683   -1.7929 H   0  0  0  0  0  0  0  0  0  0  0  0
    0.4842   -1.4660   -1.4473 H   0  0  0  0  0  0  0  0  0  0  0  0
    1.8003   -0.4419   -0.8645 H   0  0  0  0  0  0  0  0  0  0  0  0
    1.7332    1.4435   -4.1796 N   0  0  0  0  0  0  0  0  0  0  0  0
    2.6789    1.3796   -5.3016 C   0  0  2  0  0  0  0  0  0  0  0  0
    3.4946    2.6840   -5.4271 C   0  0  0  0  0  0  0  0  0  0  0  0
    3.1715    3.6744   -4.7812 O   0  0  0  0  0  0  0  0  0  0  0  0
    1.8893    1.1118   -6.5866 C   0  0  0  0  0  0  0  0  0  0  0  0
    1.5002    2.3743   -3.8294 H   0  0  0  0  0  0  0  0  0  0  0  0
    3.3910    0.5637   -5.1381 H   0  0  0  0  0  0  0  0  0  0  0  0
    1.1820    1.9254   -6.7768 H   0  0  0  0  0  0  0  0  0  0  0  0
    2.5651    1.0297   -7.4429 H   0  0  0  0  0  0  0  0  0  0  0  0
    1.3290    0.1755   -6.5006 H   0  0  0  0  0  0  0  0  0  0  0  0
    4.6005    2.7477   -6.2549 N   0  0  0  0  0  0  0  0  0  0  0  0
    5.4280    3.9407   -6.3907 C   0  0  0  0  0  0  0  0  0  0  0  0
    4.8640    1.9060   -6.7587 H   0  0  0  0  0  0  0  0  0  0  0  0
    4.8150    4.8046   -6.6688 H   0  0  0  0  0  0  0  0  0  0  0  0
    5.9385    4.1602   -5.4472 H   0  0  0  0  0  0  0  0  0  0  0  0
    6.1835    3.7924   -7.1682 H   0  0  0  0  0  0  0  0  0  0  0  0
  1  2  2  0  0  0  0
  1  3  1  0  0  0  0
  1  7  1  0  0  0  0
  3  4  1  0  0  0  0
  3  5  1  0  0  0  0
  3  6  1  0  0  0  0
  7  8  1  0  0  0  0
  7 13  1  0  0  0  0
  8  9  1  0  0  0  0
  8 11  1  0  0  0  0
  8 14  1  0  0  0  0
  9 10  2  0  0  0  0
  9 17  1  0  0  0  0
 11 12  1  0  0  0  0
 11 15  1  0  0  0  0
 11 16  1  0  0  0  0
 12 44  1  0  0  0  0
 17 18  1  0  0  0  0
 17 19  1  0  0  0  0
 18 20  1  0  0  0  0
 18 21  1  0  0  0  0
 18 22  1  0  0  0  0
 23 24  2  0  0  0  0
 23 25  1  0  0  0  0
 23 29  1  0  0  0  0
 25 26  1  0  0  0  0
 25 27  1  0  0  0  0
 25 28  1  0  0  0  0
 29 30  1  0  0  0  0
 29 34  1  0  0  0  0
 30 31  1  0  0  0  0
 30 33  1  0  0  0  0
 30 35  1  0  0  0  0
 31 32  2  0  0  0  0
 31 39  1  0  0  0  0
 33 36  1  0  0  0  0
 33 37  1  0  0  0  0
 33 38  1  0  0  0  0
 39 40  1  0  0  0  0
 39 45  1  0  0  0  0
 40 41  1  0  0  0  0
 40 43  1  0  0  0  0
 40 46  1  0  0  0  0
 41 42  2  0  0  0  0
 41 49  1  0  0  0  0
 43 44  1  0  0  0  0
 43 47  1  0  0  0  0
 43 48  1  0  0  0  0
 49 50  1  0  0  0  0
 49 54  1  0  0  0  0
 50 51  1  0  0  0  0
 50 53  1  0  0  0  0
 50 55  1  0  0  0  0
 51 52  2  0  0  0  0
 51 59  1  0  0  0  0
 53 56  1  0  0  0  0
 53 57  1  0  0  0  0
 53 58  1  0  0  0  0
 59 60  1  0  0  0  0
 59 61  1  0  0  0  0
 60 62  1  0  0  0  0
 60 63  1  0  0  0  0
 60 64  1  0  0  0  0
M  END
$$$$

  -OEChem-05262216053D

 64 63  0     1  0  0  0  0  0999 V2000
   -1.3340   -3.9435    4.3568 C   0  0  0  0  0  0  0  0  0  0  0  0
   -2.4465   -4.1118    3.8821 O   0  0  0  0  0  0  0  0  0  0  0  0
   -1.1649   -3.7039    5.8451 C   0  0  0  0  0  0  0  0  0  0  0  0
   -0.6663   -2.7463    6.0143 H   0  0  0  0  0  0  0  0  0  0  0  0
   -2.1413   -3.6844    6.3369 H   0  0  0  0  0  0  0  0  0  0  0  0
   -0.5636   -4.5028    6.2853 H   0  0  0  0  0  0  0  0  0  0  0  0
   -0.2288   -3.9769    3.5357 N   0  0  0  0  0  0  0  0  0  0  0  0
   -0.2688   -4.2136    2.0855 C   0  0  2  0  0  0  0  0  0  0  0  0
    1.0710   -4.7681    1.5527 C   0  0  0  0  0  0  0  0  0  0  0  0
    2.0305   -4.8980    2.3059 O   0  0  0  0  0  0  0  0  0  0  0  0
   -0.6459   -2.9073    1.3692 C   0  0  0  0  0  0  0  0  0  0  0  0
    0.5826   -1.5801    1.7046 S   0  0  0  0  0  0  0  0  0  0  0  0
    0.6908   -3.8918    3.9668 H   0  0  0  0  0  0  0  0  0  0  0  0
   -1.0326   -4.9676    1.8688 H   0  0  0  0  0  0  0  0  0  0  0  0
   -0.7122   -3.0782    0.2912 H   0  0  0  0  0  0  0  0  0  0  0  0
   -1.6320   -2.5757    1.7106 H   0  0  0  0  0  0  0  0  0  0  0  0
    1.1967   -5.1645    0.2324 N   0  0  0  0  0  0  0  0  0  0  0  0
    2.4356   -5.6908   -0.3285 C   0  0  0  0  0  0  0  0  0  0  0  0
    0.3920   -5.0497   -0.3765 H   0  0  0  0  0  0  0  0  0  0  0  0
    3.2262   -4.9343   -0.2862 H   0  0  0  0  0  0  0  0  0  0  0  0
    2.7640   -6.5751    0.2280 H   0  0  0  0  0  0  0  0  0  0  0  0
    2.2870   -5.9776   -1.3740 H   0  0  0  0  0  0  0  0  0  0  0  0
   -5.5180    1.0779   -1.1220 C   0  0  0  0  0  0  0  0  0  0  0  0
   -5.9103    0.0324   -1.6158 O   0  0  0  0  0  0  0  0  0  0  0  0
   -6.3016    1.7321   -0.0004 C   0  0  0  0  0  0  0  0  0  0  0  0
   -6.5907    2.7457   -0.2888 H   0  0  0  0  0  0  0  0  0  0  0  0
   -7.2051    1.1543    0.2140 H   0  0  0  0  0  0  0  0  0  0  0  0
   -5.6898    1.7781    0.9039 H   0  0  0  0  0  0  0  0  0  0  0  0
   -4.3564    1.6619   -1.5803 N   0  0  0  0  0  0  0  0  0  0  0  0
   -3.4336    1.0269   -2.5290 C   0  0  2  0  0  0  0  0  0  0  0  0
   -1.9644    1.3312   -2.1764 C   0  0  0  0  0  0  0  0  0  0  0  0
   -1.6779    2.3583   -1.5722 O   0  0  0  0  0  0  0  0  0  0  0  0
   -3.7637    1.5333   -3.9354 C   0  0  0  0  0  0  0  0  0  0  0  0
   -4.0045    2.4702   -1.0681 H   0  0  0  0  0  0  0  0  0  0  0  0
   -3.5581   -0.0609   -2.4986 H   0  0  0  0  0  0  0  0  0  0  0  0
   -3.6416    2.6201   -3.9885 H   0  0  0  0  0  0  0  0  0  0  0  0
   -3.1031    1.0715   -4.6757 H   0  0  0  0  0  0  0  0  0  0  0  0
   -4.7982    1.2852   -4.1933 H   0  0  0  0  0  0  0  0  0  0  0  0
   -0.9616    0.4609   -2.5605 N   0  0  0  0  0  0  0  0  0  0  0  0
    0.4519    0.5858   -2.1707 C   0  0  2  0  0  0  0  0  0  0  0  0
    1.3673    0.3616   -3.3876 C   0  0  0  0  0  0  0  0  0  0  0  0
    1.4920   -0.7612   -3.8640 O   0  0  0  0  0  0  0  0  0  0  0  0
    0.7752   -0.4344   -1.0683 C   0  0  0  0  0  0  0  0  0  0  0  0
   -0.1571   -0.0707    0.4727 S   0  0  0  0  0  0  0  0  0  0  0  0
   -1.2436   -0.3852   -3.0490 H   0  0  0  0  0  0  0  0  0  0  0  0
    0.6598    1.5883   -1.7816 H   0  0  0  0  0  0  0  0  0  0  0  0
    0.5328   -1.4448   -1.4122 H   0  0  0  0  0  0  0  0  0  0  0  0
    1.8469   -0.4068   -0.8466 H   0  0  0  0  0  0  0  0  0  0  0  0
    1.9972    1.4298   -3.9963 N   0  0  0  0  0  0  0  0  0  0  0  0
    2.9607    1.3174   -5.0993 C   0  0  2  0  0  0  0  0  0  0  0  0
    4.0437    2.4151   -5.0201 C   0  0  0  0  0  0  0  0  0  0  0  0
    3.9025    3.3625   -4.2552 O   0  0  0  0  0  0  0  0  0  0  0  0
    2.1901    1.4128   -6.4194 C   0  0  0  0  0  0  0  0  0  0  0  0
    1.9322    2.3395   -3.5372 H   0  0  0  0  0  0  0  0  0  0  0  0
    3.4720    0.3502   -5.0479 H   0  0  0  0  0  0  0  0  0  0  0  0
    1.6764    2.3769   -6.4932 H   0  0  0  0  0  0  0  0  0  0  0  0
    2.8696    1.3134   -7.2710 H   0  0  0  0  0  0  0  0  0  0  0  0
    1.4438    0.6145   -6.4802 H   0  0  0  0  0  0  0  0  0  0  0  0
    5.1868    2.3349   -5.7947 N   0  0  0  0  0  0  0  0  0  0  0  0
    6.2615    3.3191   -5.7385 C   0  0  0  0  0  0  0  0  0  0  0  0
    5.2916    1.5268   -6.4010 H   0  0  0  0  0  0  0  0  0  0  0  0
    5.8735    4.3242   -5.9359 H   0  0  0  0  0  0  0  0  0  0  0  0
    6.7352    3.3118   -4.7512 H   0  0  0  0  0  0  0  0  0  0  0  0
    7.0237    3.0917   -6.4903 H   0  0  0  0  0  0  0  0  0  0  0  0
  1  2  2  0  0  0  0
  1  3  1  0  0  0  0
  1  7  1  0  0  0  0
  3  4  1  0  0  0  0
  3  5  1  0  0  0  0
  3  6  1  0  0  0  0
  7  8  1  0  0  0  0
  7 13  1  0  0  0  0
  8  9  1  0  0  0  0
  8 11  1  0  0  0  0
  8 14  1  0  0  0  0
  9 10  2  0  0  0  0
  9 17  1  0  0  0  0
 11 12  1  0  0  0  0
 11 15  1  0  0  0  0
 11 16  1  0  0  0  0
 12 44  1  0  0  0  0
 17 18  1  0  0  0  0
 17 19  1  0  0  0  0
 18 20  1  0  0  0  0
 18 21  1  0  0  0  0
 18 22  1  0  0  0  0
 23 24  2  0  0  0  0
 23 25  1  0  0  0  0
 23 29  1  0  0  0  0
 25 26  1  0  0  0  0
 25 27  1  0  0  0  0
 25 28  1  0  0  0  0
 29 30  1  0  0  0  0
 29 34  1  0  0  0  0
 30 31  1  0  0  0  0
 30 33  1  0  0  0  0
 30 35  1  0  0  0  0
 31 32  2  0  0  0  0
 31 39  1  0  0  0  0
 33 36  1  0  0  0  0
 33 37  1  0  0  0  0
 33 38  1  0  0  0  0
 39 40  1  0  0  0  0
 39 45  1  0  0  0  0
 40 41  1  0  0  0  0
 40 43  1  0  0  0  0
 40 46  1  0  0  0  0
 41 42  2  0  0  0  0
 41 49  1  0  0  0  0
 43 44  1  0  0  0  0
 43 47  1  0  0  0  0
 43 48  1  0  0  0  0
 49 50  1  0  0  0  0
 49 54  1  0  0  0  0
 50 51  1  0  0  0  0
 50 53  1  0  0  0  0
 50 55  1  0  0  0  0
 51 52  2  0  0  0  0
 51 59  1  0  0  0  0
 53 56  1  0  0  0  0
 53 57  1  0  0  0  0
 53 58  1  0  0  0  0
 59 60  1  0  0  0  0
 59 61  1  0  0  0  0
 60 62  1  0  0  0  0
 60 63  1  0  0  0  0
 60 64  1  0  0  0  0
M  END
$$$$

  -OEChem-05262216053D

 64 63  0     1  0  0  0  0  0999 V2000
   -1.3128   -3.9269    4.3698 C   0  0  0  0  0  0  0  0  0  0  0  0
   -2.4280   -4.0867    3.8989 O   0  0  0  0  0  0  0  0  0  0  0  0
   -1.1359   -3.6996    5.8589 C   0  0  0  0  0  0  0  0  0  0  0  0
   -0.6320   -2.7457    6.0329 H   0  0  0  0  0  0  0  0  0  0  0  0
   -2.1099   -3.6792    6.3556 H   0  0  0  0  0  0  0  0  0  0  0  0
   -0.5362   -4.5049    6.2898 H   0  0  0  0  0  0  0  0  0  0  0  0
   -0.2111   -3.9587    3.5439 N   0  0  0  0  0  0  0  0  0  0  0  0
   -0.2589   -4.1919    2.0939 C   0  0  2  0  0  0  0  0  0  0  0  0
    1.0699   -4.7682    1.5579 C   0  0  0  0  0  0  0  0  0  0  0  0
    2.0367   -4.8972    2.3019 O   0  0  0  0  0  0  0  0  0  0  0  0
   -0.6170   -2.8792    1.3796 C   0  0  0  0  0  0  0  0  0  0  0  0
    0.6248   -1.5652    1.7184 S   0  0  0  0  0  0  0  0  0  0  0  0
    0.7110   -3.8832    3.9715 H   0  0  0  0  0  0  0  0  0  0  0  0
   -1.0359   -4.9328    1.8776 H   0  0  0  0  0  0  0  0  0  0  0  0
   -0.6821   -3.0471    0.3011 H   0  0  0  0  0  0  0  0  0  0  0  0
   -1.6004   -2.5371    1.7186 H   0  0  0  0  0  0  0  0  0  0  0  0
    1.1729   -5.1903    0.2440 N   0  0  0  0  0  0  0  0  0  0  0  0
    2.3945   -5.7473   -0.3243 C   0  0  0  0  0  0  0  0  0  0  0  0
    0.3556   -5.0912   -0.3504 H   0  0  0  0  0  0  0  0  0  0  0  0
    3.2099   -5.0181   -0.2688 H   0  0  0  0  0  0  0  0  0  0  0  0
    2.6927   -6.6513    0.2171 H   0  0  0  0  0  0  0  0  0  0  0  0
    2.2367   -6.0105   -1.3748 H   0  0  0  0  0  0  0  0  0  0  0  0
   -5.5224    1.0690   -1.1656 C   0  0  0  0  0  0  0  0  0  0  0  0
   -5.9077    0.0282   -1.6748 O   0  0  0  0  0  0  0  0  0  0  0  0
   -6.3139    1.7039   -0.0377 C   0  0  0  0  0  0  0  0  0  0  0  0
   -6.6018    2.7218   -0.3109 H   0  0  0  0  0  0  0  0  0  0  0  0
   -7.2192    1.1234    0.1613 H   0  0  0  0  0  0  0  0  0  0  0  0
   -5.7084    1.7353    0.8715 H   0  0  0  0  0  0  0  0  0  0  0  0
   -4.3606    1.6644   -1.6092 N   0  0  0  0  0  0  0  0  0  0  0  0
   -3.4224    1.0415   -2.5512 C   0  0  2  0  0  0  0  0  0  0  0  0
   -1.9598    1.3340   -2.1627 C   0  0  0  0  0  0  0  0  0  0  0  0
   -1.6835    2.3480   -1.5321 O   0  0  0  0  0  0  0  0  0  0  0  0
   -3.7225    1.5728   -3.9551 C   0  0  0  0  0  0  0  0  0  0  0  0
   -4.0120    2.4610   -1.0769 H   0  0  0  0  0  0  0  0  0  0  0  0
   -3.5506   -0.0463   -2.5432 H   0  0  0  0  0  0  0  0  0  0  0  0
   -3.6092    2.6615   -3.9853 H   0  0  0  0  0  0  0  0  0  0  0  0
   -3.0397    1.1308   -4.6872 H   0  0  0  0  0  0  0  0  0  0  0  0
   -4.7482    1.3210   -4.2431 H   0  0  0  0  0  0  0  0  0  0  0  0
   -0.9530    0.4641   -2.5360 N   0  0  0  0  0  0  0  0  0  0  0  0
    0.4627    0.5990   -2.1587 C   0  0  2  0  0  0  0  0  0  0  0  0
    1.3704    0.3569   -3.3769 C   0  0  0  0  0  0  0  0  0  0  0  0
    1.2917   -0.7023   -3.9902 O   0  0  0  0  0  0  0  0  0  0  0  0
    0.8069   -0.4089   -1.0530 C   0  0  0  0  0  0  0  0  0  0  0  0
   -0.1095   -0.0432    0.4967 S   0  0  0  0  0  0  0  0  0  0  0  0
   -1.2160   -0.3450   -3.0944 H   0  0  0  0  0  0  0  0  0  0  0  0
    0.6659    1.6088   -1.7856 H   0  0  0  0  0  0  0  0  0  0  0  0
    0.5682   -1.4228   -1.3885 H   0  0  0  0  0  0  0  0  0  0  0  0
    1.8806   -0.3713   -0.8433 H   0  0  0  0  0  0  0  0  0  0  0  0
    2.2317    1.3403   -3.8228 N   0  0  0  0  0  0  0  0  0  0  0  0
    3.2144    1.1628   -4.8995 C   0  0  2  0  0  0  0  0  0  0  0  0
    4.5017    1.9689   -4.6273 C   0  0  0  0  0  0  0  0  0  0  0  0
    4.5281    2.7953   -3.7223 O   0  0  0  0  0  0  0  0  0  0  0  0
    2.5683    1.6015   -6.2171 C   0  0  0  0  0  0  0  0  0  0  0  0
    2.3473    2.1665   -3.2344 H   0  0  0  0  0  0  0  0  0  0  0  0
    3.5013    0.1085   -4.9715 H   0  0  0  0  0  0  0  0  0  0  0  0
    2.2893    2.6595   -6.1724 H   0  0  0  0  0  0  0  0  0  0  0  0
    3.2606    1.4583   -7.0523 H   0  0  0  0  0  0  0  0  0  0  0  0
    1.6672    1.0110   -6.4121 H   0  0  0  0  0  0  0  0  0  0  0  0
    5.6394    1.7543   -5.3831 N   0  0  0  0  0  0  0  0  0  0  0  0
    6.8975    2.4527   -5.1483 C   0  0  0  0  0  0  0  0  0  0  0  0
    5.5997    1.0409   -6.1050 H   0  0  0  0  0  0  0  0  0  0  0  0
    6.7435    3.5371   -5.1613 H   0  0  0  0  0  0  0  0  0  0  0  0
    7.3166    2.1678   -4.1775 H   0  0  0  0  0  0  0  0  0  0  0  0
    7.6227    2.2000   -5.9279 H   0  0  0  0  0  0  0  0  0  0  0  0
  1  2  2  0  0  0  0
  1  3  1  0  0  0  0
  1  7  1  0  0  0  0
  3  4  1  0  0  0  0
  3  5  1  0  0  0  0
  3  6  1  0  0  0  0
  7  8  1  0  0  0  0
  7 13  1  0  0  0  0
  8  9  1  0  0  0  0
  8 11  1  0  0  0  0
  8 14  1  0  0  0  0
  9 10  2  0  0  0  0
  9 17  1  0  0  0  0
 11 12  1  0  0  0  0
 11 15  1  0  0  0  0
 11 16  1  0  0  0  0
 12 44  1  0  0  0  0
 17 18  1  0  0  0  0
 17 19  1  0  0  0  0
 18 20  1  0  0  0  0
 18 21  1  0  0  0  0
 18 22  1  0  0  0  0
 23 24  2  0  0  0  0
 23 25  1  0  0  0  0
 23 29  1  0  0  0  0
 25 26  1  0  0  0  0
 25 27  1  0  0  0  0
 25 28  1  0  0  0  0
 29 30  1  0  0  0  0
 29 34  1  0  0  0  0
 30 31  1  0  0  0  0
 30 33  1  0  0  0  0
 30 35  1  0  0  0  0
 31 32  2  0  0  0  0
 31 39  1  0  0  0  0
 33 36  1  0  0  0  0
 33 37  1  0  0  0  0
 33 38  1  0  0  0  0
 39 40  1  0  0  0  0
 39 45  1  0  0  0  0
 40 41  1  0  0  0  0
 40 43  1  0  0  0  0
 40 46  1  0  0  0  0
 41 42  2  0  0  0  0
 41 49  1  0  0  0  0
 43 44  1  0  0  0  0
 43 47  1  0  0  0  0
 43 48  1  0  0  0  0
 49 50  1  0  0  0  0
 49 54  1  0  0  0  0
 50 51  1  0  0  0  0
 50 53  1  0  0  0  0
 50 55  1  0  0  0  0
 51 52  2  0  0  0  0
 51 59  1  0  0  0  0
 53 56  1  0  0  0  0
 53 57  1  0  0  0  0
 53 58  1  0  0  0  0
 59 60  1  0  0  0  0
 59 61  1  0  0  0  0
 60 62  1  0  0  0  0
 60 63  1  0  0  0  0
 60 64  1  0  0  0  0
M  END
$$$$

  -OEChem-05262216053D

 64 63  0     1  0  0  0  0  0999 V2000
   -1.2975   -3.9102    4.3821 C   0  0  0  0  0  0  0  0  0  0  0  0
   -2.4163   -4.0561    3.9150 O   0  0  0  0  0  0  0  0  0  0  0  0
   -1.1117   -3.6979    5.8727 C   0  0  0  0  0  0  0  0  0  0  0  0
   -0.6043   -2.7471    6.0531 H   0  0  0  0  0  0  0  0  0  0  0  0
   -2.0826   -3.6795    6.3757 H   0  0  0  0  0  0  0  0  0  0  0  0
   -0.5120   -4.5089    6.2929 H   0  0  0  0  0  0  0  0  0  0  0  0
   -0.1996   -3.9492    3.5516 N   0  0  0  0  0  0  0  0  0  0  0  0
   -0.2547   -4.1797    2.1015 C   0  0  2  0  0  0  0  0  0  0  0  0
    1.0628   -4.7774    1.5627 C   0  0  0  0  0  0  0  0  0  0  0  0
    2.0294   -4.9208    2.3044 O   0  0  0  0  0  0  0  0  0  0  0  0
   -0.5923   -2.8605    1.3890 C   0  0  0  0  0  0  0  0  0  0  0  0
    0.6782   -1.5716    1.7165 S   0  0  0  0  0  0  0  0  0  0  0  0
    0.7249   -3.8938    3.9774 H   0  0  0  0  0  0  0  0  0  0  0  0
   -1.0430   -4.9084    1.8855 H   0  0  0  0  0  0  0  0  0  0  0  0
   -0.6693   -3.0274    0.3111 H   0  0  0  0  0  0  0  0  0  0  0  0
   -1.5657   -2.4984    1.7356 H   0  0  0  0  0  0  0  0  0  0  0  0
    1.1550   -5.2028    0.2491 N   0  0  0  0  0  0  0  0  0  0  0  0
    2.3638   -5.7879   -0.3181 C   0  0  0  0  0  0  0  0  0  0  0  0
    0.3347   -5.1002   -0.3411 H   0  0  0  0  0  0  0  0  0  0  0  0
    3.1965   -5.0790   -0.2577 H   0  0  0  0  0  0  0  0  0  0  0  0
    2.6381   -6.7006    0.2216 H   0  0  0  0  0  0  0  0  0  0  0  0
    2.2031   -6.0438   -1.3698 H   0  0  0  0  0  0  0  0  0  0  0  0
   -5.5303    1.0748   -1.1976 C   0  0  0  0  0  0  0  0  0  0  0  0
   -5.9169    0.0435   -1.7248 O   0  0  0  0  0  0  0  0  0  0  0  0
   -6.3273    1.6974   -0.0668 C   0  0  0  0  0  0  0  0  0  0  0  0
   -6.6217    2.7153   -0.3335 H   0  0  0  0  0  0  0  0  0  0  0  0
   -7.2284    1.1094    0.1287 H   0  0  0  0  0  0  0  0  0  0  0  0
   -5.7226    1.7263    0.8429 H   0  0  0  0  0  0  0  0  0  0  0  0
   -4.3602    1.6690   -1.6206 N   0  0  0  0  0  0  0  0  0  0  0  0
   -3.4114    1.0491   -2.5543 C   0  0  2  0  0  0  0  0  0  0  0  0
   -1.9525    1.3210   -2.1358 C   0  0  0  0  0  0  0  0  0  0  0  0
   -1.6791    2.3198   -1.4798 O   0  0  0  0  0  0  0  0  0  0  0  0
   -3.6817    1.6030   -3.9555 C   0  0  0  0  0  0  0  0  0  0  0  0
   -4.0118    2.4543   -1.0718 H   0  0  0  0  0  0  0  0  0  0  0  0
   -3.5508   -0.0371   -2.5643 H   0  0  0  0  0  0  0  0  0  0  0  0
   -3.5514    2.6900   -3.9689 H   0  0  0  0  0  0  0  0  0  0  0  0
   -2.9941    1.1601   -4.6828 H   0  0  0  0  0  0  0  0  0  0  0  0
   -4.7067    1.3710   -4.2626 H   0  0  0  0  0  0  0  0  0  0  0  0
   -0.9463    0.4519   -2.5132 N   0  0  0  0  0  0  0  0  0  0  0  0
    0.4755    0.5960   -2.1612 C   0  0  2  0  0  0  0  0  0  0  0  0
    1.3685    0.3426   -3.3881 C   0  0  0  0  0  0  0  0  0  0  0  0
    1.1243   -0.6035   -4.1296 O   0  0  0  0  0  0  0  0  0  0  0  0
    0.8455   -0.4025   -1.0558 C   0  0  0  0  0  0  0  0  0  0  0  0
   -0.0440   -0.0332    0.5089 S   0  0  0  0  0  0  0  0  0  0  0  0
   -1.1993   -0.3180   -3.1292 H   0  0  0  0  0  0  0  0  0  0  0  0
    0.6787    1.6108   -1.8036 H   0  0  0  0  0  0  0  0  0  0  0  0
    0.6059   -1.4194   -1.3817 H   0  0  0  0  0  0  0  0  0  0  0  0
    1.9227   -0.3580   -0.8648 H   0  0  0  0  0  0  0  0  0  0  0  0
    2.4278    1.1808   -3.6776 N   0  0  0  0  0  0  0  0  0  0  0  0
    3.4198    0.9351   -4.7330 C   0  0  2  0  0  0  0  0  0  0  0  0
    4.8293    1.3904   -4.2980 C   0  0  0  0  0  0  0  0  0  0  0  0
    4.9714    2.0517   -3.2755 O   0  0  0  0  0  0  0  0  0  0  0  0
    2.9721    1.6791   -5.9944 C   0  0  0  0  0  0  0  0  0  0  0  0
    2.6795    1.8776   -2.9752 H   0  0  0  0  0  0  0  0  0  0  0  0
    3.4795   -0.1369   -4.9487 H   0  0  0  0  0  0  0  0  0  0  0  0
    2.9246    2.7566   -5.8065 H   0  0  0  0  0  0  0  0  0  0  0  0
    3.6708    1.4989   -6.8168 H   0  0  0  0  0  0  0  0  0  0  0  0
    1.9802    1.3351   -6.3042 H   0  0  0  0  0  0  0  0  0  0  0  0
    5.9424    1.0387   -5.0393 N   0  0  0  0  0  0  0  0  0  0  0  0
    7.3028    1.3972   -4.6564 C   0  0  0  0  0  0  0  0  0  0  0  0
    5.7984    0.4650   -5.8652 H   0  0  0  0  0  0  0  0  0  0  0  0
    7.3909    2.4799   -4.5177 H   0  0  0  0  0  0  0  0  0  0  0  0
    7.5809    0.8991   -3.7219 H   0  0  0  0  0  0  0  0  0  0  0  0
    8.0080    1.0919   -5.4351 H   0  0  0  0  0  0  0  0  0  0  0  0
  1  2  2  0  0  0  0
  1  3  1  0  0  0  0
  1  7  1  0  0  0  0
  3  4  1  0  0  0  0
  3  5  1  0  0  0  0
  3  6  1  0  0  0  0
  7  8  1  0  0  0  0
  7 13  1  0  0  0  0
  8  9  1  0  0  0  0
  8 11  1  0  0  0  0
  8 14  1  0  0  0  0
  9 10  2  0  0  0  0
  9 17  1  0  0  0  0
 11 12  1  0  0  0  0
 11 15  1  0  0  0  0
 11 16  1  0  0  0  0
 12 44  1  0  0  0  0
 17 18  1  0  0  0  0
 17 19  1  0  0  0  0
 18 20  1  0  0  0  0
 18 21  1  0  0  0  0
 18 22  1  0  0  0  0
 23 24  2  0  0  0  0
 23 25  1  0  0  0  0
 23 29  1  0  0  0  0
 25 26  1  0  0  0  0
 25 27  1  0  0  0  0
 25 28  1  0  0  0  0
 29 30  1  0  0  0  0
 29 34  1  0  0  0  0
 30 31  1  0  0  0  0
 30 33  1  0  0  0  0
 30 35  1  0  0  0  0
 31 32  2  0  0  0  0
 31 39  1  0  0  0  0
 33 36  1  0  0  0  0
 33 37  1  0  0  0  0
 33 38  1  0  0  0  0
 39 40  1  0  0  0  0
 39 45  1  0  0  0  0
 40 41  1  0  0  0  0
 40 43  1  0  0  0  0
 40 46  1  0  0  0  0
 41 42  2  0  0  0  0
 41 49  1  0  0  0  0
 43 44  1  0  0  0  0
 43 47  1  0  0  0  0
 43 48  1  0  0  0  0
 49 50  1  0  0  0  0
 49 54  1  0  0  0  0
 50 51  1  0  0  0  0
 50 53  1  0  0  0  0
 50 55  1  0  0  0  0
 51 52  2  0  0  0  0
 51 59  1  0  0  0  0
 53 56  1  0  0  0  0
 53 57  1  0  0  0  0
 53 58  1  0  0  0  0
 59 60  1  0  0  0  0
 59 61  1  0  0  0  0
 60 62  1  0  0  0  0
 60 63  1  0  0  0  0
 60 64  1  0  0  0  0
M  END
$$$$

  -OEChem-05262216053D

 64 63  0     1  0  0  0  0  0999 V2000
   -1.2767   -3.9000    4.3924 C   0  0  0  0  0  0  0  0  0  0  0  0
   -2.3962   -4.0454    3.9265 O   0  0  0  0  0  0  0  0  0  0  0  0
   -1.0888   -3.6978    5.8839 C   0  0  0  0  0  0  0  0  0  0  0  0
   -0.6068   -2.7350    6.0709 H   0  0  0  0  0  0  0  0  0  0  0  0
   -2.0581   -3.7117    6.3901 H   0  0  0  0  0  0  0  0  0  0  0  0
   -0.4652   -4.4957    6.2946 H   0  0  0  0  0  0  0  0  0  0  0  0
   -0.1807   -3.9289    3.5589 N   0  0  0  0  0  0  0  0  0  0  0  0
   -0.2398   -4.1668    2.1101 C   0  0  2  0  0  0  0  0  0  0  0  0
    1.0691   -4.7843    1.5724 C   0  0  0  0  0  0  0  0  0  0  0  0
    2.0401   -4.9225    2.3092 O   0  0  0  0  0  0  0  0  0  0  0  0
   -0.5644   -2.8478    1.3920 C   0  0  0  0  0  0  0  0  0  0  0  0
    0.7210   -1.5704    1.7064 S   0  0  0  0  0  0  0  0  0  0  0  0
    0.7446   -3.8758    3.9831 H   0  0  0  0  0  0  0  0  0  0  0  0
   -1.0375   -4.8869    1.8993 H   0  0  0  0  0  0  0  0  0  0  0  0
   -0.6478   -3.0201    0.3155 H   0  0  0  0  0  0  0  0  0  0  0  0
   -1.5321   -2.4733    1.7413 H   0  0  0  0  0  0  0  0  0  0  0  0
    1.1467   -5.2385    0.2674 N   0  0  0  0  0  0  0  0  0  0  0  0
    2.3426   -5.8569   -0.2930 C   0  0  0  0  0  0  0  0  0  0  0  0
    0.3202   -5.1471   -0.3159 H   0  0  0  0  0  0  0  0  0  0  0  0
    3.1944   -5.1715   -0.2285 H   0  0  0  0  0  0  0  0  0  0  0  0
    2.5894   -6.7762    0.2486 H   0  0  0  0  0  0  0  0  0  0  0  0
    2.1809   -6.1086   -1.3456 H   0  0  0  0  0  0  0  0  0  0  0  0
   -5.5289    1.0653   -1.2254 C   0  0  0  0  0  0  0  0  0  0  0  0
   -5.9070    0.0394   -1.7692 O   0  0  0  0  0  0  0  0  0  0  0  0
   -6.3342    1.6662   -0.0895 C   0  0  0  0  0  0  0  0  0  0  0  0
   -6.6467    2.6803   -0.3495 H   0  0  0  0  0  0  0  0  0  0  0  0
   -7.2242    1.0606    0.1024 H   0  0  0  0  0  0  0  0  0  0  0  0
   -5.7281    1.6998    0.8192 H   0  0  0  0  0  0  0  0  0  0  0  0
   -4.3601    1.6733   -1.6323 N   0  0  0  0  0  0  0  0  0  0  0  0
   -3.4001    1.0704   -2.5661 C   0  0  2  0  0  0  0  0  0  0  0  0
   -1.9465    1.3174   -2.1164 C   0  0  0  0  0  0  0  0  0  0  0  0
   -1.6732    2.2993   -1.4351 O   0  0  0  0  0  0  0  0  0  0  0  0
   -3.6405    1.6639   -3.9563 C   0  0  0  0  0  0  0  0  0  0  0  0
   -4.0184    2.4487   -1.0653 H   0  0  0  0  0  0  0  0  0  0  0  0
   -3.5475   -0.0142   -2.6081 H   0  0  0  0  0  0  0  0  0  0  0  0
   -3.4929    2.7487   -3.9403 H   0  0  0  0  0  0  0  0  0  0  0  0
   -2.9490    1.2286   -4.6842 H   0  0  0  0  0  0  0  0  0  0  0  0
   -4.6639    1.4554   -4.2840 H   0  0  0  0  0  0  0  0  0  0  0  0
   -0.9448    0.4471   -2.5011 N   0  0  0  0  0  0  0  0  0  0  0  0
    0.4812    0.5987   -2.1708 C   0  0  2  0  0  0  0  0  0  0  0  0
    1.3600    0.3372   -3.4073 C   0  0  0  0  0  0  0  0  0  0  0  0
    0.9798   -0.4466   -4.2714 O   0  0  0  0  0  0  0  0  0  0  0  0
    0.8677   -0.3946   -1.0656 C   0  0  0  0  0  0  0  0  0  0  0  0
   -0.0014   -0.0229    0.5102 S   0  0  0  0  0  0  0  0  0  0  0  0
   -1.1899   -0.2759   -3.1751 H   0  0  0  0  0  0  0  0  0  0  0  0
    0.6874    1.6172   -1.8254 H   0  0  0  0  0  0  0  0  0  0  0  0
    0.6250   -1.4129   -1.3845 H   0  0  0  0  0  0  0  0  0  0  0  0
    1.9472   -0.3486   -0.8872 H   0  0  0  0  0  0  0  0  0  0  0  0
    2.5774    0.9737   -3.5521 N   0  0  0  0  0  0  0  0  0  0  0  0
    3.5606    0.6600   -4.5978 C   0  0  2  0  0  0  0  0  0  0  0  0
    5.0019    0.7039   -4.0460 C   0  0  0  0  0  0  0  0  0  0  0  0
    5.2154    1.1566   -2.9268 O   0  0  0  0  0  0  0  0  0  0  0  0
    3.3784    1.6649   -5.7392 C   0  0  0  0  0  0  0  0  0  0  0  0
    2.9243    1.5037   -2.7516 H   0  0  0  0  0  0  0  0  0  0  0  0
    3.3931   -0.3523   -4.9804 H   0  0  0  0  0  0  0  0  0  0  0  0
    3.5602    2.6848   -5.3851 H   0  0  0  0  0  0  0  0  0  0  0  0
    4.0731    1.4504   -6.5565 H   0  0  0  0  0  0  0  0  0  0  0  0
    2.3581    1.6100   -6.1322 H   0  0  0  0  0  0  0  0  0  0  0  0
    6.0573    0.2117   -4.7917 N   0  0  0  0  0  0  0  0  0  0  0  0
    7.4349    0.1909   -4.3136 C   0  0  0  0  0  0  0  0  0  0  0  0
    5.8479   -0.1819   -5.7044 H   0  0  0  0  0  0  0  0  0  0  0  0
    7.7606    1.1983   -4.0337 H   0  0  0  0  0  0  0  0  0  0  0  0
    7.5280   -0.4645   -3.4413 H   0  0  0  0  0  0  0  0  0  0  0  0
    8.1015   -0.1800   -5.0982 H   0  0  0  0  0  0  0  0  0  0  0  0
  1  2  2  0  0  0  0
  1  3  1  0  0  0  0
  1  7  1  0  0  0  0
  3  4  1  0  0  0  0
  3  5  1  0  0  0  0
  3  6  1  0  0  0  0
  7  8  1  0  0  0  0
  7 13  1  0  0  0  0
  8  9  1  0  0  0  0
  8 11  1  0  0  0  0
  8 14  1  0  0  0  0
  9 10  2  0  0  0  0
  9 17  1  0  0  0  0
 11 12  1  0  0  0  0
 11 15  1  0  0  0  0
 11 16  1  0  0  0  0
 12 44  1  0  0  0  0
 17 18  1  0  0  0  0
 17 19  1  0  0  0  0
 18 20  1  0  0  0  0
 18 21  1  0  0  0  0
 18 22  1  0  0  0  0
 23 24  2  0  0  0  0
 23 25  1  0  0  0  0
 23 29  1  0  0  0  0
 25 26  1  0  0  0  0
 25 27  1  0  0  0  0
 25 28  1  0  0  0  0
 29 30  1  0  0  0  0
 29 34  1  0  0  0  0
 30 31  1  0  0  0  0
 30 33  1  0  0  0  0
 30 35  1  0  0  0  0
 31 32  2  0  0  0  0
 31 39  1  0  0  0  0
 33 36  1  0  0  0  0
 33 37  1  0  0  0  0
 33 38  1  0  0  0  0
 39 40  1  0  0  0  0
 39 45  1  0  0  0  0
 40 41  1  0  0  0  0
 40 43  1  0  0  0  0
 40 46  1  0  0  0  0
 41 42  2  0  0  0  0
 41 49  1  0  0  0  0
 43 44  1  0  0  0  0
 43 47  1  0  0  0  0
 43 48  1  0  0  0  0
 49 50  1  0  0  0  0
 49 54  1  0  0  0  0
 50 51  1  0  0  0  0
 50 53  1  0  0  0  0
 50 55  1  0  0  0  0
 51 52  2  0  0  0  0
 51 59  1  0  0  0  0
 53 56  1  0  0  0  0
 53 57  1  0  0  0  0
 53 58  1  0  0  0  0
 59 60  1  0  0  0  0
 59 61  1  0  0  0  0
 60 62  1  0  0  0  0
 60 63  1  0  0  0  0
 60 64  1  0  0  0  0
M  END
$$$$

  -OEChem-05262216053D

 64 63  0     1  0  0  0  0  0999 V2000
   -1.2698   -3.8982    4.3943 C   0  0  0  0  0  0  0  0  0  0  0  0
   -2.3891   -4.0515    3.9307 O   0  0  0  0  0  0  0  0  0  0  0  0
   -1.0809   -3.6923    5.8855 C   0  0  0  0  0  0  0  0  0  0  0  0
   -0.6112   -2.7231    6.0702 H   0  0  0  0  0  0  0  0  0  0  0  0
   -2.0478   -3.7181    6.3960 H   0  0  0  0  0  0  0  0  0  0  0  0
   -0.4453   -4.4818    6.2942 H   0  0  0  0  0  0  0  0  0  0  0  0
   -0.1750   -3.9225    3.5589 N   0  0  0  0  0  0  0  0  0  0  0  0
   -0.2336   -4.1661    2.1108 C   0  0  2  0  0  0  0  0  0  0  0  0
    1.0708   -4.7985    1.5794 C   0  0  0  0  0  0  0  0  0  0  0  0
    2.0318   -4.9580    2.3249 O   0  0  0  0  0  0  0  0  0  0  0  0
   -0.5440   -2.8466    1.3875 C   0  0  0  0  0  0  0  0  0  0  0  0
    0.7587   -1.5846    1.6921 S   0  0  0  0  0  0  0  0  0  0  0  0
    0.7504   -3.8722    3.9830 H   0  0  0  0  0  0  0  0  0  0  0  0
   -1.0375   -4.8790    1.8998 H   0  0  0  0  0  0  0  0  0  0  0  0
   -0.6341   -3.0225    0.3120 H   0  0  0  0  0  0  0  0  0  0  0  0
   -1.5053   -2.4575    1.7386 H   0  0  0  0  0  0  0  0  0  0  0  0
    1.1546   -5.2436    0.2715 N   0  0  0  0  0  0  0  0  0  0  0  0
    2.3451   -5.8790   -0.2803 C   0  0  0  0  0  0  0  0  0  0  0  0
    0.3351   -5.1377   -0.3191 H   0  0  0  0  0  0  0  0  0  0  0  0
    3.2049   -5.2038   -0.2138 H   0  0  0  0  0  0  0  0  0  0  0  0
    2.5763   -6.7994    0.2664 H   0  0  0  0  0  0  0  0  0  0  0  0
    2.1863   -6.1329   -1.3329 H   0  0  0  0  0  0  0  0  0  0  0  0
   -5.5281    1.0644   -1.2353 C   0  0  0  0  0  0  0  0  0  0  0  0
   -5.9090    0.0484   -1.7951 O   0  0  0  0  0  0  0  0  0  0  0  0
   -6.3401    1.6569   -0.0993 C   0  0  0  0  0  0  0  0  0  0  0  0
   -6.6593    2.6690   -0.3588 H   0  0  0  0  0  0  0  0  0  0  0  0
   -7.2262    1.0446    0.0907 H   0  0  0  0  0  0  0  0  0  0  0  0
   -5.7366    1.6937    0.8109 H   0  0  0  0  0  0  0  0  0  0  0  0
   -4.3548    1.6720   -1.6298 N   0  0  0  0  0  0  0  0  0  0  0  0
   -3.3924    1.0742   -2.5638 C   0  0  2  0  0  0  0  0  0  0  0  0
   -1.9422    1.2978   -2.0921 C   0  0  0  0  0  0  0  0  0  0  0  0
   -1.6698    2.2611   -1.3844 O   0  0  0  0  0  0  0  0  0  0  0  0
   -3.6099    1.6970   -3.9448 C   0  0  0  0  0  0  0  0  0  0  0  0
   -4.0098    2.4363   -1.0498 H   0  0  0  0  0  0  0  0  0  0  0  0
   -3.5521   -0.0075   -2.6279 H   0  0  0  0  0  0  0  0  0  0  0  0
   -3.4564    2.7803   -3.9045 H   0  0  0  0  0  0  0  0  0  0  0  0
   -2.9106    1.2725   -4.6717 H   0  0  0  0  0  0  0  0  0  0  0  0
   -4.6298    1.5016   -4.2914 H   0  0  0  0  0  0  0  0  0  0  0  0
   -0.9429    0.4309   -2.4900 N   0  0  0  0  0  0  0  0  0  0  0  0
    0.4867    0.5941   -2.1800 C   0  0  2  0  0  0  0  0  0  0  0  0
    1.3541    0.3351   -3.4275 C   0  0  0  0  0  0  0  0  0  0  0  0
    0.8795   -0.2546   -4.3936 O   0  0  0  0  0  0  0  0  0  0  0  0
    0.8867   -0.3978   -1.0763 C   0  0  0  0  0  0  0  0  0  0  0  0
    0.0333   -0.0291    0.5085 S   0  0  0  0  0  0  0  0  0  0  0  0
   -1.1800   -0.2420   -3.2170 H   0  0  0  0  0  0  0  0  0  0  0  0
    0.6921    1.6152   -1.8406 H   0  0  0  0  0  0  0  0  0  0  0  0
    0.6428   -1.4165   -1.3931 H   0  0  0  0  0  0  0  0  0  0  0  0
    1.9672   -0.3512   -0.9058 H   0  0  0  0  0  0  0  0  0  0  0  0
    2.6794    0.7259   -3.4550 N   0  0  0  0  0  0  0  0  0  0  0  0
    3.6398    0.3381   -4.4974 C   0  0  2  0  0  0  0  0  0  0  0  0
    5.0100   -0.0352   -3.8929 C   0  0  0  0  0  0  0  0  0  0  0  0
    5.2397    0.1928   -2.7105 O   0  0  0  0  0  0  0  0  0  0  0  0
    3.7765    1.5096   -5.4735 C   0  0  0  0  0  0  0  0  0  0  0  0
    3.0789    1.0732   -2.5825 H   0  0  0  0  0  0  0  0  0  0  0  0
    3.2758   -0.5413   -5.0391 H   0  0  0  0  0  0  0  0  0  0  0  0
    4.1581    2.3963   -4.9565 H   0  0  0  0  0  0  0  0  0  0  0  0
    4.4647    1.2566   -6.2855 H   0  0  0  0  0  0  0  0  0  0  0  0
    2.8026    1.7533   -5.9105 H   0  0  0  0  0  0  0  0  0  0  0  0
    5.9791   -0.6470   -4.6667 N   0  0  0  0  0  0  0  0  0  0  0  0
    7.2796   -1.0523   -4.1460 C   0  0  0  0  0  0  0  0  0  0  0  0
    5.7555   -0.8423   -5.6382 H   0  0  0  0  0  0  0  0  0  0  0  0
    7.8089   -0.1921   -3.7225 H   0  0  0  0  0  0  0  0  0  0  0  0
    7.1601   -1.8115   -3.3658 H   0  0  0  0  0  0  0  0  0  0  0  0
    7.8941   -1.4739   -4.9473 H   0  0  0  0  0  0  0  0  0  0  0  0
  1  2  2  0  0  0  0
  1  3  1  0  0  0  0
  1  7  1  0  0  0  0
  3  4  1  0  0  0  0
  3  5  1  0  0  0  0
  3  6  1  0  0  0  0
  7  8  1  0  0  0  0
  7 13  1  0  0  0  0
  8  9  1  0  0  0  0
  8 11  1  0  0  0  0
  8 14  1  0  0  0  0
  9 10  2  0  0  0  0
  9 17  1  0  0  0  0
 11 12  1  0  0  0  0
 11 15  1  0  0  0  0
 11 16  1  0  0  0  0
 12 44  1  0  0  0  0
 17 18  1  0  0  0  0
 17 19  1  0  0  0  0
 18 20  1  0  0  0  0
 18 21  1  0  0  0  0
 18 22  1  0  0  0  0
 23 24  2  0  0  0  0
 23 25  1  0  0  0  0
 23 29  1  0  0  0  0
 25 26  1  0  0  0  0
 25 27  1  0  0  0  0
 25 28  1  0  0  0  0
 29 30  1  0  0  0  0
 29 34  1  0  0  0  0
 30 31  1  0  0  0  0
 30 33  1  0  0  0  0
 30 35  1  0  0  0  0
 31 32  2  0  0  0  0
 31 39  1  0  0  0  0
 33 36  1  0  0  0  0
 33 37  1  0  0  0  0
 33 38  1  0  0  0  0
 39 40  1  0  0  0  0
 39 45  1  0  0  0  0
 40 41  1  0  0  0  0
 40 43  1  0  0  0  0
 40 46  1  0  0  0  0
 41 42  2  0  0  0  0
 41 49  1  0  0  0  0
 43 44  1  0  0  0  0
 43 47  1  0  0  0  0
 43 48  1  0  0  0  0
 49 50  1  0  0  0  0
 49 54  1  0  0  0  0
 50 51  1  0  0  0  0
 50 53  1  0  0  0  0
 50 55  1  0  0  0  0
 51 52  2  0  0  0  0
 51 59  1  0  0  0  0
 53 56  1  0  0  0  0
 53 57  1  0  0  0  0
 53 58  1  0  0  0  0
 59 60  1  0  0  0  0
 59 61  1  0  0  0  0
 60 62  1  0  0  0  0
 60 63  1  0  0  0  0
 60 64  1  0  0  0  0
M  END
$$$$

  -OEChem-05262216053D

 64 63  0     1  0  0  0  0  0999 V2000
   -0.9197   -5.5468    3.1011 C   0  0  0  0  0  0  0  0  0  0  0  0
   -2.0339   -5.6274    2.6078 O   0  0  0  0  0  0  0  0  0  0  0  0
   -0.7260   -5.7458    4.5920 C   0  0  0  0  0  0  0  0  0  0  0  0
   -0.3236   -4.8338    5.0400 H   0  0  0  0  0  0  0  0  0  0  0  0
   -1.6811   -5.9828    5.0688 H   0  0  0  0  0  0  0  0  0  0  0  0
   -0.0307   -6.5692    4.7705 H   0  0  0  0  0  0  0  0  0  0  0  0
    0.1681   -5.2917    2.2958 N   0  0  0  0  0  0  0  0  0  0  0  0
    0.1111   -5.1597    0.8333 C   0  0  2  0  0  0  0  0  0  0  0  0
    1.4454   -5.5612    0.1671 C   0  0  0  0  0  0  0  0  0  0  0  0
    2.4186   -5.8509    0.8556 O   0  0  0  0  0  0  0  0  0  0  0  0
   -0.2805   -3.7192    0.4710 C   0  0  0  0  0  0  0  0  0  0  0  0
    0.9640   -2.5082    1.0767 S   0  0  0  0  0  0  0  0  0  0  0  0
    1.0936   -5.3103    2.7228 H   0  0  0  0  0  0  0  0  0  0  0  0
   -0.6536   -5.8394    0.4430 H   0  0  0  0  0  0  0  0  0  0  0  0
   -0.3831   -3.6231   -0.6132 H   0  0  0  0  0  0  0  0  0  0  0  0
   -1.2529   -3.4838    0.9161 H   0  0  0  0  0  0  0  0  0  0  0  0
    1.5456   -5.6567   -1.2102 N   0  0  0  0  0  0  0  0  0  0  0  0
    2.7630   -6.0770   -1.8939 C   0  0  0  0  0  0  0  0  0  0  0  0
    0.7157   -5.4588   -1.7609 H   0  0  0  0  0  0  0  0  0  0  0  0
    3.5964   -5.4142   -1.6376 H   0  0  0  0  0  0  0  0  0  0  0  0
    3.0274   -7.1011   -1.6101 H   0  0  0  0  0  0  0  0  0  0  0  0
    2.6188   -6.0455   -2.9780 H   0  0  0  0  0  0  0  0  0  0  0  0
   -5.5544    1.0532   -1.3511 C   0  0  0  0  0  0  0  0  0  0  0  0
   -5.9269    0.0697   -1.9714 O   0  0  0  0  0  0  0  0  0  0  0  0
   -6.4024    1.6051   -0.2212 C   0  0  0  0  0  0  0  0  0  0  0  0
   -6.6959    2.6337   -0.4432 H   0  0  0  0  0  0  0  0  0  0  0  0
   -7.3046    0.9998   -0.0956 H   0  0  0  0  0  0  0  0  0  0  0  0
   -5.8340    1.5882    0.7117 H   0  0  0  0  0  0  0  0  0  0  0  0
   -4.3559    1.6583   -1.6656 N   0  0  0  0  0  0  0  0  0  0  0  0
   -3.3558    1.0786   -2.5717 C   0  0  2  0  0  0  0  0  0  0  0  0
   -1.9322    1.1983   -1.9921 C   0  0  0  0  0  0  0  0  0  0  0  0
   -1.6789    2.0703   -1.1678 O   0  0  0  0  0  0  0  0  0  0  0  0
   -3.4488    1.8040   -3.9159 C   0  0  0  0  0  0  0  0  0  0  0  0
   -4.0219    2.3776   -1.0250 H   0  0  0  0  0  0  0  0  0  0  0  0
   -3.5562    0.0128   -2.7241 H   0  0  0  0  0  0  0  0  0  0  0  0
   -3.2298    2.8696   -3.7922 H   0  0  0  0  0  0  0  0  0  0  0  0
   -2.7350    1.3825   -4.6304 H   0  0  0  0  0  0  0  0  0  0  0  0
   -4.4560    1.7003   -4.3313 H   0  0  0  0  0  0  0  0  0  0  0  0
   -0.9362    0.3430   -2.4243 N   0  0  0  0  0  0  0  0  0  0  0  0
    0.4944    0.5332   -2.1271 C   0  0  2  0  0  0  0  0  0  0  0  0
    1.3219    0.6806   -3.4220 C   0  0  0  0  0  0  0  0  0  0  0  0
    0.7843    0.5364   -4.5157 O   0  0  0  0  0  0  0  0  0  0  0  0
    0.9819   -0.6769   -1.3160 C   0  0  0  0  0  0  0  0  0  0  0  0
    0.1514   -0.7431    0.3218 S   0  0  0  0  0  0  0  0  0  0  0  0
   -1.1547   -0.1978   -3.2587 H   0  0  0  0  0  0  0  0  0  0  0  0
    0.6565    1.4411   -1.5361 H   0  0  0  0  0  0  0  0  0  0  0  0
    0.7788   -1.5994   -1.8679 H   0  0  0  0  0  0  0  0  0  0  0  0
    2.0626   -0.6157   -1.1539 H   0  0  0  0  0  0  0  0  0  0  0  0
    2.6901    0.8702   -3.3637 N   0  0  0  0  0  0  0  0  0  0  0  0
    3.6022    0.7494   -4.5102 C   0  0  2  0  0  0  0  0  0  0  0  0
    4.8475   -0.0881   -4.1490 C   0  0  0  0  0  0  0  0  0  0  0  0
    5.0497   -0.4113   -2.9836 O   0  0  0  0  0  0  0  0  0  0  0  0
    4.0021    2.1614   -4.9456 C   0  0  0  0  0  0  0  0  0  0  0  0
    3.1226    0.8109   -2.4419 H   0  0  0  0  0  0  0  0  0  0  0  0
    3.1049    0.2453   -5.3453 H   0  0  0  0  0  0  0  0  0  0  0  0
    4.5203    2.6810   -4.1332 H   0  0  0  0  0  0  0  0  0  0  0  0
    4.6660    2.1237   -5.8145 H   0  0  0  0  0  0  0  0  0  0  0  0
    3.1127    2.7388   -5.2170 H   0  0  0  0  0  0  0  0  0  0  0  0
    5.7361   -0.4920   -5.1286 N   0  0  0  0  0  0  0  0  0  0  0  0
    6.9183   -1.2995   -4.8510 C   0  0  0  0  0  0  0  0  0  0  0  0
    5.5379   -0.2230   -6.0880 H   0  0  0  0  0  0  0  0  0  0  0  0
    7.5491   -0.8126   -4.0994 H   0  0  0  0  0  0  0  0  0  0  0  0
    6.6277   -2.2875   -4.4792 H   0  0  0  0  0  0  0  0  0  0  0  0
    7.5092   -1.4327   -5.7625 H   0  0  0  0  0  0  0  0  0  0  0  0
  1  2  2  0  0  0  0
  1  3  1  0  0  0  0
  1  7  1  0  0  0  0
  3  4  1  0  0  0  0
  3  5  1  0  0  0  0
  3  6  1  0  0  0  0
  7  8  1  0  0  0  0
  7 13  1  0  0  0  0
  8  9  1  0  0  0  0
  8 11  1  0  0  0  0
  8 14  1  0  0  0  0
  9 10  2  0  0  0  0
  9 17  1  0  0  0  0
 11 12  1  0  0  0  0
 11 15  1  0  0  0  0
 11 16  1  0  0  0  0
 12 44  1  0  0  0  0
 17 18  1  0  0  0  0
 17 19  1  0  0  0  0
 18 20  1  0  0  0  0
 18 21  1  0  0  0  0
 18 22  1  0  0  0  0
 23 24  2  0  0  0  0
 23 25  1  0  0  0  0
 23 29  1  0  0  0  0
 25 26  1  0  0  0  0
 25 27  1  0  0  0  0
 25 28  1  0  0  0  0
 29 30  1  0  0  0  0
 29 34  1  0  0  0  0
 30 31  1  0  0  0  0
 30 33  1  0  0  0  0
 30 35  1  0  0  0  0
 31 32  2  0  0  0  0
 31 39  1  0  0  0  0
 33 36  1  0  0  0  0
 33 37  1  0  0  0  0
 33 38  1  0  0  0  0
 39 40  1  0  0  0  0
 39 45  1  0  0  0  0
 40 41  1  0  0  0  0
 40 43  1  0  0  0  0
 40 46  1  0  0  0  0
 41 42  2  0  0  0  0
 41 49  1  0  0  0  0
 43 44  1  0  0  0  0
 43 47  1  0  0  0  0
 43 48  1  0  0  0  0
 49 50  1  0  0  0  0
 49 54  1  0  0  0  0
 50 51  1  0  0  0  0
 50 53  1  0  0  0  0
 50 55  1  0  0  0  0
 51 52  2  0  0  0  0
 51 59  1  0  0  0  0
 53 56  1  0  0  0  0
 53 57  1  0  0  0  0
 53 58  1  0  0  0  0
 59 60  1  0  0  0  0
 59 61  1  0  0  0  0
 60 62  1  0  0  0  0
 60 63  1  0  0  0  0
 60 64  1  0  0  0  0
M  END
$$$$

  -OEChem-05262216053D

 64 63  0     1  0  0  0  0  0999 V2000
    0.1660   -6.4961    1.9185 C   0  0  0  0  0  0  0  0  0  0  0  0
   -0.4563   -6.8684    0.9359 O   0  0  0  0  0  0  0  0  0  0  0  0
   -0.1073   -7.1198    3.2739 C   0  0  0  0  0  0  0  0  0  0  0  0
   -0.3967   -6.3461    3.9892 H   0  0  0  0  0  0  0  0  0  0  0  0
   -0.9186   -7.8492    3.1967 H   0  0  0  0  0  0  0  0  0  0  0  0
    0.7893   -7.6272    3.6377 H   0  0  0  0  0  0  0  0  0  0  0  0
    1.1308   -5.5209    1.7919 N   0  0  0  0  0  0  0  0  0  0  0  0
    1.5680   -4.9481    0.5104 C   0  0  2  0  0  0  0  0  0  0  0  0
    3.0319   -4.4525    0.5740 C   0  0  0  0  0  0  0  0  0  0  0  0
    3.7026   -4.6726    1.5789 O   0  0  0  0  0  0  0  0  0  0  0  0
    0.5971   -3.8317    0.1030 C   0  0  0  0  0  0  0  0  0  0  0  0
    0.7443   -2.3614    1.2018 S   0  0  0  0  0  0  0  0  0  0  0  0
    1.7148   -5.3261    2.6042 H   0  0  0  0  0  0  0  0  0  0  0  0
    1.5387   -5.7287   -0.2569 H   0  0  0  0  0  0  0  0  0  0  0  0
    0.8096   -3.5404   -0.9286 H   0  0  0  0  0  0  0  0  0  0  0  0
   -0.4313   -4.2056    0.1337 H   0  0  0  0  0  0  0  0  0  0  0  0
    3.6340   -3.8149   -0.4979 N   0  0  0  0  0  0  0  0  0  0  0  0
    5.0071   -3.3289   -0.4628 C   0  0  0  0  0  0  0  0  0  0  0  0
    3.0489   -3.5416   -1.2914 H   0  0  0  0  0  0  0  0  0  0  0  0
    5.1245   -2.5671    0.3150 H   0  0  0  0  0  0  0  0  0  0  0  0
    5.7007   -4.1517   -0.2591 H   0  0  0  0  0  0  0  0  0  0  0  0
    5.2731   -2.8851   -1.4270 H   0  0  0  0  0  0  0  0  0  0  0  0
   -5.9365    2.0425   -2.0337 C   0  0  0  0  0  0  0  0  0  0  0  0
   -6.4017    1.2258   -2.8129 O   0  0  0  0  0  0  0  0  0  0  0  0
   -6.8498    2.7966   -1.0867 C   0  0  0  0  0  0  0  0  0  0  0  0
   -6.7690    3.8709   -1.2684 H   0  0  0  0  0  0  0  0  0  0  0  0
   -7.8879    2.4897   -1.2410 H   0  0  0  0  0  0  0  0  0  0  0  0
   -6.5703    2.5859   -0.0515 H   0  0  0  0  0  0  0  0  0  0  0  0
   -4.5788    2.2796   -2.0113 N   0  0  0  0  0  0  0  0  0  0  0  0
   -3.5895    1.5072   -2.7731 C   0  0  2  0  0  0  0  0  0  0  0  0
   -2.2299    1.4571   -2.0461 C   0  0  0  0  0  0  0  0  0  0  0  0
   -1.9851    2.2535   -1.1456 O   0  0  0  0  0  0  0  0  0  0  0  0
   -3.4312    2.1470   -4.1560 C   0  0  0  0  0  0  0  0  0  0  0  0
   -4.2174    2.8835   -1.2734 H   0  0  0  0  0  0  0  0  0  0  0  0
   -3.9375    0.4749   -2.8892 H   0  0  0  0  0  0  0  0  0  0  0  0
   -3.0827    3.1805   -4.0611 H   0  0  0  0  0  0  0  0  0  0  0  0
   -2.7074    1.5895   -4.7584 H   0  0  0  0  0  0  0  0  0  0  0  0
   -4.3897    2.1496   -4.6849 H   0  0  0  0  0  0  0  0  0  0  0  0
   -1.2759    0.5318   -2.4247 N   0  0  0  0  0  0  0  0  0  0  0  0
    0.1226    0.5644   -1.9637 C   0  0  2  0  0  0  0  0  0  0  0  0
    1.0998    0.7006   -3.1559 C   0  0  0  0  0  0  0  0  0  0  0  0
    0.6624    0.7424   -4.3019 O   0  0  0  0  0  0  0  0  0  0  0  0
    0.4134   -0.7690   -1.2607 C   0  0  0  0  0  0  0  0  0  0  0  0
   -0.5635   -1.0242    0.2689 S   0  0  0  0  0  0  0  0  0  0  0  0
   -1.4547    0.0480   -3.3021 H   0  0  0  0  0  0  0  0  0  0  0  0
    0.3062    1.3939   -1.2727 H   0  0  0  0  0  0  0  0  0  0  0  0
    0.2201   -1.5933   -1.9545 H   0  0  0  0  0  0  0  0  0  0  0  0
    1.4681   -0.8129   -0.9767 H   0  0  0  0  0  0  0  0  0  0  0  0
    2.4496    0.4427   -2.9771 N   0  0  0  0  0  0  0  0  0  0  0  0
    3.2393   -0.2479   -4.0064 C   0  0  2  0  0  0  0  0  0  0  0  0
    3.0304   -1.7801   -3.9519 C   0  0  0  0  0  0  0  0  0  0  0  0
    2.7501   -2.3341   -2.8904 O   0  0  0  0  0  0  0  0  0  0  0  0
    4.7107    0.0974   -3.7726 C   0  0  0  0  0  0  0  0  0  0  0  0
    2.7185    0.2505   -2.0154 H   0  0  0  0  0  0  0  0  0  0  0  0
    2.9564    0.1067   -5.0036 H   0  0  0  0  0  0  0  0  0  0  0  0
    5.0353   -0.2508   -2.7867 H   0  0  0  0  0  0  0  0  0  0  0  0
    5.3398   -0.3758   -4.5329 H   0  0  0  0  0  0  0  0  0  0  0  0
    4.8586    1.1805   -3.8272 H   0  0  0  0  0  0  0  0  0  0  0  0
    3.1775   -2.5498   -5.0897 N   0  0  0  0  0  0  0  0  0  0  0  0
    2.9561   -3.9913   -5.1184 C   0  0  0  0  0  0  0  0  0  0  0  0
    3.3396   -2.0631   -5.9673 H   0  0  0  0  0  0  0  0  0  0  0  0
    3.6659   -4.5025   -4.4592 H   0  0  0  0  0  0  0  0  0  0  0  0
    1.9377   -4.2314   -4.7945 H   0  0  0  0  0  0  0  0  0  0  0  0
    3.0936   -4.3732   -6.1348 H   0  0  0  0  0  0  0  0  0  0  0  0
  1  2  2  0  0  0  0
  1  3  1  0  0  0  0
  1  7  1  0  0  0  0
  3  4  1  0  0  0  0
  3  5  1  0  0  0  0
  3  6  1  0  0  0  0
  7  8  1  0  0  0  0
  7 13  1  0  0  0  0
  8  9  1  0  0  0  0
  8 11  1  0  0  0  0
  8 14  1  0  0  0  0
  9 10  2  0  0  0  0
  9 17  1  0  0  0  0
 11 12  1  0  0  0  0
 11 15  1  0  0  0  0
 11 16  1  0  0  0  0
 12 44  1  0  0  0  0
 17 18  1  0  0  0  0
 17 19  1  0  0  0  0
 18 20  1  0  0  0  0
 18 21  1  0  0  0  0
 18 22  1  0  0  0  0
 23 24  2  0  0  0  0
 23 25  1  0  0  0  0
 23 29  1  0  0  0  0
 25 26  1  0  0  0  0
 25 27  1  0  0  0  0
 25 28  1  0  0  0  0
 29 30  1  0  0  0  0
 29 34  1  0  0  0  0
 30 31  1  0  0  0  0
 30 33  1  0  0  0  0
 30 35  1  0  0  0  0
 31 32  2  0  0  0  0
 31 39  1  0  0  0  0
 33 36  1  0  0  0  0
 33 37  1  0  0  0  0
 33 38  1  0  0  0  0
 39 40  1  0  0  0  0
 39 45  1  0  0  0  0
 40 41  1  0  0  0  0
 40 43  1  0  0  0  0
 40 46  1  0  0  0  0
 41 42  2  0  0  0  0
 41 49  1  0  0  0  0
 43 44  1  0  0  0  0
 43 47  1  0  0  0  0
 43 48  1  0  0  0  0
 49 50  1  0  0  0  0
 49 54  1  0  0  0  0
 50 51  1  0  0  0  0
 50 53  1  0  0  0  0
 50 55  1  0  0  0  0
 51 52  2  0  0  0  0
 51 59  1  0  0  0  0
 53 56  1  0  0  0  0
 53 57  1  0  0  0  0
 53 58  1  0  0  0  0
 59 60  1  0  0  0  0
 59 61  1  0  0  0  0
 60 62  1  0  0  0  0
 60 63  1  0  0  0  0
 60 64  1  0  0  0  0
M  END
$$$$

  -OEChem-05262216053D

 64 63  0     1  0  0  0  0  0999 V2000
   -0.0341   -6.4420    2.1788 C   0  0  0  0  0  0  0  0  0  0  0  0
   -0.8207   -6.7756    1.3062 O   0  0  0  0  0  0  0  0  0  0  0  0
   -0.1599   -7.0124    3.5786 C   0  0  0  0  0  0  0  0  0  0  0  0
   -0.3031   -6.2032    4.2988 H   0  0  0  0  0  0  0  0  0  0  0  0
   -1.0168   -7.6895    3.6344 H   0  0  0  0  0  0  0  0  0  0  0  0
    0.7451   -7.5666    3.8387 H   0  0  0  0  0  0  0  0  0  0  0  0
    0.9754   -5.5506    1.8895 N   0  0  0  0  0  0  0  0  0  0  0  0
    1.2570   -5.0183    0.5485 C   0  0  2  0  0  0  0  0  0  0  0  0
    2.7476   -4.6343    0.3882 C   0  0  0  0  0  0  0  0  0  0  0  0
    3.5328   -4.8612    1.3046 O   0  0  0  0  0  0  0  0  0  0  0  0
    0.3272   -3.8269    0.2783 C   0  0  0  0  0  0  0  0  0  0  0  0
    0.7620   -2.3780    1.3293 S   0  0  0  0  0  0  0  0  0  0  0  0
    1.6823   -5.3881    2.6057 H   0  0  0  0  0  0  0  0  0  0  0  0
    1.0518   -5.7962   -0.1944 H   0  0  0  0  0  0  0  0  0  0  0  0
    0.4032   -3.5542   -0.7765 H   0  0  0  0  0  0  0  0  0  0  0  0
   -0.7129   -4.1123    0.4669 H   0  0  0  0  0  0  0  0  0  0  0  0
    3.2423   -4.0795   -0.7807 N   0  0  0  0  0  0  0  0  0  0  0  0
    4.6395   -3.7021   -0.9512 C   0  0  0  0  0  0  0  0  0  0  0  0
    2.5823   -3.8137   -1.5147 H   0  0  0  0  0  0  0  0  0  0  0  0
    4.9010   -2.8835   -0.2728 H   0  0  0  0  0  0  0  0  0  0  0  0
    5.2964   -4.5542   -0.7471 H   0  0  0  0  0  0  0  0  0  0  0  0
    4.8168   -3.3721   -1.9791 H   0  0  0  0  0  0  0  0  0  0  0  0
   -5.7751    1.7792   -2.1245 C   0  0  0  0  0  0  0  0  0  0  0  0
   -6.1855    0.8682   -2.8264 O   0  0  0  0  0  0  0  0  0  0  0  0
   -6.7387    2.5571   -1.2487 C   0  0  0  0  0  0  0  0  0  0  0  0
   -6.7517    3.6072   -1.5503 H   0  0  0  0  0  0  0  0  0  0  0  0
   -7.7486    2.1490   -1.3457 H   0  0  0  0  0  0  0  0  0  0  0  0
   -6.4306    2.4884   -0.2028 H   0  0  0  0  0  0  0  0  0  0  0  0
   -4.4342    2.1003   -2.1237 N   0  0  0  0  0  0  0  0  0  0  0  0
   -3.3969    1.3148   -2.8043 C   0  0  2  0  0  0  0  0  0  0  0  0
   -2.0517    1.3710   -2.0520 C   0  0  0  0  0  0  0  0  0  0  0  0
   -1.8603    2.2266   -1.1941 O   0  0  0  0  0  0  0  0  0  0  0  0
   -3.2329    1.8538   -4.2286 C   0  0  0  0  0  0  0  0  0  0  0  0
   -4.1139    2.7820   -1.4362 H   0  0  0  0  0  0  0  0  0  0  0  0
   -3.7005    0.2631   -2.8476 H   0  0  0  0  0  0  0  0  0  0  0  0
   -2.9255    2.9042   -4.2067 H   0  0  0  0  0  0  0  0  0  0  0  0
   -2.4752    1.2814   -4.7724 H   0  0  0  0  0  0  0  0  0  0  0  0
   -4.1792    1.7787   -4.7737 H   0  0  0  0  0  0  0  0  0  0  0  0
   -1.0532    0.4672   -2.3609 N   0  0  0  0  0  0  0  0  0  0  0  0
    0.3338    0.5861   -1.8795 C   0  0  2  0  0  0  0  0  0  0  0  0
    1.3171    0.6954   -3.0740 C   0  0  0  0  0  0  0  0  0  0  0  0
    0.8836    0.9169   -4.2005 O   0  0  0  0  0  0  0  0  0  0  0  0
    0.6409   -0.6904   -1.0808 C   0  0  0  0  0  0  0  0  0  0  0  0
   -0.3700   -0.8651    0.4384 S   0  0  0  0  0  0  0  0  0  0  0  0
   -1.1974   -0.0704   -3.2122 H   0  0  0  0  0  0  0  0  0  0  0  0
    0.4734    1.4638   -1.2395 H   0  0  0  0  0  0  0  0  0  0  0  0
    0.4762   -1.5592   -1.7233 H   0  0  0  0  0  0  0  0  0  0  0  0
    1.6881   -0.6949   -0.7678 H   0  0  0  0  0  0  0  0  0  0  0  0
    2.6132    0.2150   -2.9654 N   0  0  0  0  0  0  0  0  0  0  0  0
    3.2634   -0.4877   -4.0801 C   0  0  2  0  0  0  0  0  0  0  0  0
    2.7699   -1.9496   -4.1906 C   0  0  0  0  0  0  0  0  0  0  0  0
    2.4071   -2.5612   -3.1872 O   0  0  0  0  0  0  0  0  0  0  0  0
    4.7735   -0.4473   -3.8389 C   0  0  0  0  0  0  0  0  0  0  0  0
    2.8677   -0.1076   -2.0360 H   0  0  0  0  0  0  0  0  0  0  0  0
    3.0529    0.0238   -5.0256 H   0  0  0  0  0  0  0  0  0  0  0  0
    5.0271   -0.9489   -2.8995 H   0  0  0  0  0  0  0  0  0  0  0  0
    5.3041   -0.9480   -4.6547 H   0  0  0  0  0  0  0  0  0  0  0  0
    5.1215    0.5894   -3.7854 H   0  0  0  0  0  0  0  0  0  0  0  0
    2.7360   -2.5885   -5.4149 N   0  0  0  0  0  0  0  0  0  0  0  0
    2.1949   -3.9304   -5.5991 C   0  0  0  0  0  0  0  0  0  0  0  0
    2.9547   -2.0337   -6.2384 H   0  0  0  0  0  0  0  0  0  0  0  0
    2.7445   -4.6538   -4.9875 H   0  0  0  0  0  0  0  0  0  0  0  0
    1.1375   -3.9600   -5.3153 H   0  0  0  0  0  0  0  0  0  0  0  0
    2.2794   -4.2321   -6.6476 H   0  0  0  0  0  0  0  0  0  0  0  0
  1  2  2  0  0  0  0
  1  3  1  0  0  0  0
  1  7  1  0  0  0  0
  3  4  1  0  0  0  0
  3  5  1  0  0  0  0
  3  6  1  0  0  0  0
  7  8  1  0  0  0  0
  7 13  1  0  0  0  0
  8  9  1  0  0  0  0
  8 11  1  0  0  0  0
  8 14  1  0  0  0  0
  9 10  2  0  0  0  0
  9 17  1  0  0  0  0
 11 12  1  0  0  0  0
 11 15  1  0  0  0  0
 11 16  1  0  0  0  0
 12 44  1  0  0  0  0
 17 18  1  0  0  0  0
 17 19  1  0  0  0  0
 18 20  1  0  0  0  0
 18 21  1  0  0  0  0
 18 22  1  0  0  0  0
 23 24  2  0  0  0  0
 23 25  1  0  0  0  0
 23 29  1  0  0  0  0
 25 26  1  0  0  0  0
 25 27  1  0  0  0  0
 25 28  1  0  0  0  0
 29 30  1  0  0  0  0
 29 34  1  0  0  0  0
 30 31  1  0  0  0  0
 30 33  1  0  0  0  0
 30 35  1  0  0  0  0
 31 32  2  0  0  0  0
 31 39  1  0  0  0  0
 33 36  1  0  0  0  0
 33 37  1  0  0  0  0
 33 38  1  0  0  0  0
 39 40  1  0  0  0  0
 39 45  1  0  0  0  0
 40 41  1  0  0  0  0
 40 43  1  0  0  0  0
 40 46  1  0  0  0  0
 41 42  2  0  0  0  0
 41 49  1  0  0  0  0
 43 44  1  0  0  0  0
 43 47  1  0  0  0  0
 43 48  1  0  0  0  0
 49 50  1  0  0  0  0
 49 54  1  0  0  0  0
 50 51  1  0  0  0  0
 50 53  1  0  0  0  0
 50 55  1  0  0  0  0
 51 52  2  0  0  0  0
 51 59  1  0  0  0  0
 53 56  1  0  0  0  0
 53 57  1  0  0  0  0
 53 58  1  0  0  0  0
 59 60  1  0  0  0  0
 59 61  1  0  0  0  0
 60 62  1  0  0  0  0
 60 63  1  0  0  0  0
 60 64  1  0  0  0  0
M  END
$$$$

  -OEChem-05262216053D

 64 63  0     1  0  0  0  0  0999 V2000
   -0.2415   -6.2874    2.3685 C   0  0  0  0  0  0  0  0  0  0  0  0
   -1.1997   -6.4982    1.6416 O   0  0  0  0  0  0  0  0  0  0  0  0
   -0.1821   -6.9021    3.7536 C   0  0  0  0  0  0  0  0  0  0  0  0
   -0.0112   -6.1224    4.4998 H   0  0  0  0  0  0  0  0  0  0  0  0
   -1.1244   -7.4076    3.9818 H   0  0  0  0  0  0  0  0  0  0  0  0
    0.6315   -7.6298    3.8041 H   0  0  0  0  0  0  0  0  0  0  0  0
    0.7964   -5.4987    1.9242 N   0  0  0  0  0  0  0  0  0  0  0  0
    0.9023   -4.9478    0.5657 C   0  0  2  0  0  0  0  0  0  0  0  0
    2.3789   -4.7471    0.1482 C   0  0  0  0  0  0  0  0  0  0  0  0
    3.2752   -5.0484    0.9317 O   0  0  0  0  0  0  0  0  0  0  0  0
    0.1014   -3.6401    0.4982 C   0  0  0  0  0  0  0  0  0  0  0  0
    0.8917   -2.3079    1.4955 S   0  0  0  0  0  0  0  0  0  0  0  0
    1.6267   -5.4332    2.5117 H   0  0  0  0  0  0  0  0  0  0  0  0
    0.4691   -5.6598   -0.1447 H   0  0  0  0  0  0  0  0  0  0  0  0
    0.0220   -3.3265   -0.5449 H   0  0  0  0  0  0  0  0  0  0  0  0
   -0.9172   -3.8076    0.8634 H   0  0  0  0  0  0  0  0  0  0  0  0
    2.7338   -4.2974   -1.1133 N   0  0  0  0  0  0  0  0  0  0  0  0
    4.1197   -4.1791   -1.5497 C   0  0  0  0  0  0  0  0  0  0  0  0
    1.9986   -4.0013   -1.7570 H   0  0  0  0  0  0  0  0  0  0  0  0
    4.6271   -3.3812   -0.9980 H   0  0  0  0  0  0  0  0  0  0  0  0
    4.6567   -5.1193   -1.3849 H   0  0  0  0  0  0  0  0  0  0  0  0
    4.1616   -3.9473   -2.6178 H   0  0  0  0  0  0  0  0  0  0  0  0
   -5.6603    1.5128   -2.1974 C   0  0  0  0  0  0  0  0  0  0  0  0
   -6.0369    0.5220   -2.8036 O   0  0  0  0  0  0  0  0  0  0  0  0
   -6.6658    2.3835   -1.4676 C   0  0  0  0  0  0  0  0  0  0  0  0
   -6.6432    3.3986   -1.8712 H   0  0  0  0  0  0  0  0  0  0  0  0
   -7.6739    1.9776   -1.5906 H   0  0  0  0  0  0  0  0  0  0  0  0
   -6.4272    2.4167   -0.4018 H   0  0  0  0  0  0  0  0  0  0  0  0
   -4.3204    1.8371   -2.1721 N   0  0  0  0  0  0  0  0  0  0  0  0
   -3.2528    0.9880   -2.7172 C   0  0  2  0  0  0  0  0  0  0  0  0
   -1.9146    1.1990   -1.9773 C   0  0  0  0  0  0  0  0  0  0  0  0
   -1.7844    2.1343   -1.1942 O   0  0  0  0  0  0  0  0  0  0  0  0
   -3.0919    1.3008   -4.2091 C   0  0  0  0  0  0  0  0  0  0  0  0
   -4.0310    2.6014   -1.5623 H   0  0  0  0  0  0  0  0  0  0  0  0
   -3.5269   -0.0656   -2.5968 H   0  0  0  0  0  0  0  0  0  0  0  0
   -2.8078    2.3483   -4.3516 H   0  0  0  0  0  0  0  0  0  0  0  0
   -2.3194    0.6675   -4.6555 H   0  0  0  0  0  0  0  0  0  0  0  0
   -4.0322    1.1193   -4.7391 H   0  0  0  0  0  0  0  0  0  0  0  0
   -0.8533    0.3457   -2.2173 N   0  0  0  0  0  0  0  0  0  0  0  0
    0.5259    0.6141   -1.7720 C   0  0  2  0  0  0  0  0  0  0  0  0
    1.4643    0.6781   -3.0059 C   0  0  0  0  0  0  0  0  0  0  0  0
    1.0182    1.0427   -4.0888 O   0  0  0  0  0  0  0  0  0  0  0  0
    0.9445   -0.5401   -0.8481 C   0  0  0  0  0  0  0  0  0  0  0  0
   -0.0397   -0.6194    0.6967 S   0  0  0  0  0  0  0  0  0  0  0  0
   -0.9694   -0.2853   -3.0061 H   0  0  0  0  0  0  0  0  0  0  0  0
    0.6075    1.5637   -1.2321 H   0  0  0  0  0  0  0  0  0  0  0  0
    0.8539   -1.4839   -1.3909 H   0  0  0  0  0  0  0  0  0  0  0  0
    1.9897   -0.4182   -0.5497 H   0  0  0  0  0  0  0  0  0  0  0  0
    2.6920    0.0321   -3.0026 N   0  0  0  0  0  0  0  0  0  0  0  0
    3.1910   -0.6438   -4.2079 C   0  0  2  0  0  0  0  0  0  0  0  0
    2.4422   -1.9740   -4.4612 C   0  0  0  0  0  0  0  0  0  0  0  0
    1.9500   -2.5997   -3.5234 O   0  0  0  0  0  0  0  0  0  0  0  0
    4.6887   -0.8965   -4.0174 C   0  0  0  0  0  0  0  0  0  0  0  0
    2.9297   -0.4142   -2.1216 H   0  0  0  0  0  0  0  0  0  0  0  0
    3.0597    0.0018   -5.0833 H   0  0  0  0  0  0  0  0  0  0  0  0
    4.8652   -1.5361   -3.1467 H   0  0  0  0  0  0  0  0  0  0  0  0
    5.1095   -1.3883   -4.9002 H   0  0  0  0  0  0  0  0  0  0  0  0
    5.2162    0.0510   -3.8663 H   0  0  0  0  0  0  0  0  0  0  0  0
    2.3278   -2.4792   -5.7422 N   0  0  0  0  0  0  0  0  0  0  0  0
    1.5761   -3.6876   -6.0605 C   0  0  0  0  0  0  0  0  0  0  0  0
    2.6604   -1.8964   -6.5061 H   0  0  0  0  0  0  0  0  0  0  0  0
    1.9949   -4.5501   -5.5317 H   0  0  0  0  0  0  0  0  0  0  0  0
    0.5254   -3.5732   -5.7730 H   0  0  0  0  0  0  0  0  0  0  0  0
    1.6202   -3.8892   -7.1352 H   0  0  0  0  0  0  0  0  0  0  0  0
  1  2  2  0  0  0  0
  1  3  1  0  0  0  0
  1  7  1  0  0  0  0
  3  4  1  0  0  0  0
  3  5  1  0  0  0  0
  3  6  1  0  0  0  0
  7  8  1  0  0  0  0
  7 13  1  0  0  0  0
  8  9  1  0  0  0  0
  8 11  1  0  0  0  0
  8 14  1  0  0  0  0
  9 10  2  0  0  0  0
  9 17  1  0  0  0  0
 11 12  1  0  0  0  0
 11 15  1  0  0  0  0
 11 16  1  0  0  0  0
 12 44  1  0  0  0  0
 17 18  1  0  0  0  0
 17 19  1  0  0  0  0
 18 20  1  0  0  0  0
 18 21  1  0  0  0  0
 18 22  1  0  0  0  0
 23 24  2  0  0  0  0
 23 25  1  0  0  0  0
 23 29  1  0  0  0  0
 25 26  1  0  0  0  0
 25 27  1  0  0  0  0
 25 28  1  0  0  0  0
 29 30  1  0  0  0  0
 29 34  1  0  0  0  0
 30 31  1  0  0  0  0
 30 33  1  0  0  0  0
 30 35  1  0  0  0  0
 31 32  2  0  0  0  0
 31 39  1  0  0  0  0
 33 36  1  0  0  0  0
 33 37  1  0  0  0  0
 33 38  1  0  0  0  0
 39 40  1  0  0  0  0
 39 45  1  0  0  0  0
 40 41  1  0  0  0  0
 40 43  1  0  0  0  0
 40 46  1  0  0  0  0
 41 42  2  0  0  0  0
 41 49  1  0  0  0  0
 43 44  1  0  0  0  0
 43 47  1  0  0  0  0
 43 48  1  0  0  0  0
 49 50  1  0  0  0  0
 49 54  1  0  0  0  0
 50 51  1  0  0  0  0
 50 53  1  0  0  0  0
 50 55  1  0  0  0  0
 51 52  2  0  0  0  0
 51 59  1  0  0  0  0
 53 56  1  0  0  0  0
 53 57  1  0  0  0  0
 53 58  1  0  0  0  0
 59 60  1  0  0  0  0
 59 61  1  0  0  0  0
 60 62  1  0  0  0  0
 60 63  1  0  0  0  0
 60 64  1  0  0  0  0
M  END
$$$$

  -OEChem-05262216053D

 64 63  0     1  0  0  0  0  0999 V2000
   -0.7783   -5.7761    2.9790 C   0  0  0  0  0  0  0  0  0  0  0  0
   -1.8995   -5.8798    2.5062 O   0  0  0  0  0  0  0  0  0  0  0  0
   -0.5375   -6.0788    4.4455 C   0  0  0  0  0  0  0  0  0  0  0  0
   -0.0866   -5.2124    4.9355 H   0  0  0  0  0  0  0  0  0  0  0  0
   -1.4838   -6.3110    4.9419 H   0  0  0  0  0  0  0  0  0  0  0  0
    0.1328   -6.9360    4.5446 H   0  0  0  0  0  0  0  0  0  0  0  0
    0.2698   -5.3886    2.1731 N   0  0  0  0  0  0  0  0  0  0  0  0
    0.1531   -5.0919    0.7388 C   0  0  2  0  0  0  0  0  0  0  0  0
    1.4925   -5.2803   -0.0067 C   0  0  0  0  0  0  0  0  0  0  0  0
    2.5237   -5.5043    0.6191 O   0  0  0  0  0  0  0  0  0  0  0  0
   -0.3707   -3.6590    0.5596 C   0  0  0  0  0  0  0  0  0  0  0  0
    0.7896   -2.4231    1.2755 S   0  0  0  0  0  0  0  0  0  0  0  0
    1.2044   -5.3611    2.5790 H   0  0  0  0  0  0  0  0  0  0  0  0
   -0.5618   -5.7884    0.2881 H   0  0  0  0  0  0  0  0  0  0  0  0
   -0.5125   -3.4503   -0.5040 H   0  0  0  0  0  0  0  0  0  0  0  0
   -1.3465   -3.5596    1.0463 H   0  0  0  0  0  0  0  0  0  0  0  0
    1.5402   -5.2226   -1.3886 N   0  0  0  0  0  0  0  0  0  0  0  0
    2.7757   -5.3338   -2.1555 C   0  0  0  0  0  0  0  0  0  0  0  0
    0.6783   -5.0188   -1.8857 H   0  0  0  0  0  0  0  0  0  0  0  0
    3.3986   -4.4457   -2.0068 H   0  0  0  0  0  0  0  0  0  0  0  0
    3.3437   -6.2190   -1.8503 H   0  0  0  0  0  0  0  0  0  0  0  0
    2.5505   -5.4246   -3.2227 H   0  0  0  0  0  0  0  0  0  0  0  0
   -5.5178    1.0771   -1.4656 C   0  0  0  0  0  0  0  0  0  0  0  0
   -5.8804    0.0980   -2.0988 O   0  0  0  0  0  0  0  0  0  0  0  0
   -6.3935    1.6327   -0.3591 C   0  0  0  0  0  0  0  0  0  0  0  0
   -6.6804    2.6604   -0.5935 H   0  0  0  0  0  0  0  0  0  0  0  0
   -7.2986    1.0278   -0.2561 H   0  0  0  0  0  0  0  0  0  0  0  0
   -5.8512    1.6193    0.5896 H   0  0  0  0  0  0  0  0  0  0  0  0
   -4.3102    1.6782   -1.7510 N   0  0  0  0  0  0  0  0  0  0  0  0
   -3.2954    1.1052   -2.6451 C   0  0  2  0  0  0  0  0  0  0  0  0
   -1.8825    1.2197   -2.0392 C   0  0  0  0  0  0  0  0  0  0  0  0
   -1.6422    2.0991   -1.2194 O   0  0  0  0  0  0  0  0  0  0  0  0
   -3.3642    1.8415   -3.9850 C   0  0  0  0  0  0  0  0  0  0  0  0
   -3.9896    2.4007   -1.1068 H   0  0  0  0  0  0  0  0  0  0  0  0
   -3.4944    0.0408   -2.8089 H   0  0  0  0  0  0  0  0  0  0  0  0
   -3.1555    2.9075   -3.8477 H   0  0  0  0  0  0  0  0  0  0  0  0
   -2.6308    1.4320   -4.6863 H   0  0  0  0  0  0  0  0  0  0  0  0
   -4.3613    1.7347   -4.4235 H   0  0  0  0  0  0  0  0  0  0  0  0
   -0.8948    0.3255   -2.4113 N   0  0  0  0  0  0  0  0  0  0  0  0
    0.5260    0.4854   -2.0511 C   0  0  2  0  0  0  0  0  0  0  0  0
    1.4061    0.5832   -3.3194 C   0  0  0  0  0  0  0  0  0  0  0  0
    1.1016    1.3667   -4.2088 O   0  0  0  0  0  0  0  0  0  0  0  0
    0.9296   -0.6988   -1.1568 C   0  0  0  0  0  0  0  0  0  0  0  0
    0.0251   -0.6728    0.4412 S   0  0  0  0  0  0  0  0  0  0  0  0
   -1.1200   -0.2784   -3.1965 H   0  0  0  0  0  0  0  0  0  0  0  0
    0.6905    1.4110   -1.4884 H   0  0  0  0  0  0  0  0  0  0  0  0
    0.7301   -1.6426   -1.6738 H   0  0  0  0  0  0  0  0  0  0  0  0
    2.0006   -0.6501   -0.9364 H   0  0  0  0  0  0  0  0  0  0  0  0
    2.4127   -0.3355   -3.5664 N   0  0  0  0  0  0  0  0  0  0  0  0
    3.0082   -0.5908   -4.8857 C   0  0  2  0  0  0  0  0  0  0  0  0
    2.9679   -2.0960   -5.2294 C   0  0  0  0  0  0  0  0  0  0  0  0
    2.6016   -2.9094   -4.3856 O   0  0  0  0  0  0  0  0  0  0  0  0
    4.4474   -0.0705   -4.8558 C   0  0  0  0  0  0  0  0  0  0  0  0
    2.4939   -1.0989   -2.8967 H   0  0  0  0  0  0  0  0  0  0  0  0
    2.4551   -0.0653   -5.6715 H   0  0  0  0  0  0  0  0  0  0  0  0
    5.0314   -0.6002   -4.0965 H   0  0  0  0  0  0  0  0  0  0  0  0
    4.9291   -0.2110   -5.8279 H   0  0  0  0  0  0  0  0  0  0  0  0
    4.4563    0.9983   -4.6194 H   0  0  0  0  0  0  0  0  0  0  0  0
    3.3350   -2.5427   -6.4854 N   0  0  0  0  0  0  0  0  0  0  0  0
    3.3470   -3.9502   -6.8654 C   0  0  0  0  0  0  0  0  0  0  0  0
    3.6315   -1.8481   -7.1656 H   0  0  0  0  0  0  0  0  0  0  0  0
    4.0530   -4.5093   -6.2421 H   0  0  0  0  0  0  0  0  0  0  0  0
    2.3498   -4.3875   -6.7493 H   0  0  0  0  0  0  0  0  0  0  0  0
    3.6507   -4.0569   -7.9114 H   0  0  0  0  0  0  0  0  0  0  0  0
  1  2  2  0  0  0  0
  1  3  1  0  0  0  0
  1  7  1  0  0  0  0
  3  4  1  0  0  0  0
  3  5  1  0  0  0  0
  3  6  1  0  0  0  0
  7  8  1  0  0  0  0
  7 13  1  0  0  0  0
  8  9  1  0  0  0  0
  8 11  1  0  0  0  0
  8 14  1  0  0  0  0
  9 10  2  0  0  0  0
  9 17  1  0  0  0  0
 11 12  1  0  0  0  0
 11 15  1  0  0  0  0
 11 16  1  0  0  0  0
 12 44  1  0  0  0  0
 17 18  1  0  0  0  0
 17 19  1  0  0  0  0
 18 20  1  0  0  0  0
 18 21  1  0  0  0  0
 18 22  1  0  0  0  0
 23 24  2  0  0  0  0
 23 25  1  0  0  0  0
 23 29  1  0  0  0  0
 25 26  1  0  0  0  0
 25 27  1  0  0  0  0
 25 28  1  0  0  0  0
 29 30  1  0  0  0  0
 29 34  1  0  0  0  0
 30 31  1  0  0  0  0
 30 33  1  0  0  0  0
 30 35  1  0  0  0  0
 31 32  2  0  0  0  0
 31 39  1  0  0  0  0
 33 36  1  0  0  0  0
 33 37  1  0  0  0  0
 33 38  1  0  0  0  0
 39 40  1  0  0  0  0
 39 45  1  0  0  0  0
 40 41  1  0  0  0  0
 40 43  1  0  0  0  0
 40 46  1  0  0  0  0
 41 42  2  0  0  0  0
 41 49  1  0  0  0  0
 43 44  1  0  0  0  0
 43 47  1  0  0  0  0
 43 48  1  0  0  0  0
 49 50  1  0  0  0  0
 49 54  1  0  0  0  0
 50 51  1  0  0  0  0
 50 53  1  0  0  0  0
 50 55  1  0  0  0  0
 51 52  2  0  0  0  0
 51 59  1  0  0  0  0
 53 56  1  0  0  0  0
 53 57  1  0  0  0  0
 53 58  1  0  0  0  0
 59 60  1  0  0  0  0
 59 61  1  0  0  0  0
 60 62  1  0  0  0  0
 60 63  1  0  0  0  0
 60 64  1  0  0  0  0
M  END
$$$$

  -OEChem-05262216053D

 64 63  0     1  0  0  0  0  0999 V2000
   -0.7476   -5.8060    2.8662 C   0  0  0  0  0  0  0  0  0  0  0  0
   -1.8890   -5.8762    2.4379 O   0  0  0  0  0  0  0  0  0  0  0  0
   -0.4396   -6.2055    4.2963 C   0  0  0  0  0  0  0  0  0  0  0  0
    0.0327   -5.3715    4.8214 H   0  0  0  0  0  0  0  0  0  0  0  0
   -1.3613   -6.4750    4.8192 H   0  0  0  0  0  0  0  0  0  0  0  0
    0.2360   -7.0643    4.3069 H   0  0  0  0  0  0  0  0  0  0  0  0
    0.2655   -5.3674    2.0432 N   0  0  0  0  0  0  0  0  0  0  0  0
    0.0924   -4.9829    0.6360 C   0  0  2  0  0  0  0  0  0  0  0  0
    1.3977   -5.1512   -0.1720 C   0  0  0  0  0  0  0  0  0  0  0  0
    2.4512   -5.4092    0.4013 O   0  0  0  0  0  0  0  0  0  0  0  0
   -0.4098   -3.5335    0.5666 C   0  0  0  0  0  0  0  0  0  0  0  0
    0.7999   -2.3685    1.3200 S   0  0  0  0  0  0  0  0  0  0  0  0
    1.2164   -5.3698    2.4101 H   0  0  0  0  0  0  0  0  0  0  0  0
   -0.6541   -5.6378    0.1744 H   0  0  0  0  0  0  0  0  0  0  0  0
   -0.5848   -3.2548   -0.4761 H   0  0  0  0  0  0  0  0  0  0  0  0
   -1.3663   -3.4491    1.0928 H   0  0  0  0  0  0  0  0  0  0  0  0
    1.3896   -5.0498   -1.5522 N   0  0  0  0  0  0  0  0  0  0  0  0
    2.5793   -5.2153   -2.3792 C   0  0  0  0  0  0  0  0  0  0  0  0
    0.5089   -4.8335   -2.0102 H   0  0  0  0  0  0  0  0  0  0  0  0
    3.2128   -4.3245   -2.3198 H   0  0  0  0  0  0  0  0  0  0  0  0
    3.1615   -6.0847   -2.0558 H   0  0  0  0  0  0  0  0  0  0  0  0
    2.2925   -5.3706   -3.4238 H   0  0  0  0  0  0  0  0  0  0  0  0
   -5.5147    1.0863   -1.4835 C   0  0  0  0  0  0  0  0  0  0  0  0
   -5.8845    0.0941   -2.0918 O   0  0  0  0  0  0  0  0  0  0  0  0
   -6.4098    1.7109   -0.4295 C   0  0  0  0  0  0  0  0  0  0  0  0
   -6.6293    2.7483   -0.6929 H   0  0  0  0  0  0  0  0  0  0  0  0
   -7.3509    1.1583   -0.3591 H   0  0  0  0  0  0  0  0  0  0  0  0
   -5.9139    1.6864    0.5440 H   0  0  0  0  0  0  0  0  0  0  0  0
   -4.2776    1.6346   -1.7477 N   0  0  0  0  0  0  0  0  0  0  0  0
   -3.2593    1.0068   -2.5998 C   0  0  2  0  0  0  0  0  0  0  0  0
   -1.8430    1.1995   -2.0212 C   0  0  0  0  0  0  0  0  0  0  0  0
   -1.6221    2.1277   -1.2517 O   0  0  0  0  0  0  0  0  0  0  0  0
   -3.3540    1.6237   -3.9971 C   0  0  0  0  0  0  0  0  0  0  0  0
   -3.9579    2.3830   -1.1331 H   0  0  0  0  0  0  0  0  0  0  0  0
   -3.4414   -0.0710   -2.6682 H   0  0  0  0  0  0  0  0  0  0  0  0
   -3.1781    2.7034   -3.9507 H   0  0  0  0  0  0  0  0  0  0  0  0
   -2.6104    1.1789   -4.6654 H   0  0  0  0  0  0  0  0  0  0  0  0
   -4.3483    1.4496   -4.4207 H   0  0  0  0  0  0  0  0  0  0  0  0
   -0.8308    0.3172   -2.3553 N   0  0  0  0  0  0  0  0  0  0  0  0
    0.5853    0.5251   -2.0026 C   0  0  2  0  0  0  0  0  0  0  0  0
    1.4573    0.5915   -3.2760 C   0  0  0  0  0  0  0  0  0  0  0  0
    1.2881    1.4937   -4.0842 O   0  0  0  0  0  0  0  0  0  0  0  0
    1.0202   -0.6185   -1.0713 C   0  0  0  0  0  0  0  0  0  0  0  0
    0.1184   -0.5662    0.5265 S   0  0  0  0  0  0  0  0  0  0  0  0
   -1.0486   -0.3581   -3.0821 H   0  0  0  0  0  0  0  0  0  0  0  0
    0.7295    1.4749   -1.4748 H   0  0  0  0  0  0  0  0  0  0  0  0
    0.8354   -1.5827   -1.5544 H   0  0  0  0  0  0  0  0  0  0  0  0
    2.0925   -0.5420   -0.8634 H   0  0  0  0  0  0  0  0  0  0  0  0
    2.2627   -0.4761   -3.6339 N   0  0  0  0  0  0  0  0  0  0  0  0
    2.7471   -0.7387   -4.9954 C   0  0  2  0  0  0  0  0  0  0  0  0
    2.3849   -2.1739   -5.4354 C   0  0  0  0  0  0  0  0  0  0  0  0
    1.8877   -2.9558   -4.6289 O   0  0  0  0  0  0  0  0  0  0  0  0
    4.2620   -0.5227   -4.9991 C   0  0  0  0  0  0  0  0  0  0  0  0
    2.2059   -1.2937   -3.0292 H   0  0  0  0  0  0  0  0  0  0  0  0
    2.2872   -0.0521   -5.7143 H   0  0  0  0  0  0  0  0  0  0  0  0
    4.7499   -1.2068   -4.2972 H   0  0  0  0  0  0  0  0  0  0  0  0
    4.6740   -0.6944   -5.9979 H   0  0  0  0  0  0  0  0  0  0  0  0
    4.4948    0.5051   -4.7026 H   0  0  0  0  0  0  0  0  0  0  0  0
    2.6078   -2.5918   -6.7338 N   0  0  0  0  0  0  0  0  0  0  0  0
    2.3088   -3.9386   -7.2057 C   0  0  0  0  0  0  0  0  0  0  0  0
    3.0087   -1.9211   -7.3839 H   0  0  0  0  0  0  0  0  0  0  0  0
    2.8950   -4.6783   -6.6501 H   0  0  0  0  0  0  0  0  0  0  0  0
    1.2446   -4.1630   -7.0776 H   0  0  0  0  0  0  0  0  0  0  0  0
    2.5552   -4.0306   -8.2679 H   0  0  0  0  0  0  0  0  0  0  0  0
  1  2  2  0  0  0  0
  1  3  1  0  0  0  0
  1  7  1  0  0  0  0
  3  4  1  0  0  0  0
  3  5  1  0  0  0  0
  3  6  1  0  0  0  0
  7  8  1  0  0  0  0
  7 13  1  0  0  0  0
  8  9  1  0  0  0  0
  8 11  1  0  0  0  0
  8 14  1  0  0  0  0
  9 10  2  0  0  0  0
  9 17  1  0  0  0  0
 11 12  1  0  0  0  0
 11 15  1  0  0  0  0
 11 16  1  0  0  0  0
 12 44  1  0  0  0  0
 17 18  1  0  0  0  0
 17 19  1  0  0  0  0
 18 20  1  0  0  0  0
 18 21  1  0  0  0  0
 18 22  1  0  0  0  0
 23 24  2  0  0  0  0
 23 25  1  0  0  0  0
 23 29  1  0  0  0  0
 25 26  1  0  0  0  0
 25 27  1  0  0  0  0
 25 28  1  0  0  0  0
 29 30  1  0  0  0  0
 29 34  1  0  0  0  0
 30 31  1  0  0  0  0
 30 33  1  0  0  0  0
 30 35  1  0  0  0  0
 31 32  2  0  0  0  0
 31 39  1  0  0  0  0
 33 36  1  0  0  0  0
 33 37  1  0  0  0  0
 33 38  1  0  0  0  0
 39 40  1  0  0  0  0
 39 45  1  0  0  0  0
 40 41  1  0  0  0  0
 40 43  1  0  0  0  0
 40 46  1  0  0  0  0
 41 42  2  0  0  0  0
 41 49  1  0  0  0  0
 43 44  1  0  0  0  0
 43 47  1  0  0  0  0
 43 48  1  0  0  0  0
 49 50  1  0  0  0  0
 49 54  1  0  0  0  0
 50 51  1  0  0  0  0
 50 53  1  0  0  0  0
 50 55  1  0  0  0  0
 51 52  2  0  0  0  0
 51 59  1  0  0  0  0
 53 56  1  0  0  0  0
 53 57  1  0  0  0  0
 53 58  1  0  0  0  0
 59 60  1  0  0  0  0
 59 61  1  0  0  0  0
 60 62  1  0  0  0  0
 60 63  1  0  0  0  0
 60 64  1  0  0  0  0
M  END
$$$$

  -OEChem-05262216053D

 64 63  0     1  0  0  0  0  0999 V2000
   -0.8347   -5.4660    1.4501 C   0  0  0  0  0  0  0  0  0  0  0  0
   -1.3511   -6.0892    0.5357 O   0  0  0  0  0  0  0  0  0  0  0  0
   -0.4659   -6.1697    2.7420 C   0  0  0  0  0  0  0  0  0  0  0  0
   -0.9638   -5.6859    3.5859 H   0  0  0  0  0  0  0  0  0  0  0  0
   -0.7791   -7.2169    2.7030 H   0  0  0  0  0  0  0  0  0  0  0  0
    0.6155   -6.1309    2.8936 H   0  0  0  0  0  0  0  0  0  0  0  0
   -0.5418   -4.1295    1.2809 N   0  0  0  0  0  0  0  0  0  0  0  0
   -0.9643   -3.3211    0.1239 C   0  0  2  0  0  0  0  0  0  0  0  0
   -0.1075   -3.5528   -1.1504 C   0  0  0  0  0  0  0  0  0  0  0  0
    0.2840   -2.6208   -1.8476 O   0  0  0  0  0  0  0  0  0  0  0  0
   -0.9981   -1.8503    0.5831 C   0  0  0  0  0  0  0  0  0  0  0  0
    0.5610   -1.3111    1.4059 S   0  0  0  0  0  0  0  0  0  0  0  0
   -0.0932   -3.6471    2.0560 H   0  0  0  0  0  0  0  0  0  0  0  0
   -1.9899   -3.5949   -0.1497 H   0  0  0  0  0  0  0  0  0  0  0  0
   -1.2029   -1.2037   -0.2719 H   0  0  0  0  0  0  0  0  0  0  0  0
   -1.8263   -1.7151    1.2854 H   0  0  0  0  0  0  0  0  0  0  0  0
    0.1765   -4.8342   -1.5787 N   0  0  0  0  0  0  0  0  0  0  0  0
    0.8508   -5.1421   -2.8362 C   0  0  0  0  0  0  0  0  0  0  0  0
   -0.2777   -5.5905   -1.0591 H   0  0  0  0  0  0  0  0  0  0  0  0
    1.8497   -4.6941   -2.8577 H   0  0  0  0  0  0  0  0  0  0  0  0
    0.9581   -6.2248   -2.9521 H   0  0  0  0  0  0  0  0  0  0  0  0
    0.2762   -4.7592   -3.6861 H   0  0  0  0  0  0  0  0  0  0  0  0
   -4.2842   -0.3353   -0.9199 C   0  0  0  0  0  0  0  0  0  0  0  0
   -3.8832   -1.4529   -0.6300 O   0  0  0  0  0  0  0  0  0  0  0  0
   -5.3259    0.3418   -0.0502 C   0  0  0  0  0  0  0  0  0  0  0  0
   -6.1906    0.6240   -0.6556 H   0  0  0  0  0  0  0  0  0  0  0  0
   -5.6565   -0.3375    0.7404 H   0  0  0  0  0  0  0  0  0  0  0  0
   -4.9025    1.2385    0.4087 H   0  0  0  0  0  0  0  0  0  0  0  0
   -3.7795    0.3261   -2.0204 N   0  0  0  0  0  0  0  0  0  0  0  0
   -2.6127   -0.1353   -2.7851 C   0  0  2  0  0  0  0  0  0  0  0  0
   -1.3596    0.7107   -2.4833 C   0  0  0  0  0  0  0  0  0  0  0  0
   -1.4516    1.9237   -2.3392 O   0  0  0  0  0  0  0  0  0  0  0  0
   -2.9615   -0.0589   -4.2723 C   0  0  0  0  0  0  0  0  0  0  0  0
   -4.0009    1.3176   -2.0863 H   0  0  0  0  0  0  0  0  0  0  0  0
   -2.3802   -1.1782   -2.5450 H   0  0  0  0  0  0  0  0  0  0  0  0
   -3.1868    0.9725   -4.5626 H   0  0  0  0  0  0  0  0  0  0  0  0
   -2.1220   -0.4144   -4.8772 H   0  0  0  0  0  0  0  0  0  0  0  0
   -3.8341   -0.6825   -4.4899 H   0  0  0  0  0  0  0  0  0  0  0  0
   -0.1335    0.0884   -2.3930 N   0  0  0  0  0  0  0  0  0  0  0  0
    1.1552    0.7454   -2.1538 C   0  0  2  0  0  0  0  0  0  0  0  0
    2.0564    0.4344   -3.3662 C   0  0  0  0  0  0  0  0  0  0  0  0
    1.9220    1.0517   -4.4161 O   0  0  0  0  0  0  0  0  0  0  0  0
    1.7705    0.1988   -0.8535 C   0  0  0  0  0  0  0  0  0  0  0  0
    0.7684    0.6209    0.6265 S   0  0  0  0  0  0  0  0  0  0  0  0
   -0.1355   -0.9343   -2.4356 H   0  0  0  0  0  0  0  0  0  0  0  0
    1.0459    1.8327   -2.0740 H   0  0  0  0  0  0  0  0  0  0  0  0
    1.8799   -0.8865   -0.9094 H   0  0  0  0  0  0  0  0  0  0  0  0
    2.7707    0.6235   -0.7227 H   0  0  0  0  0  0  0  0  0  0  0  0
    2.8612   -0.6947   -3.3605 N   0  0  0  0  0  0  0  0  0  0  0  0
    3.3836   -1.3124   -4.5877 C   0  0  2  0  0  0  0  0  0  0  0  0
    2.2820   -2.1198   -5.3164 C   0  0  0  0  0  0  0  0  0  0  0  0
    2.3252   -3.3421   -5.4005 O   0  0  0  0  0  0  0  0  0  0  0  0
    4.5896   -2.1719   -4.1907 C   0  0  0  0  0  0  0  0  0  0  0  0
    2.7122   -1.3202   -2.5714 H   0  0  0  0  0  0  0  0  0  0  0  0
    3.7365   -0.5380   -5.2776 H   0  0  0  0  0  0  0  0  0  0  0  0
    4.2875   -2.9652   -3.4994 H   0  0  0  0  0  0  0  0  0  0  0  0
    5.0322   -2.6360   -5.0776 H   0  0  0  0  0  0  0  0  0  0  0  0
    5.3526   -1.5562   -3.7053 H   0  0  0  0  0  0  0  0  0  0  0  0
    1.1893   -1.4473   -5.8277 N   0  0  0  0  0  0  0  0  0  0  0  0
    0.0303   -2.1078   -6.4107 C   0  0  0  0  0  0  0  0  0  0  0  0
    1.1620   -0.4386   -5.6589 H   0  0  0  0  0  0  0  0  0  0  0  0
    0.3361   -2.7663   -7.2304 H   0  0  0  0  0  0  0  0  0  0  0  0
   -0.4899   -2.7036   -5.6537 H   0  0  0  0  0  0  0  0  0  0  0  0
   -0.6665   -1.3643   -6.8090 H   0  0  0  0  0  0  0  0  0  0  0  0
  1  2  2  0  0  0  0
  1  3  1  0  0  0  0
  1  7  1  0  0  0  0
  3  4  1  0  0  0  0
  3  5  1  0  0  0  0
  3  6  1  0  0  0  0
  7  8  1  0  0  0  0
  7 13  1  0  0  0  0
  8  9  1  0  0  0  0
  8 11  1  0  0  0  0
  8 14  1  0  0  0  0
  9 10  2  0  0  0  0
  9 17  1  0  0  0  0
 11 12  1  0  0  0  0
 11 15  1  0  0  0  0
 11 16  1  0  0  0  0
 12 44  1  0  0  0  0
 17 18  1  0  0  0  0
 17 19  1  0  0  0  0
 18 20  1  0  0  0  0
 18 21  1  0  0  0  0
 18 22  1  0  0  0  0
 23 24  2  0  0  0  0
 23 25  1  0  0  0  0
 23 29  1  0  0  0  0
 25 26  1  0  0  0  0
 25 27  1  0  0  0  0
 25 28  1  0  0  0  0
 29 30  1  0  0  0  0
 29 34  1  0  0  0  0
 30 31  1  0  0  0  0
 30 33  1  0  0  0  0
 30 35  1  0  0  0  0
 31 32  2  0  0  0  0
 31 39  1  0  0  0  0
 33 36  1  0  0  0  0
 33 37  1  0  0  0  0
 33 38  1  0  0  0  0
 39 40  1  0  0  0  0
 39 45  1  0  0  0  0
 40 41  1  0  0  0  0
 40 43  1  0  0  0  0
 40 46  1  0  0  0  0
 41 42  2  0  0  0  0
 41 49  1  0  0  0  0
 43 44  1  0  0  0  0
 43 47  1  0  0  0  0
 43 48  1  0  0  0  0
 49 50  1  0  0  0  0
 49 54  1  0  0  0  0
 50 51  1  0  0  0  0
 50 53  1  0  0  0  0
 50 55  1  0  0  0  0
 51 52  2  0  0  0  0
 51 59  1  0  0  0  0
 53 56  1  0  0  0  0
 53 57  1  0  0  0  0
 53 58  1  0  0  0  0
 59 60  1  0  0  0  0
 59 61  1  0  0  0  0
 60 62  1  0  0  0  0
 60 63  1  0  0  0  0
 60 64  1  0  0  0  0
M  END
$$$$

  -OEChem-05262216053D

 64 63  0     1  0  0  0  0  0999 V2000
   -0.6038   -5.6859    2.7138 C   0  0  0  0  0  0  0  0  0  0  0  0
   -1.8081   -5.6749    2.5140 O   0  0  0  0  0  0  0  0  0  0  0  0
   -0.0385   -6.3659    3.9461 C   0  0  0  0  0  0  0  0  0  0  0  0
    0.5130   -5.6417    4.5506 H   0  0  0  0  0  0  0  0  0  0  0  0
   -0.8482   -6.7853    4.5498 H   0  0  0  0  0  0  0  0  0  0  0  0
    0.6360   -7.1733    3.6509 H   0  0  0  0  0  0  0  0  0  0  0  0
    0.2446   -5.0841    1.8111 N   0  0  0  0  0  0  0  0  0  0  0  0
   -0.1856   -4.4195    0.5732 C   0  0  2  0  0  0  0  0  0  0  0  0
    0.8834   -4.5099   -0.5357 C   0  0  0  0  0  0  0  0  0  0  0  0
    2.0253   -4.8744   -0.2746 O   0  0  0  0  0  0  0  0  0  0  0  0
   -0.5286   -2.9547    0.8740 C   0  0  0  0  0  0  0  0  0  0  0  0
    0.8892   -2.0722    1.6483 S   0  0  0  0  0  0  0  0  0  0  0  0
    1.2472   -5.1517    1.9788 H   0  0  0  0  0  0  0  0  0  0  0  0
   -1.0811   -4.9189    0.1884 H   0  0  0  0  0  0  0  0  0  0  0  0
   -0.8152   -2.4464   -0.0515 H   0  0  0  0  0  0  0  0  0  0  0  0
   -1.3874   -2.9112    1.5516 H   0  0  0  0  0  0  0  0  0  0  0  0
    0.5570   -4.2359   -1.8523 N   0  0  0  0  0  0  0  0  0  0  0  0
    1.4547   -4.5324   -2.9608 C   0  0  0  0  0  0  0  0  0  0  0  0
   -0.4141   -4.0168   -2.0609 H   0  0  0  0  0  0  0  0  0  0  0  0
    2.3916   -3.9777   -2.8515 H   0  0  0  0  0  0  0  0  0  0  0  0
    1.6822   -5.6033   -2.9921 H   0  0  0  0  0  0  0  0  0  0  0  0
    0.9908   -4.2512   -3.9107 H   0  0  0  0  0  0  0  0  0  0  0  0
   -5.1661    0.3383   -2.2577 C   0  0  0  0  0  0  0  0  0  0  0  0
   -5.3266   -0.7259   -2.8349 O   0  0  0  0  0  0  0  0  0  0  0  0
   -6.3200    0.9857   -1.5155 C   0  0  0  0  0  0  0  0  0  0  0  0
   -6.5156    1.9803   -1.9234 H   0  0  0  0  0  0  0  0  0  0  0  0
   -7.2232    0.3783   -1.6194 H   0  0  0  0  0  0  0  0  0  0  0  0
   -6.0763    1.0767   -0.4543 H   0  0  0  0  0  0  0  0  0  0  0  0
   -3.9320    0.9513   -2.2735 N   0  0  0  0  0  0  0  0  0  0  0  0
   -2.7136    0.3540   -2.8340 C   0  0  2  0  0  0  0  0  0  0  0  0
   -1.4582    0.7941   -2.0541 C   0  0  0  0  0  0  0  0  0  0  0  0
   -1.4956    1.7945   -1.3465 O   0  0  0  0  0  0  0  0  0  0  0  0
   -2.6015    0.7741   -4.3022 C   0  0  0  0  0  0  0  0  0  0  0  0
   -3.8077    1.7768   -1.6875 H   0  0  0  0  0  0  0  0  0  0  0  0
   -2.7707   -0.7382   -2.7740 H   0  0  0  0  0  0  0  0  0  0  0  0
   -2.5447    1.8642   -4.3845 H   0  0  0  0  0  0  0  0  0  0  0  0
   -1.7046    0.3450   -4.7575 H   0  0  0  0  0  0  0  0  0  0  0  0
   -3.4743    0.4258   -4.8629 H   0  0  0  0  0  0  0  0  0  0  0  0
   -0.2876    0.0716   -2.1802 N   0  0  0  0  0  0  0  0  0  0  0  0
    1.0354    0.5804   -1.7761 C   0  0  2  0  0  0  0  0  0  0  0  0
    1.9507    0.6003   -3.0127 C   0  0  0  0  0  0  0  0  0  0  0  0
    1.9492    1.5759   -3.7505 O   0  0  0  0  0  0  0  0  0  0  0  0
    1.6003   -0.2987   -0.6527 C   0  0  0  0  0  0  0  0  0  0  0  0
    0.5720   -0.1691    0.8646 S   0  0  0  0  0  0  0  0  0  0  0  0
   -0.3041   -0.6519   -2.9054 H   0  0  0  0  0  0  0  0  0  0  0  0
    0.9685    1.6108   -1.4078 H   0  0  0  0  0  0  0  0  0  0  0  0
    1.6262   -1.3433   -0.9763 H   0  0  0  0  0  0  0  0  0  0  0  0
    2.6242    0.0072   -0.4146 H   0  0  0  0  0  0  0  0  0  0  0  0
    2.4621   -0.5963   -3.4889 N   0  0  0  0  0  0  0  0  0  0  0  0
    2.3864   -0.8958   -4.9272 C   0  0  2  0  0  0  0  0  0  0  0  0
    0.9773   -1.4080   -5.3123 C   0  0  0  0  0  0  0  0  0  0  0  0
    0.1743   -1.7325   -4.4371 O   0  0  0  0  0  0  0  0  0  0  0  0
    3.4612   -1.9335   -5.2571 C   0  0  0  0  0  0  0  0  0  0  0  0
    2.2761   -1.3866   -2.8767 H   0  0  0  0  0  0  0  0  0  0  0  0
    2.5950    0.0035   -5.5175 H   0  0  0  0  0  0  0  0  0  0  0  0
    3.2846   -2.8635   -4.7103 H   0  0  0  0  0  0  0  0  0  0  0  0
    3.4625   -2.1567   -6.3283 H   0  0  0  0  0  0  0  0  0  0  0  0
    4.4498   -1.5512   -4.9837 H   0  0  0  0  0  0  0  0  0  0  0  0
    0.6002   -1.5049   -6.6378 N   0  0  0  0  0  0  0  0  0  0  0  0
   -0.7216   -1.9474   -7.0672 C   0  0  0  0  0  0  0  0  0  0  0  0
    1.2529   -1.1636   -7.3387 H   0  0  0  0  0  0  0  0  0  0  0  0
   -0.9392   -2.9464   -6.6747 H   0  0  0  0  0  0  0  0  0  0  0  0
   -1.4929   -1.2548   -6.7151 H   0  0  0  0  0  0  0  0  0  0  0  0
   -0.7688   -1.9901   -8.1596 H   0  0  0  0  0  0  0  0  0  0  0  0
  1  2  2  0  0  0  0
  1  3  1  0  0  0  0
  1  7  1  0  0  0  0
  3  4  1  0  0  0  0
  3  5  1  0  0  0  0
  3  6  1  0  0  0  0
  7  8  1  0  0  0  0
  7 13  1  0  0  0  0
  8  9  1  0  0  0  0
  8 11  1  0  0  0  0
  8 14  1  0  0  0  0
  9 10  2  0  0  0  0
  9 17  1  0  0  0  0
 11 12  1  0  0  0  0
 11 15  1  0  0  0  0
 11 16  1  0  0  0  0
 12 44  1  0  0  0  0
 17 18  1  0  0  0  0
 17 19  1  0  0  0  0
 18 20  1  0  0  0  0
 18 21  1  0  0  0  0
 18 22  1  0  0  0  0
 23 24  2  0  0  0  0
 23 25  1  0  0  0  0
 23 29  1  0  0  0  0
 25 26  1  0  0  0  0
 25 27  1  0  0  0  0
 25 28  1  0  0  0  0
 29 30  1  0  0  0  0
 29 34  1  0  0  0  0
 30 31  1  0  0  0  0
 30 33  1  0  0  0  0
 30 35  1  0  0  0  0
 31 32  2  0  0  0  0
 31 39  1  0  0  0  0
 33 36  1  0  0  0  0
 33 37  1  0  0  0  0
 33 38  1  0  0  0  0
 39 40  1  0  0  0  0
 39 45  1  0  0  0  0
 40 41  1  0  0  0  0
 40 43  1  0  0  0  0
 40 46  1  0  0  0  0
 41 42  2  0  0  0  0
 41 49  1  0  0  0  0
 43 44  1  0  0  0  0
 43 47  1  0  0  0  0
 43 48  1  0  0  0  0
 49 50  1  0  0  0  0
 49 54  1  0  0  0  0
 50 51  1  0  0  0  0
 50 53  1  0  0  0  0
 50 55  1  0  0  0  0
 51 52  2  0  0  0  0
 51 59  1  0  0  0  0
 53 56  1  0  0  0  0
 53 57  1  0  0  0  0
 53 58  1  0  0  0  0
 59 60  1  0  0  0  0
 59 61  1  0  0  0  0
 60 62  1  0  0  0  0
 60 63  1  0  0  0  0
 60 64  1  0  0  0  0
M  END
$$$$

  -OEChem-05262216053D

 64 63  0     1  0  0  0  0  0999 V2000
   -0.7110   -5.0549    2.3157 C   0  0  0  0  0  0  0  0  0  0  0  0
   -1.9136   -5.0333    2.5244 O   0  0  0  0  0  0  0  0  0  0  0  0
    0.2043   -5.8525    3.2252 C   0  0  0  0  0  0  0  0  0  0  0  0
    0.9671   -5.1977    3.6535 H   0  0  0  0  0  0  0  0  0  0  0  0
   -0.3713   -6.3016    4.0395 H   0  0  0  0  0  0  0  0  0  0  0  0
    0.6923   -6.6484    2.6577 H   0  0  0  0  0  0  0  0  0  0  0  0
   -0.1815   -4.3574    1.2518 N   0  0  0  0  0  0  0  0  0  0  0  0
   -0.9561   -3.4726    0.3689 C   0  0  2  0  0  0  0  0  0  0  0  0
   -0.3584   -3.3980   -1.0522 C   0  0  0  0  0  0  0  0  0  0  0  0
    0.8474   -3.5304   -1.2529 O   0  0  0  0  0  0  0  0  0  0  0  0
   -1.0824   -2.0794    1.0024 C   0  0  0  0  0  0  0  0  0  0  0  0
    0.4934   -1.4955    1.7569 S   0  0  0  0  0  0  0  0  0  0  0  0
    0.8300   -4.3585    1.1404 H   0  0  0  0  0  0  0  0  0  0  0  0
   -1.9663   -3.8802    0.2506 H   0  0  0  0  0  0  0  0  0  0  0  0
   -1.4232   -1.3604    0.2513 H   0  0  0  0  0  0  0  0  0  0  0  0
   -1.8446   -2.1177    1.7868 H   0  0  0  0  0  0  0  0  0  0  0  0
   -1.2050   -3.2914   -2.1378 N   0  0  0  0  0  0  0  0  0  0  0  0
   -0.8591   -3.7459   -3.4782 C   0  0  0  0  0  0  0  0  0  0  0  0
   -2.1976   -3.1558   -1.9178 H   0  0  0  0  0  0  0  0  0  0  0  0
    0.1762   -3.4980   -3.7252 H   0  0  0  0  0  0  0  0  0  0  0  0
   -0.9815   -4.8309   -3.5527 H   0  0  0  0  0  0  0  0  0  0  0  0
   -1.5112   -3.2702   -4.2171 H   0  0  0  0  0  0  0  0  0  0  0  0
   -4.1654   -0.9341   -1.2644 C   0  0  0  0  0  0  0  0  0  0  0  0
   -3.6304   -2.0341   -1.3064 O   0  0  0  0  0  0  0  0  0  0  0  0
   -5.2199   -0.6469   -0.2131 C   0  0  0  0  0  0  0  0  0  0  0  0
   -6.1575   -0.3580   -0.6940 H   0  0  0  0  0  0  0  0  0  0  0  0
   -5.3966   -1.5364    0.3983 H   0  0  0  0  0  0  0  0  0  0  0  0
   -4.8860    0.1655    0.4373 H   0  0  0  0  0  0  0  0  0  0  0  0
   -3.7828    0.0612   -2.1402 N   0  0  0  0  0  0  0  0  0  0  0  0
   -2.5790   -0.0246   -2.9794 C   0  0  2  0  0  0  0  0  0  0  0  0
   -1.3577    0.5954   -2.2707 C   0  0  0  0  0  0  0  0  0  0  0  0
   -1.4493    1.7081   -1.7666 O   0  0  0  0  0  0  0  0  0  0  0  0
   -2.8586    0.6982   -4.2982 C   0  0  0  0  0  0  0  0  0  0  0  0
   -4.1097    0.9982   -1.9140 H   0  0  0  0  0  0  0  0  0  0  0  0
   -2.3485   -1.0669   -3.2167 H   0  0  0  0  0  0  0  0  0  0  0  0
   -3.0867    1.7537   -4.1187 H   0  0  0  0  0  0  0  0  0  0  0  0
   -1.9843    0.6390   -4.9544 H   0  0  0  0  0  0  0  0  0  0  0  0
   -3.7079    0.2376   -4.8114 H   0  0  0  0  0  0  0  0  0  0  0  0
   -0.1760   -0.1134   -2.1952 N   0  0  0  0  0  0  0  0  0  0  0  0
    1.1267    0.5022   -1.8771 C   0  0  2  0  0  0  0  0  0  0  0  0
    2.0888    0.2658   -3.0480 C   0  0  0  0  0  0  0  0  0  0  0  0
    2.4193    1.1877   -3.7827 O   0  0  0  0  0  0  0  0  0  0  0  0
    1.7038   -0.0647   -0.5771 C   0  0  0  0  0  0  0  0  0  0  0  0
    0.6526    0.3765    0.8626 S   0  0  0  0  0  0  0  0  0  0  0  0
   -0.1577   -0.9382   -2.7979 H   0  0  0  0  0  0  0  0  0  0  0  0
    1.0240    1.5871   -1.7592 H   0  0  0  0  0  0  0  0  0  0  0  0
    1.7880   -1.1520   -0.6492 H   0  0  0  0  0  0  0  0  0  0  0  0
    2.7093    0.3356   -0.4140 H   0  0  0  0  0  0  0  0  0  0  0  0
    2.3870   -1.0367   -3.4134 N   0  0  0  0  0  0  0  0  0  0  0  0
    2.5590   -1.3614   -4.8348 C   0  0  2  0  0  0  0  0  0  0  0  0
    1.2319   -1.2287   -5.6223 C   0  0  0  0  0  0  0  0  0  0  0  0
    0.1497   -1.2686   -5.0394 O   0  0  0  0  0  0  0  0  0  0  0  0
    3.1124   -2.7847   -4.9326 C   0  0  0  0  0  0  0  0  0  0  0  0
    1.9611   -1.7553   -2.8269 H   0  0  0  0  0  0  0  0  0  0  0  0
    3.2891   -0.6769   -5.2800 H   0  0  0  0  0  0  0  0  0  0  0  0
    2.4150   -3.5036   -4.4917 H   0  0  0  0  0  0  0  0  0  0  0  0
    3.2786   -3.0590   -5.9791 H   0  0  0  0  0  0  0  0  0  0  0  0
    4.0667   -2.8566   -4.4010 H   0  0  0  0  0  0  0  0  0  0  0  0
    1.2489   -1.0623   -6.9943 N   0  0  0  0  0  0  0  0  0  0  0  0
    0.0454   -0.8216   -7.7813 C   0  0  0  0  0  0  0  0  0  0  0  0
    2.1539   -0.9129   -7.4318 H   0  0  0  0  0  0  0  0  0  0  0  0
   -0.6728   -1.6370   -7.6448 H   0  0  0  0  0  0  0  0  0  0  0  0
   -0.4270    0.1193   -7.4800 H   0  0  0  0  0  0  0  0  0  0  0  0
    0.2953   -0.7588   -8.8449 H   0  0  0  0  0  0  0  0  0  0  0  0
  1  2  2  0  0  0  0
  1  3  1  0  0  0  0
  1  7  1  0  0  0  0
  3  4  1  0  0  0  0
  3  5  1  0  0  0  0
  3  6  1  0  0  0  0
  7  8  1  0  0  0  0
  7 13  1  0  0  0  0
  8  9  1  0  0  0  0
  8 11  1  0  0  0  0
  8 14  1  0  0  0  0
  9 10  2  0  0  0  0
  9 17  1  0  0  0  0
 11 12  1  0  0  0  0
 11 15  1  0  0  0  0
 11 16  1  0  0  0  0
 12 44  1  0  0  0  0
 17 18  1  0  0  0  0
 17 19  1  0  0  0  0
 18 20  1  0  0  0  0
 18 21  1  0  0  0  0
 18 22  1  0  0  0  0
 23 24  2  0  0  0  0
 23 25  1  0  0  0  0
 23 29  1  0  0  0  0
 25 26  1  0  0  0  0
 25 27  1  0  0  0  0
 25 28  1  0  0  0  0
 29 30  1  0  0  0  0
 29 34  1  0  0  0  0
 30 31  1  0  0  0  0
 30 33  1  0  0  0  0
 30 35  1  0  0  0  0
 31 32  2  0  0  0  0
 31 39  1  0  0  0  0
 33 36  1  0  0  0  0
 33 37  1  0  0  0  0
 33 38  1  0  0  0  0
 39 40  1  0  0  0  0
 39 45  1  0  0  0  0
 40 41  1  0  0  0  0
 40 43  1  0  0  0  0
 40 46  1  0  0  0  0
 41 42  2  0  0  0  0
 41 49  1  0  0  0  0
 43 44  1  0  0  0  0
 43 47  1  0  0  0  0
 43 48  1  0  0  0  0
 49 50  1  0  0  0  0
 49 54  1  0  0  0  0
 50 51  1  0  0  0  0
 50 53  1  0  0  0  0
 50 55  1  0  0  0  0
 51 52  2  0  0  0  0
 51 59  1  0  0  0  0
 53 56  1  0  0  0  0
 53 57  1  0  0  0  0
 53 58  1  0  0  0  0
 59 60  1  0  0  0  0
 59 61  1  0  0  0  0
 60 62  1  0  0  0  0
 60 63  1  0  0  0  0
 60 64  1  0  0  0  0
M  END
$$$$

  -OEChem-05262216053D

 64 63  0     1  0  0  0  0  0999 V2000
   -0.9229   -5.5668    3.1315 C   0  0  0  0  0  0  0  0  0  0  0  0
   -2.0418   -5.6894    2.6581 O   0  0  0  0  0  0  0  0  0  0  0  0
   -0.7074   -5.6794    4.6285 C   0  0  0  0  0  0  0  0  0  0  0  0
   -0.2411   -4.7668    5.0071 H   0  0  0  0  0  0  0  0  0  0  0  0
   -1.6648   -5.8222    5.1370 H   0  0  0  0  0  0  0  0  0  0  0  0
   -0.0591   -6.5306    4.8495 H   0  0  0  0  0  0  0  0  0  0  0  0
    0.1469   -5.3303    2.2968 N   0  0  0  0  0  0  0  0  0  0  0  0
    0.0555   -5.2169    0.8346 C   0  0  2  0  0  0  0  0  0  0  0  0
    1.3883   -5.5708    0.1401 C   0  0  0  0  0  0  0  0  0  0  0  0
    2.4033   -5.7606    0.8016 O   0  0  0  0  0  0  0  0  0  0  0  0
   -0.3902   -3.7935    0.4645 C   0  0  0  0  0  0  0  0  0  0  0  0
    0.8169   -2.5381    1.0582 S   0  0  0  0  0  0  0  0  0  0  0  0
    1.0774   -5.2846    2.7105 H   0  0  0  0  0  0  0  0  0  0  0  0
   -0.6919   -5.9286    0.4682 H   0  0  0  0  0  0  0  0  0  0  0  0
   -0.4990   -3.7086   -0.6199 H   0  0  0  0  0  0  0  0  0  0  0  0
   -1.3691   -3.5892    0.9110 H   0  0  0  0  0  0  0  0  0  0  0  0
    1.4470   -5.7106   -1.2358 N   0  0  0  0  0  0  0  0  0  0  0  0
    2.6679   -6.0644   -1.9505 C   0  0  0  0  0  0  0  0  0  0  0  0
    0.5823   -5.6115   -1.7589 H   0  0  0  0  0  0  0  0  0  0  0  0
    3.4450   -5.3119   -1.7777 H   0  0  0  0  0  0  0  0  0  0  0  0
    3.0406   -7.0383   -1.6156 H   0  0  0  0  0  0  0  0  0  0  0  0
    2.4744   -6.1199   -3.0262 H   0  0  0  0  0  0  0  0  0  0  0  0
   -5.4897    1.1700   -1.1246 C   0  0  0  0  0  0  0  0  0  0  0  0
   -5.9147    0.0741   -1.4553 O   0  0  0  0  0  0  0  0  0  0  0  0
   -6.2447    2.0013   -0.1050 C   0  0  0  0  0  0  0  0  0  0  0  0
   -6.6410    2.9021   -0.5792 H   0  0  0  0  0  0  0  0  0  0  0  0
   -7.0764    1.4242    0.3086 H   0  0  0  0  0  0  0  0  0  0  0  0
   -5.5774    2.2897    0.7109 H   0  0  0  0  0  0  0  0  0  0  0  0
   -4.3157    1.6459   -1.6698 N   0  0  0  0  0  0  0  0  0  0  0  0
   -3.4117    0.8428   -2.5036 C   0  0  2  0  0  0  0  0  0  0  0  0
   -1.9321    1.1719   -2.2185 C   0  0  0  0  0  0  0  0  0  0  0  0
   -1.6320    2.2224   -1.6649 O   0  0  0  0  0  0  0  0  0  0  0  0
   -3.7458    1.1020   -3.9757 C   0  0  0  0  0  0  0  0  0  0  0  0
   -3.9283    2.5003   -1.2698 H   0  0  0  0  0  0  0  0  0  0  0  0
   -3.5547   -0.2209   -2.2850 H   0  0  0  0  0  0  0  0  0  0  0  0
   -3.5990    2.1589   -4.2211 H   0  0  0  0  0  0  0  0  0  0  0  0
   -3.1057    0.5006   -4.6292 H   0  0  0  0  0  0  0  0  0  0  0  0
   -4.7888    0.8384   -4.1780 H   0  0  0  0  0  0  0  0  0  0  0  0
   -0.9444    0.2788   -2.5924 N   0  0  0  0  0  0  0  0  0  0  0  0
    0.4824    0.4200   -2.2361 C   0  0  2  0  0  0  0  0  0  0  0  0
    1.3719    0.5201   -3.4881 C   0  0  0  0  0  0  0  0  0  0  0  0
    2.3053    1.3081   -3.5337 O   0  0  0  0  0  0  0  0  0  0  0  0
    0.9127   -0.7865   -1.3937 C   0  0  0  0  0  0  0  0  0  0  0  0
    0.0217   -0.8056    0.2132 S   0  0  0  0  0  0  0  0  0  0  0  0
   -1.2692   -0.6055   -2.9708 H   0  0  0  0  0  0  0  0  0  0  0  0
    0.6512    1.3298   -1.6478 H   0  0  0  0  0  0  0  0  0  0  0  0
    0.7206   -1.7170   -1.9354 H   0  0  0  0  0  0  0  0  0  0  0  0
    1.9890   -0.7291   -1.1980 H   0  0  0  0  0  0  0  0  0  0  0  0
    1.1624   -0.3453   -4.5455 N   0  0  0  0  0  0  0  0  0  0  0  0
    1.6962   -0.1242   -5.8943 C   0  0  2  0  0  0  0  0  0  0  0  0
    0.5685   -0.2632   -6.9393 C   0  0  0  0  0  0  0  0  0  0  0  0
   -0.5060   -0.7600   -6.6106 O   0  0  0  0  0  0  0  0  0  0  0  0
    2.8082   -1.1454   -6.1437 C   0  0  0  0  0  0  0  0  0  0  0  0
    0.2810   -0.8533   -4.5195 H   0  0  0  0  0  0  0  0  0  0  0  0
    2.1089    0.8863   -5.9861 H   0  0  0  0  0  0  0  0  0  0  0  0
    2.4169   -2.1653   -6.0715 H   0  0  0  0  0  0  0  0  0  0  0  0
    3.2413   -1.0076   -7.1391 H   0  0  0  0  0  0  0  0  0  0  0  0
    3.6038   -1.0234   -5.4016 H   0  0  0  0  0  0  0  0  0  0  0  0
    0.7454    0.1840   -8.2352 N   0  0  0  0  0  0  0  0  0  0  0  0
   -0.2990    0.1279   -9.2512 C   0  0  0  0  0  0  0  0  0  0  0  0
    1.6307    0.6270   -8.4650 H   0  0  0  0  0  0  0  0  0  0  0  0
   -0.5953   -0.9094   -9.4393 H   0  0  0  0  0  0  0  0  0  0  0  0
   -1.1796    0.6933   -8.9284 H   0  0  0  0  0  0  0  0  0  0  0  0
    0.0619    0.5595  -10.1899 H   0  0  0  0  0  0  0  0  0  0  0  0
  1  2  2  0  0  0  0
  1  3  1  0  0  0  0
  1  7  1  0  0  0  0
  3  4  1  0  0  0  0
  3  5  1  0  0  0  0
  3  6  1  0  0  0  0
  7  8  1  0  0  0  0
  7 13  1  0  0  0  0
  8  9  1  0  0  0  0
  8 11  1  0  0  0  0
  8 14  1  0  0  0  0
  9 10  2  0  0  0  0
  9 17  1  0  0  0  0
 11 12  1  0  0  0  0
 11 15  1  0  0  0  0
 11 16  1  0  0  0  0
 12 44  1  0  0  0  0
 17 18  1  0  0  0  0
 17 19  1  0  0  0  0
 18 20  1  0  0  0  0
 18 21  1  0  0  0  0
 18 22  1  0  0  0  0
 23 24  2  0  0  0  0
 23 25  1  0  0  0  0
 23 29  1  0  0  0  0
 25 26  1  0  0  0  0
 25 27  1  0  0  0  0
 25 28  1  0  0  0  0
 29 30  1  0  0  0  0
 29 34  1  0  0  0  0
 30 31  1  0  0  0  0
 30 33  1  0  0  0  0
 30 35  1  0  0  0  0
 31 32  2  0  0  0  0
 31 39  1  0  0  0  0
 33 36  1  0  0  0  0
 33 37  1  0  0  0  0
 33 38  1  0  0  0  0
 39 40  1  0  0  0  0
 39 45  1  0  0  0  0
 40 41  1  0  0  0  0
 40 43  1  0  0  0  0
 40 46  1  0  0  0  0
 41 42  2  0  0  0  0
 41 49  1  0  0  0  0
 43 44  1  0  0  0  0
 43 47  1  0  0  0  0
 43 48  1  0  0  0  0
 49 50  1  0  0  0  0
 49 54  1  0  0  0  0
 50 51  1  0  0  0  0
 50 53  1  0  0  0  0
 50 55  1  0  0  0  0
 51 52  2  0  0  0  0
 51 59  1  0  0  0  0
 53 56  1  0  0  0  0
 53 57  1  0  0  0  0
 53 58  1  0  0  0  0
 59 60  1  0  0  0  0
 59 61  1  0  0  0  0
 60 62  1  0  0  0  0
 60 63  1  0  0  0  0
 60 64  1  0  0  0  0
M  END
$$$$

  -OEChem-05262216053D

 64 63  0     1  0  0  0  0  0999 V2000
   -0.9247   -5.5789    3.1243 C   0  0  0  0  0  0  0  0  0  0  0  0
   -2.0314   -5.7519    2.6381 O   0  0  0  0  0  0  0  0  0  0  0  0
   -0.7264   -5.6642    4.6258 C   0  0  0  0  0  0  0  0  0  0  0  0
   -0.3064   -4.7273    4.9998 H   0  0  0  0  0  0  0  0  0  0  0  0
   -1.6840   -5.8439    5.1224 H   0  0  0  0  0  0  0  0  0  0  0  0
   -0.0444   -6.4832    4.8671 H   0  0  0  0  0  0  0  0  0  0  0  0
    0.1469   -5.3134    2.3007 N   0  0  0  0  0  0  0  0  0  0  0  0
    0.0748   -5.2422    0.8348 C   0  0  2  0  0  0  0  0  0  0  0  0
    1.4250   -5.5867    0.1702 C   0  0  0  0  0  0  0  0  0  0  0  0
    2.4292   -5.7562    0.8533 O   0  0  0  0  0  0  0  0  0  0  0  0
   -0.3978   -3.8402    0.4194 C   0  0  0  0  0  0  0  0  0  0  0  0
    0.7707   -2.5406    0.9938 S   0  0  0  0  0  0  0  0  0  0  0  0
    1.0697   -5.2310    2.7259 H   0  0  0  0  0  0  0  0  0  0  0  0
   -0.6509   -5.9802    0.4768 H   0  0  0  0  0  0  0  0  0  0  0  0
   -0.4936   -3.7876   -0.6684 H   0  0  0  0  0  0  0  0  0  0  0  0
   -1.3871   -3.6475    0.8475 H   0  0  0  0  0  0  0  0  0  0  0  0
    1.5101   -5.7449   -1.2022 N   0  0  0  0  0  0  0  0  0  0  0  0
    2.7493   -6.0843   -1.8916 C   0  0  0  0  0  0  0  0  0  0  0  0
    0.6548   -5.6572   -1.7423 H   0  0  0  0  0  0  0  0  0  0  0  0
    3.5178   -5.3301   -1.6918 H   0  0  0  0  0  0  0  0  0  0  0  0
    3.1190   -7.0603   -1.5598 H   0  0  0  0  0  0  0  0  0  0  0  0
    2.5815   -6.1263   -2.9720 H   0  0  0  0  0  0  0  0  0  0  0  0
   -5.4818    1.1480   -0.9791 C   0  0  0  0  0  0  0  0  0  0  0  0
   -5.8922    0.0445   -1.3032 O   0  0  0  0  0  0  0  0  0  0  0  0
   -6.1890    1.9332    0.1085 C   0  0  0  0  0  0  0  0  0  0  0  0
   -6.5799    2.8679   -0.3008 H   0  0  0  0  0  0  0  0  0  0  0  0
   -7.0202    1.3498    0.5147 H   0  0  0  0  0  0  0  0  0  0  0  0
   -5.4903    2.1607    0.9173 H   0  0  0  0  0  0  0  0  0  0  0  0
   -4.3655    1.6775   -1.5911 N   0  0  0  0  0  0  0  0  0  0  0  0
   -3.4933    0.9245   -2.5007 C   0  0  2  0  0  0  0  0  0  0  0  0
   -2.0035    1.2219   -2.2376 C   0  0  0  0  0  0  0  0  0  0  0  0
   -1.6704    2.2730   -1.7044 O   0  0  0  0  0  0  0  0  0  0  0  0
   -3.8670    1.2914   -3.9394 C   0  0  0  0  0  0  0  0  0  0  0  0
   -3.9833    2.5373   -1.1982 H   0  0  0  0  0  0  0  0  0  0  0  0
   -3.6412   -0.1509   -2.3560 H   0  0  0  0  0  0  0  0  0  0  0  0
   -3.7189    2.3624   -4.1120 H   0  0  0  0  0  0  0  0  0  0  0  0
   -3.2499    0.7354   -4.6525 H   0  0  0  0  0  0  0  0  0  0  0  0
   -4.9174    1.0494   -4.1306 H   0  0  0  0  0  0  0  0  0  0  0  0
   -1.0412    0.3128   -2.6380 N   0  0  0  0  0  0  0  0  0  0  0  0
    0.3911    0.4173   -2.2907 C   0  0  2  0  0  0  0  0  0  0  0  0
    1.2767    0.5230   -3.5460 C   0  0  0  0  0  0  0  0  0  0  0  0
    2.3887    1.0279   -3.4847 O   0  0  0  0  0  0  0  0  0  0  0  0
    0.7987   -0.8152   -1.4757 C   0  0  0  0  0  0  0  0  0  0  0  0
   -0.0837   -0.8431    0.1359 S   0  0  0  0  0  0  0  0  0  0  0  0
   -1.3950   -0.5899   -2.9399 H   0  0  0  0  0  0  0  0  0  0  0  0
    0.5848    1.3121   -1.6876 H   0  0  0  0  0  0  0  0  0  0  0  0
    0.5835   -1.7302   -2.0350 H   0  0  0  0  0  0  0  0  0  0  0  0
    1.8771   -0.7849   -1.2850 H   0  0  0  0  0  0  0  0  0  0  0  0
    0.8710   -0.0765   -4.7232 N   0  0  0  0  0  0  0  0  0  0  0  0
    1.4799    0.1986   -6.0292 C   0  0  2  0  0  0  0  0  0  0  0  0
    0.3808    0.3988   -7.0943 C   0  0  0  0  0  0  0  0  0  0  0  0
   -0.7803    0.0917   -6.8365 O   0  0  0  0  0  0  0  0  0  0  0  0
    2.3937   -0.9727   -6.3963 C   0  0  0  0  0  0  0  0  0  0  0  0
   -0.1177   -0.3192   -4.7611 H   0  0  0  0  0  0  0  0  0  0  0  0
    2.0710    1.1200   -5.9884 H   0  0  0  0  0  0  0  0  0  0  0  0
    1.8195   -1.9025   -6.4580 H   0  0  0  0  0  0  0  0  0  0  0  0
    2.8757   -0.7955   -7.3624 H   0  0  0  0  0  0  0  0  0  0  0  0
    3.1741   -1.0934   -5.6383 H   0  0  0  0  0  0  0  0  0  0  0  0
    0.6836    0.9417   -8.3288 N   0  0  0  0  0  0  0  0  0  0  0  0
   -0.3201    1.2069   -9.3527 C   0  0  0  0  0  0  0  0  0  0  0  0
    1.6444    1.2274   -8.4962 H   0  0  0  0  0  0  0  0  0  0  0  0
   -0.8307    0.2813   -9.6386 H   0  0  0  0  0  0  0  0  0  0  0  0
   -1.0646    1.9207   -8.9842 H   0  0  0  0  0  0  0  0  0  0  0  0
    0.1523    1.6294  -10.2448 H   0  0  0  0  0  0  0  0  0  0  0  0
  1  2  2  0  0  0  0
  1  3  1  0  0  0  0
  1  7  1  0  0  0  0
  3  4  1  0  0  0  0
  3  5  1  0  0  0  0
  3  6  1  0  0  0  0
  7  8  1  0  0  0  0
  7 13  1  0  0  0  0
  8  9  1  0  0  0  0
  8 11  1  0  0  0  0
  8 14  1  0  0  0  0
  9 10  2  0  0  0  0
  9 17  1  0  0  0  0
 11 12  1  0  0  0  0
 11 15  1  0  0  0  0
 11 16  1  0  0  0  0
 12 44  1  0  0  0  0
 17 18  1  0  0  0  0
 17 19  1  0  0  0  0
 18 20  1  0  0  0  0
 18 21  1  0  0  0  0
 18 22  1  0  0  0  0
 23 24  2  0  0  0  0
 23 25  1  0  0  0  0
 23 29  1  0  0  0  0
 25 26  1  0  0  0  0
 25 27  1  0  0  0  0
 25 28  1  0  0  0  0
 29 30  1  0  0  0  0
 29 34  1  0  0  0  0
 30 31  1  0  0  0  0
 30 33  1  0  0  0  0
 30 35  1  0  0  0  0
 31 32  2  0  0  0  0
 31 39  1  0  0  0  0
 33 36  1  0  0  0  0
 33 37  1  0  0  0  0
 33 38  1  0  0  0  0
 39 40  1  0  0  0  0
 39 45  1  0  0  0  0
 40 41  1  0  0  0  0
 40 43  1  0  0  0  0
 40 46  1  0  0  0  0
 41 42  2  0  0  0  0
 41 49  1  0  0  0  0
 43 44  1  0  0  0  0
 43 47  1  0  0  0  0
 43 48  1  0  0  0  0
 49 50  1  0  0  0  0
 49 54  1  0  0  0  0
 50 51  1  0  0  0  0
 50 53  1  0  0  0  0
 50 55  1  0  0  0  0
 51 52  2  0  0  0  0
 51 59  1  0  0  0  0
 53 56  1  0  0  0  0
 53 57  1  0  0  0  0
 53 58  1  0  0  0  0
 59 60  1  0  0  0  0
 59 61  1  0  0  0  0
 60 62  1  0  0  0  0
 60 63  1  0  0  0  0
 60 64  1  0  0  0  0
M  END
$$$$

  -OEChem-05262216053D

 64 63  0     1  0  0  0  0  0999 V2000
   -0.9313   -5.5809    3.0956 C   0  0  0  0  0  0  0  0  0  0  0  0
   -2.0352   -5.7577    2.6043 O   0  0  0  0  0  0  0  0  0  0  0  0
   -0.7433   -5.6428    4.5996 C   0  0  0  0  0  0  0  0  0  0  0  0
   -0.3177   -4.7036    4.9612 H   0  0  0  0  0  0  0  0  0  0  0  0
   -1.7055   -5.8060    5.0931 H   0  0  0  0  0  0  0  0  0  0  0  0
   -0.0698   -6.4634    4.8585 H   0  0  0  0  0  0  0  0  0  0  0  0
    0.1462   -5.3292    2.2756 N   0  0  0  0  0  0  0  0  0  0  0  0
    0.0844   -5.2731    0.8082 C   0  0  2  0  0  0  0  0  0  0  0  0
    1.4428   -5.6178    0.1596 C   0  0  0  0  0  0  0  0  0  0  0  0
    2.4361   -5.7955    0.8568 O   0  0  0  0  0  0  0  0  0  0  0  0
   -0.3950   -3.8782    0.3760 C   0  0  0  0  0  0  0  0  0  0  0  0
    0.7590   -2.5650    0.9471 S   0  0  0  0  0  0  0  0  0  0  0  0
    1.0662   -5.2426    2.7060 H   0  0  0  0  0  0  0  0  0  0  0  0
   -0.6345   -6.0183    0.4515 H   0  0  0  0  0  0  0  0  0  0  0  0
   -0.4839   -3.8347   -0.7127 H   0  0  0  0  0  0  0  0  0  0  0  0
   -1.3885   -3.6894    0.7959 H   0  0  0  0  0  0  0  0  0  0  0  0
    1.5500   -5.7666   -1.2124 N   0  0  0  0  0  0  0  0  0  0  0  0
    2.8049   -6.0823   -1.8846 C   0  0  0  0  0  0  0  0  0  0  0  0
    0.7079   -5.6560   -1.7689 H   0  0  0  0  0  0  0  0  0  0  0  0
    3.5542   -5.3108   -1.6775 H   0  0  0  0  0  0  0  0  0  0  0  0
    3.1907   -7.0490   -1.5438 H   0  0  0  0  0  0  0  0  0  0  0  0
    2.6527   -6.1331   -2.9670 H   0  0  0  0  0  0  0  0  0  0  0  0
   -5.5095    1.1545   -0.9022 C   0  0  0  0  0  0  0  0  0  0  0  0
   -5.9337    0.0648   -1.2539 O   0  0  0  0  0  0  0  0  0  0  0  0
   -6.1978    1.9151    0.2148 C   0  0  0  0  0  0  0  0  0  0  0  0
   -6.5874    2.8626   -0.1648 H   0  0  0  0  0  0  0  0  0  0  0  0
   -7.0279    1.3262    0.6150 H   0  0  0  0  0  0  0  0  0  0  0  0
   -5.4883    2.1172    1.0212 H   0  0  0  0  0  0  0  0  0  0  0  0
   -4.3959    1.6908   -1.5129 N   0  0  0  0  0  0  0  0  0  0  0  0
   -3.5443    0.9583   -2.4580 C   0  0  2  0  0  0  0  0  0  0  0  0
   -2.0498    1.2415   -2.2099 C   0  0  0  0  0  0  0  0  0  0  0  0
   -1.7036    2.2802   -1.6609 O   0  0  0  0  0  0  0  0  0  0  0  0
   -3.9388    1.3688   -3.8793 C   0  0  0  0  0  0  0  0  0  0  0  0
   -4.0017    2.5369   -1.1027 H   0  0  0  0  0  0  0  0  0  0  0  0
   -3.6957   -0.1199   -2.3404 H   0  0  0  0  0  0  0  0  0  0  0  0
   -3.7869    2.4434   -4.0233 H   0  0  0  0  0  0  0  0  0  0  0  0
   -3.3362    0.8312   -4.6182 H   0  0  0  0  0  0  0  0  0  0  0  0
   -4.9936    1.1385   -4.0603 H   0  0  0  0  0  0  0  0  0  0  0  0
   -1.0960    0.3387   -2.6434 N   0  0  0  0  0  0  0  0  0  0  0  0
    0.3401    0.4277   -2.3053 C   0  0  2  0  0  0  0  0  0  0  0  0
    1.2199    0.5640   -3.5629 C   0  0  0  0  0  0  0  0  0  0  0  0
    2.4147    0.8074   -3.4656 O   0  0  0  0  0  0  0  0  0  0  0  0
    0.7447   -0.8249   -1.5171 C   0  0  0  0  0  0  0  0  0  0  0  0
   -0.1267   -0.8782    0.1002 S   0  0  0  0  0  0  0  0  0  0  0  0
   -1.4534   -0.5556   -2.9665 H   0  0  0  0  0  0  0  0  0  0  0  0
    0.5431    1.3068   -1.6833 H   0  0  0  0  0  0  0  0  0  0  0  0
    0.5194   -1.7271   -2.0927 H   0  0  0  0  0  0  0  0  0  0  0  0
    1.8248   -0.8072   -1.3327 H   0  0  0  0  0  0  0  0  0  0  0  0
    0.6892    0.2841   -4.8077 N   0  0  0  0  0  0  0  0  0  0  0  0
    1.3541    0.6014   -6.0760 C   0  0  2  0  0  0  0  0  0  0  0  0
    0.3226    1.0952   -7.1134 C   0  0  0  0  0  0  0  0  0  0  0  0
   -0.8772    0.9416   -6.9010 O   0  0  0  0  0  0  0  0  0  0  0  0
    2.0762   -0.6533   -6.5730 C   0  0  0  0  0  0  0  0  0  0  0  0
   -0.3294    0.2584   -4.8479 H   0  0  0  0  0  0  0  0  0  0  0  0
    2.0838    1.4052   -5.9280 H   0  0  0  0  0  0  0  0  0  0  0  0
    1.3616   -1.4654   -6.7397 H   0  0  0  0  0  0  0  0  0  0  0  0
    2.5989   -0.4496   -7.5122 H   0  0  0  0  0  0  0  0  0  0  0  0
    2.8128   -0.9826   -5.8333 H   0  0  0  0  0  0  0  0  0  0  0  0
    0.7333    1.7319   -8.2698 N   0  0  0  0  0  0  0  0  0  0  0  0
   -0.1938    2.2678   -9.2597 C   0  0  0  0  0  0  0  0  0  0  0  0
    1.7300    1.8843   -8.3962 H   0  0  0  0  0  0  0  0  0  0  0  0
   -0.8296    1.4712   -9.6604 H   0  0  0  0  0  0  0  0  0  0  0  0
   -0.8321    3.0365   -8.8111 H   0  0  0  0  0  0  0  0  0  0  0  0
    0.3583    2.7189  -10.0898 H   0  0  0  0  0  0  0  0  0  0  0  0
  1  2  2  0  0  0  0
  1  3  1  0  0  0  0
  1  7  1  0  0  0  0
  3  4  1  0  0  0  0
  3  5  1  0  0  0  0
  3  6  1  0  0  0  0
  7  8  1  0  0  0  0
  7 13  1  0  0  0  0
  8  9  1  0  0  0  0
  8 11  1  0  0  0  0
  8 14  1  0  0  0  0
  9 10  2  0  0  0  0
  9 17  1  0  0  0  0
 11 12  1  0  0  0  0
 11 15  1  0  0  0  0
 11 16  1  0  0  0  0
 12 44  1  0  0  0  0
 17 18  1  0  0  0  0
 17 19  1  0  0  0  0
 18 20  1  0  0  0  0
 18 21  1  0  0  0  0
 18 22  1  0  0  0  0
 23 24  2  0  0  0  0
 23 25  1  0  0  0  0
 23 29  1  0  0  0  0
 25 26  1  0  0  0  0
 25 27  1  0  0  0  0
 25 28  1  0  0  0  0
 29 30  1  0  0  0  0
 29 34  1  0  0  0  0
 30 31  1  0  0  0  0
 30 33  1  0  0  0  0
 30 35  1  0  0  0  0
 31 32  2  0  0  0  0
 31 39  1  0  0  0  0
 33 36  1  0  0  0  0
 33 37  1  0  0  0  0
 33 38  1  0  0  0  0
 39 40  1  0  0  0  0
 39 45  1  0  0  0  0
 40 41  1  0  0  0  0
 40 43  1  0  0  0  0
 40 46  1  0  0  0  0
 41 42  2  0  0  0  0
 41 49  1  0  0  0  0
 43 44  1  0  0  0  0
 43 47  1  0  0  0  0
 43 48  1  0  0  0  0
 49 50  1  0  0  0  0
 49 54  1  0  0  0  0
 50 51  1  0  0  0  0
 50 53  1  0  0  0  0
 50 55  1  0  0  0  0
 51 52  2  0  0  0  0
 51 59  1  0  0  0  0
 53 56  1  0  0  0  0
 53 57  1  0  0  0  0
 53 58  1  0  0  0  0
 59 60  1  0  0  0  0
 59 61  1  0  0  0  0
 60 62  1  0  0  0  0
 60 63  1  0  0  0  0
 60 64  1  0  0  0  0
M  END
$$$$

  -OEChem-05262216053D

 64 63  0     1  0  0  0  0  0999 V2000
   -0.9261   -5.5863    3.1161 C   0  0  0  0  0  0  0  0  0  0  0  0
   -2.0339   -5.7492    2.6287 O   0  0  0  0  0  0  0  0  0  0  0  0
   -0.7297   -5.6648    4.6176 C   0  0  0  0  0  0  0  0  0  0  0  0
   -0.3282   -4.7187    4.9886 H   0  0  0  0  0  0  0  0  0  0  0  0
   -1.6845   -5.8614    5.1131 H   0  0  0  0  0  0  0  0  0  0  0  0
   -0.0325   -6.4699    4.8617 H   0  0  0  0  0  0  0  0  0  0  0  0
    0.1512   -5.3362    2.2954 N   0  0  0  0  0  0  0  0  0  0  0  0
    0.0866   -5.2732    0.8289 C   0  0  2  0  0  0  0  0  0  0  0  0
    1.4422   -5.6219    0.1761 C   0  0  0  0  0  0  0  0  0  0  0  0
    2.4318   -5.8248    0.8720 O   0  0  0  0  0  0  0  0  0  0  0  0
   -0.3910   -3.8757    0.4036 C   0  0  0  0  0  0  0  0  0  0  0  0
    0.7744   -2.5642    0.9534 S   0  0  0  0  0  0  0  0  0  0  0  0
    1.0749   -5.2771    2.7229 H   0  0  0  0  0  0  0  0  0  0  0  0
   -0.6358   -6.0150    0.4722 H   0  0  0  0  0  0  0  0  0  0  0  0
   -0.4965   -3.8338   -0.6834 H   0  0  0  0  0  0  0  0  0  0  0  0
   -1.3768   -3.6807    0.8382 H   0  0  0  0  0  0  0  0  0  0  0  0
    1.5484   -5.7563   -1.1975 N   0  0  0  0  0  0  0  0  0  0  0  0
    2.7954   -6.0986   -1.8714 C   0  0  0  0  0  0  0  0  0  0  0  0
    0.7086   -5.6263   -1.7531 H   0  0  0  0  0  0  0  0  0  0  0  0
    3.5676   -5.3548   -1.6476 H   0  0  0  0  0  0  0  0  0  0  0  0
    3.1489   -7.0831   -1.5469 H   0  0  0  0  0  0  0  0  0  0  0  0
    2.6461   -6.1253   -2.9550 H   0  0  0  0  0  0  0  0  0  0  0  0
   -5.5139    1.0897   -0.9662 C   0  0  0  0  0  0  0  0  0  0  0  0
   -5.9071    0.0082   -1.3745 O   0  0  0  0  0  0  0  0  0  0  0  0
   -6.2351    1.7790    0.1763 C   0  0  0  0  0  0  0  0  0  0  0  0
   -6.5416    2.7825   -0.1280 H   0  0  0  0  0  0  0  0  0  0  0  0
   -7.1250    1.2094    0.4581 H   0  0  0  0  0  0  0  0  0  0  0  0
   -5.5748    1.8539    1.0439 H   0  0  0  0  0  0  0  0  0  0  0  0
   -4.4065    1.6819   -1.5362 N   0  0  0  0  0  0  0  0  0  0  0  0
   -3.5290    1.0214   -2.5109 C   0  0  2  0  0  0  0  0  0  0  0  0
   -2.0411    1.2522   -2.1830 C   0  0  0  0  0  0  0  0  0  0  0  0
   -1.6935    2.2590   -1.5786 O   0  0  0  0  0  0  0  0  0  0  0  0
   -3.8580    1.5696   -3.9023 C   0  0  0  0  0  0  0  0  0  0  0  0
   -4.0371    2.5137   -1.0771 H   0  0  0  0  0  0  0  0  0  0  0  0
   -3.7023   -0.0599   -2.5020 H   0  0  0  0  0  0  0  0  0  0  0  0
   -3.6872    2.6504   -3.9395 H   0  0  0  0  0  0  0  0  0  0  0  0
   -3.2312    1.0942   -4.6633 H   0  0  0  0  0  0  0  0  0  0  0  0
   -4.9066    1.3736   -4.1467 H   0  0  0  0  0  0  0  0  0  0  0  0
   -1.0888    0.3551   -2.6317 N   0  0  0  0  0  0  0  0  0  0  0  0
    0.3493    0.4322   -2.2988 C   0  0  2  0  0  0  0  0  0  0  0  0
    1.2207    0.5836   -3.5630 C   0  0  0  0  0  0  0  0  0  0  0  0
    2.4420    0.5869   -3.4907 O   0  0  0  0  0  0  0  0  0  0  0  0
    0.7447   -0.8285   -1.5173 C   0  0  0  0  0  0  0  0  0  0  0  0
   -0.1216   -0.8830    0.1028 S   0  0  0  0  0  0  0  0  0  0  0  0
   -1.4424   -0.5091   -3.0328 H   0  0  0  0  0  0  0  0  0  0  0  0
    0.5594    1.3049   -1.6702 H   0  0  0  0  0  0  0  0  0  0  0  0
    0.5098   -1.7252   -2.0975 H   0  0  0  0  0  0  0  0  0  0  0  0
    1.8247   -0.8224   -1.3338 H   0  0  0  0  0  0  0  0  0  0  0  0
    0.6221    0.6318   -4.8074 N   0  0  0  0  0  0  0  0  0  0  0  0
    1.3096    1.0068   -6.0472 C   0  0  2  0  0  0  0  0  0  0  0  0
    0.3595    1.8014   -6.9688 C   0  0  0  0  0  0  0  0  0  0  0  0
   -0.8458    1.8166   -6.7349 O   0  0  0  0  0  0  0  0  0  0  0  0
    1.7977   -0.2687   -6.7385 C   0  0  0  0  0  0  0  0  0  0  0  0
   -0.3858    0.7899   -4.8013 H   0  0  0  0  0  0  0  0  0  0  0  0
    2.1674    1.6494   -5.8201 H   0  0  0  0  0  0  0  0  0  0  0  0
    0.9517   -0.9205   -6.9782 H   0  0  0  0  0  0  0  0  0  0  0  0
    2.3254   -0.0262   -7.6656 H   0  0  0  0  0  0  0  0  0  0  0  0
    2.4844   -0.8143   -6.0838 H   0  0  0  0  0  0  0  0  0  0  0  0
    0.8524    2.5128   -8.0469 N   0  0  0  0  0  0  0  0  0  0  0  0
    0.0132    3.3260   -8.9187 C   0  0  0  0  0  0  0  0  0  0  0  0
    1.8583    2.5162   -8.1903 H   0  0  0  0  0  0  0  0  0  0  0  0
   -0.7881    2.7205   -9.3552 H   0  0  0  0  0  0  0  0  0  0  0  0
   -0.4351    4.1522   -8.3568 H   0  0  0  0  0  0  0  0  0  0  0  0
    0.6100    3.7451   -9.7345 H   0  0  0  0  0  0  0  0  0  0  0  0
  1  2  2  0  0  0  0
  1  3  1  0  0  0  0
  1  7  1  0  0  0  0
  3  4  1  0  0  0  0
  3  5  1  0  0  0  0
  3  6  1  0  0  0  0
  7  8  1  0  0  0  0
  7 13  1  0  0  0  0
  8  9  1  0  0  0  0
  8 11  1  0  0  0  0
  8 14  1  0  0  0  0
  9 10  2  0  0  0  0
  9 17  1  0  0  0  0
 11 12  1  0  0  0  0
 11 15  1  0  0  0  0
 11 16  1  0  0  0  0
 12 44  1  0  0  0  0
 17 18  1  0  0  0  0
 17 19  1  0  0  0  0
 18 20  1  0  0  0  0
 18 21  1  0  0  0  0
 18 22  1  0  0  0  0
 23 24  2  0  0  0  0
 23 25  1  0  0  0  0
 23 29  1  0  0  0  0
 25 26  1  0  0  0  0
 25 27  1  0  0  0  0
 25 28  1  0  0  0  0
 29 30  1  0  0  0  0
 29 34  1  0  0  0  0
 30 31  1  0  0  0  0
 30 33  1  0  0  0  0
 30 35  1  0  0  0  0
 31 32  2  0  0  0  0
 31 39  1  0  0  0  0
 33 36  1  0  0  0  0
 33 37  1  0  0  0  0
 33 38  1  0  0  0  0
 39 40  1  0  0  0  0
 39 45  1  0  0  0  0
 40 41  1  0  0  0  0
 40 43  1  0  0  0  0
 40 46  1  0  0  0  0
 41 42  2  0  0  0  0
 41 49  1  0  0  0  0
 43 44  1  0  0  0  0
 43 47  1  0  0  0  0
 43 48  1  0  0  0  0
 49 50  1  0  0  0  0
 49 54  1  0  0  0  0
 50 51  1  0  0  0  0
 50 53  1  0  0  0  0
 50 55  1  0  0  0  0
 51 52  2  0  0  0  0
 51 59  1  0  0  0  0
 53 56  1  0  0  0  0
 53 57  1  0  0  0  0
 53 58  1  0  0  0  0
 59 60  1  0  0  0  0
 59 61  1  0  0  0  0
 60 62  1  0  0  0  0
 60 63  1  0  0  0  0
 60 64  1  0  0  0  0
M  END
$$$$

  -OEChem-05262216053D

 64 63  0     1  0  0  0  0  0999 V2000
   -0.9337   -5.6042    3.0988 C   0  0  0  0  0  0  0  0  0  0  0  0
   -2.0396   -5.7607    2.6051 O   0  0  0  0  0  0  0  0  0  0  0  0
   -0.7493   -5.6732    4.6028 C   0  0  0  0  0  0  0  0  0  0  0  0
   -0.3400   -4.7292    4.9708 H   0  0  0  0  0  0  0  0  0  0  0  0
   -1.7100   -5.8552    5.0923 H   0  0  0  0  0  0  0  0  0  0  0  0
   -0.0632   -6.4843    4.8580 H   0  0  0  0  0  0  0  0  0  0  0  0
    0.1503   -5.3681    2.2825 N   0  0  0  0  0  0  0  0  0  0  0  0
    0.0946   -5.3078    0.8150 C   0  0  2  0  0  0  0  0  0  0  0  0
    1.4554   -5.6519    0.1709 C   0  0  0  0  0  0  0  0  0  0  0  0
    2.4387   -5.8631    0.8729 O   0  0  0  0  0  0  0  0  0  0  0  0
   -0.3839   -3.9125    0.3826 C   0  0  0  0  0  0  0  0  0  0  0  0
    0.7728   -2.5969    0.9427 S   0  0  0  0  0  0  0  0  0  0  0  0
    1.0719   -5.3128    2.7147 H   0  0  0  0  0  0  0  0  0  0  0  0
   -0.6233   -6.0524    0.4549 H   0  0  0  0  0  0  0  0  0  0  0  0
   -0.4792   -3.8718   -0.7055 H   0  0  0  0  0  0  0  0  0  0  0  0
   -1.3749   -3.7204    0.8067 H   0  0  0  0  0  0  0  0  0  0  0  0
    1.5730   -5.7682   -1.2031 N   0  0  0  0  0  0  0  0  0  0  0  0
    2.8299   -6.0780   -1.8740 C   0  0  0  0  0  0  0  0  0  0  0  0
    0.7423   -5.6093   -1.7648 H   0  0  0  0  0  0  0  0  0  0  0  0
    3.5778   -5.3074   -1.6586 H   0  0  0  0  0  0  0  0  0  0  0  0
    3.2161   -7.0471   -1.5400 H   0  0  0  0  0  0  0  0  0  0  0  0
    2.6802   -6.1206   -2.9573 H   0  0  0  0  0  0  0  0  0  0  0  0
   -5.5437    1.1211   -1.0178 C   0  0  0  0  0  0  0  0  0  0  0  0
   -5.9608    0.0749   -1.4894 O   0  0  0  0  0  0  0  0  0  0  0  0
   -6.2770    1.7820    0.1338 C   0  0  0  0  0  0  0  0  0  0  0  0
   -6.5818    2.7924   -0.1487 H   0  0  0  0  0  0  0  0  0  0  0  0
   -7.1684    1.2043    0.3933 H   0  0  0  0  0  0  0  0  0  0  0  0
   -5.6252    1.8358    1.0091 H   0  0  0  0  0  0  0  0  0  0  0  0
   -4.3986    1.6979   -1.5252 N   0  0  0  0  0  0  0  0  0  0  0  0
   -3.5128    1.0508   -2.5010 C   0  0  2  0  0  0  0  0  0  0  0  0
   -2.0280    1.2634   -2.1465 C   0  0  0  0  0  0  0  0  0  0  0  0
   -1.6832    2.2444   -1.4996 O   0  0  0  0  0  0  0  0  0  0  0  0
   -3.8189    1.6297   -3.8854 C   0  0  0  0  0  0  0  0  0  0  0  0
   -4.0184    2.4992   -1.0225 H   0  0  0  0  0  0  0  0  0  0  0  0
   -3.6942   -0.0291   -2.5149 H   0  0  0  0  0  0  0  0  0  0  0  0
   -3.6386    2.7096   -3.8978 H   0  0  0  0  0  0  0  0  0  0  0  0
   -3.1862    1.1644   -4.6477 H   0  0  0  0  0  0  0  0  0  0  0  0
   -4.8662    1.4489   -4.1476 H   0  0  0  0  0  0  0  0  0  0  0  0
   -1.0720    0.3809   -2.6156 N   0  0  0  0  0  0  0  0  0  0  0  0
    0.3642    0.4445   -2.2732 C   0  0  2  0  0  0  0  0  0  0  0  0
    1.2344    0.6333   -3.5348 C   0  0  0  0  0  0  0  0  0  0  0  0
    2.4330    0.3855   -3.5272 O   0  0  0  0  0  0  0  0  0  0  0  0
    0.7486   -0.8344   -1.5125 C   0  0  0  0  0  0  0  0  0  0  0  0
   -0.1284   -0.9139    0.1010 S   0  0  0  0  0  0  0  0  0  0  0  0
   -1.4173   -0.4521   -3.0839 H   0  0  0  0  0  0  0  0  0  0  0  0
    0.5724    1.3016   -1.6232 H   0  0  0  0  0  0  0  0  0  0  0  0
    0.5152   -1.7193   -2.1111 H   0  0  0  0  0  0  0  0  0  0  0  0
    1.8269   -0.8369   -1.3196 H   0  0  0  0  0  0  0  0  0  0  0  0
    0.6406    1.0279   -4.7184 N   0  0  0  0  0  0  0  0  0  0  0  0
    1.3604    1.4129   -5.9369 C   0  0  2  0  0  0  0  0  0  0  0  0
    0.5517    2.4538   -6.7403 C   0  0  0  0  0  0  0  0  0  0  0  0
   -0.6411    2.6175   -6.5020 O   0  0  0  0  0  0  0  0  0  0  0  0
    1.6066    0.1583   -6.7802 C   0  0  0  0  0  0  0  0  0  0  0  0
   -0.3238    1.3539   -4.6462 H   0  0  0  0  0  0  0  0  0  0  0  0
    2.3207    1.8679   -5.6710 H   0  0  0  0  0  0  0  0  0  0  0  0
    0.6557   -0.3092   -7.0550 H   0  0  0  0  0  0  0  0  0  0  0  0
    2.1489    0.4108   -7.6963 H   0  0  0  0  0  0  0  0  0  0  0  0
    2.2023   -0.5668   -6.2171 H   0  0  0  0  0  0  0  0  0  0  0  0
    1.1596    3.2125   -7.7234 N   0  0  0  0  0  0  0  0  0  0  0  0
    0.4598    4.2334   -8.4945 C   0  0  0  0  0  0  0  0  0  0  0  0
    2.1545    3.0762   -7.8774 H   0  0  0  0  0  0  0  0  0  0  0  0
   -0.3893    3.7953   -9.0295 H   0  0  0  0  0  0  0  0  0  0  0  0
    0.0900    5.0265   -7.8358 H   0  0  0  0  0  0  0  0  0  0  0  0
    1.1354    4.6814   -9.2296 H   0  0  0  0  0  0  0  0  0  0  0  0
  1  2  2  0  0  0  0
  1  3  1  0  0  0  0
  1  7  1  0  0  0  0
  3  4  1  0  0  0  0
  3  5  1  0  0  0  0
  3  6  1  0  0  0  0
  7  8  1  0  0  0  0
  7 13  1  0  0  0  0
  8  9  1  0  0  0  0
  8 11  1  0  0  0  0
  8 14  1  0  0  0  0
  9 10  2  0  0  0  0
  9 17  1  0  0  0  0
 11 12  1  0  0  0  0
 11 15  1  0  0  0  0
 11 16  1  0  0  0  0
 12 44  1  0  0  0  0
 17 18  1  0  0  0  0
 17 19  1  0  0  0  0
 18 20  1  0  0  0  0
 18 21  1  0  0  0  0
 18 22  1  0  0  0  0
 23 24  2  0  0  0  0
 23 25  1  0  0  0  0
 23 29  1  0  0  0  0
 25 26  1  0  0  0  0
 25 27  1  0  0  0  0
 25 28  1  0  0  0  0
 29 30  1  0  0  0  0
 29 34  1  0  0  0  0
 30 31  1  0  0  0  0
 30 33  1  0  0  0  0
 30 35  1  0  0  0  0
 31 32  2  0  0  0  0
 31 39  1  0  0  0  0
 33 36  1  0  0  0  0
 33 37  1  0  0  0  0
 33 38  1  0  0  0  0
 39 40  1  0  0  0  0
 39 45  1  0  0  0  0
 40 41  1  0  0  0  0
 40 43  1  0  0  0  0
 40 46  1  0  0  0  0
 41 42  2  0  0  0  0
 41 49  1  0  0  0  0
 43 44  1  0  0  0  0
 43 47  1  0  0  0  0
 43 48  1  0  0  0  0
 49 50  1  0  0  0  0
 49 54  1  0  0  0  0
 50 51  1  0  0  0  0
 50 53  1  0  0  0  0
 50 55  1  0  0  0  0
 51 52  2  0  0  0  0
 51 59  1  0  0  0  0
 53 56  1  0  0  0  0
 53 57  1  0  0  0  0
 53 58  1  0  0  0  0
 59 60  1  0  0  0  0
 59 61  1  0  0  0  0
 60 62  1  0  0  0  0
 60 63  1  0  0  0  0
 60 64  1  0  0  0  0
M  END
$$$$

  -OEChem-05262216053D

 64 63  0     1  0  0  0  0  0999 V2000
   -0.9491   -5.6261    3.0706 C   0  0  0  0  0  0  0  0  0  0  0  0
   -2.0528   -5.7794    2.5708 O   0  0  0  0  0  0  0  0  0  0  0  0
   -0.7741   -5.6926    4.5760 C   0  0  0  0  0  0  0  0  0  0  0  0
   -0.3621   -4.7501    4.9448 H   0  0  0  0  0  0  0  0  0  0  0  0
   -1.7388   -5.8684    5.0595 H   0  0  0  0  0  0  0  0  0  0  0  0
   -0.0947   -6.5070    4.8386 H   0  0  0  0  0  0  0  0  0  0  0  0
    0.1400   -5.3931    2.2603 N   0  0  0  0  0  0  0  0  0  0  0  0
    0.0936   -5.3261    0.7927 C   0  0  2  0  0  0  0  0  0  0  0  0
    1.4646   -5.6488    0.1593 C   0  0  0  0  0  0  0  0  0  0  0  0
    2.4443   -5.8481    0.8703 O   0  0  0  0  0  0  0  0  0  0  0  0
   -0.3971   -3.9338    0.3625 C   0  0  0  0  0  0  0  0  0  0  0  0
    0.7378   -2.6115    0.9507 S   0  0  0  0  0  0  0  0  0  0  0  0
    1.0584   -5.3287    2.6981 H   0  0  0  0  0  0  0  0  0  0  0  0
   -0.6112   -6.0787    0.4236 H   0  0  0  0  0  0  0  0  0  0  0  0
   -0.4771   -3.8853   -0.7268 H   0  0  0  0  0  0  0  0  0  0  0  0
   -1.3962   -3.7566    0.7741 H   0  0  0  0  0  0  0  0  0  0  0  0
    1.5971   -5.7582   -1.2141 N   0  0  0  0  0  0  0  0  0  0  0  0
    2.8681   -6.0354   -1.8725 C   0  0  0  0  0  0  0  0  0  0  0  0
    0.7721   -5.5996   -1.7845 H   0  0  0  0  0  0  0  0  0  0  0  0
    3.5909   -5.2409   -1.6581 H   0  0  0  0  0  0  0  0  0  0  0  0
    3.2796   -6.9894   -1.5264 H   0  0  0  0  0  0  0  0  0  0  0  0
    2.7288   -6.0929   -2.9562 H   0  0  0  0  0  0  0  0  0  0  0  0
   -5.5529    1.1348   -1.0537 C   0  0  0  0  0  0  0  0  0  0  0  0
   -5.9768    0.1135   -1.5714 O   0  0  0  0  0  0  0  0  0  0  0  0
   -6.3083    1.7758    0.0948 C   0  0  0  0  0  0  0  0  0  0  0  0
   -6.6074    2.7915   -0.1759 H   0  0  0  0  0  0  0  0  0  0  0  0
   -7.2048    1.1936    0.3264 H   0  0  0  0  0  0  0  0  0  0  0  0
   -5.6735    1.8143    0.9837 H   0  0  0  0  0  0  0  0  0  0  0  0
   -4.3812    1.7021   -1.5075 N   0  0  0  0  0  0  0  0  0  0  0  0
   -3.4889    1.0774   -2.4916 C   0  0  2  0  0  0  0  0  0  0  0  0
   -2.0059    1.2827   -2.1259 C   0  0  0  0  0  0  0  0  0  0  0  0
   -1.6635    2.2508   -1.4585 O   0  0  0  0  0  0  0  0  0  0  0  0
   -3.7869    1.6844   -3.8653 C   0  0  0  0  0  0  0  0  0  0  0  0
   -4.0026    2.4831   -0.9731 H   0  0  0  0  0  0  0  0  0  0  0  0
   -3.6693   -0.0020   -2.5287 H   0  0  0  0  0  0  0  0  0  0  0  0
   -3.6022    2.7636   -3.8551 H   0  0  0  0  0  0  0  0  0  0  0  0
   -3.1525    1.2312   -4.6333 H   0  0  0  0  0  0  0  0  0  0  0  0
   -4.8334    1.5119   -4.1360 H   0  0  0  0  0  0  0  0  0  0  0  0
   -1.0473    0.4078   -2.6041 N   0  0  0  0  0  0  0  0  0  0  0  0
    0.3839    0.4583   -2.2430 C   0  0  2  0  0  0  0  0  0  0  0  0
    1.2610    0.6734   -3.4961 C   0  0  0  0  0  0  0  0  0  0  0  0
    2.3813    0.1881   -3.5888 O   0  0  0  0  0  0  0  0  0  0  0  0
    0.7495   -0.8338   -1.4944 C   0  0  0  0  0  0  0  0  0  0  0  0
   -0.1517   -0.9251    0.1054 S   0  0  0  0  0  0  0  0  0  0  0  0
   -1.3886   -0.4094   -3.1024 H   0  0  0  0  0  0  0  0  0  0  0  0
    0.5890    1.3021   -1.5751 H   0  0  0  0  0  0  0  0  0  0  0  0
    0.5189   -1.7091   -2.1080 H   0  0  0  0  0  0  0  0  0  0  0  0
    1.8249   -0.8460   -1.2858 H   0  0  0  0  0  0  0  0  0  0  0  0
    0.7502    1.3818   -4.5672 N   0  0  0  0  0  0  0  0  0  0  0  0
    1.5014    1.7573   -5.7706 C   0  0  2  0  0  0  0  0  0  0  0  0
    0.9010    3.0168   -6.4297 C   0  0  0  0  0  0  0  0  0  0  0  0
   -0.2410    3.3682   -6.1525 O   0  0  0  0  0  0  0  0  0  0  0  0
    1.4781    0.5845   -6.7566 C   0  0  0  0  0  0  0  0  0  0  0  0
   -0.1371    1.8630   -4.4140 H   0  0  0  0  0  0  0  0  0  0  0  0
    2.5377    1.9850   -5.4995 H   0  0  0  0  0  0  0  0  0  0  0  0
    0.4480    0.3456   -7.0406 H   0  0  0  0  0  0  0  0  0  0  0  0
    2.0407    0.8336   -7.6617 H   0  0  0  0  0  0  0  0  0  0  0  0
    1.9302   -0.3043   -6.3052 H   0  0  0  0  0  0  0  0  0  0  0  0
    1.6390    3.7567   -7.3351 N   0  0  0  0  0  0  0  0  0  0  0  0
    1.1357    4.9634   -7.9799 C   0  0  0  0  0  0  0  0  0  0  0  0
    2.5879    3.4523   -7.5328 H   0  0  0  0  0  0  0  0  0  0  0  0
    0.2420    4.7372   -8.5708 H   0  0  0  0  0  0  0  0  0  0  0  0
    0.8810    5.7203   -7.2304 H   0  0  0  0  0  0  0  0  0  0  0  0
    1.8952    5.3808   -8.6481 H   0  0  0  0  0  0  0  0  0  0  0  0
  1  2  2  0  0  0  0
  1  3  1  0  0  0  0
  1  7  1  0  0  0  0
  3  4  1  0  0  0  0
  3  5  1  0  0  0  0
  3  6  1  0  0  0  0
  7  8  1  0  0  0  0
  7 13  1  0  0  0  0
  8  9  1  0  0  0  0
  8 11  1  0  0  0  0
  8 14  1  0  0  0  0
  9 10  2  0  0  0  0
  9 17  1  0  0  0  0
 11 12  1  0  0  0  0
 11 15  1  0  0  0  0
 11 16  1  0  0  0  0
 12 44  1  0  0  0  0
 17 18  1  0  0  0  0
 17 19  1  0  0  0  0
 18 20  1  0  0  0  0
 18 21  1  0  0  0  0
 18 22  1  0  0  0  0
 23 24  2  0  0  0  0
 23 25  1  0  0  0  0
 23 29  1  0  0  0  0
 25 26  1  0  0  0  0
 25 27  1  0  0  0  0
 25 28  1  0  0  0  0
 29 30  1  0  0  0  0
 29 34  1  0  0  0  0
 30 31  1  0  0  0  0
 30 33  1  0  0  0  0
 30 35  1  0  0  0  0
 31 32  2  0  0  0  0
 31 39  1  0  0  0  0
 33 36  1  0  0  0  0
 33 37  1  0  0  0  0
 33 38  1  0  0  0  0
 39 40  1  0  0  0  0
 39 45  1  0  0  0  0
 40 41  1  0  0  0  0
 40 43  1  0  0  0  0
 40 46  1  0  0  0  0
 41 42  2  0  0  0  0
 41 49  1  0  0  0  0
 43 44  1  0  0  0  0
 43 47  1  0  0  0  0
 43 48  1  0  0  0  0
 49 50  1  0  0  0  0
 49 54  1  0  0  0  0
 50 51  1  0  0  0  0
 50 53  1  0  0  0  0
 50 55  1  0  0  0  0
 51 52  2  0  0  0  0
 51 59  1  0  0  0  0
 53 56  1  0  0  0  0
 53 57  1  0  0  0  0
 53 58  1  0  0  0  0
 59 60  1  0  0  0  0
 59 61  1  0  0  0  0
 60 62  1  0  0  0  0
 60 63  1  0  0  0  0
 60 64  1  0  0  0  0
M  END
$$$$

  -OEChem-05262216053D

 64 63  0     1  0  0  0  0  0999 V2000
   -0.9334   -5.6102    3.0732 C   0  0  0  0  0  0  0  0  0  0  0  0
   -2.0364   -5.7682    2.5734 O   0  0  0  0  0  0  0  0  0  0  0  0
   -0.7521   -5.7042    4.5760 C   0  0  0  0  0  0  0  0  0  0  0  0
   -0.3565   -4.7615    4.9623 H   0  0  0  0  0  0  0  0  0  0  0  0
   -1.7114   -5.9082    5.0596 H   0  0  0  0  0  0  0  0  0  0  0  0
   -0.0564   -6.5113    4.8187 H   0  0  0  0  0  0  0  0  0  0  0  0
    0.1519   -5.3528    2.2656 N   0  0  0  0  0  0  0  0  0  0  0  0
    0.1035   -5.2775    0.7991 C   0  0  2  0  0  0  0  0  0  0  0  0
    1.4695   -5.6084    0.1600 C   0  0  0  0  0  0  0  0  0  0  0  0
    2.4528   -5.8070    0.8661 O   0  0  0  0  0  0  0  0  0  0  0  0
   -0.3802   -3.8818    0.3755 C   0  0  0  0  0  0  0  0  0  0  0  0
    0.7478   -2.5629    0.9832 S   0  0  0  0  0  0  0  0  0  0  0  0
    1.0709   -5.2930    2.7027 H   0  0  0  0  0  0  0  0  0  0  0  0
   -0.6072   -6.0226    0.4272 H   0  0  0  0  0  0  0  0  0  0  0  0
   -0.4490   -3.8264   -0.7143 H   0  0  0  0  0  0  0  0  0  0  0  0
   -1.3831   -3.7069    0.7787 H   0  0  0  0  0  0  0  0  0  0  0  0
    1.5906   -5.7358   -1.2128 N   0  0  0  0  0  0  0  0  0  0  0  0
    2.8458   -6.0692   -1.8755 C   0  0  0  0  0  0  0  0  0  0  0  0
    0.7564   -5.6044   -1.7768 H   0  0  0  0  0  0  0  0  0  0  0  0
    3.6212   -5.3398   -1.6182 H   0  0  0  0  0  0  0  0  0  0  0  0
    3.1853   -7.0653   -1.5732 H   0  0  0  0  0  0  0  0  0  0  0  0
    2.7139   -6.0627   -2.9617 H   0  0  0  0  0  0  0  0  0  0  0  0
   -5.5643    1.0977   -1.1211 C   0  0  0  0  0  0  0  0  0  0  0  0
   -5.9776    0.0878   -1.6693 O   0  0  0  0  0  0  0  0  0  0  0  0
   -6.3335    1.7056    0.0360 C   0  0  0  0  0  0  0  0  0  0  0  0
   -6.6205    2.7319   -0.2047 H   0  0  0  0  0  0  0  0  0  0  0  0
   -7.2380    1.1239    0.2340 H   0  0  0  0  0  0  0  0  0  0  0  0
   -5.7128    1.7083    0.9353 H   0  0  0  0  0  0  0  0  0  0  0  0
   -4.3875    1.6786   -1.5446 N   0  0  0  0  0  0  0  0  0  0  0  0
   -3.4800    1.0772   -2.5294 C   0  0  2  0  0  0  0  0  0  0  0  0
   -2.0027    1.2917   -2.1458 C   0  0  0  0  0  0  0  0  0  0  0  0
   -1.6753    2.2639   -1.4768 O   0  0  0  0  0  0  0  0  0  0  0  0
   -3.7745    1.6989   -3.8973 C   0  0  0  0  0  0  0  0  0  0  0  0
   -4.0187    2.4498   -0.9889 H   0  0  0  0  0  0  0  0  0  0  0  0
   -3.6497   -0.0033   -2.5813 H   0  0  0  0  0  0  0  0  0  0  0  0
   -3.6011    2.7798   -3.8726 H   0  0  0  0  0  0  0  0  0  0  0  0
   -3.1305    1.2607   -4.6657 H   0  0  0  0  0  0  0  0  0  0  0  0
   -4.8176    1.5200   -4.1768 H   0  0  0  0  0  0  0  0  0  0  0  0
   -1.0312    0.4206   -2.6032 N   0  0  0  0  0  0  0  0  0  0  0  0
    0.3937    0.4850   -2.2263 C   0  0  2  0  0  0  0  0  0  0  0  0
    1.2743    0.6944   -3.4758 C   0  0  0  0  0  0  0  0  0  0  0  0
    2.2673    0.0093   -3.6889 O   0  0  0  0  0  0  0  0  0  0  0  0
    0.7654   -0.7940   -1.4585 C   0  0  0  0  0  0  0  0  0  0  0  0
   -0.1468   -0.8805    0.1342 S   0  0  0  0  0  0  0  0  0  0  0  0
   -1.3534   -0.3886   -3.1263 H   0  0  0  0  0  0  0  0  0  0  0  0
    0.5863    1.3373   -1.5659 H   0  0  0  0  0  0  0  0  0  0  0  0
    0.5477   -1.6781   -2.0647 H   0  0  0  0  0  0  0  0  0  0  0  0
    1.8394   -0.7945   -1.2432 H   0  0  0  0  0  0  0  0  0  0  0  0
    0.8980    1.6349   -4.4154 N   0  0  0  0  0  0  0  0  0  0  0  0
    1.6831    2.0003   -5.6006 C   0  0  2  0  0  0  0  0  0  0  0  0
    1.3966    3.4520   -6.0364 C   0  0  0  0  0  0  0  0  0  0  0  0
    0.3894    4.0256   -5.6370 O   0  0  0  0  0  0  0  0  0  0  0  0
    1.3446    1.0270   -6.7341 C   0  0  0  0  0  0  0  0  0  0  0  0
    0.1298    2.2592   -4.1616 H   0  0  0  0  0  0  0  0  0  0  0  0
    2.7512    1.9297   -5.3687 H   0  0  0  0  0  0  0  0  0  0  0  0
    0.2793    1.0834   -6.9803 H   0  0  0  0  0  0  0  0  0  0  0  0
    1.9230    1.2661   -7.6316 H   0  0  0  0  0  0  0  0  0  0  0  0
    1.5803    0.0004   -6.4365 H   0  0  0  0  0  0  0  0  0  0  0  0
    2.2718    4.1185   -6.8737 N   0  0  0  0  0  0  0  0  0  0  0  0
    2.0833    5.5047   -7.2846 C   0  0  0  0  0  0  0  0  0  0  0  0
    3.1183    3.6324   -7.1550 H   0  0  0  0  0  0  0  0  0  0  0  0
    1.1165    5.6304   -7.7833 H   0  0  0  0  0  0  0  0  0  0  0  0
    2.1197    6.1702   -6.4157 H   0  0  0  0  0  0  0  0  0  0  0  0
    2.8714    5.8028   -7.9825 H   0  0  0  0  0  0  0  0  0  0  0  0
  1  2  2  0  0  0  0
  1  3  1  0  0  0  0
  1  7  1  0  0  0  0
  3  4  1  0  0  0  0
  3  5  1  0  0  0  0
  3  6  1  0  0  0  0
  7  8  1  0  0  0  0
  7 13  1  0  0  0  0
  8  9  1  0  0  0  0
  8 11  1  0  0  0  0
  8 14  1  0  0  0  0
  9 10  2  0  0  0  0
  9 17  1  0  0  0  0
 11 12  1  0  0  0  0
 11 15  1  0  0  0  0
 11 16  1  0  0  0  0
 12 44  1  0  0  0  0
 17 18  1  0  0  0  0
 17 19  1  0  0  0  0
 18 20  1  0  0  0  0
 18 21  1  0  0  0  0
 18 22  1  0  0  0  0
 23 24  2  0  0  0  0
 23 25  1  0  0  0  0
 23 29  1  0  0  0  0
 25 26  1  0  0  0  0
 25 27  1  0  0  0  0
 25 28  1  0  0  0  0
 29 30  1  0  0  0  0
 29 34  1  0  0  0  0
 30 31  1  0  0  0  0
 30 33  1  0  0  0  0
 30 35  1  0  0  0  0
 31 32  2  0  0  0  0
 31 39  1  0  0  0  0
 33 36  1  0  0  0  0
 33 37  1  0  0  0  0
 33 38  1  0  0  0  0
 39 40  1  0  0  0  0
 39 45  1  0  0  0  0
 40 41  1  0  0  0  0
 40 43  1  0  0  0  0
 40 46  1  0  0  0  0
 41 42  2  0  0  0  0
 41 49  1  0  0  0  0
 43 44  1  0  0  0  0
 43 47  1  0  0  0  0
 43 48  1  0  0  0  0
 49 50  1  0  0  0  0
 49 54  1  0  0  0  0
 50 51  1  0  0  0  0
 50 53  1  0  0  0  0
 50 55  1  0  0  0  0
 51 52  2  0  0  0  0
 51 59  1  0  0  0  0
 53 56  1  0  0  0  0
 53 57  1  0  0  0  0
 53 58  1  0  0  0  0
 59 60  1  0  0  0  0
 59 61  1  0  0  0  0
 60 62  1  0  0  0  0
 60 63  1  0  0  0  0
 60 64  1  0  0  0  0
M  END
$$$$

  -OEChem-05262216053D

 64 63  0     1  0  0  0  0  0999 V2000
   -0.9435   -5.5918    3.0560 C   0  0  0  0  0  0  0  0  0  0  0  0
   -2.0465   -5.7327    2.5512 O   0  0  0  0  0  0  0  0  0  0  0  0
   -0.7687   -5.7056    4.5584 C   0  0  0  0  0  0  0  0  0  0  0  0
   -0.3760   -4.7684    4.9599 H   0  0  0  0  0  0  0  0  0  0  0  0
   -1.7298   -5.9177    5.0348 H   0  0  0  0  0  0  0  0  0  0  0  0
   -0.0724   -6.5145    4.7927 H   0  0  0  0  0  0  0  0  0  0  0  0
    0.1476   -5.3433    2.2534 N   0  0  0  0  0  0  0  0  0  0  0  0
    0.1050   -5.2567    0.7870 C   0  0  2  0  0  0  0  0  0  0  0  0
    1.4749   -5.5759    0.1503 C   0  0  0  0  0  0  0  0  0  0  0  0
    2.4580   -5.7669    0.8586 O   0  0  0  0  0  0  0  0  0  0  0  0
   -0.3836   -3.8593    0.3728 C   0  0  0  0  0  0  0  0  0  0  0  0
    0.7273   -2.5402    1.0116 S   0  0  0  0  0  0  0  0  0  0  0  0
    1.0651   -5.2914    2.6946 H   0  0  0  0  0  0  0  0  0  0  0  0
   -0.6005   -6.0030    0.4074 H   0  0  0  0  0  0  0  0  0  0  0  0
   -0.4384   -3.7897   -0.7170 H   0  0  0  0  0  0  0  0  0  0  0  0
   -1.3936   -3.6969    0.7636 H   0  0  0  0  0  0  0  0  0  0  0  0
    1.5984   -5.7060   -1.2222 N   0  0  0  0  0  0  0  0  0  0  0  0
    2.8556   -6.0312   -1.8853 C   0  0  0  0  0  0  0  0  0  0  0  0
    0.7652   -5.5757   -1.7876 H   0  0  0  0  0  0  0  0  0  0  0  0
    3.6208   -5.2864   -1.6423 H   0  0  0  0  0  0  0  0  0  0  0  0
    3.2116   -7.0181   -1.5710 H   0  0  0  0  0  0  0  0  0  0  0  0
    2.7188   -6.0427   -2.9709 H   0  0  0  0  0  0  0  0  0  0  0  0
   -5.5780    1.0975   -1.1480 C   0  0  0  0  0  0  0  0  0  0  0  0
   -6.0034    0.1012   -1.7116 O   0  0  0  0  0  0  0  0  0  0  0  0
   -6.3456    1.7000    0.0132 C   0  0  0  0  0  0  0  0  0  0  0  0
   -6.6267    2.7299   -0.2194 H   0  0  0  0  0  0  0  0  0  0  0  0
   -7.2529    1.1202    0.2047 H   0  0  0  0  0  0  0  0  0  0  0  0
   -5.7268    1.6925    0.9140 H   0  0  0  0  0  0  0  0  0  0  0  0
   -4.3868    1.6616   -1.5538 N   0  0  0  0  0  0  0  0  0  0  0  0
   -3.4762    1.0476   -2.5279 C   0  0  2  0  0  0  0  0  0  0  0  0
   -1.9999    1.2932   -2.1573 C   0  0  0  0  0  0  0  0  0  0  0  0
   -1.6848    2.2784   -1.5013 O   0  0  0  0  0  0  0  0  0  0  0  0
   -3.7831    1.6269   -3.9111 C   0  0  0  0  0  0  0  0  0  0  0  0
   -4.0132    2.4262   -0.9919 H   0  0  0  0  0  0  0  0  0  0  0  0
   -3.6337   -0.0360   -2.5492 H   0  0  0  0  0  0  0  0  0  0  0  0
   -3.6168    2.7090   -3.9178 H   0  0  0  0  0  0  0  0  0  0  0  0
   -3.1406    1.1702   -4.6697 H   0  0  0  0  0  0  0  0  0  0  0  0
   -4.8261    1.4321   -4.1800 H   0  0  0  0  0  0  0  0  0  0  0  0
   -1.0180    0.4253   -2.5970 N   0  0  0  0  0  0  0  0  0  0  0  0
    0.4008    0.5010   -2.2044 C   0  0  2  0  0  0  0  0  0  0  0  0
    1.2929    0.7068   -3.4459 C   0  0  0  0  0  0  0  0  0  0  0  0
    2.1133   -0.1349   -3.7932 O   0  0  0  0  0  0  0  0  0  0  0  0
    0.7707   -0.7707   -1.4248 C   0  0  0  0  0  0  0  0  0  0  0  0
   -0.1580   -0.8559    0.1587 S   0  0  0  0  0  0  0  0  0  0  0  0
   -1.3295   -0.3963   -3.1069 H   0  0  0  0  0  0  0  0  0  0  0  0
    0.5814    1.3568   -1.5446 H   0  0  0  0  0  0  0  0  0  0  0  0
    0.5641   -1.6593   -2.0288 H   0  0  0  0  0  0  0  0  0  0  0  0
    1.8425   -0.7622   -1.2007 H   0  0  0  0  0  0  0  0  0  0  0  0
    1.1105    1.8282   -4.2324 N   0  0  0  0  0  0  0  0  0  0  0  0
    1.9443    2.1852   -5.3882 C   0  0  2  0  0  0  0  0  0  0  0  0
    2.0218    3.7136   -5.5875 C   0  0  0  0  0  0  0  0  0  0  0  0
    1.2331    4.4510   -5.0080 O   0  0  0  0  0  0  0  0  0  0  0  0
    1.3600    1.5144   -6.6351 C   0  0  0  0  0  0  0  0  0  0  0  0
    0.4883    2.5534   -3.8694 H   0  0  0  0  0  0  0  0  0  0  0  0
    2.9664    1.8259   -5.2277 H   0  0  0  0  0  0  0  0  0  0  0  0
    0.3397    1.8677   -6.8148 H   0  0  0  0  0  0  0  0  0  0  0  0
    1.9682    1.7425   -7.5155 H   0  0  0  0  0  0  0  0  0  0  0  0
    1.3359    0.4278   -6.5067 H   0  0  0  0  0  0  0  0  0  0  0  0
    2.9827    4.2647   -6.4155 N   0  0  0  0  0  0  0  0  0  0  0  0
    3.1295    5.7003   -6.6244 C   0  0  0  0  0  0  0  0  0  0  0  0
    3.6318    3.6313   -6.8732 H   0  0  0  0  0  0  0  0  0  0  0  0
    2.2126    6.1219   -7.0498 H   0  0  0  0  0  0  0  0  0  0  0  0
    3.3438    6.2059   -5.6769 H   0  0  0  0  0  0  0  0  0  0  0  0
    3.9539    5.8998   -7.3155 H   0  0  0  0  0  0  0  0  0  0  0  0
  1  2  2  0  0  0  0
  1  3  1  0  0  0  0
  1  7  1  0  0  0  0
  3  4  1  0  0  0  0
  3  5  1  0  0  0  0
  3  6  1  0  0  0  0
  7  8  1  0  0  0  0
  7 13  1  0  0  0  0
  8  9  1  0  0  0  0
  8 11  1  0  0  0  0
  8 14  1  0  0  0  0
  9 10  2  0  0  0  0
  9 17  1  0  0  0  0
 11 12  1  0  0  0  0
 11 15  1  0  0  0  0
 11 16  1  0  0  0  0
 12 44  1  0  0  0  0
 17 18  1  0  0  0  0
 17 19  1  0  0  0  0
 18 20  1  0  0  0  0
 18 21  1  0  0  0  0
 18 22  1  0  0  0  0
 23 24  2  0  0  0  0
 23 25  1  0  0  0  0
 23 29  1  0  0  0  0
 25 26  1  0  0  0  0
 25 27  1  0  0  0  0
 25 28  1  0  0  0  0
 29 30  1  0  0  0  0
 29 34  1  0  0  0  0
 30 31  1  0  0  0  0
 30 33  1  0  0  0  0
 30 35  1  0  0  0  0
 31 32  2  0  0  0  0
 31 39  1  0  0  0  0
 33 36  1  0  0  0  0
 33 37  1  0  0  0  0
 33 38  1  0  0  0  0
 39 40  1  0  0  0  0
 39 45  1  0  0  0  0
 40 41  1  0  0  0  0
 40 43  1  0  0  0  0
 40 46  1  0  0  0  0
 41 42  2  0  0  0  0
 41 49  1  0  0  0  0
 43 44  1  0  0  0  0
 43 47  1  0  0  0  0
 43 48  1  0  0  0  0
 49 50  1  0  0  0  0
 49 54  1  0  0  0  0
 50 51  1  0  0  0  0
 50 53  1  0  0  0  0
 50 55  1  0  0  0  0
 51 52  2  0  0  0  0
 51 59  1  0  0  0  0
 53 56  1  0  0  0  0
 53 57  1  0  0  0  0
 53 58  1  0  0  0  0
 59 60  1  0  0  0  0
 59 61  1  0  0  0  0
 60 62  1  0  0  0  0
 60 63  1  0  0  0  0
 60 64  1  0  0  0  0
M  END
$$$$

  -OEChem-05262216053D

 64 63  0     1  0  0  0  0  0999 V2000
   -0.9496   -5.5889    3.0499 C   0  0  0  0  0  0  0  0  0  0  0  0
   -2.0516   -5.7272    2.5421 O   0  0  0  0  0  0  0  0  0  0  0  0
   -0.7775   -5.7112    4.5520 C   0  0  0  0  0  0  0  0  0  0  0  0
   -0.3908   -4.7739    4.9595 H   0  0  0  0  0  0  0  0  0  0  0  0
   -1.7383   -5.9317    5.0255 H   0  0  0  0  0  0  0  0  0  0  0  0
   -0.0774   -6.5178    4.7827 H   0  0  0  0  0  0  0  0  0  0  0  0
    0.1428   -5.3321    2.2514 N   0  0  0  0  0  0  0  0  0  0  0  0
    0.1015   -5.2285    0.7862 C   0  0  2  0  0  0  0  0  0  0  0  0
    1.4703   -5.5468    0.1463 C   0  0  0  0  0  0  0  0  0  0  0  0
    2.4563   -5.7354    0.8513 O   0  0  0  0  0  0  0  0  0  0  0  0
   -0.3794   -3.8244    0.3877 C   0  0  0  0  0  0  0  0  0  0  0  0
    0.7367   -2.5173    1.0411 S   0  0  0  0  0  0  0  0  0  0  0  0
    1.0595   -5.2821    2.6947 H   0  0  0  0  0  0  0  0  0  0  0  0
   -0.6079   -5.9667    0.3975 H   0  0  0  0  0  0  0  0  0  0  0  0
   -0.4321   -3.7434   -0.7013 H   0  0  0  0  0  0  0  0  0  0  0  0
   -1.3886   -3.6609    0.7796 H   0  0  0  0  0  0  0  0  0  0  0  0
    1.5895   -5.6786   -1.2263 N   0  0  0  0  0  0  0  0  0  0  0  0
    2.8456   -6.0018   -1.8929 C   0  0  0  0  0  0  0  0  0  0  0  0
    0.7544   -5.5494   -1.7895 H   0  0  0  0  0  0  0  0  0  0  0  0
    3.6048   -5.2449   -1.6684 H   0  0  0  0  0  0  0  0  0  0  0  0
    3.2145   -6.9794   -1.5643 H   0  0  0  0  0  0  0  0  0  0  0  0
    2.7005   -6.0339   -2.9771 H   0  0  0  0  0  0  0  0  0  0  0  0
   -5.5711    1.0847   -1.1816 C   0  0  0  0  0  0  0  0  0  0  0  0
   -5.9907    0.0905   -1.7530 O   0  0  0  0  0  0  0  0  0  0  0  0
   -6.3522    1.6863   -0.0289 C   0  0  0  0  0  0  0  0  0  0  0  0
   -6.6351    2.7147   -0.2653 H   0  0  0  0  0  0  0  0  0  0  0  0
   -7.2595    1.1038    0.1549 H   0  0  0  0  0  0  0  0  0  0  0  0
   -5.7419    1.6820    0.8776 H   0  0  0  0  0  0  0  0  0  0  0  0
   -4.3757    1.6493   -1.5738 N   0  0  0  0  0  0  0  0  0  0  0  0
   -3.4560    1.0372   -2.5402 C   0  0  2  0  0  0  0  0  0  0  0  0
   -1.9841    1.2938   -2.1614 C   0  0  0  0  0  0  0  0  0  0  0  0
   -1.6781    2.2862   -1.5116 O   0  0  0  0  0  0  0  0  0  0  0  0
   -3.7599    1.6060   -3.9284 C   0  0  0  0  0  0  0  0  0  0  0  0
   -4.0082    2.4141   -1.0084 H   0  0  0  0  0  0  0  0  0  0  0  0
   -3.6046   -0.0477   -2.5565 H   0  0  0  0  0  0  0  0  0  0  0  0
   -3.6017    2.6893   -3.9417 H   0  0  0  0  0  0  0  0  0  0  0  0
   -3.1103    1.1491   -4.6810 H   0  0  0  0  0  0  0  0  0  0  0  0
   -4.8003    1.4019   -4.2008 H   0  0  0  0  0  0  0  0  0  0  0  0
   -0.9963    0.4238   -2.5821 N   0  0  0  0  0  0  0  0  0  0  0  0
    0.4193    0.5129   -2.1857 C   0  0  2  0  0  0  0  0  0  0  0  0
    1.3114    0.7019   -3.4273 C   0  0  0  0  0  0  0  0  0  0  0  0
    1.9323   -0.2370   -3.9129 O   0  0  0  0  0  0  0  0  0  0  0  0
    0.7975   -0.7475   -1.3935 C   0  0  0  0  0  0  0  0  0  0  0  0
   -0.1343   -0.8254    0.1881 S   0  0  0  0  0  0  0  0  0  0  0  0
   -1.2975   -0.3984   -3.0975 H   0  0  0  0  0  0  0  0  0  0  0  0
    0.5933    1.3763   -1.5342 H   0  0  0  0  0  0  0  0  0  0  0  0
    0.5947   -1.6430   -1.9881 H   0  0  0  0  0  0  0  0  0  0  0  0
    1.8696   -0.7314   -1.1723 H   0  0  0  0  0  0  0  0  0  0  0  0
    1.3509    1.9322   -4.0534 N   0  0  0  0  0  0  0  0  0  0  0  0
    2.2265    2.2673   -5.1834 C   0  0  2  0  0  0  0  0  0  0  0  0
    2.6671    3.7455   -5.1457 C   0  0  0  0  0  0  0  0  0  0  0  0
    2.1154    4.5356   -4.3886 O   0  0  0  0  0  0  0  0  0  0  0  0
    1.4753    1.9653   -6.4834 C   0  0  0  0  0  0  0  0  0  0  0  0
    0.8870    2.7109   -3.5812 H   0  0  0  0  0  0  0  0  0  0  0  0
    3.1348    1.6567   -5.1396 H   0  0  0  0  0  0  0  0  0  0  0  0
    0.5684    2.5751   -6.5502 H   0  0  0  0  0  0  0  0  0  0  0  0
    2.1061    2.1820   -7.3508 H   0  0  0  0  0  0  0  0  0  0  0  0
    1.1897    0.9093   -6.5214 H   0  0  0  0  0  0  0  0  0  0  0  0
    3.6924    4.1899   -5.9599 N   0  0  0  0  0  0  0  0  0  0  0  0
    4.1722    5.5665   -5.9620 C   0  0  0  0  0  0  0  0  0  0  0  0
    4.1354    3.5127   -6.5738 H   0  0  0  0  0  0  0  0  0  0  0  0
    3.3716    6.2510   -6.2617 H   0  0  0  0  0  0  0  0  0  0  0  0
    4.5249    5.8511   -4.9649 H   0  0  0  0  0  0  0  0  0  0  0  0
    5.0028    5.6759   -6.6658 H   0  0  0  0  0  0  0  0  0  0  0  0
  1  2  2  0  0  0  0
  1  3  1  0  0  0  0
  1  7  1  0  0  0  0
  3  4  1  0  0  0  0
  3  5  1  0  0  0  0
  3  6  1  0  0  0  0
  7  8  1  0  0  0  0
  7 13  1  0  0  0  0
  8  9  1  0  0  0  0
  8 11  1  0  0  0  0
  8 14  1  0  0  0  0
  9 10  2  0  0  0  0
  9 17  1  0  0  0  0
 11 12  1  0  0  0  0
 11 15  1  0  0  0  0
 11 16  1  0  0  0  0
 12 44  1  0  0  0  0
 17 18  1  0  0  0  0
 17 19  1  0  0  0  0
 18 20  1  0  0  0  0
 18 21  1  0  0  0  0
 18 22  1  0  0  0  0
 23 24  2  0  0  0  0
 23 25  1  0  0  0  0
 23 29  1  0  0  0  0
 25 26  1  0  0  0  0
 25 27  1  0  0  0  0
 25 28  1  0  0  0  0
 29 30  1  0  0  0  0
 29 34  1  0  0  0  0
 30 31  1  0  0  0  0
 30 33  1  0  0  0  0
 30 35  1  0  0  0  0
 31 32  2  0  0  0  0
 31 39  1  0  0  0  0
 33 36  1  0  0  0  0
 33 37  1  0  0  0  0
 33 38  1  0  0  0  0
 39 40  1  0  0  0  0
 39 45  1  0  0  0  0
 40 41  1  0  0  0  0
 40 43  1  0  0  0  0
 40 46  1  0  0  0  0
 41 42  2  0  0  0  0
 41 49  1  0  0  0  0
 43 44  1  0  0  0  0
 43 47  1  0  0  0  0
 43 48  1  0  0  0  0
 49 50  1  0  0  0  0
 49 54  1  0  0  0  0
 50 51  1  0  0  0  0
 50 53  1  0  0  0  0
 50 55  1  0  0  0  0
 51 52  2  0  0  0  0
 51 59  1  0  0  0  0
 53 56  1  0  0  0  0
 53 57  1  0  0  0  0
 53 58  1  0  0  0  0
 59 60  1  0  0  0  0
 59 61  1  0  0  0  0
 60 62  1  0  0  0  0
 60 63  1  0  0  0  0
 60 64  1  0  0  0  0
M  END
$$$$

  -OEChem-05262216053D

 64 63  0     1  0  0  0  0  0999 V2000
   -0.9763   -5.5910    3.0291 C   0  0  0  0  0  0  0  0  0  0  0  0
   -2.0775   -5.7045    2.5138 O   0  0  0  0  0  0  0  0  0  0  0  0
   -0.8178   -5.7164    4.5322 C   0  0  0  0  0  0  0  0  0  0  0  0
   -0.3667   -4.8070    4.9367 H   0  0  0  0  0  0  0  0  0  0  0  0
   -1.7935   -5.8652    5.0032 H   0  0  0  0  0  0  0  0  0  0  0  0
   -0.1775   -6.5694    4.7688 H   0  0  0  0  0  0  0  0  0  0  0  0
    0.1261   -5.3517    2.2391 N   0  0  0  0  0  0  0  0  0  0  0  0
    0.0944   -5.2239    0.7756 C   0  0  2  0  0  0  0  0  0  0  0  0
    1.4631   -5.5438    0.1361 C   0  0  0  0  0  0  0  0  0  0  0  0
    2.4387   -5.7780    0.8417 O   0  0  0  0  0  0  0  0  0  0  0  0
   -0.3692   -3.8075    0.4002 C   0  0  0  0  0  0  0  0  0  0  0  0
    0.7766   -2.5280    1.0573 S   0  0  0  0  0  0  0  0  0  0  0  0
    1.0403   -5.3176    2.6885 H   0  0  0  0  0  0  0  0  0  0  0  0
   -0.6206   -5.9477    0.3711 H   0  0  0  0  0  0  0  0  0  0  0  0
   -0.4339   -3.7121   -0.6871 H   0  0  0  0  0  0  0  0  0  0  0  0
   -1.3710   -3.6318    0.8057 H   0  0  0  0  0  0  0  0  0  0  0  0
    1.5967   -5.6069   -1.2401 N   0  0  0  0  0  0  0  0  0  0  0  0
    2.8647   -5.8692   -1.9102 C   0  0  0  0  0  0  0  0  0  0  0  0
    0.7753   -5.4131   -1.8048 H   0  0  0  0  0  0  0  0  0  0  0  0
    3.5879   -5.0788   -1.6831 H   0  0  0  0  0  0  0  0  0  0  0  0
    3.2793   -6.8302   -1.5876 H   0  0  0  0  0  0  0  0  0  0  0  0
    2.7192   -5.9033   -2.9942 H   0  0  0  0  0  0  0  0  0  0  0  0
   -5.5707    1.1180   -1.1836 C   0  0  0  0  0  0  0  0  0  0  0  0
   -6.0065    0.1230   -1.7411 O   0  0  0  0  0  0  0  0  0  0  0  0
   -6.3557    1.7675   -0.0599 C   0  0  0  0  0  0  0  0  0  0  0  0
   -6.5798    2.8065   -0.3127 H   0  0  0  0  0  0  0  0  0  0  0  0
   -7.2958    1.2323    0.1007 H   0  0  0  0  0  0  0  0  0  0  0  0
   -5.7736    1.7416    0.8646 H   0  0  0  0  0  0  0  0  0  0  0  0
   -4.3566    1.6455   -1.5694 N   0  0  0  0  0  0  0  0  0  0  0  0
   -3.4393    0.9993   -2.5162 C   0  0  2  0  0  0  0  0  0  0  0  0
   -1.9670    1.2575   -2.1393 C   0  0  0  0  0  0  0  0  0  0  0  0
   -1.6638    2.2537   -1.4933 O   0  0  0  0  0  0  0  0  0  0  0  0
   -3.7322    1.5365   -3.9198 C   0  0  0  0  0  0  0  0  0  0  0  0
   -3.9782    2.4111   -1.0123 H   0  0  0  0  0  0  0  0  0  0  0  0
   -3.5966   -0.0848   -2.5038 H   0  0  0  0  0  0  0  0  0  0  0  0
   -3.5837    2.6209   -3.9530 H   0  0  0  0  0  0  0  0  0  0  0  0
   -3.0693    1.0711   -4.6556 H   0  0  0  0  0  0  0  0  0  0  0  0
   -4.7673    1.3176   -4.2008 H   0  0  0  0  0  0  0  0  0  0  0  0
   -0.9769    0.3868   -2.5532 N   0  0  0  0  0  0  0  0  0  0  0  0
    0.4412    0.4946   -2.1734 C   0  0  2  0  0  0  0  0  0  0  0  0
    1.3235    0.6659   -3.4233 C   0  0  0  0  0  0  0  0  0  0  0  0
    1.7331   -0.3114   -4.0398 O   0  0  0  0  0  0  0  0  0  0  0  0
    0.8431   -0.7504   -1.3697 C   0  0  0  0  0  0  0  0  0  0  0  0
   -0.0710   -0.8156    0.2233 S   0  0  0  0  0  0  0  0  0  0  0  0
   -1.2681   -0.4261   -3.0892 H   0  0  0  0  0  0  0  0  0  0  0  0
    0.6126    1.3679   -1.5351 H   0  0  0  0  0  0  0  0  0  0  0  0
    0.6419   -1.6562   -1.9498 H   0  0  0  0  0  0  0  0  0  0  0  0
    1.9176   -0.7209   -1.1609 H   0  0  0  0  0  0  0  0  0  0  0  0
    1.6042    1.9328   -3.8964 N   0  0  0  0  0  0  0  0  0  0  0  0
    2.5331    2.2309   -4.9942 C   0  0  2  0  0  0  0  0  0  0  0  0
    3.2845    3.5592   -4.7571 C   0  0  0  0  0  0  0  0  0  0  0  0
    2.9353    4.3095   -3.8531 O   0  0  0  0  0  0  0  0  0  0  0  0
    1.7312    2.2876   -6.2979 C   0  0  0  0  0  0  0  0  0  0  0  0
    1.3134    2.7220   -3.3164 H   0  0  0  0  0  0  0  0  0  0  0  0
    3.2863    1.4392   -5.0669 H   0  0  0  0  0  0  0  0  0  0  0  0
    0.9834    3.0860   -6.2515 H   0  0  0  0  0  0  0  0  0  0  0  0
    2.3917    2.4775   -7.1493 H   0  0  0  0  0  0  0  0  0  0  0  0
    1.2161    1.3368   -6.4681 H   0  0  0  0  0  0  0  0  0  0  0  0
    4.3632    3.9121   -5.5478 N   0  0  0  0  0  0  0  0  0  0  0  0
    5.1245    5.1414   -5.3564 C   0  0  0  0  0  0  0  0  0  0  0  0
    4.6478    3.2647   -6.2770 H   0  0  0  0  0  0  0  0  0  0  0  0
    4.4678    6.0153   -5.4241 H   0  0  0  0  0  0  0  0  0  0  0  0
    5.6100    5.1419   -4.3749 H   0  0  0  0  0  0  0  0  0  0  0  0
    5.8975    5.2325   -6.1254 H   0  0  0  0  0  0  0  0  0  0  0  0
  1  2  2  0  0  0  0
  1  3  1  0  0  0  0
  1  7  1  0  0  0  0
  3  4  1  0  0  0  0
  3  5  1  0  0  0  0
  3  6  1  0  0  0  0
  7  8  1  0  0  0  0
  7 13  1  0  0  0  0
  8  9  1  0  0  0  0
  8 11  1  0  0  0  0
  8 14  1  0  0  0  0
  9 10  2  0  0  0  0
  9 17  1  0  0  0  0
 11 12  1  0  0  0  0
 11 15  1  0  0  0  0
 11 16  1  0  0  0  0
 12 44  1  0  0  0  0
 17 18  1  0  0  0  0
 17 19  1  0  0  0  0
 18 20  1  0  0  0  0
 18 21  1  0  0  0  0
 18 22  1  0  0  0  0
 23 24  2  0  0  0  0
 23 25  1  0  0  0  0
 23 29  1  0  0  0  0
 25 26  1  0  0  0  0
 25 27  1  0  0  0  0
 25 28  1  0  0  0  0
 29 30  1  0  0  0  0
 29 34  1  0  0  0  0
 30 31  1  0  0  0  0
 30 33  1  0  0  0  0
 30 35  1  0  0  0  0
 31 32  2  0  0  0  0
 31 39  1  0  0  0  0
 33 36  1  0  0  0  0
 33 37  1  0  0  0  0
 33 38  1  0  0  0  0
 39 40  1  0  0  0  0
 39 45  1  0  0  0  0
 40 41  1  0  0  0  0
 40 43  1  0  0  0  0
 40 46  1  0  0  0  0
 41 42  2  0  0  0  0
 41 49  1  0  0  0  0
 43 44  1  0  0  0  0
 43 47  1  0  0  0  0
 43 48  1  0  0  0  0
 49 50  1  0  0  0  0
 49 54  1  0  0  0  0
 50 51  1  0  0  0  0
 50 53  1  0  0  0  0
 50 55  1  0  0  0  0
 51 52  2  0  0  0  0
 51 59  1  0  0  0  0
 53 56  1  0  0  0  0
 53 57  1  0  0  0  0
 53 58  1  0  0  0  0
 59 60  1  0  0  0  0
 59 61  1  0  0  0  0
 60 62  1  0  0  0  0
 60 63  1  0  0  0  0
 60 64  1  0  0  0  0
M  END
$$$$

  -OEChem-05262216053D

 64 63  0     1  0  0  0  0  0999 V2000
   -0.9638   -5.5928    3.0448 C   0  0  0  0  0  0  0  0  0  0  0  0
   -2.0695   -5.7011    2.5379 O   0  0  0  0  0  0  0  0  0  0  0  0
   -0.7935   -5.7276    4.5460 C   0  0  0  0  0  0  0  0  0  0  0  0
   -0.3561   -4.8134    4.9546 H   0  0  0  0  0  0  0  0  0  0  0  0
   -1.7636   -5.8969    5.0212 H   0  0  0  0  0  0  0  0  0  0  0  0
   -0.1371   -6.5708    4.7737 H   0  0  0  0  0  0  0  0  0  0  0  0
    0.1324   -5.3503    2.2472 N   0  0  0  0  0  0  0  0  0  0  0  0
    0.0891   -5.2178    0.7843 C   0  0  2  0  0  0  0  0  0  0  0  0
    1.4475   -5.5546    0.1321 C   0  0  0  0  0  0  0  0  0  0  0  0
    2.4236   -5.8113    0.8294 O   0  0  0  0  0  0  0  0  0  0  0  0
   -0.3572   -3.7937    0.4176 C   0  0  0  0  0  0  0  0  0  0  0  0
    0.8101   -2.5313    1.0701 S   0  0  0  0  0  0  0  0  0  0  0  0
    1.0506   -5.3248    2.6891 H   0  0  0  0  0  0  0  0  0  0  0  0
   -0.6396   -5.9300    0.3831 H   0  0  0  0  0  0  0  0  0  0  0  0
   -0.4287   -3.6935   -0.6688 H   0  0  0  0  0  0  0  0  0  0  0  0
   -1.3532   -3.6062    0.8318 H   0  0  0  0  0  0  0  0  0  0  0  0
    1.5725   -5.6074   -1.2453 N   0  0  0  0  0  0  0  0  0  0  0  0
    2.8321   -5.8928   -1.9220 C   0  0  0  0  0  0  0  0  0  0  0  0
    0.7514   -5.3962   -1.8047 H   0  0  0  0  0  0  0  0  0  0  0  0
    3.5785   -5.1290   -1.6791 H   0  0  0  0  0  0  0  0  0  0  0  0
    3.2183   -6.8716   -1.6184 H   0  0  0  0  0  0  0  0  0  0  0  0
    2.6863   -5.9013   -3.0065 H   0  0  0  0  0  0  0  0  0  0  0  0
   -5.5764    1.1070   -1.2288 C   0  0  0  0  0  0  0  0  0  0  0  0
   -5.9875    0.1038   -1.7904 O   0  0  0  0  0  0  0  0  0  0  0  0
   -6.3914    1.7477   -0.1216 C   0  0  0  0  0  0  0  0  0  0  0  0
   -6.6239    2.7839   -0.3783 H   0  0  0  0  0  0  0  0  0  0  0  0
   -7.3278    1.2013    0.0210 H   0  0  0  0  0  0  0  0  0  0  0  0
   -5.8269    1.7288    0.8136 H   0  0  0  0  0  0  0  0  0  0  0  0
   -4.3621    1.6499   -1.5920 N   0  0  0  0  0  0  0  0  0  0  0  0
   -3.4194    1.0146   -2.5213 C   0  0  2  0  0  0  0  0  0  0  0  0
   -1.9567    1.2664   -2.1041 C   0  0  0  0  0  0  0  0  0  0  0  0
   -1.6699    2.2467   -1.4262 O   0  0  0  0  0  0  0  0  0  0  0  0
   -3.6792    1.5655   -3.9256 C   0  0  0  0  0  0  0  0  0  0  0  0
   -4.0009    2.4149   -1.0228 H   0  0  0  0  0  0  0  0  0  0  0  0
   -3.5753   -0.0695   -2.5248 H   0  0  0  0  0  0  0  0  0  0  0  0
   -3.5356    2.6507   -3.9436 H   0  0  0  0  0  0  0  0  0  0  0  0
   -2.9961    1.1114   -4.6498 H   0  0  0  0  0  0  0  0  0  0  0  0
   -4.7060    1.3442   -4.2333 H   0  0  0  0  0  0  0  0  0  0  0  0
   -0.9591    0.3995   -2.5085 N   0  0  0  0  0  0  0  0  0  0  0  0
    0.4593    0.5207   -2.1355 C   0  0  2  0  0  0  0  0  0  0  0  0
    1.3391    0.6817   -3.3885 C   0  0  0  0  0  0  0  0  0  0  0  0
    1.5361   -0.2756   -4.1290 O   0  0  0  0  0  0  0  0  0  0  0  0
    0.8761   -0.7215   -1.3361 C   0  0  0  0  0  0  0  0  0  0  0  0
   -0.0278   -0.8015    0.2620 S   0  0  0  0  0  0  0  0  0  0  0  0
   -1.2311   -0.3807   -3.1008 H   0  0  0  0  0  0  0  0  0  0  0  0
    0.6243    1.3975   -1.5004 H   0  0  0  0  0  0  0  0  0  0  0  0
    0.6786   -1.6275   -1.9174 H   0  0  0  0  0  0  0  0  0  0  0  0
    1.9512   -0.6835   -1.1334 H   0  0  0  0  0  0  0  0  0  0  0  0
    1.8758    1.9124   -3.7136 N   0  0  0  0  0  0  0  0  0  0  0  0
    2.8257    2.1488   -4.8090 C   0  0  2  0  0  0  0  0  0  0  0  0
    3.8525    3.2413   -4.4428 C   0  0  0  0  0  0  0  0  0  0  0  0
    3.6779    3.9426   -3.4527 O   0  0  0  0  0  0  0  0  0  0  0  0
    2.0346    2.5510   -6.0576 C   0  0  0  0  0  0  0  0  0  0  0  0
    1.7581    2.6697   -3.0386 H   0  0  0  0  0  0  0  0  0  0  0  0
    3.3880    1.2322   -5.0169 H   0  0  0  0  0  0  0  0  0  0  0  0
    1.4825    3.4793   -5.8780 H   0  0  0  0  0  0  0  0  0  0  0  0
    2.7077    2.7053   -6.9062 H   0  0  0  0  0  0  0  0  0  0  0  0
    1.3198    1.7657   -6.3233 H   0  0  0  0  0  0  0  0  0  0  0  0
    4.9834    3.4289   -5.2163 N   0  0  0  0  0  0  0  0  0  0  0  0
    6.0089    4.4180   -4.9057 C   0  0  0  0  0  0  0  0  0  0  0  0
    5.1163    2.8157   -6.0153 H   0  0  0  0  0  0  0  0  0  0  0  0
    5.5687    5.4180   -4.8303 H   0  0  0  0  0  0  0  0  0  0  0  0
    6.4984    4.1768   -3.9562 H   0  0  0  0  0  0  0  0  0  0  0  0
    6.7683    4.4349   -5.6934 H   0  0  0  0  0  0  0  0  0  0  0  0
  1  2  2  0  0  0  0
  1  3  1  0  0  0  0
  1  7  1  0  0  0  0
  3  4  1  0  0  0  0
  3  5  1  0  0  0  0
  3  6  1  0  0  0  0
  7  8  1  0  0  0  0
  7 13  1  0  0  0  0
  8  9  1  0  0  0  0
  8 11  1  0  0  0  0
  8 14  1  0  0  0  0
  9 10  2  0  0  0  0
  9 17  1  0  0  0  0
 11 12  1  0  0  0  0
 11 15  1  0  0  0  0
 11 16  1  0  0  0  0
 12 44  1  0  0  0  0
 17 18  1  0  0  0  0
 17 19  1  0  0  0  0
 18 20  1  0  0  0  0
 18 21  1  0  0  0  0
 18 22  1  0  0  0  0
 23 24  2  0  0  0  0
 23 25  1  0  0  0  0
 23 29  1  0  0  0  0
 25 26  1  0  0  0  0
 25 27  1  0  0  0  0
 25 28  1  0  0  0  0
 29 30  1  0  0  0  0
 29 34  1  0  0  0  0
 30 31  1  0  0  0  0
 30 33  1  0  0  0  0
 30 35  1  0  0  0  0
 31 32  2  0  0  0  0
 31 39  1  0  0  0  0
 33 36  1  0  0  0  0
 33 37  1  0  0  0  0
 33 38  1  0  0  0  0
 39 40  1  0  0  0  0
 39 45  1  0  0  0  0
 40 41  1  0  0  0  0
 40 43  1  0  0  0  0
 40 46  1  0  0  0  0
 41 42  2  0  0  0  0
 41 49  1  0  0  0  0
 43 44  1  0  0  0  0
 43 47  1  0  0  0  0
 43 48  1  0  0  0  0
 49 50  1  0  0  0  0
 49 54  1  0  0  0  0
 50 51  1  0  0  0  0
 50 53  1  0  0  0  0
 50 55  1  0  0  0  0
 51 52  2  0  0  0  0
 51 59  1  0  0  0  0
 53 56  1  0  0  0  0
 53 57  1  0  0  0  0
 53 58  1  0  0  0  0
 59 60  1  0  0  0  0
 59 61  1  0  0  0  0
 60 62  1  0  0  0  0
 60 63  1  0  0  0  0
 60 64  1  0  0  0  0
M  END
$$$$

  -OEChem-05262216053D

 64 63  0     1  0  0  0  0  0999 V2000
   -0.9467   -5.5730    3.0618 C   0  0  0  0  0  0  0  0  0  0  0  0
   -2.0558   -5.6723    2.5605 O   0  0  0  0  0  0  0  0  0  0  0  0
   -0.7668   -5.7298    4.5597 C   0  0  0  0  0  0  0  0  0  0  0  0
   -0.3298   -4.8207    4.9799 H   0  0  0  0  0  0  0  0  0  0  0  0
   -1.7333   -5.9092    5.0390 H   0  0  0  0  0  0  0  0  0  0  0  0
   -0.1059   -6.5744    4.7692 H   0  0  0  0  0  0  0  0  0  0  0  0
    0.1455   -5.3271    2.2597 N   0  0  0  0  0  0  0  0  0  0  0  0
    0.0937   -5.1912    0.7976 C   0  0  2  0  0  0  0  0  0  0  0  0
    1.4427   -5.5447    0.1349 C   0  0  0  0  0  0  0  0  0  0  0  0
    2.4246   -5.8037    0.8232 O   0  0  0  0  0  0  0  0  0  0  0  0
   -0.3392   -3.7615    0.4377 C   0  0  0  0  0  0  0  0  0  0  0  0
    0.8479   -2.5156    1.0871 S   0  0  0  0  0  0  0  0  0  0  0  0
    1.0668   -5.3115    2.6952 H   0  0  0  0  0  0  0  0  0  0  0  0
   -0.6461   -5.8940    0.4004 H   0  0  0  0  0  0  0  0  0  0  0  0
   -0.4164   -3.6570   -0.6479 H   0  0  0  0  0  0  0  0  0  0  0  0
   -1.3309   -3.5642    0.8583 H   0  0  0  0  0  0  0  0  0  0  0  0
    1.5488   -5.6194   -1.2429 N   0  0  0  0  0  0  0  0  0  0  0  0
    2.7899   -5.9514   -1.9319 C   0  0  0  0  0  0  0  0  0  0  0  0
    0.7208   -5.4141   -1.7940 H   0  0  0  0  0  0  0  0  0  0  0  0
    3.5654   -5.2147   -1.6972 H   0  0  0  0  0  0  0  0  0  0  0  0
    3.1435   -6.9436   -1.6317 H   0  0  0  0  0  0  0  0  0  0  0  0
    2.6324   -5.9546   -3.0147 H   0  0  0  0  0  0  0  0  0  0  0  0
   -5.5813    1.0966   -1.2812 C   0  0  0  0  0  0  0  0  0  0  0  0
   -5.9900    0.1131   -1.8782 O   0  0  0  0  0  0  0  0  0  0  0  0
   -6.4042    1.7065   -0.1623 C   0  0  0  0  0  0  0  0  0  0  0  0
   -6.6553    2.7415   -0.4053 H   0  0  0  0  0  0  0  0  0  0  0  0
   -7.3305    1.1422   -0.0243 H   0  0  0  0  0  0  0  0  0  0  0  0
   -5.8370    1.6858    0.7714 H   0  0  0  0  0  0  0  0  0  0  0  0
   -4.3623    1.6473   -1.6156 N   0  0  0  0  0  0  0  0  0  0  0  0
   -3.4036    1.0300   -2.5405 C   0  0  2  0  0  0  0  0  0  0  0  0
   -1.9507    1.2608   -2.0788 C   0  0  0  0  0  0  0  0  0  0  0  0
   -1.6777    2.2204   -1.3663 O   0  0  0  0  0  0  0  0  0  0  0  0
   -3.6251    1.6229   -3.9344 C   0  0  0  0  0  0  0  0  0  0  0  0
   -4.0046    2.3909   -1.0166 H   0  0  0  0  0  0  0  0  0  0  0  0
   -3.5667   -0.0526   -2.5784 H   0  0  0  0  0  0  0  0  0  0  0  0
   -3.4694    2.7064   -3.9181 H   0  0  0  0  0  0  0  0  0  0  0  0
   -2.9301    1.1813   -4.6550 H   0  0  0  0  0  0  0  0  0  0  0  0
   -4.6468    1.4227   -4.2723 H   0  0  0  0  0  0  0  0  0  0  0  0
   -0.9488    0.3956   -2.4754 N   0  0  0  0  0  0  0  0  0  0  0  0
    0.4713    0.5316   -2.1143 C   0  0  2  0  0  0  0  0  0  0  0  0
    1.3419    0.6781   -3.3743 C   0  0  0  0  0  0  0  0  0  0  0  0
    1.3216   -0.1991   -4.2312 O   0  0  0  0  0  0  0  0  0  0  0  0
    0.9111   -0.6982   -1.3107 C   0  0  0  0  0  0  0  0  0  0  0  0
    0.0219   -0.7736    0.2952 S   0  0  0  0  0  0  0  0  0  0  0  0
   -1.1998   -0.3354   -3.1367 H   0  0  0  0  0  0  0  0  0  0  0  0
    0.6317    1.4191   -1.4928 H   0  0  0  0  0  0  0  0  0  0  0  0
    0.7175   -1.6098   -1.8845 H   0  0  0  0  0  0  0  0  0  0  0  0
    1.9875   -0.6476   -1.1177 H   0  0  0  0  0  0  0  0  0  0  0  0
    2.1189    1.8035   -3.5688 N   0  0  0  0  0  0  0  0  0  0  0  0
    3.0893    1.9693   -4.6588 C   0  0  2  0  0  0  0  0  0  0  0  0
    4.3416    2.7378   -4.1851 C   0  0  0  0  0  0  0  0  0  0  0  0
    4.3434    3.2947   -3.0930 O   0  0  0  0  0  0  0  0  0  0  0  0
    2.3989    2.7104   -5.8072 C   0  0  0  0  0  0  0  0  0  0  0  0
    2.1940    2.4609   -2.7911 H   0  0  0  0  0  0  0  0  0  0  0  0
    3.4243    0.9882   -5.0121 H   0  0  0  0  0  0  0  0  0  0  0  0
    2.0692    3.7016   -5.4793 H   0  0  0  0  0  0  0  0  0  0  0  0
    3.0824    2.8325   -6.6527 H   0  0  0  0  0  0  0  0  0  0  0  0
    1.5247    2.1475   -6.1492 H   0  0  0  0  0  0  0  0  0  0  0  0
    5.4777    2.7871   -4.9717 N   0  0  0  0  0  0  0  0  0  0  0  0
    6.7035    3.4633   -4.5633 C   0  0  0  0  0  0  0  0  0  0  0  0
    5.4603    2.2928   -5.8588 H   0  0  0  0  0  0  0  0  0  0  0  0
    6.5015    4.5119   -4.3209 H   0  0  0  0  0  0  0  0  0  0  0  0
    7.1349    2.9753   -3.6830 H   0  0  0  0  0  0  0  0  0  0  0  0
    7.4397    3.4337   -5.3721 H   0  0  0  0  0  0  0  0  0  0  0  0
  1  2  2  0  0  0  0
  1  3  1  0  0  0  0
  1  7  1  0  0  0  0
  3  4  1  0  0  0  0
  3  5  1  0  0  0  0
  3  6  1  0  0  0  0
  7  8  1  0  0  0  0
  7 13  1  0  0  0  0
  8  9  1  0  0  0  0
  8 11  1  0  0  0  0
  8 14  1  0  0  0  0
  9 10  2  0  0  0  0
  9 17  1  0  0  0  0
 11 12  1  0  0  0  0
 11 15  1  0  0  0  0
 11 16  1  0  0  0  0
 12 44  1  0  0  0  0
 17 18  1  0  0  0  0
 17 19  1  0  0  0  0
 18 20  1  0  0  0  0
 18 21  1  0  0  0  0
 18 22  1  0  0  0  0
 23 24  2  0  0  0  0
 23 25  1  0  0  0  0
 23 29  1  0  0  0  0
 25 26  1  0  0  0  0
 25 27  1  0  0  0  0
 25 28  1  0  0  0  0
 29 30  1  0  0  0  0
 29 34  1  0  0  0  0
 30 31  1  0  0  0  0
 30 33  1  0  0  0  0
 30 35  1  0  0  0  0
 31 32  2  0  0  0  0
 31 39  1  0  0  0  0
 33 36  1  0  0  0  0
 33 37  1  0  0  0  0
 33 38  1  0  0  0  0
 39 40  1  0  0  0  0
 39 45  1  0  0  0  0
 40 41  1  0  0  0  0
 40 43  1  0  0  0  0
 40 46  1  0  0  0  0
 41 42  2  0  0  0  0
 41 49  1  0  0  0  0
 43 44  1  0  0  0  0
 43 47  1  0  0  0  0
 43 48  1  0  0  0  0
 49 50  1  0  0  0  0
 49 54  1  0  0  0  0
 50 51  1  0  0  0  0
 50 53  1  0  0  0  0
 50 55  1  0  0  0  0
 51 52  2  0  0  0  0
 51 59  1  0  0  0  0
 53 56  1  0  0  0  0
 53 57  1  0  0  0  0
 53 58  1  0  0  0  0
 59 60  1  0  0  0  0
 59 61  1  0  0  0  0
 60 62  1  0  0  0  0
 60 63  1  0  0  0  0
 60 64  1  0  0  0  0
M  END
$$$$

  -OEChem-05262216053D

 64 63  0     1  0  0  0  0  0999 V2000
   -0.9279   -5.5603    3.0745 C   0  0  0  0  0  0  0  0  0  0  0  0
   -2.0393   -5.6576    2.5779 O   0  0  0  0  0  0  0  0  0  0  0  0
   -0.7406   -5.7329    4.5699 C   0  0  0  0  0  0  0  0  0  0  0  0
   -0.3171   -4.8217    4.9994 H   0  0  0  0  0  0  0  0  0  0  0  0
   -1.7024   -5.9355    5.0496 H   0  0  0  0  0  0  0  0  0  0  0  0
   -0.0651   -6.5688    4.7678 H   0  0  0  0  0  0  0  0  0  0  0  0
    0.1600   -5.3033    2.2694 N   0  0  0  0  0  0  0  0  0  0  0  0
    0.1030   -5.1636    0.8077 C   0  0  2  0  0  0  0  0  0  0  0  0
    1.4437   -5.5345    0.1377 C   0  0  0  0  0  0  0  0  0  0  0  0
    2.4328   -5.7802    0.8202 O   0  0  0  0  0  0  0  0  0  0  0  0
   -0.3125   -3.7281    0.4529 C   0  0  0  0  0  0  0  0  0  0  0  0
    0.8951   -2.4968    1.0916 S   0  0  0  0  0  0  0  0  0  0  0  0
    1.0825   -5.2817    2.7024 H   0  0  0  0  0  0  0  0  0  0  0  0
   -0.6485   -5.8543    0.4111 H   0  0  0  0  0  0  0  0  0  0  0  0
   -0.3995   -3.6228   -0.6321 H   0  0  0  0  0  0  0  0  0  0  0  0
   -1.2966   -3.5182    0.8844 H   0  0  0  0  0  0  0  0  0  0  0  0
    1.5326   -5.6442   -1.2391 N   0  0  0  0  0  0  0  0  0  0  0  0
    2.7559   -6.0303   -1.9321 C   0  0  0  0  0  0  0  0  0  0  0  0
    0.6894   -5.4845   -1.7825 H   0  0  0  0  0  0  0  0  0  0  0  0
    3.5684   -5.3363   -1.6918 H   0  0  0  0  0  0  0  0  0  0  0  0
    3.0584   -7.0419   -1.6411 H   0  0  0  0  0  0  0  0  0  0  0  0
    2.5987   -6.0138   -3.0149 H   0  0  0  0  0  0  0  0  0  0  0  0
   -5.5781    1.0827   -1.3148 C   0  0  0  0  0  0  0  0  0  0  0  0
   -5.9716    0.1009   -1.9248 O   0  0  0  0  0  0  0  0  0  0  0  0
   -6.4099    1.6601   -0.1852 C   0  0  0  0  0  0  0  0  0  0  0  0
   -6.6840    2.6928   -0.4131 H   0  0  0  0  0  0  0  0  0  0  0  0
   -7.3231    1.0734   -0.0518 H   0  0  0  0  0  0  0  0  0  0  0  0
   -5.8392    1.6392    0.7464 H   0  0  0  0  0  0  0  0  0  0  0  0
   -4.3682    1.6582   -1.6416 N   0  0  0  0  0  0  0  0  0  0  0  0
   -3.3928    1.0575   -2.5606 C   0  0  2  0  0  0  0  0  0  0  0  0
   -1.9485    1.2634   -2.0619 C   0  0  0  0  0  0  0  0  0  0  0  0
   -1.6816    2.2091   -1.3287 O   0  0  0  0  0  0  0  0  0  0  0  0
   -3.5795    1.6885   -3.9429 C   0  0  0  0  0  0  0  0  0  0  0  0
   -4.0242    2.3993   -1.0318 H   0  0  0  0  0  0  0  0  0  0  0  0
   -3.5620   -0.0224   -2.6312 H   0  0  0  0  0  0  0  0  0  0  0  0
   -3.4093    2.7689   -3.8962 H   0  0  0  0  0  0  0  0  0  0  0  0
   -2.8771    1.2558   -4.6618 H   0  0  0  0  0  0  0  0  0  0  0  0
   -4.5972    1.5108   -4.3048 H   0  0  0  0  0  0  0  0  0  0  0  0
   -0.9479    0.3942   -2.4529 N   0  0  0  0  0  0  0  0  0  0  0  0
    0.4752    0.5428   -2.1080 C   0  0  2  0  0  0  0  0  0  0  0  0
    1.3394    0.6703   -3.3743 C   0  0  0  0  0  0  0  0  0  0  0  0
    1.1413   -0.0822   -4.3227 O   0  0  0  0  0  0  0  0  0  0  0  0
    0.9335   -0.6739   -1.2969 C   0  0  0  0  0  0  0  0  0  0  0  0
    0.0669   -0.7455    0.3213 S   0  0  0  0  0  0  0  0  0  0  0  0
   -1.1877   -0.2999   -3.1573 H   0  0  0  0  0  0  0  0  0  0  0  0
    0.6353    1.4412   -1.5027 H   0  0  0  0  0  0  0  0  0  0  0  0
    0.7397   -1.5918   -1.8603 H   0  0  0  0  0  0  0  0  0  0  0  0
    2.0119   -0.6132   -1.1172 H   0  0  0  0  0  0  0  0  0  0  0  0
    2.3323    1.6268   -3.4554 N   0  0  0  0  0  0  0  0  0  0  0  0
    3.3134    1.7199   -4.5440 C   0  0  2  0  0  0  0  0  0  0  0  0
    4.7097    2.1086   -4.0132 C   0  0  0  0  0  0  0  0  0  0  0  0
    4.8438    2.4784   -2.8519 O   0  0  0  0  0  0  0  0  0  0  0  0
    2.8049    2.7542   -5.5515 C   0  0  0  0  0  0  0  0  0  0  0  0
    2.5487    2.1487   -2.6054 H   0  0  0  0  0  0  0  0  0  0  0  0
    3.4154    0.7500   -5.0422 H   0  0  0  0  0  0  0  0  0  0  0  0
    2.7126    3.7367   -5.0773 H   0  0  0  0  0  0  0  0  0  0  0  0
    3.4922    2.8386   -6.3982 H   0  0  0  0  0  0  0  0  0  0  0  0
    1.8227    2.4580   -5.9333 H   0  0  0  0  0  0  0  0  0  0  0  0
    5.8217    2.0228   -4.8304 N   0  0  0  0  0  0  0  0  0  0  0  0
    7.1726    2.3298   -4.3758 C   0  0  0  0  0  0  0  0  0  0  0  0
    5.6859    1.6891   -5.7803 H   0  0  0  0  0  0  0  0  0  0  0  0
    7.2186    3.3436   -3.9641 H   0  0  0  0  0  0  0  0  0  0  0  0
    7.4860    1.6212   -3.6021 H   0  0  0  0  0  0  0  0  0  0  0  0
    7.8769    2.2654   -5.2107 H   0  0  0  0  0  0  0  0  0  0  0  0
  1  2  2  0  0  0  0
  1  3  1  0  0  0  0
  1  7  1  0  0  0  0
  3  4  1  0  0  0  0
  3  5  1  0  0  0  0
  3  6  1  0  0  0  0
  7  8  1  0  0  0  0
  7 13  1  0  0  0  0
  8  9  1  0  0  0  0
  8 11  1  0  0  0  0
  8 14  1  0  0  0  0
  9 10  2  0  0  0  0
  9 17  1  0  0  0  0
 11 12  1  0  0  0  0
 11 15  1  0  0  0  0
 11 16  1  0  0  0  0
 12 44  1  0  0  0  0
 17 18  1  0  0  0  0
 17 19  1  0  0  0  0
 18 20  1  0  0  0  0
 18 21  1  0  0  0  0
 18 22  1  0  0  0  0
 23 24  2  0  0  0  0
 23 25  1  0  0  0  0
 23 29  1  0  0  0  0
 25 26  1  0  0  0  0
 25 27  1  0  0  0  0
 25 28  1  0  0  0  0
 29 30  1  0  0  0  0
 29 34  1  0  0  0  0
 30 31  1  0  0  0  0
 30 33  1  0  0  0  0
 30 35  1  0  0  0  0
 31 32  2  0  0  0  0
 31 39  1  0  0  0  0
 33 36  1  0  0  0  0
 33 37  1  0  0  0  0
 33 38  1  0  0  0  0
 39 40  1  0  0  0  0
 39 45  1  0  0  0  0
 40 41  1  0  0  0  0
 40 43  1  0  0  0  0
 40 46  1  0  0  0  0
 41 42  2  0  0  0  0
 41 49  1  0  0  0  0
 43 44  1  0  0  0  0
 43 47  1  0  0  0  0
 43 48  1  0  0  0  0
 49 50  1  0  0  0  0
 49 54  1  0  0  0  0
 50 51  1  0  0  0  0
 50 53  1  0  0  0  0
 50 55  1  0  0  0  0
 51 52  2  0  0  0  0
 51 59  1  0  0  0  0
 53 56  1  0  0  0  0
 53 57  1  0  0  0  0
 53 58  1  0  0  0  0
 59 60  1  0  0  0  0
 59 61  1  0  0  0  0
 60 62  1  0  0  0  0
 60 63  1  0  0  0  0
 60 64  1  0  0  0  0
M  END
$$$$

  -OEChem-05262216053D

 64 63  0     1  0  0  0  0  0999 V2000
   -0.9195   -5.5501    3.0896 C   0  0  0  0  0  0  0  0  0  0  0  0
   -2.0332   -5.6404    2.5970 O   0  0  0  0  0  0  0  0  0  0  0  0
   -0.7261   -5.7326    4.5832 C   0  0  0  0  0  0  0  0  0  0  0  0
   -0.3249   -4.8154    5.0215 H   0  0  0  0  0  0  0  0  0  0  0  0
   -1.6820   -5.9636    5.0617 H   0  0  0  0  0  0  0  0  0  0  0  0
   -0.0304   -6.5539    4.7723 H   0  0  0  0  0  0  0  0  0  0  0  0
    0.1661   -5.2967    2.2809 N   0  0  0  0  0  0  0  0  0  0  0  0
    0.1051   -5.1612    0.8192 C   0  0  2  0  0  0  0  0  0  0  0  0
    1.4387   -5.5492    0.1454 C   0  0  0  0  0  0  0  0  0  0  0  0
    2.4264   -5.8088    0.8248 O   0  0  0  0  0  0  0  0  0  0  0  0
   -0.2960   -3.7224    0.4610 C   0  0  0  0  0  0  0  0  0  0  0  0
    0.9324   -2.5031    1.0846 S   0  0  0  0  0  0  0  0  0  0  0  0
    1.0908   -5.2895    2.7091 H   0  0  0  0  0  0  0  0  0  0  0  0
   -0.6555   -5.8446    0.4281 H   0  0  0  0  0  0  0  0  0  0  0  0
   -0.3894   -3.6211   -0.6240 H   0  0  0  0  0  0  0  0  0  0  0  0
   -1.2748   -3.4985    0.8983 H   0  0  0  0  0  0  0  0  0  0  0  0
    1.5221   -5.6596   -1.2315 N   0  0  0  0  0  0  0  0  0  0  0  0
    2.7366   -6.0653   -1.9289 C   0  0  0  0  0  0  0  0  0  0  0  0
    0.6788   -5.4906   -1.7716 H   0  0  0  0  0  0  0  0  0  0  0  0
    3.5583   -5.3779   -1.7006 H   0  0  0  0  0  0  0  0  0  0  0  0
    3.0303   -7.0771   -1.6300 H   0  0  0  0  0  0  0  0  0  0  0  0
    2.5718   -6.0581   -3.0107 H   0  0  0  0  0  0  0  0  0  0  0  0
   -5.5739    1.0795   -1.3353 C   0  0  0  0  0  0  0  0  0  0  0  0
   -5.9621    0.1019   -1.9551 O   0  0  0  0  0  0  0  0  0  0  0  0
   -6.4115    1.6442   -0.2037 C   0  0  0  0  0  0  0  0  0  0  0  0
   -6.7052    2.6709   -0.4336 H   0  0  0  0  0  0  0  0  0  0  0  0
   -7.3137    1.0416   -0.0656 H   0  0  0  0  0  0  0  0  0  0  0  0
   -5.8369    1.6354    0.7259 H   0  0  0  0  0  0  0  0  0  0  0  0
   -4.3633    1.6600   -1.6499 N   0  0  0  0  0  0  0  0  0  0  0  0
   -3.3791    1.0650   -2.5630 C   0  0  2  0  0  0  0  0  0  0  0  0
   -1.9408    1.2441   -2.0359 C   0  0  0  0  0  0  0  0  0  0  0  0
   -1.6794    2.1663   -1.2714 O   0  0  0  0  0  0  0  0  0  0  0  0
   -3.5358    1.7270   -3.9345 C   0  0  0  0  0  0  0  0  0  0  0  0
   -4.0216    2.3908   -1.0265 H   0  0  0  0  0  0  0  0  0  0  0  0
   -3.5594   -0.0113   -2.6589 H   0  0  0  0  0  0  0  0  0  0  0  0
   -3.3524    2.8040   -3.8618 H   0  0  0  0  0  0  0  0  0  0  0  0
   -2.8273    1.3000   -4.6509 H   0  0  0  0  0  0  0  0  0  0  0  0
   -4.5498    1.5712   -4.3167 H   0  0  0  0  0  0  0  0  0  0  0  0
   -0.9406    0.3795   -2.4385 N   0  0  0  0  0  0  0  0  0  0  0  0
    0.4866    0.5421   -2.1141 C   0  0  2  0  0  0  0  0  0  0  0  0
    1.3350    0.6706   -3.3918 C   0  0  0  0  0  0  0  0  0  0  0  0
    0.9860    0.0941   -4.4171 O   0  0  0  0  0  0  0  0  0  0  0  0
    0.9645   -0.6700   -1.3059 C   0  0  0  0  0  0  0  0  0  0  0  0
    0.1185   -0.7412    0.3232 S   0  0  0  0  0  0  0  0  0  0  0  0
   -1.1696   -0.2592   -3.1971 H   0  0  0  0  0  0  0  0  0  0  0  0
    0.6484    1.4464   -1.5178 H   0  0  0  0  0  0  0  0  0  0  0  0
    0.7674   -1.5900   -1.8646 H   0  0  0  0  0  0  0  0  0  0  0  0
    2.0449   -0.6044   -1.1399 H   0  0  0  0  0  0  0  0  0  0  0  0
    2.5028    1.4081   -3.3861 N   0  0  0  0  0  0  0  0  0  0  0  0
    3.4781    1.4306   -4.4837 C   0  0  2  0  0  0  0  0  0  0  0  0
    4.9248    1.4069   -3.9481 C   0  0  0  0  0  0  0  0  0  0  0  0
    5.1393    1.5744   -2.7526 O   0  0  0  0  0  0  0  0  0  0  0  0
    3.2238    2.6886   -5.3185 C   0  0  0  0  0  0  0  0  0  0  0  0
    2.8357    1.7445   -2.4817 H   0  0  0  0  0  0  0  0  0  0  0  0
    3.3546    0.5461   -5.1174 H   0  0  0  0  0  0  0  0  0  0  0  0
    3.3593    3.5872   -4.7079 H   0  0  0  0  0  0  0  0  0  0  0  0
    3.9141    2.7356   -6.1660 H   0  0  0  0  0  0  0  0  0  0  0  0
    2.2006    2.6832   -5.7075 H   0  0  0  0  0  0  0  0  0  0  0  0
    5.9860    1.1724   -4.8024 N   0  0  0  0  0  0  0  0  0  0  0  0
    7.3711    1.0994   -4.3537 C   0  0  0  0  0  0  0  0  0  0  0  0
    5.7771    1.0142   -5.7838 H   0  0  0  0  0  0  0  0  0  0  0  0
    7.6556    2.0212   -3.8353 H   0  0  0  0  0  0  0  0  0  0  0  0
    7.5084    0.2541   -3.6711 H   0  0  0  0  0  0  0  0  0  0  0  0
    8.0395    0.9657   -5.2096 H   0  0  0  0  0  0  0  0  0  0  0  0
  1  2  2  0  0  0  0
  1  3  1  0  0  0  0
  1  7  1  0  0  0  0
  3  4  1  0  0  0  0
  3  5  1  0  0  0  0
  3  6  1  0  0  0  0
  7  8  1  0  0  0  0
  7 13  1  0  0  0  0
  8  9  1  0  0  0  0
  8 11  1  0  0  0  0
  8 14  1  0  0  0  0
  9 10  2  0  0  0  0
  9 17  1  0  0  0  0
 11 12  1  0  0  0  0
 11 15  1  0  0  0  0
 11 16  1  0  0  0  0
 12 44  1  0  0  0  0
 17 18  1  0  0  0  0
 17 19  1  0  0  0  0
 18 20  1  0  0  0  0
 18 21  1  0  0  0  0
 18 22  1  0  0  0  0
 23 24  2  0  0  0  0
 23 25  1  0  0  0  0
 23 29  1  0  0  0  0
 25 26  1  0  0  0  0
 25 27  1  0  0  0  0
 25 28  1  0  0  0  0
 29 30  1  0  0  0  0
 29 34  1  0  0  0  0
 30 31  1  0  0  0  0
 30 33  1  0  0  0  0
 30 35  1  0  0  0  0
 31 32  2  0  0  0  0
 31 39  1  0  0  0  0
 33 36  1  0  0  0  0
 33 37  1  0  0  0  0
 33 38  1  0  0  0  0
 39 40  1  0  0  0  0
 39 45  1  0  0  0  0
 40 41  1  0  0  0  0
 40 43  1  0  0  0  0
 40 46  1  0  0  0  0
 41 42  2  0  0  0  0
 41 49  1  0  0  0  0
 43 44  1  0  0  0  0
 43 47  1  0  0  0  0
 43 48  1  0  0  0  0
 49 50  1  0  0  0  0
 49 54  1  0  0  0  0
 50 51  1  0  0  0  0
 50 53  1  0  0  0  0
 50 55  1  0  0  0  0
 51 52  2  0  0  0  0
 51 59  1  0  0  0  0
 53 56  1  0  0  0  0
 53 57  1  0  0  0  0
 53 58  1  0  0  0  0
 59 60  1  0  0  0  0
 59 61  1  0  0  0  0
 60 62  1  0  0  0  0
 60 63  1  0  0  0  0
 60 64  1  0  0  0  0
M  END
$$$$

  -OEChem-05262216053D

 64 63  0     1  0  0  0  0  0999 V2000
   -0.9176   -5.5428    3.0915 C   0  0  0  0  0  0  0  0  0  0  0  0
   -2.0353   -5.6129    2.6042 O   0  0  0  0  0  0  0  0  0  0  0  0
   -0.7221   -5.7087    4.5863 C   0  0  0  0  0  0  0  0  0  0  0  0
   -0.2555   -4.8124    5.0023 H   0  0  0  0  0  0  0  0  0  0  0  0
   -1.6865   -5.8641    5.0776 H   0  0  0  0  0  0  0  0  0  0  0  0
   -0.0814   -6.5712    4.7852 H   0  0  0  0  0  0  0  0  0  0  0  0
    0.1699   -5.3185    2.2764 N   0  0  0  0  0  0  0  0  0  0  0  0
    0.1032   -5.1845    0.8145 C   0  0  2  0  0  0  0  0  0  0  0  0
    1.4294   -5.5892    0.1345 C   0  0  0  0  0  0  0  0  0  0  0  0
    2.4002   -5.9111    0.8115 O   0  0  0  0  0  0  0  0  0  0  0  0
   -0.2823   -3.7406    0.4582 C   0  0  0  0  0  0  0  0  0  0  0  0
    0.9738   -2.5399    1.0616 S   0  0  0  0  0  0  0  0  0  0  0  0
    1.0974   -5.3352    2.6991 H   0  0  0  0  0  0  0  0  0  0  0  0
   -0.6679   -5.8598    0.4291 H   0  0  0  0  0  0  0  0  0  0  0  0
   -0.3898   -3.6400   -0.6252 H   0  0  0  0  0  0  0  0  0  0  0  0
   -1.2513   -3.5010    0.9084 H   0  0  0  0  0  0  0  0  0  0  0  0
    1.5281   -5.6362   -1.2453 N   0  0  0  0  0  0  0  0  0  0  0  0
    2.7513   -6.0096   -1.9459 C   0  0  0  0  0  0  0  0  0  0  0  0
    0.7064   -5.3876   -1.7878 H   0  0  0  0  0  0  0  0  0  0  0  0
    3.5589   -5.3097   -1.7057 H   0  0  0  0  0  0  0  0  0  0  0  0
    3.0637   -7.0198   -1.6602 H   0  0  0  0  0  0  0  0  0  0  0  0
    2.5886   -5.9919   -3.0279 H   0  0  0  0  0  0  0  0  0  0  0  0
   -5.5998    1.1231   -1.3547 C   0  0  0  0  0  0  0  0  0  0  0  0
   -6.0163    0.1916   -2.0251 O   0  0  0  0  0  0  0  0  0  0  0  0
   -6.4524    1.7000   -0.2401 C   0  0  0  0  0  0  0  0  0  0  0  0
   -6.6935    2.7432   -0.4571 H   0  0  0  0  0  0  0  0  0  0  0  0
   -7.3840    1.1348   -0.1456 H   0  0  0  0  0  0  0  0  0  0  0  0
   -5.9110    1.6472    0.7078 H   0  0  0  0  0  0  0  0  0  0  0  0
   -4.3450    1.6402   -1.5985 N   0  0  0  0  0  0  0  0  0  0  0  0
   -3.3657    1.0335   -2.5097 C   0  0  2  0  0  0  0  0  0  0  0  0
   -1.9246    1.2060   -1.9879 C   0  0  0  0  0  0  0  0  0  0  0  0
   -1.6621    2.1032   -1.1942 O   0  0  0  0  0  0  0  0  0  0  0  0
   -3.5192    1.6790   -3.8899 C   0  0  0  0  0  0  0  0  0  0  0  0
   -3.9883    2.3337   -0.9415 H   0  0  0  0  0  0  0  0  0  0  0  0
   -3.5535   -0.0426   -2.5923 H   0  0  0  0  0  0  0  0  0  0  0  0
   -3.3464    2.7587   -3.8297 H   0  0  0  0  0  0  0  0  0  0  0  0
   -2.8028    1.2498   -4.5973 H   0  0  0  0  0  0  0  0  0  0  0  0
   -4.5294    1.5080   -4.2758 H   0  0  0  0  0  0  0  0  0  0  0  0
   -0.9272    0.3500   -2.4154 N   0  0  0  0  0  0  0  0  0  0  0  0
    0.5040    0.5290   -2.1171 C   0  0  2  0  0  0  0  0  0  0  0  0
    1.3325    0.6717   -3.4086 C   0  0  0  0  0  0  0  0  0  0  0  0
    0.8696    0.2903   -4.4792 O   0  0  0  0  0  0  0  0  0  0  0  0
    0.9939   -0.6871   -1.3194 C   0  0  0  0  0  0  0  0  0  0  0  0
    0.1678   -0.7657    0.3204 S   0  0  0  0  0  0  0  0  0  0  0  0
   -1.1541   -0.2356   -3.2165 H   0  0  0  0  0  0  0  0  0  0  0  0
    0.6698    1.4323   -1.5205 H   0  0  0  0  0  0  0  0  0  0  0  0
    0.7893   -1.6048   -1.8793 H   0  0  0  0  0  0  0  0  0  0  0  0
    2.0761   -0.6242   -1.1644 H   0  0  0  0  0  0  0  0  0  0  0  0
    2.6275    1.1514   -3.3597 N   0  0  0  0  0  0  0  0  0  0  0  0
    3.5838    1.0856   -4.4734 C   0  0  2  0  0  0  0  0  0  0  0  0
    4.9823    0.6501   -3.9865 C   0  0  0  0  0  0  0  0  0  0  0  0
    5.2182    0.5821   -2.7853 O   0  0  0  0  0  0  0  0  0  0  0  0
    3.6416    2.4660   -5.1326 C   0  0  0  0  0  0  0  0  0  0  0  0
    3.0282    1.3049   -2.4339 H   0  0  0  0  0  0  0  0  0  0  0  0
    3.2551    0.3480   -5.2130 H   0  0  0  0  0  0  0  0  0  0  0  0
    3.9925    3.2174   -4.4178 H   0  0  0  0  0  0  0  0  0  0  0  0
    4.3217    2.4556   -5.9896 H   0  0  0  0  0  0  0  0  0  0  0  0
    2.6474    2.7583   -5.4857 H   0  0  0  0  0  0  0  0  0  0  0  0
    5.9715    0.3148   -4.8925 N   0  0  0  0  0  0  0  0  0  0  0  0
    7.3035   -0.1259   -4.4954 C   0  0  0  0  0  0  0  0  0  0  0  0
    5.7464    0.3717   -5.8814 H   0  0  0  0  0  0  0  0  0  0  0  0
    7.7934    0.6366   -3.8808 H   0  0  0  0  0  0  0  0  0  0  0  0
    7.2436   -1.0560   -3.9207 H   0  0  0  0  0  0  0  0  0  0  0  0
    7.9226   -0.3050   -5.3796 H   0  0  0  0  0  0  0  0  0  0  0  0
  1  2  2  0  0  0  0
  1  3  1  0  0  0  0
  1  7  1  0  0  0  0
  3  4  1  0  0  0  0
  3  5  1  0  0  0  0
  3  6  1  0  0  0  0
  7  8  1  0  0  0  0
  7 13  1  0  0  0  0
  8  9  1  0  0  0  0
  8 11  1  0  0  0  0
  8 14  1  0  0  0  0
  9 10  2  0  0  0  0
  9 17  1  0  0  0  0
 11 12  1  0  0  0  0
 11 15  1  0  0  0  0
 11 16  1  0  0  0  0
 12 44  1  0  0  0  0
 17 18  1  0  0  0  0
 17 19  1  0  0  0  0
 18 20  1  0  0  0  0
 18 21  1  0  0  0  0
 18 22  1  0  0  0  0
 23 24  2  0  0  0  0
 23 25  1  0  0  0  0
 23 29  1  0  0  0  0
 25 26  1  0  0  0  0
 25 27  1  0  0  0  0
 25 28  1  0  0  0  0
 29 30  1  0  0  0  0
 29 34  1  0  0  0  0
 30 31  1  0  0  0  0
 30 33  1  0  0  0  0
 30 35  1  0  0  0  0
 31 32  2  0  0  0  0
 31 39  1  0  0  0  0
 33 36  1  0  0  0  0
 33 37  1  0  0  0  0
 33 38  1  0  0  0  0
 39 40  1  0  0  0  0
 39 45  1  0  0  0  0
 40 41  1  0  0  0  0
 40 43  1  0  0  0  0
 40 46  1  0  0  0  0
 41 42  2  0  0  0  0
 41 49  1  0  0  0  0
 43 44  1  0  0  0  0
 43 47  1  0  0  0  0
 43 48  1  0  0  0  0
 49 50  1  0  0  0  0
 49 54  1  0  0  0  0
 50 51  1  0  0  0  0
 50 53  1  0  0  0  0
 50 55  1  0  0  0  0
 51 52  2  0  0  0  0
 51 59  1  0  0  0  0
 53 56  1  0  0  0  0
 53 57  1  0  0  0  0
 53 58  1  0  0  0  0
 59 60  1  0  0  0  0
 59 61  1  0  0  0  0
 60 62  1  0  0  0  0
 60 63  1  0  0  0  0
 60 64  1  0  0  0  0
M  END
$$$$

  -OEChem-05262216053D

 64 63  0     1  0  0  0  0  0999 V2000
   -0.4927   -6.7959    1.4035 C   0  0  0  0  0  0  0  0  0  0  0  0
   -1.6076   -6.7951    0.9054 O   0  0  0  0  0  0  0  0  0  0  0  0
   -0.2818   -7.3299    2.8073 C   0  0  0  0  0  0  0  0  0  0  0  0
    0.1632   -6.5563    3.4381 H   0  0  0  0  0  0  0  0  0  0  0  0
   -1.2380   -7.6332    3.2428 H   0  0  0  0  0  0  0  0  0  0  0  0
    0.3838   -8.1958    2.7793 H   0  0  0  0  0  0  0  0  0  0  0  0
    0.5786   -6.3200    0.6804 N   0  0  0  0  0  0  0  0  0  0  0  0
    0.4988   -5.8244   -0.7009 C   0  0  2  0  0  0  0  0  0  0  0  0
    1.8450   -5.9630   -1.4452 C   0  0  0  0  0  0  0  0  0  0  0  0
    2.8342   -6.3931   -0.8613 O   0  0  0  0  0  0  0  0  0  0  0  0
    0.0248   -4.3628   -0.6852 C   0  0  0  0  0  0  0  0  0  0  0  0
    1.2197   -3.2779    0.1979 S   0  0  0  0  0  0  0  0  0  0  0  0
    1.5073   -6.3977    1.0932 H   0  0  0  0  0  0  0  0  0  0  0  0
   -0.2313   -6.4248   -1.2536 H   0  0  0  0  0  0  0  0  0  0  0  0
   -0.1049   -4.0020   -1.7092 H   0  0  0  0  0  0  0  0  0  0  0  0
   -0.9499   -4.3014   -0.1895 H   0  0  0  0  0  0  0  0  0  0  0  0
    1.9444   -5.6424   -2.7881 N   0  0  0  0  0  0  0  0  0  0  0  0
    3.1919   -5.7285   -3.5382 C   0  0  0  0  0  0  0  0  0  0  0  0
    1.1113   -5.2994   -3.2566 H   0  0  0  0  0  0  0  0  0  0  0  0
    3.9470   -5.0661   -3.1013 H   0  0  0  0  0  0  0  0  0  0  0  0
    3.5751   -6.7545   -3.5289 H   0  0  0  0  0  0  0  0  0  0  0  0
    3.0302   -5.4298   -4.5785 H   0  0  0  0  0  0  0  0  0  0  0  0
   -5.6142    1.1614   -1.4370 C   0  0  0  0  0  0  0  0  0  0  0  0
   -6.0385    0.2911   -2.1809 O   0  0  0  0  0  0  0  0  0  0  0  0
   -6.4917    1.7061   -0.3259 C   0  0  0  0  0  0  0  0  0  0  0  0
   -6.7177    2.7590   -0.5110 H   0  0  0  0  0  0  0  0  0  0  0  0
   -7.4295    1.1455   -0.2784 H   0  0  0  0  0  0  0  0  0  0  0  0
   -5.9784    1.6134    0.6342 H   0  0  0  0  0  0  0  0  0  0  0  0
   -4.3304    1.6385   -1.5965 N   0  0  0  0  0  0  0  0  0  0  0  0
   -3.3379    1.0465   -2.5033 C   0  0  2  0  0  0  0  0  0  0  0  0
   -1.9127    1.1341   -1.9207 C   0  0  0  0  0  0  0  0  0  0  0  0
   -1.6549    1.9590   -1.0502 O   0  0  0  0  0  0  0  0  0  0  0  0
   -3.4119    1.7738   -3.8489 C   0  0  0  0  0  0  0  0  0  0  0  0
   -3.9750    2.2751   -0.8837 H   0  0  0  0  0  0  0  0  0  0  0  0
   -3.5620   -0.0152   -2.6545 H   0  0  0  0  0  0  0  0  0  0  0  0
   -3.2004    2.8401   -3.7201 H   0  0  0  0  0  0  0  0  0  0  0  0
   -2.6839    1.3573   -4.5519 H   0  0  0  0  0  0  0  0  0  0  0  0
   -4.4112    1.6661   -4.2825 H   0  0  0  0  0  0  0  0  0  0  0  0
   -0.9259    0.2822   -2.3799 N   0  0  0  0  0  0  0  0  0  0  0  0
    0.5056    0.4673   -2.0819 C   0  0  2  0  0  0  0  0  0  0  0  0
    1.2808    1.0079   -3.3031 C   0  0  0  0  0  0  0  0  0  0  0  0
    0.7241    1.1107   -4.3918 O   0  0  0  0  0  0  0  0  0  0  0  0
    1.0737   -0.8901   -1.6426 C   0  0  0  0  0  0  0  0  0  0  0  0
    0.3016   -1.4247   -0.0631 S   0  0  0  0  0  0  0  0  0  0  0  0
   -1.1504   -0.2137   -3.2385 H   0  0  0  0  0  0  0  0  0  0  0  0
    0.6486    1.1821   -1.2645 H   0  0  0  0  0  0  0  0  0  0  0  0
    0.8905   -1.6403   -2.4178 H   0  0  0  0  0  0  0  0  0  0  0  0
    2.1561   -0.8206   -1.4947 H   0  0  0  0  0  0  0  0  0  0  0  0
    2.6398    1.2490   -3.2179 N   0  0  0  0  0  0  0  0  0  0  0  0
    3.5259    1.4596   -4.3719 C   0  0  2  0  0  0  0  0  0  0  0  0
    4.8207    0.6285   -4.2409 C   0  0  0  0  0  0  0  0  0  0  0  0
    5.0560    0.0218   -3.2014 O   0  0  0  0  0  0  0  0  0  0  0  0
    3.8381    2.9559   -4.4613 C   0  0  0  0  0  0  0  0  0  0  0  0
    3.0988    0.9815   -2.3471 H   0  0  0  0  0  0  0  0  0  0  0  0
    3.0326    1.1419   -5.2963 H   0  0  0  0  0  0  0  0  0  0  0  0
    4.3587    3.2933   -3.5594 H   0  0  0  0  0  0  0  0  0  0  0  0
    4.4704    3.1671   -5.3287 H   0  0  0  0  0  0  0  0  0  0  0  0
    2.9113    3.5295   -4.5636 H   0  0  0  0  0  0  0  0  0  0  0  0
    5.7148    0.5432   -5.2923 N   0  0  0  0  0  0  0  0  0  0  0  0
    6.9525   -0.2256   -5.2299 C   0  0  0  0  0  0  0  0  0  0  0  0
    5.4953    1.0538   -6.1428 H   0  0  0  0  0  0  0  0  0  0  0  0
    7.5862    0.1325   -4.4115 H   0  0  0  0  0  0  0  0  0  0  0  0
    6.7372   -1.2875   -5.0700 H   0  0  0  0  0  0  0  0  0  0  0  0
    7.5092   -0.1233   -6.1664 H   0  0  0  0  0  0  0  0  0  0  0  0
  1  2  2  0  0  0  0
  1  3  1  0  0  0  0
  1  7  1  0  0  0  0
  3  4  1  0  0  0  0
  3  5  1  0  0  0  0
  3  6  1  0  0  0  0
  7  8  1  0  0  0  0
  7 13  1  0  0  0  0
  8  9  1  0  0  0  0
  8 11  1  0  0  0  0
  8 14  1  0  0  0  0
  9 10  2  0  0  0  0
  9 17  1  0  0  0  0
 11 12  1  0  0  0  0
 11 15  1  0  0  0  0
 11 16  1  0  0  0  0
 12 44  1  0  0  0  0
 17 18  1  0  0  0  0
 17 19  1  0  0  0  0
 18 20  1  0  0  0  0
 18 21  1  0  0  0  0
 18 22  1  0  0  0  0
 23 24  2  0  0  0  0
 23 25  1  0  0  0  0
 23 29  1  0  0  0  0
 25 26  1  0  0  0  0
 25 27  1  0  0  0  0
 25 28  1  0  0  0  0
 29 30  1  0  0  0  0
 29 34  1  0  0  0  0
 30 31  1  0  0  0  0
 30 33  1  0  0  0  0
 30 35  1  0  0  0  0
 31 32  2  0  0  0  0
 31 39  1  0  0  0  0
 33 36  1  0  0  0  0
 33 37  1  0  0  0  0
 33 38  1  0  0  0  0
 39 40  1  0  0  0  0
 39 45  1  0  0  0  0
 40 41  1  0  0  0  0
 40 43  1  0  0  0  0
 40 46  1  0  0  0  0
 41 42  2  0  0  0  0
 41 49  1  0  0  0  0
 43 44  1  0  0  0  0
 43 47  1  0  0  0  0
 43 48  1  0  0  0  0
 49 50  1  0  0  0  0
 49 54  1  0  0  0  0
 50 51  1  0  0  0  0
 50 53  1  0  0  0  0
 50 55  1  0  0  0  0
 51 52  2  0  0  0  0
 51 59  1  0  0  0  0
 53 56  1  0  0  0  0
 53 57  1  0  0  0  0
 53 58  1  0  0  0  0
 59 60  1  0  0  0  0
 59 61  1  0  0  0  0
 60 62  1  0  0  0  0
 60 63  1  0  0  0  0
 60 64  1  0  0  0  0
M  END
$$$$

  -OEChem-05262216053D

 64 63  0     1  0  0  0  0  0999 V2000
   -0.5023   -6.8180    1.4146 C   0  0  0  0  0  0  0  0  0  0  0  0
   -1.6139   -6.8200    0.9091 O   0  0  0  0  0  0  0  0  0  0  0  0
   -0.2954   -7.3774    2.8094 C   0  0  0  0  0  0  0  0  0  0  0  0
    0.0708   -6.5922    3.4755 H   0  0  0  0  0  0  0  0  0  0  0  0
   -1.2395   -7.7631    3.2039 H   0  0  0  0  0  0  0  0  0  0  0  0
    0.4333   -8.1911    2.7814 H   0  0  0  0  0  0  0  0  0  0  0  0
    0.5688   -6.3184    0.7074 N   0  0  0  0  0  0  0  0  0  0  0  0
    0.4968   -5.8177   -0.6722 C   0  0  2  0  0  0  0  0  0  0  0  0
    1.8515   -5.9448   -1.4027 C   0  0  0  0  0  0  0  0  0  0  0  0
    2.8397   -6.3628   -0.8080 O   0  0  0  0  0  0  0  0  0  0  0  0
    0.0079   -4.3611   -0.6564 C   0  0  0  0  0  0  0  0  0  0  0  0
    1.1782   -3.2639    0.2431 S   0  0  0  0  0  0  0  0  0  0  0  0
    1.4958   -6.3972    1.1240 H   0  0  0  0  0  0  0  0  0  0  0  0
   -0.2219   -6.4228   -1.2348 H   0  0  0  0  0  0  0  0  0  0  0  0
   -0.1144   -3.9984   -1.6803 H   0  0  0  0  0  0  0  0  0  0  0  0
   -0.9725   -4.3121   -0.1713 H   0  0  0  0  0  0  0  0  0  0  0  0
    1.9562   -5.6355   -2.7477 N   0  0  0  0  0  0  0  0  0  0  0  0
    3.2085   -5.7155   -3.4906 C   0  0  0  0  0  0  0  0  0  0  0  0
    1.1220   -5.3075   -3.2248 H   0  0  0  0  0  0  0  0  0  0  0  0
    3.9592   -5.0505   -3.0501 H   0  0  0  0  0  0  0  0  0  0  0  0
    3.5959   -6.7399   -3.4807 H   0  0  0  0  0  0  0  0  0  0  0  0
    3.0511   -5.4163   -4.5313 H   0  0  0  0  0  0  0  0  0  0  0  0
   -5.5478    1.0760   -1.4188 C   0  0  0  0  0  0  0  0  0  0  0  0
   -5.9228    0.1147   -2.0714 O   0  0  0  0  0  0  0  0  0  0  0  0
   -6.4092    1.6080   -0.2892 C   0  0  0  0  0  0  0  0  0  0  0  0
   -6.6941    2.6426   -0.4935 H   0  0  0  0  0  0  0  0  0  0  0  0
   -7.3162    1.0051   -0.1906 H   0  0  0  0  0  0  0  0  0  0  0  0
   -5.8563    1.5680    0.6524 H   0  0  0  0  0  0  0  0  0  0  0  0
   -4.3367    1.6743   -1.6965 N   0  0  0  0  0  0  0  0  0  0  0  0
   -3.3222    1.0999   -2.5909 C   0  0  2  0  0  0  0  0  0  0  0  0
   -1.9195    1.1348   -1.9511 C   0  0  0  0  0  0  0  0  0  0  0  0
   -1.6727    1.9418   -1.0607 O   0  0  0  0  0  0  0  0  0  0  0  0
   -3.3314    1.8936   -3.9002 C   0  0  0  0  0  0  0  0  0  0  0  0
   -4.0054    2.3686   -1.0278 H   0  0  0  0  0  0  0  0  0  0  0  0
   -3.5545    0.0514   -2.8053 H   0  0  0  0  0  0  0  0  0  0  0  0
   -3.0857    2.9441   -3.7135 H   0  0  0  0  0  0  0  0  0  0  0  0
   -2.5974    1.4856   -4.6022 H   0  0  0  0  0  0  0  0  0  0  0  0
   -4.3207    1.8440   -4.3660 H   0  0  0  0  0  0  0  0  0  0  0  0
   -0.9342    0.2762   -2.4022 N   0  0  0  0  0  0  0  0  0  0  0  0
    0.4949    0.4580   -2.0879 C   0  0  2  0  0  0  0  0  0  0  0  0
    1.2811    0.9977   -3.3055 C   0  0  0  0  0  0  0  0  0  0  0  0
    0.6849    1.3521   -4.3173 O   0  0  0  0  0  0  0  0  0  0  0  0
    1.0476   -0.9010   -1.6268 C   0  0  0  0  0  0  0  0  0  0  0  0
    0.2531   -1.4185   -0.0528 S   0  0  0  0  0  0  0  0  0  0  0  0
   -1.1525   -0.2072   -3.2691 H   0  0  0  0  0  0  0  0  0  0  0  0
    0.6327    1.1771   -1.2731 H   0  0  0  0  0  0  0  0  0  0  0  0
    0.8718   -1.6571   -2.3980 H   0  0  0  0  0  0  0  0  0  0  0  0
    2.1271   -0.8407   -1.4591 H   0  0  0  0  0  0  0  0  0  0  0  0
    2.6634    0.9522   -3.3312 N   0  0  0  0  0  0  0  0  0  0  0  0
    3.4852    1.1381   -4.5353 C   0  0  2  0  0  0  0  0  0  0  0  0
    4.5466    0.0245   -4.6663 C   0  0  0  0  0  0  0  0  0  0  0  0
    4.6787   -0.8059   -3.7731 O   0  0  0  0  0  0  0  0  0  0  0  0
    4.1390    2.5197   -4.4426 C   0  0  0  0  0  0  0  0  0  0  0  0
    3.1180    0.4749   -2.5537 H   0  0  0  0  0  0  0  0  0  0  0  0
    2.8649    1.0965   -5.4368 H   0  0  0  0  0  0  0  0  0  0  0  0
    4.7871    2.5791   -3.5622 H   0  0  0  0  0  0  0  0  0  0  0  0
    4.7406    2.7241   -5.3332 H   0  0  0  0  0  0  0  0  0  0  0  0
    3.3706    3.2954   -4.3619 H   0  0  0  0  0  0  0  0  0  0  0  0
    5.3437   -0.0600   -5.7929 N   0  0  0  0  0  0  0  0  0  0  0  0
    6.3676   -1.0822   -5.9740 C   0  0  0  0  0  0  0  0  0  0  0  0
    5.2082    0.6356   -6.5210 H   0  0  0  0  0  0  0  0  0  0  0  0
    7.0811   -1.0636   -5.1432 H   0  0  0  0  0  0  0  0  0  0  0  0
    5.9110   -2.0762   -6.0242 H   0  0  0  0  0  0  0  0  0  0  0  0
    6.9177   -0.9058   -6.9035 H   0  0  0  0  0  0  0  0  0  0  0  0
  1  2  2  0  0  0  0
  1  3  1  0  0  0  0
  1  7  1  0  0  0  0
  3  4  1  0  0  0  0
  3  5  1  0  0  0  0
  3  6  1  0  0  0  0
  7  8  1  0  0  0  0
  7 13  1  0  0  0  0
  8  9  1  0  0  0  0
  8 11  1  0  0  0  0
  8 14  1  0  0  0  0
  9 10  2  0  0  0  0
  9 17  1  0  0  0  0
 11 12  1  0  0  0  0
 11 15  1  0  0  0  0
 11 16  1  0  0  0  0
 12 44  1  0  0  0  0
 17 18  1  0  0  0  0
 17 19  1  0  0  0  0
 18 20  1  0  0  0  0
 18 21  1  0  0  0  0
 18 22  1  0  0  0  0
 23 24  2  0  0  0  0
 23 25  1  0  0  0  0
 23 29  1  0  0  0  0
 25 26  1  0  0  0  0
 25 27  1  0  0  0  0
 25 28  1  0  0  0  0
 29 30  1  0  0  0  0
 29 34  1  0  0  0  0
 30 31  1  0  0  0  0
 30 33  1  0  0  0  0
 30 35  1  0  0  0  0
 31 32  2  0  0  0  0
 31 39  1  0  0  0  0
 33 36  1  0  0  0  0
 33 37  1  0  0  0  0
 33 38  1  0  0  0  0
 39 40  1  0  0  0  0
 39 45  1  0  0  0  0
 40 41  1  0  0  0  0
 40 43  1  0  0  0  0
 40 46  1  0  0  0  0
 41 42  2  0  0  0  0
 41 49  1  0  0  0  0
 43 44  1  0  0  0  0
 43 47  1  0  0  0  0
 43 48  1  0  0  0  0
 49 50  1  0  0  0  0
 49 54  1  0  0  0  0
 50 51  1  0  0  0  0
 50 53  1  0  0  0  0
 50 55  1  0  0  0  0
 51 52  2  0  0  0  0
 51 59  1  0  0  0  0
 53 56  1  0  0  0  0
 53 57  1  0  0  0  0
 53 58  1  0  0  0  0
 59 60  1  0  0  0  0
 59 61  1  0  0  0  0
 60 62  1  0  0  0  0
 60 63  1  0  0  0  0
 60 64  1  0  0  0  0
M  END
$$$$

  -OEChem-05262216053D

 64 63  0     1  0  0  0  0  0999 V2000
    0.4614   -7.4137    0.2245 C   0  0  0  0  0  0  0  0  0  0  0  0
   -0.2862   -7.5594   -0.7301 O   0  0  0  0  0  0  0  0  0  0  0  0
    0.4005   -8.3735    1.3966 C   0  0  0  0  0  0  0  0  0  0  0  0
    0.1590   -7.8283    2.3121 H   0  0  0  0  0  0  0  0  0  0  0  0
   -0.3681   -9.1317    1.2236 H   0  0  0  0  0  0  0  0  0  0  0  0
    1.3653   -8.8713    1.5197 H   0  0  0  0  0  0  0  0  0  0  0  0
    1.3804   -6.3878    0.2274 N   0  0  0  0  0  0  0  0  0  0  0  0
    1.6334   -5.4993   -0.9159 C   0  0  2  0  0  0  0  0  0  0  0  0
    3.0925   -4.9838   -0.9282 C   0  0  0  0  0  0  0  0  0  0  0  0
    3.8831   -5.3873   -0.0798 O   0  0  0  0  0  0  0  0  0  0  0  0
    0.6174   -4.3502   -0.8847 C   0  0  0  0  0  0  0  0  0  0  0  0
    0.9423   -3.1990    0.5163 S   0  0  0  0  0  0  0  0  0  0  0  0
    2.0643   -6.3689    0.9829 H   0  0  0  0  0  0  0  0  0  0  0  0
    1.4935   -6.0622   -1.8447 H   0  0  0  0  0  0  0  0  0  0  0  0
    0.6740   -3.8079   -1.8309 H   0  0  0  0  0  0  0  0  0  0  0  0
   -0.3978   -4.7510   -0.7978 H   0  0  0  0  0  0  0  0  0  0  0  0
    3.5566   -4.1129   -1.9003 N   0  0  0  0  0  0  0  0  0  0  0  0
    4.9282   -3.6218   -1.9356 C   0  0  0  0  0  0  0  0  0  0  0  0
    2.8885   -3.7217   -2.5684 H   0  0  0  0  0  0  0  0  0  0  0  0
    5.1326   -2.9937   -1.0625 H   0  0  0  0  0  0  0  0  0  0  0  0
    5.6362   -4.4573   -1.9426 H   0  0  0  0  0  0  0  0  0  0  0  0
    5.0921   -3.0273   -2.8390 H   0  0  0  0  0  0  0  0  0  0  0  0
   -5.7400    2.0284   -2.0725 C   0  0  0  0  0  0  0  0  0  0  0  0
   -6.1965    1.1924   -2.8364 O   0  0  0  0  0  0  0  0  0  0  0  0
   -6.6688    2.8348   -1.1849 C   0  0  0  0  0  0  0  0  0  0  0  0
   -6.5745    3.8981   -1.4173 H   0  0  0  0  0  0  0  0  0  0  0  0
   -7.7058    2.5288   -1.3482 H   0  0  0  0  0  0  0  0  0  0  0  0
   -6.4154    2.6741   -0.1341 H   0  0  0  0  0  0  0  0  0  0  0  0
   -4.3790    2.2400   -2.0130 N   0  0  0  0  0  0  0  0  0  0  0  0
   -3.3827    1.4259   -2.7208 C   0  0  2  0  0  0  0  0  0  0  0  0
   -2.0536    1.3437   -1.9420 C   0  0  0  0  0  0  0  0  0  0  0  0
   -1.8252    2.1301   -1.0282 O   0  0  0  0  0  0  0  0  0  0  0  0
   -3.1505    2.0397   -4.1050 C   0  0  0  0  0  0  0  0  0  0  0  0
   -4.0290    2.8622   -1.2849 H   0  0  0  0  0  0  0  0  0  0  0  0
   -3.7574    0.4030   -2.8360 H   0  0  0  0  0  0  0  0  0  0  0  0
   -2.7713    3.0624   -4.0106 H   0  0  0  0  0  0  0  0  0  0  0  0
   -2.4229    1.4511   -4.6721 H   0  0  0  0  0  0  0  0  0  0  0  0
   -4.0877    2.0657   -4.6696 H   0  0  0  0  0  0  0  0  0  0  0  0
   -1.1085    0.3968   -2.2888 N   0  0  0  0  0  0  0  0  0  0  0  0
    0.2862    0.4458   -1.8170 C   0  0  2  0  0  0  0  0  0  0  0  0
    1.2375    0.9115   -2.9510 C   0  0  0  0  0  0  0  0  0  0  0  0
    0.7708    1.3891   -3.9805 O   0  0  0  0  0  0  0  0  0  0  0  0
    0.6592   -0.9830   -1.3966 C   0  0  0  0  0  0  0  0  0  0  0  0
   -0.3069   -1.5958    0.0356 S   0  0  0  0  0  0  0  0  0  0  0  0
   -1.2817   -0.0878   -3.1649 H   0  0  0  0  0  0  0  0  0  0  0  0
    0.4077    1.1191   -0.9620 H   0  0  0  0  0  0  0  0  0  0  0  0
    0.5137   -1.6545   -2.2470 H   0  0  0  0  0  0  0  0  0  0  0  0
    1.7130   -1.0258   -1.1086 H   0  0  0  0  0  0  0  0  0  0  0  0
    2.5534    0.4744   -2.9867 N   0  0  0  0  0  0  0  0  0  0  0  0
    3.2108    0.1186   -4.2518 C   0  0  2  0  0  0  0  0  0  0  0  0
    2.8032   -1.2988   -4.7168 C   0  0  0  0  0  0  0  0  0  0  0  0
    2.5352   -2.1709   -3.8916 O   0  0  0  0  0  0  0  0  0  0  0  0
    4.7233    0.2018   -4.0356 C   0  0  0  0  0  0  0  0  0  0  0  0
    2.8419   -0.0668   -2.1765 H   0  0  0  0  0  0  0  0  0  0  0  0
    2.9377    0.8327   -5.0363 H   0  0  0  0  0  0  0  0  0  0  0  0
    5.0420   -0.4967   -3.2555 H   0  0  0  0  0  0  0  0  0  0  0  0
    5.2555   -0.0439   -4.9597 H   0  0  0  0  0  0  0  0  0  0  0  0
    5.0064    1.2151   -3.7335 H   0  0  0  0  0  0  0  0  0  0  0  0
    2.7372   -1.6009   -6.0634 N   0  0  0  0  0  0  0  0  0  0  0  0
    2.2774   -2.8872   -6.5740 C   0  0  0  0  0  0  0  0  0  0  0  0
    2.8742   -0.8370   -6.7203 H   0  0  0  0  0  0  0  0  0  0  0  0
    2.9125   -3.6981   -6.2019 H   0  0  0  0  0  0  0  0  0  0  0  0
    1.2441   -3.0760   -6.2639 H   0  0  0  0  0  0  0  0  0  0  0  0
    2.3162   -2.8949   -7.6675 H   0  0  0  0  0  0  0  0  0  0  0  0
  1  2  2  0  0  0  0
  1  3  1  0  0  0  0
  1  7  1  0  0  0  0
  3  4  1  0  0  0  0
  3  5  1  0  0  0  0
  3  6  1  0  0  0  0
  7  8  1  0  0  0  0
  7 13  1  0  0  0  0
  8  9  1  0  0  0  0
  8 11  1  0  0  0  0
  8 14  1  0  0  0  0
  9 10  2  0  0  0  0
  9 17  1  0  0  0  0
 11 12  1  0  0  0  0
 11 15  1  0  0  0  0
 11 16  1  0  0  0  0
 12 44  1  0  0  0  0
 17 18  1  0  0  0  0
 17 19  1  0  0  0  0
 18 20  1  0  0  0  0
 18 21  1  0  0  0  0
 18 22  1  0  0  0  0
 23 24  2  0  0  0  0
 23 25  1  0  0  0  0
 23 29  1  0  0  0  0
 25 26  1  0  0  0  0
 25 27  1  0  0  0  0
 25 28  1  0  0  0  0
 29 30  1  0  0  0  0
 29 34  1  0  0  0  0
 30 31  1  0  0  0  0
 30 33  1  0  0  0  0
 30 35  1  0  0  0  0
 31 32  2  0  0  0  0
 31 39  1  0  0  0  0
 33 36  1  0  0  0  0
 33 37  1  0  0  0  0
 33 38  1  0  0  0  0
 39 40  1  0  0  0  0
 39 45  1  0  0  0  0
 40 41  1  0  0  0  0
 40 43  1  0  0  0  0
 40 46  1  0  0  0  0
 41 42  2  0  0  0  0
 41 49  1  0  0  0  0
 43 44  1  0  0  0  0
 43 47  1  0  0  0  0
 43 48  1  0  0  0  0
 49 50  1  0  0  0  0
 49 54  1  0  0  0  0
 50 51  1  0  0  0  0
 50 53  1  0  0  0  0
 50 55  1  0  0  0  0
 51 52  2  0  0  0  0
 51 59  1  0  0  0  0
 53 56  1  0  0  0  0
 53 57  1  0  0  0  0
 53 58  1  0  0  0  0
 59 60  1  0  0  0  0
 59 61  1  0  0  0  0
 60 62  1  0  0  0  0
 60 63  1  0  0  0  0
 60 64  1  0  0  0  0
M  END
$$$$

  -OEChem-05262216053D

 64 63  0     1  0  0  0  0  0999 V2000
    0.3082   -7.3761    0.5114 C   0  0  0  0  0  0  0  0  0  0  0  0
   -0.6506   -7.4702   -0.2388 O   0  0  0  0  0  0  0  0  0  0  0  0
    0.4569   -8.3254    1.6846 C   0  0  0  0  0  0  0  0  0  0  0  0
    0.5589   -7.7575    2.6125 H   0  0  0  0  0  0  0  0  0  0  0  0
   -0.4229   -8.9703    1.7610 H   0  0  0  0  0  0  0  0  0  0  0  0
    1.3425   -8.9508    1.5481 H   0  0  0  0  0  0  0  0  0  0  0  0
    1.2670   -6.4147    0.2809 N   0  0  0  0  0  0  0  0  0  0  0  0
    1.2921   -5.5303   -0.8927 C   0  0  2  0  0  0  0  0  0  0  0  0
    2.7367   -5.1097   -1.2535 C   0  0  0  0  0  0  0  0  0  0  0  0
    3.6747   -5.5219   -0.5766 O   0  0  0  0  0  0  0  0  0  0  0  0
    0.3894   -4.3178   -0.6241 C   0  0  0  0  0  0  0  0  0  0  0  0
    1.0855   -3.2317    0.6914 S   0  0  0  0  0  0  0  0  0  0  0  0
    2.1107   -6.4413    0.8525 H   0  0  0  0  0  0  0  0  0  0  0  0
    0.8977   -6.0729   -1.7583 H   0  0  0  0  0  0  0  0  0  0  0  0
    0.2730   -3.7507   -1.5502 H   0  0  0  0  0  0  0  0  0  0  0  0
   -0.6077   -4.6559   -0.3235 H   0  0  0  0  0  0  0  0  0  0  0  0
    3.0191   -4.3282   -2.3619 N   0  0  0  0  0  0  0  0  0  0  0  0
    4.3766   -3.9701   -2.7539 C   0  0  0  0  0  0  0  0  0  0  0  0
    2.2443   -3.9348   -2.8974 H   0  0  0  0  0  0  0  0  0  0  0  0
    4.8144   -3.2809   -2.0247 H   0  0  0  0  0  0  0  0  0  0  0  0
    5.0080   -4.8626   -2.8202 H   0  0  0  0  0  0  0  0  0  0  0  0
    4.3706   -3.4854   -3.7345 H   0  0  0  0  0  0  0  0  0  0  0  0
   -5.6013    1.8375   -2.3232 C   0  0  0  0  0  0  0  0  0  0  0  0
   -6.0271    0.9392   -3.0321 O   0  0  0  0  0  0  0  0  0  0  0  0
   -6.5658    2.7674   -1.6123 C   0  0  0  0  0  0  0  0  0  0  0  0
   -6.3726    3.8014   -1.9079 H   0  0  0  0  0  0  0  0  0  0  0  0
   -7.5965    2.5124   -1.8736 H   0  0  0  0  0  0  0  0  0  0  0  0
   -6.4435    2.6758   -0.5305 H   0  0  0  0  0  0  0  0  0  0  0  0
   -4.2427    2.0074   -2.1655 N   0  0  0  0  0  0  0  0  0  0  0  0
   -3.2224    1.0982   -2.7021 C   0  0  2  0  0  0  0  0  0  0  0  0
   -1.9284    1.1338   -1.8619 C   0  0  0  0  0  0  0  0  0  0  0  0
   -1.7888    1.9767   -0.9812 O   0  0  0  0  0  0  0  0  0  0  0  0
   -2.9264    1.4992   -4.1528 C   0  0  0  0  0  0  0  0  0  0  0  0
   -3.9282    2.6942   -1.4806 H   0  0  0  0  0  0  0  0  0  0  0  0
   -3.5988    0.0698   -2.6791 H   0  0  0  0  0  0  0  0  0  0  0  0
   -2.5310    2.5196   -4.1944 H   0  0  0  0  0  0  0  0  0  0  0  0
   -2.1896    0.8241   -4.5988 H   0  0  0  0  0  0  0  0  0  0  0  0
   -3.8400    1.4545   -4.7544 H   0  0  0  0  0  0  0  0  0  0  0  0
   -0.9070    0.2426   -2.1334 N   0  0  0  0  0  0  0  0  0  0  0  0
    0.4709    0.4402   -1.6516 C   0  0  2  0  0  0  0  0  0  0  0  0
    1.3693    0.9020   -2.8298 C   0  0  0  0  0  0  0  0  0  0  0  0
    0.8767    1.5281   -3.7626 O   0  0  0  0  0  0  0  0  0  0  0  0
    0.9593   -0.9091   -1.1033 C   0  0  0  0  0  0  0  0  0  0  0  0
    0.0178   -1.4663    0.3675 S   0  0  0  0  0  0  0  0  0  0  0  0
   -1.0259   -0.3052   -2.9807 H   0  0  0  0  0  0  0  0  0  0  0  0
    0.5286    1.1926   -0.8577 H   0  0  0  0  0  0  0  0  0  0  0  0
    0.8911   -1.6643   -1.8898 H   0  0  0  0  0  0  0  0  0  0  0  0
    2.0066   -0.8297   -0.7984 H   0  0  0  0  0  0  0  0  0  0  0  0
    2.6228    0.3432   -3.0297 N   0  0  0  0  0  0  0  0  0  0  0  0
    3.1099    0.0464   -4.3836 C   0  0  2  0  0  0  0  0  0  0  0  0
    2.4333   -1.2186   -4.9640 C   0  0  0  0  0  0  0  0  0  0  0  0
    2.0200   -2.1027   -4.2151 O   0  0  0  0  0  0  0  0  0  0  0  0
    4.6251   -0.1426   -4.3002 C   0  0  0  0  0  0  0  0  0  0  0  0
    2.9131   -0.3100   -2.3083 H   0  0  0  0  0  0  0  0  0  0  0  0
    2.9043    0.8890   -5.0531 H   0  0  0  0  0  0  0  0  0  0  0  0
    4.8731   -0.9788   -3.6392 H   0  0  0  0  0  0  0  0  0  0  0  0
    5.0402   -0.3477   -5.2918 H   0  0  0  0  0  0  0  0  0  0  0  0
    5.0981    0.7634   -3.9083 H   0  0  0  0  0  0  0  0  0  0  0  0
    2.2951   -1.3738   -6.3302 N   0  0  0  0  0  0  0  0  0  0  0  0
    1.5938   -2.4971   -6.9412 C   0  0  0  0  0  0  0  0  0  0  0  0
    2.5575   -0.5866   -6.9175 H   0  0  0  0  0  0  0  0  0  0  0  0
    2.0619   -3.4449   -6.6552 H   0  0  0  0  0  0  0  0  0  0  0  0
    0.5453   -2.5119   -6.6258 H   0  0  0  0  0  0  0  0  0  0  0  0
    1.6251   -2.4137   -8.0320 H   0  0  0  0  0  0  0  0  0  0  0  0
  1  2  2  0  0  0  0
  1  3  1  0  0  0  0
  1  7  1  0  0  0  0
  3  4  1  0  0  0  0
  3  5  1  0  0  0  0
  3  6  1  0  0  0  0
  7  8  1  0  0  0  0
  7 13  1  0  0  0  0
  8  9  1  0  0  0  0
  8 11  1  0  0  0  0
  8 14  1  0  0  0  0
  9 10  2  0  0  0  0
  9 17  1  0  0  0  0
 11 12  1  0  0  0  0
 11 15  1  0  0  0  0
 11 16  1  0  0  0  0
 12 44  1  0  0  0  0
 17 18  1  0  0  0  0
 17 19  1  0  0  0  0
 18 20  1  0  0  0  0
 18 21  1  0  0  0  0
 18 22  1  0  0  0  0
 23 24  2  0  0  0  0
 23 25  1  0  0  0  0
 23 29  1  0  0  0  0
 25 26  1  0  0  0  0
 25 27  1  0  0  0  0
 25 28  1  0  0  0  0
 29 30  1  0  0  0  0
 29 34  1  0  0  0  0
 30 31  1  0  0  0  0
 30 33  1  0  0  0  0
 30 35  1  0  0  0  0
 31 32  2  0  0  0  0
 31 39  1  0  0  0  0
 33 36  1  0  0  0  0
 33 37  1  0  0  0  0
 33 38  1  0  0  0  0
 39 40  1  0  0  0  0
 39 45  1  0  0  0  0
 40 41  1  0  0  0  0
 40 43  1  0  0  0  0
 40 46  1  0  0  0  0
 41 42  2  0  0  0  0
 41 49  1  0  0  0  0
 43 44  1  0  0  0  0
 43 47  1  0  0  0  0
 43 48  1  0  0  0  0
 49 50  1  0  0  0  0
 49 54  1  0  0  0  0
 50 51  1  0  0  0  0
 50 53  1  0  0  0  0
 50 55  1  0  0  0  0
 51 52  2  0  0  0  0
 51 59  1  0  0  0  0
 53 56  1  0  0  0  0
 53 57  1  0  0  0  0
 53 58  1  0  0  0  0
 59 60  1  0  0  0  0
 59 61  1  0  0  0  0
 60 62  1  0  0  0  0
 60 63  1  0  0  0  0
 60 64  1  0  0  0  0
M  END
$$$$

  -OEChem-05262216053D

 64 63  0     1  0  0  0  0  0999 V2000
   -0.3269   -6.9026    0.3690 C   0  0  0  0  0  0  0  0  0  0  0  0
   -1.3603   -6.7520   -0.2635 O   0  0  0  0  0  0  0  0  0  0  0  0
   -0.2461   -7.9499    1.4633 C   0  0  0  0  0  0  0  0  0  0  0  0
   -0.0517   -7.4681    2.4245 H   0  0  0  0  0  0  0  0  0  0  0  0
   -1.1888   -8.5001    1.5290 H   0  0  0  0  0  0  0  0  0  0  0  0
    0.5597   -8.6556    1.2475 H   0  0  0  0  0  0  0  0  0  0  0  0
    0.7707   -6.1209    0.0836 N   0  0  0  0  0  0  0  0  0  0  0  0
    0.8375   -5.1521   -1.0198 C   0  0  2  0  0  0  0  0  0  0  0  0
    2.2786   -5.0041   -1.5622 C   0  0  0  0  0  0  0  0  0  0  0  0
    3.1902   -5.6450   -1.0464 O   0  0  0  0  0  0  0  0  0  0  0  0
    0.2644   -3.8127   -0.5366 C   0  0  0  0  0  0  0  0  0  0  0  0
    1.3569   -3.0146    0.7149 S   0  0  0  0  0  0  0  0  0  0  0  0
    1.6488   -6.3490    0.5481 H   0  0  0  0  0  0  0  0  0  0  0  0
    0.2253   -5.5132   -1.8529 H   0  0  0  0  0  0  0  0  0  0  0  0
    0.1392   -3.1494   -1.3958 H   0  0  0  0  0  0  0  0  0  0  0  0
   -0.7281   -3.9683   -0.1012 H   0  0  0  0  0  0  0  0  0  0  0  0
    2.5698   -4.2163   -2.6640 N   0  0  0  0  0  0  0  0  0  0  0  0
    3.9042   -4.1264   -3.2437 C   0  0  0  0  0  0  0  0  0  0  0  0
    1.8255   -3.6472   -3.0721 H   0  0  0  0  0  0  0  0  0  0  0  0
    4.5821   -3.6009   -2.5634 H   0  0  0  0  0  0  0  0  0  0  0  0
    4.3072   -5.1257   -3.4411 H   0  0  0  0  0  0  0  0  0  0  0  0
    3.8674   -3.5822   -4.1918 H   0  0  0  0  0  0  0  0  0  0  0  0
   -5.3808    1.0010   -2.2572 C   0  0  0  0  0  0  0  0  0  0  0  0
   -5.6623    0.0198   -2.9272 O   0  0  0  0  0  0  0  0  0  0  0  0
   -6.4726    1.7746   -1.5429 C   0  0  0  0  0  0  0  0  0  0  0  0
   -6.4679    2.8159   -1.8735 H   0  0  0  0  0  0  0  0  0  0  0  0
   -7.4506    1.3383   -1.7647 H   0  0  0  0  0  0  0  0  0  0  0  0
   -6.3078    1.7413   -0.4631 H   0  0  0  0  0  0  0  0  0  0  0  0
   -4.0686    1.4068   -2.1442 N   0  0  0  0  0  0  0  0  0  0  0  0
   -2.9192    0.6594   -2.6693 C   0  0  2  0  0  0  0  0  0  0  0  0
   -1.6407    0.9331   -1.8500 C   0  0  0  0  0  0  0  0  0  0  0  0
   -1.6178    1.8504   -1.0355 O   0  0  0  0  0  0  0  0  0  0  0  0
   -2.7014    1.0588   -4.1334 C   0  0  0  0  0  0  0  0  0  0  0  0
   -3.8619    2.1626   -1.4915 H   0  0  0  0  0  0  0  0  0  0  0  0
   -3.1242   -0.4149   -2.6108 H   0  0  0  0  0  0  0  0  0  0  0  0
   -2.4749    2.1275   -4.2075 H   0  0  0  0  0  0  0  0  0  0  0  0
   -1.8682    0.4977   -4.5673 H   0  0  0  0  0  0  0  0  0  0  0  0
   -3.5997    0.8505   -4.7230 H   0  0  0  0  0  0  0  0  0  0  0  0
   -0.5087    0.1674   -2.0596 N   0  0  0  0  0  0  0  0  0  0  0  0
    0.8348    0.6021   -1.6396 C   0  0  2  0  0  0  0  0  0  0  0  0
    1.6143    1.0494   -2.9010 C   0  0  0  0  0  0  0  0  0  0  0  0
    1.0506    1.7212   -3.7580 O   0  0  0  0  0  0  0  0  0  0  0  0
    1.5165   -0.5842   -0.9427 C   0  0  0  0  0  0  0  0  0  0  0  0
    0.6557   -1.0520    0.6079 S   0  0  0  0  0  0  0  0  0  0  0  0
   -0.5573   -0.4750   -2.8471 H   0  0  0  0  0  0  0  0  0  0  0  0
    0.7963    1.4483   -0.9448 H   0  0  0  0  0  0  0  0  0  0  0  0
    1.5439   -1.4403   -1.6204 H   0  0  0  0  0  0  0  0  0  0  0  0
    2.5477   -0.3256   -0.6846 H   0  0  0  0  0  0  0  0  0  0  0  0
    2.7942    0.4148   -3.2587 N   0  0  0  0  0  0  0  0  0  0  0  0
    2.9992    0.0147   -4.6583 C   0  0  2  0  0  0  0  0  0  0  0  0
    2.0684   -1.1566   -5.0635 C   0  0  0  0  0  0  0  0  0  0  0  0
    1.5460   -1.8709   -4.2074 O   0  0  0  0  0  0  0  0  0  0  0  0
    4.4676   -0.3833   -4.8168 C   0  0  0  0  0  0  0  0  0  0  0  0
    3.1317   -0.2479   -2.5670 H   0  0  0  0  0  0  0  0  0  0  0  0
    2.7975    0.8614   -5.3241 H   0  0  0  0  0  0  0  0  0  0  0  0
    4.7134   -1.2218   -4.1577 H   0  0  0  0  0  0  0  0  0  0  0  0
    4.6746   -0.6794   -5.8500 H   0  0  0  0  0  0  0  0  0  0  0  0
    5.1176    0.4604   -4.5633 H   0  0  0  0  0  0  0  0  0  0  0  0
    1.8247   -1.4278   -6.3960 N   0  0  0  0  0  0  0  0  0  0  0  0
    0.9222   -2.4803   -6.8483 C   0  0  0  0  0  0  0  0  0  0  0  0
    2.2015   -0.7802   -7.0833 H   0  0  0  0  0  0  0  0  0  0  0  0
    1.2540   -3.4562   -6.4781 H   0  0  0  0  0  0  0  0  0  0  0  0
   -0.0955   -2.2935   -6.4893 H   0  0  0  0  0  0  0  0  0  0  0  0
    0.9017   -2.5163   -7.9421 H   0  0  0  0  0  0  0  0  0  0  0  0
  1  2  2  0  0  0  0
  1  3  1  0  0  0  0
  1  7  1  0  0  0  0
  3  4  1  0  0  0  0
  3  5  1  0  0  0  0
  3  6  1  0  0  0  0
  7  8  1  0  0  0  0
  7 13  1  0  0  0  0
  8  9  1  0  0  0  0
  8 11  1  0  0  0  0
  8 14  1  0  0  0  0
  9 10  2  0  0  0  0
  9 17  1  0  0  0  0
 11 12  1  0  0  0  0
 11 15  1  0  0  0  0
 11 16  1  0  0  0  0
 12 44  1  0  0  0  0
 17 18  1  0  0  0  0
 17 19  1  0  0  0  0
 18 20  1  0  0  0  0
 18 21  1  0  0  0  0
 18 22  1  0  0  0  0
 23 24  2  0  0  0  0
 23 25  1  0  0  0  0
 23 29  1  0  0  0  0
 25 26  1  0  0  0  0
 25 27  1  0  0  0  0
 25 28  1  0  0  0  0
 29 30  1  0  0  0  0
 29 34  1  0  0  0  0
 30 31  1  0  0  0  0
 30 33  1  0  0  0  0
 30 35  1  0  0  0  0
 31 32  2  0  0  0  0
 31 39  1  0  0  0  0
 33 36  1  0  0  0  0
 33 37  1  0  0  0  0
 33 38  1  0  0  0  0
 39 40  1  0  0  0  0
 39 45  1  0  0  0  0
 40 41  1  0  0  0  0
 40 43  1  0  0  0  0
 40 46  1  0  0  0  0
 41 42  2  0  0  0  0
 41 49  1  0  0  0  0
 43 44  1  0  0  0  0
 43 47  1  0  0  0  0
 43 48  1  0  0  0  0
 49 50  1  0  0  0  0
 49 54  1  0  0  0  0
 50 51  1  0  0  0  0
 50 53  1  0  0  0  0
 50 55  1  0  0  0  0
 51 52  2  0  0  0  0
 51 59  1  0  0  0  0
 53 56  1  0  0  0  0
 53 57  1  0  0  0  0
 53 58  1  0  0  0  0
 59 60  1  0  0  0  0
 59 61  1  0  0  0  0
 60 62  1  0  0  0  0
 60 63  1  0  0  0  0
 60 64  1  0  0  0  0
M  END
$$$$

  -OEChem-05262216053D

 64 63  0     1  0  0  0  0  0999 V2000
   -0.9678   -6.1984    0.3606 C   0  0  0  0  0  0  0  0  0  0  0  0
   -2.0180   -5.7182   -0.0356 O   0  0  0  0  0  0  0  0  0  0  0  0
   -0.9741   -7.2702    1.4340 C   0  0  0  0  0  0  0  0  0  0  0  0
   -0.3998   -6.9326    2.3003 H   0  0  0  0  0  0  0  0  0  0  0  0
   -1.9996   -7.4800    1.7509 H   0  0  0  0  0  0  0  0  0  0  0  0
   -0.5292   -8.1897    1.0459 H   0  0  0  0  0  0  0  0  0  0  0  0
    0.2264   -5.7698   -0.1751 N   0  0  0  0  0  0  0  0  0  0  0  0
    0.3508   -4.7833   -1.2572 C   0  0  2  0  0  0  0  0  0  0  0  0
    1.6717   -4.9568   -2.0421 C   0  0  0  0  0  0  0  0  0  0  0  0
    2.4539   -5.8503   -1.7314 O   0  0  0  0  0  0  0  0  0  0  0  0
    0.2270   -3.3720   -0.6673 C   0  0  0  0  0  0  0  0  0  0  0  0
    1.6023   -2.9902    0.4958 S   0  0  0  0  0  0  0  0  0  0  0  0
    1.0773   -6.2524    0.1102 H   0  0  0  0  0  0  0  0  0  0  0  0
   -0.4636   -4.9351   -1.9735 H   0  0  0  0  0  0  0  0  0  0  0  0
    0.2258   -2.6439   -1.4812 H   0  0  0  0  0  0  0  0  0  0  0  0
   -0.7270   -3.2726   -0.1392 H   0  0  0  0  0  0  0  0  0  0  0  0
    1.9772   -4.1640   -3.1360 N   0  0  0  0  0  0  0  0  0  0  0  0
    3.1839   -4.3386   -3.9335 C   0  0  0  0  0  0  0  0  0  0  0  0
    1.3537   -3.3871   -3.3648 H   0  0  0  0  0  0  0  0  0  0  0  0
    4.0739   -4.1213   -3.3340 H   0  0  0  0  0  0  0  0  0  0  0  0
    3.2516   -5.3656   -4.3078 H   0  0  0  0  0  0  0  0  0  0  0  0
    3.1685   -3.6619   -4.7929 H   0  0  0  0  0  0  0  0  0  0  0  0
   -5.0070    0.0219   -2.2502 C   0  0  0  0  0  0  0  0  0  0  0  0
   -5.0943   -0.9278   -3.0132 O   0  0  0  0  0  0  0  0  0  0  0  0
   -6.2394    0.5384   -1.5325 C   0  0  0  0  0  0  0  0  0  0  0  0
   -6.4408    1.5693   -1.8332 H   0  0  0  0  0  0  0  0  0  0  0  0
   -7.1066   -0.0788   -1.7828 H   0  0  0  0  0  0  0  0  0  0  0  0
   -6.0832    0.5048   -0.4516 H   0  0  0  0  0  0  0  0  0  0  0  0
   -3.7866    0.6281   -2.0421 N   0  0  0  0  0  0  0  0  0  0  0  0
   -2.5136    0.1382   -2.5844 C   0  0  2  0  0  0  0  0  0  0  0  0
   -1.3115    0.6002   -1.7361 C   0  0  0  0  0  0  0  0  0  0  0  0
   -1.4423    1.4913   -0.9038 O   0  0  0  0  0  0  0  0  0  0  0  0
   -2.3580    0.6442   -4.0237 C   0  0  0  0  0  0  0  0  0  0  0  0
   -3.7331    1.3588   -1.3327 H   0  0  0  0  0  0  0  0  0  0  0  0
   -2.5155   -0.9571   -2.5827 H   0  0  0  0  0  0  0  0  0  0  0  0
   -2.3492    1.7387   -4.0433 H   0  0  0  0  0  0  0  0  0  0  0  0
   -1.4223    0.2830   -4.4608 H   0  0  0  0  0  0  0  0  0  0  0  0
   -3.1863    0.2904   -4.6450 H   0  0  0  0  0  0  0  0  0  0  0  0
   -0.0741    0.0281   -1.9528 N   0  0  0  0  0  0  0  0  0  0  0  0
    1.1919    0.6642   -1.5599 C   0  0  2  0  0  0  0  0  0  0  0  0
    1.8448    1.1999   -2.8541 C   0  0  0  0  0  0  0  0  0  0  0  0
    1.2192    1.9575   -3.5866 O   0  0  0  0  0  0  0  0  0  0  0  0
    2.0605   -0.3888   -0.8543 C   0  0  0  0  0  0  0  0  0  0  0  0
    1.2888   -0.9392    0.7171 S   0  0  0  0  0  0  0  0  0  0  0  0
   -0.0251   -0.6041   -2.7538 H   0  0  0  0  0  0  0  0  0  0  0  0
    1.0337    1.5100   -0.8815 H   0  0  0  0  0  0  0  0  0  0  0  0
    2.2011   -1.2535   -1.5099 H   0  0  0  0  0  0  0  0  0  0  0  0
    3.0459    0.0293   -0.6273 H   0  0  0  0  0  0  0  0  0  0  0  0
    2.9263    0.5264   -3.4001 N   0  0  0  0  0  0  0  0  0  0  0  0
    2.8550    0.1306   -4.8154 C   0  0  2  0  0  0  0  0  0  0  0  0
    1.7070   -0.8792   -5.0883 C   0  0  0  0  0  0  0  0  0  0  0  0
    1.1904   -1.5185   -4.1692 O   0  0  0  0  0  0  0  0  0  0  0  0
    4.2064   -0.4803   -5.1927 C   0  0  0  0  0  0  0  0  0  0  0  0
    3.3254   -0.1712   -2.7797 H   0  0  0  0  0  0  0  0  0  0  0  0
    2.6872    1.0172   -5.4374 H   0  0  0  0  0  0  0  0  0  0  0  0
    4.4088   -1.3716   -4.5905 H   0  0  0  0  0  0  0  0  0  0  0  0
    4.2176   -0.7646   -6.2494 H   0  0  0  0  0  0  0  0  0  0  0  0
    5.0092    0.2444   -5.0231 H   0  0  0  0  0  0  0  0  0  0  0  0
    1.2453   -1.0810   -6.3746 N   0  0  0  0  0  0  0  0  0  0  0  0
    0.1264   -1.9590   -6.6995 C   0  0  0  0  0  0  0  0  0  0  0  0
    1.6179   -0.4793   -7.1048 H   0  0  0  0  0  0  0  0  0  0  0  0
    0.3258   -2.9804   -6.3587 H   0  0  0  0  0  0  0  0  0  0  0  0
   -0.7930   -1.6010   -6.2246 H   0  0  0  0  0  0  0  0  0  0  0  0
   -0.0313   -1.9844   -7.7820 H   0  0  0  0  0  0  0  0  0  0  0  0
  1  2  2  0  0  0  0
  1  3  1  0  0  0  0
  1  7  1  0  0  0  0
  3  4  1  0  0  0  0
  3  5  1  0  0  0  0
  3  6  1  0  0  0  0
  7  8  1  0  0  0  0
  7 13  1  0  0  0  0
  8  9  1  0  0  0  0
  8 11  1  0  0  0  0
  8 14  1  0  0  0  0
  9 10  2  0  0  0  0
  9 17  1  0  0  0  0
 11 12  1  0  0  0  0
 11 15  1  0  0  0  0
 11 16  1  0  0  0  0
 12 44  1  0  0  0  0
 17 18  1  0  0  0  0
 17 19  1  0  0  0  0
 18 20  1  0  0  0  0
 18 21  1  0  0  0  0
 18 22  1  0  0  0  0
 23 24  2  0  0  0  0
 23 25  1  0  0  0  0
 23 29  1  0  0  0  0
 25 26  1  0  0  0  0
 25 27  1  0  0  0  0
 25 28  1  0  0  0  0
 29 30  1  0  0  0  0
 29 34  1  0  0  0  0
 30 31  1  0  0  0  0
 30 33  1  0  0  0  0
 30 35  1  0  0  0  0
 31 32  2  0  0  0  0
 31 39  1  0  0  0  0
 33 36  1  0  0  0  0
 33 37  1  0  0  0  0
 33 38  1  0  0  0  0
 39 40  1  0  0  0  0
 39 45  1  0  0  0  0
 40 41  1  0  0  0  0
 40 43  1  0  0  0  0
 40 46  1  0  0  0  0
 41 42  2  0  0  0  0
 41 49  1  0  0  0  0
 43 44  1  0  0  0  0
 43 47  1  0  0  0  0
 43 48  1  0  0  0  0
 49 50  1  0  0  0  0
 49 54  1  0  0  0  0
 50 51  1  0  0  0  0
 50 53  1  0  0  0  0
 50 55  1  0  0  0  0
 51 52  2  0  0  0  0
 51 59  1  0  0  0  0
 53 56  1  0  0  0  0
 53 57  1  0  0  0  0
 53 58  1  0  0  0  0
 59 60  1  0  0  0  0
 59 61  1  0  0  0  0
 60 62  1  0  0  0  0
 60 63  1  0  0  0  0
 60 64  1  0  0  0  0
M  END
$$$$

  -OEChem-05262216053D

 64 63  0     1  0  0  0  0  0999 V2000
    1.2548   -7.1309    0.3746 C   0  0  0  0  0  0  0  0  0  0  0  0
    0.6236   -7.8202   -0.4116 O   0  0  0  0  0  0  0  0  0  0  0  0
    2.4030   -7.7283    1.1649 C   0  0  0  0  0  0  0  0  0  0  0  0
    2.1858   -7.6778    2.2346 H   0  0  0  0  0  0  0  0  0  0  0  0
    2.5499   -8.7749    0.8837 H   0  0  0  0  0  0  0  0  0  0  0  0
    3.3231   -7.1760    0.9595 H   0  0  0  0  0  0  0  0  0  0  0  0
    0.9322   -5.8002    0.5313 N   0  0  0  0  0  0  0  0  0  0  0  0
   -0.0040   -5.0983   -0.3572 C   0  0  2  0  0  0  0  0  0  0  0  0
    0.6613   -4.6111   -1.6637 C   0  0  0  0  0  0  0  0  0  0  0  0
    1.8153   -4.1905   -1.6739 O   0  0  0  0  0  0  0  0  0  0  0  0
   -0.6438   -3.9286    0.4058 C   0  0  0  0  0  0  0  0  0  0  0  0
    0.5848   -2.9409    1.3596 S   0  0  0  0  0  0  0  0  0  0  0  0
    1.5911   -5.2292    1.0553 H   0  0  0  0  0  0  0  0  0  0  0  0
   -0.8115   -5.7806   -0.6429 H   0  0  0  0  0  0  0  0  0  0  0  0
   -1.1752   -3.2774   -0.2962 H   0  0  0  0  0  0  0  0  0  0  0  0
   -1.3831   -4.3235    1.1093 H   0  0  0  0  0  0  0  0  0  0  0  0
   -0.0616   -4.6322   -2.8432 N   0  0  0  0  0  0  0  0  0  0  0  0
    0.5202   -4.3536   -4.1505 C   0  0  0  0  0  0  0  0  0  0  0  0
   -0.9732   -5.0809   -2.8139 H   0  0  0  0  0  0  0  0  0  0  0  0
    1.2471   -3.5397   -4.0896 H   0  0  0  0  0  0  0  0  0  0  0  0
    1.0254   -5.2434   -4.5394 H   0  0  0  0  0  0  0  0  0  0  0  0
   -0.2616   -4.0554   -4.8559 H   0  0  0  0  0  0  0  0  0  0  0  0
   -5.0858    0.9313   -2.9141 C   0  0  0  0  0  0  0  0  0  0  0  0
   -5.2429   -0.0785   -3.5827 O   0  0  0  0  0  0  0  0  0  0  0  0
   -6.2674    1.5582   -2.1983 C   0  0  0  0  0  0  0  0  0  0  0  0
   -6.3830    2.5994   -2.5086 H   0  0  0  0  0  0  0  0  0  0  0  0
   -7.1856    1.0152   -2.4389 H   0  0  0  0  0  0  0  0  0  0  0  0
   -6.1086    1.5226   -1.1176 H   0  0  0  0  0  0  0  0  0  0  0  0
   -3.8351    1.4972   -2.7902 N   0  0  0  0  0  0  0  0  0  0  0  0
   -2.5913    0.8658   -3.2498 C   0  0  2  0  0  0  0  0  0  0  0  0
   -1.4710    1.0019   -2.2001 C   0  0  0  0  0  0  0  0  0  0  0  0
   -1.5034    1.9169   -1.3837 O   0  0  0  0  0  0  0  0  0  0  0  0
   -2.1736    1.5289   -4.5639 C   0  0  0  0  0  0  0  0  0  0  0  0
   -3.7332    2.2500   -2.1105 H   0  0  0  0  0  0  0  0  0  0  0  0
   -2.7476   -0.2042   -3.4229 H   0  0  0  0  0  0  0  0  0  0  0  0
   -2.0108    2.6015   -4.4175 H   0  0  0  0  0  0  0  0  0  0  0  0
   -1.2460    1.0866   -4.9390 H   0  0  0  0  0  0  0  0  0  0  0  0
   -2.9535    1.3924   -5.3193 H   0  0  0  0  0  0  0  0  0  0  0  0
   -0.4434    0.0807   -2.1779 N   0  0  0  0  0  0  0  0  0  0  0  0
    0.8565    0.3400   -1.5382 C   0  0  2  0  0  0  0  0  0  0  0  0
    1.8946    0.5998   -2.6444 C   0  0  0  0  0  0  0  0  0  0  0  0
    1.8873    1.6613   -3.2557 O   0  0  0  0  0  0  0  0  0  0  0  0
    1.2281   -0.8442   -0.6406 C   0  0  0  0  0  0  0  0  0  0  0  0
    0.0563   -1.0165    0.7613 S   0  0  0  0  0  0  0  0  0  0  0  0
   -0.4193   -0.5346   -2.9965 H   0  0  0  0  0  0  0  0  0  0  0  0
    0.8193    1.2390   -0.9127 H   0  0  0  0  0  0  0  0  0  0  0  0
    1.2086   -1.7637   -1.2284 H   0  0  0  0  0  0  0  0  0  0  0  0
    2.2401   -0.7137   -0.2446 H   0  0  0  0  0  0  0  0  0  0  0  0
    2.6047   -0.4668   -3.1723 N   0  0  0  0  0  0  0  0  0  0  0  0
    2.7825   -0.5463   -4.6282 C   0  0  2  0  0  0  0  0  0  0  0  0
    1.4387   -0.7801   -5.3669 C   0  0  0  0  0  0  0  0  0  0  0  0
    0.4317   -1.1343   -4.7536 O   0  0  0  0  0  0  0  0  0  0  0  0
    3.7666   -1.6835   -4.9143 C   0  0  0  0  0  0  0  0  0  0  0  0
    2.4303   -1.3546   -2.7047 H   0  0  0  0  0  0  0  0  0  0  0  0
    3.2167    0.3893   -4.9976 H   0  0  0  0  0  0  0  0  0  0  0  0
    3.3704   -2.6386   -4.5556 H   0  0  0  0  0  0  0  0  0  0  0  0
    3.9556   -1.7672   -5.9890 H   0  0  0  0  0  0  0  0  0  0  0  0
    4.7200   -1.4940   -4.4110 H   0  0  0  0  0  0  0  0  0  0  0  0
    1.3545   -0.5961   -6.7343 N   0  0  0  0  0  0  0  0  0  0  0  0
    0.1166   -0.7468   -7.4908 C   0  0  0  0  0  0  0  0  0  0  0  0
    2.1737   -0.2253   -7.2076 H   0  0  0  0  0  0  0  0  0  0  0  0
   -0.3068   -1.7457   -7.3406 H   0  0  0  0  0  0  0  0  0  0  0  0
   -0.6202   -0.0005   -7.1759 H   0  0  0  0  0  0  0  0  0  0  0  0
    0.3089   -0.6130   -8.5599 H   0  0  0  0  0  0  0  0  0  0  0  0
  1  2  2  0  0  0  0
  1  3  1  0  0  0  0
  1  7  1  0  0  0  0
  3  4  1  0  0  0  0
  3  5  1  0  0  0  0
  3  6  1  0  0  0  0
  7  8  1  0  0  0  0
  7 13  1  0  0  0  0
  8  9  1  0  0  0  0
  8 11  1  0  0  0  0
  8 14  1  0  0  0  0
  9 10  2  0  0  0  0
  9 17  1  0  0  0  0
 11 12  1  0  0  0  0
 11 15  1  0  0  0  0
 11 16  1  0  0  0  0
 12 44  1  0  0  0  0
 17 18  1  0  0  0  0
 17 19  1  0  0  0  0
 18 20  1  0  0  0  0
 18 21  1  0  0  0  0
 18 22  1  0  0  0  0
 23 24  2  0  0  0  0
 23 25  1  0  0  0  0
 23 29  1  0  0  0  0
 25 26  1  0  0  0  0
 25 27  1  0  0  0  0
 25 28  1  0  0  0  0
 29 30  1  0  0  0  0
 29 34  1  0  0  0  0
 30 31  1  0  0  0  0
 30 33  1  0  0  0  0
 30 35  1  0  0  0  0
 31 32  2  0  0  0  0
 31 39  1  0  0  0  0
 33 36  1  0  0  0  0
 33 37  1  0  0  0  0
 33 38  1  0  0  0  0
 39 40  1  0  0  0  0
 39 45  1  0  0  0  0
 40 41  1  0  0  0  0
 40 43  1  0  0  0  0
 40 46  1  0  0  0  0
 41 42  2  0  0  0  0
 41 49  1  0  0  0  0
 43 44  1  0  0  0  0
 43 47  1  0  0  0  0
 43 48  1  0  0  0  0
 49 50  1  0  0  0  0
 49 54  1  0  0  0  0
 50 51  1  0  0  0  0
 50 53  1  0  0  0  0
 50 55  1  0  0  0  0
 51 52  2  0  0  0  0
 51 59  1  0  0  0  0
 53 56  1  0  0  0  0
 53 57  1  0  0  0  0
 53 58  1  0  0  0  0
 59 60  1  0  0  0  0
 59 61  1  0  0  0  0
 60 62  1  0  0  0  0
 60 63  1  0  0  0  0
 60 64  1  0  0  0  0
M  END
$$$$

  -OEChem-05262216053D

 64 63  0     1  0  0  0  0  0999 V2000
   -0.4568   -6.8334    1.3778 C   0  0  0  0  0  0  0  0  0  0  0  0
   -1.5909   -6.8430    0.9253 O   0  0  0  0  0  0  0  0  0  0  0  0
   -0.1837   -7.3673    2.7706 C   0  0  0  0  0  0  0  0  0  0  0  0
    0.3392   -6.6121    3.3627 H   0  0  0  0  0  0  0  0  0  0  0  0
   -1.1246   -7.6162    3.2691 H   0  0  0  0  0  0  0  0  0  0  0  0
    0.4336   -8.2667    2.7100 H   0  0  0  0  0  0  0  0  0  0  0  0
    0.5769   -6.3362    0.6150 N   0  0  0  0  0  0  0  0  0  0  0  0
    0.4241   -5.7771   -0.7351 C   0  0  2  0  0  0  0  0  0  0  0  0
    1.7329   -5.8500   -1.5506 C   0  0  0  0  0  0  0  0  0  0  0  0
    2.7833   -6.1829   -1.0122 O   0  0  0  0  0  0  0  0  0  0  0  0
   -0.0657   -4.3247   -0.6277 C   0  0  0  0  0  0  0  0  0  0  0  0
    1.1353   -3.2739    0.2893 S   0  0  0  0  0  0  0  0  0  0  0  0
    1.5201   -6.3776    0.9987 H   0  0  0  0  0  0  0  0  0  0  0  0
   -0.3227   -6.3637   -1.2802 H   0  0  0  0  0  0  0  0  0  0  0  0
   -0.2194   -3.9129   -1.6287 H   0  0  0  0  0  0  0  0  0  0  0  0
   -1.0302   -4.3011   -0.1099 H   0  0  0  0  0  0  0  0  0  0  0  0
    1.7326   -5.5618   -2.9046 N   0  0  0  0  0  0  0  0  0  0  0  0
    2.9292   -5.6306   -3.7353 C   0  0  0  0  0  0  0  0  0  0  0  0
    0.8404   -5.3590   -3.3460 H   0  0  0  0  0  0  0  0  0  0  0  0
    3.7022   -4.9572   -3.3496 H   0  0  0  0  0  0  0  0  0  0  0  0
    3.3272   -6.6508   -3.7515 H   0  0  0  0  0  0  0  0  0  0  0  0
    2.6954   -5.3335   -4.7623 H   0  0  0  0  0  0  0  0  0  0  0  0
   -5.5282    1.1571   -1.4069 C   0  0  0  0  0  0  0  0  0  0  0  0
   -5.9650    0.1732   -1.9830 O   0  0  0  0  0  0  0  0  0  0  0  0
   -6.3753    1.8749   -0.3739 C   0  0  0  0  0  0  0  0  0  0  0  0
   -6.5825    2.8949   -0.7064 H   0  0  0  0  0  0  0  0  0  0  0  0
   -7.3236    1.3488   -0.2334 H   0  0  0  0  0  0  0  0  0  0  0  0
   -5.8474    1.9098    0.5821 H   0  0  0  0  0  0  0  0  0  0  0  0
   -4.2577    1.6112   -1.6889 N   0  0  0  0  0  0  0  0  0  0  0  0
   -3.2950    0.8998   -2.5387 C   0  0  2  0  0  0  0  0  0  0  0  0
   -1.8455    1.1229   -2.0605 C   0  0  0  0  0  0  0  0  0  0  0  0
   -1.5850    2.0642   -1.3212 O   0  0  0  0  0  0  0  0  0  0  0  0
   -3.4681    1.3882   -3.9798 C   0  0  0  0  0  0  0  0  0  0  0  0
   -3.8855    2.3605   -1.1055 H   0  0  0  0  0  0  0  0  0  0  0  0
   -3.4910   -0.1770   -2.4956 H   0  0  0  0  0  0  0  0  0  0  0  0
   -3.2629    2.4615   -4.0467 H   0  0  0  0  0  0  0  0  0  0  0  0
   -2.7843    0.8595   -4.6504 H   0  0  0  0  0  0  0  0  0  0  0  0
   -4.4930    1.2080   -4.3200 H   0  0  0  0  0  0  0  0  0  0  0  0
   -0.8457    0.2493   -2.4494 N   0  0  0  0  0  0  0  0  0  0  0  0
    0.5787    0.4102   -2.1009 C   0  0  2  0  0  0  0  0  0  0  0  0
    1.3967    0.9012   -3.3116 C   0  0  0  0  0  0  0  0  0  0  0  0
    1.7409    2.0698   -3.4085 O   0  0  0  0  0  0  0  0  0  0  0  0
    1.1186   -0.9280   -1.5768 C   0  0  0  0  0  0  0  0  0  0  0  0
    0.2923   -1.3895   -0.0031 S   0  0  0  0  0  0  0  0  0  0  0  0
   -1.1179   -0.5017   -3.0763 H   0  0  0  0  0  0  0  0  0  0  0  0
    0.7034    1.1564   -1.3073 H   0  0  0  0  0  0  0  0  0  0  0  0
    0.9622   -1.7204   -2.3138 H   0  0  0  0  0  0  0  0  0  0  0  0
    2.1958   -0.8443   -1.3964 H   0  0  0  0  0  0  0  0  0  0  0  0
    1.7031    0.0235   -4.3360 N   0  0  0  0  0  0  0  0  0  0  0  0
    2.1635    0.4350   -5.6678 C   0  0  2  0  0  0  0  0  0  0  0  0
    1.3865   -0.3197   -6.7670 C   0  0  0  0  0  0  0  0  0  0  0  0
    0.6694   -1.2698   -6.4636 O   0  0  0  0  0  0  0  0  0  0  0  0
    3.6642    0.1512   -5.7614 C   0  0  0  0  0  0  0  0  0  0  0  0
    1.2523   -0.8883   -4.2949 H   0  0  0  0  0  0  0  0  0  0  0  0
    1.9909    1.5058   -5.8212 H   0  0  0  0  0  0  0  0  0  0  0  0
    3.8618   -0.9178   -5.6319 H   0  0  0  0  0  0  0  0  0  0  0  0
    4.0554    0.4633   -6.7345 H   0  0  0  0  0  0  0  0  0  0  0  0
    4.1997    0.7025   -4.9818 H   0  0  0  0  0  0  0  0  0  0  0  0
    1.4777    0.0724   -8.0893 N   0  0  0  0  0  0  0  0  0  0  0  0
    0.7425   -0.5717   -9.1710 C   0  0  0  0  0  0  0  0  0  0  0  0
    2.0512    0.8841   -8.3016 H   0  0  0  0  0  0  0  0  0  0  0  0
    0.9749   -1.6412   -9.2102 H   0  0  0  0  0  0  0  0  0  0  0  0
   -0.3361   -0.4495   -9.0270 H   0  0  0  0  0  0  0  0  0  0  0  0
    1.0163   -0.1249  -10.1318 H   0  0  0  0  0  0  0  0  0  0  0  0
  1  2  2  0  0  0  0
  1  3  1  0  0  0  0
  1  7  1  0  0  0  0
  3  4  1  0  0  0  0
  3  5  1  0  0  0  0
  3  6  1  0  0  0  0
  7  8  1  0  0  0  0
  7 13  1  0  0  0  0
  8  9  1  0  0  0  0
  8 11  1  0  0  0  0
  8 14  1  0  0  0  0
  9 10  2  0  0  0  0
  9 17  1  0  0  0  0
 11 12  1  0  0  0  0
 11 15  1  0  0  0  0
 11 16  1  0  0  0  0
 12 44  1  0  0  0  0
 17 18  1  0  0  0  0
 17 19  1  0  0  0  0
 18 20  1  0  0  0  0
 18 21  1  0  0  0  0
 18 22  1  0  0  0  0
 23 24  2  0  0  0  0
 23 25  1  0  0  0  0
 23 29  1  0  0  0  0
 25 26  1  0  0  0  0
 25 27  1  0  0  0  0
 25 28  1  0  0  0  0
 29 30  1  0  0  0  0
 29 34  1  0  0  0  0
 30 31  1  0  0  0  0
 30 33  1  0  0  0  0
 30 35  1  0  0  0  0
 31 32  2  0  0  0  0
 31 39  1  0  0  0  0
 33 36  1  0  0  0  0
 33 37  1  0  0  0  0
 33 38  1  0  0  0  0
 39 40  1  0  0  0  0
 39 45  1  0  0  0  0
 40 41  1  0  0  0  0
 40 43  1  0  0  0  0
 40 46  1  0  0  0  0
 41 42  2  0  0  0  0
 41 49  1  0  0  0  0
 43 44  1  0  0  0  0
 43 47  1  0  0  0  0
 43 48  1  0  0  0  0
 49 50  1  0  0  0  0
 49 54  1  0  0  0  0
 50 51  1  0  0  0  0
 50 53  1  0  0  0  0
 50 55  1  0  0  0  0
 51 52  2  0  0  0  0
 51 59  1  0  0  0  0
 53 56  1  0  0  0  0
 53 57  1  0  0  0  0
 53 58  1  0  0  0  0
 59 60  1  0  0  0  0
 59 61  1  0  0  0  0
 60 62  1  0  0  0  0
 60 63  1  0  0  0  0
 60 64  1  0  0  0  0
M  END
$$$$

  -OEChem-05262216053D

 64 63  0     1  0  0  0  0  0999 V2000
   -0.4886   -6.8395    1.4370 C   0  0  0  0  0  0  0  0  0  0  0  0
   -1.5990   -6.9218    0.9355 O   0  0  0  0  0  0  0  0  0  0  0  0
   -0.2473   -7.3389    2.8486 C   0  0  0  0  0  0  0  0  0  0  0  0
    0.0477   -6.5066    3.4923 H   0  0  0  0  0  0  0  0  0  0  0  0
   -1.1589   -7.7907    3.2495 H   0  0  0  0  0  0  0  0  0  0  0  0
    0.5466   -8.0894    2.8475 H   0  0  0  0  0  0  0  0  0  0  0  0
    0.5490   -6.2995    0.7095 N   0  0  0  0  0  0  0  0  0  0  0  0
    0.4385   -5.8316   -0.6792 C   0  0  2  0  0  0  0  0  0  0  0  0
    1.7819   -5.9314   -1.4331 C   0  0  0  0  0  0  0  0  0  0  0  0
    2.8132   -6.2110   -0.8311 O   0  0  0  0  0  0  0  0  0  0  0  0
   -0.0899   -4.3887   -0.6850 C   0  0  0  0  0  0  0  0  0  0  0  0
    1.0407   -3.2518    0.2174 S   0  0  0  0  0  0  0  0  0  0  0  0
    1.4785   -6.2983    1.1280 H   0  0  0  0  0  0  0  0  0  0  0  0
   -0.2725   -6.4686   -1.2157 H   0  0  0  0  0  0  0  0  0  0  0  0
   -0.2101   -4.0416   -1.7148 H   0  0  0  0  0  0  0  0  0  0  0  0
   -1.0761   -4.3608   -0.2099 H   0  0  0  0  0  0  0  0  0  0  0  0
    1.8344   -5.7427   -2.8034 N   0  0  0  0  0  0  0  0  0  0  0  0
    3.0650   -5.8602   -3.5767 C   0  0  0  0  0  0  0  0  0  0  0  0
    0.9589   -5.5873   -3.2942 H   0  0  0  0  0  0  0  0  0  0  0  0
    3.8171   -5.1531   -3.2100 H   0  0  0  0  0  0  0  0  0  0  0  0
    3.4693   -6.8754   -3.5016 H   0  0  0  0  0  0  0  0  0  0  0  0
    2.8724   -5.6409   -4.6314 H   0  0  0  0  0  0  0  0  0  0  0  0
   -5.4507    1.0585   -1.2783 C   0  0  0  0  0  0  0  0  0  0  0  0
   -5.8323    0.0024   -1.7573 O   0  0  0  0  0  0  0  0  0  0  0  0
   -6.2236    1.7012   -0.1423 C   0  0  0  0  0  0  0  0  0  0  0  0
   -6.5291    2.7117   -0.4232 H   0  0  0  0  0  0  0  0  0  0  0  0
   -7.1167    1.1132    0.0867 H   0  0  0  0  0  0  0  0  0  0  0  0
   -5.5967    1.7521    0.7512 H   0  0  0  0  0  0  0  0  0  0  0  0
   -4.3060    1.6612   -1.7561 N   0  0  0  0  0  0  0  0  0  0  0  0
   -3.3598    1.0178   -2.6778 C   0  0  2  0  0  0  0  0  0  0  0  0
   -1.9024    1.2151   -2.2140 C   0  0  0  0  0  0  0  0  0  0  0  0
   -1.6091    2.1857   -1.5270 O   0  0  0  0  0  0  0  0  0  0  0  0
   -3.5631    1.6191   -4.0706 C   0  0  0  0  0  0  0  0  0  0  0  0
   -3.9517    2.4585   -1.2284 H   0  0  0  0  0  0  0  0  0  0  0  0
   -3.5470   -0.0604   -2.7227 H   0  0  0  0  0  0  0  0  0  0  0  0
   -3.3633    2.6956   -4.0569 H   0  0  0  0  0  0  0  0  0  0  0  0
   -2.8891    1.1491   -4.7934 H   0  0  0  0  0  0  0  0  0  0  0  0
   -4.5936    1.4600   -4.4037 H   0  0  0  0  0  0  0  0  0  0  0  0
   -0.9235    0.3114   -2.5865 N   0  0  0  0  0  0  0  0  0  0  0  0
    0.4975    0.4205   -2.2017 C   0  0  2  0  0  0  0  0  0  0  0  0
    1.3608    0.8941   -3.3853 C   0  0  0  0  0  0  0  0  0  0  0  0
    2.0274    1.9161   -3.3166 O   0  0  0  0  0  0  0  0  0  0  0  0
    0.9921   -0.9415   -1.6998 C   0  0  0  0  0  0  0  0  0  0  0  0
    0.1198   -1.4188   -0.1559 S   0  0  0  0  0  0  0  0  0  0  0  0
   -1.2322   -0.4997   -3.1137 H   0  0  0  0  0  0  0  0  0  0  0  0
    0.6270    1.1486   -1.3922 H   0  0  0  0  0  0  0  0  0  0  0  0
    0.8381   -1.7104   -2.4619 H   0  0  0  0  0  0  0  0  0  0  0  0
    2.0664   -0.8845   -1.4931 H   0  0  0  0  0  0  0  0  0  0  0  0
    1.4016    0.1354   -4.5401 N   0  0  0  0  0  0  0  0  0  0  0  0
    1.8786    0.6372   -5.8336 C   0  0  2  0  0  0  0  0  0  0  0  0
    0.8802    0.2591   -6.9490 C   0  0  0  0  0  0  0  0  0  0  0  0
   -0.0273   -0.5338   -6.7093 O   0  0  0  0  0  0  0  0  0  0  0  0
    3.2615    0.0389   -6.0984 C   0  0  0  0  0  0  0  0  0  0  0  0
    0.7127   -0.6118   -4.5997 H   0  0  0  0  0  0  0  0  0  0  0  0
    1.9567    1.7299   -5.8179 H   0  0  0  0  0  0  0  0  0  0  0  0
    3.2070   -1.0539   -6.1303 H   0  0  0  0  0  0  0  0  0  0  0  0
    3.6597    0.3972   -7.0524 H   0  0  0  0  0  0  0  0  0  0  0  0
    3.9551    0.3313   -5.3034 H   0  0  0  0  0  0  0  0  0  0  0  0
    0.9768    0.8216   -8.2080 N   0  0  0  0  0  0  0  0  0  0  0  0
    0.0249    0.5513   -9.2792 C   0  0  0  0  0  0  0  0  0  0  0  0
    1.7120    1.5056   -8.3646 H   0  0  0  0  0  0  0  0  0  0  0  0
   -0.0005   -0.5188   -9.5105 H   0  0  0  0  0  0  0  0  0  0  0  0
   -0.9808    0.8726   -8.9882 H   0  0  0  0  0  0  0  0  0  0  0  0
    0.3120    1.0928  -10.1856 H   0  0  0  0  0  0  0  0  0  0  0  0
  1  2  2  0  0  0  0
  1  3  1  0  0  0  0
  1  7  1  0  0  0  0
  3  4  1  0  0  0  0
  3  5  1  0  0  0  0
  3  6  1  0  0  0  0
  7  8  1  0  0  0  0
  7 13  1  0  0  0  0
  8  9  1  0  0  0  0
  8 11  1  0  0  0  0
  8 14  1  0  0  0  0
  9 10  2  0  0  0  0
  9 17  1  0  0  0  0
 11 12  1  0  0  0  0
 11 15  1  0  0  0  0
 11 16  1  0  0  0  0
 12 44  1  0  0  0  0
 17 18  1  0  0  0  0
 17 19  1  0  0  0  0
 18 20  1  0  0  0  0
 18 21  1  0  0  0  0
 18 22  1  0  0  0  0
 23 24  2  0  0  0  0
 23 25  1  0  0  0  0
 23 29  1  0  0  0  0
 25 26  1  0  0  0  0
 25 27  1  0  0  0  0
 25 28  1  0  0  0  0
 29 30  1  0  0  0  0
 29 34  1  0  0  0  0
 30 31  1  0  0  0  0
 30 33  1  0  0  0  0
 30 35  1  0  0  0  0
 31 32  2  0  0  0  0
 31 39  1  0  0  0  0
 33 36  1  0  0  0  0
 33 37  1  0  0  0  0
 33 38  1  0  0  0  0
 39 40  1  0  0  0  0
 39 45  1  0  0  0  0
 40 41  1  0  0  0  0
 40 43  1  0  0  0  0
 40 46  1  0  0  0  0
 41 42  2  0  0  0  0
 41 49  1  0  0  0  0
 43 44  1  0  0  0  0
 43 47  1  0  0  0  0
 43 48  1  0  0  0  0
 49 50  1  0  0  0  0
 49 54  1  0  0  0  0
 50 51  1  0  0  0  0
 50 53  1  0  0  0  0
 50 55  1  0  0  0  0
 51 52  2  0  0  0  0
 51 59  1  0  0  0  0
 53 56  1  0  0  0  0
 53 57  1  0  0  0  0
 53 58  1  0  0  0  0
 59 60  1  0  0  0  0
 59 61  1  0  0  0  0
 60 62  1  0  0  0  0
 60 63  1  0  0  0  0
 60 64  1  0  0  0  0
M  END
$$$$

  -OEChem-05262216053D

 64 63  0     1  0  0  0  0  0999 V2000
   -0.4927   -6.8250    1.4177 C   0  0  0  0  0  0  0  0  0  0  0  0
   -1.6009   -6.8962    0.9098 O   0  0  0  0  0  0  0  0  0  0  0  0
   -0.2723   -7.2910    2.8439 C   0  0  0  0  0  0  0  0  0  0  0  0
    0.1224   -6.4697    3.4470 H   0  0  0  0  0  0  0  0  0  0  0  0
   -1.2172   -7.6263    3.2806 H   0  0  0  0  0  0  0  0  0  0  0  0
    0.4382   -8.1210    2.8592 H   0  0  0  0  0  0  0  0  0  0  0  0
    0.5607   -6.3238    0.6853 N   0  0  0  0  0  0  0  0  0  0  0  0
    0.4643   -5.8629   -0.7063 C   0  0  2  0  0  0  0  0  0  0  0  0
    1.8164   -5.9583   -1.4449 C   0  0  0  0  0  0  0  0  0  0  0  0
    2.8387   -6.2522   -0.8349 O   0  0  0  0  0  0  0  0  0  0  0  0
   -0.0686   -4.4217   -0.7258 C   0  0  0  0  0  0  0  0  0  0  0  0
    1.0527   -3.2753    0.1763 S   0  0  0  0  0  0  0  0  0  0  0  0
    1.4857   -6.3225    1.1134 H   0  0  0  0  0  0  0  0  0  0  0  0
   -0.2377   -6.5064   -1.2470 H   0  0  0  0  0  0  0  0  0  0  0  0
   -0.1795   -4.0817   -1.7586 H   0  0  0  0  0  0  0  0  0  0  0  0
   -1.0594   -4.3938   -0.2602 H   0  0  0  0  0  0  0  0  0  0  0  0
    1.8861   -5.7411   -2.8102 N   0  0  0  0  0  0  0  0  0  0  0  0
    3.1299   -5.8127   -3.5680 C   0  0  0  0  0  0  0  0  0  0  0  0
    1.0198   -5.5506   -3.3044 H   0  0  0  0  0  0  0  0  0  0  0  0
    3.8410   -5.0618   -3.2075 H   0  0  0  0  0  0  0  0  0  0  0  0
    3.5843   -6.8043   -3.4691 H   0  0  0  0  0  0  0  0  0  0  0  0
    2.9381   -5.6251   -4.6289 H   0  0  0  0  0  0  0  0  0  0  0  0
   -5.4907    1.1664   -1.1550 C   0  0  0  0  0  0  0  0  0  0  0  0
   -5.9088    0.0717   -1.4978 O   0  0  0  0  0  0  0  0  0  0  0  0
   -6.2496    1.9809   -0.1246 C   0  0  0  0  0  0  0  0  0  0  0  0
   -6.6284    2.8991   -0.5800 H   0  0  0  0  0  0  0  0  0  0  0  0
   -7.0941    1.4043    0.2633 H   0  0  0  0  0  0  0  0  0  0  0  0
   -5.5902    2.2400    0.7072 H   0  0  0  0  0  0  0  0  0  0  0  0
   -4.3213    1.6581   -1.6955 N   0  0  0  0  0  0  0  0  0  0  0  0
   -3.4182    0.8768   -2.5497 C   0  0  2  0  0  0  0  0  0  0  0  0
   -1.9382    1.1714   -2.2340 C   0  0  0  0  0  0  0  0  0  0  0  0
   -1.6211    2.2173   -1.6813 O   0  0  0  0  0  0  0  0  0  0  0  0
   -3.7285    1.2078   -4.0125 C   0  0  0  0  0  0  0  0  0  0  0  0
   -3.9418    2.5128   -1.2893 H   0  0  0  0  0  0  0  0  0  0  0  0
   -3.5794   -0.1934   -2.3819 H   0  0  0  0  0  0  0  0  0  0  0  0
   -3.5626    2.2721   -4.2082 H   0  0  0  0  0  0  0  0  0  0  0  0
   -3.0879    0.6274   -4.6841 H   0  0  0  0  0  0  0  0  0  0  0  0
   -4.7723    0.9700   -4.2407 H   0  0  0  0  0  0  0  0  0  0  0  0
   -0.9609    0.2694   -2.6118 N   0  0  0  0  0  0  0  0  0  0  0  0
    0.4619    0.3949   -2.2407 C   0  0  2  0  0  0  0  0  0  0  0  0
    1.3077    0.8684   -3.4360 C   0  0  0  0  0  0  0  0  0  0  0  0
    2.2258    1.6608   -3.2813 O   0  0  0  0  0  0  0  0  0  0  0  0
    0.9753   -0.9624   -1.7477 C   0  0  0  0  0  0  0  0  0  0  0  0
    0.1186   -1.4486   -0.1971 S   0  0  0  0  0  0  0  0  0  0  0  0
   -1.2957   -0.6311   -2.9408 H   0  0  0  0  0  0  0  0  0  0  0  0
    0.5925    1.1259   -1.4338 H   0  0  0  0  0  0  0  0  0  0  0  0
    0.8252   -1.7302   -2.5120 H   0  0  0  0  0  0  0  0  0  0  0  0
    2.0505   -0.8942   -1.5489 H   0  0  0  0  0  0  0  0  0  0  0  0
    1.1101    0.2930   -4.6771 N   0  0  0  0  0  0  0  0  0  0  0  0
    1.6270    0.8659   -5.9250 C   0  0  2  0  0  0  0  0  0  0  0  0
    0.5096    0.9338   -6.9875 C   0  0  0  0  0  0  0  0  0  0  0  0
   -0.5402    0.3219   -6.8081 O   0  0  0  0  0  0  0  0  0  0  0  0
    2.7904   -0.0036   -6.4059 C   0  0  0  0  0  0  0  0  0  0  0  0
    0.2356   -0.2197   -4.7762 H   0  0  0  0  0  0  0  0  0  0  0  0
    1.9850    1.8878   -5.7595 H   0  0  0  0  0  0  0  0  0  0  0  0
    2.4507   -1.0263   -6.5979 H   0  0  0  0  0  0  0  0  0  0  0  0
    3.2173    0.4014   -7.3283 H   0  0  0  0  0  0  0  0  0  0  0  0
    3.5772   -0.0336   -5.6453 H   0  0  0  0  0  0  0  0  0  0  0  0
    0.6721    1.6890   -8.1339 N   0  0  0  0  0  0  0  0  0  0  0  0
   -0.3597    1.8268   -9.1547 C   0  0  0  0  0  0  0  0  0  0  0  0
    1.5354    2.2159   -8.2336 H   0  0  0  0  0  0  0  0  0  0  0  0
   -0.6033    0.8508   -9.5875 H   0  0  0  0  0  0  0  0  0  0  0  0
   -1.2696    2.2597   -8.7253 H   0  0  0  0  0  0  0  0  0  0  0  0
   -0.0113    2.4830   -9.9581 H   0  0  0  0  0  0  0  0  0  0  0  0
  1  2  2  0  0  0  0
  1  3  1  0  0  0  0
  1  7  1  0  0  0  0
  3  4  1  0  0  0  0
  3  5  1  0  0  0  0
  3  6  1  0  0  0  0
  7  8  1  0  0  0  0
  7 13  1  0  0  0  0
  8  9  1  0  0  0  0
  8 11  1  0  0  0  0
  8 14  1  0  0  0  0
  9 10  2  0  0  0  0
  9 17  1  0  0  0  0
 11 12  1  0  0  0  0
 11 15  1  0  0  0  0
 11 16  1  0  0  0  0
 12 44  1  0  0  0  0
 17 18  1  0  0  0  0
 17 19  1  0  0  0  0
 18 20  1  0  0  0  0
 18 21  1  0  0  0  0
 18 22  1  0  0  0  0
 23 24  2  0  0  0  0
 23 25  1  0  0  0  0
 23 29  1  0  0  0  0
 25 26  1  0  0  0  0
 25 27  1  0  0  0  0
 25 28  1  0  0  0  0
 29 30  1  0  0  0  0
 29 34  1  0  0  0  0
 30 31  1  0  0  0  0
 30 33  1  0  0  0  0
 30 35  1  0  0  0  0
 31 32  2  0  0  0  0
 31 39  1  0  0  0  0
 33 36  1  0  0  0  0
 33 37  1  0  0  0  0
 33 38  1  0  0  0  0
 39 40  1  0  0  0  0
 39 45  1  0  0  0  0
 40 41  1  0  0  0  0
 40 43  1  0  0  0  0
 40 46  1  0  0  0  0
 41 42  2  0  0  0  0
 41 49  1  0  0  0  0
 43 44  1  0  0  0  0
 43 47  1  0  0  0  0
 43 48  1  0  0  0  0
 49 50  1  0  0  0  0
 49 54  1  0  0  0  0
 50 51  1  0  0  0  0
 50 53  1  0  0  0  0
 50 55  1  0  0  0  0
 51 52  2  0  0  0  0
 51 59  1  0  0  0  0
 53 56  1  0  0  0  0
 53 57  1  0  0  0  0
 53 58  1  0  0  0  0
 59 60  1  0  0  0  0
 59 61  1  0  0  0  0
 60 62  1  0  0  0  0
 60 63  1  0  0  0  0
 60 64  1  0  0  0  0
M  END
$$$$

  -OEChem-05262216053D

 64 63  0     1  0  0  0  0  0999 V2000
   -0.5004   -6.8294    1.4098 C   0  0  0  0  0  0  0  0  0  0  0  0
   -1.6010   -6.9297    0.8901 O   0  0  0  0  0  0  0  0  0  0  0  0
   -0.2856   -7.2714    2.8450 C   0  0  0  0  0  0  0  0  0  0  0  0
    0.0927   -6.4360    3.4395 H   0  0  0  0  0  0  0  0  0  0  0  0
   -1.2291   -7.6138    3.2794 H   0  0  0  0  0  0  0  0  0  0  0  0
    0.4367   -8.0908    2.8796 H   0  0  0  0  0  0  0  0  0  0  0  0
    0.5503   -6.3150    0.6833 N   0  0  0  0  0  0  0  0  0  0  0  0
    0.4646   -5.8812   -0.7180 C   0  0  2  0  0  0  0  0  0  0  0  0
    1.8292   -5.9685   -1.4349 C   0  0  0  0  0  0  0  0  0  0  0  0
    2.8424   -6.2597   -0.8085 O   0  0  0  0  0  0  0  0  0  0  0  0
   -0.0881   -4.4479   -0.7698 C   0  0  0  0  0  0  0  0  0  0  0  0
    1.0132   -3.2752    0.1231 S   0  0  0  0  0  0  0  0  0  0  0  0
    1.4712   -6.2962    1.1201 H   0  0  0  0  0  0  0  0  0  0  0  0
   -0.2194   -6.5454   -1.2570 H   0  0  0  0  0  0  0  0  0  0  0  0
   -0.1932   -4.1259   -1.8093 H   0  0  0  0  0  0  0  0  0  0  0  0
   -1.0837   -4.4244   -0.3144 H   0  0  0  0  0  0  0  0  0  0  0  0
    1.9215   -5.7536   -2.7991 N   0  0  0  0  0  0  0  0  0  0  0  0
    3.1789   -5.8237   -3.5346 C   0  0  0  0  0  0  0  0  0  0  0  0
    1.0638   -5.5616   -3.3075 H   0  0  0  0  0  0  0  0  0  0  0  0
    3.8877   -5.0809   -3.1534 H   0  0  0  0  0  0  0  0  0  0  0  0
    3.6265   -6.8185   -3.4375 H   0  0  0  0  0  0  0  0  0  0  0  0
    3.0074   -5.6242   -4.5967 H   0  0  0  0  0  0  0  0  0  0  0  0
   -5.4866    1.1320   -1.0292 C   0  0  0  0  0  0  0  0  0  0  0  0
   -5.8857    0.0216   -1.3428 O   0  0  0  0  0  0  0  0  0  0  0  0
   -6.2127    1.9257    0.0405 C   0  0  0  0  0  0  0  0  0  0  0  0
   -6.5948    2.8589   -0.3805 H   0  0  0  0  0  0  0  0  0  0  0  0
   -7.0528    1.3458    0.4335 H   0  0  0  0  0  0  0  0  0  0  0  0
   -5.5298    2.1566    0.8617 H   0  0  0  0  0  0  0  0  0  0  0  0
   -4.3676    1.6600   -1.6381 N   0  0  0  0  0  0  0  0  0  0  0  0
   -3.4875    0.9050   -2.5397 C   0  0  2  0  0  0  0  0  0  0  0  0
   -1.9998    1.1848   -2.2481 C   0  0  0  0  0  0  0  0  0  0  0  0
   -1.6661    2.2308   -1.7053 O   0  0  0  0  0  0  0  0  0  0  0  0
   -3.8278    1.2959   -3.9803 C   0  0  0  0  0  0  0  0  0  0  0  0
   -3.9931    2.5264   -1.2527 H   0  0  0  0  0  0  0  0  0  0  0  0
   -3.6491   -0.1706   -2.4106 H   0  0  0  0  0  0  0  0  0  0  0  0
   -3.6627    2.3671   -4.1348 H   0  0  0  0  0  0  0  0  0  0  0  0
   -3.2025    0.7434   -4.6886 H   0  0  0  0  0  0  0  0  0  0  0  0
   -4.8766    1.0693   -4.1960 H   0  0  0  0  0  0  0  0  0  0  0  0
   -1.0316    0.2804   -2.6456 N   0  0  0  0  0  0  0  0  0  0  0  0
    0.3955    0.4006   -2.2847 C   0  0  2  0  0  0  0  0  0  0  0  0
    1.2449    0.8833   -3.4746 C   0  0  0  0  0  0  0  0  0  0  0  0
    2.3253    1.4268   -3.2927 O   0  0  0  0  0  0  0  0  0  0  0  0
    0.9067   -0.9643   -1.8133 C   0  0  0  0  0  0  0  0  0  0  0  0
    0.0565   -1.4626   -0.2627 S   0  0  0  0  0  0  0  0  0  0  0  0
   -1.3738   -0.6283   -2.9444 H   0  0  0  0  0  0  0  0  0  0  0  0
    0.5332    1.1219   -1.4707 H   0  0  0  0  0  0  0  0  0  0  0  0
    0.7484   -1.7200   -2.5881 H   0  0  0  0  0  0  0  0  0  0  0  0
    1.9839   -0.9030   -1.6213 H   0  0  0  0  0  0  0  0  0  0  0  0
    0.8545    0.5668   -4.7617 N   0  0  0  0  0  0  0  0  0  0  0  0
    1.4130    1.2020   -5.9602 C   0  0  2  0  0  0  0  0  0  0  0  0
    0.2821    1.5893   -6.9370 C   0  0  0  0  0  0  0  0  0  0  0  0
   -0.8499    1.1439   -6.7680 O   0  0  0  0  0  0  0  0  0  0  0  0
    2.3920    0.2243   -6.6141 C   0  0  0  0  0  0  0  0  0  0  0  0
   -0.1157    0.2669   -4.8496 H   0  0  0  0  0  0  0  0  0  0  0  0
    1.9445    2.1210   -5.6902 H   0  0  0  0  0  0  0  0  0  0  0  0
    1.8752   -0.6932   -6.9129 H   0  0  0  0  0  0  0  0  0  0  0  0
    2.8479    0.6730   -7.5016 H   0  0  0  0  0  0  0  0  0  0  0  0
    3.1895   -0.0370   -5.9112 H   0  0  0  0  0  0  0  0  0  0  0  0
    0.5256    2.4452   -7.9948 N   0  0  0  0  0  0  0  0  0  0  0  0
   -0.5089    2.8790   -8.9264 C   0  0  0  0  0  0  0  0  0  0  0  0
    1.4624    2.8282   -8.0862 H   0  0  0  0  0  0  0  0  0  0  0  0
   -0.9422    2.0180   -9.4463 H   0  0  0  0  0  0  0  0  0  0  0  0
   -1.3072    3.4072   -8.3944 H   0  0  0  0  0  0  0  0  0  0  0  0
   -0.0855    3.5565   -9.6742 H   0  0  0  0  0  0  0  0  0  0  0  0
  1  2  2  0  0  0  0
  1  3  1  0  0  0  0
  1  7  1  0  0  0  0
  3  4  1  0  0  0  0
  3  5  1  0  0  0  0
  3  6  1  0  0  0  0
  7  8  1  0  0  0  0
  7 13  1  0  0  0  0
  8  9  1  0  0  0  0
  8 11  1  0  0  0  0
  8 14  1  0  0  0  0
  9 10  2  0  0  0  0
  9 17  1  0  0  0  0
 11 12  1  0  0  0  0
 11 15  1  0  0  0  0
 11 16  1  0  0  0  0
 12 44  1  0  0  0  0
 17 18  1  0  0  0  0
 17 19  1  0  0  0  0
 18 20  1  0  0  0  0
 18 21  1  0  0  0  0
 18 22  1  0  0  0  0
 23 24  2  0  0  0  0
 23 25  1  0  0  0  0
 23 29  1  0  0  0  0
 25 26  1  0  0  0  0
 25 27  1  0  0  0  0
 25 28  1  0  0  0  0
 29 30  1  0  0  0  0
 29 34  1  0  0  0  0
 30 31  1  0  0  0  0
 30 33  1  0  0  0  0
 30 35  1  0  0  0  0
 31 32  2  0  0  0  0
 31 39  1  0  0  0  0
 33 36  1  0  0  0  0
 33 37  1  0  0  0  0
 33 38  1  0  0  0  0
 39 40  1  0  0  0  0
 39 45  1  0  0  0  0
 40 41  1  0  0  0  0
 40 43  1  0  0  0  0
 40 46  1  0  0  0  0
 41 42  2  0  0  0  0
 41 49  1  0  0  0  0
 43 44  1  0  0  0  0
 43 47  1  0  0  0  0
 43 48  1  0  0  0  0
 49 50  1  0  0  0  0
 49 54  1  0  0  0  0
 50 51  1  0  0  0  0
 50 53  1  0  0  0  0
 50 55  1  0  0  0  0
 51 52  2  0  0  0  0
 51 59  1  0  0  0  0
 53 56  1  0  0  0  0
 53 57  1  0  0  0  0
 53 58  1  0  0  0  0
 59 60  1  0  0  0  0
 59 61  1  0  0  0  0
 60 62  1  0  0  0  0
 60 63  1  0  0  0  0
 60 64  1  0  0  0  0
M  END
$$$$

  -OEChem-05262216053D

 64 63  0     1  0  0  0  0  0999 V2000
   -0.4964   -6.8117    1.4252 C   0  0  0  0  0  0  0  0  0  0  0  0
   -1.6004   -6.8976    0.9104 O   0  0  0  0  0  0  0  0  0  0  0  0
   -0.2796   -7.2782    2.8523 C   0  0  0  0  0  0  0  0  0  0  0  0
    0.0520   -6.4412    3.4713 H   0  0  0  0  0  0  0  0  0  0  0  0
   -1.2114   -7.6751    3.2651 H   0  0  0  0  0  0  0  0  0  0  0  0
    0.4788   -8.0643    2.8771 H   0  0  0  0  0  0  0  0  0  0  0  0
    0.5562   -6.3015    0.6975 N   0  0  0  0  0  0  0  0  0  0  0  0
    0.4691   -5.8719   -0.7051 C   0  0  2  0  0  0  0  0  0  0  0  0
    1.8318   -5.9622   -1.4253 C   0  0  0  0  0  0  0  0  0  0  0  0
    2.8469   -6.2531   -0.8018 O   0  0  0  0  0  0  0  0  0  0  0  0
   -0.0892   -4.4416   -0.7652 C   0  0  0  0  0  0  0  0  0  0  0  0
    1.0060   -3.2548    0.1150 S   0  0  0  0  0  0  0  0  0  0  0  0
    1.4802   -6.2990    1.1280 H   0  0  0  0  0  0  0  0  0  0  0  0
   -0.2154   -6.5389   -1.2395 H   0  0  0  0  0  0  0  0  0  0  0  0
   -0.1998   -4.1292   -1.8071 H   0  0  0  0  0  0  0  0  0  0  0  0
   -1.0834   -4.4184   -0.3064 H   0  0  0  0  0  0  0  0  0  0  0  0
    1.9157   -5.7609   -2.7921 N   0  0  0  0  0  0  0  0  0  0  0  0
    3.1640   -5.8589   -3.5389 C   0  0  0  0  0  0  0  0  0  0  0  0
    1.0542   -5.5792   -3.2977 H   0  0  0  0  0  0  0  0  0  0  0  0
    3.9045   -5.1556   -3.1426 H   0  0  0  0  0  0  0  0  0  0  0  0
    3.5708   -6.8738   -3.4741 H   0  0  0  0  0  0  0  0  0  0  0  0
    2.9933   -5.6209   -4.5934 H   0  0  0  0  0  0  0  0  0  0  0  0
   -5.4947    1.0671   -1.0082 C   0  0  0  0  0  0  0  0  0  0  0  0
   -5.8801   -0.0315   -1.3761 O   0  0  0  0  0  0  0  0  0  0  0  0
   -6.2146    1.7872    0.1167 C   0  0  0  0  0  0  0  0  0  0  0  0
   -6.5040    2.7904   -0.2054 H   0  0  0  0  0  0  0  0  0  0  0  0
   -7.1153    1.2356    0.4010 H   0  0  0  0  0  0  0  0  0  0  0  0
   -5.5597    1.8666    0.9880 H   0  0  0  0  0  0  0  0  0  0  0  0
   -4.3945    1.6483   -1.6031 N   0  0  0  0  0  0  0  0  0  0  0  0
   -3.5121    0.9619   -2.5552 C   0  0  2  0  0  0  0  0  0  0  0  0
   -2.0256    1.2075   -2.2294 C   0  0  0  0  0  0  0  0  0  0  0  0
   -1.6827    2.2324   -1.6531 O   0  0  0  0  0  0  0  0  0  0  0  0
   -3.8383    1.4701   -3.9621 C   0  0  0  0  0  0  0  0  0  0  0  0
   -4.0322    2.5001   -1.1766 H   0  0  0  0  0  0  0  0  0  0  0  0
   -3.6823   -0.1191   -2.5171 H   0  0  0  0  0  0  0  0  0  0  0  0
   -3.6667    2.5493   -4.0303 H   0  0  0  0  0  0  0  0  0  0  0  0
   -3.2091    0.9728   -4.7070 H   0  0  0  0  0  0  0  0  0  0  0  0
   -4.8866    1.2676   -4.2037 H   0  0  0  0  0  0  0  0  0  0  0  0
   -1.0641    0.3059   -2.6486 N   0  0  0  0  0  0  0  0  0  0  0  0
    0.3681    0.4114   -2.3006 C   0  0  2  0  0  0  0  0  0  0  0  0
    1.2110    0.9073   -3.4910 C   0  0  0  0  0  0  0  0  0  0  0  0
    2.3853    1.2157   -3.3419 O   0  0  0  0  0  0  0  0  0  0  0  0
    0.8681   -0.9640   -1.8426 C   0  0  0  0  0  0  0  0  0  0  0  0
    0.0245   -1.4599   -0.2871 S   0  0  0  0  0  0  0  0  0  0  0  0
   -1.4086   -0.5846   -2.9959 H   0  0  0  0  0  0  0  0  0  0  0  0
    0.5190    1.1223   -1.4799 H   0  0  0  0  0  0  0  0  0  0  0  0
    0.6932   -1.7131   -2.6203 H   0  0  0  0  0  0  0  0  0  0  0  0
    1.9478   -0.9194   -1.6597 H   0  0  0  0  0  0  0  0  0  0  0  0
    0.6720    0.8954   -4.7628 N   0  0  0  0  0  0  0  0  0  0  0  0
    1.2665    1.5806   -5.9148 C   0  0  2  0  0  0  0  0  0  0  0  0
    0.1664    2.2400   -6.7740 C   0  0  0  0  0  0  0  0  0  0  0  0
   -1.0119    1.9456   -6.5914 O   0  0  0  0  0  0  0  0  0  0  0  0
    2.0638    0.5600   -6.7308 C   0  0  0  0  0  0  0  0  0  0  0  0
   -0.3412    0.7852   -4.7985 H   0  0  0  0  0  0  0  0  0  0  0  0
    1.9388    2.3756   -5.5743 H   0  0  0  0  0  0  0  0  0  0  0  0
    1.4087   -0.2413   -7.0873 H   0  0  0  0  0  0  0  0  0  0  0  0
    2.5310    1.0402   -7.5958 H   0  0  0  0  0  0  0  0  0  0  0  0
    2.8531    0.1178   -6.1144 H   0  0  0  0  0  0  0  0  0  0  0  0
    0.4922    3.1809   -7.7330 N   0  0  0  0  0  0  0  0  0  0  0  0
   -0.5041    3.8960   -8.5222 C   0  0  0  0  0  0  0  0  0  0  0  0
    1.4699    3.4437   -7.8211 H   0  0  0  0  0  0  0  0  0  0  0  0
   -1.1395    3.1916   -9.0697 H   0  0  0  0  0  0  0  0  0  0  0  0
   -1.1374    4.5104   -7.8734 H   0  0  0  0  0  0  0  0  0  0  0  0
   -0.0125    4.5515   -9.2477 H   0  0  0  0  0  0  0  0  0  0  0  0
  1  2  2  0  0  0  0
  1  3  1  0  0  0  0
  1  7  1  0  0  0  0
  3  4  1  0  0  0  0
  3  5  1  0  0  0  0
  3  6  1  0  0  0  0
  7  8  1  0  0  0  0
  7 13  1  0  0  0  0
  8  9  1  0  0  0  0
  8 11  1  0  0  0  0
  8 14  1  0  0  0  0
  9 10  2  0  0  0  0
  9 17  1  0  0  0  0
 11 12  1  0  0  0  0
 11 15  1  0  0  0  0
 11 16  1  0  0  0  0
 12 44  1  0  0  0  0
 17 18  1  0  0  0  0
 17 19  1  0  0  0  0
 18 20  1  0  0  0  0
 18 21  1  0  0  0  0
 18 22  1  0  0  0  0
 23 24  2  0  0  0  0
 23 25  1  0  0  0  0
 23 29  1  0  0  0  0
 25 26  1  0  0  0  0
 25 27  1  0  0  0  0
 25 28  1  0  0  0  0
 29 30  1  0  0  0  0
 29 34  1  0  0  0  0
 30 31  1  0  0  0  0
 30 33  1  0  0  0  0
 30 35  1  0  0  0  0
 31 32  2  0  0  0  0
 31 39  1  0  0  0  0
 33 36  1  0  0  0  0
 33 37  1  0  0  0  0
 33 38  1  0  0  0  0
 39 40  1  0  0  0  0
 39 45  1  0  0  0  0
 40 41  1  0  0  0  0
 40 43  1  0  0  0  0
 40 46  1  0  0  0  0
 41 42  2  0  0  0  0
 41 49  1  0  0  0  0
 43 44  1  0  0  0  0
 43 47  1  0  0  0  0
 43 48  1  0  0  0  0
 49 50  1  0  0  0  0
 49 54  1  0  0  0  0
 50 51  1  0  0  0  0
 50 53  1  0  0  0  0
 50 55  1  0  0  0  0
 51 52  2  0  0  0  0
 51 59  1  0  0  0  0
 53 56  1  0  0  0  0
 53 57  1  0  0  0  0
 53 58  1  0  0  0  0
 59 60  1  0  0  0  0
 59 61  1  0  0  0  0
 60 62  1  0  0  0  0
 60 63  1  0  0  0  0
 60 64  1  0  0  0  0
M  END
$$$$

  -OEChem-05262216053D

 64 63  0     1  0  0  0  0  0999 V2000
   -0.4956   -6.8260    1.3924 C   0  0  0  0  0  0  0  0  0  0  0  0
   -1.5989   -6.9069    0.8752 O   0  0  0  0  0  0  0  0  0  0  0  0
   -0.2903   -7.2571    2.8323 C   0  0  0  0  0  0  0  0  0  0  0  0
    0.0843   -6.4175    3.4232 H   0  0  0  0  0  0  0  0  0  0  0  0
   -1.2371   -7.5950    3.2629 H   0  0  0  0  0  0  0  0  0  0  0  0
    0.4314   -8.0765    2.8770 H   0  0  0  0  0  0  0  0  0  0  0  0
    0.5664   -6.3436    0.6600 N   0  0  0  0  0  0  0  0  0  0  0  0
    0.4881   -5.9139   -0.7429 C   0  0  2  0  0  0  0  0  0  0  0  0
    1.8569   -6.0076   -1.4515 C   0  0  0  0  0  0  0  0  0  0  0  0
    2.8609   -6.3227   -0.8210 O   0  0  0  0  0  0  0  0  0  0  0  0
   -0.0703   -4.4827   -0.8032 C   0  0  0  0  0  0  0  0  0  0  0  0
    1.0203   -3.2913    0.0767 S   0  0  0  0  0  0  0  0  0  0  0  0
    1.4891   -6.3481    1.0931 H   0  0  0  0  0  0  0  0  0  0  0  0
   -0.1935   -6.5802   -1.2821 H   0  0  0  0  0  0  0  0  0  0  0  0
   -0.1816   -4.1702   -1.8448 H   0  0  0  0  0  0  0  0  0  0  0  0
   -1.0643   -4.4609   -0.3442 H   0  0  0  0  0  0  0  0  0  0  0  0
    1.9619   -5.7816   -2.8128 N   0  0  0  0  0  0  0  0  0  0  0  0
    3.2240   -5.8587   -3.5390 C   0  0  0  0  0  0  0  0  0  0  0  0
    1.1132   -5.5595   -3.3239 H   0  0  0  0  0  0  0  0  0  0  0  0
    3.9447   -5.1429   -3.1293 H   0  0  0  0  0  0  0  0  0  0  0  0
    3.6480   -6.8659   -3.4672 H   0  0  0  0  0  0  0  0  0  0  0  0
    3.0680   -5.6243   -4.5963 H   0  0  0  0  0  0  0  0  0  0  0  0
   -5.5426    1.1301   -1.0022 C   0  0  0  0  0  0  0  0  0  0  0  0
   -5.9572    0.0465   -1.3823 O   0  0  0  0  0  0  0  0  0  0  0  0
   -6.2671    1.8769    0.1018 C   0  0  0  0  0  0  0  0  0  0  0  0
   -6.5361    2.8795   -0.2392 H   0  0  0  0  0  0  0  0  0  0  0  0
   -7.1801    1.3433    0.3811 H   0  0  0  0  0  0  0  0  0  0  0  0
   -5.6232    1.9582    0.9811 H   0  0  0  0  0  0  0  0  0  0  0  0
   -4.4071    1.6715   -1.5674 N   0  0  0  0  0  0  0  0  0  0  0  0
   -3.5284    0.9561   -2.5012 C   0  0  2  0  0  0  0  0  0  0  0  0
   -2.0407    1.1970   -2.1772 C   0  0  0  0  0  0  0  0  0  0  0  0
   -1.6940    2.2063   -1.5761 O   0  0  0  0  0  0  0  0  0  0  0  0
   -3.8493    1.4332   -3.9209 C   0  0  0  0  0  0  0  0  0  0  0  0
   -4.0272    2.5126   -1.1348 H   0  0  0  0  0  0  0  0  0  0  0  0
   -3.7064   -0.1225   -2.4349 H   0  0  0  0  0  0  0  0  0  0  0  0
   -3.6661    2.5087   -4.0144 H   0  0  0  0  0  0  0  0  0  0  0  0
   -3.2275    0.9118   -4.6551 H   0  0  0  0  0  0  0  0  0  0  0  0
   -4.9000    1.2368   -4.1570 H   0  0  0  0  0  0  0  0  0  0  0  0
   -1.0797    0.3111   -2.6289 N   0  0  0  0  0  0  0  0  0  0  0  0
    0.3547    0.4085   -2.2884 C   0  0  2  0  0  0  0  0  0  0  0  0
    1.1915    0.9415   -3.4705 C   0  0  0  0  0  0  0  0  0  0  0  0
    2.4108    1.0169   -3.3956 O   0  0  0  0  0  0  0  0  0  0  0  0
    0.8503   -0.9779   -1.8554 C   0  0  0  0  0  0  0  0  0  0  0  0
    0.0167   -1.5021   -0.3036 S   0  0  0  0  0  0  0  0  0  0  0  0
   -1.4215   -0.5605   -3.0238 H   0  0  0  0  0  0  0  0  0  0  0  0
    0.5087    1.1009   -1.4532 H   0  0  0  0  0  0  0  0  0  0  0  0
    0.6696   -1.7122   -2.6456 H   0  0  0  0  0  0  0  0  0  0  0  0
    1.9300   -0.9408   -1.6743 H   0  0  0  0  0  0  0  0  0  0  0  0
    0.5695    1.2606   -4.6621 N   0  0  0  0  0  0  0  0  0  0  0  0
    1.2044    1.9876   -5.7659 C   0  0  2  0  0  0  0  0  0  0  0  0
    0.1805    2.8992   -6.4767 C   0  0  0  0  0  0  0  0  0  0  0  0
   -1.0210    2.7352   -6.2853 O   0  0  0  0  0  0  0  0  0  0  0  0
    1.7967    0.9694   -6.7438 C   0  0  0  0  0  0  0  0  0  0  0  0
   -0.4477    1.3233   -4.6191 H   0  0  0  0  0  0  0  0  0  0  0  0
    2.0045    2.6270   -5.3776 H   0  0  0  0  0  0  0  0  0  0  0  0
    1.0099    0.3233   -7.1460 H   0  0  0  0  0  0  0  0  0  0  0  0
    2.2903    1.4788   -7.5768 H   0  0  0  0  0  0  0  0  0  0  0  0
    2.5369    0.3430   -6.2358 H   0  0  0  0  0  0  0  0  0  0  0  0
    0.6034    3.9122   -7.3177 N   0  0  0  0  0  0  0  0  0  0  0  0
   -0.3087    4.8425   -7.9724 C   0  0  0  0  0  0  0  0  0  0  0  0
    1.6043    4.0499   -7.4240 H   0  0  0  0  0  0  0  0  0  0  0  0
   -1.0386    4.2995   -8.5818 H   0  0  0  0  0  0  0  0  0  0  0  0
   -0.8451    5.4410   -7.2284 H   0  0  0  0  0  0  0  0  0  0  0  0
    0.2475    5.5212   -8.6263 H   0  0  0  0  0  0  0  0  0  0  0  0
  1  2  2  0  0  0  0
  1  3  1  0  0  0  0
  1  7  1  0  0  0  0
  3  4  1  0  0  0  0
  3  5  1  0  0  0  0
  3  6  1  0  0  0  0
  7  8  1  0  0  0  0
  7 13  1  0  0  0  0
  8  9  1  0  0  0  0
  8 11  1  0  0  0  0
  8 14  1  0  0  0  0
  9 10  2  0  0  0  0
  9 17  1  0  0  0  0
 11 12  1  0  0  0  0
 11 15  1  0  0  0  0
 11 16  1  0  0  0  0
 12 44  1  0  0  0  0
 17 18  1  0  0  0  0
 17 19  1  0  0  0  0
 18 20  1  0  0  0  0
 18 21  1  0  0  0  0
 18 22  1  0  0  0  0
 23 24  2  0  0  0  0
 23 25  1  0  0  0  0
 23 29  1  0  0  0  0
 25 26  1  0  0  0  0
 25 27  1  0  0  0  0
 25 28  1  0  0  0  0
 29 30  1  0  0  0  0
 29 34  1  0  0  0  0
 30 31  1  0  0  0  0
 30 33  1  0  0  0  0
 30 35  1  0  0  0  0
 31 32  2  0  0  0  0
 31 39  1  0  0  0  0
 33 36  1  0  0  0  0
 33 37  1  0  0  0  0
 33 38  1  0  0  0  0
 39 40  1  0  0  0  0
 39 45  1  0  0  0  0
 40 41  1  0  0  0  0
 40 43  1  0  0  0  0
 40 46  1  0  0  0  0
 41 42  2  0  0  0  0
 41 49  1  0  0  0  0
 43 44  1  0  0  0  0
 43 47  1  0  0  0  0
 43 48  1  0  0  0  0
 49 50  1  0  0  0  0
 49 54  1  0  0  0  0
 50 51  1  0  0  0  0
 50 53  1  0  0  0  0
 50 55  1  0  0  0  0
 51 52  2  0  0  0  0
 51 59  1  0  0  0  0
 53 56  1  0  0  0  0
 53 57  1  0  0  0  0
 53 58  1  0  0  0  0
 59 60  1  0  0  0  0
 59 61  1  0  0  0  0
 60 62  1  0  0  0  0
 60 63  1  0  0  0  0
 60 64  1  0  0  0  0
M  END
$$$$

  -OEChem-05262216053D

 64 63  0     1  0  0  0  0  0999 V2000
   -0.5065   -6.8516    1.3645 C   0  0  0  0  0  0  0  0  0  0  0  0
   -1.6076   -6.9252    0.8416 O   0  0  0  0  0  0  0  0  0  0  0  0
   -0.3155   -7.2701    2.8098 C   0  0  0  0  0  0  0  0  0  0  0  0
    0.0855   -6.4346    3.3889 H   0  0  0  0  0  0  0  0  0  0  0  0
   -1.2727   -7.5720    3.2441 H   0  0  0  0  0  0  0  0  0  0  0  0
    0.3792   -8.1115    2.8669 H   0  0  0  0  0  0  0  0  0  0  0  0
    0.5646   -6.3850    0.6351 N   0  0  0  0  0  0  0  0  0  0  0  0
    0.4973   -5.9570   -0.7691 C   0  0  2  0  0  0  0  0  0  0  0  0
    1.8743   -6.0393   -1.4630 C   0  0  0  0  0  0  0  0  0  0  0  0
    2.8717   -6.3595   -0.8249 O   0  0  0  0  0  0  0  0  0  0  0  0
   -0.0715   -4.5300   -0.8388 C   0  0  0  0  0  0  0  0  0  0  0  0
    1.0019   -3.3320    0.0534 S   0  0  0  0  0  0  0  0  0  0  0  0
    1.4837   -6.3893    1.0762 H   0  0  0  0  0  0  0  0  0  0  0  0
   -0.1724   -6.6304   -1.3143 H   0  0  0  0  0  0  0  0  0  0  0  0
   -0.1733   -4.2190   -1.8820 H   0  0  0  0  0  0  0  0  0  0  0  0
   -1.0709   -4.5149   -0.3914 H   0  0  0  0  0  0  0  0  0  0  0  0
    1.9947   -5.7920   -2.8194 N   0  0  0  0  0  0  0  0  0  0  0  0
    3.2695   -5.8256   -3.5267 C   0  0  0  0  0  0  0  0  0  0  0  0
    1.1549   -5.5405   -3.3317 H   0  0  0  0  0  0  0  0  0  0  0  0
    3.9531   -5.0732   -3.1187 H   0  0  0  0  0  0  0  0  0  0  0  0
    3.7352   -6.8127   -3.4333 H   0  0  0  0  0  0  0  0  0  0  0  0
    3.1180   -5.6148   -4.5898 H   0  0  0  0  0  0  0  0  0  0  0  0
   -5.5650    1.1653   -1.0339 C   0  0  0  0  0  0  0  0  0  0  0  0
   -5.9999    0.1198   -1.4905 O   0  0  0  0  0  0  0  0  0  0  0  0
   -6.3058    1.8740    0.0838 C   0  0  0  0  0  0  0  0  0  0  0  0
   -6.5785    2.8840   -0.2308 H   0  0  0  0  0  0  0  0  0  0  0  0
   -7.2170    1.3259    0.3388 H   0  0  0  0  0  0  0  0  0  0  0  0
   -5.6709    1.9345    0.9709 H   0  0  0  0  0  0  0  0  0  0  0  0
   -4.3916    1.6974   -1.5249 N   0  0  0  0  0  0  0  0  0  0  0  0
   -3.5095    1.0124   -2.4782 C   0  0  2  0  0  0  0  0  0  0  0  0
   -2.0241    1.2111   -2.1216 C   0  0  0  0  0  0  0  0  0  0  0  0
   -1.6679    2.1909   -1.4792 O   0  0  0  0  0  0  0  0  0  0  0  0
   -3.7966    1.5612   -3.8788 C   0  0  0  0  0  0  0  0  0  0  0  0
   -4.0043    2.5046   -1.0372 H   0  0  0  0  0  0  0  0  0  0  0  0
   -3.7068   -0.0647   -2.4663 H   0  0  0  0  0  0  0  0  0  0  0  0
   -3.5921    2.6363   -3.9202 H   0  0  0  0  0  0  0  0  0  0  0  0
   -3.1713    1.0617   -4.6250 H   0  0  0  0  0  0  0  0  0  0  0  0
   -4.8461    1.3951   -4.1414 H   0  0  0  0  0  0  0  0  0  0  0  0
   -1.0695    0.3355   -2.6046 N   0  0  0  0  0  0  0  0  0  0  0  0
    0.3645    0.4077   -2.2595 C   0  0  2  0  0  0  0  0  0  0  0  0
    1.1990    0.9792   -3.4271 C   0  0  0  0  0  0  0  0  0  0  0  0
    2.4126    0.8254   -3.4762 O   0  0  0  0  0  0  0  0  0  0  0  0
    0.8403   -0.9975   -1.8627 C   0  0  0  0  0  0  0  0  0  0  0  0
   -0.0081   -1.5460   -0.3268 S   0  0  0  0  0  0  0  0  0  0  0  0
   -1.4129   -0.5025   -3.0653 H   0  0  0  0  0  0  0  0  0  0  0  0
    0.5253    1.0701   -1.4021 H   0  0  0  0  0  0  0  0  0  0  0  0
    0.6531   -1.7080   -2.6728 H   0  0  0  0  0  0  0  0  0  0  0  0
    1.9197   -0.9815   -1.6754 H   0  0  0  0  0  0  0  0  0  0  0  0
    0.5636    1.6280   -4.4690 N   0  0  0  0  0  0  0  0  0  0  0  0
    1.2374    2.3619   -5.5457 C   0  0  2  0  0  0  0  0  0  0  0  0
    0.3302    3.4823   -6.0975 C   0  0  0  0  0  0  0  0  0  0  0  0
   -0.8758    3.4624   -5.8707 O   0  0  0  0  0  0  0  0  0  0  0  0
    1.6050    1.3786   -6.6608 C   0  0  0  0  0  0  0  0  0  0  0  0
   -0.4225    1.8471   -4.3225 H   0  0  0  0  0  0  0  0  0  0  0  0
    2.1479    2.8303   -5.1570 H   0  0  0  0  0  0  0  0  0  0  0  0
    0.7043    0.9036   -7.0628 H   0  0  0  0  0  0  0  0  0  0  0  0
    2.1190    1.8976   -7.4751 H   0  0  0  0  0  0  0  0  0  0  0  0
    2.2692    0.5984   -6.2766 H   0  0  0  0  0  0  0  0  0  0  0  0
    0.8643    4.5131   -6.8488 N   0  0  0  0  0  0  0  0  0  0  0  0
    0.0669    5.6111   -7.3822 C   0  0  0  0  0  0  0  0  0  0  0  0
    1.8691    4.5169   -6.9994 H   0  0  0  0  0  0  0  0  0  0  0  0
   -0.7059    5.2306   -8.0582 H   0  0  0  0  0  0  0  0  0  0  0  0
   -0.4167    6.1642   -6.5702 H   0  0  0  0  0  0  0  0  0  0  0  0
    0.7027    6.3045   -7.9411 H   0  0  0  0  0  0  0  0  0  0  0  0
  1  2  2  0  0  0  0
  1  3  1  0  0  0  0
  1  7  1  0  0  0  0
  3  4  1  0  0  0  0
  3  5  1  0  0  0  0
  3  6  1  0  0  0  0
  7  8  1  0  0  0  0
  7 13  1  0  0  0  0
  8  9  1  0  0  0  0
  8 11  1  0  0  0  0
  8 14  1  0  0  0  0
  9 10  2  0  0  0  0
  9 17  1  0  0  0  0
 11 12  1  0  0  0  0
 11 15  1  0  0  0  0
 11 16  1  0  0  0  0
 12 44  1  0  0  0  0
 17 18  1  0  0  0  0
 17 19  1  0  0  0  0
 18 20  1  0  0  0  0
 18 21  1  0  0  0  0
 18 22  1  0  0  0  0
 23 24  2  0  0  0  0
 23 25  1  0  0  0  0
 23 29  1  0  0  0  0
 25 26  1  0  0  0  0
 25 27  1  0  0  0  0
 25 28  1  0  0  0  0
 29 30  1  0  0  0  0
 29 34  1  0  0  0  0
 30 31  1  0  0  0  0
 30 33  1  0  0  0  0
 30 35  1  0  0  0  0
 31 32  2  0  0  0  0
 31 39  1  0  0  0  0
 33 36  1  0  0  0  0
 33 37  1  0  0  0  0
 33 38  1  0  0  0  0
 39 40  1  0  0  0  0
 39 45  1  0  0  0  0
 40 41  1  0  0  0  0
 40 43  1  0  0  0  0
 40 46  1  0  0  0  0
 41 42  2  0  0  0  0
 41 49  1  0  0  0  0
 43 44  1  0  0  0  0
 43 47  1  0  0  0  0
 43 48  1  0  0  0  0
 49 50  1  0  0  0  0
 49 54  1  0  0  0  0
 50 51  1  0  0  0  0
 50 53  1  0  0  0  0
 50 55  1  0  0  0  0
 51 52  2  0  0  0  0
 51 59  1  0  0  0  0
 53 56  1  0  0  0  0
 53 57  1  0  0  0  0
 53 58  1  0  0  0  0
 59 60  1  0  0  0  0
 59 61  1  0  0  0  0
 60 62  1  0  0  0  0
 60 63  1  0  0  0  0
 60 64  1  0  0  0  0
M  END
$$$$

  -OEChem-05262216053D

 64 63  0     1  0  0  0  0  0999 V2000
   -0.5545   -6.8976    1.1944 C   0  0  0  0  0  0  0  0  0  0  0  0
   -1.6240   -6.9723    0.6096 O   0  0  0  0  0  0  0  0  0  0  0  0
   -0.4335   -7.3621    2.6332 C   0  0  0  0  0  0  0  0  0  0  0  0
   -0.1051   -6.5336    3.2652 H   0  0  0  0  0  0  0  0  0  0  0  0
   -1.4009   -7.7204    2.9958 H   0  0  0  0  0  0  0  0  0  0  0  0
    0.2931   -8.1748    2.7040 H   0  0  0  0  0  0  0  0  0  0  0  0
    0.5464   -6.3927    0.5386 N   0  0  0  0  0  0  0  0  0  0  0  0
    0.5473   -5.9254   -0.8548 C   0  0  2  0  0  0  0  0  0  0  0  0
    1.9591   -5.9697   -1.4787 C   0  0  0  0  0  0  0  0  0  0  0  0
    2.9309   -6.2680   -0.7927 O   0  0  0  0  0  0  0  0  0  0  0  0
   -0.0364   -4.5044   -0.9125 C   0  0  0  0  0  0  0  0  0  0  0  0
    0.9573   -3.3279    0.0929 S   0  0  0  0  0  0  0  0  0  0  0  0
    1.4374   -6.3817    1.0338 H   0  0  0  0  0  0  0  0  0  0  0  0
   -0.0836   -6.5910   -1.4533 H   0  0  0  0  0  0  0  0  0  0  0  0
   -0.0708   -4.1572   -1.9486 H   0  0  0  0  0  0  0  0  0  0  0  0
   -1.0639   -4.5173   -0.5345 H   0  0  0  0  0  0  0  0  0  0  0  0
    2.1392   -5.7212   -2.8284 N   0  0  0  0  0  0  0  0  0  0  0  0
    3.4434   -5.7545   -3.4796 C   0  0  0  0  0  0  0  0  0  0  0  0
    1.3188   -5.4999   -3.3841 H   0  0  0  0  0  0  0  0  0  0  0  0
    4.1075   -4.9995   -3.0452 H   0  0  0  0  0  0  0  0  0  0  0  0
    3.9058   -6.7403   -3.3624 H   0  0  0  0  0  0  0  0  0  0  0  0
    3.3385   -5.5483   -4.5493 H   0  0  0  0  0  0  0  0  0  0  0  0
   -5.5902    1.3324   -0.9955 C   0  0  0  0  0  0  0  0  0  0  0  0
   -6.0799    0.3162   -1.4625 O   0  0  0  0  0  0  0  0  0  0  0  0
   -6.3193    2.0966    0.0932 C   0  0  0  0  0  0  0  0  0  0  0  0
   -6.5212    3.1177   -0.2383 H   0  0  0  0  0  0  0  0  0  0  0  0
   -7.2692    1.6066    0.3246 H   0  0  0  0  0  0  0  0  0  0  0  0
   -5.7096    2.1285    0.9994 H   0  0  0  0  0  0  0  0  0  0  0  0
   -4.3653    1.7756   -1.4478 N   0  0  0  0  0  0  0  0  0  0  0  0
   -3.5123    1.0347   -2.3855 C   0  0  2  0  0  0  0  0  0  0  0  0
   -2.0164    1.2506   -2.0820 C   0  0  0  0  0  0  0  0  0  0  0  0
   -1.6463    2.2482   -1.4753 O   0  0  0  0  0  0  0  0  0  0  0  0
   -3.8392    1.4998   -3.8077 C   0  0  0  0  0  0  0  0  0  0  0  0
   -3.9438    2.5716   -0.9697 H   0  0  0  0  0  0  0  0  0  0  0  0
   -3.7131   -0.0387   -2.3010 H   0  0  0  0  0  0  0  0  0  0  0  0
   -3.6315    2.5693   -3.9176 H   0  0  0  0  0  0  0  0  0  0  0  0
   -3.2382    0.9526   -4.5403 H   0  0  0  0  0  0  0  0  0  0  0  0
   -4.8970    1.3254   -4.0294 H   0  0  0  0  0  0  0  0  0  0  0  0
   -1.0659    0.3651   -2.5550 N   0  0  0  0  0  0  0  0  0  0  0  0
    0.3619    0.4250   -2.1832 C   0  0  2  0  0  0  0  0  0  0  0  0
    1.2155    0.9951   -3.3378 C   0  0  0  0  0  0  0  0  0  0  0  0
    2.3737    0.6391   -3.5167 O   0  0  0  0  0  0  0  0  0  0  0  0
    0.8152   -0.9885   -1.7877 C   0  0  0  0  0  0  0  0  0  0  0  0
   -0.0633   -1.5468   -0.2739 S   0  0  0  0  0  0  0  0  0  0  0  0
   -1.4143   -0.4851   -2.9884 H   0  0  0  0  0  0  0  0  0  0  0  0
    0.5149    1.0810   -1.3191 H   0  0  0  0  0  0  0  0  0  0  0  0
    0.6380   -1.6894   -2.6080 H   0  0  0  0  0  0  0  0  0  0  0  0
    1.8907   -0.9857   -1.5801 H   0  0  0  0  0  0  0  0  0  0  0  0
    0.6527    1.9049   -4.2119 N   0  0  0  0  0  0  0  0  0  0  0  0
    1.3644    2.6075   -5.2854 C   0  0  2  0  0  0  0  0  0  0  0  0
    0.6120    3.8887   -5.7016 C   0  0  0  0  0  0  0  0  0  0  0  0
   -0.5790    4.0163   -5.4382 O   0  0  0  0  0  0  0  0  0  0  0  0
    1.5127    1.6721   -6.4907 C   0  0  0  0  0  0  0  0  0  0  0  0
   -0.2734    2.2588   -3.9652 H   0  0  0  0  0  0  0  0  0  0  0  0
    2.3568    2.9029   -4.9285 H   0  0  0  0  0  0  0  0  0  0  0  0
    0.5289    1.3559   -6.8513 H   0  0  0  0  0  0  0  0  0  0  0  0
    2.0370    2.1786   -7.3064 H   0  0  0  0  0  0  0  0  0  0  0  0
    2.0864    0.7816   -6.2164 H   0  0  0  0  0  0  0  0  0  0  0  0
    1.2722    4.9028   -6.3701 N   0  0  0  0  0  0  0  0  0  0  0  0
    0.6316    6.1548   -6.7538 C   0  0  0  0  0  0  0  0  0  0  0  0
    2.2652    4.7826   -6.5475 H   0  0  0  0  0  0  0  0  0  0  0  0
   -0.2052    5.9646   -7.4339 H   0  0  0  0  0  0  0  0  0  0  0  0
    0.2541    6.6788   -5.8694 H   0  0  0  0  0  0  0  0  0  0  0  0
    1.3485    6.8068   -7.2617 H   0  0  0  0  0  0  0  0  0  0  0  0
  1  2  2  0  0  0  0
  1  3  1  0  0  0  0
  1  7  1  0  0  0  0
  3  4  1  0  0  0  0
  3  5  1  0  0  0  0
  3  6  1  0  0  0  0
  7  8  1  0  0  0  0
  7 13  1  0  0  0  0
  8  9  1  0  0  0  0
  8 11  1  0  0  0  0
  8 14  1  0  0  0  0
  9 10  2  0  0  0  0
  9 17  1  0  0  0  0
 11 12  1  0  0  0  0
 11 15  1  0  0  0  0
 11 16  1  0  0  0  0
 12 44  1  0  0  0  0
 17 18  1  0  0  0  0
 17 19  1  0  0  0  0
 18 20  1  0  0  0  0
 18 21  1  0  0  0  0
 18 22  1  0  0  0  0
 23 24  2  0  0  0  0
 23 25  1  0  0  0  0
 23 29  1  0  0  0  0
 25 26  1  0  0  0  0
 25 27  1  0  0  0  0
 25 28  1  0  0  0  0
 29 30  1  0  0  0  0
 29 34  1  0  0  0  0
 30 31  1  0  0  0  0
 30 33  1  0  0  0  0
 30 35  1  0  0  0  0
 31 32  2  0  0  0  0
 31 39  1  0  0  0  0
 33 36  1  0  0  0  0
 33 37  1  0  0  0  0
 33 38  1  0  0  0  0
 39 40  1  0  0  0  0
 39 45  1  0  0  0  0
 40 41  1  0  0  0  0
 40 43  1  0  0  0  0
 40 46  1  0  0  0  0
 41 42  2  0  0  0  0
 41 49  1  0  0  0  0
 43 44  1  0  0  0  0
 43 47  1  0  0  0  0
 43 48  1  0  0  0  0
 49 50  1  0  0  0  0
 49 54  1  0  0  0  0
 50 51  1  0  0  0  0
 50 53  1  0  0  0  0
 50 55  1  0  0  0  0
 51 52  2  0  0  0  0
 51 59  1  0  0  0  0
 53 56  1  0  0  0  0
 53 57  1  0  0  0  0
 53 58  1  0  0  0  0
 59 60  1  0  0  0  0
 59 61  1  0  0  0  0
 60 62  1  0  0  0  0
 60 63  1  0  0  0  0
 60 64  1  0  0  0  0
M  END
$$$$

  -OEChem-05262216053D

 64 63  0     1  0  0  0  0  0999 V2000
   -0.5395   -6.8793    1.2882 C   0  0  0  0  0  0  0  0  0  0  0  0
   -1.6257   -6.9731    0.7381 O   0  0  0  0  0  0  0  0  0  0  0  0
   -0.3749   -7.3003    2.7358 C   0  0  0  0  0  0  0  0  0  0  0  0
    0.0286   -6.4708    3.3217 H   0  0  0  0  0  0  0  0  0  0  0  0
   -1.3418   -7.5897    3.1567 H   0  0  0  0  0  0  0  0  0  0  0  0
    0.3087   -8.1502    2.8006 H   0  0  0  0  0  0  0  0  0  0  0  0
    0.5404   -6.3887    0.5885 N   0  0  0  0  0  0  0  0  0  0  0  0
    0.5009   -5.9443   -0.8115 C   0  0  2  0  0  0  0  0  0  0  0  0
    1.8985   -5.9826   -1.4673 C   0  0  0  0  0  0  0  0  0  0  0  0
    2.8866   -6.2787   -0.8034 O   0  0  0  0  0  0  0  0  0  0  0  0
   -0.0938   -4.5282   -0.8782 C   0  0  0  0  0  0  0  0  0  0  0  0
    0.9218   -3.3325    0.0824 S   0  0  0  0  0  0  0  0  0  0  0  0
    1.4462   -6.3694    1.0557 H   0  0  0  0  0  0  0  0  0  0  0  0
   -0.1381   -6.6251   -1.3835 H   0  0  0  0  0  0  0  0  0  0  0  0
   -0.1575   -4.1982   -1.9185 H   0  0  0  0  0  0  0  0  0  0  0  0
   -1.1111   -4.5395   -0.4735 H   0  0  0  0  0  0  0  0  0  0  0  0
    2.0496   -5.7179   -2.8175 N   0  0  0  0  0  0  0  0  0  0  0  0
    3.3434   -5.7106   -3.4896 C   0  0  0  0  0  0  0  0  0  0  0  0
    1.2189   -5.4784   -3.3499 H   0  0  0  0  0  0  0  0  0  0  0  0
    3.9920   -4.9389   -3.0617 H   0  0  0  0  0  0  0  0  0  0  0  0
    3.8348   -6.6835   -3.3846 H   0  0  0  0  0  0  0  0  0  0  0  0
    3.2157   -5.5024   -4.5562 H   0  0  0  0  0  0  0  0  0  0  0  0
   -5.5741    1.1890   -1.0528 C   0  0  0  0  0  0  0  0  0  0  0  0
   -6.0298    0.1713   -1.5502 O   0  0  0  0  0  0  0  0  0  0  0  0
   -6.3375    1.9111    0.0407 C   0  0  0  0  0  0  0  0  0  0  0  0
   -6.5636    2.9323   -0.2749 H   0  0  0  0  0  0  0  0  0  0  0  0
   -7.2762    1.3912    0.2514 H   0  0  0  0  0  0  0  0  0  0  0  0
   -5.7390    1.9426    0.9542 H   0  0  0  0  0  0  0  0  0  0  0  0
   -4.3596    1.6801   -1.4832 N   0  0  0  0  0  0  0  0  0  0  0  0
   -3.4878    1.0003   -2.4486 C   0  0  2  0  0  0  0  0  0  0  0  0
   -1.9966    1.2378   -2.1402 C   0  0  0  0  0  0  0  0  0  0  0  0
   -1.6399    2.2365   -1.5271 O   0  0  0  0  0  0  0  0  0  0  0  0
   -3.8292    1.5176   -3.8489 C   0  0  0  0  0  0  0  0  0  0  0  0
   -3.9692    2.4804   -0.9868 H   0  0  0  0  0  0  0  0  0  0  0  0
   -3.6619   -0.0804   -2.4073 H   0  0  0  0  0  0  0  0  0  0  0  0
   -3.6616    2.5983   -3.9085 H   0  0  0  0  0  0  0  0  0  0  0  0
   -3.2069    1.0272   -4.6034 H   0  0  0  0  0  0  0  0  0  0  0  0
   -4.8794    1.3149   -4.0820 H   0  0  0  0  0  0  0  0  0  0  0  0
   -1.0345    0.3657   -2.6127 N   0  0  0  0  0  0  0  0  0  0  0  0
    0.3847    0.4231   -2.2155 C   0  0  2  0  0  0  0  0  0  0  0  0
    1.2508    1.0185   -3.3469 C   0  0  0  0  0  0  0  0  0  0  0  0
    2.2915    0.4819   -3.7084 O   0  0  0  0  0  0  0  0  0  0  0  0
    0.8320   -0.9928   -1.8194 C   0  0  0  0  0  0  0  0  0  0  0  0
   -0.0790   -1.5491   -0.3232 S   0  0  0  0  0  0  0  0  0  0  0  0
   -1.3716   -0.4826   -3.0586 H   0  0  0  0  0  0  0  0  0  0  0  0
    0.5195    1.0685   -1.3405 H   0  0  0  0  0  0  0  0  0  0  0  0
    0.6683   -1.6912   -2.6453 H   0  0  0  0  0  0  0  0  0  0  0  0
    1.9040   -0.9908   -1.5940 H   0  0  0  0  0  0  0  0  0  0  0  0
    0.8160    2.1512   -4.0093 N   0  0  0  0  0  0  0  0  0  0  0  0
    1.5692    2.8565   -5.0548 C   0  0  2  0  0  0  0  0  0  0  0  0
    1.1516    4.3381   -5.1627 C   0  0  0  0  0  0  0  0  0  0  0  0
    0.0813    4.7125   -4.6983 O   0  0  0  0  0  0  0  0  0  0  0  0
    1.3384    2.1514   -6.3964 C   0  0  0  0  0  0  0  0  0  0  0  0
    0.0036    2.6313   -3.6142 H   0  0  0  0  0  0  0  0  0  0  0  0
    2.6362    2.8309   -4.8102 H   0  0  0  0  0  0  0  0  0  0  0  0
    0.2766    2.1749   -6.6622 H   0  0  0  0  0  0  0  0  0  0  0  0
    1.9070    2.6435   -7.1913 H   0  0  0  0  0  0  0  0  0  0  0  0
    1.6611    1.1070   -6.3415 H   0  0  0  0  0  0  0  0  0  0  0  0
    1.9715    5.2537   -5.7972 N   0  0  0  0  0  0  0  0  0  0  0  0
    1.6317    6.6638   -5.9466 C   0  0  0  0  0  0  0  0  0  0  0  0
    2.8581    4.9201   -6.1637 H   0  0  0  0  0  0  0  0  0  0  0  0
    0.6965    6.7758   -6.5052 H   0  0  0  0  0  0  0  0  0  0  0  0
    1.5150    7.1367   -4.9657 H   0  0  0  0  0  0  0  0  0  0  0  0
    2.4227    7.1884   -6.4913 H   0  0  0  0  0  0  0  0  0  0  0  0
  1  2  2  0  0  0  0
  1  3  1  0  0  0  0
  1  7  1  0  0  0  0
  3  4  1  0  0  0  0
  3  5  1  0  0  0  0
  3  6  1  0  0  0  0
  7  8  1  0  0  0  0
  7 13  1  0  0  0  0
  8  9  1  0  0  0  0
  8 11  1  0  0  0  0
  8 14  1  0  0  0  0
  9 10  2  0  0  0  0
  9 17  1  0  0  0  0
 11 12  1  0  0  0  0
 11 15  1  0  0  0  0
 11 16  1  0  0  0  0
 12 44  1  0  0  0  0
 17 18  1  0  0  0  0
 17 19  1  0  0  0  0
 18 20  1  0  0  0  0
 18 21  1  0  0  0  0
 18 22  1  0  0  0  0
 23 24  2  0  0  0  0
 23 25  1  0  0  0  0
 23 29  1  0  0  0  0
 25 26  1  0  0  0  0
 25 27  1  0  0  0  0
 25 28  1  0  0  0  0
 29 30  1  0  0  0  0
 29 34  1  0  0  0  0
 30 31  1  0  0  0  0
 30 33  1  0  0  0  0
 30 35  1  0  0  0  0
 31 32  2  0  0  0  0
 31 39  1  0  0  0  0
 33 36  1  0  0  0  0
 33 37  1  0  0  0  0
 33 38  1  0  0  0  0
 39 40  1  0  0  0  0
 39 45  1  0  0  0  0
 40 41  1  0  0  0  0
 40 43  1  0  0  0  0
 40 46  1  0  0  0  0
 41 42  2  0  0  0  0
 41 49  1  0  0  0  0
 43 44  1  0  0  0  0
 43 47  1  0  0  0  0
 43 48  1  0  0  0  0
 49 50  1  0  0  0  0
 49 54  1  0  0  0  0
 50 51  1  0  0  0  0
 50 53  1  0  0  0  0
 50 55  1  0  0  0  0
 51 52  2  0  0  0  0
 51 59  1  0  0  0  0
 53 56  1  0  0  0  0
 53 57  1  0  0  0  0
 53 58  1  0  0  0  0
 59 60  1  0  0  0  0
 59 61  1  0  0  0  0
 60 62  1  0  0  0  0
 60 63  1  0  0  0  0
 60 64  1  0  0  0  0
M  END
$$$$

  -OEChem-05262216053D

 64 63  0     1  0  0  0  0  0999 V2000
   -0.6129   -7.0799    0.9531 C   0  0  0  0  0  0  0  0  0  0  0  0
   -1.6222   -7.1391    0.2682 O   0  0  0  0  0  0  0  0  0  0  0  0
   -0.5945   -7.6872    2.3429 C   0  0  0  0  0  0  0  0  0  0  0  0
   -0.3794   -6.9139    3.0843 H   0  0  0  0  0  0  0  0  0  0  0  0
   -1.5662   -8.1339    2.5714 H   0  0  0  0  0  0  0  0  0  0  0  0
    0.1728   -8.4629    2.4016 H   0  0  0  0  0  0  0  0  0  0  0  0
    0.5142   -6.4648    0.4541 N   0  0  0  0  0  0  0  0  0  0  0  0
    0.6272   -5.9044   -0.8996 C   0  0  2  0  0  0  0  0  0  0  0  0
    2.0918   -5.8742   -1.3906 C   0  0  0  0  0  0  0  0  0  0  0  0
    2.9968   -6.2548   -0.6551 O   0  0  0  0  0  0  0  0  0  0  0  0
    0.0050   -4.4996   -0.9179 C   0  0  0  0  0  0  0  0  0  0  0  0
    0.9311   -3.3408    0.1689 S   0  0  0  0  0  0  0  0  0  0  0  0
    1.3667   -6.5028    1.0119 H   0  0  0  0  0  0  0  0  0  0  0  0
    0.0739   -6.5430   -1.5961 H   0  0  0  0  0  0  0  0  0  0  0  0
   -0.0007   -4.1119   -1.9398 H   0  0  0  0  0  0  0  0  0  0  0  0
   -1.0354   -4.5545   -0.5812 H   0  0  0  0  0  0  0  0  0  0  0  0
    2.3995   -5.4630   -2.6759 N   0  0  0  0  0  0  0  0  0  0  0  0
    3.7618   -5.4156   -3.1938 C   0  0  0  0  0  0  0  0  0  0  0  0
    1.6364   -5.1628   -3.2745 H   0  0  0  0  0  0  0  0  0  0  0  0
    4.3922   -4.7837   -2.5591 H   0  0  0  0  0  0  0  0  0  0  0  0
    4.1931   -6.4216   -3.2288 H   0  0  0  0  0  0  0  0  0  0  0  0
    3.7681   -5.0009   -4.2064 H   0  0  0  0  0  0  0  0  0  0  0  0
   -5.5436    1.6767   -0.9462 C   0  0  0  0  0  0  0  0  0  0  0  0
   -6.0827    0.6004   -1.1498 O   0  0  0  0  0  0  0  0  0  0  0  0
   -6.2213    2.7159   -0.0725 C   0  0  0  0  0  0  0  0  0  0  0  0
   -6.4109    3.6236   -0.6506 H   0  0  0  0  0  0  0  0  0  0  0  0
   -7.1740    2.3300    0.3012 H   0  0  0  0  0  0  0  0  0  0  0  0
   -5.5828    2.9616    0.7797 H   0  0  0  0  0  0  0  0  0  0  0  0
   -4.3133    1.9452   -1.5076 N   0  0  0  0  0  0  0  0  0  0  0  0
   -3.5076    0.9639   -2.2458 C   0  0  2  0  0  0  0  0  0  0  0  0
   -1.9969    1.2293   -2.0792 C   0  0  0  0  0  0  0  0  0  0  0  0
   -1.5995    2.2826   -1.5936 O   0  0  0  0  0  0  0  0  0  0  0  0
   -3.9062    1.0260   -3.7238 C   0  0  0  0  0  0  0  0  0  0  0  0
   -3.8455    2.8065   -1.2257 H   0  0  0  0  0  0  0  0  0  0  0  0
   -3.7056   -0.0418   -1.8591 H   0  0  0  0  0  0  0  0  0  0  0  0
   -3.7072    2.0220   -4.1326 H   0  0  0  0  0  0  0  0  0  0  0  0
   -3.3438    0.2909   -4.3067 H   0  0  0  0  0  0  0  0  0  0  0  0
   -4.9733    0.8102   -3.8370 H   0  0  0  0  0  0  0  0  0  0  0  0
   -1.0598    0.3221   -2.5363 N   0  0  0  0  0  0  0  0  0  0  0  0
    0.3613    0.3874   -2.1522 C   0  0  2  0  0  0  0  0  0  0  0  0
    1.2059    0.9355   -3.3206 C   0  0  0  0  0  0  0  0  0  0  0  0
    2.0947    0.2727   -3.8444 O   0  0  0  0  0  0  0  0  0  0  0  0
    0.8127   -1.0194   -1.7339 C   0  0  0  0  0  0  0  0  0  0  0  0
   -0.0798   -1.5599   -0.2218 S   0  0  0  0  0  0  0  0  0  0  0  0
   -1.4214   -0.5700   -2.8610 H   0  0  0  0  0  0  0  0  0  0  0  0
    0.5133    1.0546   -1.2968 H   0  0  0  0  0  0  0  0  0  0  0  0
    0.6437   -1.7306   -2.5477 H   0  0  0  0  0  0  0  0  0  0  0  0
    1.8871   -1.0088   -1.5201 H   0  0  0  0  0  0  0  0  0  0  0  0
    0.9294    2.1987   -3.8064 N   0  0  0  0  0  0  0  0  0  0  0  0
    1.6847    2.8783   -4.8661 C   0  0  2  0  0  0  0  0  0  0  0  0
    1.5887    4.4134   -4.7478 C   0  0  0  0  0  0  0  0  0  0  0  0
    0.6654    4.9312   -4.1311 O   0  0  0  0  0  0  0  0  0  0  0  0
    1.1443    2.4176   -6.2235 C   0  0  0  0  0  0  0  0  0  0  0  0
    0.2156    2.7413   -3.3114 H   0  0  0  0  0  0  0  0  0  0  0  0
    2.7435    2.6100   -4.7866 H   0  0  0  0  0  0  0  0  0  0  0  0
    0.0820    2.6659   -6.3147 H   0  0  0  0  0  0  0  0  0  0  0  0
    1.6875    2.9041   -7.0392 H   0  0  0  0  0  0  0  0  0  0  0  0
    1.2598    1.3348   -6.3316 H   0  0  0  0  0  0  0  0  0  0  0  0
    2.5440    5.2202   -5.3386 N   0  0  0  0  0  0  0  0  0  0  0  0
    2.5286    6.6753   -5.2462 C   0  0  0  0  0  0  0  0  0  0  0  0
    3.3053    4.7660   -5.8344 H   0  0  0  0  0  0  0  0  0  0  0  0
    1.6323    7.0796   -5.7283 H   0  0  0  0  0  0  0  0  0  0  0  0
    2.5390    6.9936   -4.1982 H   0  0  0  0  0  0  0  0  0  0  0  0
    3.4088    7.0955   -5.7422 H   0  0  0  0  0  0  0  0  0  0  0  0
  1  2  2  0  0  0  0
  1  3  1  0  0  0  0
  1  7  1  0  0  0  0
  3  4  1  0  0  0  0
  3  5  1  0  0  0  0
  3  6  1  0  0  0  0
  7  8  1  0  0  0  0
  7 13  1  0  0  0  0
  8  9  1  0  0  0  0
  8 11  1  0  0  0  0
  8 14  1  0  0  0  0
  9 10  2  0  0  0  0
  9 17  1  0  0  0  0
 11 12  1  0  0  0  0
 11 15  1  0  0  0  0
 11 16  1  0  0  0  0
 12 44  1  0  0  0  0
 17 18  1  0  0  0  0
 17 19  1  0  0  0  0
 18 20  1  0  0  0  0
 18 21  1  0  0  0  0
 18 22  1  0  0  0  0
 23 24  2  0  0  0  0
 23 25  1  0  0  0  0
 23 29  1  0  0  0  0
 25 26  1  0  0  0  0
 25 27  1  0  0  0  0
 25 28  1  0  0  0  0
 29 30  1  0  0  0  0
 29 34  1  0  0  0  0
 30 31  1  0  0  0  0
 30 33  1  0  0  0  0
 30 35  1  0  0  0  0
 31 32  2  0  0  0  0
 31 39  1  0  0  0  0
 33 36  1  0  0  0  0
 33 37  1  0  0  0  0
 33 38  1  0  0  0  0
 39 40  1  0  0  0  0
 39 45  1  0  0  0  0
 40 41  1  0  0  0  0
 40 43  1  0  0  0  0
 40 46  1  0  0  0  0
 41 42  2  0  0  0  0
 41 49  1  0  0  0  0
 43 44  1  0  0  0  0
 43 47  1  0  0  0  0
 43 48  1  0  0  0  0
 49 50  1  0  0  0  0
 49 54  1  0  0  0  0
 50 51  1  0  0  0  0
 50 53  1  0  0  0  0
 50 55  1  0  0  0  0
 51 52  2  0  0  0  0
 51 59  1  0  0  0  0
 53 56  1  0  0  0  0
 53 57  1  0  0  0  0
 53 58  1  0  0  0  0
 59 60  1  0  0  0  0
 59 61  1  0  0  0  0
 60 62  1  0  0  0  0
 60 63  1  0  0  0  0
 60 64  1  0  0  0  0
M  END
$$$$

  -OEChem-05262216053D

 64 63  0     1  0  0  0  0  0999 V2000
   -0.5907   -7.0113    1.0366 C   0  0  0  0  0  0  0  0  0  0  0  0
   -1.6239   -7.0657    0.3876 O   0  0  0  0  0  0  0  0  0  0  0  0
   -0.5389   -7.5801    2.4419 C   0  0  0  0  0  0  0  0  0  0  0  0
   -0.2509   -6.7989    3.1497 H   0  0  0  0  0  0  0  0  0  0  0  0
   -1.5206   -7.9680    2.7272 H   0  0  0  0  0  0  0  0  0  0  0  0
    0.1895   -8.3933    2.4896 H   0  0  0  0  0  0  0  0  0  0  0  0
    0.5310   -6.4331    0.4843 N   0  0  0  0  0  0  0  0  0  0  0  0
    0.5998   -5.8775   -0.8744 C   0  0  2  0  0  0  0  0  0  0  0  0
    2.0462   -5.8477   -1.4167 C   0  0  0  0  0  0  0  0  0  0  0  0
    2.9760   -6.2402   -0.7197 O   0  0  0  0  0  0  0  0  0  0  0  0
   -0.0190   -4.4712   -0.8763 C   0  0  0  0  0  0  0  0  0  0  0  0
    0.9311   -3.3207    0.1989 S   0  0  0  0  0  0  0  0  0  0  0  0
    1.3995   -6.4654    1.0170 H   0  0  0  0  0  0  0  0  0  0  0  0
    0.0220   -6.5172   -1.5496 H   0  0  0  0  0  0  0  0  0  0  0  0
   -0.0426   -4.0790   -1.8964 H   0  0  0  0  0  0  0  0  0  0  0  0
   -1.0532   -4.5240   -0.5210 H   0  0  0  0  0  0  0  0  0  0  0  0
    2.3075   -5.4200   -2.7072 N   0  0  0  0  0  0  0  0  0  0  0  0
    3.6492   -5.3637   -3.2752 C   0  0  0  0  0  0  0  0  0  0  0  0
    1.5252   -5.0958   -3.2673 H   0  0  0  0  0  0  0  0  0  0  0  0
    4.2897   -4.7014   -2.6828 H   0  0  0  0  0  0  0  0  0  0  0  0
    4.0981   -6.3625   -3.2969 H   0  0  0  0  0  0  0  0  0  0  0  0
    3.6105   -4.9806   -4.2997 H   0  0  0  0  0  0  0  0  0  0  0  0
   -5.5498    1.5718   -1.0111 C   0  0  0  0  0  0  0  0  0  0  0  0
   -6.0781    0.5000   -1.2616 O   0  0  0  0  0  0  0  0  0  0  0  0
   -6.2375    2.5647   -0.0926 C   0  0  0  0  0  0  0  0  0  0  0  0
   -6.3861    3.5147   -0.6120 H   0  0  0  0  0  0  0  0  0  0  0  0
   -7.2117    2.1772    0.2180 H   0  0  0  0  0  0  0  0  0  0  0  0
   -5.6261    2.7346    0.7971 H   0  0  0  0  0  0  0  0  0  0  0  0
   -4.3193    1.8744   -1.5551 N   0  0  0  0  0  0  0  0  0  0  0  0
   -3.4941    0.9253   -2.3139 C   0  0  2  0  0  0  0  0  0  0  0  0
   -1.9892    1.2033   -2.1185 C   0  0  0  0  0  0  0  0  0  0  0  0
   -1.6117    2.2573   -1.6181 O   0  0  0  0  0  0  0  0  0  0  0  0
   -3.8736    1.0283   -3.7946 C   0  0  0  0  0  0  0  0  0  0  0  0
   -3.8600    2.7263   -1.2330 H   0  0  0  0  0  0  0  0  0  0  0  0
   -3.6861   -0.0942   -1.9616 H   0  0  0  0  0  0  0  0  0  0  0  0
   -3.6759    2.0373   -4.1705 H   0  0  0  0  0  0  0  0  0  0  0  0
   -3.2975    0.3149   -4.3914 H   0  0  0  0  0  0  0  0  0  0  0  0
   -4.9377    0.8086   -3.9292 H   0  0  0  0  0  0  0  0  0  0  0  0
   -1.0379    0.2981   -2.5489 N   0  0  0  0  0  0  0  0  0  0  0  0
    0.3780    0.3842   -2.1554 C   0  0  2  0  0  0  0  0  0  0  0  0
    1.2277    0.9166   -3.3257 C   0  0  0  0  0  0  0  0  0  0  0  0
    1.9483    0.1765   -3.9873 O   0  0  0  0  0  0  0  0  0  0  0  0
    0.8397   -1.0097   -1.7095 C   0  0  0  0  0  0  0  0  0  0  0  0
   -0.0595   -1.5303   -0.1950 S   0  0  0  0  0  0  0  0  0  0  0  0
   -1.3823   -0.5927   -2.8949 H   0  0  0  0  0  0  0  0  0  0  0  0
    0.5174    1.0657   -1.3088 H   0  0  0  0  0  0  0  0  0  0  0  0
    0.6797   -1.7375   -2.5107 H   0  0  0  0  0  0  0  0  0  0  0  0
    1.9129   -0.9859   -1.4916 H   0  0  0  0  0  0  0  0  0  0  0  0
    1.1670    2.2609   -3.6355 N   0  0  0  0  0  0  0  0  0  0  0  0
    1.9842    2.9300   -4.6550 C   0  0  2  0  0  0  0  0  0  0  0  0
    2.2747    4.3998   -4.2858 C   0  0  0  0  0  0  0  0  0  0  0  0
    1.5782    4.9791   -3.4612 O   0  0  0  0  0  0  0  0  0  0  0  0
    1.2413    2.8533   -5.9917 C   0  0  0  0  0  0  0  0  0  0  0  0
    0.5777    2.8510   -3.0421 H   0  0  0  0  0  0  0  0  0  0  0  0
    2.9481    2.4186   -4.7459 H   0  0  0  0  0  0  0  0  0  0  0  0
    0.2806    3.3742   -5.9239 H   0  0  0  0  0  0  0  0  0  0  0  0
    1.8333    3.3147   -6.7877 H   0  0  0  0  0  0  0  0  0  0  0  0
    1.0537    1.8097   -6.2631 H   0  0  0  0  0  0  0  0  0  0  0  0
    3.3222    5.0799   -4.8800 N   0  0  0  0  0  0  0  0  0  0  0  0
    3.6525    6.4656   -4.5675 C   0  0  0  0  0  0  0  0  0  0  0  0
    3.8944    4.5757   -5.5509 H   0  0  0  0  0  0  0  0  0  0  0  0
    2.8206    7.1267   -4.8331 H   0  0  0  0  0  0  0  0  0  0  0  0
    3.8642    6.5786   -3.4987 H   0  0  0  0  0  0  0  0  0  0  0  0
    4.5373    6.7802   -5.1291 H   0  0  0  0  0  0  0  0  0  0  0  0
  1  2  2  0  0  0  0
  1  3  1  0  0  0  0
  1  7  1  0  0  0  0
  3  4  1  0  0  0  0
  3  5  1  0  0  0  0
  3  6  1  0  0  0  0
  7  8  1  0  0  0  0
  7 13  1  0  0  0  0
  8  9  1  0  0  0  0
  8 11  1  0  0  0  0
  8 14  1  0  0  0  0
  9 10  2  0  0  0  0
  9 17  1  0  0  0  0
 11 12  1  0  0  0  0
 11 15  1  0  0  0  0
 11 16  1  0  0  0  0
 12 44  1  0  0  0  0
 17 18  1  0  0  0  0
 17 19  1  0  0  0  0
 18 20  1  0  0  0  0
 18 21  1  0  0  0  0
 18 22  1  0  0  0  0
 23 24  2  0  0  0  0
 23 25  1  0  0  0  0
 23 29  1  0  0  0  0
 25 26  1  0  0  0  0
 25 27  1  0  0  0  0
 25 28  1  0  0  0  0
 29 30  1  0  0  0  0
 29 34  1  0  0  0  0
 30 31  1  0  0  0  0
 30 33  1  0  0  0  0
 30 35  1  0  0  0  0
 31 32  2  0  0  0  0
 31 39  1  0  0  0  0
 33 36  1  0  0  0  0
 33 37  1  0  0  0  0
 33 38  1  0  0  0  0
 39 40  1  0  0  0  0
 39 45  1  0  0  0  0
 40 41  1  0  0  0  0
 40 43  1  0  0  0  0
 40 46  1  0  0  0  0
 41 42  2  0  0  0  0
 41 49  1  0  0  0  0
 43 44  1  0  0  0  0
 43 47  1  0  0  0  0
 43 48  1  0  0  0  0
 49 50  1  0  0  0  0
 49 54  1  0  0  0  0
 50 51  1  0  0  0  0
 50 53  1  0  0  0  0
 50 55  1  0  0  0  0
 51 52  2  0  0  0  0
 51 59  1  0  0  0  0
 53 56  1  0  0  0  0
 53 57  1  0  0  0  0
 53 58  1  0  0  0  0
 59 60  1  0  0  0  0
 59 61  1  0  0  0  0
 60 62  1  0  0  0  0
 60 63  1  0  0  0  0
 60 64  1  0  0  0  0
M  END
$$$$

  -OEChem-05262216053D

 64 63  0     1  0  0  0  0  0999 V2000
   -0.5548   -6.9244    1.1817 C   0  0  0  0  0  0  0  0  0  0  0  0
   -1.6266   -6.9665    0.5981 O   0  0  0  0  0  0  0  0  0  0  0  0
   -0.4306   -7.4643    2.5933 C   0  0  0  0  0  0  0  0  0  0  0  0
   -0.0875   -6.6740    3.2653 H   0  0  0  0  0  0  0  0  0  0  0  0
   -1.4001   -7.8286    2.9440 H   0  0  0  0  0  0  0  0  0  0  0  0
    0.2857   -8.2890    2.6148 H   0  0  0  0  0  0  0  0  0  0  0  0
    0.5451   -6.3866    0.5508 N   0  0  0  0  0  0  0  0  0  0  0  0
    0.5446   -5.8534   -0.8183 C   0  0  2  0  0  0  0  0  0  0  0  0
    1.9547   -5.8718   -1.4485 C   0  0  0  0  0  0  0  0  0  0  0  0
    2.9207   -6.2516   -0.7949 O   0  0  0  0  0  0  0  0  0  0  0  0
   -0.0334   -4.4299   -0.8039 C   0  0  0  0  0  0  0  0  0  0  0  0
    0.9916   -3.2989    0.2228 S   0  0  0  0  0  0  0  0  0  0  0  0
    1.4397   -6.4133    1.0386 H   0  0  0  0  0  0  0  0  0  0  0  0
   -0.0916   -6.4854   -1.4468 H   0  0  0  0  0  0  0  0  0  0  0  0
   -0.0904   -4.0427   -1.8247 H   0  0  0  0  0  0  0  0  0  0  0  0
   -1.0523   -4.4522   -0.4036 H   0  0  0  0  0  0  0  0  0  0  0  0
    2.1407   -5.4979   -2.7680 N   0  0  0  0  0  0  0  0  0  0  0  0
    3.4452   -5.4812   -3.4184 C   0  0  0  0  0  0  0  0  0  0  0  0
    1.3276   -5.1926   -3.2937 H   0  0  0  0  0  0  0  0  0  0  0  0
    4.1278   -4.8066   -2.8908 H   0  0  0  0  0  0  0  0  0  0  0  0
    3.8805   -6.4860   -3.4300 H   0  0  0  0  0  0  0  0  0  0  0  0
    3.3481   -5.1348   -4.4518 H   0  0  0  0  0  0  0  0  0  0  0  0
   -5.5924    1.3814   -1.1548 C   0  0  0  0  0  0  0  0  0  0  0  0
   -6.0838    0.3508   -1.5869 O   0  0  0  0  0  0  0  0  0  0  0  0
   -6.3496    2.2203   -0.1432 C   0  0  0  0  0  0  0  0  0  0  0  0
   -6.4938    3.2321   -0.5293 H   0  0  0  0  0  0  0  0  0  0  0  0
   -7.3287    1.7761    0.0571 H   0  0  0  0  0  0  0  0  0  0  0  0
   -5.7875    2.2710    0.7924 H   0  0  0  0  0  0  0  0  0  0  0  0
   -4.3392    1.7740   -1.5752 N   0  0  0  0  0  0  0  0  0  0  0  0
   -3.4534    0.9507   -2.4079 C   0  0  2  0  0  0  0  0  0  0  0  0
   -1.9671    1.2077   -2.0845 C   0  0  0  0  0  0  0  0  0  0  0  0
   -1.6280    2.2241   -1.4883 O   0  0  0  0  0  0  0  0  0  0  0  0
   -3.7404    1.2636   -3.8798 C   0  0  0  0  0  0  0  0  0  0  0  0
   -3.9178    2.5783   -1.1112 H   0  0  0  0  0  0  0  0  0  0  0  0
   -3.6513   -0.1100   -2.2174 H   0  0  0  0  0  0  0  0  0  0  0  0
   -3.5390    2.3185   -4.0931 H   0  0  0  0  0  0  0  0  0  0  0  0
   -3.1135    0.6494   -4.5330 H   0  0  0  0  0  0  0  0  0  0  0  0
   -4.7890    1.0549   -4.1146 H   0  0  0  0  0  0  0  0  0  0  0  0
   -0.9949    0.3181   -2.4996 N   0  0  0  0  0  0  0  0  0  0  0  0
    0.4222    0.4177   -2.1172 C   0  0  2  0  0  0  0  0  0  0  0  0
    1.2648    0.9423   -3.2952 C   0  0  0  0  0  0  0  0  0  0  0  0
    1.7579    0.1721   -4.1123 O   0  0  0  0  0  0  0  0  0  0  0  0
    0.9042   -0.9672   -1.6651 C   0  0  0  0  0  0  0  0  0  0  0  0
    0.0249   -1.4883   -0.1385 S   0  0  0  0  0  0  0  0  0  0  0  0
   -1.3086   -0.5241   -2.9729 H   0  0  0  0  0  0  0  0  0  0  0  0
    0.5580    1.1064   -1.2758 H   0  0  0  0  0  0  0  0  0  0  0  0
    0.7410   -1.7025   -2.4591 H   0  0  0  0  0  0  0  0  0  0  0  0
    1.9795   -0.9325   -1.4620 H   0  0  0  0  0  0  0  0  0  0  0  0
    1.4566    2.3018   -3.4425 N   0  0  0  0  0  0  0  0  0  0  0  0
    2.3202    2.9277   -4.4515 C   0  0  2  0  0  0  0  0  0  0  0  0
    2.9750    4.2213   -3.9217 C   0  0  0  0  0  0  0  0  0  0  0  0
    2.5407    4.7655   -2.9132 O   0  0  0  0  0  0  0  0  0  0  0  0
    1.4695    3.2219   -5.6904 C   0  0  0  0  0  0  0  0  0  0  0  0
    1.0617    2.9123   -2.7242 H   0  0  0  0  0  0  0  0  0  0  0  0
    3.1291    2.2412   -4.7229 H   0  0  0  0  0  0  0  0  0  0  0  0
    0.6604    3.9165   -5.4422 H   0  0  0  0  0  0  0  0  0  0  0  0
    2.0809    3.6672   -6.4809 H   0  0  0  0  0  0  0  0  0  0  0  0
    1.0290    2.2966   -6.0751 H   0  0  0  0  0  0  0  0  0  0  0  0
    4.0622    4.7751   -4.5728 N   0  0  0  0  0  0  0  0  0  0  0  0
    4.7296    5.9907   -4.1219 C   0  0  0  0  0  0  0  0  0  0  0  0
    4.4126    4.2980   -5.3981 H   0  0  0  0  0  0  0  0  0  0  0  0
    4.0396    6.8404   -4.1546 H   0  0  0  0  0  0  0  0  0  0  0  0
    5.0933    5.8715   -3.0958 H   0  0  0  0  0  0  0  0  0  0  0  0
    5.5849    6.2146   -4.7668 H   0  0  0  0  0  0  0  0  0  0  0  0
  1  2  2  0  0  0  0
  1  3  1  0  0  0  0
  1  7  1  0  0  0  0
  3  4  1  0  0  0  0
  3  5  1  0  0  0  0
  3  6  1  0  0  0  0
  7  8  1  0  0  0  0
  7 13  1  0  0  0  0
  8  9  1  0  0  0  0
  8 11  1  0  0  0  0
  8 14  1  0  0  0  0
  9 10  2  0  0  0  0
  9 17  1  0  0  0  0
 11 12  1  0  0  0  0
 11 15  1  0  0  0  0
 11 16  1  0  0  0  0
 12 44  1  0  0  0  0
 17 18  1  0  0  0  0
 17 19  1  0  0  0  0
 18 20  1  0  0  0  0
 18 21  1  0  0  0  0
 18 22  1  0  0  0  0
 23 24  2  0  0  0  0
 23 25  1  0  0  0  0
 23 29  1  0  0  0  0
 25 26  1  0  0  0  0
 25 27  1  0  0  0  0
 25 28  1  0  0  0  0
 29 30  1  0  0  0  0
 29 34  1  0  0  0  0
 30 31  1  0  0  0  0
 30 33  1  0  0  0  0
 30 35  1  0  0  0  0
 31 32  2  0  0  0  0
 31 39  1  0  0  0  0
 33 36  1  0  0  0  0
 33 37  1  0  0  0  0
 33 38  1  0  0  0  0
 39 40  1  0  0  0  0
 39 45  1  0  0  0  0
 40 41  1  0  0  0  0
 40 43  1  0  0  0  0
 40 46  1  0  0  0  0
 41 42  2  0  0  0  0
 41 49  1  0  0  0  0
 43 44  1  0  0  0  0
 43 47  1  0  0  0  0
 43 48  1  0  0  0  0
 49 50  1  0  0  0  0
 49 54  1  0  0  0  0
 50 51  1  0  0  0  0
 50 53  1  0  0  0  0
 50 55  1  0  0  0  0
 51 52  2  0  0  0  0
 51 59  1  0  0  0  0
 53 56  1  0  0  0  0
 53 57  1  0  0  0  0
 53 58  1  0  0  0  0
 59 60  1  0  0  0  0
 59 61  1  0  0  0  0
 60 62  1  0  0  0  0
 60 63  1  0  0  0  0
 60 64  1  0  0  0  0
M  END
$$$$

  -OEChem-05262216053D

 64 63  0     1  0  0  0  0  0999 V2000
   -0.5357   -6.8302    1.3271 C   0  0  0  0  0  0  0  0  0  0  0  0
   -1.6399   -6.8504    0.8061 O   0  0  0  0  0  0  0  0  0  0  0  0
   -0.3490   -7.3304    2.7470 C   0  0  0  0  0  0  0  0  0  0  0  0
    0.1066   -6.5491    3.3604 H   0  0  0  0  0  0  0  0  0  0  0  0
   -1.3151   -7.6000    3.1823 H   0  0  0  0  0  0  0  0  0  0  0  0
    0.2975   -8.2111    2.7505 H   0  0  0  0  0  0  0  0  0  0  0  0
    0.5436   -6.3530    0.6171 N   0  0  0  0  0  0  0  0  0  0  0  0
    0.4831   -5.8519   -0.7633 C   0  0  2  0  0  0  0  0  0  0  0  0
    1.8563   -5.9275   -1.4664 C   0  0  0  0  0  0  0  0  0  0  0  0
    2.8431   -6.3249   -0.8559 O   0  0  0  0  0  0  0  0  0  0  0  0
   -0.0503   -4.4105   -0.7568 C   0  0  0  0  0  0  0  0  0  0  0  0
    1.0591   -3.2901    0.1905 S   0  0  0  0  0  0  0  0  0  0  0  0
    1.4639   -6.4054    1.0518 H   0  0  0  0  0  0  0  0  0  0  0  0
   -0.2038   -6.4800   -1.3398 H   0  0  0  0  0  0  0  0  0  0  0  0
   -0.1460   -4.0439   -1.7825 H   0  0  0  0  0  0  0  0  0  0  0  0
   -1.0485   -4.3919   -0.3067 H   0  0  0  0  0  0  0  0  0  0  0  0
    1.9878   -5.5784   -2.7993 N   0  0  0  0  0  0  0  0  0  0  0  0
    3.2623   -5.5961   -3.5074 C   0  0  0  0  0  0  0  0  0  0  0  0
    1.1607   -5.2483   -3.2872 H   0  0  0  0  0  0  0  0  0  0  0  0
    3.9663   -4.8957   -3.0458 H   0  0  0  0  0  0  0  0  0  0  0  0
    3.7002   -6.5997   -3.4864 H   0  0  0  0  0  0  0  0  0  0  0  0
    3.1184   -5.3043   -4.5523 H   0  0  0  0  0  0  0  0  0  0  0  0
   -5.6055    1.1849   -1.2621 C   0  0  0  0  0  0  0  0  0  0  0  0
   -6.0522    0.2119   -1.8489 O   0  0  0  0  0  0  0  0  0  0  0  0
   -6.4252    1.8664   -0.1830 C   0  0  0  0  0  0  0  0  0  0  0  0
   -6.5691    2.9199   -0.4339 H   0  0  0  0  0  0  0  0  0  0  0  0
   -7.4046    1.3879   -0.0952 H   0  0  0  0  0  0  0  0  0  0  0  0
   -5.9103    1.7936    0.7781 H   0  0  0  0  0  0  0  0  0  0  0  0
   -4.3499    1.6604   -1.5762 N   0  0  0  0  0  0  0  0  0  0  0  0
   -3.4164    0.9858   -2.4871 C   0  0  2  0  0  0  0  0  0  0  0  0
   -1.9496    1.2026   -2.0639 C   0  0  0  0  0  0  0  0  0  0  0  0
   -1.6429    2.1607   -1.3633 O   0  0  0  0  0  0  0  0  0  0  0  0
   -3.6490    1.5183   -3.9039 C   0  0  0  0  0  0  0  0  0  0  0  0
   -3.9708    2.4083   -0.9962 H   0  0  0  0  0  0  0  0  0  0  0  0
   -3.6036   -0.0933   -2.4726 H   0  0  0  0  0  0  0  0  0  0  0  0
   -3.4709    2.5978   -3.9409 H   0  0  0  0  0  0  0  0  0  0  0  0
   -2.9756    1.0288   -4.6137 H   0  0  0  0  0  0  0  0  0  0  0  0
   -4.6799    1.3242   -4.2173 H   0  0  0  0  0  0  0  0  0  0  0  0
   -0.9654    0.3307   -2.4876 N   0  0  0  0  0  0  0  0  0  0  0  0
    0.4557    0.4446   -2.1253 C   0  0  2  0  0  0  0  0  0  0  0  0
    1.2839    0.9775   -3.3087 C   0  0  0  0  0  0  0  0  0  0  0  0
    1.5410    0.2477   -4.2601 O   0  0  0  0  0  0  0  0  0  0  0  0
    0.9643   -0.9326   -1.6805 C   0  0  0  0  0  0  0  0  0  0  0  0
    0.1139   -1.4619   -0.1401 S   0  0  0  0  0  0  0  0  0  0  0  0
   -1.2442   -0.4219   -3.1105 H   0  0  0  0  0  0  0  0  0  0  0  0
    0.5919    1.1335   -1.2845 H   0  0  0  0  0  0  0  0  0  0  0  0
    0.7975   -1.6714   -2.4707 H   0  0  0  0  0  0  0  0  0  0  0  0
    2.0418   -0.8836   -1.4921 H   0  0  0  0  0  0  0  0  0  0  0  0
    1.7364    2.2825   -3.3115 N   0  0  0  0  0  0  0  0  0  0  0  0
    2.6615    2.8475   -4.3031 C   0  0  2  0  0  0  0  0  0  0  0  0
    3.6291    3.8688   -3.6669 C   0  0  0  0  0  0  0  0  0  0  0  0
    3.4398    4.2695   -2.5242 O   0  0  0  0  0  0  0  0  0  0  0  0
    1.8342    3.5027   -5.4130 C   0  0  0  0  0  0  0  0  0  0  0  0
    1.5550    2.8436   -2.4777 H   0  0  0  0  0  0  0  0  0  0  0  0
    3.2738    2.0489   -4.7349 H   0  0  0  0  0  0  0  0  0  0  0  0
    1.2300    4.3206   -5.0075 H   0  0  0  0  0  0  0  0  0  0  0  0
    2.4871    3.9050   -6.1934 H   0  0  0  0  0  0  0  0  0  0  0  0
    1.1637    2.7681   -5.8702 H   0  0  0  0  0  0  0  0  0  0  0  0
    4.7265    4.3284   -4.3721 N   0  0  0  0  0  0  0  0  0  0  0  0
    5.7017    5.2607   -3.8185 C   0  0  0  0  0  0  0  0  0  0  0  0
    4.8764    3.9574   -5.3055 H   0  0  0  0  0  0  0  0  0  0  0  0
    5.2037    6.1595   -3.4395 H   0  0  0  0  0  0  0  0  0  0  0  0
    6.2555    4.7926   -2.9980 H   0  0  0  0  0  0  0  0  0  0  0  0
    6.4154    5.5642   -4.5904 H   0  0  0  0  0  0  0  0  0  0  0  0
  1  2  2  0  0  0  0
  1  3  1  0  0  0  0
  1  7  1  0  0  0  0
  3  4  1  0  0  0  0
  3  5  1  0  0  0  0
  3  6  1  0  0  0  0
  7  8  1  0  0  0  0
  7 13  1  0  0  0  0
  8  9  1  0  0  0  0
  8 11  1  0  0  0  0
  8 14  1  0  0  0  0
  9 10  2  0  0  0  0
  9 17  1  0  0  0  0
 11 12  1  0  0  0  0
 11 15  1  0  0  0  0
 11 16  1  0  0  0  0
 12 44  1  0  0  0  0
 17 18  1  0  0  0  0
 17 19  1  0  0  0  0
 18 20  1  0  0  0  0
 18 21  1  0  0  0  0
 18 22  1  0  0  0  0
 23 24  2  0  0  0  0
 23 25  1  0  0  0  0
 23 29  1  0  0  0  0
 25 26  1  0  0  0  0
 25 27  1  0  0  0  0
 25 28  1  0  0  0  0
 29 30  1  0  0  0  0
 29 34  1  0  0  0  0
 30 31  1  0  0  0  0
 30 33  1  0  0  0  0
 30 35  1  0  0  0  0
 31 32  2  0  0  0  0
 31 39  1  0  0  0  0
 33 36  1  0  0  0  0
 33 37  1  0  0  0  0
 33 38  1  0  0  0  0
 39 40  1  0  0  0  0
 39 45  1  0  0  0  0
 40 41  1  0  0  0  0
 40 43  1  0  0  0  0
 40 46  1  0  0  0  0
 41 42  2  0  0  0  0
 41 49  1  0  0  0  0
 43 44  1  0  0  0  0
 43 47  1  0  0  0  0
 43 48  1  0  0  0  0
 49 50  1  0  0  0  0
 49 54  1  0  0  0  0
 50 51  1  0  0  0  0
 50 53  1  0  0  0  0
 50 55  1  0  0  0  0
 51 52  2  0  0  0  0
 51 59  1  0  0  0  0
 53 56  1  0  0  0  0
 53 57  1  0  0  0  0
 53 58  1  0  0  0  0
 59 60  1  0  0  0  0
 59 61  1  0  0  0  0
 60 62  1  0  0  0  0
 60 63  1  0  0  0  0
 60 64  1  0  0  0  0
M  END
$$$$

  -OEChem-05262216053D

 64 63  0     1  0  0  0  0  0999 V2000
   -0.5099   -6.9071    1.2444 C   0  0  0  0  0  0  0  0  0  0  0  0
   -1.6119   -6.8976    0.7181 O   0  0  0  0  0  0  0  0  0  0  0  0
   -0.3350   -7.4571    2.6468 C   0  0  0  0  0  0  0  0  0  0  0  0
    0.1313   -6.7037    3.2865 H   0  0  0  0  0  0  0  0  0  0  0  0
   -1.3071   -7.7248    3.0701 H   0  0  0  0  0  0  0  0  0  0  0  0
    0.2980   -8.3474    2.6220 H   0  0  0  0  0  0  0  0  0  0  0  0
    0.5777   -6.4124    0.5595 N   0  0  0  0  0  0  0  0  0  0  0  0
    0.5248   -5.8369   -0.7912 C   0  0  2  0  0  0  0  0  0  0  0  0
    1.9016   -5.8765   -1.4904 C   0  0  0  0  0  0  0  0  0  0  0  0
    2.8894   -6.2875   -0.8906 O   0  0  0  0  0  0  0  0  0  0  0  0
   -0.0069   -4.3975   -0.7056 C   0  0  0  0  0  0  0  0  0  0  0  0
    1.0985   -3.3296    0.3050 S   0  0  0  0  0  0  0  0  0  0  0  0
    1.4935   -6.4749    1.0024 H   0  0  0  0  0  0  0  0  0  0  0  0
   -0.1609   -6.4311   -1.4044 H   0  0  0  0  0  0  0  0  0  0  0  0
   -0.0993   -3.9763   -1.7100 H   0  0  0  0  0  0  0  0  0  0  0  0
   -1.0063   -4.4018   -0.2585 H   0  0  0  0  0  0  0  0  0  0  0  0
    2.0337   -5.4844   -2.8114 N   0  0  0  0  0  0  0  0  0  0  0  0
    3.3044   -5.5009   -3.5260 C   0  0  0  0  0  0  0  0  0  0  0  0
    1.2001   -5.1718   -3.2997 H   0  0  0  0  0  0  0  0  0  0  0  0
    4.0441   -4.8819   -3.0069 H   0  0  0  0  0  0  0  0  0  0  0  0
    3.6894   -6.5236   -3.5993 H   0  0  0  0  0  0  0  0  0  0  0  0
    3.1748   -5.1065   -4.5385 H   0  0  0  0  0  0  0  0  0  0  0  0
   -5.6344    1.3981   -1.3441 C   0  0  0  0  0  0  0  0  0  0  0  0
   -6.1222    0.4298   -1.9051 O   0  0  0  0  0  0  0  0  0  0  0  0
   -6.4556    2.1975   -0.3500 C   0  0  0  0  0  0  0  0  0  0  0  0
   -6.4523    3.2544   -0.6265 H   0  0  0  0  0  0  0  0  0  0  0  0
   -7.4889    1.8398   -0.3402 H   0  0  0  0  0  0  0  0  0  0  0  0
   -6.0345    2.0886    0.6524 H   0  0  0  0  0  0  0  0  0  0  0  0
   -4.3281    1.7565   -1.6009 N   0  0  0  0  0  0  0  0  0  0  0  0
   -3.3928    0.9601   -2.4060 C   0  0  2  0  0  0  0  0  0  0  0  0
   -1.9351    1.1574   -1.9415 C   0  0  0  0  0  0  0  0  0  0  0  0
   -1.6365    2.1120   -1.2321 O   0  0  0  0  0  0  0  0  0  0  0  0
   -3.5460    1.3627   -3.8765 C   0  0  0  0  0  0  0  0  0  0  0  0
   -3.9255    2.5026   -1.0343 H   0  0  0  0  0  0  0  0  0  0  0  0
   -3.6282   -0.1041   -2.2959 H   0  0  0  0  0  0  0  0  0  0  0  0
   -3.3172    2.4251   -4.0083 H   0  0  0  0  0  0  0  0  0  0  0  0
   -2.8700    0.7793   -4.5088 H   0  0  0  0  0  0  0  0  0  0  0  0
   -4.5719    1.1830   -4.2137 H   0  0  0  0  0  0  0  0  0  0  0  0
   -0.9503    0.2740   -2.3398 N   0  0  0  0  0  0  0  0  0  0  0  0
    0.4726    0.4045   -1.9887 C   0  0  2  0  0  0  0  0  0  0  0  0
    1.2919    0.8982   -3.1941 C   0  0  0  0  0  0  0  0  0  0  0  0
    1.3175    0.2343   -4.2252 O   0  0  0  0  0  0  0  0  0  0  0  0
    0.9997   -0.9585   -1.5264 C   0  0  0  0  0  0  0  0  0  0  0  0
    0.1734   -1.4830    0.0281 S   0  0  0  0  0  0  0  0  0  0  0  0
   -1.2121   -0.4405   -3.0135 H   0  0  0  0  0  0  0  0  0  0  0  0
    0.6089    1.1164   -1.1673 H   0  0  0  0  0  0  0  0  0  0  0  0
    0.8329   -1.7081   -2.3060 H   0  0  0  0  0  0  0  0  0  0  0  0
    2.0786   -0.8963   -1.3497 H   0  0  0  0  0  0  0  0  0  0  0  0
    2.0012    2.0811   -3.1279 N   0  0  0  0  0  0  0  0  0  0  0  0
    2.9149    2.5702   -4.1680 C   0  0  2  0  0  0  0  0  0  0  0  0
    4.1054    3.3422   -3.5597 C   0  0  0  0  0  0  0  0  0  0  0  0
    4.0894    3.6673   -2.3778 O   0  0  0  0  0  0  0  0  0  0  0  0
    2.1170    3.4647   -5.1211 C   0  0  0  0  0  0  0  0  0  0  0  0
    2.0200    2.5719   -2.2330 H   0  0  0  0  0  0  0  0  0  0  0  0
    3.3290    1.7245   -4.7272 H   0  0  0  0  0  0  0  0  0  0  0  0
    1.7076    4.3261   -4.5835 H   0  0  0  0  0  0  0  0  0  0  0  0
    2.7538    3.8301   -5.9322 H   0  0  0  0  0  0  0  0  0  0  0  0
    1.2874    2.9026   -5.5612 H   0  0  0  0  0  0  0  0  0  0  0  0
    5.2061    3.6598   -4.3344 N   0  0  0  0  0  0  0  0  0  0  0  0
    6.3652    4.3803   -3.8205 C   0  0  0  0  0  0  0  0  0  0  0  0
    5.1977    3.3709   -5.3082 H   0  0  0  0  0  0  0  0  0  0  0  0
    6.0728    5.3747   -3.4670 H   0  0  0  0  0  0  0  0  0  0  0  0
    6.8214    3.8313   -2.9898 H   0  0  0  0  0  0  0  0  0  0  0  0
    7.1155    4.5002   -4.6079 H   0  0  0  0  0  0  0  0  0  0  0  0
  1  2  2  0  0  0  0
  1  3  1  0  0  0  0
  1  7  1  0  0  0  0
  3  4  1  0  0  0  0
  3  5  1  0  0  0  0
  3  6  1  0  0  0  0
  7  8  1  0  0  0  0
  7 13  1  0  0  0  0
  8  9  1  0  0  0  0
  8 11  1  0  0  0  0
  8 14  1  0  0  0  0
  9 10  2  0  0  0  0
  9 17  1  0  0  0  0
 11 12  1  0  0  0  0
 11 15  1  0  0  0  0
 11 16  1  0  0  0  0
 12 44  1  0  0  0  0
 17 18  1  0  0  0  0
 17 19  1  0  0  0  0
 18 20  1  0  0  0  0
 18 21  1  0  0  0  0
 18 22  1  0  0  0  0
 23 24  2  0  0  0  0
 23 25  1  0  0  0  0
 23 29  1  0  0  0  0
 25 26  1  0  0  0  0
 25 27  1  0  0  0  0
 25 28  1  0  0  0  0
 29 30  1  0  0  0  0
 29 34  1  0  0  0  0
 30 31  1  0  0  0  0
 30 33  1  0  0  0  0
 30 35  1  0  0  0  0
 31 32  2  0  0  0  0
 31 39  1  0  0  0  0
 33 36  1  0  0  0  0
 33 37  1  0  0  0  0
 33 38  1  0  0  0  0
 39 40  1  0  0  0  0
 39 45  1  0  0  0  0
 40 41  1  0  0  0  0
 40 43  1  0  0  0  0
 40 46  1  0  0  0  0
 41 42  2  0  0  0  0
 41 49  1  0  0  0  0
 43 44  1  0  0  0  0
 43 47  1  0  0  0  0
 43 48  1  0  0  0  0
 49 50  1  0  0  0  0
 49 54  1  0  0  0  0
 50 51  1  0  0  0  0
 50 53  1  0  0  0  0
 50 55  1  0  0  0  0
 51 52  2  0  0  0  0
 51 59  1  0  0  0  0
 53 56  1  0  0  0  0
 53 57  1  0  0  0  0
 53 58  1  0  0  0  0
 59 60  1  0  0  0  0
 59 61  1  0  0  0  0
 60 62  1  0  0  0  0
 60 63  1  0  0  0  0
 60 64  1  0  0  0  0
M  END
$$$$

  -OEChem-05262216053D

 64 63  0     1  0  0  0  0  0999 V2000
   -0.5023   -6.8278    1.3625 C   0  0  0  0  0  0  0  0  0  0  0  0
   -1.6161   -6.8404    0.8621 O   0  0  0  0  0  0  0  0  0  0  0  0
   -0.2916   -7.3351    2.7764 C   0  0  0  0  0  0  0  0  0  0  0  0
    0.1444   -6.5457    3.3935 H   0  0  0  0  0  0  0  0  0  0  0  0
   -1.2469   -7.6377    3.2145 H   0  0  0  0  0  0  0  0  0  0  0  0
    0.3819   -8.1954    2.7686 H   0  0  0  0  0  0  0  0  0  0  0  0
    0.5657   -6.3478    0.6375 N   0  0  0  0  0  0  0  0  0  0  0  0
    0.4811   -5.8346   -0.7373 C   0  0  2  0  0  0  0  0  0  0  0  0
    1.8333   -5.9372   -1.4774 C   0  0  0  0  0  0  0  0  0  0  0  0
    2.8312   -6.3451   -0.8923 O   0  0  0  0  0  0  0  0  0  0  0  0
   -0.0174   -4.3814   -0.7023 C   0  0  0  0  0  0  0  0  0  0  0  0
    1.1497   -3.2952    0.2154 S   0  0  0  0  0  0  0  0  0  0  0  0
    1.4935   -6.4072    1.0554 H   0  0  0  0  0  0  0  0  0  0  0  0
   -0.2365   -6.4401   -1.3012 H   0  0  0  0  0  0  0  0  0  0  0  0
   -0.1410   -4.0050   -1.7214 H   0  0  0  0  0  0  0  0  0  0  0  0
   -0.9982   -4.3435   -0.2170 H   0  0  0  0  0  0  0  0  0  0  0  0
    1.9313   -5.6043   -2.8175 N   0  0  0  0  0  0  0  0  0  0  0  0
    3.1794   -5.6714   -3.5683 C   0  0  0  0  0  0  0  0  0  0  0  0
    1.0924   -5.2777   -3.2875 H   0  0  0  0  0  0  0  0  0  0  0  0
    3.9237   -4.9948   -3.1349 H   0  0  0  0  0  0  0  0  0  0  0  0
    3.5801   -6.6904   -3.5564 H   0  0  0  0  0  0  0  0  0  0  0  0
    3.0110   -5.3798   -4.6095 H   0  0  0  0  0  0  0  0  0  0  0  0
   -5.6235    1.1983   -1.3696 C   0  0  0  0  0  0  0  0  0  0  0  0
   -6.0550    0.2637   -2.0260 O   0  0  0  0  0  0  0  0  0  0  0  0
   -6.4908    1.8434   -0.3050 C   0  0  0  0  0  0  0  0  0  0  0  0
   -6.6437    2.8998   -0.5382 H   0  0  0  0  0  0  0  0  0  0  0  0
   -7.4646    1.3472   -0.2619 H   0  0  0  0  0  0  0  0  0  0  0  0
   -6.0089    1.7586    0.6722 H   0  0  0  0  0  0  0  0  0  0  0  0
   -4.3436    1.6617   -1.5903 N   0  0  0  0  0  0  0  0  0  0  0  0
   -3.3730    1.0121   -2.4813 C   0  0  2  0  0  0  0  0  0  0  0  0
   -1.9270    1.1791   -1.9715 C   0  0  0  0  0  0  0  0  0  0  0  0
   -1.6444    2.0915   -1.2027 O   0  0  0  0  0  0  0  0  0  0  0  0
   -3.5167    1.6151   -3.8820 C   0  0  0  0  0  0  0  0  0  0  0  0
   -3.9820    2.3683   -0.9504 H   0  0  0  0  0  0  0  0  0  0  0  0
   -3.5784   -0.0630   -2.5269 H   0  0  0  0  0  0  0  0  0  0  0  0
   -3.3091    2.6897   -3.8579 H   0  0  0  0  0  0  0  0  0  0  0  0
   -2.8192    1.1405   -4.5790 H   0  0  0  0  0  0  0  0  0  0  0  0
   -4.5338    1.4648   -4.2576 H   0  0  0  0  0  0  0  0  0  0  0  0
   -0.9392    0.3087   -2.3907 N   0  0  0  0  0  0  0  0  0  0  0  0
    0.4879    0.4496   -2.0585 C   0  0  2  0  0  0  0  0  0  0  0  0
    1.2987    0.9596   -3.2633 C   0  0  0  0  0  0  0  0  0  0  0  0
    1.1290    0.4505   -4.3664 O   0  0  0  0  0  0  0  0  0  0  0  0
    1.0310   -0.9116   -1.6134 C   0  0  0  0  0  0  0  0  0  0  0  0
    0.2258   -1.4462   -0.0513 S   0  0  0  0  0  0  0  0  0  0  0  0
   -1.1841   -0.3315   -3.1415 H   0  0  0  0  0  0  0  0  0  0  0  0
    0.6245    1.1577   -1.2343 H   0  0  0  0  0  0  0  0  0  0  0  0
    0.8576   -1.6574   -2.3948 H   0  0  0  0  0  0  0  0  0  0  0  0
    2.1118   -0.8439   -1.4500 H   0  0  0  0  0  0  0  0  0  0  0  0
    2.2372    1.9616   -3.1108 N   0  0  0  0  0  0  0  0  0  0  0  0
    3.1823    2.3871   -4.1517 C   0  0  2  0  0  0  0  0  0  0  0  0
    4.5592    2.7432   -3.5518 C   0  0  0  0  0  0  0  0  0  0  0  0
    4.6901    2.8528   -2.3377 O   0  0  0  0  0  0  0  0  0  0  0  0
    2.5804    3.5921   -4.8790 C   0  0  0  0  0  0  0  0  0  0  0  0
    2.4393    2.2735   -2.1600 H   0  0  0  0  0  0  0  0  0  0  0  0
    3.3408    1.5750   -4.8693 H   0  0  0  0  0  0  0  0  0  0  0  0
    2.4287    4.4221   -4.1814 H   0  0  0  0  0  0  0  0  0  0  0  0
    3.2421    3.9280   -5.6828 H   0  0  0  0  0  0  0  0  0  0  0  0
    1.6141    3.3246   -5.3178 H   0  0  0  0  0  0  0  0  0  0  0  0
    5.6594    2.9211   -4.3705 N   0  0  0  0  0  0  0  0  0  0  0  0
    6.9922    3.2248   -3.8625 C   0  0  0  0  0  0  0  0  0  0  0  0
    5.5279    2.8066   -5.3713 H   0  0  0  0  0  0  0  0  0  0  0  0
    6.9830    4.1618   -3.2953 H   0  0  0  0  0  0  0  0  0  0  0  0
    7.3442    2.4205   -3.2078 H   0  0  0  0  0  0  0  0  0  0  0  0
    7.6987    3.3303   -4.6916 H   0  0  0  0  0  0  0  0  0  0  0  0
  1  2  2  0  0  0  0
  1  3  1  0  0  0  0
  1  7  1  0  0  0  0
  3  4  1  0  0  0  0
  3  5  1  0  0  0  0
  3  6  1  0  0  0  0
  7  8  1  0  0  0  0
  7 13  1  0  0  0  0
  8  9  1  0  0  0  0
  8 11  1  0  0  0  0
  8 14  1  0  0  0  0
  9 10  2  0  0  0  0
  9 17  1  0  0  0  0
 11 12  1  0  0  0  0
 11 15  1  0  0  0  0
 11 16  1  0  0  0  0
 12 44  1  0  0  0  0
 17 18  1  0  0  0  0
 17 19  1  0  0  0  0
 18 20  1  0  0  0  0
 18 21  1  0  0  0  0
 18 22  1  0  0  0  0
 23 24  2  0  0  0  0
 23 25  1  0  0  0  0
 23 29  1  0  0  0  0
 25 26  1  0  0  0  0
 25 27  1  0  0  0  0
 25 28  1  0  0  0  0
 29 30  1  0  0  0  0
 29 34  1  0  0  0  0
 30 31  1  0  0  0  0
 30 33  1  0  0  0  0
 30 35  1  0  0  0  0
 31 32  2  0  0  0  0
 31 39  1  0  0  0  0
 33 36  1  0  0  0  0
 33 37  1  0  0  0  0
 33 38  1  0  0  0  0
 39 40  1  0  0  0  0
 39 45  1  0  0  0  0
 40 41  1  0  0  0  0
 40 43  1  0  0  0  0
 40 46  1  0  0  0  0
 41 42  2  0  0  0  0
 41 49  1  0  0  0  0
 43 44  1  0  0  0  0
 43 47  1  0  0  0  0
 43 48  1  0  0  0  0
 49 50  1  0  0  0  0
 49 54  1  0  0  0  0
 50 51  1  0  0  0  0
 50 53  1  0  0  0  0
 50 55  1  0  0  0  0
 51 52  2  0  0  0  0
 51 59  1  0  0  0  0
 53 56  1  0  0  0  0
 53 57  1  0  0  0  0
 53 58  1  0  0  0  0
 59 60  1  0  0  0  0
 59 61  1  0  0  0  0
 60 62  1  0  0  0  0
 60 63  1  0  0  0  0
 60 64  1  0  0  0  0
M  END
$$$$

  -OEChem-05262216053D

 64 63  0     1  0  0  0  0  0999 V2000
   -0.4905   -6.8004    1.3915 C   0  0  0  0  0  0  0  0  0  0  0  0
   -1.6084   -6.8056    0.9000 O   0  0  0  0  0  0  0  0  0  0  0  0
   -0.2676   -7.3267    2.7965 C   0  0  0  0  0  0  0  0  0  0  0  0
    0.1727   -6.5456    3.4215 H   0  0  0  0  0  0  0  0  0  0  0  0
   -1.2186   -7.6372    3.2382 H   0  0  0  0  0  0  0  0  0  0  0  0
    0.4066   -8.1861    2.7698 H   0  0  0  0  0  0  0  0  0  0  0  0
    0.5739   -6.3196    0.6617 N   0  0  0  0  0  0  0  0  0  0  0  0
    0.4838   -5.8143   -0.7153 C   0  0  2  0  0  0  0  0  0  0  0  0
    1.8271   -5.9402   -1.4663 C   0  0  0  0  0  0  0  0  0  0  0  0
    2.8250   -6.3561   -0.8869 O   0  0  0  0  0  0  0  0  0  0  0  0
    0.0014   -4.3556   -0.6875 C   0  0  0  0  0  0  0  0  0  0  0  0
    1.1835   -3.2745    0.2169 S   0  0  0  0  0  0  0  0  0  0  0  0
    1.5046   -6.3888    1.0713 H   0  0  0  0  0  0  0  0  0  0  0  0
   -0.2442   -6.4159   -1.2693 H   0  0  0  0  0  0  0  0  0  0  0  0
   -0.1222   -3.9839   -1.7084 H   0  0  0  0  0  0  0  0  0  0  0  0
   -0.9770   -4.3050   -0.1983 H   0  0  0  0  0  0  0  0  0  0  0  0
    1.9138   -5.6281   -2.8119 N   0  0  0  0  0  0  0  0  0  0  0  0
    3.1465   -5.7472   -3.5813 C   0  0  0  0  0  0  0  0  0  0  0  0
    1.0707   -5.3109   -3.2806 H   0  0  0  0  0  0  0  0  0  0  0  0
    3.9208   -5.0925   -3.1674 H   0  0  0  0  0  0  0  0  0  0  0  0
    3.5110   -6.7797   -3.5634 H   0  0  0  0  0  0  0  0  0  0  0  0
    2.9723   -5.4612   -4.6230 H   0  0  0  0  0  0  0  0  0  0  0  0
   -5.6151    1.1688   -1.3945 C   0  0  0  0  0  0  0  0  0  0  0  0
   -6.0409    0.2536   -2.0815 O   0  0  0  0  0  0  0  0  0  0  0  0
   -6.4819    1.7670   -0.3026 C   0  0  0  0  0  0  0  0  0  0  0  0
   -6.6784    2.8201   -0.5179 H   0  0  0  0  0  0  0  0  0  0  0  0
   -7.4352    1.2339   -0.2452 H   0  0  0  0  0  0  0  0  0  0  0  0
   -5.9754    1.6868    0.6626 H   0  0  0  0  0  0  0  0  0  0  0  0
   -4.3410    1.6527   -1.6045 N   0  0  0  0  0  0  0  0  0  0  0  0
   -3.3607    1.0308   -2.5041 C   0  0  2  0  0  0  0  0  0  0  0  0
   -1.9245    1.1673   -1.9597 C   0  0  0  0  0  0  0  0  0  0  0  0
   -1.6524    2.0536   -1.1566 O   0  0  0  0  0  0  0  0  0  0  0  0
   -3.4771    1.6919   -3.8806 C   0  0  0  0  0  0  0  0  0  0  0  0
   -3.9842    2.3402   -0.9414 H   0  0  0  0  0  0  0  0  0  0  0  0
   -3.5725   -0.0400   -2.5987 H   0  0  0  0  0  0  0  0  0  0  0  0
   -3.2680    2.7643   -3.8088 H   0  0  0  0  0  0  0  0  0  0  0  0
   -2.7674    1.2448   -4.5837 H   0  0  0  0  0  0  0  0  0  0  0  0
   -4.4882    1.5592   -4.2792 H   0  0  0  0  0  0  0  0  0  0  0  0
   -0.9373    0.3006   -2.3880 N   0  0  0  0  0  0  0  0  0  0  0  0
    0.4914    0.4622   -2.0716 C   0  0  2  0  0  0  0  0  0  0  0  0
    1.2846    0.9738   -3.2880 C   0  0  0  0  0  0  0  0  0  0  0  0
    0.9555    0.6313   -4.4192 O   0  0  0  0  0  0  0  0  0  0  0  0
    1.0539   -0.8906   -1.6234 C   0  0  0  0  0  0  0  0  0  0  0  0
    0.2679   -1.4212   -0.0496 S   0  0  0  0  0  0  0  0  0  0  0  0
   -1.1705   -0.2832   -3.1872 H   0  0  0  0  0  0  0  0  0  0  0  0
    0.6293    1.1792   -1.2555 H   0  0  0  0  0  0  0  0  0  0  0  0
    0.8784   -1.6427   -2.3984 H   0  0  0  0  0  0  0  0  0  0  0  0
    2.1357   -0.8128   -1.4712 H   0  0  0  0  0  0  0  0  0  0  0  0
    2.4102    1.7546   -3.1114 N   0  0  0  0  0  0  0  0  0  0  0  0
    3.3619    2.1032   -4.1749 C   0  0  2  0  0  0  0  0  0  0  0  0
    4.8174    2.0465   -3.6642 C   0  0  0  0  0  0  0  0  0  0  0  0
    5.0421    1.9232   -2.4652 O   0  0  0  0  0  0  0  0  0  0  0  0
    3.0143    3.5043   -4.6857 C   0  0  0  0  0  0  0  0  0  0  0  0
    2.7341    1.8928   -2.1536 H   0  0  0  0  0  0  0  0  0  0  0  0
    3.2815    1.3900   -5.0017 H   0  0  0  0  0  0  0  0  0  0  0  0
    3.1030    4.2401   -3.8798 H   0  0  0  0  0  0  0  0  0  0  0  0
    3.6857    3.7957   -5.4987 H   0  0  0  0  0  0  0  0  0  0  0  0
    1.9870    3.5237   -5.0636 H   0  0  0  0  0  0  0  0  0  0  0  0
    5.8789    2.1090   -4.5482 N   0  0  0  0  0  0  0  0  0  0  0  0
    7.2731    2.0292   -4.1280 C   0  0  0  0  0  0  0  0  0  0  0  0
    5.6670    2.1907   -5.5382 H   0  0  0  0  0  0  0  0  0  0  0  0
    7.4988    2.8113   -3.3955 H   0  0  0  0  0  0  0  0  0  0  0  0
    7.4818    1.0536   -3.6764 H   0  0  0  0  0  0  0  0  0  0  0  0
    7.9371    2.1619   -4.9875 H   0  0  0  0  0  0  0  0  0  0  0  0
  1  2  2  0  0  0  0
  1  3  1  0  0  0  0
  1  7  1  0  0  0  0
  3  4  1  0  0  0  0
  3  5  1  0  0  0  0
  3  6  1  0  0  0  0
  7  8  1  0  0  0  0
  7 13  1  0  0  0  0
  8  9  1  0  0  0  0
  8 11  1  0  0  0  0
  8 14  1  0  0  0  0
  9 10  2  0  0  0  0
  9 17  1  0  0  0  0
 11 12  1  0  0  0  0
 11 15  1  0  0  0  0
 11 16  1  0  0  0  0
 12 44  1  0  0  0  0
 17 18  1  0  0  0  0
 17 19  1  0  0  0  0
 18 20  1  0  0  0  0
 18 21  1  0  0  0  0
 18 22  1  0  0  0  0
 23 24  2  0  0  0  0
 23 25  1  0  0  0  0
 23 29  1  0  0  0  0
 25 26  1  0  0  0  0
 25 27  1  0  0  0  0
 25 28  1  0  0  0  0
 29 30  1  0  0  0  0
 29 34  1  0  0  0  0
 30 31  1  0  0  0  0
 30 33  1  0  0  0  0
 30 35  1  0  0  0  0
 31 32  2  0  0  0  0
 31 39  1  0  0  0  0
 33 36  1  0  0  0  0
 33 37  1  0  0  0  0
 33 38  1  0  0  0  0
 39 40  1  0  0  0  0
 39 45  1  0  0  0  0
 40 41  1  0  0  0  0
 40 43  1  0  0  0  0
 40 46  1  0  0  0  0
 41 42  2  0  0  0  0
 41 49  1  0  0  0  0
 43 44  1  0  0  0  0
 43 47  1  0  0  0  0
 43 48  1  0  0  0  0
 49 50  1  0  0  0  0
 49 54  1  0  0  0  0
 50 51  1  0  0  0  0
 50 53  1  0  0  0  0
 50 55  1  0  0  0  0
 51 52  2  0  0  0  0
 51 59  1  0  0  0  0
 53 56  1  0  0  0  0
 53 57  1  0  0  0  0
 53 58  1  0  0  0  0
 59 60  1  0  0  0  0
 59 61  1  0  0  0  0
 60 62  1  0  0  0  0
 60 63  1  0  0  0  0
 60 64  1  0  0  0  0
M  END
$$$$

  -OEChem-05262216053D

 64 63  0     1  0  0  0  0  0999 V2000
   -0.4859   -6.7948    1.4053 C   0  0  0  0  0  0  0  0  0  0  0  0
   -1.6033   -6.8029    0.9128 O   0  0  0  0  0  0  0  0  0  0  0  0
   -0.2645   -7.3244    2.8096 C   0  0  0  0  0  0  0  0  0  0  0  0
    0.1702   -6.5437    3.4384 H   0  0  0  0  0  0  0  0  0  0  0  0
   -1.2158   -7.6395    3.2476 H   0  0  0  0  0  0  0  0  0  0  0  0
    0.4135   -8.1809    2.7832 H   0  0  0  0  0  0  0  0  0  0  0  0
    0.5774   -6.3090    0.6767 N   0  0  0  0  0  0  0  0  0  0  0  0
    0.4873   -5.8171   -0.7052 C   0  0  2  0  0  0  0  0  0  0  0  0
    1.8256   -5.9652   -1.4614 C   0  0  0  0  0  0  0  0  0  0  0  0
    2.8204   -6.3906   -0.8836 O   0  0  0  0  0  0  0  0  0  0  0  0
    0.0208   -4.3531   -0.6897 C   0  0  0  0  0  0  0  0  0  0  0  0
    1.2191   -3.2726    0.1938 S   0  0  0  0  0  0  0  0  0  0  0  0
    1.5092   -6.3825    1.0832 H   0  0  0  0  0  0  0  0  0  0  0  0
   -0.2501   -6.4162   -1.2496 H   0  0  0  0  0  0  0  0  0  0  0  0
   -0.1065   -3.9915   -1.7136 H   0  0  0  0  0  0  0  0  0  0  0  0
   -0.9536   -4.2872   -0.1943 H   0  0  0  0  0  0  0  0  0  0  0  0
    1.9108   -5.6583   -2.8084 N   0  0  0  0  0  0  0  0  0  0  0  0
    3.1457   -5.7668   -3.5759 C   0  0  0  0  0  0  0  0  0  0  0  0
    1.0703   -5.3288   -3.2732 H   0  0  0  0  0  0  0  0  0  0  0  0
    3.9134   -5.1053   -3.1609 H   0  0  0  0  0  0  0  0  0  0  0  0
    3.5202   -6.7957   -3.5583 H   0  0  0  0  0  0  0  0  0  0  0  0
    2.9708   -5.4811   -4.6174 H   0  0  0  0  0  0  0  0  0  0  0  0
   -5.6155    1.1623   -1.4160 C   0  0  0  0  0  0  0  0  0  0  0  0
   -6.0416    0.2690   -2.1309 O   0  0  0  0  0  0  0  0  0  0  0  0
   -6.4845    1.7317   -0.3105 C   0  0  0  0  0  0  0  0  0  0  0  0
   -6.7068    2.7818   -0.5145 H   0  0  0  0  0  0  0  0  0  0  0  0
   -7.4252    1.1776   -0.2466 H   0  0  0  0  0  0  0  0  0  0  0  0
   -5.9658    1.6547    0.6481 H   0  0  0  0  0  0  0  0  0  0  0  0
   -4.3370    1.6437   -1.6027 N   0  0  0  0  0  0  0  0  0  0  0  0
   -3.3507    1.0377   -2.5065 C   0  0  2  0  0  0  0  0  0  0  0  0
   -1.9207    1.1531   -1.9411 C   0  0  0  0  0  0  0  0  0  0  0  0
   -1.6588    2.0081   -1.1016 O   0  0  0  0  0  0  0  0  0  0  0  0
   -3.4475    1.7306   -3.8687 C   0  0  0  0  0  0  0  0  0  0  0  0
   -3.9788    2.3027   -0.9121 H   0  0  0  0  0  0  0  0  0  0  0  0
   -3.5662   -0.0293   -2.6290 H   0  0  0  0  0  0  0  0  0  0  0  0
   -3.2477    2.8022   -3.7681 H   0  0  0  0  0  0  0  0  0  0  0  0
   -2.7225    1.3056   -4.5698 H   0  0  0  0  0  0  0  0  0  0  0  0
   -4.4504    1.6005   -4.2879 H   0  0  0  0  0  0  0  0  0  0  0  0
   -0.9316    0.2953   -2.3828 N   0  0  0  0  0  0  0  0  0  0  0  0
    0.4986    0.4733   -2.0784 C   0  0  2  0  0  0  0  0  0  0  0  0
    1.2797    0.9968   -3.2997 C   0  0  0  0  0  0  0  0  0  0  0  0
    0.8166    0.8643   -4.4283 O   0  0  0  0  0  0  0  0  0  0  0  0
    1.0701   -0.8790   -1.6359 C   0  0  0  0  0  0  0  0  0  0  0  0
    0.2992   -1.4185   -0.0576 S   0  0  0  0  0  0  0  0  0  0  0  0
   -1.1561   -0.2385   -3.2188 H   0  0  0  0  0  0  0  0  0  0  0  0
    0.6388    1.1915   -1.2634 H   0  0  0  0  0  0  0  0  0  0  0  0
    0.8913   -1.6301   -2.4112 H   0  0  0  0  0  0  0  0  0  0  0  0
    2.1523   -0.8000   -1.4893 H   0  0  0  0  0  0  0  0  0  0  0  0
    2.5495    1.5192   -3.1438 N   0  0  0  0  0  0  0  0  0  0  0  0
    3.4816    1.7907   -4.2466 C   0  0  2  0  0  0  0  0  0  0  0  0
    4.9126    1.3316   -3.8951 C   0  0  0  0  0  0  0  0  0  0  0  0
    5.1777    0.9763   -2.7519 O   0  0  0  0  0  0  0  0  0  0  0  0
    3.4463    3.2929   -4.5398 C   0  0  0  0  0  0  0  0  0  0  0  0
    2.9635    1.4573   -2.2131 H   0  0  0  0  0  0  0  0  0  0  0  0
    3.1781    1.2420   -5.1442 H   0  0  0  0  0  0  0  0  0  0  0  0
    3.7685    3.8623   -3.6619 H   0  0  0  0  0  0  0  0  0  0  0  0
    4.1075    3.5382   -5.3763 H   0  0  0  0  0  0  0  0  0  0  0  0
    2.4296    3.6024   -4.8024 H   0  0  0  0  0  0  0  0  0  0  0  0
    5.9000    1.2934   -4.8625 N   0  0  0  0  0  0  0  0  0  0  0  0
    7.2642    0.8536   -4.5933 C   0  0  0  0  0  0  0  0  0  0  0  0
    5.6521    1.5815   -5.8047 H   0  0  0  0  0  0  0  0  0  0  0  0
    7.7152    1.4622   -3.8021 H   0  0  0  0  0  0  0  0  0  0  0  0
    7.2729   -0.1955   -4.2788 H   0  0  0  0  0  0  0  0  0  0  0  0
    7.8787    0.9507   -5.4936 H   0  0  0  0  0  0  0  0  0  0  0  0
  1  2  2  0  0  0  0
  1  3  1  0  0  0  0
  1  7  1  0  0  0  0
  3  4  1  0  0  0  0
  3  5  1  0  0  0  0
  3  6  1  0  0  0  0
  7  8  1  0  0  0  0
  7 13  1  0  0  0  0
  8  9  1  0  0  0  0
  8 11  1  0  0  0  0
  8 14  1  0  0  0  0
  9 10  2  0  0  0  0
  9 17  1  0  0  0  0
 11 12  1  0  0  0  0
 11 15  1  0  0  0  0
 11 16  1  0  0  0  0
 12 44  1  0  0  0  0
 17 18  1  0  0  0  0
 17 19  1  0  0  0  0
 18 20  1  0  0  0  0
 18 21  1  0  0  0  0
 18 22  1  0  0  0  0
 23 24  2  0  0  0  0
 23 25  1  0  0  0  0
 23 29  1  0  0  0  0
 25 26  1  0  0  0  0
 25 27  1  0  0  0  0
 25 28  1  0  0  0  0
 29 30  1  0  0  0  0
 29 34  1  0  0  0  0
 30 31  1  0  0  0  0
 30 33  1  0  0  0  0
 30 35  1  0  0  0  0
 31 32  2  0  0  0  0
 31 39  1  0  0  0  0
 33 36  1  0  0  0  0
 33 37  1  0  0  0  0
 33 38  1  0  0  0  0
 39 40  1  0  0  0  0
 39 45  1  0  0  0  0
 40 41  1  0  0  0  0
 40 43  1  0  0  0  0
 40 46  1  0  0  0  0
 41 42  2  0  0  0  0
 41 49  1  0  0  0  0
 43 44  1  0  0  0  0
 43 47  1  0  0  0  0
 43 48  1  0  0  0  0
 49 50  1  0  0  0  0
 49 54  1  0  0  0  0
 50 51  1  0  0  0  0
 50 53  1  0  0  0  0
 50 55  1  0  0  0  0
 51 52  2  0  0  0  0
 51 59  1  0  0  0  0
 53 56  1  0  0  0  0
 53 57  1  0  0  0  0
 53 58  1  0  0  0  0
 59 60  1  0  0  0  0
 59 61  1  0  0  0  0
 60 62  1  0  0  0  0
 60 63  1  0  0  0  0
 60 64  1  0  0  0  0
M  END
$$$$

  -OEChem-05262216053D

 64 63  0     1  0  0  0  0  0999 V2000
   -0.0157   -7.5469   -0.5551 C   0  0  0  0  0  0  0  0  0  0  0  0
   -1.1356   -7.4771   -1.0370 O   0  0  0  0  0  0  0  0  0  0  0  0
    0.2391   -8.4004    0.6724 C   0  0  0  0  0  0  0  0  0  0  0  0
    0.6821   -7.7915    1.4643 H   0  0  0  0  0  0  0  0  0  0  0  0
   -0.7000   -8.8247    1.0380 H   0  0  0  0  0  0  0  0  0  0  0  0
    0.9223   -9.2157    0.4232 H   0  0  0  0  0  0  0  0  0  0  0  0
    1.0221   -6.8528   -1.1365 N   0  0  0  0  0  0  0  0  0  0  0  0
    0.9012   -6.0274   -2.3462 C   0  0  2  0  0  0  0  0  0  0  0  0
    2.2462   -5.8986   -3.0945 C   0  0  0  0  0  0  0  0  0  0  0  0
    3.2604   -6.4164   -2.6389 O   0  0  0  0  0  0  0  0  0  0  0  0
    0.3465   -4.6469   -1.9612 C   0  0  0  0  0  0  0  0  0  0  0  0
    1.4889   -3.7520   -0.8307 S   0  0  0  0  0  0  0  0  0  0  0  0
    1.9590   -6.9878   -0.7584 H   0  0  0  0  0  0  0  0  0  0  0  0
    0.2000   -6.5078   -3.0364 H   0  0  0  0  0  0  0  0  0  0  0  0
    0.1837   -4.0470   -2.8605 H   0  0  0  0  0  0  0  0  0  0  0  0
   -0.6235   -4.7691   -1.4678 H   0  0  0  0  0  0  0  0  0  0  0  0
    2.3183   -5.2336   -4.3062 N   0  0  0  0  0  0  0  0  0  0  0  0
    3.5621   -5.0574   -5.0464 C   0  0  0  0  0  0  0  0  0  0  0  0
    1.4653   -4.8229   -4.6730 H   0  0  0  0  0  0  0  0  0  0  0  0
    4.2863   -4.4936   -4.4488 H   0  0  0  0  0  0  0  0  0  0  0  0
    3.9976   -6.0290   -5.3029 H   0  0  0  0  0  0  0  0  0  0  0  0
    3.3765   -4.5070   -5.9736 H   0  0  0  0  0  0  0  0  0  0  0  0
   -5.6127    1.2035   -1.4588 C   0  0  0  0  0  0  0  0  0  0  0  0
   -6.0512    0.3653   -2.2306 O   0  0  0  0  0  0  0  0  0  0  0  0
   -6.4911    1.7489   -0.3489 C   0  0  0  0  0  0  0  0  0  0  0  0
   -6.6970    2.8075   -0.5239 H   0  0  0  0  0  0  0  0  0  0  0  0
   -7.4388    1.2041   -0.3168 H   0  0  0  0  0  0  0  0  0  0  0  0
   -5.9886    1.6365    0.6149 H   0  0  0  0  0  0  0  0  0  0  0  0
   -4.3143    1.6483   -1.5870 N   0  0  0  0  0  0  0  0  0  0  0  0
   -3.3264    1.0590   -2.4997 C   0  0  2  0  0  0  0  0  0  0  0  0
   -1.9098    1.0795   -1.8916 C   0  0  0  0  0  0  0  0  0  0  0  0
   -1.6368    1.8651   -0.9893 O   0  0  0  0  0  0  0  0  0  0  0  0
   -3.3540    1.8386   -3.8174 C   0  0  0  0  0  0  0  0  0  0  0  0
   -3.9539    2.2611   -0.8562 H   0  0  0  0  0  0  0  0  0  0  0  0
   -3.5805    0.0116   -2.6952 H   0  0  0  0  0  0  0  0  0  0  0  0
   -3.1074    2.8910   -3.6447 H   0  0  0  0  0  0  0  0  0  0  0  0
   -2.6296    1.4247   -4.5256 H   0  0  0  0  0  0  0  0  0  0  0  0
   -4.3494    1.7824   -4.2691 H   0  0  0  0  0  0  0  0  0  0  0  0
   -0.9404    0.2175   -2.3688 N   0  0  0  0  0  0  0  0  0  0  0  0
    0.4907    0.3964   -2.0673 C   0  0  2  0  0  0  0  0  0  0  0  0
    1.2039    1.2771   -3.1179 C   0  0  0  0  0  0  0  0  0  0  0  0
    0.6198    1.6214   -4.1406 O   0  0  0  0  0  0  0  0  0  0  0  0
    1.1380   -0.9948   -2.0061 C   0  0  0  0  0  0  0  0  0  0  0  0
    0.4513   -1.9582   -0.6001 S   0  0  0  0  0  0  0  0  0  0  0  0
   -1.1744   -0.2552   -3.2367 H   0  0  0  0  0  0  0  0  0  0  0  0
    0.6208    0.8772   -1.0919 H   0  0  0  0  0  0  0  0  0  0  0  0
    0.9630   -1.5303   -2.9437 H   0  0  0  0  0  0  0  0  0  0  0  0
    2.2210   -0.9057   -1.8709 H   0  0  0  0  0  0  0  0  0  0  0  0
    2.5529    1.5532   -2.9923 N   0  0  0  0  0  0  0  0  0  0  0  0
    3.3996    2.1043   -4.0596 C   0  0  2  0  0  0  0  0  0  0  0  0
    4.7490    1.3578   -4.1398 C   0  0  0  0  0  0  0  0  0  0  0  0
    5.0394    0.5242   -3.2884 O   0  0  0  0  0  0  0  0  0  0  0  0
    3.6090    3.5949   -3.7776 C   0  0  0  0  0  0  0  0  0  0  0  0
    3.0444    1.1011   -2.2213 H   0  0  0  0  0  0  0  0  0  0  0  0
    2.9102    1.9897   -5.0325 H   0  0  0  0  0  0  0  0  0  0  0  0
    4.1207    3.7364   -2.8203 H   0  0  0  0  0  0  0  0  0  0  0  0
    4.2108    4.0559   -4.5661 H   0  0  0  0  0  0  0  0  0  0  0  0
    2.6443    4.1105   -3.7360 H   0  0  0  0  0  0  0  0  0  0  0  0
    5.6304    1.5997   -5.1776 N   0  0  0  0  0  0  0  0  0  0  0  0
    6.9150    0.9219   -5.3107 C   0  0  0  0  0  0  0  0  0  0  0  0
    5.3630    2.2885   -5.8748 H   0  0  0  0  0  0  0  0  0  0  0  0
    7.5291    1.0838   -4.4183 H   0  0  0  0  0  0  0  0  0  0  0  0
    6.7679   -0.1548   -5.4467 H   0  0  0  0  0  0  0  0  0  0  0  0
    7.4595    1.3090   -6.1775 H   0  0  0  0  0  0  0  0  0  0  0  0
  1  2  2  0  0  0  0
  1  3  1  0  0  0  0
  1  7  1  0  0  0  0
  3  4  1  0  0  0  0
  3  5  1  0  0  0  0
  3  6  1  0  0  0  0
  7  8  1  0  0  0  0
  7 13  1  0  0  0  0
  8  9  1  0  0  0  0
  8 11  1  0  0  0  0
  8 14  1  0  0  0  0
  9 10  2  0  0  0  0
  9 17  1  0  0  0  0
 11 12  1  0  0  0  0
 11 15  1  0  0  0  0
 11 16  1  0  0  0  0
 12 44  1  0  0  0  0
 17 18  1  0  0  0  0
 17 19  1  0  0  0  0
 18 20  1  0  0  0  0
 18 21  1  0  0  0  0
 18 22  1  0  0  0  0
 23 24  2  0  0  0  0
 23 25  1  0  0  0  0
 23 29  1  0  0  0  0
 25 26  1  0  0  0  0
 25 27  1  0  0  0  0
 25 28  1  0  0  0  0
 29 30  1  0  0  0  0
 29 34  1  0  0  0  0
 30 31  1  0  0  0  0
 30 33  1  0  0  0  0
 30 35  1  0  0  0  0
 31 32  2  0  0  0  0
 31 39  1  0  0  0  0
 33 36  1  0  0  0  0
 33 37  1  0  0  0  0
 33 38  1  0  0  0  0
 39 40  1  0  0  0  0
 39 45  1  0  0  0  0
 40 41  1  0  0  0  0
 40 43  1  0  0  0  0
 40 46  1  0  0  0  0
 41 42  2  0  0  0  0
 41 49  1  0  0  0  0
 43 44  1  0  0  0  0
 43 47  1  0  0  0  0
 43 48  1  0  0  0  0
 49 50  1  0  0  0  0
 49 54  1  0  0  0  0
 50 51  1  0  0  0  0
 50 53  1  0  0  0  0
 50 55  1  0  0  0  0
 51 52  2  0  0  0  0
 51 59  1  0  0  0  0
 53 56  1  0  0  0  0
 53 57  1  0  0  0  0
 53 58  1  0  0  0  0
 59 60  1  0  0  0  0
 59 61  1  0  0  0  0
 60 62  1  0  0  0  0
 60 63  1  0  0  0  0
 60 64  1  0  0  0  0
M  END
$$$$

  -OEChem-05262216053D

 64 63  0     1  0  0  0  0  0999 V2000
    1.0431   -7.6708   -1.9878 C   0  0  0  0  0  0  0  0  0  0  0  0
    0.3772   -7.5689   -3.0066 O   0  0  0  0  0  0  0  0  0  0  0  0
    0.9348   -8.9151   -1.1274 C   0  0  0  0  0  0  0  0  0  0  0  0
    0.6465   -8.6405   -0.1099 H   0  0  0  0  0  0  0  0  0  0  0  0
    0.1795   -9.5915   -1.5370 H   0  0  0  0  0  0  0  0  0  0  0  0
    1.8958   -9.4345   -1.0996 H   0  0  0  0  0  0  0  0  0  0  0  0
    1.9054   -6.6586   -1.6279 N   0  0  0  0  0  0  0  0  0  0  0  0
    2.1912   -5.4801   -2.4590 C   0  0  2  0  0  0  0  0  0  0  0  0
    3.6061   -4.9166   -2.1872 C   0  0  0  0  0  0  0  0  0  0  0  0
    4.3650   -5.5232   -1.4361 O   0  0  0  0  0  0  0  0  0  0  0  0
    1.0972   -4.4278   -2.2339 C   0  0  0  0  0  0  0  0  0  0  0  0
    1.2015   -3.6791   -0.5553 S   0  0  0  0  0  0  0  0  0  0  0  0
    2.5349   -6.8309   -0.8449 H   0  0  0  0  0  0  0  0  0  0  0  0
    2.1741   -5.7770   -3.5129 H   0  0  0  0  0  0  0  0  0  0  0  0
    1.2035   -3.6466   -2.9900 H   0  0  0  0  0  0  0  0  0  0  0  0
    0.1105   -4.8823   -2.3675 H   0  0  0  0  0  0  0  0  0  0  0  0
    4.0711   -3.7738   -2.8164 N   0  0  0  0  0  0  0  0  0  0  0  0
    5.3988   -3.2224   -2.5806 C   0  0  0  0  0  0  0  0  0  0  0  0
    3.4097   -3.2144   -3.3606 H   0  0  0  0  0  0  0  0  0  0  0  0
    5.5116   -2.9291   -1.5318 H   0  0  0  0  0  0  0  0  0  0  0  0
    6.1701   -3.9604   -2.8260 H   0  0  0  0  0  0  0  0  0  0  0  0
    5.5550   -2.3390   -3.2071 H   0  0  0  0  0  0  0  0  0  0  0  0
   -5.8297    2.2516   -1.7232 C   0  0  0  0  0  0  0  0  0  0  0  0
   -6.3677    1.5078   -2.5280 O   0  0  0  0  0  0  0  0  0  0  0  0
   -6.6695    3.0391   -0.7354 C   0  0  0  0  0  0  0  0  0  0  0  0
   -6.5062    4.1100   -0.8778 H   0  0  0  0  0  0  0  0  0  0  0  0
   -7.7306    2.8212   -0.8851 H   0  0  0  0  0  0  0  0  0  0  0  0
   -6.3950    2.7677    0.2867 H   0  0  0  0  0  0  0  0  0  0  0  0
   -4.4565    2.3715   -1.7043 N   0  0  0  0  0  0  0  0  0  0  0  0
   -3.5404    1.5570   -2.5130 C   0  0  2  0  0  0  0  0  0  0  0  0
   -2.1958    1.3248   -1.7934 C   0  0  0  0  0  0  0  0  0  0  0  0
   -1.8785    2.0238   -0.8355 O   0  0  0  0  0  0  0  0  0  0  0  0
   -3.3090    2.2721   -3.8479 C   0  0  0  0  0  0  0  0  0  0  0  0
   -4.0408    2.9153   -0.9489 H   0  0  0  0  0  0  0  0  0  0  0  0
   -3.9851    0.5733   -2.6989 H   0  0  0  0  0  0  0  0  0  0  0  0
   -2.8577    3.2552   -3.6806 H   0  0  0  0  0  0  0  0  0  0  0  0
   -2.6399    1.6889   -4.4877 H   0  0  0  0  0  0  0  0  0  0  0  0
   -4.2585    2.4086   -4.3751 H   0  0  0  0  0  0  0  0  0  0  0  0
   -1.3243    0.3535   -2.2493 N   0  0  0  0  0  0  0  0  0  0  0  0
    0.0937    0.3270   -1.8544 C   0  0  2  0  0  0  0  0  0  0  0  0
    0.9761    1.1438   -2.8323 C   0  0  0  0  0  0  0  0  0  0  0  0
    0.4738    1.6719   -3.8200 O   0  0  0  0  0  0  0  0  0  0  0  0
    0.5570   -1.1356   -1.9023 C   0  0  0  0  0  0  0  0  0  0  0  0
   -0.2821   -2.2113   -0.6783 S   0  0  0  0  0  0  0  0  0  0  0  0
   -1.5636   -0.0600   -3.1459 H   0  0  0  0  0  0  0  0  0  0  0  0
    0.2318    0.7188   -0.8407 H   0  0  0  0  0  0  0  0  0  0  0  0
    0.3927   -1.5342   -2.9081 H   0  0  0  0  0  0  0  0  0  0  0  0
    1.6290   -1.1912   -1.6945 H   0  0  0  0  0  0  0  0  0  0  0  0
    2.3533    0.9871   -2.8101 N   0  0  0  0  0  0  0  0  0  0  0  0
    3.1468    0.9881   -4.0475 C   0  0  2  0  0  0  0  0  0  0  0  0
    3.0774   -0.3762   -4.7739 C   0  0  0  0  0  0  0  0  0  0  0  0
    2.8985   -1.4147   -4.1395 O   0  0  0  0  0  0  0  0  0  0  0  0
    4.5929    1.3218   -3.6760 C   0  0  0  0  0  0  0  0  0  0  0  0
    2.7004    0.3930   -2.0618 H   0  0  0  0  0  0  0  0  0  0  0  0
    2.7811    1.7632   -4.7298 H   0  0  0  0  0  0  0  0  0  0  0  0
    5.0014    0.5642   -2.9994 H   0  0  0  0  0  0  0  0  0  0  0  0
    5.2195    1.3612   -4.5728 H   0  0  0  0  0  0  0  0  0  0  0  0
    4.6407    2.2959   -3.1788 H   0  0  0  0  0  0  0  0  0  0  0  0
    3.2417   -0.4485   -6.1438 N   0  0  0  0  0  0  0  0  0  0  0  0
    3.1485   -1.6925   -6.8992 C   0  0  0  0  0  0  0  0  0  0  0  0
    3.3060    0.4285   -6.6540 H   0  0  0  0  0  0  0  0  0  0  0  0
    3.8967   -2.4114   -6.5490 H   0  0  0  0  0  0  0  0  0  0  0  0
    2.1537   -2.1365   -6.7876 H   0  0  0  0  0  0  0  0  0  0  0  0
    3.3252   -1.5031   -7.9625 H   0  0  0  0  0  0  0  0  0  0  0  0
  1  2  2  0  0  0  0
  1  3  1  0  0  0  0
  1  7  1  0  0  0  0
  3  4  1  0  0  0  0
  3  5  1  0  0  0  0
  3  6  1  0  0  0  0
  7  8  1  0  0  0  0
  7 13  1  0  0  0  0
  8  9  1  0  0  0  0
  8 11  1  0  0  0  0
  8 14  1  0  0  0  0
  9 10  2  0  0  0  0
  9 17  1  0  0  0  0
 11 12  1  0  0  0  0
 11 15  1  0  0  0  0
 11 16  1  0  0  0  0
 12 44  1  0  0  0  0
 17 18  1  0  0  0  0
 17 19  1  0  0  0  0
 18 20  1  0  0  0  0
 18 21  1  0  0  0  0
 18 22  1  0  0  0  0
 23 24  2  0  0  0  0
 23 25  1  0  0  0  0
 23 29  1  0  0  0  0
 25 26  1  0  0  0  0
 25 27  1  0  0  0  0
 25 28  1  0  0  0  0
 29 30  1  0  0  0  0
 29 34  1  0  0  0  0
 30 31  1  0  0  0  0
 30 33  1  0  0  0  0
 30 35  1  0  0  0  0
 31 32  2  0  0  0  0
 31 39  1  0  0  0  0
 33 36  1  0  0  0  0
 33 37  1  0  0  0  0
 33 38  1  0  0  0  0
 39 40  1  0  0  0  0
 39 45  1  0  0  0  0
 40 41  1  0  0  0  0
 40 43  1  0  0  0  0
 40 46  1  0  0  0  0
 41 42  2  0  0  0  0
 41 49  1  0  0  0  0
 43 44  1  0  0  0  0
 43 47  1  0  0  0  0
 43 48  1  0  0  0  0
 49 50  1  0  0  0  0
 49 54  1  0  0  0  0
 50 51  1  0  0  0  0
 50 53  1  0  0  0  0
 50 55  1  0  0  0  0
 51 52  2  0  0  0  0
 51 59  1  0  0  0  0
 53 56  1  0  0  0  0
 53 57  1  0  0  0  0
 53 58  1  0  0  0  0
 59 60  1  0  0  0  0
 59 61  1  0  0  0  0
 60 62  1  0  0  0  0
 60 63  1  0  0  0  0
 60 64  1  0  0  0  0
M  END
$$$$

  -OEChem-05262216053D

 64 63  0     1  0  0  0  0  0999 V2000
    0.9473   -7.7837   -1.8018 C   0  0  0  0  0  0  0  0  0  0  0  0
    0.1629   -7.7297   -2.7363 O   0  0  0  0  0  0  0  0  0  0  0  0
    0.9584   -8.9908   -0.8836 C   0  0  0  0  0  0  0  0  0  0  0  0
    0.6684   -8.6919    0.1266 H   0  0  0  0  0  0  0  0  0  0  0  0
    0.2538   -9.7450   -1.2449 H   0  0  0  0  0  0  0  0  0  0  0  0
    1.9589   -9.4290   -0.8540 H   0  0  0  0  0  0  0  0  0  0  0  0
    1.8300   -6.7482   -1.5876 N   0  0  0  0  0  0  0  0  0  0  0  0
    1.9849   -5.5909   -2.4807 C   0  0  2  0  0  0  0  0  0  0  0  0
    3.4145   -5.0027   -2.4131 C   0  0  0  0  0  0  0  0  0  0  0  0
    4.2642   -5.5563   -1.7211 O   0  0  0  0  0  0  0  0  0  0  0  0
    0.9153   -4.5460   -2.1335 C   0  0  0  0  0  0  0  0  0  0  0  0
    1.2195   -3.7807   -0.4853 S   0  0  0  0  0  0  0  0  0  0  0  0
    2.5476   -6.8773   -0.8754 H   0  0  0  0  0  0  0  0  0  0  0  0
    1.8303   -5.9152   -3.5151 H   0  0  0  0  0  0  0  0  0  0  0  0
    0.9182   -3.7731   -2.9050 H   0  0  0  0  0  0  0  0  0  0  0  0
   -0.0760   -5.0111   -2.1401 H   0  0  0  0  0  0  0  0  0  0  0  0
    3.7887   -3.8951   -3.1558 N   0  0  0  0  0  0  0  0  0  0  0  0
    5.1321   -3.3321   -3.1204 C   0  0  0  0  0  0  0  0  0  0  0  0
    3.0683   -3.3853   -3.6721 H   0  0  0  0  0  0  0  0  0  0  0  0
    5.3613   -2.9516   -2.1198 H   0  0  0  0  0  0  0  0  0  0  0  0
    5.8746   -4.0908   -3.3891 H   0  0  0  0  0  0  0  0  0  0  0  0
    5.2124   -2.5068   -3.8339 H   0  0  0  0  0  0  0  0  0  0  0  0
   -5.6755    2.2314   -1.9505 C   0  0  0  0  0  0  0  0  0  0  0  0
   -6.1814    1.4694   -2.7593 O   0  0  0  0  0  0  0  0  0  0  0  0
   -6.5568    3.0789   -1.0524 C   0  0  0  0  0  0  0  0  0  0  0  0
   -6.3422    4.1383   -1.2121 H   0  0  0  0  0  0  0  0  0  0  0  0
   -7.6109    2.8950   -1.2785 H   0  0  0  0  0  0  0  0  0  0  0  0
   -6.3720    2.8298   -0.0046 H   0  0  0  0  0  0  0  0  0  0  0  0
   -4.3033    2.3206   -1.8524 N   0  0  0  0  0  0  0  0  0  0  0  0
   -3.3623    1.4624   -2.5836 C   0  0  2  0  0  0  0  0  0  0  0  0
   -2.0495    1.2558   -1.8005 C   0  0  0  0  0  0  0  0  0  0  0  0
   -1.7826    1.9725   -0.8406 O   0  0  0  0  0  0  0  0  0  0  0  0
   -3.0724    2.1071   -3.9435 C   0  0  0  0  0  0  0  0  0  0  0  0
   -3.9176    2.8819   -1.0934 H   0  0  0  0  0  0  0  0  0  0  0  0
   -3.8095    0.4743   -2.7375 H   0  0  0  0  0  0  0  0  0  0  0  0
   -2.6123    3.0915   -3.8092 H   0  0  0  0  0  0  0  0  0  0  0  0
   -2.3902    1.4835   -4.5290 H   0  0  0  0  0  0  0  0  0  0  0  0
   -3.9998    2.2295   -4.5116 H   0  0  0  0  0  0  0  0  0  0  0  0
   -1.1517    0.2833   -2.1998 N   0  0  0  0  0  0  0  0  0  0  0  0
    0.2548    0.2955   -1.7644 C   0  0  2  0  0  0  0  0  0  0  0  0
    1.1418    1.0986   -2.7554 C   0  0  0  0  0  0  0  0  0  0  0  0
    0.6214    1.7945   -3.6221 O   0  0  0  0  0  0  0  0  0  0  0  0
    0.7220   -1.1675   -1.7397 C   0  0  0  0  0  0  0  0  0  0  0  0
   -0.1462   -2.1979   -0.4983 S   0  0  0  0  0  0  0  0  0  0  0  0
   -1.3602   -0.1608   -3.0888 H   0  0  0  0  0  0  0  0  0  0  0  0
    0.3636    0.7277   -0.7636 H   0  0  0  0  0  0  0  0  0  0  0  0
    0.5826   -1.6028   -2.7328 H   0  0  0  0  0  0  0  0  0  0  0  0
    1.7864   -1.2155   -1.4973 H   0  0  0  0  0  0  0  0  0  0  0  0
    2.4767    0.7626   -2.9263 N   0  0  0  0  0  0  0  0  0  0  0  0
    3.1130    0.7806   -4.2507 C   0  0  2  0  0  0  0  0  0  0  0  0
    2.7741   -0.4950   -5.0577 C   0  0  0  0  0  0  0  0  0  0  0  0
    2.5628   -1.5595   -4.4787 O   0  0  0  0  0  0  0  0  0  0  0  0
    4.6239    0.8959   -4.0394 C   0  0  0  0  0  0  0  0  0  0  0  0
    2.8218    0.0550   -2.2837 H   0  0  0  0  0  0  0  0  0  0  0  0
    2.7786    1.6538   -4.8215 H   0  0  0  0  0  0  0  0  0  0  0  0
    5.0007    0.0402   -3.4701 H   0  0  0  0  0  0  0  0  0  0  0  0
    5.1430    0.9285   -5.0024 H   0  0  0  0  0  0  0  0  0  0  0  0
    4.8599    1.8120   -3.4884 H   0  0  0  0  0  0  0  0  0  0  0  0
    2.7223   -0.4598   -6.4381 N   0  0  0  0  0  0  0  0  0  0  0  0
    2.3457   -1.6076   -7.2556 C   0  0  0  0  0  0  0  0  0  0  0  0
    2.8111    0.4486   -6.8860 H   0  0  0  0  0  0  0  0  0  0  0  0
    3.0289   -2.4458   -7.0807 H   0  0  0  0  0  0  0  0  0  0  0  0
    1.3253   -1.9282   -7.0197 H   0  0  0  0  0  0  0  0  0  0  0  0
    2.3886   -1.3454   -8.3174 H   0  0  0  0  0  0  0  0  0  0  0  0
  1  2  2  0  0  0  0
  1  3  1  0  0  0  0
  1  7  1  0  0  0  0
  3  4  1  0  0  0  0
  3  5  1  0  0  0  0
  3  6  1  0  0  0  0
  7  8  1  0  0  0  0
  7 13  1  0  0  0  0
  8  9  1  0  0  0  0
  8 11  1  0  0  0  0
  8 14  1  0  0  0  0
  9 10  2  0  0  0  0
  9 17  1  0  0  0  0
 11 12  1  0  0  0  0
 11 15  1  0  0  0  0
 11 16  1  0  0  0  0
 12 44  1  0  0  0  0
 17 18  1  0  0  0  0
 17 19  1  0  0  0  0
 18 20  1  0  0  0  0
 18 21  1  0  0  0  0
 18 22  1  0  0  0  0
 23 24  2  0  0  0  0
 23 25  1  0  0  0  0
 23 29  1  0  0  0  0
 25 26  1  0  0  0  0
 25 27  1  0  0  0  0
 25 28  1  0  0  0  0
 29 30  1  0  0  0  0
 29 34  1  0  0  0  0
 30 31  1  0  0  0  0
 30 33  1  0  0  0  0
 30 35  1  0  0  0  0
 31 32  2  0  0  0  0
 31 39  1  0  0  0  0
 33 36  1  0  0  0  0
 33 37  1  0  0  0  0
 33 38  1  0  0  0  0
 39 40  1  0  0  0  0
 39 45  1  0  0  0  0
 40 41  1  0  0  0  0
 40 43  1  0  0  0  0
 40 46  1  0  0  0  0
 41 42  2  0  0  0  0
 41 49  1  0  0  0  0
 43 44  1  0  0  0  0
 43 47  1  0  0  0  0
 43 48  1  0  0  0  0
 49 50  1  0  0  0  0
 49 54  1  0  0  0  0
 50 51  1  0  0  0  0
 50 53  1  0  0  0  0
 50 55  1  0  0  0  0
 51 52  2  0  0  0  0
 51 59  1  0  0  0  0
 53 56  1  0  0  0  0
 53 57  1  0  0  0  0
 53 58  1  0  0  0  0
 59 60  1  0  0  0  0
 59 61  1  0  0  0  0
 60 62  1  0  0  0  0
 60 63  1  0  0  0  0
 60 64  1  0  0  0  0
M  END
$$$$

  -OEChem-05262216053D

 64 63  0     1  0  0  0  0  0999 V2000
    0.7992   -7.8592   -1.5547 C   0  0  0  0  0  0  0  0  0  0  0  0
   -0.1705   -7.8256   -2.2962 O   0  0  0  0  0  0  0  0  0  0  0  0
    1.0396   -9.0633   -0.6643 C   0  0  0  0  0  0  0  0  0  0  0  0
    1.1215   -8.7463    0.3781 H   0  0  0  0  0  0  0  0  0  0  0  0
    0.2097   -9.7700   -0.7535 H   0  0  0  0  0  0  0  0  0  0  0  0
    1.9646   -9.5649   -0.9586 H   0  0  0  0  0  0  0  0  0  0  0  0
    1.6894   -6.8082   -1.5430 N   0  0  0  0  0  0  0  0  0  0  0  0
    1.6292   -5.6568   -2.4544 C   0  0  2  0  0  0  0  0  0  0  0  0
    3.0338   -5.0602   -2.7091 C   0  0  0  0  0  0  0  0  0  0  0  0
    4.0139   -5.5684   -2.1718 O   0  0  0  0  0  0  0  0  0  0  0  0
    0.6585   -4.6154   -1.8799 C   0  0  0  0  0  0  0  0  0  0  0  0
    1.3145   -3.8592   -0.3328 S   0  0  0  0  0  0  0  0  0  0  0  0
    2.5448   -6.9183   -0.9995 H   0  0  0  0  0  0  0  0  0  0  0  0
    1.2493   -5.9890   -3.4260 H   0  0  0  0  0  0  0  0  0  0  0  0
    0.4869   -3.8391   -2.6287 H   0  0  0  0  0  0  0  0  0  0  0  0
   -0.3091   -5.0836   -1.6715 H   0  0  0  0  0  0  0  0  0  0  0  0
    3.2349   -3.9988   -3.5765 N   0  0  0  0  0  0  0  0  0  0  0  0
    4.5552   -3.4616   -3.8818 C   0  0  0  0  0  0  0  0  0  0  0  0
    2.4222   -3.5380   -3.9873 H   0  0  0  0  0  0  0  0  0  0  0  0
    4.9612   -2.9317   -3.0143 H   0  0  0  0  0  0  0  0  0  0  0  0
    5.2456   -4.2655   -4.1592 H   0  0  0  0  0  0  0  0  0  0  0  0
    4.4926   -2.7636   -4.7219 H   0  0  0  0  0  0  0  0  0  0  0  0
   -5.5052    2.0636   -2.2962 C   0  0  0  0  0  0  0  0  0  0  0  0
   -5.9715    1.2410   -3.0688 O   0  0  0  0  0  0  0  0  0  0  0  0
   -6.4215    3.0299   -1.5701 C   0  0  0  0  0  0  0  0  0  0  0  0
   -6.1547    4.0584   -1.8251 H   0  0  0  0  0  0  0  0  0  0  0  0
   -7.4612    2.8533   -1.8597 H   0  0  0  0  0  0  0  0  0  0  0  0
   -6.3272    2.8928   -0.4902 H   0  0  0  0  0  0  0  0  0  0  0  0
   -4.1443    2.1177   -2.0841 N   0  0  0  0  0  0  0  0  0  0  0  0
   -3.1724    1.1792   -2.6590 C   0  0  2  0  0  0  0  0  0  0  0  0
   -1.8968    1.0742   -1.7959 C   0  0  0  0  0  0  0  0  0  0  0  0
   -1.7244    1.8390   -0.8515 O   0  0  0  0  0  0  0  0  0  0  0  0
   -2.8161    1.6542   -4.0731 C   0  0  0  0  0  0  0  0  0  0  0  0
   -3.8018    2.7440   -1.3559 H   0  0  0  0  0  0  0  0  0  0  0  0
   -3.6163    0.1792   -2.7115 H   0  0  0  0  0  0  0  0  0  0  0  0
   -2.3533    2.6458   -4.0359 H   0  0  0  0  0  0  0  0  0  0  0  0
   -2.1145    0.9629   -4.5491 H   0  0  0  0  0  0  0  0  0  0  0  0
   -3.7153    1.7118   -4.6947 H   0  0  0  0  0  0  0  0  0  0  0  0
   -0.9255    0.1404   -2.1093 N   0  0  0  0  0  0  0  0  0  0  0  0
    0.4592    0.2578   -1.6206 C   0  0  2  0  0  0  0  0  0  0  0  0
    1.3189    1.0677   -2.6310 C   0  0  0  0  0  0  0  0  0  0  0  0
    0.7916    1.9074   -3.3531 O   0  0  0  0  0  0  0  0  0  0  0  0
    1.0082   -1.1695   -1.4722 C   0  0  0  0  0  0  0  0  0  0  0  0
    0.1321   -2.1440   -0.1903 S   0  0  0  0  0  0  0  0  0  0  0  0
   -1.0714   -0.3611   -2.9801 H   0  0  0  0  0  0  0  0  0  0  0  0
    0.5024    0.7589   -0.6474 H   0  0  0  0  0  0  0  0  0  0  0  0
    0.9412   -1.6842   -2.4337 H   0  0  0  0  0  0  0  0  0  0  0  0
    2.0610   -1.1349   -1.1782 H   0  0  0  0  0  0  0  0  0  0  0  0
    2.5866    0.6328   -2.9896 N   0  0  0  0  0  0  0  0  0  0  0  0
    3.0567    0.7382   -4.3776 C   0  0  2  0  0  0  0  0  0  0  0  0
    2.4179   -0.3522   -5.2695 C   0  0  0  0  0  0  0  0  0  0  0  0
    2.0731   -1.4298   -4.7859 O   0  0  0  0  0  0  0  0  0  0  0  0
    4.5806    0.6046   -4.3693 C   0  0  0  0  0  0  0  0  0  0  0  0
    2.9107   -0.1843   -2.4810 H   0  0  0  0  0  0  0  0  0  0  0  0
    2.8014    1.7202   -4.7910 H   0  0  0  0  0  0  0  0  0  0  0  0
    4.8816   -0.3652   -3.9617 H   0  0  0  0  0  0  0  0  0  0  0  0
    4.9772    0.6930   -5.3857 H   0  0  0  0  0  0  0  0  0  0  0  0
    5.0258    1.3933   -3.7544 H   0  0  0  0  0  0  0  0  0  0  0  0
    2.2356   -0.1302   -6.6207 N   0  0  0  0  0  0  0  0  0  0  0  0
    1.5664   -1.0784   -7.5031 C   0  0  0  0  0  0  0  0  0  0  0  0
    2.4390    0.8021   -6.9717 H   0  0  0  0  0  0  0  0  0  0  0  0
    2.0983   -2.0357   -7.5126 H   0  0  0  0  0  0  0  0  0  0  0  0
    0.5365   -1.2491   -7.1720 H   0  0  0  0  0  0  0  0  0  0  0  0
    1.5408   -0.6895   -8.5256 H   0  0  0  0  0  0  0  0  0  0  0  0
  1  2  2  0  0  0  0
  1  3  1  0  0  0  0
  1  7  1  0  0  0  0
  3  4  1  0  0  0  0
  3  5  1  0  0  0  0
  3  6  1  0  0  0  0
  7  8  1  0  0  0  0
  7 13  1  0  0  0  0
  8  9  1  0  0  0  0
  8 11  1  0  0  0  0
  8 14  1  0  0  0  0
  9 10  2  0  0  0  0
  9 17  1  0  0  0  0
 11 12  1  0  0  0  0
 11 15  1  0  0  0  0
 11 16  1  0  0  0  0
 12 44  1  0  0  0  0
 17 18  1  0  0  0  0
 17 19  1  0  0  0  0
 18 20  1  0  0  0  0
 18 21  1  0  0  0  0
 18 22  1  0  0  0  0
 23 24  2  0  0  0  0
 23 25  1  0  0  0  0
 23 29  1  0  0  0  0
 25 26  1  0  0  0  0
 25 27  1  0  0  0  0
 25 28  1  0  0  0  0
 29 30  1  0  0  0  0
 29 34  1  0  0  0  0
 30 31  1  0  0  0  0
 30 33  1  0  0  0  0
 30 35  1  0  0  0  0
 31 32  2  0  0  0  0
 31 39  1  0  0  0  0
 33 36  1  0  0  0  0
 33 37  1  0  0  0  0
 33 38  1  0  0  0  0
 39 40  1  0  0  0  0
 39 45  1  0  0  0  0
 40 41  1  0  0  0  0
 40 43  1  0  0  0  0
 40 46  1  0  0  0  0
 41 42  2  0  0  0  0
 41 49  1  0  0  0  0
 43 44  1  0  0  0  0
 43 47  1  0  0  0  0
 43 48  1  0  0  0  0
 49 50  1  0  0  0  0
 49 54  1  0  0  0  0
 50 51  1  0  0  0  0
 50 53  1  0  0  0  0
 50 55  1  0  0  0  0
 51 52  2  0  0  0  0
 51 59  1  0  0  0  0
 53 56  1  0  0  0  0
 53 57  1  0  0  0  0
 53 58  1  0  0  0  0
 59 60  1  0  0  0  0
 59 61  1  0  0  0  0
 60 62  1  0  0  0  0
 60 63  1  0  0  0  0
 60 64  1  0  0  0  0
M  END
$$$$

  -OEChem-05262216053D

 64 63  0     1  0  0  0  0  0999 V2000
    0.1961   -7.7115   -0.7866 C   0  0  0  0  0  0  0  0  0  0  0  0
   -0.9290   -7.6841   -1.2605 O   0  0  0  0  0  0  0  0  0  0  0  0
    0.5367   -8.6977    0.3143 C   0  0  0  0  0  0  0  0  0  0  0  0
    1.0001   -8.1754    1.1549 H   0  0  0  0  0  0  0  0  0  0  0  0
   -0.3708   -9.1960    0.6668 H   0  0  0  0  0  0  0  0  0  0  0  0
    1.2301   -9.4529   -0.0634 H   0  0  0  0  0  0  0  0  0  0  0  0
    1.1594   -6.8527   -1.2685 N   0  0  0  0  0  0  0  0  0  0  0  0
    0.9481   -5.8948   -2.3626 C   0  0  2  0  0  0  0  0  0  0  0  0
    2.2680   -5.5222   -3.0728 C   0  0  0  0  0  0  0  0  0  0  0  0
    3.3418   -5.9179   -2.6309 O   0  0  0  0  0  0  0  0  0  0  0  0
    0.2515   -4.6401   -1.8139 C   0  0  0  0  0  0  0  0  0  0  0  0
    1.2999   -3.7748   -0.5741 S   0  0  0  0  0  0  0  0  0  0  0  0
    2.1054   -6.9339   -0.8976 H   0  0  0  0  0  0  0  0  0  0  0  0
    0.3016   -6.3549   -3.1173 H   0  0  0  0  0  0  0  0  0  0  0  0
    0.0253   -3.9578   -2.6374 H   0  0  0  0  0  0  0  0  0  0  0  0
   -0.6995   -4.9186   -1.3483 H   0  0  0  0  0  0  0  0  0  0  0  0
    2.2524   -4.7637   -4.2303 N   0  0  0  0  0  0  0  0  0  0  0  0
    3.4592   -4.3350   -4.9280 C   0  0  0  0  0  0  0  0  0  0  0  0
    1.3547   -4.4312   -4.5692 H   0  0  0  0  0  0  0  0  0  0  0  0
    3.9788   -3.5618   -4.3528 H   0  0  0  0  0  0  0  0  0  0  0  0
    4.1405   -5.1786   -5.0822 H   0  0  0  0  0  0  0  0  0  0  0  0
    3.2000   -3.9234   -5.9082 H   0  0  0  0  0  0  0  0  0  0  0  0
   -5.5561    1.3001   -1.5901 C   0  0  0  0  0  0  0  0  0  0  0  0
   -5.9788    0.4565   -2.3654 O   0  0  0  0  0  0  0  0  0  0  0  0
   -6.4528    1.8405   -0.4924 C   0  0  0  0  0  0  0  0  0  0  0  0
   -6.6180    2.9106   -0.6392 H   0  0  0  0  0  0  0  0  0  0  0  0
   -7.4186    1.3277   -0.5085 H   0  0  0  0  0  0  0  0  0  0  0  0
   -5.9860    1.6804    0.4826 H   0  0  0  0  0  0  0  0  0  0  0  0
   -4.2597    1.7550   -1.7037 N   0  0  0  0  0  0  0  0  0  0  0  0
   -3.2543    1.1717   -2.6015 C   0  0  2  0  0  0  0  0  0  0  0  0
   -1.8604    1.1345   -1.9424 C   0  0  0  0  0  0  0  0  0  0  0  0
   -1.6051    1.8925   -1.0129 O   0  0  0  0  0  0  0  0  0  0  0  0
   -3.2165    2.0046   -3.8852 C   0  0  0  0  0  0  0  0  0  0  0  0
   -3.9104    2.3622   -0.9626 H   0  0  0  0  0  0  0  0  0  0  0  0
   -3.5273    0.1401   -2.8477 H   0  0  0  0  0  0  0  0  0  0  0  0
   -2.9297    3.0375   -3.6622 H   0  0  0  0  0  0  0  0  0  0  0  0
   -2.4929    1.5889   -4.5926 H   0  0  0  0  0  0  0  0  0  0  0  0
   -4.2024    2.0107   -4.3608 H   0  0  0  0  0  0  0  0  0  0  0  0
   -0.9133    0.2176   -2.3644 N   0  0  0  0  0  0  0  0  0  0  0  0
    0.5132    0.3310   -2.0115 C   0  0  2  0  0  0  0  0  0  0  0  0
    1.2935    1.1574   -3.0649 C   0  0  0  0  0  0  0  0  0  0  0  0
    0.8684    2.2404   -3.4441 O   0  0  0  0  0  0  0  0  0  0  0  0
    1.0751   -1.0909   -1.8525 C   0  0  0  0  0  0  0  0  0  0  0  0
    0.2892   -1.9565   -0.4370 S   0  0  0  0  0  0  0  0  0  0  0  0
   -1.1589   -0.3228   -3.1876 H   0  0  0  0  0  0  0  0  0  0  0  0
    0.6343    0.8449   -1.0510 H   0  0  0  0  0  0  0  0  0  0  0  0
    0.9163   -1.6642   -2.7712 H   0  0  0  0  0  0  0  0  0  0  0  0
    2.1519   -1.0467   -1.6599 H   0  0  0  0  0  0  0  0  0  0  0  0
    2.3513    0.5947   -3.7594 N   0  0  0  0  0  0  0  0  0  0  0  0
    2.8649    1.0840   -5.0458 C   0  0  2  0  0  0  0  0  0  0  0  0
    2.9873   -0.0737   -6.0610 C   0  0  0  0  0  0  0  0  0  0  0  0
    2.7269   -1.2235   -5.7158 O   0  0  0  0  0  0  0  0  0  0  0  0
    4.2227    1.7419   -4.7872 C   0  0  0  0  0  0  0  0  0  0  0  0
    2.5399   -0.3867   -3.5632 H   0  0  0  0  0  0  0  0  0  0  0  0
    2.1854    1.8252   -5.4802 H   0  0  0  0  0  0  0  0  0  0  0  0
    4.9312    1.0125   -4.3816 H   0  0  0  0  0  0  0  0  0  0  0  0
    4.6363    2.1527   -5.7129 H   0  0  0  0  0  0  0  0  0  0  0  0
    4.1129    2.5595   -4.0673 H   0  0  0  0  0  0  0  0  0  0  0  0
    3.3862    0.1674   -7.3624 N   0  0  0  0  0  0  0  0  0  0  0  0
    3.5705   -0.8854   -8.3543 C   0  0  0  0  0  0  0  0  0  0  0  0
    3.6064    1.1262   -7.6179 H   0  0  0  0  0  0  0  0  0  0  0  0
    4.3579   -1.5769   -8.0357 H   0  0  0  0  0  0  0  0  0  0  0  0
    2.6416   -1.4482   -8.4957 H   0  0  0  0  0  0  0  0  0  0  0  0
    3.8600   -0.4520   -9.3167 H   0  0  0  0  0  0  0  0  0  0  0  0
  1  2  2  0  0  0  0
  1  3  1  0  0  0  0
  1  7  1  0  0  0  0
  3  4  1  0  0  0  0
  3  5  1  0  0  0  0
  3  6  1  0  0  0  0
  7  8  1  0  0  0  0
  7 13  1  0  0  0  0
  8  9  1  0  0  0  0
  8 11  1  0  0  0  0
  8 14  1  0  0  0  0
  9 10  2  0  0  0  0
  9 17  1  0  0  0  0
 11 12  1  0  0  0  0
 11 15  1  0  0  0  0
 11 16  1  0  0  0  0
 12 44  1  0  0  0  0
 17 18  1  0  0  0  0
 17 19  1  0  0  0  0
 18 20  1  0  0  0  0
 18 21  1  0  0  0  0
 18 22  1  0  0  0  0
 23 24  2  0  0  0  0
 23 25  1  0  0  0  0
 23 29  1  0  0  0  0
 25 26  1  0  0  0  0
 25 27  1  0  0  0  0
 25 28  1  0  0  0  0
 29 30  1  0  0  0  0
 29 34  1  0  0  0  0
 30 31  1  0  0  0  0
 30 33  1  0  0  0  0
 30 35  1  0  0  0  0
 31 32  2  0  0  0  0
 31 39  1  0  0  0  0
 33 36  1  0  0  0  0
 33 37  1  0  0  0  0
 33 38  1  0  0  0  0
 39 40  1  0  0  0  0
 39 45  1  0  0  0  0
 40 41  1  0  0  0  0
 40 43  1  0  0  0  0
 40 46  1  0  0  0  0
 41 42  2  0  0  0  0
 41 49  1  0  0  0  0
 43 44  1  0  0  0  0
 43 47  1  0  0  0  0
 43 48  1  0  0  0  0
 49 50  1  0  0  0  0
 49 54  1  0  0  0  0
 50 51  1  0  0  0  0
 50 53  1  0  0  0  0
 50 55  1  0  0  0  0
 51 52  2  0  0  0  0
 51 59  1  0  0  0  0
 53 56  1  0  0  0  0
 53 57  1  0  0  0  0
 53 58  1  0  0  0  0
 59 60  1  0  0  0  0
 59 61  1  0  0  0  0
 60 62  1  0  0  0  0
 60 63  1  0  0  0  0
 60 64  1  0  0  0  0
M  END
$$$$

  -OEChem-05262216053D

 64 63  0     1  0  0  0  0  0999 V2000
    0.2103   -7.6951   -0.8320 C   0  0  0  0  0  0  0  0  0  0  0  0
   -0.9324   -7.6782   -1.2625 O   0  0  0  0  0  0  0  0  0  0  0  0
    0.6065   -8.6841    0.2476 C   0  0  0  0  0  0  0  0  0  0  0  0
    0.9834   -8.1494    1.1229 H   0  0  0  0  0  0  0  0  0  0  0  0
   -0.2584   -9.2830    0.5464 H   0  0  0  0  0  0  0  0  0  0  0  0
    1.3857   -9.3523   -0.1269 H   0  0  0  0  0  0  0  0  0  0  0  0
    1.1433   -6.8177   -1.3399 N   0  0  0  0  0  0  0  0  0  0  0  0
    0.8753   -5.8387   -2.4028 C   0  0  2  0  0  0  0  0  0  0  0  0
    2.1562   -5.4441   -3.1718 C   0  0  0  0  0  0  0  0  0  0  0  0
    3.2548   -5.8251   -2.7812 O   0  0  0  0  0  0  0  0  0  0  0  0
    0.2063   -4.5999   -1.7891 C   0  0  0  0  0  0  0  0  0  0  0  0
    1.3035   -3.7872   -0.5549 S   0  0  0  0  0  0  0  0  0  0  0  0
    2.1013   -6.8837   -0.9980 H   0  0  0  0  0  0  0  0  0  0  0  0
    0.1911   -6.2837   -3.1329 H   0  0  0  0  0  0  0  0  0  0  0  0
   -0.0434   -3.8880   -2.5800 H   0  0  0  0  0  0  0  0  0  0  0  0
   -0.7305   -4.8895   -1.3021 H   0  0  0  0  0  0  0  0  0  0  0  0
    2.0787   -4.6809   -4.3245 N   0  0  0  0  0  0  0  0  0  0  0  0
    3.2444   -4.2675   -5.0979 C   0  0  0  0  0  0  0  0  0  0  0  0
    1.1600   -4.3838   -4.6397 H   0  0  0  0  0  0  0  0  0  0  0  0
    3.8157   -3.5088   -4.5537 H   0  0  0  0  0  0  0  0  0  0  0  0
    3.8979   -5.1219   -5.3030 H   0  0  0  0  0  0  0  0  0  0  0  0
    2.9295   -3.8434   -6.0562 H   0  0  0  0  0  0  0  0  0  0  0  0
   -5.5307    1.3412   -1.5950 C   0  0  0  0  0  0  0  0  0  0  0  0
   -5.9704    0.4508   -2.3058 O   0  0  0  0  0  0  0  0  0  0  0  0
   -6.4159    1.9852   -0.5449 C   0  0  0  0  0  0  0  0  0  0  0  0
   -6.4838    3.0611   -0.7233 H   0  0  0  0  0  0  0  0  0  0  0  0
   -7.4211    1.5565   -0.5854 H   0  0  0  0  0  0  0  0  0  0  0  0
   -5.9986    1.8131    0.4504 H   0  0  0  0  0  0  0  0  0  0  0  0
   -4.2242    1.7561   -1.7394 N   0  0  0  0  0  0  0  0  0  0  0  0
   -3.2308    1.0798   -2.5831 C   0  0  2  0  0  0  0  0  0  0  0  0
   -1.8311    1.1023   -1.9363 C   0  0  0  0  0  0  0  0  0  0  0  0
   -1.5830    1.9072   -1.0458 O   0  0  0  0  0  0  0  0  0  0  0  0
   -3.2003    1.7774   -3.9457 C   0  0  0  0  0  0  0  0  0  0  0  0
   -3.8614    2.4115   -1.0471 H   0  0  0  0  0  0  0  0  0  0  0  0
   -3.5111    0.0299   -2.7203 H   0  0  0  0  0  0  0  0  0  0  0  0
   -2.9122    2.8276   -3.8306 H   0  0  0  0  0  0  0  0  0  0  0  0
   -2.4814    1.2911   -4.6120 H   0  0  0  0  0  0  0  0  0  0  0  0
   -4.1889    1.7358   -4.4143 H   0  0  0  0  0  0  0  0  0  0  0  0
   -0.8700    0.1865   -2.3266 N   0  0  0  0  0  0  0  0  0  0  0  0
    0.5531    0.3191   -1.9690 C   0  0  2  0  0  0  0  0  0  0  0  0
    1.3283    1.1245   -3.0392 C   0  0  0  0  0  0  0  0  0  0  0  0
    1.0649    2.2998   -3.2490 O   0  0  0  0  0  0  0  0  0  0  0  0
    1.1300   -1.0921   -1.7841 C   0  0  0  0  0  0  0  0  0  0  0  0
    0.3492   -1.9451   -0.3592 S   0  0  0  0  0  0  0  0  0  0  0  0
   -1.1176   -0.4163   -3.1045 H   0  0  0  0  0  0  0  0  0  0  0  0
    0.6653    0.8566   -1.0201 H   0  0  0  0  0  0  0  0  0  0  0  0
    0.9767   -1.6844   -2.6911 H   0  0  0  0  0  0  0  0  0  0  0  0
    2.2073   -1.0300   -1.5971 H   0  0  0  0  0  0  0  0  0  0  0  0
    2.1735    0.4768   -3.9244 N   0  0  0  0  0  0  0  0  0  0  0  0
    2.6039    1.0171   -5.2199 C   0  0  2  0  0  0  0  0  0  0  0  0
    2.4928   -0.0596   -6.3210 C   0  0  0  0  0  0  0  0  0  0  0  0
    2.2097   -1.2171   -6.0215 O   0  0  0  0  0  0  0  0  0  0  0  0
    4.0442    1.5144   -5.0736 C   0  0  0  0  0  0  0  0  0  0  0  0
    2.2264   -0.5364   -3.8368 H   0  0  0  0  0  0  0  0  0  0  0  0
    1.9643    1.8544   -5.5192 H   0  0  0  0  0  0  0  0  0  0  0  0
    4.7076    0.6925   -4.7859 H   0  0  0  0  0  0  0  0  0  0  0  0
    4.4030    1.9397   -6.0155 H   0  0  0  0  0  0  0  0  0  0  0  0
    4.0974    2.2911   -4.3037 H   0  0  0  0  0  0  0  0  0  0  0  0
    2.6857    0.2699   -7.6494 N   0  0  0  0  0  0  0  0  0  0  0  0
    2.5840   -0.6920   -8.7402 C   0  0  0  0  0  0  0  0  0  0  0  0
    2.8990    1.2392   -7.8684 H   0  0  0  0  0  0  0  0  0  0  0  0
    3.3039   -1.5058   -8.6035 H   0  0  0  0  0  0  0  0  0  0  0  0
    1.5756   -1.1165   -8.7852 H   0  0  0  0  0  0  0  0  0  0  0  0
    2.7952   -0.2026   -9.6961 H   0  0  0  0  0  0  0  0  0  0  0  0
  1  2  2  0  0  0  0
  1  3  1  0  0  0  0
  1  7  1  0  0  0  0
  3  4  1  0  0  0  0
  3  5  1  0  0  0  0
  3  6  1  0  0  0  0
  7  8  1  0  0  0  0
  7 13  1  0  0  0  0
  8  9  1  0  0  0  0
  8 11  1  0  0  0  0
  8 14  1  0  0  0  0
  9 10  2  0  0  0  0
  9 17  1  0  0  0  0
 11 12  1  0  0  0  0
 11 15  1  0  0  0  0
 11 16  1  0  0  0  0
 12 44  1  0  0  0  0
 17 18  1  0  0  0  0
 17 19  1  0  0  0  0
 18 20  1  0  0  0  0
 18 21  1  0  0  0  0
 18 22  1  0  0  0  0
 23 24  2  0  0  0  0
 23 25  1  0  0  0  0
 23 29  1  0  0  0  0
 25 26  1  0  0  0  0
 25 27  1  0  0  0  0
 25 28  1  0  0  0  0
 29 30  1  0  0  0  0
 29 34  1  0  0  0  0
 30 31  1  0  0  0  0
 30 33  1  0  0  0  0
 30 35  1  0  0  0  0
 31 32  2  0  0  0  0
 31 39  1  0  0  0  0
 33 36  1  0  0  0  0
 33 37  1  0  0  0  0
 33 38  1  0  0  0  0
 39 40  1  0  0  0  0
 39 45  1  0  0  0  0
 40 41  1  0  0  0  0
 40 43  1  0  0  0  0
 40 46  1  0  0  0  0
 41 42  2  0  0  0  0
 41 49  1  0  0  0  0
 43 44  1  0  0  0  0
 43 47  1  0  0  0  0
 43 48  1  0  0  0  0
 49 50  1  0  0  0  0
 49 54  1  0  0  0  0
 50 51  1  0  0  0  0
 50 53  1  0  0  0  0
 50 55  1  0  0  0  0
 51 52  2  0  0  0  0
 51 59  1  0  0  0  0
 53 56  1  0  0  0  0
 53 57  1  0  0  0  0
 53 58  1  0  0  0  0
 59 60  1  0  0  0  0
 59 61  1  0  0  0  0
 60 62  1  0  0  0  0
 60 63  1  0  0  0  0
 60 64  1  0  0  0  0
M  END
$$$$

  -OEChem-05262216053D

 64 63  0     1  0  0  0  0  0999 V2000
    0.3242   -7.7225   -0.9564 C   0  0  0  0  0  0  0  0  0  0  0  0
   -0.8453   -7.7436   -1.3069 O   0  0  0  0  0  0  0  0  0  0  0  0
    0.8462   -8.7552    0.0236 C   0  0  0  0  0  0  0  0  0  0  0  0
    1.1825   -8.2623    0.9390 H   0  0  0  0  0  0  0  0  0  0  0  0
    0.0557   -9.4675    0.2764 H   0  0  0  0  0  0  0  0  0  0  0  0
    1.6835   -9.3009   -0.4180 H   0  0  0  0  0  0  0  0  0  0  0  0
    1.1692   -6.7574   -1.4582 N   0  0  0  0  0  0  0  0  0  0  0  0
    0.7734   -5.7266   -2.4267 C   0  0  2  0  0  0  0  0  0  0  0  0
    1.9665   -5.2376   -3.2764 C   0  0  0  0  0  0  0  0  0  0  0  0
    3.1132   -5.5460   -2.9695 O   0  0  0  0  0  0  0  0  0  0  0  0
    0.1201   -4.5553   -1.6779 C   0  0  0  0  0  0  0  0  0  0  0  0
    1.2881   -3.7808   -0.4835 S   0  0  0  0  0  0  0  0  0  0  0  0
    2.1514   -6.7899   -1.1877 H   0  0  0  0  0  0  0  0  0  0  0  0
    0.0426   -6.1515   -3.1226 H   0  0  0  0  0  0  0  0  0  0  0  0
   -0.2168   -3.8054   -2.3985 H   0  0  0  0  0  0  0  0  0  0  0  0
   -0.7627   -4.9097   -1.1352 H   0  0  0  0  0  0  0  0  0  0  0  0
    1.7556   -4.4734   -4.4113 N   0  0  0  0  0  0  0  0  0  0  0  0
    2.8311   -4.0214   -5.2869 C   0  0  0  0  0  0  0  0  0  0  0  0
    0.7968   -4.2725   -4.6804 H   0  0  0  0  0  0  0  0  0  0  0  0
    3.3968   -3.2137   -4.8115 H   0  0  0  0  0  0  0  0  0  0  0  0
    3.5163   -4.8440   -5.5185 H   0  0  0  0  0  0  0  0  0  0  0  0
    2.4185   -3.6495   -6.2297 H   0  0  0  0  0  0  0  0  0  0  0  0
   -5.5273    1.4783   -1.5854 C   0  0  0  0  0  0  0  0  0  0  0  0
   -6.0065    0.4953   -2.1290 O   0  0  0  0  0  0  0  0  0  0  0  0
   -6.3862    2.3470   -0.6859 C   0  0  0  0  0  0  0  0  0  0  0  0
   -6.4178    3.3685   -1.0726 H   0  0  0  0  0  0  0  0  0  0  0  0
   -7.4058    1.9539   -0.6440 H   0  0  0  0  0  0  0  0  0  0  0  0
   -5.9720    2.3598    0.3251 H   0  0  0  0  0  0  0  0  0  0  0  0
   -4.1998    1.7945   -1.7820 N   0  0  0  0  0  0  0  0  0  0  0  0
   -3.2407    0.9360   -2.4887 C   0  0  2  0  0  0  0  0  0  0  0  0
   -1.8128    1.0905   -1.9241 C   0  0  0  0  0  0  0  0  0  0  0  0
   -1.5559    2.0024   -1.1478 O   0  0  0  0  0  0  0  0  0  0  0  0
   -3.2714    1.2963   -3.9773 C   0  0  0  0  0  0  0  0  0  0  0  0
   -3.8065    2.5456   -1.2146 H   0  0  0  0  0  0  0  0  0  0  0  0
   -3.5271   -0.1137   -2.3648 H   0  0  0  0  0  0  0  0  0  0  0  0
   -2.9734    2.3395   -4.1231 H   0  0  0  0  0  0  0  0  0  0  0  0
   -2.5889    0.6564   -4.5446 H   0  0  0  0  0  0  0  0  0  0  0  0
   -4.2812    1.1626   -4.3785 H   0  0  0  0  0  0  0  0  0  0  0  0
   -0.8303    0.1784   -2.2652 N   0  0  0  0  0  0  0  0  0  0  0  0
    0.5892    0.3304   -1.9021 C   0  0  2  0  0  0  0  0  0  0  0  0
    1.3647    1.1017   -2.9935 C   0  0  0  0  0  0  0  0  0  0  0  0
    1.3505    2.3227   -3.0373 O   0  0  0  0  0  0  0  0  0  0  0  0
    1.1803   -1.0703   -1.6836 C   0  0  0  0  0  0  0  0  0  0  0  0
    0.4043   -1.9073   -0.2458 S   0  0  0  0  0  0  0  0  0  0  0  0
   -1.0911   -0.5438   -2.9285 H   0  0  0  0  0  0  0  0  0  0  0  0
    0.6910    0.8950   -0.9679 H   0  0  0  0  0  0  0  0  0  0  0  0
    1.0358   -1.6864   -2.5756 H   0  0  0  0  0  0  0  0  0  0  0  0
    2.2572   -0.9901   -1.5004 H   0  0  0  0  0  0  0  0  0  0  0  0
    1.9631    0.4112   -4.0327 N   0  0  0  0  0  0  0  0  0  0  0  0
    2.3339    1.0064   -5.3216 C   0  0  2  0  0  0  0  0  0  0  0  0
    1.9659    0.0510   -6.4778 C   0  0  0  0  0  0  0  0  0  0  0  0
    1.5392   -1.0747   -6.2294 O   0  0  0  0  0  0  0  0  0  0  0  0
    3.8352    1.3051   -5.2994 C   0  0  0  0  0  0  0  0  0  0  0  0
    1.8131   -0.5959   -4.0485 H   0  0  0  0  0  0  0  0  0  0  0  0
    1.7841    1.9404   -5.4824 H   0  0  0  0  0  0  0  0  0  0  0  0
    4.4079    0.3847   -5.1473 H   0  0  0  0  0  0  0  0  0  0  0  0
    4.1521    1.7623   -6.2416 H   0  0  0  0  0  0  0  0  0  0  0  0
    4.0672    1.9993   -4.4849 H   0  0  0  0  0  0  0  0  0  0  0  0
    2.0834    0.4556   -7.7941 N   0  0  0  0  0  0  0  0  0  0  0  0
    1.7302   -0.3898   -8.9283 C   0  0  0  0  0  0  0  0  0  0  0  0
    2.4144    1.4006   -7.9693 H   0  0  0  0  0  0  0  0  0  0  0  0
    2.3293   -1.3066   -8.9251 H   0  0  0  0  0  0  0  0  0  0  0  0
    0.6702   -0.6619   -8.8893 H   0  0  0  0  0  0  0  0  0  0  0  0
    1.9165    0.1411   -9.8669 H   0  0  0  0  0  0  0  0  0  0  0  0
  1  2  2  0  0  0  0
  1  3  1  0  0  0  0
  1  7  1  0  0  0  0
  3  4  1  0  0  0  0
  3  5  1  0  0  0  0
  3  6  1  0  0  0  0
  7  8  1  0  0  0  0
  7 13  1  0  0  0  0
  8  9  1  0  0  0  0
  8 11  1  0  0  0  0
  8 14  1  0  0  0  0
  9 10  2  0  0  0  0
  9 17  1  0  0  0  0
 11 12  1  0  0  0  0
 11 15  1  0  0  0  0
 11 16  1  0  0  0  0
 12 44  1  0  0  0  0
 17 18  1  0  0  0  0
 17 19  1  0  0  0  0
 18 20  1  0  0  0  0
 18 21  1  0  0  0  0
 18 22  1  0  0  0  0
 23 24  2  0  0  0  0
 23 25  1  0  0  0  0
 23 29  1  0  0  0  0
 25 26  1  0  0  0  0
 25 27  1  0  0  0  0
 25 28  1  0  0  0  0
 29 30  1  0  0  0  0
 29 34  1  0  0  0  0
 30 31  1  0  0  0  0
 30 33  1  0  0  0  0
 30 35  1  0  0  0  0
 31 32  2  0  0  0  0
 31 39  1  0  0  0  0
 33 36  1  0  0  0  0
 33 37  1  0  0  0  0
 33 38  1  0  0  0  0
 39 40  1  0  0  0  0
 39 45  1  0  0  0  0
 40 41  1  0  0  0  0
 40 43  1  0  0  0  0
 40 46  1  0  0  0  0
 41 42  2  0  0  0  0
 41 49  1  0  0  0  0
 43 44  1  0  0  0  0
 43 47  1  0  0  0  0
 43 48  1  0  0  0  0
 49 50  1  0  0  0  0
 49 54  1  0  0  0  0
 50 51  1  0  0  0  0
 50 53  1  0  0  0  0
 50 55  1  0  0  0  0
 51 52  2  0  0  0  0
 51 59  1  0  0  0  0
 53 56  1  0  0  0  0
 53 57  1  0  0  0  0
 53 58  1  0  0  0  0
 59 60  1  0  0  0  0
 59 61  1  0  0  0  0
 60 62  1  0  0  0  0
 60 63  1  0  0  0  0
 60 64  1  0  0  0  0
M  END
$$$$

  -OEChem-05262216053D

 64 63  0     1  0  0  0  0  0999 V2000
   -0.0151   -7.5673   -0.5348 C   0  0  0  0  0  0  0  0  0  0  0  0
   -1.1404   -7.5351   -1.0079 O   0  0  0  0  0  0  0  0  0  0  0  0
    0.2791   -8.4181    0.6864 C   0  0  0  0  0  0  0  0  0  0  0  0
    0.6056   -7.7828    1.5133 H   0  0  0  0  0  0  0  0  0  0  0  0
   -0.6194   -8.9618    0.9917 H   0  0  0  0  0  0  0  0  0  0  0  0
    1.0670   -9.1401    0.4589 H   0  0  0  0  0  0  0  0  0  0  0  0
    0.9911   -6.8336   -1.1236 N   0  0  0  0  0  0  0  0  0  0  0  0
    0.8288   -6.0132   -2.3318 C   0  0  2  0  0  0  0  0  0  0  0  0
    2.1606   -5.8288   -3.0906 C   0  0  0  0  0  0  0  0  0  0  0  0
    3.2141   -6.2211   -2.6006 O   0  0  0  0  0  0  0  0  0  0  0  0
    0.2267   -4.6533   -1.9451 C   0  0  0  0  0  0  0  0  0  0  0  0
    1.3199   -3.7353   -0.7842 S   0  0  0  0  0  0  0  0  0  0  0  0
    1.9321   -6.9156   -0.7405 H   0  0  0  0  0  0  0  0  0  0  0  0
    0.1420   -6.5203   -3.0175 H   0  0  0  0  0  0  0  0  0  0  0  0
    0.0645   -4.0523   -2.8439 H   0  0  0  0  0  0  0  0  0  0  0  0
   -0.7480   -4.8068   -1.4703 H   0  0  0  0  0  0  0  0  0  0  0  0
    2.1772   -5.2545   -4.3498 N   0  0  0  0  0  0  0  0  0  0  0  0
    3.3939   -5.0949   -5.1378 C   0  0  0  0  0  0  0  0  0  0  0  0
    1.2853   -5.0120   -4.7710 H   0  0  0  0  0  0  0  0  0  0  0  0
    4.1267   -4.4885   -4.5946 H   0  0  0  0  0  0  0  0  0  0  0  0
    3.8394   -6.0709   -5.3584 H   0  0  0  0  0  0  0  0  0  0  0  0
    3.1686   -4.5949   -6.0849 H   0  0  0  0  0  0  0  0  0  0  0  0
   -5.4668    1.0906   -1.3102 C   0  0  0  0  0  0  0  0  0  0  0  0
   -5.8746    0.0653   -1.8328 O   0  0  0  0  0  0  0  0  0  0  0  0
   -6.2506    1.7317   -0.1808 C   0  0  0  0  0  0  0  0  0  0  0  0
   -6.5110    2.7598   -0.4434 H   0  0  0  0  0  0  0  0  0  0  0  0
   -7.1712    1.1713    0.0059 H   0  0  0  0  0  0  0  0  0  0  0  0
   -5.6501    1.7362    0.7321 H   0  0  0  0  0  0  0  0  0  0  0  0
   -4.2842    1.6586   -1.7351 N   0  0  0  0  0  0  0  0  0  0  0  0
   -3.3412    1.0066   -2.6529 C   0  0  2  0  0  0  0  0  0  0  0  0
   -1.8844    1.1823   -2.1797 C   0  0  0  0  0  0  0  0  0  0  0  0
   -1.5853    2.1267   -1.4601 O   0  0  0  0  0  0  0  0  0  0  0  0
   -3.5271    1.6156   -4.0448 C   0  0  0  0  0  0  0  0  0  0  0  0
   -3.9176    2.4341   -1.1835 H   0  0  0  0  0  0  0  0  0  0  0  0
   -3.5428   -0.0687   -2.7013 H   0  0  0  0  0  0  0  0  0  0  0  0
   -3.3113    2.6888   -4.0237 H   0  0  0  0  0  0  0  0  0  0  0  0
   -2.8556    1.1395   -4.7659 H   0  0  0  0  0  0  0  0  0  0  0  0
   -4.5577    1.4734   -4.3855 H   0  0  0  0  0  0  0  0  0  0  0  0
   -0.9121    0.2801   -2.5701 N   0  0  0  0  0  0  0  0  0  0  0  0
    0.5091    0.3854   -2.1951 C   0  0  2  0  0  0  0  0  0  0  0  0
    1.3055    1.2070   -3.2290 C   0  0  0  0  0  0  0  0  0  0  0  0
    1.6899    2.3401   -2.9805 O   0  0  0  0  0  0  0  0  0  0  0  0
    1.0959   -1.0252   -2.0505 C   0  0  0  0  0  0  0  0  0  0  0  0
    0.3025   -1.9194   -0.6570 S   0  0  0  0  0  0  0  0  0  0  0  0
   -1.2224   -0.5249   -3.1055 H   0  0  0  0  0  0  0  0  0  0  0  0
    0.6069    0.8942   -1.2285 H   0  0  0  0  0  0  0  0  0  0  0  0
    0.9593   -1.5947   -2.9738 H   0  0  0  0  0  0  0  0  0  0  0  0
    2.1715   -0.9544   -1.8561 H   0  0  0  0  0  0  0  0  0  0  0  0
    1.6267    0.6437   -4.4503 N   0  0  0  0  0  0  0  0  0  0  0  0
    2.1052    1.4085   -5.6071 C   0  0  2  0  0  0  0  0  0  0  0  0
    1.3944    0.9377   -6.8935 C   0  0  0  0  0  0  0  0  0  0  0  0
    0.7283   -0.0944   -6.8793 O   0  0  0  0  0  0  0  0  0  0  0  0
    3.6207    1.2230   -5.7127 C   0  0  0  0  0  0  0  0  0  0  0  0
    1.1574   -0.2315   -4.6752 H   0  0  0  0  0  0  0  0  0  0  0  0
    1.8807    2.4732   -5.4801 H   0  0  0  0  0  0  0  0  0  0  0  0
    3.8693    0.1658   -5.8503 H   0  0  0  0  0  0  0  0  0  0  0  0
    4.0204    1.7889   -6.5597 H   0  0  0  0  0  0  0  0  0  0  0  0
    4.1076    1.5802   -4.7993 H   0  0  0  0  0  0  0  0  0  0  0  0
    1.4695    1.6845   -8.0541 N   0  0  0  0  0  0  0  0  0  0  0  0
    0.7484    1.3413   -9.2737 C   0  0  0  0  0  0  0  0  0  0  0  0
    1.9836    2.5604   -8.0179 H   0  0  0  0  0  0  0  0  0  0  0  0
    1.0052    0.3282   -9.6008 H   0  0  0  0  0  0  0  0  0  0  0  0
   -0.3324    1.3942   -9.1062 H   0  0  0  0  0  0  0  0  0  0  0  0
    1.0095    2.0380  -10.0759 H   0  0  0  0  0  0  0  0  0  0  0  0
  1  2  2  0  0  0  0
  1  3  1  0  0  0  0
  1  7  1  0  0  0  0
  3  4  1  0  0  0  0
  3  5  1  0  0  0  0
  3  6  1  0  0  0  0
  7  8  1  0  0  0  0
  7 13  1  0  0  0  0
  8  9  1  0  0  0  0
  8 11  1  0  0  0  0
  8 14  1  0  0  0  0
  9 10  2  0  0  0  0
  9 17  1  0  0  0  0
 11 12  1  0  0  0  0
 11 15  1  0  0  0  0
 11 16  1  0  0  0  0
 12 44  1  0  0  0  0
 17 18  1  0  0  0  0
 17 19  1  0  0  0  0
 18 20  1  0  0  0  0
 18 21  1  0  0  0  0
 18 22  1  0  0  0  0
 23 24  2  0  0  0  0
 23 25  1  0  0  0  0
 23 29  1  0  0  0  0
 25 26  1  0  0  0  0
 25 27  1  0  0  0  0
 25 28  1  0  0  0  0
 29 30  1  0  0  0  0
 29 34  1  0  0  0  0
 30 31  1  0  0  0  0
 30 33  1  0  0  0  0
 30 35  1  0  0  0  0
 31 32  2  0  0  0  0
 31 39  1  0  0  0  0
 33 36  1  0  0  0  0
 33 37  1  0  0  0  0
 33 38  1  0  0  0  0
 39 40  1  0  0  0  0
 39 45  1  0  0  0  0
 40 41  1  0  0  0  0
 40 43  1  0  0  0  0
 40 46  1  0  0  0  0
 41 42  2  0  0  0  0
 41 49  1  0  0  0  0
 43 44  1  0  0  0  0
 43 47  1  0  0  0  0
 43 48  1  0  0  0  0
 49 50  1  0  0  0  0
 49 54  1  0  0  0  0
 50 51  1  0  0  0  0
 50 53  1  0  0  0  0
 50 55  1  0  0  0  0
 51 52  2  0  0  0  0
 51 59  1  0  0  0  0
 53 56  1  0  0  0  0
 53 57  1  0  0  0  0
 53 58  1  0  0  0  0
 59 60  1  0  0  0  0
 59 61  1  0  0  0  0
 60 62  1  0  0  0  0
 60 63  1  0  0  0  0
 60 64  1  0  0  0  0
M  END
$$$$

  -OEChem-05262216053D

 64 63  0     1  0  0  0  0  0999 V2000
   -0.0124   -7.5534   -0.5566 C   0  0  0  0  0  0  0  0  0  0  0  0
   -1.1308   -7.5300   -1.0468 O   0  0  0  0  0  0  0  0  0  0  0  0
    0.2594   -8.3685    0.6934 C   0  0  0  0  0  0  0  0  0  0  0  0
    0.6618   -7.7238    1.4787 H   0  0  0  0  0  0  0  0  0  0  0  0
   -0.6665   -8.8259    1.0533 H   0  0  0  0  0  0  0  0  0  0  0  0
    0.9812   -9.1590    0.4743 H   0  0  0  0  0  0  0  0  0  0  0  0
    1.0053   -6.8384   -1.1491 N   0  0  0  0  0  0  0  0  0  0  0  0
    0.8560   -6.0275   -2.3657 C   0  0  2  0  0  0  0  0  0  0  0  0
    2.1941   -5.8463   -3.1145 C   0  0  0  0  0  0  0  0  0  0  0  0
    3.2441   -6.2331   -2.6132 O   0  0  0  0  0  0  0  0  0  0  0  0
    0.2504   -4.6647   -1.9945 C   0  0  0  0  0  0  0  0  0  0  0  0
    1.3342   -3.7427   -0.8284 S   0  0  0  0  0  0  0  0  0  0  0  0
    1.9402   -6.9122   -0.7495 H   0  0  0  0  0  0  0  0  0  0  0  0
    0.1752   -6.5407   -3.0529 H   0  0  0  0  0  0  0  0  0  0  0  0
    0.0968   -4.0690   -2.8984 H   0  0  0  0  0  0  0  0  0  0  0  0
   -0.7288   -4.8154   -1.5282 H   0  0  0  0  0  0  0  0  0  0  0  0
    2.2214   -5.2718   -4.3736 N   0  0  0  0  0  0  0  0  0  0  0  0
    3.4484   -5.0839   -5.1386 C   0  0  0  0  0  0  0  0  0  0  0  0
    1.3356   -5.0073   -4.7939 H   0  0  0  0  0  0  0  0  0  0  0  0
    4.1422   -4.4332   -4.5954 H   0  0  0  0  0  0  0  0  0  0  0  0
    3.9377   -6.0466   -5.3220 H   0  0  0  0  0  0  0  0  0  0  0  0
    3.2249   -4.6206   -6.1046 H   0  0  0  0  0  0  0  0  0  0  0  0
   -5.4987    1.1769   -1.2262 C   0  0  0  0  0  0  0  0  0  0  0  0
   -5.9381    0.1089   -1.6219 O   0  0  0  0  0  0  0  0  0  0  0  0
   -6.2692    1.9813   -0.1969 C   0  0  0  0  0  0  0  0  0  0  0  0
   -6.5713    2.9404   -0.6241 H   0  0  0  0  0  0  0  0  0  0  0  0
   -7.1642    1.4353    0.1140 H   0  0  0  0  0  0  0  0  0  0  0  0
   -5.6438    2.1608    0.6810 H   0  0  0  0  0  0  0  0  0  0  0  0
   -4.2950    1.6471   -1.7066 N   0  0  0  0  0  0  0  0  0  0  0  0
   -3.3888    0.8708   -2.5623 C   0  0  2  0  0  0  0  0  0  0  0  0
   -1.9113    1.1454   -2.2187 C   0  0  0  0  0  0  0  0  0  0  0  0
   -1.5951    2.1699   -1.6276 O   0  0  0  0  0  0  0  0  0  0  0  0
   -3.6716    1.2335   -4.0228 C   0  0  0  0  0  0  0  0  0  0  0  0
   -3.9059    2.4787   -1.2627 H   0  0  0  0  0  0  0  0  0  0  0  0
   -3.5652   -0.2004   -2.4164 H   0  0  0  0  0  0  0  0  0  0  0  0
   -3.4901    2.2996   -4.1940 H   0  0  0  0  0  0  0  0  0  0  0  0
   -3.0270    0.6588   -4.6953 H   0  0  0  0  0  0  0  0  0  0  0  0
   -4.7144    1.0120   -4.2712 H   0  0  0  0  0  0  0  0  0  0  0  0
   -0.9325    0.2469   -2.5987 N   0  0  0  0  0  0  0  0  0  0  0  0
    0.4850    0.3759   -2.2179 C   0  0  2  0  0  0  0  0  0  0  0  0
    1.2697    1.1974   -3.2580 C   0  0  0  0  0  0  0  0  0  0  0  0
    1.9489    2.1567   -2.9217 O   0  0  0  0  0  0  0  0  0  0  0  0
    1.0946   -1.0235   -2.0822 C   0  0  0  0  0  0  0  0  0  0  0  0
    0.3055   -1.9348   -0.6969 S   0  0  0  0  0  0  0  0  0  0  0  0
   -1.2594   -0.6494   -2.9468 H   0  0  0  0  0  0  0  0  0  0  0  0
    0.5760    0.8874   -1.2517 H   0  0  0  0  0  0  0  0  0  0  0  0
    0.9760   -1.5860   -3.0126 H   0  0  0  0  0  0  0  0  0  0  0  0
    2.1674   -0.9351   -1.8792 H   0  0  0  0  0  0  0  0  0  0  0  0
    1.3295    0.7539   -4.5664 N   0  0  0  0  0  0  0  0  0  0  0  0
    1.8192    1.5746   -5.6802 C   0  0  2  0  0  0  0  0  0  0  0  0
    0.8440    1.5032   -6.8740 C   0  0  0  0  0  0  0  0  0  0  0  0
   -0.0318    0.6424   -6.8967 O   0  0  0  0  0  0  0  0  0  0  0  0
    3.2078    1.0679   -6.0765 C   0  0  0  0  0  0  0  0  0  0  0  0
    0.6279    0.0606   -4.8211 H   0  0  0  0  0  0  0  0  0  0  0  0
    1.8918    2.6252   -5.3786 H   0  0  0  0  0  0  0  0  0  0  0  0
    3.1567    0.0244   -6.4039 H   0  0  0  0  0  0  0  0  0  0  0  0
    3.6186    1.6699   -6.8930 H   0  0  0  0  0  0  0  0  0  0  0  0
    3.8896    1.1336   -5.2223 H   0  0  0  0  0  0  0  0  0  0  0  0
    0.9373    2.4089   -7.9144 N   0  0  0  0  0  0  0  0  0  0  0  0
    0.0192    2.4267   -9.0471 C   0  0  0  0  0  0  0  0  0  0  0  0
    1.6429    3.1369   -7.8437 H   0  0  0  0  0  0  0  0  0  0  0  0
    0.0384    1.4670   -9.5741 H   0  0  0  0  0  0  0  0  0  0  0  0
   -1.0036    2.6218   -8.7082 H   0  0  0  0  0  0  0  0  0  0  0  0
    0.3054    3.2119   -9.7538 H   0  0  0  0  0  0  0  0  0  0  0  0
  1  2  2  0  0  0  0
  1  3  1  0  0  0  0
  1  7  1  0  0  0  0
  3  4  1  0  0  0  0
  3  5  1  0  0  0  0
  3  6  1  0  0  0  0
  7  8  1  0  0  0  0
  7 13  1  0  0  0  0
  8  9  1  0  0  0  0
  8 11  1  0  0  0  0
  8 14  1  0  0  0  0
  9 10  2  0  0  0  0
  9 17  1  0  0  0  0
 11 12  1  0  0  0  0
 11 15  1  0  0  0  0
 11 16  1  0  0  0  0
 12 44  1  0  0  0  0
 17 18  1  0  0  0  0
 17 19  1  0  0  0  0
 18 20  1  0  0  0  0
 18 21  1  0  0  0  0
 18 22  1  0  0  0  0
 23 24  2  0  0  0  0
 23 25  1  0  0  0  0
 23 29  1  0  0  0  0
 25 26  1  0  0  0  0
 25 27  1  0  0  0  0
 25 28  1  0  0  0  0
 29 30  1  0  0  0  0
 29 34  1  0  0  0  0
 30 31  1  0  0  0  0
 30 33  1  0  0  0  0
 30 35  1  0  0  0  0
 31 32  2  0  0  0  0
 31 39  1  0  0  0  0
 33 36  1  0  0  0  0
 33 37  1  0  0  0  0
 33 38  1  0  0  0  0
 39 40  1  0  0  0  0
 39 45  1  0  0  0  0
 40 41  1  0  0  0  0
 40 43  1  0  0  0  0
 40 46  1  0  0  0  0
 41 42  2  0  0  0  0
 41 49  1  0  0  0  0
 43 44  1  0  0  0  0
 43 47  1  0  0  0  0
 43 48  1  0  0  0  0
 49 50  1  0  0  0  0
 49 54  1  0  0  0  0
 50 51  1  0  0  0  0
 50 53  1  0  0  0  0
 50 55  1  0  0  0  0
 51 52  2  0  0  0  0
 51 59  1  0  0  0  0
 53 56  1  0  0  0  0
 53 57  1  0  0  0  0
 53 58  1  0  0  0  0
 59 60  1  0  0  0  0
 59 61  1  0  0  0  0
 60 62  1  0  0  0  0
 60 63  1  0  0  0  0
 60 64  1  0  0  0  0
M  END
$$$$

  -OEChem-05262216053D

 64 63  0     1  0  0  0  0  0999 V2000
   -0.0204   -7.5806   -0.5441 C   0  0  0  0  0  0  0  0  0  0  0  0
   -1.1193   -7.6166   -1.0754 O   0  0  0  0  0  0  0  0  0  0  0  0
    0.2530   -8.3880    0.7102 C   0  0  0  0  0  0  0  0  0  0  0  0
    0.5025   -7.7175    1.5363 H   0  0  0  0  0  0  0  0  0  0  0  0
   -0.6311   -8.9709    0.9830 H   0  0  0  0  0  0  0  0  0  0  0  0
    1.0879   -9.0724    0.5403 H   0  0  0  0  0  0  0  0  0  0  0  0
    0.9764   -6.8055   -1.0937 N   0  0  0  0  0  0  0  0  0  0  0  0
    0.8384   -6.0190   -2.3265 C   0  0  2  0  0  0  0  0  0  0  0  0
    2.1872   -5.8487   -3.0574 C   0  0  0  0  0  0  0  0  0  0  0  0
    3.2314   -6.2142   -2.5287 O   0  0  0  0  0  0  0  0  0  0  0  0
    0.2169   -4.6551   -1.9878 C   0  0  0  0  0  0  0  0  0  0  0  0
    1.2666   -3.7059   -0.8124 S   0  0  0  0  0  0  0  0  0  0  0  0
    1.9015   -6.8427   -0.6677 H   0  0  0  0  0  0  0  0  0  0  0  0
    0.1719   -6.5479   -3.0157 H   0  0  0  0  0  0  0  0  0  0  0  0
    0.0802   -4.0724   -2.9028 H   0  0  0  0  0  0  0  0  0  0  0  0
   -0.7712   -4.8085   -1.5407 H   0  0  0  0  0  0  0  0  0  0  0  0
    2.2290   -5.3242   -4.3373 N   0  0  0  0  0  0  0  0  0  0  0  0
    3.4626   -5.1916   -5.1038 C   0  0  0  0  0  0  0  0  0  0  0  0
    1.3453   -5.1055   -4.7872 H   0  0  0  0  0  0  0  0  0  0  0  0
    4.1905   -4.5822   -4.5573 H   0  0  0  0  0  0  0  0  0  0  0  0
    3.9022   -6.1759   -5.2974 H   0  0  0  0  0  0  0  0  0  0  0  0
    3.2609   -4.7079   -6.0644 H   0  0  0  0  0  0  0  0  0  0  0  0
   -5.4196    1.0432   -1.2243 C   0  0  0  0  0  0  0  0  0  0  0  0
   -5.7824   -0.0530   -1.6206 O   0  0  0  0  0  0  0  0  0  0  0  0
   -6.1650    1.7272   -0.0942 C   0  0  0  0  0  0  0  0  0  0  0  0
   -6.4900    2.7218   -0.4086 H   0  0  0  0  0  0  0  0  0  0  0  0
   -7.0449    1.1411    0.1851 H   0  0  0  0  0  0  0  0  0  0  0  0
   -5.5133    1.8227    0.7779 H   0  0  0  0  0  0  0  0  0  0  0  0
   -4.3190    1.6543   -1.7875 N   0  0  0  0  0  0  0  0  0  0  0  0
   -3.3964    0.9938   -2.7198 C   0  0  2  0  0  0  0  0  0  0  0  0
   -1.9287    1.2149   -2.3063 C   0  0  0  0  0  0  0  0  0  0  0  0
   -1.6032    2.2386   -1.7182 O   0  0  0  0  0  0  0  0  0  0  0  0
   -3.6427    1.5609   -4.1206 C   0  0  0  0  0  0  0  0  0  0  0  0
   -3.9764    2.4985   -1.3305 H   0  0  0  0  0  0  0  0  0  0  0  0
   -3.5761   -0.0863   -2.7352 H   0  0  0  0  0  0  0  0  0  0  0  0
   -3.4523    2.6391   -4.1367 H   0  0  0  0  0  0  0  0  0  0  0  0
   -2.9836    1.0820   -4.8519 H   0  0  0  0  0  0  0  0  0  0  0  0
   -4.6799    1.3848   -4.4226 H   0  0  0  0  0  0  0  0  0  0  0  0
   -0.9594    0.2941   -2.6553 N   0  0  0  0  0  0  0  0  0  0  0  0
    0.4508    0.4080   -2.2411 C   0  0  2  0  0  0  0  0  0  0  0  0
    1.2642    1.2068   -3.2749 C   0  0  0  0  0  0  0  0  0  0  0  0
    2.1394    1.9870   -2.9274 O   0  0  0  0  0  0  0  0  0  0  0  0
    1.0453   -0.9959   -2.0931 C   0  0  0  0  0  0  0  0  0  0  0  0
    0.2187   -1.9046   -0.7280 S   0  0  0  0  0  0  0  0  0  0  0  0
   -1.2957   -0.6072   -2.9818 H   0  0  0  0  0  0  0  0  0  0  0  0
    0.5293    0.9255   -1.2775 H   0  0  0  0  0  0  0  0  0  0  0  0
    0.9436   -1.5543   -3.0284 H   0  0  0  0  0  0  0  0  0  0  0  0
    2.1142   -0.9154   -1.8664 H   0  0  0  0  0  0  0  0  0  0  0  0
    1.0916    0.9291   -4.6173 N   0  0  0  0  0  0  0  0  0  0  0  0
    1.5336    1.8258   -5.6903 C   0  0  2  0  0  0  0  0  0  0  0  0
    0.3908    2.0391   -6.7067 C   0  0  0  0  0  0  0  0  0  0  0  0
   -0.6007    1.3145   -6.6705 O   0  0  0  0  0  0  0  0  0  0  0  0
    2.7626    1.2044   -6.3570 C   0  0  0  0  0  0  0  0  0  0  0  0
    0.2483    0.3980   -4.8311 H   0  0  0  0  0  0  0  0  0  0  0  0
    1.8011    2.8074   -5.2839 H   0  0  0  0  0  0  0  0  0  0  0  0
    2.5155    0.2263   -6.7817 H   0  0  0  0  0  0  0  0  0  0  0  0
    3.1343    1.8492   -7.1588 H   0  0  0  0  0  0  0  0  0  0  0  0
    3.5615    1.0734   -5.6201 H   0  0  0  0  0  0  0  0  0  0  0  0
    0.4583    3.0509   -7.6461 N   0  0  0  0  0  0  0  0  0  0  0  0
   -0.6173    3.3388   -8.5879 C   0  0  0  0  0  0  0  0  0  0  0  0
    1.2642    3.6692   -7.6158 H   0  0  0  0  0  0  0  0  0  0  0  0
   -0.8562    2.4496   -9.1811 H   0  0  0  0  0  0  0  0  0  0  0  0
   -1.5186    3.6580   -8.0539 H   0  0  0  0  0  0  0  0  0  0  0  0
   -0.3183    4.1388   -9.2722 H   0  0  0  0  0  0  0  0  0  0  0  0
  1  2  2  0  0  0  0
  1  3  1  0  0  0  0
  1  7  1  0  0  0  0
  3  4  1  0  0  0  0
  3  5  1  0  0  0  0
  3  6  1  0  0  0  0
  7  8  1  0  0  0  0
  7 13  1  0  0  0  0
  8  9  1  0  0  0  0
  8 11  1  0  0  0  0
  8 14  1  0  0  0  0
  9 10  2  0  0  0  0
  9 17  1  0  0  0  0
 11 12  1  0  0  0  0
 11 15  1  0  0  0  0
 11 16  1  0  0  0  0
 12 44  1  0  0  0  0
 17 18  1  0  0  0  0
 17 19  1  0  0  0  0
 18 20  1  0  0  0  0
 18 21  1  0  0  0  0
 18 22  1  0  0  0  0
 23 24  2  0  0  0  0
 23 25  1  0  0  0  0
 23 29  1  0  0  0  0
 25 26  1  0  0  0  0
 25 27  1  0  0  0  0
 25 28  1  0  0  0  0
 29 30  1  0  0  0  0
 29 34  1  0  0  0  0
 30 31  1  0  0  0  0
 30 33  1  0  0  0  0
 30 35  1  0  0  0  0
 31 32  2  0  0  0  0
 31 39  1  0  0  0  0
 33 36  1  0  0  0  0
 33 37  1  0  0  0  0
 33 38  1  0  0  0  0
 39 40  1  0  0  0  0
 39 45  1  0  0  0  0
 40 41  1  0  0  0  0
 40 43  1  0  0  0  0
 40 46  1  0  0  0  0
 41 42  2  0  0  0  0
 41 49  1  0  0  0  0
 43 44  1  0  0  0  0
 43 47  1  0  0  0  0
 43 48  1  0  0  0  0
 49 50  1  0  0  0  0
 49 54  1  0  0  0  0
 50 51  1  0  0  0  0
 50 53  1  0  0  0  0
 50 55  1  0  0  0  0
 51 52  2  0  0  0  0
 51 59  1  0  0  0  0
 53 56  1  0  0  0  0
 53 57  1  0  0  0  0
 53 58  1  0  0  0  0
 59 60  1  0  0  0  0
 59 61  1  0  0  0  0
 60 62  1  0  0  0  0
 60 63  1  0  0  0  0
 60 64  1  0  0  0  0
M  END
$$$$

  -OEChem-05262216053D

 64 63  0     1  0  0  0  0  0999 V2000
   -0.0332   -7.5576   -0.5426 C   0  0  0  0  0  0  0  0  0  0  0  0
   -1.1401   -7.5553   -1.0587 O   0  0  0  0  0  0  0  0  0  0  0  0
    0.2236   -8.3608    0.7178 C   0  0  0  0  0  0  0  0  0  0  0  0
    0.5047   -7.6909    1.5343 H   0  0  0  0  0  0  0  0  0  0  0  0
   -0.6772   -8.9105    1.0051 H   0  0  0  0  0  0  0  0  0  0  0  0
    1.0328   -9.0749    0.5469 H   0  0  0  0  0  0  0  0  0  0  0  0
    0.9871   -6.8307   -1.1144 N   0  0  0  0  0  0  0  0  0  0  0  0
    0.8597   -6.0490   -2.3515 C   0  0  2  0  0  0  0  0  0  0  0  0
    2.2125   -5.8833   -3.0762 C   0  0  0  0  0  0  0  0  0  0  0  0
    3.2493   -6.2781   -2.5536 O   0  0  0  0  0  0  0  0  0  0  0  0
    0.2389   -4.6815   -2.0258 C   0  0  0  0  0  0  0  0  0  0  0  0
    1.2907   -3.7192   -0.8639 S   0  0  0  0  0  0  0  0  0  0  0  0
    1.9173   -6.9053   -0.7042 H   0  0  0  0  0  0  0  0  0  0  0  0
    0.1966   -6.5815   -3.0413 H   0  0  0  0  0  0  0  0  0  0  0  0
    0.0992   -4.1088   -2.9466 H   0  0  0  0  0  0  0  0  0  0  0  0
   -0.7479   -4.8286   -1.5746 H   0  0  0  0  0  0  0  0  0  0  0  0
    2.2665   -5.3281   -4.3432 N   0  0  0  0  0  0  0  0  0  0  0  0
    3.5089   -5.1590   -5.0875 C   0  0  0  0  0  0  0  0  0  0  0  0
    1.3915   -5.0495   -4.7769 H   0  0  0  0  0  0  0  0  0  0  0  0
    4.1917   -4.4959   -4.5456 H   0  0  0  0  0  0  0  0  0  0  0  0
    4.0013   -6.1257   -5.2376 H   0  0  0  0  0  0  0  0  0  0  0  0
    3.3061   -4.7192   -6.0686 H   0  0  0  0  0  0  0  0  0  0  0  0
   -5.4516    1.0693   -1.0998 C   0  0  0  0  0  0  0  0  0  0  0  0
   -5.8198   -0.0476   -1.4274 O   0  0  0  0  0  0  0  0  0  0  0  0
   -6.1829    1.8174   -0.0014 C   0  0  0  0  0  0  0  0  0  0  0  0
   -6.5238    2.7868   -0.3726 H   0  0  0  0  0  0  0  0  0  0  0  0
   -7.0513    1.2424    0.3323 H   0  0  0  0  0  0  0  0  0  0  0  0
   -5.5158    1.9743    0.8497 H   0  0  0  0  0  0  0  0  0  0  0  0
   -4.3614    1.6474   -1.7157 N   0  0  0  0  0  0  0  0  0  0  0  0
   -3.4624    0.9393   -2.6370 C   0  0  2  0  0  0  0  0  0  0  0  0
   -1.9820    1.1755   -2.2783 C   0  0  0  0  0  0  0  0  0  0  0  0
   -1.6412    2.2050   -1.7091 O   0  0  0  0  0  0  0  0  0  0  0  0
   -3.7489    1.4335   -4.0578 C   0  0  0  0  0  0  0  0  0  0  0  0
   -4.0111    2.5159   -1.3135 H   0  0  0  0  0  0  0  0  0  0  0  0
   -3.6429   -0.1398   -2.5918 H   0  0  0  0  0  0  0  0  0  0  0  0
   -3.5664    2.5105   -4.1344 H   0  0  0  0  0  0  0  0  0  0  0  0
   -3.1057    0.9226   -4.7811 H   0  0  0  0  0  0  0  0  0  0  0  0
   -4.7922    1.2364   -4.3239 H   0  0  0  0  0  0  0  0  0  0  0  0
   -1.0148    0.2657   -2.6635 N   0  0  0  0  0  0  0  0  0  0  0  0
    0.4054    0.3880   -2.2809 C   0  0  2  0  0  0  0  0  0  0  0  0
    1.2008    1.2056   -3.3155 C   0  0  0  0  0  0  0  0  0  0  0  0
    2.2491    1.7558   -3.0077 O   0  0  0  0  0  0  0  0  0  0  0  0
    1.0117   -1.0128   -2.1560 C   0  0  0  0  0  0  0  0  0  0  0  0
    0.2194   -1.9318   -0.7767 S   0  0  0  0  0  0  0  0  0  0  0  0
   -1.3518   -0.6409   -2.9755 H   0  0  0  0  0  0  0  0  0  0  0  0
    0.5000    0.8956   -1.3135 H   0  0  0  0  0  0  0  0  0  0  0  0
    0.8927   -1.5642   -3.0930 H   0  0  0  0  0  0  0  0  0  0  0  0
    2.0850   -0.9283   -1.9518 H   0  0  0  0  0  0  0  0  0  0  0  0
    0.8068    1.1866   -4.6396 N   0  0  0  0  0  0  0  0  0  0  0  0
    1.2882    2.1404   -5.6439 C   0  0  2  0  0  0  0  0  0  0  0  0
    0.1135    2.6588   -6.5012 C   0  0  0  0  0  0  0  0  0  0  0  0
   -0.9693    2.0802   -6.4691 O   0  0  0  0  0  0  0  0  0  0  0  0
    2.3352    1.4379   -6.5110 C   0  0  0  0  0  0  0  0  0  0  0  0
   -0.1396    0.8407   -4.7941 H   0  0  0  0  0  0  0  0  0  0  0  0
    1.7460    3.0072   -5.1548 H   0  0  0  0  0  0  0  0  0  0  0  0
    1.8964    0.5710   -7.0150 H   0  0  0  0  0  0  0  0  0  0  0  0
    2.7278    2.1211   -7.2700 H   0  0  0  0  0  0  0  0  0  0  0  0
    3.1692    1.0958   -5.8897 H   0  0  0  0  0  0  0  0  0  0  0  0
    0.2627    3.7804   -7.2957 N   0  0  0  0  0  0  0  0  0  0  0  0
   -0.8180    4.3476   -8.0933 C   0  0  0  0  0  0  0  0  0  0  0  0
    1.1554    4.2647   -7.2639 H   0  0  0  0  0  0  0  0  0  0  0  0
   -1.1918    3.6112   -8.8124 H   0  0  0  0  0  0  0  0  0  0  0  0
   -1.6456    4.6632   -7.4495 H   0  0  0  0  0  0  0  0  0  0  0  0
   -0.4603    5.2200   -8.6487 H   0  0  0  0  0  0  0  0  0  0  0  0
  1  2  2  0  0  0  0
  1  3  1  0  0  0  0
  1  7  1  0  0  0  0
  3  4  1  0  0  0  0
  3  5  1  0  0  0  0
  3  6  1  0  0  0  0
  7  8  1  0  0  0  0
  7 13  1  0  0  0  0
  8  9  1  0  0  0  0
  8 11  1  0  0  0  0
  8 14  1  0  0  0  0
  9 10  2  0  0  0  0
  9 17  1  0  0  0  0
 11 12  1  0  0  0  0
 11 15  1  0  0  0  0
 11 16  1  0  0  0  0
 12 44  1  0  0  0  0
 17 18  1  0  0  0  0
 17 19  1  0  0  0  0
 18 20  1  0  0  0  0
 18 21  1  0  0  0  0
 18 22  1  0  0  0  0
 23 24  2  0  0  0  0
 23 25  1  0  0  0  0
 23 29  1  0  0  0  0
 25 26  1  0  0  0  0
 25 27  1  0  0  0  0
 25 28  1  0  0  0  0
 29 30  1  0  0  0  0
 29 34  1  0  0  0  0
 30 31  1  0  0  0  0
 30 33  1  0  0  0  0
 30 35  1  0  0  0  0
 31 32  2  0  0  0  0
 31 39  1  0  0  0  0
 33 36  1  0  0  0  0
 33 37  1  0  0  0  0
 33 38  1  0  0  0  0
 39 40  1  0  0  0  0
 39 45  1  0  0  0  0
 40 41  1  0  0  0  0
 40 43  1  0  0  0  0
 40 46  1  0  0  0  0
 41 42  2  0  0  0  0
 41 49  1  0  0  0  0
 43 44  1  0  0  0  0
 43 47  1  0  0  0  0
 43 48  1  0  0  0  0
 49 50  1  0  0  0  0
 49 54  1  0  0  0  0
 50 51  1  0  0  0  0
 50 53  1  0  0  0  0
 50 55  1  0  0  0  0
 51 52  2  0  0  0  0
 51 59  1  0  0  0  0
 53 56  1  0  0  0  0
 53 57  1  0  0  0  0
 53 58  1  0  0  0  0
 59 60  1  0  0  0  0
 59 61  1  0  0  0  0
 60 62  1  0  0  0  0
 60 63  1  0  0  0  0
 60 64  1  0  0  0  0
M  END
$$$$

  -OEChem-05262216053D

 64 63  0     1  0  0  0  0  0999 V2000
   -0.0272   -7.5480   -0.5481 C   0  0  0  0  0  0  0  0  0  0  0  0
   -1.1338   -7.5456   -1.0647 O   0  0  0  0  0  0  0  0  0  0  0  0
    0.2258   -8.3447    0.7175 C   0  0  0  0  0  0  0  0  0  0  0  0
    0.5248   -7.6736    1.5266 H   0  0  0  0  0  0  0  0  0  0  0  0
   -0.6824   -8.8757    1.0167 H   0  0  0  0  0  0  0  0  0  0  0  0
    1.0200   -9.0754    0.5462 H   0  0  0  0  0  0  0  0  0  0  0  0
    0.9959   -6.8309   -1.1277 N   0  0  0  0  0  0  0  0  0  0  0  0
    0.8732   -6.0595   -2.3721 C   0  0  2  0  0  0  0  0  0  0  0  0
    2.2313   -5.8937   -3.0877 C   0  0  0  0  0  0  0  0  0  0  0  0
    3.2652   -6.2838   -2.5560 O   0  0  0  0  0  0  0  0  0  0  0  0
    0.2453   -4.6914   -2.0626 C   0  0  0  0  0  0  0  0  0  0  0  0
    1.2886   -3.7174   -0.9023 S   0  0  0  0  0  0  0  0  0  0  0  0
    1.9237   -6.8954   -0.7105 H   0  0  0  0  0  0  0  0  0  0  0  0
    0.2168   -6.6001   -3.0619 H   0  0  0  0  0  0  0  0  0  0  0  0
    0.1102   -4.1269   -2.9891 H   0  0  0  0  0  0  0  0  0  0  0  0
   -0.7442   -4.8373   -1.6168 H   0  0  0  0  0  0  0  0  0  0  0  0
    2.2924   -5.3435   -4.3563 N   0  0  0  0  0  0  0  0  0  0  0  0
    3.5372   -5.1783   -5.0974 C   0  0  0  0  0  0  0  0  0  0  0  0
    1.4180   -5.0827   -4.8014 H   0  0  0  0  0  0  0  0  0  0  0  0
    4.2411   -4.5584   -4.5317 H   0  0  0  0  0  0  0  0  0  0  0  0
    4.0008   -6.1515   -5.2905 H   0  0  0  0  0  0  0  0  0  0  0  0
    3.3435   -4.6905   -6.0576 H   0  0  0  0  0  0  0  0  0  0  0  0
   -5.4931    1.0906   -1.0457 C   0  0  0  0  0  0  0  0  0  0  0  0
   -5.8831   -0.0196   -1.3707 O   0  0  0  0  0  0  0  0  0  0  0  0
   -6.2122    1.8569    0.0481 C   0  0  0  0  0  0  0  0  0  0  0  0
   -6.5027    2.8450   -0.3163 H   0  0  0  0  0  0  0  0  0  0  0  0
   -7.1115    1.3170    0.3572 H   0  0  0  0  0  0  0  0  0  0  0  0
   -5.5561    1.9730    0.9141 H   0  0  0  0  0  0  0  0  0  0  0  0
   -4.3877    1.6431   -1.6583 N   0  0  0  0  0  0  0  0  0  0  0  0
   -3.5055    0.9167   -2.5811 C   0  0  2  0  0  0  0  0  0  0  0  0
   -2.0184    1.1642   -2.2581 C   0  0  0  0  0  0  0  0  0  0  0  0
   -1.6708    2.1939   -1.6931 O   0  0  0  0  0  0  0  0  0  0  0  0
   -3.8237    1.3771   -4.0065 C   0  0  0  0  0  0  0  0  0  0  0  0
   -4.0226    2.5090   -1.2635 H   0  0  0  0  0  0  0  0  0  0  0  0
   -3.6820   -0.1613   -2.5047 H   0  0  0  0  0  0  0  0  0  0  0  0
   -3.6477    2.4529   -4.1114 H   0  0  0  0  0  0  0  0  0  0  0  0
   -3.1935    0.8525   -4.7309 H   0  0  0  0  0  0  0  0  0  0  0  0
   -4.8715    1.1704   -4.2465 H   0  0  0  0  0  0  0  0  0  0  0  0
   -1.0512    0.2649   -2.6689 N   0  0  0  0  0  0  0  0  0  0  0  0
    0.3733    0.3914   -2.3007 C   0  0  2  0  0  0  0  0  0  0  0  0
    1.1628    1.2281   -3.3264 C   0  0  0  0  0  0  0  0  0  0  0  0
    2.3129    1.5769   -3.0967 O   0  0  0  0  0  0  0  0  0  0  0  0
    0.9816   -1.0122   -2.1968 C   0  0  0  0  0  0  0  0  0  0  0  0
    0.2011   -1.9405   -0.8167 S   0  0  0  0  0  0  0  0  0  0  0  0
   -1.3851   -0.6392   -2.9914 H   0  0  0  0  0  0  0  0  0  0  0  0
    0.4739    0.8861   -1.3275 H   0  0  0  0  0  0  0  0  0  0  0  0
    0.8523   -1.5556   -3.1377 H   0  0  0  0  0  0  0  0  0  0  0  0
    2.0575   -0.9327   -2.0036 H   0  0  0  0  0  0  0  0  0  0  0  0
    0.6108    1.4897   -4.5651 N   0  0  0  0  0  0  0  0  0  0  0  0
    1.1326    2.4892   -5.5017 C   0  0  2  0  0  0  0  0  0  0  0  0
   -0.0269    3.2501   -6.1791 C   0  0  0  0  0  0  0  0  0  0  0  0
   -1.1693    2.8025   -6.1247 O   0  0  0  0  0  0  0  0  0  0  0  0
    2.0020    1.7753   -6.5395 C   0  0  0  0  0  0  0  0  0  0  0  0
   -0.3901    1.3067   -4.6345 H   0  0  0  0  0  0  0  0  0  0  0  0
    1.7408    3.2256   -4.9652 H   0  0  0  0  0  0  0  0  0  0  0  0
    1.4117    1.0371   -7.0915 H   0  0  0  0  0  0  0  0  0  0  0  0
    2.4175    2.4939   -7.2522 H   0  0  0  0  0  0  0  0  0  0  0  0
    2.8321    1.2600   -6.0458 H   0  0  0  0  0  0  0  0  0  0  0  0
    0.2053    4.4477   -6.8294 N   0  0  0  0  0  0  0  0  0  0  0  0
   -0.8561    5.2583   -7.4149 C   0  0  0  0  0  0  0  0  0  0  0  0
    1.1485    4.8244   -6.7957 H   0  0  0  0  0  0  0  0  0  0  0  0
   -1.4178    4.6808   -8.1569 H   0  0  0  0  0  0  0  0  0  0  0  0
   -1.5487    5.6016   -6.6392 H   0  0  0  0  0  0  0  0  0  0  0  0
   -0.4307    6.1353   -7.9122 H   0  0  0  0  0  0  0  0  0  0  0  0
  1  2  2  0  0  0  0
  1  3  1  0  0  0  0
  1  7  1  0  0  0  0
  3  4  1  0  0  0  0
  3  5  1  0  0  0  0
  3  6  1  0  0  0  0
  7  8  1  0  0  0  0
  7 13  1  0  0  0  0
  8  9  1  0  0  0  0
  8 11  1  0  0  0  0
  8 14  1  0  0  0  0
  9 10  2  0  0  0  0
  9 17  1  0  0  0  0
 11 12  1  0  0  0  0
 11 15  1  0  0  0  0
 11 16  1  0  0  0  0
 12 44  1  0  0  0  0
 17 18  1  0  0  0  0
 17 19  1  0  0  0  0
 18 20  1  0  0  0  0
 18 21  1  0  0  0  0
 18 22  1  0  0  0  0
 23 24  2  0  0  0  0
 23 25  1  0  0  0  0
 23 29  1  0  0  0  0
 25 26  1  0  0  0  0
 25 27  1  0  0  0  0
 25 28  1  0  0  0  0
 29 30  1  0  0  0  0
 29 34  1  0  0  0  0
 30 31  1  0  0  0  0
 30 33  1  0  0  0  0
 30 35  1  0  0  0  0
 31 32  2  0  0  0  0
 31 39  1  0  0  0  0
 33 36  1  0  0  0  0
 33 37  1  0  0  0  0
 33 38  1  0  0  0  0
 39 40  1  0  0  0  0
 39 45  1  0  0  0  0
 40 41  1  0  0  0  0
 40 43  1  0  0  0  0
 40 46  1  0  0  0  0
 41 42  2  0  0  0  0
 41 49  1  0  0  0  0
 43 44  1  0  0  0  0
 43 47  1  0  0  0  0
 43 48  1  0  0  0  0
 49 50  1  0  0  0  0
 49 54  1  0  0  0  0
 50 51  1  0  0  0  0
 50 53  1  0  0  0  0
 50 55  1  0  0  0  0
 51 52  2  0  0  0  0
 51 59  1  0  0  0  0
 53 56  1  0  0  0  0
 53 57  1  0  0  0  0
 53 58  1  0  0  0  0
 59 60  1  0  0  0  0
 59 61  1  0  0  0  0
 60 62  1  0  0  0  0
 60 63  1  0  0  0  0
 60 64  1  0  0  0  0
M  END
$$$$

  -OEChem-05262216053D

 64 63  0     1  0  0  0  0  0999 V2000
   -0.0339   -7.5675   -0.6444 C   0  0  0  0  0  0  0  0  0  0  0  0
   -1.1262   -7.5791   -1.1903 O   0  0  0  0  0  0  0  0  0  0  0  0
    0.1837   -8.3200    0.6544 C   0  0  0  0  0  0  0  0  0  0  0  0
    0.5703   -7.6411    1.4185 H   0  0  0  0  0  0  0  0  0  0  0  0
   -0.7602   -8.7449    1.0067 H   0  0  0  0  0  0  0  0  0  0  0  0
    0.9003   -9.1301    0.5001 H   0  0  0  0  0  0  0  0  0  0  0  0
    1.0064   -6.8693   -1.2159 N   0  0  0  0  0  0  0  0  0  0  0  0
    0.9175   -6.1085   -2.4697 C   0  0  2  0  0  0  0  0  0  0  0  0
    2.2986   -5.9398   -3.1401 C   0  0  0  0  0  0  0  0  0  0  0  0
    3.3119   -6.3501   -2.5842 O   0  0  0  0  0  0  0  0  0  0  0  0
    0.2736   -4.7421   -2.1856 C   0  0  0  0  0  0  0  0  0  0  0  0
    1.2690   -3.7709   -0.9818 S   0  0  0  0  0  0  0  0  0  0  0  0
    1.9210   -6.9219   -0.7690 H   0  0  0  0  0  0  0  0  0  0  0  0
    0.2859   -6.6574   -3.1760 H   0  0  0  0  0  0  0  0  0  0  0  0
    0.1726   -4.1759   -3.1155 H   0  0  0  0  0  0  0  0  0  0  0  0
   -0.7319   -4.8912   -1.7789 H   0  0  0  0  0  0  0  0  0  0  0  0
    2.4081   -5.3594   -4.3919 N   0  0  0  0  0  0  0  0  0  0  0  0
    3.6831   -5.1657   -5.0727 C   0  0  0  0  0  0  0  0  0  0  0  0
    1.5563   -5.0434   -4.8449 H   0  0  0  0  0  0  0  0  0  0  0  0
    4.3358   -4.5118   -4.4847 H   0  0  0  0  0  0  0  0  0  0  0  0
    4.1885   -6.1258   -5.2224 H   0  0  0  0  0  0  0  0  0  0  0  0
    3.5237   -4.7035   -6.0516 H   0  0  0  0  0  0  0  0  0  0  0  0
   -5.5491    1.2209   -0.9728 C   0  0  0  0  0  0  0  0  0  0  0  0
   -5.9913    0.1375   -1.3206 O   0  0  0  0  0  0  0  0  0  0  0  0
   -6.2779    2.0386    0.0760 C   0  0  0  0  0  0  0  0  0  0  0  0
   -6.6113    2.9849   -0.3570 H   0  0  0  0  0  0  0  0  0  0  0  0
   -7.1503    1.4899    0.4423 H   0  0  0  0  0  0  0  0  0  0  0  0
   -5.6124    2.2445    0.9178 H   0  0  0  0  0  0  0  0  0  0  0  0
   -4.3843    1.7027   -1.5315 N   0  0  0  0  0  0  0  0  0  0  0  0
   -3.5297    0.9409   -2.4510 C   0  0  2  0  0  0  0  0  0  0  0  0
   -2.0329    1.1632   -2.1597 C   0  0  0  0  0  0  0  0  0  0  0  0
   -1.6554    2.1761   -1.5836 O   0  0  0  0  0  0  0  0  0  0  0  0
   -3.8602    1.3759   -3.8817 C   0  0  0  0  0  0  0  0  0  0  0  0
   -3.9917    2.5554   -1.1346 H   0  0  0  0  0  0  0  0  0  0  0  0
   -3.7280   -0.1308   -2.3452 H   0  0  0  0  0  0  0  0  0  0  0  0
   -3.6396    2.4397   -4.0217 H   0  0  0  0  0  0  0  0  0  0  0  0
   -3.2713    0.8033   -4.6044 H   0  0  0  0  0  0  0  0  0  0  0  0
   -4.9213    1.2089   -4.0920 H   0  0  0  0  0  0  0  0  0  0  0  0
   -1.0870    0.2670   -2.6228 N   0  0  0  0  0  0  0  0  0  0  0  0
    0.3443    0.3631   -2.2741 C   0  0  2  0  0  0  0  0  0  0  0  0
    1.1330    1.2300   -3.2795 C   0  0  0  0  0  0  0  0  0  0  0  0
    2.3442    1.3710   -3.1717 O   0  0  0  0  0  0  0  0  0  0  0  0
    0.9217   -1.0569   -2.2291 C   0  0  0  0  0  0  0  0  0  0  0  0
    0.1450   -2.0185   -0.8705 S   0  0  0  0  0  0  0  0  0  0  0  0
   -1.4384   -0.6238   -2.9635 H   0  0  0  0  0  0  0  0  0  0  0  0
    0.4669    0.8184   -1.2848 H   0  0  0  0  0  0  0  0  0  0  0  0
    0.7652   -1.5623   -3.1867 H   0  0  0  0  0  0  0  0  0  0  0  0
    2.0013   -1.0088   -2.0493 H   0  0  0  0  0  0  0  0  0  0  0  0
    0.4797    1.8068   -4.3511 N   0  0  0  0  0  0  0  0  0  0  0  0
    1.0469    2.8412   -5.2201 C   0  0  2  0  0  0  0  0  0  0  0  0
   -0.0671    3.7711   -5.7477 C   0  0  0  0  0  0  0  0  0  0  0  0
   -1.2428    3.4242   -5.6779 O   0  0  0  0  0  0  0  0  0  0  0  0
    1.7825    2.1664   -6.3816 C   0  0  0  0  0  0  0  0  0  0  0  0
   -0.5390    1.7739   -4.3099 H   0  0  0  0  0  0  0  0  0  0  0  0
    1.7522    3.4548   -4.6496 H   0  0  0  0  0  0  0  0  0  0  0  0
    1.0890    1.5595   -6.9725 H   0  0  0  0  0  0  0  0  0  0  0  0
    2.2355    2.9167   -7.0366 H   0  0  0  0  0  0  0  0  0  0  0  0
    2.5774    1.5170   -6.0017 H   0  0  0  0  0  0  0  0  0  0  0  0
    0.2452    5.0026   -6.2931 N   0  0  0  0  0  0  0  0  0  0  0  0
   -0.7596    5.9458   -6.7698 C   0  0  0  0  0  0  0  0  0  0  0  0
    1.2219    5.2818   -6.2961 H   0  0  0  0  0  0  0  0  0  0  0  0
   -1.3504    5.5024   -7.5783 H   0  0  0  0  0  0  0  0  0  0  0  0
   -1.4344    6.2320   -5.9560 H   0  0  0  0  0  0  0  0  0  0  0  0
   -0.2762    6.8499   -7.1524 H   0  0  0  0  0  0  0  0  0  0  0  0
  1  2  2  0  0  0  0
  1  3  1  0  0  0  0
  1  7  1  0  0  0  0
  3  4  1  0  0  0  0
  3  5  1  0  0  0  0
  3  6  1  0  0  0  0
  7  8  1  0  0  0  0
  7 13  1  0  0  0  0
  8  9  1  0  0  0  0
  8 11  1  0  0  0  0
  8 14  1  0  0  0  0
  9 10  2  0  0  0  0
  9 17  1  0  0  0  0
 11 12  1  0  0  0  0
 11 15  1  0  0  0  0
 11 16  1  0  0  0  0
 12 44  1  0  0  0  0
 17 18  1  0  0  0  0
 17 19  1  0  0  0  0
 18 20  1  0  0  0  0
 18 21  1  0  0  0  0
 18 22  1  0  0  0  0
 23 24  2  0  0  0  0
 23 25  1  0  0  0  0
 23 29  1  0  0  0  0
 25 26  1  0  0  0  0
 25 27  1  0  0  0  0
 25 28  1  0  0  0  0
 29 30  1  0  0  0  0
 29 34  1  0  0  0  0
 30 31  1  0  0  0  0
 30 33  1  0  0  0  0
 30 35  1  0  0  0  0
 31 32  2  0  0  0  0
 31 39  1  0  0  0  0
 33 36  1  0  0  0  0
 33 37  1  0  0  0  0
 33 38  1  0  0  0  0
 39 40  1  0  0  0  0
 39 45  1  0  0  0  0
 40 41  1  0  0  0  0
 40 43  1  0  0  0  0
 40 46  1  0  0  0  0
 41 42  2  0  0  0  0
 41 49  1  0  0  0  0
 43 44  1  0  0  0  0
 43 47  1  0  0  0  0
 43 48  1  0  0  0  0
 49 50  1  0  0  0  0
 49 54  1  0  0  0  0
 50 51  1  0  0  0  0
 50 53  1  0  0  0  0
 50 55  1  0  0  0  0
 51 52  2  0  0  0  0
 51 59  1  0  0  0  0
 53 56  1  0  0  0  0
 53 57  1  0  0  0  0
 53 58  1  0  0  0  0
 59 60  1  0  0  0  0
 59 61  1  0  0  0  0
 60 62  1  0  0  0  0
 60 63  1  0  0  0  0
 60 64  1  0  0  0  0
M  END
$$$$

  -OEChem-05262216053D

 64 63  0     1  0  0  0  0  0999 V2000
   -0.0590   -7.5771   -0.7508 C   0  0  0  0  0  0  0  0  0  0  0  0
   -1.1367   -7.5662   -1.3252 O   0  0  0  0  0  0  0  0  0  0  0  0
    0.1117   -8.3456    0.5457 C   0  0  0  0  0  0  0  0  0  0  0  0
    0.4491   -7.6713    1.3368 H   0  0  0  0  0  0  0  0  0  0  0  0
   -0.8397   -8.7937    0.8467 H   0  0  0  0  0  0  0  0  0  0  0  0
    0.8507   -9.1395    0.4141 H   0  0  0  0  0  0  0  0  0  0  0  0
    1.0056   -6.8872   -1.2870 N   0  0  0  0  0  0  0  0  0  0  0  0
    0.9551   -6.1030   -2.5287 C   0  0  2  0  0  0  0  0  0  0  0  0
    2.3554   -5.9170   -3.1529 C   0  0  0  0  0  0  0  0  0  0  0  0
    3.3543   -6.3172   -2.5644 O   0  0  0  0  0  0  0  0  0  0  0  0
    0.2955   -4.7436   -2.2435 C   0  0  0  0  0  0  0  0  0  0  0  0
    1.2449   -3.7853   -0.9932 S   0  0  0  0  0  0  0  0  0  0  0  0
    1.9063   -6.9518   -0.8141 H   0  0  0  0  0  0  0  0  0  0  0  0
    0.3495   -6.6421   -3.2647 H   0  0  0  0  0  0  0  0  0  0  0  0
    0.2229   -4.1632   -3.1672 H   0  0  0  0  0  0  0  0  0  0  0  0
   -0.7225   -4.9036   -1.8735 H   0  0  0  0  0  0  0  0  0  0  0  0
    2.4974   -5.3382   -4.4024 N   0  0  0  0  0  0  0  0  0  0  0  0
    3.7912   -5.1309   -5.0429 C   0  0  0  0  0  0  0  0  0  0  0  0
    1.6565   -5.0309   -4.8818 H   0  0  0  0  0  0  0  0  0  0  0  0
    4.4067   -4.4471   -4.4487 H   0  0  0  0  0  0  0  0  0  0  0  0
    4.3240   -6.0817   -5.1507 H   0  0  0  0  0  0  0  0  0  0  0  0
    3.6559   -4.6979   -6.0385 H   0  0  0  0  0  0  0  0  0  0  0  0
   -5.5916    1.3011   -0.9361 C   0  0  0  0  0  0  0  0  0  0  0  0
   -6.0779    0.2512   -1.3253 O   0  0  0  0  0  0  0  0  0  0  0  0
   -6.2964    2.1168    0.1309 C   0  0  0  0  0  0  0  0  0  0  0  0
   -6.6002    3.0830   -0.2784 H   0  0  0  0  0  0  0  0  0  0  0  0
   -7.1858    1.5871    0.4837 H   0  0  0  0  0  0  0  0  0  0  0  0
   -5.6264    2.2817    0.9781 H   0  0  0  0  0  0  0  0  0  0  0  0
   -4.3915    1.7376   -1.4557 N   0  0  0  0  0  0  0  0  0  0  0  0
   -3.5520    0.9561   -2.3723 C   0  0  2  0  0  0  0  0  0  0  0  0
   -2.0517    1.1728   -2.0922 C   0  0  0  0  0  0  0  0  0  0  0  0
   -1.6682    2.1742   -1.4998 O   0  0  0  0  0  0  0  0  0  0  0  0
   -3.8911    1.3760   -3.8057 C   0  0  0  0  0  0  0  0  0  0  0  0
   -3.9698    2.5650   -1.0354 H   0  0  0  0  0  0  0  0  0  0  0  0
   -3.7584   -0.1126   -2.2485 H   0  0  0  0  0  0  0  0  0  0  0  0
   -3.6717    2.4385   -3.9564 H   0  0  0  0  0  0  0  0  0  0  0  0
   -3.3072    0.7962   -4.5266 H   0  0  0  0  0  0  0  0  0  0  0  0
   -4.9537    1.2077   -4.0080 H   0  0  0  0  0  0  0  0  0  0  0  0
   -1.1045    0.2920   -2.5803 N   0  0  0  0  0  0  0  0  0  0  0  0
    0.3253    0.3728   -2.2200 C   0  0  2  0  0  0  0  0  0  0  0  0
    1.1230    1.2739   -3.1910 C   0  0  0  0  0  0  0  0  0  0  0  0
    2.3447    1.2137   -3.2513 O   0  0  0  0  0  0  0  0  0  0  0  0
    0.8928   -1.0533   -2.2078 C   0  0  0  0  0  0  0  0  0  0  0  0
    0.1007   -2.0454   -0.8797 S   0  0  0  0  0  0  0  0  0  0  0  0
   -1.4541   -0.5823   -2.9625 H   0  0  0  0  0  0  0  0  0  0  0  0
    0.4409    0.7976   -1.2163 H   0  0  0  0  0  0  0  0  0  0  0  0
    0.7432   -1.5319   -3.1798 H   0  0  0  0  0  0  0  0  0  0  0  0
    1.9709   -1.0189   -2.0161 H   0  0  0  0  0  0  0  0  0  0  0  0
    0.4521    2.1274   -4.0447 N   0  0  0  0  0  0  0  0  0  0  0  0
    1.0767    3.1302   -4.9127 C   0  0  2  0  0  0  0  0  0  0  0  0
    0.0669    4.2390   -5.2776 C   0  0  0  0  0  0  0  0  0  0  0  0
   -1.1381    4.0375   -5.1625 O   0  0  0  0  0  0  0  0  0  0  0  0
    1.5930    2.4486   -6.1846 C   0  0  0  0  0  0  0  0  0  0  0  0
   -0.5441    2.2493   -3.8575 H   0  0  0  0  0  0  0  0  0  0  0  0
    1.9135    3.5979   -4.3834 H   0  0  0  0  0  0  0  0  0  0  0  0
    0.7695    1.9641   -6.7187 H   0  0  0  0  0  0  0  0  0  0  0  0
    2.0576    3.1816   -6.8507 H   0  0  0  0  0  0  0  0  0  0  0  0
    2.3410    1.6897   -5.9354 H   0  0  0  0  0  0  0  0  0  0  0  0
    0.5074    5.4673   -5.7350 N   0  0  0  0  0  0  0  0  0  0  0  0
   -0.3932    6.5654   -6.0649 C   0  0  0  0  0  0  0  0  0  0  0  0
    1.5104    5.6160   -5.7984 H   0  0  0  0  0  0  0  0  0  0  0  0
   -1.0549    6.2824   -6.8902 H   0  0  0  0  0  0  0  0  0  0  0  0
   -1.0057    6.8324   -5.1971 H   0  0  0  0  0  0  0  0  0  0  0  0
    0.1793    7.4474   -6.3676 H   0  0  0  0  0  0  0  0  0  0  0  0
  1  2  2  0  0  0  0
  1  3  1  0  0  0  0
  1  7  1  0  0  0  0
  3  4  1  0  0  0  0
  3  5  1  0  0  0  0
  3  6  1  0  0  0  0
  7  8  1  0  0  0  0
  7 13  1  0  0  0  0
  8  9  1  0  0  0  0
  8 11  1  0  0  0  0
  8 14  1  0  0  0  0
  9 10  2  0  0  0  0
  9 17  1  0  0  0  0
 11 12  1  0  0  0  0
 11 15  1  0  0  0  0
 11 16  1  0  0  0  0
 12 44  1  0  0  0  0
 17 18  1  0  0  0  0
 17 19  1  0  0  0  0
 18 20  1  0  0  0  0
 18 21  1  0  0  0  0
 18 22  1  0  0  0  0
 23 24  2  0  0  0  0
 23 25  1  0  0  0  0
 23 29  1  0  0  0  0
 25 26  1  0  0  0  0
 25 27  1  0  0  0  0
 25 28  1  0  0  0  0
 29 30  1  0  0  0  0
 29 34  1  0  0  0  0
 30 31  1  0  0  0  0
 30 33  1  0  0  0  0
 30 35  1  0  0  0  0
 31 32  2  0  0  0  0
 31 39  1  0  0  0  0
 33 36  1  0  0  0  0
 33 37  1  0  0  0  0
 33 38  1  0  0  0  0
 39 40  1  0  0  0  0
 39 45  1  0  0  0  0
 40 41  1  0  0  0  0
 40 43  1  0  0  0  0
 40 46  1  0  0  0  0
 41 42  2  0  0  0  0
 41 49  1  0  0  0  0
 43 44  1  0  0  0  0
 43 47  1  0  0  0  0
 43 48  1  0  0  0  0
 49 50  1  0  0  0  0
 49 54  1  0  0  0  0
 50 51  1  0  0  0  0
 50 53  1  0  0  0  0
 50 55  1  0  0  0  0
 51 52  2  0  0  0  0
 51 59  1  0  0  0  0
 53 56  1  0  0  0  0
 53 57  1  0  0  0  0
 53 58  1  0  0  0  0
 59 60  1  0  0  0  0
 59 61  1  0  0  0  0
 60 62  1  0  0  0  0
 60 63  1  0  0  0  0
 60 64  1  0  0  0  0
M  END
$$$$

  -OEChem-05262216053D

 64 63  0     1  0  0  0  0  0999 V2000
   -0.0497   -7.5888   -0.6688 C   0  0  0  0  0  0  0  0  0  0  0  0
   -1.1389   -7.5991   -1.2210 O   0  0  0  0  0  0  0  0  0  0  0  0
    0.1609   -8.3506    0.6259 C   0  0  0  0  0  0  0  0  0  0  0  0
    0.5141   -7.6706    1.4054 H   0  0  0  0  0  0  0  0  0  0  0  0
   -0.7790   -8.8038    0.9537 H   0  0  0  0  0  0  0  0  0  0  0  0
    0.9012   -9.1405    0.4774 H   0  0  0  0  0  0  0  0  0  0  0  0
    0.9917   -6.8838   -1.2298 N   0  0  0  0  0  0  0  0  0  0  0  0
    0.9056   -6.1133   -2.4780 C   0  0  2  0  0  0  0  0  0  0  0  0
    2.2911   -5.9201   -3.1320 C   0  0  0  0  0  0  0  0  0  0  0  0
    3.3048   -6.3128   -2.5641 O   0  0  0  0  0  0  0  0  0  0  0  0
    0.2396   -4.7579   -2.1918 C   0  0  0  0  0  0  0  0  0  0  0  0
    1.2113   -3.7778   -0.9762 S   0  0  0  0  0  0  0  0  0  0  0  0
    1.9033   -6.9328   -0.7763 H   0  0  0  0  0  0  0  0  0  0  0  0
    0.2899   -6.6657   -3.1954 H   0  0  0  0  0  0  0  0  0  0  0  0
    0.1370   -4.1887   -3.1196 H   0  0  0  0  0  0  0  0  0  0  0  0
   -0.7668   -4.9238   -1.7937 H   0  0  0  0  0  0  0  0  0  0  0  0
    2.4040   -5.3355   -4.3814 N   0  0  0  0  0  0  0  0  0  0  0  0
    3.6830   -5.1043   -5.0425 C   0  0  0  0  0  0  0  0  0  0  0  0
    1.5515   -5.0328   -4.8423 H   0  0  0  0  0  0  0  0  0  0  0  0
    4.3126   -4.4435   -4.4371 H   0  0  0  0  0  0  0  0  0  0  0  0
    4.2122   -6.0507   -5.1969 H   0  0  0  0  0  0  0  0  0  0  0  0
    3.5254   -4.6333   -6.0178 H   0  0  0  0  0  0  0  0  0  0  0  0
   -5.5485    1.1434   -1.0034 C   0  0  0  0  0  0  0  0  0  0  0  0
   -5.9740    0.0813   -1.4290 O   0  0  0  0  0  0  0  0  0  0  0  0
   -6.2955    1.8768    0.0943 C   0  0  0  0  0  0  0  0  0  0  0  0
   -6.6125    2.8594   -0.2636 H   0  0  0  0  0  0  0  0  0  0  0  0
   -7.1803    1.3075    0.3927 H   0  0  0  0  0  0  0  0  0  0  0  0
   -5.6486    2.0040    0.9658 H   0  0  0  0  0  0  0  0  0  0  0  0
   -4.3862    1.6770   -1.5186 N   0  0  0  0  0  0  0  0  0  0  0  0
   -3.5133    0.9905   -2.4788 C   0  0  2  0  0  0  0  0  0  0  0  0
   -2.0246    1.1874   -2.1359 C   0  0  0  0  0  0  0  0  0  0  0  0
   -1.6531    2.1763   -1.5156 O   0  0  0  0  0  0  0  0  0  0  0  0
   -3.8125    1.5474   -3.8732 C   0  0  0  0  0  0  0  0  0  0  0  0
   -4.0127    2.5115   -1.0680 H   0  0  0  0  0  0  0  0  0  0  0  0
   -3.7124   -0.0864   -2.4692 H   0  0  0  0  0  0  0  0  0  0  0  0
   -3.6052    2.6223   -3.9095 H   0  0  0  0  0  0  0  0  0  0  0  0
   -3.1956    1.0498   -4.6275 H   0  0  0  0  0  0  0  0  0  0  0  0
   -4.8652    1.3867   -4.1264 H   0  0  0  0  0  0  0  0  0  0  0  0
   -1.0656    0.3197   -2.6214 N   0  0  0  0  0  0  0  0  0  0  0  0
    0.3552    0.3879   -2.2304 C   0  0  2  0  0  0  0  0  0  0  0  0
    1.1621    1.3134   -3.1713 C   0  0  0  0  0  0  0  0  0  0  0  0
    2.3336    1.0813   -3.4452 O   0  0  0  0  0  0  0  0  0  0  0  0
    0.9143   -1.0422   -2.2112 C   0  0  0  0  0  0  0  0  0  0  0  0
    0.0824   -2.0268   -0.9014 S   0  0  0  0  0  0  0  0  0  0  0  0
   -1.4037   -0.5373   -3.0498 H   0  0  0  0  0  0  0  0  0  0  0  0
    0.4504    0.7994   -1.2193 H   0  0  0  0  0  0  0  0  0  0  0  0
    0.7833   -1.5173   -3.1877 H   0  0  0  0  0  0  0  0  0  0  0  0
    1.9879   -1.0160   -1.9948 H   0  0  0  0  0  0  0  0  0  0  0  0
    0.5347    2.3859   -3.7764 N   0  0  0  0  0  0  0  0  0  0  0  0
    1.1869    3.3732   -4.6440 C   0  0  2  0  0  0  0  0  0  0  0  0
    0.3875    4.6921   -4.6951 C   0  0  0  0  0  0  0  0  0  0  0  0
   -0.8110    4.6996   -4.4364 O   0  0  0  0  0  0  0  0  0  0  0  0
    1.3177    2.7898   -6.0554 C   0  0  0  0  0  0  0  0  0  0  0  0
   -0.3868    2.6326   -3.4056 H   0  0  0  0  0  0  0  0  0  0  0  0
    2.1830    3.6001   -4.2498 H   0  0  0  0  0  0  0  0  0  0  0  0
    0.3295    2.5552   -6.4636 H   0  0  0  0  0  0  0  0  0  0  0  0
    1.8092    3.5052   -6.7216 H   0  0  0  0  0  0  0  0  0  0  0  0
    1.9138    1.8722   -6.0374 H   0  0  0  0  0  0  0  0  0  0  0  0
    1.0117    5.8735   -5.0514 N   0  0  0  0  0  0  0  0  0  0  0  0
    0.3206    7.1557   -5.1187 C   0  0  0  0  0  0  0  0  0  0  0  0
    2.0096    5.8415   -5.2390 H   0  0  0  0  0  0  0  0  0  0  0  0
   -0.4926    7.1148   -5.8513 H   0  0  0  0  0  0  0  0  0  0  0  0
   -0.0985    7.4182   -4.1414 H   0  0  0  0  0  0  0  0  0  0  0  0
    1.0167    7.9448   -5.4196 H   0  0  0  0  0  0  0  0  0  0  0  0
  1  2  2  0  0  0  0
  1  3  1  0  0  0  0
  1  7  1  0  0  0  0
  3  4  1  0  0  0  0
  3  5  1  0  0  0  0
  3  6  1  0  0  0  0
  7  8  1  0  0  0  0
  7 13  1  0  0  0  0
  8  9  1  0  0  0  0
  8 11  1  0  0  0  0
  8 14  1  0  0  0  0
  9 10  2  0  0  0  0
  9 17  1  0  0  0  0
 11 12  1  0  0  0  0
 11 15  1  0  0  0  0
 11 16  1  0  0  0  0
 12 44  1  0  0  0  0
 17 18  1  0  0  0  0
 17 19  1  0  0  0  0
 18 20  1  0  0  0  0
 18 21  1  0  0  0  0
 18 22  1  0  0  0  0
 23 24  2  0  0  0  0
 23 25  1  0  0  0  0
 23 29  1  0  0  0  0
 25 26  1  0  0  0  0
 25 27  1  0  0  0  0
 25 28  1  0  0  0  0
 29 30  1  0  0  0  0
 29 34  1  0  0  0  0
 30 31  1  0  0  0  0
 30 33  1  0  0  0  0
 30 35  1  0  0  0  0
 31 32  2  0  0  0  0
 31 39  1  0  0  0  0
 33 36  1  0  0  0  0
 33 37  1  0  0  0  0
 33 38  1  0  0  0  0
 39 40  1  0  0  0  0
 39 45  1  0  0  0  0
 40 41  1  0  0  0  0
 40 43  1  0  0  0  0
 40 46  1  0  0  0  0
 41 42  2  0  0  0  0
 41 49  1  0  0  0  0
 43 44  1  0  0  0  0
 43 47  1  0  0  0  0
 43 48  1  0  0  0  0
 49 50  1  0  0  0  0
 49 54  1  0  0  0  0
 50 51  1  0  0  0  0
 50 53  1  0  0  0  0
 50 55  1  0  0  0  0
 51 52  2  0  0  0  0
 51 59  1  0  0  0  0
 53 56  1  0  0  0  0
 53 57  1  0  0  0  0
 53 58  1  0  0  0  0
 59 60  1  0  0  0  0
 59 61  1  0  0  0  0
 60 62  1  0  0  0  0
 60 63  1  0  0  0  0
 60 64  1  0  0  0  0
M  END
$$$$

  -OEChem-05262216053D

 64 63  0     1  0  0  0  0  0999 V2000
   -0.1397   -7.6461   -0.9913 C   0  0  0  0  0  0  0  0  0  0  0  0
   -1.1690   -7.5881   -1.6460 O   0  0  0  0  0  0  0  0  0  0  0  0
   -0.0666   -8.5178    0.2476 C   0  0  0  0  0  0  0  0  0  0  0  0
    0.0697   -7.8932    1.1339 H   0  0  0  0  0  0  0  0  0  0  0  0
   -0.9904   -9.0921    0.3592 H   0  0  0  0  0  0  0  0  0  0  0  0
    0.7727   -9.2127    0.1668 H   0  0  0  0  0  0  0  0  0  0  0  0
    0.9590   -6.9141   -1.3832 N   0  0  0  0  0  0  0  0  0  0  0  0
    1.0097   -6.0573   -2.5759 C   0  0  2  0  0  0  0  0  0  0  0  0
    2.4547   -5.8530   -3.0810 C   0  0  0  0  0  0  0  0  0  0  0  0
    3.4001   -6.3215   -2.4558 O   0  0  0  0  0  0  0  0  0  0  0  0
    0.3411   -4.7113   -2.2557 C   0  0  0  0  0  0  0  0  0  0  0  0
    1.2422   -3.8161   -0.9251 S   0  0  0  0  0  0  0  0  0  0  0  0
    1.8236   -7.0273   -0.8551 H   0  0  0  0  0  0  0  0  0  0  0  0
    0.4570   -6.5425   -3.3870 H   0  0  0  0  0  0  0  0  0  0  0  0
    0.3100   -4.0893   -3.1542 H   0  0  0  0  0  0  0  0  0  0  0  0
   -0.6924   -4.8829   -1.9372 H   0  0  0  0  0  0  0  0  0  0  0  0
    2.6982   -5.1731   -4.2619 N   0  0  0  0  0  0  0  0  0  0  0  0
    4.0396   -4.9076   -4.7687 C   0  0  0  0  0  0  0  0  0  0  0  0
    1.9019   -4.7851   -4.7581 H   0  0  0  0  0  0  0  0  0  0  0  0
    4.5806   -4.2410   -4.0887 H   0  0  0  0  0  0  0  0  0  0  0  0
    4.6045   -5.8403   -4.8708 H   0  0  0  0  0  0  0  0  0  0  0  0
    3.9853   -4.4301   -5.7519 H   0  0  0  0  0  0  0  0  0  0  0  0
   -5.5398    1.5726   -0.8843 C   0  0  0  0  0  0  0  0  0  0  0  0
   -6.0827    0.5048   -1.1203 O   0  0  0  0  0  0  0  0  0  0  0  0
   -6.2086    2.5823    0.0287 C   0  0  0  0  0  0  0  0  0  0  0  0
   -6.3310    3.5337   -0.4943 H   0  0  0  0  0  0  0  0  0  0  0  0
   -7.1938    2.2195    0.3356 H   0  0  0  0  0  0  0  0  0  0  0  0
   -5.5971    2.7401    0.9204 H   0  0  0  0  0  0  0  0  0  0  0  0
   -4.3106    1.8566   -1.4404 N   0  0  0  0  0  0  0  0  0  0  0  0
   -3.5150    0.9047   -2.2261 C   0  0  2  0  0  0  0  0  0  0  0  0
   -2.0019    1.1543   -2.0553 C   0  0  0  0  0  0  0  0  0  0  0  0
   -1.5945    2.1833   -1.5276 O   0  0  0  0  0  0  0  0  0  0  0  0
   -3.9195    1.0404   -3.6979 C   0  0  0  0  0  0  0  0  0  0  0  0
   -3.8428    2.7116   -1.1392 H   0  0  0  0  0  0  0  0  0  0  0  0
   -3.7195   -0.1164   -1.8856 H   0  0  0  0  0  0  0  0  0  0  0  0
   -3.7176    2.0549   -4.0573 H   0  0  0  0  0  0  0  0  0  0  0  0
   -3.3625    0.3331   -4.3195 H   0  0  0  0  0  0  0  0  0  0  0  0
   -4.9880    0.8343   -3.8178 H   0  0  0  0  0  0  0  0  0  0  0  0
   -1.0666    0.2621   -2.5457 N   0  0  0  0  0  0  0  0  0  0  0  0
    0.3624    0.3358   -2.1877 C   0  0  2  0  0  0  0  0  0  0  0  0
    1.1465    1.2335   -3.1741 C   0  0  0  0  0  0  0  0  0  0  0  0
    2.2198    0.8801   -3.6501 O   0  0  0  0  0  0  0  0  0  0  0  0
    0.9188   -1.0948   -2.1548 C   0  0  0  0  0  0  0  0  0  0  0  0
    0.1208   -2.0625   -0.8132 S   0  0  0  0  0  0  0  0  0  0  0  0
   -1.4261   -0.6274   -2.8802 H   0  0  0  0  0  0  0  0  0  0  0  0
    0.4840    0.7687   -1.1885 H   0  0  0  0  0  0  0  0  0  0  0  0
    0.7669   -1.5849   -3.1206 H   0  0  0  0  0  0  0  0  0  0  0  0
    1.9970   -1.0644   -1.9639 H   0  0  0  0  0  0  0  0  0  0  0  0
    0.6173    2.4531   -3.5511 N   0  0  0  0  0  0  0  0  0  0  0  0
    1.2811    3.4355   -4.4169 C   0  0  2  0  0  0  0  0  0  0  0  0
    0.7160    4.8564   -4.2096 C   0  0  0  0  0  0  0  0  0  0  0  0
   -0.4377    5.0150   -3.8282 O   0  0  0  0  0  0  0  0  0  0  0  0
    1.1017    3.0162   -5.8803 C   0  0  0  0  0  0  0  0  0  0  0  0
   -0.2288    2.7540   -3.0551 H   0  0  0  0  0  0  0  0  0  0  0  0
    2.3486    3.4625   -4.1754 H   0  0  0  0  0  0  0  0  0  0  0  0
    0.0386    2.9803   -6.1389 H   0  0  0  0  0  0  0  0  0  0  0  0
    1.5978    3.7289   -6.5455 H   0  0  0  0  0  0  0  0  0  0  0  0
    1.5371    2.0271   -6.0522 H   0  0  0  0  0  0  0  0  0  0  0  0
    1.4974    5.9662   -4.4764 N   0  0  0  0  0  0  0  0  0  0  0  0
    1.0244    7.3342   -4.3022 C   0  0  0  0  0  0  0  0  0  0  0  0
    2.4581    5.8099   -4.7671 H   0  0  0  0  0  0  0  0  0  0  0  0
    0.1620    7.5255   -4.9496 H   0  0  0  0  0  0  0  0  0  0  0  0
    0.7290    7.5082   -3.2621 H   0  0  0  0  0  0  0  0  0  0  0  0
    1.8154    8.0452   -4.5600 H   0  0  0  0  0  0  0  0  0  0  0  0
  1  2  2  0  0  0  0
  1  3  1  0  0  0  0
  1  7  1  0  0  0  0
  3  4  1  0  0  0  0
  3  5  1  0  0  0  0
  3  6  1  0  0  0  0
  7  8  1  0  0  0  0
  7 13  1  0  0  0  0
  8  9  1  0  0  0  0
  8 11  1  0  0  0  0
  8 14  1  0  0  0  0
  9 10  2  0  0  0  0
  9 17  1  0  0  0  0
 11 12  1  0  0  0  0
 11 15  1  0  0  0  0
 11 16  1  0  0  0  0
 12 44  1  0  0  0  0
 17 18  1  0  0  0  0
 17 19  1  0  0  0  0
 18 20  1  0  0  0  0
 18 21  1  0  0  0  0
 18 22  1  0  0  0  0
 23 24  2  0  0  0  0
 23 25  1  0  0  0  0
 23 29  1  0  0  0  0
 25 26  1  0  0  0  0
 25 27  1  0  0  0  0
 25 28  1  0  0  0  0
 29 30  1  0  0  0  0
 29 34  1  0  0  0  0
 30 31  1  0  0  0  0
 30 33  1  0  0  0  0
 30 35  1  0  0  0  0
 31 32  2  0  0  0  0
 31 39  1  0  0  0  0
 33 36  1  0  0  0  0
 33 37  1  0  0  0  0
 33 38  1  0  0  0  0
 39 40  1  0  0  0  0
 39 45  1  0  0  0  0
 40 41  1  0  0  0  0
 40 43  1  0  0  0  0
 40 46  1  0  0  0  0
 41 42  2  0  0  0  0
 41 49  1  0  0  0  0
 43 44  1  0  0  0  0
 43 47  1  0  0  0  0
 43 48  1  0  0  0  0
 49 50  1  0  0  0  0
 49 54  1  0  0  0  0
 50 51  1  0  0  0  0
 50 53  1  0  0  0  0
 50 55  1  0  0  0  0
 51 52  2  0  0  0  0
 51 59  1  0  0  0  0
 53 56  1  0  0  0  0
 53 57  1  0  0  0  0
 53 58  1  0  0  0  0
 59 60  1  0  0  0  0
 59 61  1  0  0  0  0
 60 62  1  0  0  0  0
 60 63  1  0  0  0  0
 60 64  1  0  0  0  0
M  END
$$$$

  -OEChem-05262216053D

 64 63  0     1  0  0  0  0  0999 V2000
   -0.1106   -7.6481   -0.9183 C   0  0  0  0  0  0  0  0  0  0  0  0
   -1.1524   -7.5942   -1.5533 O   0  0  0  0  0  0  0  0  0  0  0  0
   -0.0085   -8.5269    0.3137 C   0  0  0  0  0  0  0  0  0  0  0  0
    0.1879   -7.9106    1.1944 H   0  0  0  0  0  0  0  0  0  0  0  0
   -0.9437   -9.0726    0.4662 H   0  0  0  0  0  0  0  0  0  0  0  0
    0.8039   -9.2474    0.1927 H   0  0  0  0  0  0  0  0  0  0  0  0
    0.9759   -6.9066   -1.3271 N   0  0  0  0  0  0  0  0  0  0  0  0
    1.0015   -6.0495   -2.5208 C   0  0  2  0  0  0  0  0  0  0  0  0
    2.4364   -5.8418   -3.0545 C   0  0  0  0  0  0  0  0  0  0  0  0
    3.3925   -6.3307   -2.4620 O   0  0  0  0  0  0  0  0  0  0  0  0
    0.3337   -4.7055   -2.1906 C   0  0  0  0  0  0  0  0  0  0  0  0
    1.2550   -3.7950   -0.8854 S   0  0  0  0  0  0  0  0  0  0  0  0
    1.8529   -7.0230   -0.8209 H   0  0  0  0  0  0  0  0  0  0  0  0
    0.4340   -6.5368   -3.3206 H   0  0  0  0  0  0  0  0  0  0  0  0
    0.2797   -4.0882   -3.0911 H   0  0  0  0  0  0  0  0  0  0  0  0
   -0.6915   -4.8812   -1.8482 H   0  0  0  0  0  0  0  0  0  0  0  0
    2.6594   -5.1405   -4.2269 N   0  0  0  0  0  0  0  0  0  0  0  0
    3.9897   -4.8968   -4.7725 C   0  0  0  0  0  0  0  0  0  0  0  0
    1.8551   -4.7442   -4.7030 H   0  0  0  0  0  0  0  0  0  0  0  0
    4.5891   -4.3050   -4.0726 H   0  0  0  0  0  0  0  0  0  0  0  0
    4.5052   -5.8434   -4.9657 H   0  0  0  0  0  0  0  0  0  0  0  0
    3.9168   -4.3469   -5.7157 H   0  0  0  0  0  0  0  0  0  0  0  0
   -5.5398    1.5233   -0.9817 C   0  0  0  0  0  0  0  0  0  0  0  0
   -6.0672    0.4545   -1.2464 O   0  0  0  0  0  0  0  0  0  0  0  0
   -6.2194    2.4941   -0.0347 C   0  0  0  0  0  0  0  0  0  0  0  0
   -6.3750    3.4545   -0.5317 H   0  0  0  0  0  0  0  0  0  0  0  0
   -7.1894    2.0981    0.2787 H   0  0  0  0  0  0  0  0  0  0  0  0
   -5.5984    2.6465    0.8511 H   0  0  0  0  0  0  0  0  0  0  0  0
   -4.3173    1.8420   -1.5341 N   0  0  0  0  0  0  0  0  0  0  0  0
   -3.4987    0.9112   -2.3226 C   0  0  2  0  0  0  0  0  0  0  0  0
   -1.9916    1.1565   -2.1034 C   0  0  0  0  0  0  0  0  0  0  0  0
   -1.6008    2.1808   -1.5534 O   0  0  0  0  0  0  0  0  0  0  0  0
   -3.8645    1.0833   -3.8003 C   0  0  0  0  0  0  0  0  0  0  0  0
   -3.8586    2.6897   -1.2002 H   0  0  0  0  0  0  0  0  0  0  0  0
   -3.7091   -0.1193   -2.0158 H   0  0  0  0  0  0  0  0  0  0  0  0
   -3.6453    2.1031   -4.1330 H   0  0  0  0  0  0  0  0  0  0  0  0
   -3.2980    0.3843   -4.4225 H   0  0  0  0  0  0  0  0  0  0  0  0
   -4.9315    0.8898   -3.9509 H   0  0  0  0  0  0  0  0  0  0  0  0
   -1.0461    0.2632   -2.5710 N   0  0  0  0  0  0  0  0  0  0  0  0
    0.3755    0.3446   -2.1933 C   0  0  2  0  0  0  0  0  0  0  0  0
    1.1558    1.2369   -3.1838 C   0  0  0  0  0  0  0  0  0  0  0  0
    2.0829    0.7983   -3.8564 O   0  0  0  0  0  0  0  0  0  0  0  0
    0.9433   -1.0804   -2.1358 C   0  0  0  0  0  0  0  0  0  0  0  0
    0.1337   -2.0399   -0.7946 S   0  0  0  0  0  0  0  0  0  0  0  0
   -1.3944   -0.6193   -2.9349 H   0  0  0  0  0  0  0  0  0  0  0  0
    0.4844    0.7892   -1.1977 H   0  0  0  0  0  0  0  0  0  0  0  0
    0.8047   -1.5829   -3.0974 H   0  0  0  0  0  0  0  0  0  0  0  0
    2.0197   -1.0376   -1.9353 H   0  0  0  0  0  0  0  0  0  0  0  0
    0.7812    2.5578   -3.3334 N   0  0  0  0  0  0  0  0  0  0  0  0
    1.4592    3.5393   -4.1883 C   0  0  2  0  0  0  0  0  0  0  0  0
    1.3227    4.9760   -3.6417 C   0  0  0  0  0  0  0  0  0  0  0  0
    0.3850    5.2787   -2.9140 O   0  0  0  0  0  0  0  0  0  0  0  0
    0.8618    3.4483   -5.5958 C   0  0  0  0  0  0  0  0  0  0  0  0
    0.0278    2.8951   -2.7231 H   0  0  0  0  0  0  0  0  0  0  0  0
    2.5280    3.3054   -4.2336 H   0  0  0  0  0  0  0  0  0  0  0  0
   -0.2082    3.6791   -5.5719 H   0  0  0  0  0  0  0  0  0  0  0  0
    1.3558    4.1558   -6.2685 H   0  0  0  0  0  0  0  0  0  0  0  0
    0.9915    2.4395   -6.0001 H   0  0  0  0  0  0  0  0  0  0  0  0
    2.2530    5.9427   -3.9777 N   0  0  0  0  0  0  0  0  0  0  0  0
    2.1957    7.3124   -3.4809 C   0  0  0  0  0  0  0  0  0  0  0  0
    3.0336    5.6636   -4.5644 H   0  0  0  0  0  0  0  0  0  0  0  0
    1.2740    7.8019   -3.8128 H   0  0  0  0  0  0  0  0  0  0  0  0
    2.2269    7.3257   -2.3863 H   0  0  0  0  0  0  0  0  0  0  0  0
    3.0476    7.8872   -3.8563 H   0  0  0  0  0  0  0  0  0  0  0  0
  1  2  2  0  0  0  0
  1  3  1  0  0  0  0
  1  7  1  0  0  0  0
  3  4  1  0  0  0  0
  3  5  1  0  0  0  0
  3  6  1  0  0  0  0
  7  8  1  0  0  0  0
  7 13  1  0  0  0  0
  8  9  1  0  0  0  0
  8 11  1  0  0  0  0
  8 14  1  0  0  0  0
  9 10  2  0  0  0  0
  9 17  1  0  0  0  0
 11 12  1  0  0  0  0
 11 15  1  0  0  0  0
 11 16  1  0  0  0  0
 12 44  1  0  0  0  0
 17 18  1  0  0  0  0
 17 19  1  0  0  0  0
 18 20  1  0  0  0  0
 18 21  1  0  0  0  0
 18 22  1  0  0  0  0
 23 24  2  0  0  0  0
 23 25  1  0  0  0  0
 23 29  1  0  0  0  0
 25 26  1  0  0  0  0
 25 27  1  0  0  0  0
 25 28  1  0  0  0  0
 29 30  1  0  0  0  0
 29 34  1  0  0  0  0
 30 31  1  0  0  0  0
 30 33  1  0  0  0  0
 30 35  1  0  0  0  0
 31 32  2  0  0  0  0
 31 39  1  0  0  0  0
 33 36  1  0  0  0  0
 33 37  1  0  0  0  0
 33 38  1  0  0  0  0
 39 40  1  0  0  0  0
 39 45  1  0  0  0  0
 40 41  1  0  0  0  0
 40 43  1  0  0  0  0
 40 46  1  0  0  0  0
 41 42  2  0  0  0  0
 41 49  1  0  0  0  0
 43 44  1  0  0  0  0
 43 47  1  0  0  0  0
 43 48  1  0  0  0  0
 49 50  1  0  0  0  0
 49 54  1  0  0  0  0
 50 51  1  0  0  0  0
 50 53  1  0  0  0  0
 50 55  1  0  0  0  0
 51 52  2  0  0  0  0
 51 59  1  0  0  0  0
 53 56  1  0  0  0  0
 53 57  1  0  0  0  0
 53 58  1  0  0  0  0
 59 60  1  0  0  0  0
 59 61  1  0  0  0  0
 60 62  1  0  0  0  0
 60 63  1  0  0  0  0
 60 64  1  0  0  0  0
M  END
$$$$

  -OEChem-05262216053D

 64 63  0     1  0  0  0  0  0999 V2000
   -0.1044   -7.6497   -0.9442 C   0  0  0  0  0  0  0  0  0  0  0  0
   -1.1468   -7.5827   -1.5772 O   0  0  0  0  0  0  0  0  0  0  0  0
   -0.0051   -8.5462    0.2754 C   0  0  0  0  0  0  0  0  0  0  0  0
    0.2377   -7.9492    1.1579 H   0  0  0  0  0  0  0  0  0  0  0  0
   -0.9571   -9.0562    0.4464 H   0  0  0  0  0  0  0  0  0  0  0  0
    0.7752   -9.2964    0.1255 H   0  0  0  0  0  0  0  0  0  0  0  0
    0.9852   -6.9082   -1.3444 N   0  0  0  0  0  0  0  0  0  0  0  0
    1.0144   -6.0371   -2.5276 C   0  0  2  0  0  0  0  0  0  0  0  0
    2.4541   -5.8131   -3.0412 C   0  0  0  0  0  0  0  0  0  0  0  0
    3.4034   -6.3249   -2.4568 O   0  0  0  0  0  0  0  0  0  0  0  0
    0.3309   -4.7023   -2.1900 C   0  0  0  0  0  0  0  0  0  0  0  0
    1.2331   -3.7989   -0.8660 S   0  0  0  0  0  0  0  0  0  0  0  0
    1.8633   -7.0372   -0.8427 H   0  0  0  0  0  0  0  0  0  0  0  0
    0.4611   -6.5212   -3.3391 H   0  0  0  0  0  0  0  0  0  0  0  0
    0.2780   -4.0767   -3.0848 H   0  0  0  0  0  0  0  0  0  0  0  0
   -0.6957   -4.8904   -1.8598 H   0  0  0  0  0  0  0  0  0  0  0  0
    2.6913   -5.0694   -4.1844 N   0  0  0  0  0  0  0  0  0  0  0  0
    4.0293   -4.8046   -4.7003 C   0  0  0  0  0  0  0  0  0  0  0  0
    1.8938   -4.6518   -4.6542 H   0  0  0  0  0  0  0  0  0  0  0  0
    4.6353   -4.2881   -3.9482 H   0  0  0  0  0  0  0  0  0  0  0  0
    4.5275   -5.7412   -4.9722 H   0  0  0  0  0  0  0  0  0  0  0  0
    3.9737   -4.1720   -5.5914 H   0  0  0  0  0  0  0  0  0  0  0  0
   -5.5327    1.5813   -0.9868 C   0  0  0  0  0  0  0  0  0  0  0  0
   -6.0739    0.5096   -1.2070 O   0  0  0  0  0  0  0  0  0  0  0  0
   -6.1892    2.5927   -0.0665 C   0  0  0  0  0  0  0  0  0  0  0  0
   -6.3089    3.5475   -0.5840 H   0  0  0  0  0  0  0  0  0  0  0  0
   -7.1744    2.2341    0.2442 H   0  0  0  0  0  0  0  0  0  0  0  0
   -5.5721    2.7432    0.8227 H   0  0  0  0  0  0  0  0  0  0  0  0
   -4.3131    1.8658   -1.5629 N   0  0  0  0  0  0  0  0  0  0  0  0
   -3.5063    0.8938   -2.3123 C   0  0  2  0  0  0  0  0  0  0  0  0
   -1.9968    1.1546   -2.1273 C   0  0  0  0  0  0  0  0  0  0  0  0
   -1.6035    2.1947   -1.6077 O   0  0  0  0  0  0  0  0  0  0  0  0
   -3.8925    0.9817   -3.7922 C   0  0  0  0  0  0  0  0  0  0  0  0
   -3.8384    2.7144   -1.2551 H   0  0  0  0  0  0  0  0  0  0  0  0
   -3.7101   -0.1181   -1.9446 H   0  0  0  0  0  0  0  0  0  0  0  0
   -3.6906    1.9854   -4.1801 H   0  0  0  0  0  0  0  0  0  0  0  0
   -3.3244    0.2572   -4.3838 H   0  0  0  0  0  0  0  0  0  0  0  0
   -4.9588    0.7673   -3.9185 H   0  0  0  0  0  0  0  0  0  0  0  0
   -1.0541    0.2474   -2.5733 N   0  0  0  0  0  0  0  0  0  0  0  0
    0.3623    0.3367   -2.1846 C   0  0  2  0  0  0  0  0  0  0  0  0
    1.1476    1.2088   -3.1865 C   0  0  0  0  0  0  0  0  0  0  0  0
    1.9197    0.7162   -4.0026 O   0  0  0  0  0  0  0  0  0  0  0  0
    0.9323   -1.0863   -2.1114 C   0  0  0  0  0  0  0  0  0  0  0  0
    0.1163   -2.0408   -0.7709 S   0  0  0  0  0  0  0  0  0  0  0  0
   -1.4023   -0.6472   -2.9062 H   0  0  0  0  0  0  0  0  0  0  0  0
    0.4656    0.7908   -1.1927 H   0  0  0  0  0  0  0  0  0  0  0  0
    0.8025   -1.5962   -3.0710 H   0  0  0  0  0  0  0  0  0  0  0  0
    2.0066   -1.0378   -1.9043 H   0  0  0  0  0  0  0  0  0  0  0  0
    0.9886    2.5795   -3.1446 N   0  0  0  0  0  0  0  0  0  0  0  0
    1.7271    3.5446   -3.9678 C   0  0  2  0  0  0  0  0  0  0  0  0
    1.9667    4.8787   -3.2301 C   0  0  0  0  0  0  0  0  0  0  0  0
    1.2445    5.2152   -2.2997 O   0  0  0  0  0  0  0  0  0  0  0  0
    0.9329    3.7822   -5.2554 C   0  0  0  0  0  0  0  0  0  0  0  0
    0.3117    2.9464   -2.4671 H   0  0  0  0  0  0  0  0  0  0  0  0
    2.7099    3.1334   -4.2204 H   0  0  0  0  0  0  0  0  0  0  0  0
   -0.0503    4.2053   -5.0245 H   0  0  0  0  0  0  0  0  0  0  0  0
    1.4653    4.4763   -5.9126 H   0  0  0  0  0  0  0  0  0  0  0  0
    0.7894    2.8393   -5.7924 H   0  0  0  0  0  0  0  0  0  0  0  0
    2.9989    5.7143   -3.6170 N   0  0  0  0  0  0  0  0  0  0  0  0
    3.2950    6.9775   -2.9515 C   0  0  0  0  0  0  0  0  0  0  0  0
    3.6076    5.3974   -4.3659 H   0  0  0  0  0  0  0  0  0  0  0  0
    2.4197    7.6356   -2.9717 H   0  0  0  0  0  0  0  0  0  0  0  0
    3.5811    6.8031   -1.9087 H   0  0  0  0  0  0  0  0  0  0  0  0
    4.1201    7.4881   -3.4570 H   0  0  0  0  0  0  0  0  0  0  0  0
  1  2  2  0  0  0  0
  1  3  1  0  0  0  0
  1  7  1  0  0  0  0
  3  4  1  0  0  0  0
  3  5  1  0  0  0  0
  3  6  1  0  0  0  0
  7  8  1  0  0  0  0
  7 13  1  0  0  0  0
  8  9  1  0  0  0  0
  8 11  1  0  0  0  0
  8 14  1  0  0  0  0
  9 10  2  0  0  0  0
  9 17  1  0  0  0  0
 11 12  1  0  0  0  0
 11 15  1  0  0  0  0
 11 16  1  0  0  0  0
 12 44  1  0  0  0  0
 17 18  1  0  0  0  0
 17 19  1  0  0  0  0
 18 20  1  0  0  0  0
 18 21  1  0  0  0  0
 18 22  1  0  0  0  0
 23 24  2  0  0  0  0
 23 25  1  0  0  0  0
 23 29  1  0  0  0  0
 25 26  1  0  0  0  0
 25 27  1  0  0  0  0
 25 28  1  0  0  0  0
 29 30  1  0  0  0  0
 29 34  1  0  0  0  0
 30 31  1  0  0  0  0
 30 33  1  0  0  0  0
 30 35  1  0  0  0  0
 31 32  2  0  0  0  0
 31 39  1  0  0  0  0
 33 36  1  0  0  0  0
 33 37  1  0  0  0  0
 33 38  1  0  0  0  0
 39 40  1  0  0  0  0
 39 45  1  0  0  0  0
 40 41  1  0  0  0  0
 40 43  1  0  0  0  0
 40 46  1  0  0  0  0
 41 42  2  0  0  0  0
 41 49  1  0  0  0  0
 43 44  1  0  0  0  0
 43 47  1  0  0  0  0
 43 48  1  0  0  0  0
 49 50  1  0  0  0  0
 49 54  1  0  0  0  0
 50 51  1  0  0  0  0
 50 53  1  0  0  0  0
 50 55  1  0  0  0  0
 51 52  2  0  0  0  0
 51 59  1  0  0  0  0
 53 56  1  0  0  0  0
 53 57  1  0  0  0  0
 53 58  1  0  0  0  0
 59 60  1  0  0  0  0
 59 61  1  0  0  0  0
 60 62  1  0  0  0  0
 60 63  1  0  0  0  0
 60 64  1  0  0  0  0
M  END
$$$$

  -OEChem-05262216053D

 64 63  0     1  0  0  0  0  0999 V2000
   -0.0779   -7.6548   -0.9046 C   0  0  0  0  0  0  0  0  0  0  0  0
   -1.1340   -7.5937   -1.5150 O   0  0  0  0  0  0  0  0  0  0  0  0
    0.0498   -8.5429    0.3185 C   0  0  0  0  0  0  0  0  0  0  0  0
    0.3097   -7.9385    1.1912 H   0  0  0  0  0  0  0  0  0  0  0  0
   -0.8969   -9.0544    0.5133 H   0  0  0  0  0  0  0  0  0  0  0  0
    0.8286   -9.2922    0.1574 H   0  0  0  0  0  0  0  0  0  0  0  0
    0.9995   -6.9094   -1.3300 N   0  0  0  0  0  0  0  0  0  0  0  0
    0.9938   -6.0242   -2.5030 C   0  0  2  0  0  0  0  0  0  0  0  0
    2.4175   -5.7879   -3.0547 C   0  0  0  0  0  0  0  0  0  0  0  0
    3.3881   -6.2783   -2.4874 O   0  0  0  0  0  0  0  0  0  0  0  0
    0.3174   -4.6962   -2.1289 C   0  0  0  0  0  0  0  0  0  0  0  0
    1.2518   -3.8116   -0.8149 S   0  0  0  0  0  0  0  0  0  0  0  0
    1.8871   -7.0275   -0.8427 H   0  0  0  0  0  0  0  0  0  0  0  0
    0.4184   -6.4992   -3.3044 H   0  0  0  0  0  0  0  0  0  0  0  0
    0.2419   -4.0579   -3.0131 H   0  0  0  0  0  0  0  0  0  0  0  0
   -0.7006   -4.8901   -1.7754 H   0  0  0  0  0  0  0  0  0  0  0  0
    2.6157   -5.0606   -4.2159 N   0  0  0  0  0  0  0  0  0  0  0  0
    3.9347   -4.8085   -4.7849 C   0  0  0  0  0  0  0  0  0  0  0  0
    1.7999   -4.6711   -4.6785 H   0  0  0  0  0  0  0  0  0  0  0  0
    4.5702   -4.2843   -4.0633 H   0  0  0  0  0  0  0  0  0  0  0  0
    4.4194   -5.7507   -5.0616 H   0  0  0  0  0  0  0  0  0  0  0  0
    3.8483   -4.1878   -5.6819 H   0  0  0  0  0  0  0  0  0  0  0  0
   -5.5571    1.5604   -1.0833 C   0  0  0  0  0  0  0  0  0  0  0  0
   -6.1073    0.5236   -1.4187 O   0  0  0  0  0  0  0  0  0  0  0  0
   -6.2479    2.5188   -0.1323 C   0  0  0  0  0  0  0  0  0  0  0  0
   -6.3310    3.5070   -0.5909 H   0  0  0  0  0  0  0  0  0  0  0  0
   -7.2511    2.1552    0.1061 H   0  0  0  0  0  0  0  0  0  0  0  0
   -5.6731    2.6012    0.7933 H   0  0  0  0  0  0  0  0  0  0  0  0
   -4.2939    1.8513   -1.5526 N   0  0  0  0  0  0  0  0  0  0  0  0
   -3.4675    0.9216   -2.3333 C   0  0  2  0  0  0  0  0  0  0  0  0
   -1.9636    1.1533   -2.0817 C   0  0  0  0  0  0  0  0  0  0  0  0
   -1.5751    2.1715   -1.5170 O   0  0  0  0  0  0  0  0  0  0  0  0
   -3.7997    1.1057   -3.8172 C   0  0  0  0  0  0  0  0  0  0  0  0
   -3.8243    2.6679   -1.1617 H   0  0  0  0  0  0  0  0  0  0  0  0
   -3.6924   -0.1088   -2.0366 H   0  0  0  0  0  0  0  0  0  0  0  0
   -3.5738    2.1285   -4.1353 H   0  0  0  0  0  0  0  0  0  0  0  0
   -3.2187    0.4120   -4.4318 H   0  0  0  0  0  0  0  0  0  0  0  0
   -4.8626    0.9126   -3.9937 H   0  0  0  0  0  0  0  0  0  0  0  0
   -1.0225    0.2388   -2.5141 N   0  0  0  0  0  0  0  0  0  0  0  0
    0.3929    0.3244   -2.1267 C   0  0  2  0  0  0  0  0  0  0  0  0
    1.1790    1.1799   -3.1397 C   0  0  0  0  0  0  0  0  0  0  0  0
    1.7426    0.6700   -4.1027 O   0  0  0  0  0  0  0  0  0  0  0  0
    0.9649   -1.0965   -2.0476 C   0  0  0  0  0  0  0  0  0  0  0  0
    0.1507   -2.0453   -0.7028 S   0  0  0  0  0  0  0  0  0  0  0  0
   -1.3667   -0.6343   -2.9031 H   0  0  0  0  0  0  0  0  0  0  0  0
    0.4994    0.7829   -1.1371 H   0  0  0  0  0  0  0  0  0  0  0  0
    0.8327   -1.6117   -3.0041 H   0  0  0  0  0  0  0  0  0  0  0  0
    2.0398   -1.0458   -1.8447 H   0  0  0  0  0  0  0  0  0  0  0  0
    1.2837    2.5407   -2.9336 N   0  0  0  0  0  0  0  0  0  0  0  0
    2.0743    3.4629   -3.7576 C   0  0  2  0  0  0  0  0  0  0  0  0
    2.6396    4.6388   -2.9335 C   0  0  0  0  0  0  0  0  0  0  0  0
    2.1505    4.9308   -1.8486 O   0  0  0  0  0  0  0  0  0  0  0  0
    1.1797    3.9804   -4.8876 C   0  0  0  0  0  0  0  0  0  0  0  0
    0.7621    2.9351   -2.1466 H   0  0  0  0  0  0  0  0  0  0  0  0
    2.9281    2.9295   -4.1886 H   0  0  0  0  0  0  0  0  0  0  0  0
    0.3211    4.5215   -4.4769 H   0  0  0  0  0  0  0  0  0  0  0  0
    1.7386    4.6568   -5.5411 H   0  0  0  0  0  0  0  0  0  0  0  0
    0.8091    3.1455   -5.4906 H   0  0  0  0  0  0  0  0  0  0  0  0
    3.7067    5.3769   -3.4125 N   0  0  0  0  0  0  0  0  0  0  0  0
    4.2940    6.4963   -2.6862 C   0  0  0  0  0  0  0  0  0  0  0  0
    4.1024    5.1088   -4.3087 H   0  0  0  0  0  0  0  0  0  0  0  0
    3.5634    7.3041   -2.5741 H   0  0  0  0  0  0  0  0  0  0  0  0
    4.6233    6.1790   -1.6911 H   0  0  0  0  0  0  0  0  0  0  0  0
    5.1617    6.8856   -3.2273 H   0  0  0  0  0  0  0  0  0  0  0  0
  1  2  2  0  0  0  0
  1  3  1  0  0  0  0
  1  7  1  0  0  0  0
  3  4  1  0  0  0  0
  3  5  1  0  0  0  0
  3  6  1  0  0  0  0
  7  8  1  0  0  0  0
  7 13  1  0  0  0  0
  8  9  1  0  0  0  0
  8 11  1  0  0  0  0
  8 14  1  0  0  0  0
  9 10  2  0  0  0  0
  9 17  1  0  0  0  0
 11 12  1  0  0  0  0
 11 15  1  0  0  0  0
 11 16  1  0  0  0  0
 12 44  1  0  0  0  0
 17 18  1  0  0  0  0
 17 19  1  0  0  0  0
 18 20  1  0  0  0  0
 18 21  1  0  0  0  0
 18 22  1  0  0  0  0
 23 24  2  0  0  0  0
 23 25  1  0  0  0  0
 23 29  1  0  0  0  0
 25 26  1  0  0  0  0
 25 27  1  0  0  0  0
 25 28  1  0  0  0  0
 29 30  1  0  0  0  0
 29 34  1  0  0  0  0
 30 31  1  0  0  0  0
 30 33  1  0  0  0  0
 30 35  1  0  0  0  0
 31 32  2  0  0  0  0
 31 39  1  0  0  0  0
 33 36  1  0  0  0  0
 33 37  1  0  0  0  0
 33 38  1  0  0  0  0
 39 40  1  0  0  0  0
 39 45  1  0  0  0  0
 40 41  1  0  0  0  0
 40 43  1  0  0  0  0
 40 46  1  0  0  0  0
 41 42  2  0  0  0  0
 41 49  1  0  0  0  0
 43 44  1  0  0  0  0
 43 47  1  0  0  0  0
 43 48  1  0  0  0  0
 49 50  1  0  0  0  0
 49 54  1  0  0  0  0
 50 51  1  0  0  0  0
 50 53  1  0  0  0  0
 50 55  1  0  0  0  0
 51 52  2  0  0  0  0
 51 59  1  0  0  0  0
 53 56  1  0  0  0  0
 53 57  1  0  0  0  0
 53 58  1  0  0  0  0
 59 60  1  0  0  0  0
 59 61  1  0  0  0  0
 60 62  1  0  0  0  0
 60 63  1  0  0  0  0
 60 64  1  0  0  0  0
M  END
$$$$

  -OEChem-05262216053D

 64 63  0     1  0  0  0  0  0999 V2000
   -0.0609   -7.5487   -0.6187 C   0  0  0  0  0  0  0  0  0  0  0  0
   -1.1705   -7.4847   -1.1247 O   0  0  0  0  0  0  0  0  0  0  0  0
    0.1674   -8.3909    0.6219 C   0  0  0  0  0  0  0  0  0  0  0  0
    0.5783   -7.7718    1.4228 H   0  0  0  0  0  0  0  0  0  0  0  0
   -0.7769   -8.8243    0.9629 H   0  0  0  0  0  0  0  0  0  0  0  0
    0.8678   -9.1992    0.3989 H   0  0  0  0  0  0  0  0  0  0  0  0
    0.9873   -6.8573   -1.1850 N   0  0  0  0  0  0  0  0  0  0  0  0
    0.8854   -6.0306   -2.3955 C   0  0  2  0  0  0  0  0  0  0  0  0
    2.2512   -5.8590   -3.0953 C   0  0  0  0  0  0  0  0  0  0  0  0
    3.2659   -6.3370   -2.5987 O   0  0  0  0  0  0  0  0  0  0  0  0
    0.2803   -4.6663   -2.0292 C   0  0  0  0  0  0  0  0  0  0  0  0
    1.3416   -3.7587   -0.8331 S   0  0  0  0  0  0  0  0  0  0  0  0
    1.9150   -6.9735   -0.7786 H   0  0  0  0  0  0  0  0  0  0  0  0
    0.2235   -6.5293   -3.1110 H   0  0  0  0  0  0  0  0  0  0  0  0
    0.1526   -4.0615   -2.9308 H   0  0  0  0  0  0  0  0  0  0  0  0
   -0.7113   -4.8128   -1.5887 H   0  0  0  0  0  0  0  0  0  0  0  0
    2.3420   -5.1973   -4.3076 N   0  0  0  0  0  0  0  0  0  0  0  0
    3.6044   -4.9661   -4.9986 C   0  0  0  0  0  0  0  0  0  0  0  0
    1.4907   -4.8054   -4.6986 H   0  0  0  0  0  0  0  0  0  0  0  0
    4.2675   -4.3469   -4.3854 H   0  0  0  0  0  0  0  0  0  0  0  0
    4.1055   -5.9160   -5.2122 H   0  0  0  0  0  0  0  0  0  0  0  0
    3.4277   -4.4496   -5.9469 H   0  0  0  0  0  0  0  0  0  0  0  0
   -5.5971    1.2148   -1.2929 C   0  0  0  0  0  0  0  0  0  0  0  0
   -6.0737    0.2839   -1.9225 O   0  0  0  0  0  0  0  0  0  0  0  0
   -6.3934    1.8681   -0.1787 C   0  0  0  0  0  0  0  0  0  0  0  0
   -6.5729    2.9200   -0.4141 H   0  0  0  0  0  0  0  0  0  0  0  0
   -7.3568    1.3647   -0.0572 H   0  0  0  0  0  0  0  0  0  0  0  0
   -5.8413    1.8006    0.7618 H   0  0  0  0  0  0  0  0  0  0  0  0
   -4.3251    1.6610   -1.5839 N   0  0  0  0  0  0  0  0  0  0  0  0
   -3.4069    0.9912   -2.5140 C   0  0  2  0  0  0  0  0  0  0  0  0
   -1.9388    1.1517   -2.0710 C   0  0  0  0  0  0  0  0  0  0  0  0
   -1.6093    2.0818   -1.3423 O   0  0  0  0  0  0  0  0  0  0  0  0
   -3.6102    1.5829   -3.9116 C   0  0  0  0  0  0  0  0  0  0  0  0
   -3.9231    2.3696   -0.9709 H   0  0  0  0  0  0  0  0  0  0  0  0
   -3.6257   -0.0819   -2.5406 H   0  0  0  0  0  0  0  0  0  0  0  0
   -3.3978    2.6567   -3.9074 H   0  0  0  0  0  0  0  0  0  0  0  0
   -2.9460    1.0996   -4.6343 H   0  0  0  0  0  0  0  0  0  0  0  0
   -4.6438    1.4333   -4.2395 H   0  0  0  0  0  0  0  0  0  0  0  0
   -0.9707    0.2692   -2.5090 N   0  0  0  0  0  0  0  0  0  0  0  0
    0.4503    0.3810   -2.1502 C   0  0  2  0  0  0  0  0  0  0  0  0
    1.2137    1.2461   -3.1699 C   0  0  0  0  0  0  0  0  0  0  0  0
    1.5150    0.7907   -4.2680 O   0  0  0  0  0  0  0  0  0  0  0  0
    1.0548   -1.0251   -2.0662 C   0  0  0  0  0  0  0  0  0  0  0  0
    0.2830   -1.9689   -0.6917 S   0  0  0  0  0  0  0  0  0  0  0  0
   -1.2538   -0.4569   -3.1604 H   0  0  0  0  0  0  0  0  0  0  0  0
    0.5585    0.8455   -1.1640 H   0  0  0  0  0  0  0  0  0  0  0  0
    0.9097   -1.5557   -3.0122 H   0  0  0  0  0  0  0  0  0  0  0  0
    2.1327   -0.9518   -1.8882 H   0  0  0  0  0  0  0  0  0  0  0  0
    1.5846    2.5344   -2.8406 N   0  0  0  0  0  0  0  0  0  0  0  0
    2.4545    3.3965   -3.6500 C   0  0  2  0  0  0  0  0  0  0  0  0
    3.3793    4.2607   -2.7657 C   0  0  0  0  0  0  0  0  0  0  0  0
    3.1951    4.3237   -1.5553 O   0  0  0  0  0  0  0  0  0  0  0  0
    1.5664    4.2797   -4.5306 C   0  0  0  0  0  0  0  0  0  0  0  0
    1.3587    2.8600   -1.8994 H   0  0  0  0  0  0  0  0  0  0  0  0
    3.0977    2.7815   -4.2882 H   0  0  0  0  0  0  0  0  0  0  0  0
    0.9239    4.9136   -3.9108 H   0  0  0  0  0  0  0  0  0  0  0  0
    2.1767    4.9227   -5.1717 H   0  0  0  0  0  0  0  0  0  0  0  0
    0.9315    3.6584   -5.1700 H   0  0  0  0  0  0  0  0  0  0  0  0
    4.4333    4.9606   -3.3242 N   0  0  0  0  0  0  0  0  0  0  0  0
    5.3598    5.7674   -2.5385 C   0  0  0  0  0  0  0  0  0  0  0  0
    4.5791    4.8766   -4.3259 H   0  0  0  0  0  0  0  0  0  0  0  0
    4.8169    6.5266   -1.9652 H   0  0  0  0  0  0  0  0  0  0  0  0
    5.9213    5.1348   -1.8428 H   0  0  0  0  0  0  0  0  0  0  0  0
    6.0709    6.2769   -3.1957 H   0  0  0  0  0  0  0  0  0  0  0  0
  1  2  2  0  0  0  0
  1  3  1  0  0  0  0
  1  7  1  0  0  0  0
  3  4  1  0  0  0  0
  3  5  1  0  0  0  0
  3  6  1  0  0  0  0
  7  8  1  0  0  0  0
  7 13  1  0  0  0  0
  8  9  1  0  0  0  0
  8 11  1  0  0  0  0
  8 14  1  0  0  0  0
  9 10  2  0  0  0  0
  9 17  1  0  0  0  0
 11 12  1  0  0  0  0
 11 15  1  0  0  0  0
 11 16  1  0  0  0  0
 12 44  1  0  0  0  0
 17 18  1  0  0  0  0
 17 19  1  0  0  0  0
 18 20  1  0  0  0  0
 18 21  1  0  0  0  0
 18 22  1  0  0  0  0
 23 24  2  0  0  0  0
 23 25  1  0  0  0  0
 23 29  1  0  0  0  0
 25 26  1  0  0  0  0
 25 27  1  0  0  0  0
 25 28  1  0  0  0  0
 29 30  1  0  0  0  0
 29 34  1  0  0  0  0
 30 31  1  0  0  0  0
 30 33  1  0  0  0  0
 30 35  1  0  0  0  0
 31 32  2  0  0  0  0
 31 39  1  0  0  0  0
 33 36  1  0  0  0  0
 33 37  1  0  0  0  0
 33 38  1  0  0  0  0
 39 40  1  0  0  0  0
 39 45  1  0  0  0  0
 40 41  1  0  0  0  0
 40 43  1  0  0  0  0
 40 46  1  0  0  0  0
 41 42  2  0  0  0  0
 41 49  1  0  0  0  0
 43 44  1  0  0  0  0
 43 47  1  0  0  0  0
 43 48  1  0  0  0  0
 49 50  1  0  0  0  0
 49 54  1  0  0  0  0
 50 51  1  0  0  0  0
 50 53  1  0  0  0  0
 50 55  1  0  0  0  0
 51 52  2  0  0  0  0
 51 59  1  0  0  0  0
 53 56  1  0  0  0  0
 53 57  1  0  0  0  0
 53 58  1  0  0  0  0
 59 60  1  0  0  0  0
 59 61  1  0  0  0  0
 60 62  1  0  0  0  0
 60 63  1  0  0  0  0
 60 64  1  0  0  0  0
M  END
$$$$

  -OEChem-05262216053D

 64 63  0     1  0  0  0  0  0999 V2000
   -0.0417   -7.5527   -0.5984 C   0  0  0  0  0  0  0  0  0  0  0  0
   -1.1565   -7.4979   -1.0941 O   0  0  0  0  0  0  0  0  0  0  0  0
    0.2062   -8.3966    0.6378 C   0  0  0  0  0  0  0  0  0  0  0  0
    0.6067   -7.7729    1.4410 H   0  0  0  0  0  0  0  0  0  0  0  0
   -0.7288   -8.8509    0.9777 H   0  0  0  0  0  0  0  0  0  0  0  0
    0.9220   -9.1904    0.4107 H   0  0  0  0  0  0  0  0  0  0  0  0
    0.9950   -6.8490   -1.1705 N   0  0  0  0  0  0  0  0  0  0  0  0
    0.8779   -6.0214   -2.3791 C   0  0  2  0  0  0  0  0  0  0  0  0
    2.2345   -5.8559   -3.0984 C   0  0  0  0  0  0  0  0  0  0  0  0
    3.2559   -6.3298   -2.6120 O   0  0  0  0  0  0  0  0  0  0  0  0
    0.2856   -4.6547   -2.0021 C   0  0  0  0  0  0  0  0  0  0  0  0
    1.3689   -3.7554   -0.8188 S   0  0  0  0  0  0  0  0  0  0  0  0
    1.9271   -6.9615   -0.7731 H   0  0  0  0  0  0  0  0  0  0  0  0
    0.2024   -6.5157   -3.0852 H   0  0  0  0  0  0  0  0  0  0  0  0
    0.1478   -4.0481   -2.9012 H   0  0  0  0  0  0  0  0  0  0  0  0
   -0.7001   -4.7974   -1.5474 H   0  0  0  0  0  0  0  0  0  0  0  0
    2.3110   -5.2078   -4.3190 N   0  0  0  0  0  0  0  0  0  0  0  0
    3.5600   -5.0193   -5.0476 C   0  0  0  0  0  0  0  0  0  0  0  0
    1.4526   -4.8341   -4.7122 H   0  0  0  0  0  0  0  0  0  0  0  0
    4.2660   -4.4300   -4.4525 H   0  0  0  0  0  0  0  0  0  0  0  0
    4.0178   -5.9865   -5.2812 H   0  0  0  0  0  0  0  0  0  0  0  0
    3.3737   -4.4898   -5.9872 H   0  0  0  0  0  0  0  0  0  0  0  0
   -5.6066    1.1959   -1.3489 C   0  0  0  0  0  0  0  0  0  0  0  0
   -6.0596    0.2717   -2.0054 O   0  0  0  0  0  0  0  0  0  0  0  0
   -6.4326    1.8182   -0.2396 C   0  0  0  0  0  0  0  0  0  0  0  0
   -6.6256    2.8701   -0.4627 H   0  0  0  0  0  0  0  0  0  0  0  0
   -7.3883    1.2956   -0.1447 H   0  0  0  0  0  0  0  0  0  0  0  0
   -5.8967    1.7464    0.7099 H   0  0  0  0  0  0  0  0  0  0  0  0
   -4.3363    1.6668   -1.6056 N   0  0  0  0  0  0  0  0  0  0  0  0
   -3.3883    1.0222   -2.5233 C   0  0  2  0  0  0  0  0  0  0  0  0
   -1.9380    1.1459   -2.0145 C   0  0  0  0  0  0  0  0  0  0  0  0
   -1.6306    2.0406   -1.2339 O   0  0  0  0  0  0  0  0  0  0  0  0
   -3.5283    1.6754   -3.9009 C   0  0  0  0  0  0  0  0  0  0  0  0
   -3.9531    2.3568   -0.9600 H   0  0  0  0  0  0  0  0  0  0  0  0
   -3.6175   -0.0462   -2.6041 H   0  0  0  0  0  0  0  0  0  0  0  0
   -3.3046    2.7454   -3.8404 H   0  0  0  0  0  0  0  0  0  0  0  0
   -2.8405    1.2155   -4.6169 H   0  0  0  0  0  0  0  0  0  0  0  0
   -4.5494    1.5530   -4.2760 H   0  0  0  0  0  0  0  0  0  0  0  0
   -0.9653    0.2665   -2.4478 N   0  0  0  0  0  0  0  0  0  0  0  0
    0.4565    0.3890   -2.0935 C   0  0  2  0  0  0  0  0  0  0  0  0
    1.2164    1.2496   -3.1192 C   0  0  0  0  0  0  0  0  0  0  0  0
    1.2829    0.8864   -4.2890 O   0  0  0  0  0  0  0  0  0  0  0  0
    1.0726   -1.0118   -2.0167 C   0  0  0  0  0  0  0  0  0  0  0  0
    0.3136   -1.9670   -0.6431 S   0  0  0  0  0  0  0  0  0  0  0  0
   -1.2228   -0.3858   -3.1829 H   0  0  0  0  0  0  0  0  0  0  0  0
    0.5643    0.8568   -1.1088 H   0  0  0  0  0  0  0  0  0  0  0  0
    0.9282   -1.5396   -2.9642 H   0  0  0  0  0  0  0  0  0  0  0  0
    2.1505   -0.9325   -1.8401 H   0  0  0  0  0  0  0  0  0  0  0  0
    1.8561    2.4092   -2.7281 N   0  0  0  0  0  0  0  0  0  0  0  0
    2.7512    3.2011   -3.5811 C   0  0  2  0  0  0  0  0  0  0  0  0
    3.9327    3.7837   -2.7769 C   0  0  0  0  0  0  0  0  0  0  0  0
    3.9274    3.7385   -1.5517 O   0  0  0  0  0  0  0  0  0  0  0  0
    1.9307    4.3205   -4.2278 C   0  0  0  0  0  0  0  0  0  0  0  0
    1.8459    2.6401   -1.7338 H   0  0  0  0  0  0  0  0  0  0  0  0
    3.1756    2.5667   -4.3665 H   0  0  0  0  0  0  0  0  0  0  0  0
    1.5103    4.9787   -3.4605 H   0  0  0  0  0  0  0  0  0  0  0  0
    2.5561    4.9191   -4.8967 H   0  0  0  0  0  0  0  0  0  0  0  0
    1.1081    3.8971   -4.8127 H   0  0  0  0  0  0  0  0  0  0  0  0
    5.0152    4.3441   -3.4299 N   0  0  0  0  0  0  0  0  0  0  0  0
    6.1806    4.8750   -2.7332 C   0  0  0  0  0  0  0  0  0  0  0  0
    5.0058    4.3449   -4.4458 H   0  0  0  0  0  0  0  0  0  0  0  0
    5.8803    5.6370   -2.0062 H   0  0  0  0  0  0  0  0  0  0  0  0
    6.7081    4.0735   -2.2058 H   0  0  0  0  0  0  0  0  0  0  0  0
    6.8713    5.3338   -3.4469 H   0  0  0  0  0  0  0  0  0  0  0  0
  1  2  2  0  0  0  0
  1  3  1  0  0  0  0
  1  7  1  0  0  0  0
  3  4  1  0  0  0  0
  3  5  1  0  0  0  0
  3  6  1  0  0  0  0
  7  8  1  0  0  0  0
  7 13  1  0  0  0  0
  8  9  1  0  0  0  0
  8 11  1  0  0  0  0
  8 14  1  0  0  0  0
  9 10  2  0  0  0  0
  9 17  1  0  0  0  0
 11 12  1  0  0  0  0
 11 15  1  0  0  0  0
 11 16  1  0  0  0  0
 12 44  1  0  0  0  0
 17 18  1  0  0  0  0
 17 19  1  0  0  0  0
 18 20  1  0  0  0  0
 18 21  1  0  0  0  0
 18 22  1  0  0  0  0
 23 24  2  0  0  0  0
 23 25  1  0  0  0  0
 23 29  1  0  0  0  0
 25 26  1  0  0  0  0
 25 27  1  0  0  0  0
 25 28  1  0  0  0  0
 29 30  1  0  0  0  0
 29 34  1  0  0  0  0
 30 31  1  0  0  0  0
 30 33  1  0  0  0  0
 30 35  1  0  0  0  0
 31 32  2  0  0  0  0
 31 39  1  0  0  0  0
 33 36  1  0  0  0  0
 33 37  1  0  0  0  0
 33 38  1  0  0  0  0
 39 40  1  0  0  0  0
 39 45  1  0  0  0  0
 40 41  1  0  0  0  0
 40 43  1  0  0  0  0
 40 46  1  0  0  0  0
 41 42  2  0  0  0  0
 41 49  1  0  0  0  0
 43 44  1  0  0  0  0
 43 47  1  0  0  0  0
 43 48  1  0  0  0  0
 49 50  1  0  0  0  0
 49 54  1  0  0  0  0
 50 51  1  0  0  0  0
 50 53  1  0  0  0  0
 50 55  1  0  0  0  0
 51 52  2  0  0  0  0
 51 59  1  0  0  0  0
 53 56  1  0  0  0  0
 53 57  1  0  0  0  0
 53 58  1  0  0  0  0
 59 60  1  0  0  0  0
 59 61  1  0  0  0  0
 60 62  1  0  0  0  0
 60 63  1  0  0  0  0
 60 64  1  0  0  0  0
M  END
$$$$

  -OEChem-05262216053D

 64 63  0     1  0  0  0  0  0999 V2000
   -0.0279   -7.5581   -0.5851 C   0  0  0  0  0  0  0  0  0  0  0  0
   -1.1461   -7.5054   -1.0730 O   0  0  0  0  0  0  0  0  0  0  0  0
    0.2326   -8.4008    0.6483 C   0  0  0  0  0  0  0  0  0  0  0  0
    0.6554   -7.7791    1.4412 H   0  0  0  0  0  0  0  0  0  0  0  0
   -0.7012   -8.8426    1.0072 H   0  0  0  0  0  0  0  0  0  0  0  0
    0.9354   -9.2026    0.4098 H   0  0  0  0  0  0  0  0  0  0  0  0
    1.0033   -6.8521   -1.1633 N   0  0  0  0  0  0  0  0  0  0  0  0
    0.8770   -6.0248   -2.3708 C   0  0  2  0  0  0  0  0  0  0  0  0
    2.2244   -5.8701   -3.1100 C   0  0  0  0  0  0  0  0  0  0  0  0
    3.2475   -6.3580   -2.6412 O   0  0  0  0  0  0  0  0  0  0  0  0
    0.3006   -4.6549   -1.9816 C   0  0  0  0  0  0  0  0  0  0  0  0
    1.4115   -3.7643   -0.8164 S   0  0  0  0  0  0  0  0  0  0  0  0
    1.9375   -6.9611   -0.7708 H   0  0  0  0  0  0  0  0  0  0  0  0
    0.1878   -6.5135   -3.0674 H   0  0  0  0  0  0  0  0  0  0  0  0
    0.1491   -4.0466   -2.8773 H   0  0  0  0  0  0  0  0  0  0  0  0
   -0.6772   -4.7922   -1.5083 H   0  0  0  0  0  0  0  0  0  0  0  0
    2.2916   -5.2129   -4.3265 N   0  0  0  0  0  0  0  0  0  0  0  0
    3.5329   -5.0363   -5.0712 C   0  0  0  0  0  0  0  0  0  0  0  0
    1.4318   -4.8298   -4.7075 H   0  0  0  0  0  0  0  0  0  0  0  0
    4.2551   -4.4618   -4.4813 H   0  0  0  0  0  0  0  0  0  0  0  0
    3.9732   -6.0083   -5.3183 H   0  0  0  0  0  0  0  0  0  0  0  0
    3.3422   -4.4965   -6.0040 H   0  0  0  0  0  0  0  0  0  0  0  0
   -5.6159    1.2174   -1.3890 C   0  0  0  0  0  0  0  0  0  0  0  0
   -6.0666    0.3164   -2.0784 O   0  0  0  0  0  0  0  0  0  0  0  0
   -6.4633    1.8302   -0.2898 C   0  0  0  0  0  0  0  0  0  0  0  0
   -6.6424    2.8869   -0.5023 H   0  0  0  0  0  0  0  0  0  0  0  0
   -7.4258    1.3148   -0.2240 H   0  0  0  0  0  0  0  0  0  0  0  0
   -5.9498    1.7399    0.6705 H   0  0  0  0  0  0  0  0  0  0  0  0
   -4.3307    1.6708   -1.6007 N   0  0  0  0  0  0  0  0  0  0  0  0
   -3.3685    1.0318   -2.5077 C   0  0  2  0  0  0  0  0  0  0  0  0
   -1.9285    1.1257   -1.9637 C   0  0  0  0  0  0  0  0  0  0  0  0
   -1.6309    1.9909   -1.1468 O   0  0  0  0  0  0  0  0  0  0  0  0
   -3.4681    1.7116   -3.8763 C   0  0  0  0  0  0  0  0  0  0  0  0
   -3.9543    2.3420   -0.9322 H   0  0  0  0  0  0  0  0  0  0  0  0
   -3.6087   -0.0318   -2.6136 H   0  0  0  0  0  0  0  0  0  0  0  0
   -3.2396    2.7787   -3.7902 H   0  0  0  0  0  0  0  0  0  0  0  0
   -2.7645    1.2609   -4.5829 H   0  0  0  0  0  0  0  0  0  0  0  0
   -4.4799    1.6033   -4.2799 H   0  0  0  0  0  0  0  0  0  0  0  0
   -0.9576    0.2467   -2.4024 N   0  0  0  0  0  0  0  0  0  0  0  0
    0.4680    0.3839   -2.0660 C   0  0  2  0  0  0  0  0  0  0  0  0
    1.2146    1.2393   -3.1063 C   0  0  0  0  0  0  0  0  0  0  0  0
    1.0662    1.0079   -4.3018 O   0  0  0  0  0  0  0  0  0  0  0  0
    1.0981   -1.0104   -1.9920 C   0  0  0  0  0  0  0  0  0  0  0  0
    0.3679   -1.9715   -0.6066 S   0  0  0  0  0  0  0  0  0  0  0  0
   -1.2015   -0.3419   -3.1939 H   0  0  0  0  0  0  0  0  0  0  0  0
    0.5833    0.8599   -1.0859 H   0  0  0  0  0  0  0  0  0  0  0  0
    0.9462   -1.5418   -2.9368 H   0  0  0  0  0  0  0  0  0  0  0  0
    2.1772   -0.9202   -1.8286 H   0  0  0  0  0  0  0  0  0  0  0  0
    2.0995    2.2219   -2.7064 N   0  0  0  0  0  0  0  0  0  0  0  0
    3.0105    2.9454   -3.6033 C   0  0  2  0  0  0  0  0  0  0  0  0
    4.3756    3.2099   -2.9330 C   0  0  0  0  0  0  0  0  0  0  0  0
    4.5227    3.0033   -1.7335 O   0  0  0  0  0  0  0  0  0  0  0  0
    2.3396    4.2616   -4.0061 C   0  0  0  0  0  0  0  0  0  0  0  0
    2.2781    2.3129   -1.7059 H   0  0  0  0  0  0  0  0  0  0  0  0
    3.2025    2.3494   -4.5016 H   0  0  0  0  0  0  0  0  0  0  0  0
    2.1585    4.8843   -3.1238 H   0  0  0  0  0  0  0  0  0  0  0  0
    2.9724    4.8195   -4.7029 H   0  0  0  0  0  0  0  0  0  0  0  0
    1.3806    4.0629   -4.4953 H   0  0  0  0  0  0  0  0  0  0  0  0
    5.4494    3.6585   -3.6802 N   0  0  0  0  0  0  0  0  0  0  0  0
    6.7738    3.8919   -3.1167 C   0  0  0  0  0  0  0  0  0  0  0  0
    5.3061    3.7995   -4.6760 H   0  0  0  0  0  0  0  0  0  0  0  0
    6.7161    4.5923   -2.2766 H   0  0  0  0  0  0  0  0  0  0  0  0
    7.2100    2.9517   -2.7629 H   0  0  0  0  0  0  0  0  0  0  0  0
    7.4376    4.3186   -3.8746 H   0  0  0  0  0  0  0  0  0  0  0  0
  1  2  2  0  0  0  0
  1  3  1  0  0  0  0
  1  7  1  0  0  0  0
  3  4  1  0  0  0  0
  3  5  1  0  0  0  0
  3  6  1  0  0  0  0
  7  8  1  0  0  0  0
  7 13  1  0  0  0  0
  8  9  1  0  0  0  0
  8 11  1  0  0  0  0
  8 14  1  0  0  0  0
  9 10  2  0  0  0  0
  9 17  1  0  0  0  0
 11 12  1  0  0  0  0
 11 15  1  0  0  0  0
 11 16  1  0  0  0  0
 12 44  1  0  0  0  0
 17 18  1  0  0  0  0
 17 19  1  0  0  0  0
 18 20  1  0  0  0  0
 18 21  1  0  0  0  0
 18 22  1  0  0  0  0
 23 24  2  0  0  0  0
 23 25  1  0  0  0  0
 23 29  1  0  0  0  0
 25 26  1  0  0  0  0
 25 27  1  0  0  0  0
 25 28  1  0  0  0  0
 29 30  1  0  0  0  0
 29 34  1  0  0  0  0
 30 31  1  0  0  0  0
 30 33  1  0  0  0  0
 30 35  1  0  0  0  0
 31 32  2  0  0  0  0
 31 39  1  0  0  0  0
 33 36  1  0  0  0  0
 33 37  1  0  0  0  0
 33 38  1  0  0  0  0
 39 40  1  0  0  0  0
 39 45  1  0  0  0  0
 40 41  1  0  0  0  0
 40 43  1  0  0  0  0
 40 46  1  0  0  0  0
 41 42  2  0  0  0  0
 41 49  1  0  0  0  0
 43 44  1  0  0  0  0
 43 47  1  0  0  0  0
 43 48  1  0  0  0  0
 49 50  1  0  0  0  0
 49 54  1  0  0  0  0
 50 51  1  0  0  0  0
 50 53  1  0  0  0  0
 50 55  1  0  0  0  0
 51 52  2  0  0  0  0
 51 59  1  0  0  0  0
 53 56  1  0  0  0  0
 53 57  1  0  0  0  0
 53 58  1  0  0  0  0
 59 60  1  0  0  0  0
 59 61  1  0  0  0  0
 60 62  1  0  0  0  0
 60 63  1  0  0  0  0
 60 64  1  0  0  0  0
M  END
$$$$

  -OEChem-05262216053D

 64 63  0     1  0  0  0  0  0999 V2000
   -0.0111   -7.5580   -0.5761 C   0  0  0  0  0  0  0  0  0  0  0  0
   -1.1320   -7.4973   -1.0568 O   0  0  0  0  0  0  0  0  0  0  0  0
    0.2485   -8.3988    0.6596 C   0  0  0  0  0  0  0  0  0  0  0  0
    0.6618   -7.7740    1.4553 H   0  0  0  0  0  0  0  0  0  0  0  0
   -0.6841   -8.8477    1.0133 H   0  0  0  0  0  0  0  0  0  0  0  0
    0.9583   -9.1961    0.4264 H   0  0  0  0  0  0  0  0  0  0  0  0
    1.0210   -6.8586   -1.1617 N   0  0  0  0  0  0  0  0  0  0  0  0
    0.8881   -6.0219   -2.3625 C   0  0  2  0  0  0  0  0  0  0  0  0
    2.2288   -5.8688   -3.1137 C   0  0  0  0  0  0  0  0  0  0  0  0
    3.2574   -6.3514   -2.6514 O   0  0  0  0  0  0  0  0  0  0  0  0
    0.3217   -4.6509   -1.9613 C   0  0  0  0  0  0  0  0  0  0  0  0
    1.4544   -3.7631   -0.8157 S   0  0  0  0  0  0  0  0  0  0  0  0
    1.9576   -6.9752   -0.7771 H   0  0  0  0  0  0  0  0  0  0  0  0
    0.1898   -6.5031   -3.0554 H   0  0  0  0  0  0  0  0  0  0  0  0
    0.1566   -4.0411   -2.8535 H   0  0  0  0  0  0  0  0  0  0  0  0
   -0.6482   -4.7862   -1.4716 H   0  0  0  0  0  0  0  0  0  0  0  0
    2.2824   -5.2220   -4.3364 N   0  0  0  0  0  0  0  0  0  0  0  0
    3.5145   -5.0570   -5.0985 C   0  0  0  0  0  0  0  0  0  0  0  0
    1.4166   -4.8511   -4.7159 H   0  0  0  0  0  0  0  0  0  0  0  0
    4.2472   -4.4826   -4.5217 H   0  0  0  0  0  0  0  0  0  0  0  0
    3.9463   -6.0329   -5.3449 H   0  0  0  0  0  0  0  0  0  0  0  0
    3.3141   -4.5227   -6.0323 H   0  0  0  0  0  0  0  0  0  0  0  0
   -5.6162    1.2315   -1.4122 C   0  0  0  0  0  0  0  0  0  0  0  0
   -6.0594    0.3413   -2.1205 O   0  0  0  0  0  0  0  0  0  0  0  0
   -6.4881    1.8495   -0.3359 C   0  0  0  0  0  0  0  0  0  0  0  0
   -6.6417    2.9107   -0.5450 H   0  0  0  0  0  0  0  0  0  0  0  0
   -7.4607    1.3504   -0.3081 H   0  0  0  0  0  0  0  0  0  0  0  0
   -6.0096    1.7421    0.6404 H   0  0  0  0  0  0  0  0  0  0  0  0
   -4.3205    1.6706   -1.5867 N   0  0  0  0  0  0  0  0  0  0  0  0
   -3.3487    1.0351   -2.4860 C   0  0  2  0  0  0  0  0  0  0  0  0
   -1.9153    1.1087   -1.9230 C   0  0  0  0  0  0  0  0  0  0  0  0
   -1.6212    1.9575   -1.0876 O   0  0  0  0  0  0  0  0  0  0  0  0
   -3.4210    1.7302   -3.8482 C   0  0  0  0  0  0  0  0  0  0  0  0
   -3.9524    2.3361   -0.9077 H   0  0  0  0  0  0  0  0  0  0  0  0
   -3.5966   -0.0251   -2.6074 H   0  0  0  0  0  0  0  0  0  0  0  0
   -3.1653    2.7901   -3.7500 H   0  0  0  0  0  0  0  0  0  0  0  0
   -2.7239    1.2683   -4.5541 H   0  0  0  0  0  0  0  0  0  0  0  0
   -4.4320    1.6512   -4.2601 H   0  0  0  0  0  0  0  0  0  0  0  0
   -0.9488    0.2297   -2.3721 N   0  0  0  0  0  0  0  0  0  0  0  0
    0.4805    0.3789   -2.0569 C   0  0  2  0  0  0  0  0  0  0  0  0
    1.2125    1.2310   -3.1105 C   0  0  0  0  0  0  0  0  0  0  0  0
    0.8763    1.1711   -4.2890 O   0  0  0  0  0  0  0  0  0  0  0  0
    1.1205   -1.0113   -1.9857 C   0  0  0  0  0  0  0  0  0  0  0  0
    0.4167   -1.9700   -0.5861 S   0  0  0  0  0  0  0  0  0  0  0  0
   -1.1913   -0.3166   -3.1937 H   0  0  0  0  0  0  0  0  0  0  0  0
    0.6043    0.8639   -1.0824 H   0  0  0  0  0  0  0  0  0  0  0  0
    0.9565   -1.5478   -2.9252 H   0  0  0  0  0  0  0  0  0  0  0  0
    2.2016   -0.9163   -1.8396 H   0  0  0  0  0  0  0  0  0  0  0  0
    2.3074    1.9932   -2.7528 N   0  0  0  0  0  0  0  0  0  0  0  0
    3.2089    2.6607   -3.7001 C   0  0  2  0  0  0  0  0  0  0  0  0
    4.6757    2.5859   -3.2249 C   0  0  0  0  0  0  0  0  0  0  0  0
    4.9343    2.1881   -2.0943 O   0  0  0  0  0  0  0  0  0  0  0  0
    2.7533    4.1157   -3.8401 C   0  0  0  0  0  0  0  0  0  0  0  0
    2.6430    1.9087   -1.7928 H   0  0  0  0  0  0  0  0  0  0  0  0
    3.1589    2.1691   -4.6775 H   0  0  0  0  0  0  0  0  0  0  0  0
    2.8076    4.6266   -2.8733 H   0  0  0  0  0  0  0  0  0  0  0  0
    3.3848    4.6524   -4.5541 H   0  0  0  0  0  0  0  0  0  0  0  0
    1.7193    4.1554   -4.1972 H   0  0  0  0  0  0  0  0  0  0  0  0
    5.7107    2.9399   -4.0710 N   0  0  0  0  0  0  0  0  0  0  0  0
    7.1160    2.8633   -3.6886 C   0  0  0  0  0  0  0  0  0  0  0  0
    5.4709    3.2536   -5.0070 H   0  0  0  0  0  0  0  0  0  0  0  0
    7.3108    3.4958   -2.8159 H   0  0  0  0  0  0  0  0  0  0  0  0
    7.3902    1.8315   -3.4441 H   0  0  0  0  0  0  0  0  0  0  0  0
    7.7527    3.2044   -4.5107 H   0  0  0  0  0  0  0  0  0  0  0  0
  1  2  2  0  0  0  0
  1  3  1  0  0  0  0
  1  7  1  0  0  0  0
  3  4  1  0  0  0  0
  3  5  1  0  0  0  0
  3  6  1  0  0  0  0
  7  8  1  0  0  0  0
  7 13  1  0  0  0  0
  8  9  1  0  0  0  0
  8 11  1  0  0  0  0
  8 14  1  0  0  0  0
  9 10  2  0  0  0  0
  9 17  1  0  0  0  0
 11 12  1  0  0  0  0
 11 15  1  0  0  0  0
 11 16  1  0  0  0  0
 12 44  1  0  0  0  0
 17 18  1  0  0  0  0
 17 19  1  0  0  0  0
 18 20  1  0  0  0  0
 18 21  1  0  0  0  0
 18 22  1  0  0  0  0
 23 24  2  0  0  0  0
 23 25  1  0  0  0  0
 23 29  1  0  0  0  0
 25 26  1  0  0  0  0
 25 27  1  0  0  0  0
 25 28  1  0  0  0  0
 29 30  1  0  0  0  0
 29 34  1  0  0  0  0
 30 31  1  0  0  0  0
 30 33  1  0  0  0  0
 30 35  1  0  0  0  0
 31 32  2  0  0  0  0
 31 39  1  0  0  0  0
 33 36  1  0  0  0  0
 33 37  1  0  0  0  0
 33 38  1  0  0  0  0
 39 40  1  0  0  0  0
 39 45  1  0  0  0  0
 40 41  1  0  0  0  0
 40 43  1  0  0  0  0
 40 46  1  0  0  0  0
 41 42  2  0  0  0  0
 41 49  1  0  0  0  0
 43 44  1  0  0  0  0
 43 47  1  0  0  0  0
 43 48  1  0  0  0  0
 49 50  1  0  0  0  0
 49 54  1  0  0  0  0
 50 51  1  0  0  0  0
 50 53  1  0  0  0  0
 50 55  1  0  0  0  0
 51 52  2  0  0  0  0
 51 59  1  0  0  0  0
 53 56  1  0  0  0  0
 53 57  1  0  0  0  0
 53 58  1  0  0  0  0
 59 60  1  0  0  0  0
 59 61  1  0  0  0  0
 60 62  1  0  0  0  0
 60 63  1  0  0  0  0
 60 64  1  0  0  0  0
M  END
$$$$

  -OEChem-05262216053D

 64 63  0     1  0  0  0  0  0999 V2000
   -0.0098   -7.5498   -0.5595 C   0  0  0  0  0  0  0  0  0  0  0  0
   -1.1263   -7.5131   -1.0528 O   0  0  0  0  0  0  0  0  0  0  0  0
    0.2549   -8.3893    0.6755 C   0  0  0  0  0  0  0  0  0  0  0  0
    0.6457   -7.7588    1.4779 H   0  0  0  0  0  0  0  0  0  0  0  0
   -0.6712   -8.8599    1.0173 H   0  0  0  0  0  0  0  0  0  0  0  0
    0.9845   -9.1696    0.4461 H   0  0  0  0  0  0  0  0  0  0  0  0
    1.0136   -6.8273   -1.1313 N   0  0  0  0  0  0  0  0  0  0  0  0
    0.8822   -6.0103   -2.3454 C   0  0  2  0  0  0  0  0  0  0  0  0
    2.2208   -5.8812   -3.1040 C   0  0  0  0  0  0  0  0  0  0  0  0
    3.2457   -6.3696   -2.6400 O   0  0  0  0  0  0  0  0  0  0  0  0
    0.3286   -4.6295   -1.9616 C   0  0  0  0  0  0  0  0  0  0  0  0
    1.4687   -3.7402   -0.8237 S   0  0  0  0  0  0  0  0  0  0  0  0
    1.9492   -6.9320   -0.7407 H   0  0  0  0  0  0  0  0  0  0  0  0
    0.1778   -6.4956   -3.0291 H   0  0  0  0  0  0  0  0  0  0  0  0
    0.1714   -4.0279   -2.8610 H   0  0  0  0  0  0  0  0  0  0  0  0
   -0.6435   -4.7508   -1.4720 H   0  0  0  0  0  0  0  0  0  0  0  0
    2.2750   -5.2514   -4.3354 N   0  0  0  0  0  0  0  0  0  0  0  0
    3.5052   -5.1126   -5.1056 C   0  0  0  0  0  0  0  0  0  0  0  0
    1.4107   -4.8790   -4.7171 H   0  0  0  0  0  0  0  0  0  0  0  0
    4.2507   -4.5467   -4.5367 H   0  0  0  0  0  0  0  0  0  0  0  0
    3.9188   -6.0976   -5.3469 H   0  0  0  0  0  0  0  0  0  0  0  0
    3.3092   -4.5816   -6.0421 H   0  0  0  0  0  0  0  0  0  0  0  0
   -5.6016    1.1796   -1.4272 C   0  0  0  0  0  0  0  0  0  0  0  0
   -6.0314    0.2886   -2.1424 O   0  0  0  0  0  0  0  0  0  0  0  0
   -6.4655    1.7481   -0.3175 C   0  0  0  0  0  0  0  0  0  0  0  0
   -6.6933    2.7967   -0.5224 H   0  0  0  0  0  0  0  0  0  0  0  0
   -7.4034    1.1902   -0.2464 H   0  0  0  0  0  0  0  0  0  0  0  0
   -5.9401    1.6761    0.6379 H   0  0  0  0  0  0  0  0  0  0  0  0
   -4.3242    1.6619   -1.6175 N   0  0  0  0  0  0  0  0  0  0  0  0
   -3.3384    1.0545   -2.5210 C   0  0  2  0  0  0  0  0  0  0  0  0
   -1.9194    1.0989   -1.9203 C   0  0  0  0  0  0  0  0  0  0  0  0
   -1.6446    1.9147   -1.0460 O   0  0  0  0  0  0  0  0  0  0  0  0
   -3.3772    1.8056   -3.8548 C   0  0  0  0  0  0  0  0  0  0  0  0
   -3.9635    2.3127   -0.9208 H   0  0  0  0  0  0  0  0  0  0  0  0
   -3.5858    0.0011   -2.6921 H   0  0  0  0  0  0  0  0  0  0  0  0
   -3.1389    2.8638   -3.7057 H   0  0  0  0  0  0  0  0  0  0  0  0
   -2.6523    1.3824   -4.5571 H   0  0  0  0  0  0  0  0  0  0  0  0
   -4.3739    1.7315   -4.3010 H   0  0  0  0  0  0  0  0  0  0  0  0
   -0.9469    0.2301   -2.3761 N   0  0  0  0  0  0  0  0  0  0  0  0
    0.4811    0.4034   -2.0631 C   0  0  2  0  0  0  0  0  0  0  0  0
    1.2033    1.2676   -3.1166 C   0  0  0  0  0  0  0  0  0  0  0  0
    0.7307    1.3921   -4.2422 O   0  0  0  0  0  0  0  0  0  0  0  0
    1.1306   -0.9835   -1.9914 C   0  0  0  0  0  0  0  0  0  0  0  0
    0.4350   -1.9454   -0.5886 S   0  0  0  0  0  0  0  0  0  0  0  0
   -1.1759   -0.2711   -3.2295 H   0  0  0  0  0  0  0  0  0  0  0  0
    0.6029    0.8902   -1.0894 H   0  0  0  0  0  0  0  0  0  0  0  0
    0.9654   -1.5226   -2.9291 H   0  0  0  0  0  0  0  0  0  0  0  0
    2.2119   -0.8852   -1.8480 H   0  0  0  0  0  0  0  0  0  0  0  0
    2.4503    1.7971   -2.8443 N   0  0  0  0  0  0  0  0  0  0  0  0
    3.3424    2.3959   -3.8461 C   0  0  2  0  0  0  0  0  0  0  0  0
    4.8058    1.9588   -3.6238 C   0  0  0  0  0  0  0  0  0  0  0  0
    5.1144    1.3461   -2.6074 O   0  0  0  0  0  0  0  0  0  0  0  0
    3.2080    3.9182   -3.7537 C   0  0  0  0  0  0  0  0  0  0  0  0
    2.8818    1.5352   -1.9577 H   0  0  0  0  0  0  0  0  0  0  0  0
    3.0566    2.0698   -4.8517 H   0  0  0  0  0  0  0  0  0  0  0  0
    3.5131    4.2698   -2.7628 H   0  0  0  0  0  0  0  0  0  0  0  0
    3.8352    4.4075   -4.5050 H   0  0  0  0  0  0  0  0  0  0  0  0
    2.1689    4.2171   -3.9249 H   0  0  0  0  0  0  0  0  0  0  0  0
    5.7753    2.2320   -4.5711 N   0  0  0  0  0  0  0  0  0  0  0  0
    7.1687    1.8265   -4.4276 C   0  0  0  0  0  0  0  0  0  0  0  0
    5.4910    2.7313   -5.4089 H   0  0  0  0  0  0  0  0  0  0  0  0
    7.5996    2.2486   -3.5135 H   0  0  0  0  0  0  0  0  0  0  0  0
    7.2474    0.7351   -4.3823 H   0  0  0  0  0  0  0  0  0  0  0  0
    7.7553    2.1806   -5.2805 H   0  0  0  0  0  0  0  0  0  0  0  0
  1  2  2  0  0  0  0
  1  3  1  0  0  0  0
  1  7  1  0  0  0  0
  3  4  1  0  0  0  0
  3  5  1  0  0  0  0
  3  6  1  0  0  0  0
  7  8  1  0  0  0  0
  7 13  1  0  0  0  0
  8  9  1  0  0  0  0
  8 11  1  0  0  0  0
  8 14  1  0  0  0  0
  9 10  2  0  0  0  0
  9 17  1  0  0  0  0
 11 12  1  0  0  0  0
 11 15  1  0  0  0  0
 11 16  1  0  0  0  0
 12 44  1  0  0  0  0
 17 18  1  0  0  0  0
 17 19  1  0  0  0  0
 18 20  1  0  0  0  0
 18 21  1  0  0  0  0
 18 22  1  0  0  0  0
 23 24  2  0  0  0  0
 23 25  1  0  0  0  0
 23 29  1  0  0  0  0
 25 26  1  0  0  0  0
 25 27  1  0  0  0  0
 25 28  1  0  0  0  0
 29 30  1  0  0  0  0
 29 34  1  0  0  0  0
 30 31  1  0  0  0  0
 30 33  1  0  0  0  0
 30 35  1  0  0  0  0
 31 32  2  0  0  0  0
 31 39  1  0  0  0  0
 33 36  1  0  0  0  0
 33 37  1  0  0  0  0
 33 38  1  0  0  0  0
 39 40  1  0  0  0  0
 39 45  1  0  0  0  0
 40 41  1  0  0  0  0
 40 43  1  0  0  0  0
 40 46  1  0  0  0  0
 41 42  2  0  0  0  0
 41 49  1  0  0  0  0
 43 44  1  0  0  0  0
 43 47  1  0  0  0  0
 43 48  1  0  0  0  0
 49 50  1  0  0  0  0
 49 54  1  0  0  0  0
 50 51  1  0  0  0  0
 50 53  1  0  0  0  0
 50 55  1  0  0  0  0
 51 52  2  0  0  0  0
 51 59  1  0  0  0  0
 53 56  1  0  0  0  0
 53 57  1  0  0  0  0
 53 58  1  0  0  0  0
 59 60  1  0  0  0  0
 59 61  1  0  0  0  0
 60 62  1  0  0  0  0
 60 63  1  0  0  0  0
 60 64  1  0  0  0  0
M  END
$$$$

  -OEChem-05262216053D

 64 63  0     1  0  0  0  0  0999 V2000
    0.4612   -7.7241   -2.6120 C   0  0  0  0  0  0  0  0  0  0  0  0
   -0.6699   -7.5914   -3.0528 O   0  0  0  0  0  0  0  0  0  0  0  0
    0.7842   -8.8630   -1.6638 C   0  0  0  0  0  0  0  0  0  0  0  0
    1.0892   -8.4650   -0.6930 H   0  0  0  0  0  0  0  0  0  0  0  0
   -0.0946   -9.4986   -1.5246 H   0  0  0  0  0  0  0  0  0  0  0  0
    1.5959   -9.4693   -2.0724 H   0  0  0  0  0  0  0  0  0  0  0  0
    1.4497   -6.8443   -2.9940 N   0  0  0  0  0  0  0  0  0  0  0  0
    1.2659   -5.7528   -3.9606 C   0  0  2  0  0  0  0  0  0  0  0  0
    2.5891   -5.3745   -4.6620 C   0  0  0  0  0  0  0  0  0  0  0  0
    3.6397   -5.9173   -4.3360 O   0  0  0  0  0  0  0  0  0  0  0  0
    0.6459   -4.5422   -3.2451 C   0  0  0  0  0  0  0  0  0  0  0  0
    1.7524   -3.8899   -1.9293 S   0  0  0  0  0  0  0  0  0  0  0  0
    2.4008   -7.0253   -2.6747 H   0  0  0  0  0  0  0  0  0  0  0  0
    0.5788   -6.0865   -4.7453 H   0  0  0  0  0  0  0  0  0  0  0  0
    0.4375   -3.7498   -3.9684 H   0  0  0  0  0  0  0  0  0  0  0  0
   -0.3078   -4.8362   -2.7946 H   0  0  0  0  0  0  0  0  0  0  0  0
    2.5994   -4.4641   -5.7046 N   0  0  0  0  0  0  0  0  0  0  0  0
    3.8108   -4.0890   -6.4249 C   0  0  0  0  0  0  0  0  0  0  0  0
    1.7141   -4.0537   -5.9850 H   0  0  0  0  0  0  0  0  0  0  0  0
    4.5418   -3.6461   -5.7400 H   0  0  0  0  0  0  0  0  0  0  0  0
    4.2613   -4.9657   -6.9024 H   0  0  0  0  0  0  0  0  0  0  0  0
    3.5775   -3.3552   -7.2023 H   0  0  0  0  0  0  0  0  0  0  0  0
   -5.5370    1.1104   -1.4104 C   0  0  0  0  0  0  0  0  0  0  0  0
   -5.9256    0.1509   -2.0575 O   0  0  0  0  0  0  0  0  0  0  0  0
   -6.3891    1.6599   -0.2824 C   0  0  0  0  0  0  0  0  0  0  0  0
   -6.6705    2.6934   -0.4981 H   0  0  0  0  0  0  0  0  0  0  0  0
   -7.2979    1.0620   -0.1704 H   0  0  0  0  0  0  0  0  0  0  0  0
   -5.8296    1.6296    0.6558 H   0  0  0  0  0  0  0  0  0  0  0  0
   -4.3196    1.6936   -1.6919 N   0  0  0  0  0  0  0  0  0  0  0  0
   -3.3134    1.1057   -2.5865 C   0  0  2  0  0  0  0  0  0  0  0  0
   -1.9252    1.0464   -1.9187 C   0  0  0  0  0  0  0  0  0  0  0  0
   -1.6560    1.7958   -0.9846 O   0  0  0  0  0  0  0  0  0  0  0  0
   -3.2555    1.9558   -3.8578 C   0  0  0  0  0  0  0  0  0  0  0  0
   -3.9795    2.3839   -1.0238 H   0  0  0  0  0  0  0  0  0  0  0  0
   -3.5903    0.0805   -2.8536 H   0  0  0  0  0  0  0  0  0  0  0  0
   -2.9549    2.9815   -3.6200 H   0  0  0  0  0  0  0  0  0  0  0  0
   -2.5325    1.5396   -4.5662 H   0  0  0  0  0  0  0  0  0  0  0  0
   -4.2379    1.9817   -4.3397 H   0  0  0  0  0  0  0  0  0  0  0  0
   -0.9630    0.1717   -2.3886 N   0  0  0  0  0  0  0  0  0  0  0  0
    0.4621    0.3537   -2.0653 C   0  0  2  0  0  0  0  0  0  0  0  0
    1.1113    1.5057   -2.8678 C   0  0  0  0  0  0  0  0  0  0  0  0
    0.5089    2.0430   -3.7921 O   0  0  0  0  0  0  0  0  0  0  0  0
    1.1890   -0.9668   -2.3600 C   0  0  0  0  0  0  0  0  0  0  0  0
    0.5977   -2.2960   -1.2390 S   0  0  0  0  0  0  0  0  0  0  0  0
   -1.1900   -0.2976   -3.2595 H   0  0  0  0  0  0  0  0  0  0  0  0
    0.5758    0.5839   -0.9999 H   0  0  0  0  0  0  0  0  0  0  0  0
    1.0259   -1.2594   -3.4016 H   0  0  0  0  0  0  0  0  0  0  0  0
    2.2672   -0.8475   -2.2138 H   0  0  0  0  0  0  0  0  0  0  0  0
    2.4466    1.8110   -2.6804 N   0  0  0  0  0  0  0  0  0  0  0  0
    3.2482    2.6623   -3.5697 C   0  0  2  0  0  0  0  0  0  0  0  0
    4.6454    2.0544   -3.8138 C   0  0  0  0  0  0  0  0  0  0  0  0
    5.0094    1.0770   -3.1688 O   0  0  0  0  0  0  0  0  0  0  0  0
    3.3565    4.0472   -2.9267 C   0  0  0  0  0  0  0  0  0  0  0  0
    2.9693    1.2225   -2.0321 H   0  0  0  0  0  0  0  0  0  0  0  0
    2.7631    2.7592   -4.5465 H   0  0  0  0  0  0  0  0  0  0  0  0
    3.8540    3.9812   -1.9538 H   0  0  0  0  0  0  0  0  0  0  0  0
    3.9293    4.7253   -3.5662 H   0  0  0  0  0  0  0  0  0  0  0  0
    2.3586    4.4728   -2.7796 H   0  0  0  0  0  0  0  0  0  0  0  0
    5.4887    2.5866   -4.7717 N   0  0  0  0  0  0  0  0  0  0  0  0
    6.8102    2.0433   -5.0644 C   0  0  0  0  0  0  0  0  0  0  0  0
    5.1560    3.3868   -5.3022 H   0  0  0  0  0  0  0  0  0  0  0  0
    7.4224    2.0093   -4.1567 H   0  0  0  0  0  0  0  0  0  0  0  0
    6.7267    1.0293   -5.4694 H   0  0  0  0  0  0  0  0  0  0  0  0
    7.3221    2.6699   -5.8012 H   0  0  0  0  0  0  0  0  0  0  0  0
  1  2  2  0  0  0  0
  1  3  1  0  0  0  0
  1  7  1  0  0  0  0
  3  4  1  0  0  0  0
  3  5  1  0  0  0  0
  3  6  1  0  0  0  0
  7  8  1  0  0  0  0
  7 13  1  0  0  0  0
  8  9  1  0  0  0  0
  8 11  1  0  0  0  0
  8 14  1  0  0  0  0
  9 10  2  0  0  0  0
  9 17  1  0  0  0  0
 11 12  1  0  0  0  0
 11 15  1  0  0  0  0
 11 16  1  0  0  0  0
 12 44  1  0  0  0  0
 17 18  1  0  0  0  0
 17 19  1  0  0  0  0
 18 20  1  0  0  0  0
 18 21  1  0  0  0  0
 18 22  1  0  0  0  0
 23 24  2  0  0  0  0
 23 25  1  0  0  0  0
 23 29  1  0  0  0  0
 25 26  1  0  0  0  0
 25 27  1  0  0  0  0
 25 28  1  0  0  0  0
 29 30  1  0  0  0  0
 29 34  1  0  0  0  0
 30 31  1  0  0  0  0
 30 33  1  0  0  0  0
 30 35  1  0  0  0  0
 31 32  2  0  0  0  0
 31 39  1  0  0  0  0
 33 36  1  0  0  0  0
 33 37  1  0  0  0  0
 33 38  1  0  0  0  0
 39 40  1  0  0  0  0
 39 45  1  0  0  0  0
 40 41  1  0  0  0  0
 40 43  1  0  0  0  0
 40 46  1  0  0  0  0
 41 42  2  0  0  0  0
 41 49  1  0  0  0  0
 43 44  1  0  0  0  0
 43 47  1  0  0  0  0
 43 48  1  0  0  0  0
 49 50  1  0  0  0  0
 49 54  1  0  0  0  0
 50 51  1  0  0  0  0
 50 53  1  0  0  0  0
 50 55  1  0  0  0  0
 51 52  2  0  0  0  0
 51 59  1  0  0  0  0
 53 56  1  0  0  0  0
 53 57  1  0  0  0  0
 53 58  1  0  0  0  0
 59 60  1  0  0  0  0
 59 61  1  0  0  0  0
 60 62  1  0  0  0  0
 60 63  1  0  0  0  0
 60 64  1  0  0  0  0
M  END
$$$$

  -OEChem-05262216053D

 64 63  0     1  0  0  0  0  0999 V2000
    1.4283   -7.4398   -3.9626 C   0  0  0  0  0  0  0  0  0  0  0  0
    0.6825   -7.1416   -4.8827 O   0  0  0  0  0  0  0  0  0  0  0  0
    1.4250   -8.8490   -3.4016 C   0  0  0  0  0  0  0  0  0  0  0  0
    1.1730   -8.8257   -2.3385 H   0  0  0  0  0  0  0  0  0  0  0  0
    0.6869   -9.4618   -3.9265 H   0  0  0  0  0  0  0  0  0  0  0  0
    2.4114   -9.3021   -3.5256 H   0  0  0  0  0  0  0  0  0  0  0  0
    2.2837   -6.4961   -3.4386 N   0  0  0  0  0  0  0  0  0  0  0  0
    2.4545   -5.1380   -3.9740 C   0  0  2  0  0  0  0  0  0  0  0  0
    3.8520   -4.5660   -3.6360 C   0  0  0  0  0  0  0  0  0  0  0  0
    4.6916   -5.2942   -3.1138 O   0  0  0  0  0  0  0  0  0  0  0  0
    1.3224   -4.2456   -3.4472 C   0  0  0  0  0  0  0  0  0  0  0  0
    1.4862   -3.9310   -1.6403 S   0  0  0  0  0  0  0  0  0  0  0  0
    2.9746   -6.8099   -2.7580 H   0  0  0  0  0  0  0  0  0  0  0  0
    2.3869   -5.1744   -5.0664 H   0  0  0  0  0  0  0  0  0  0  0  0
    1.3440   -3.2966   -3.9880 H   0  0  0  0  0  0  0  0  0  0  0  0
    0.3539   -4.7152   -3.6476 H   0  0  0  0  0  0  0  0  0  0  0  0
    4.2086   -3.2642   -3.9458 N   0  0  0  0  0  0  0  0  0  0  0  0
    5.5076   -2.6975   -3.6086 C   0  0  0  0  0  0  0  0  0  0  0  0
    3.4833   -2.6279   -4.2856 H   0  0  0  0  0  0  0  0  0  0  0  0
    5.6494   -2.6853   -2.5230 H   0  0  0  0  0  0  0  0  0  0  0  0
    6.3121   -3.2840   -4.0643 H   0  0  0  0  0  0  0  0  0  0  0  0
    5.5779   -1.6707   -3.9798 H   0  0  0  0  0  0  0  0  0  0  0  0
   -5.7532    2.2012   -1.5884 C   0  0  0  0  0  0  0  0  0  0  0  0
   -6.3051    1.5112   -2.4310 O   0  0  0  0  0  0  0  0  0  0  0  0
   -6.5797    2.9704   -0.5752 C   0  0  0  0  0  0  0  0  0  0  0  0
   -6.3644    4.0388   -0.6531 H   0  0  0  0  0  0  0  0  0  0  0  0
   -7.6458    2.8114   -0.7602 H   0  0  0  0  0  0  0  0  0  0  0  0
   -6.3426    2.6300    0.4358 H   0  0  0  0  0  0  0  0  0  0  0  0
   -4.3775    2.2803   -1.5544 N   0  0  0  0  0  0  0  0  0  0  0  0
   -3.4787    1.4902   -2.4050 C   0  0  2  0  0  0  0  0  0  0  0  0
   -2.1330    1.2085   -1.7068 C   0  0  0  0  0  0  0  0  0  0  0  0
   -1.7996    1.8494   -0.7141 O   0  0  0  0  0  0  0  0  0  0  0  0
   -3.2441    2.2573   -3.7102 C   0  0  0  0  0  0  0  0  0  0  0  0
   -3.9508    2.7797   -0.7749 H   0  0  0  0  0  0  0  0  0  0  0  0
   -3.9395    0.5223   -2.6304 H   0  0  0  0  0  0  0  0  0  0  0  0
   -2.7745    3.2250   -3.5052 H   0  0  0  0  0  0  0  0  0  0  0  0
   -2.5890    1.6899   -4.3784 H   0  0  0  0  0  0  0  0  0  0  0  0
   -4.1943    2.4314   -4.2249 H   0  0  0  0  0  0  0  0  0  0  0  0
   -1.2837    0.2361   -2.2003 N   0  0  0  0  0  0  0  0  0  0  0  0
    0.1432    0.2101   -1.8411 C   0  0  2  0  0  0  0  0  0  0  0  0
    0.9597    1.3056   -2.5779 C   0  0  0  0  0  0  0  0  0  0  0  0
    0.4200    2.0213   -3.4168 O   0  0  0  0  0  0  0  0  0  0  0  0
    0.6899   -1.1605   -2.2601 C   0  0  0  0  0  0  0  0  0  0  0  0
   -0.0537   -2.5536   -1.3303 S   0  0  0  0  0  0  0  0  0  0  0  0
   -1.5465   -0.1576   -3.0987 H   0  0  0  0  0  0  0  0  0  0  0  0
    0.2707    0.3416   -0.7610 H   0  0  0  0  0  0  0  0  0  0  0  0
    0.5211   -1.3045   -3.3313 H   0  0  0  0  0  0  0  0  0  0  0  0
    1.7686   -1.1988   -2.0866 H   0  0  0  0  0  0  0  0  0  0  0  0
    2.3443    1.2297   -2.5980 N   0  0  0  0  0  0  0  0  0  0  0  0
    3.1106    1.5837   -3.8013 C   0  0  2  0  0  0  0  0  0  0  0  0
    3.0344    0.4749   -4.8779 C   0  0  0  0  0  0  0  0  0  0  0  0
    2.9018   -0.7041   -4.5534 O   0  0  0  0  0  0  0  0  0  0  0  0
    4.5623    1.8163   -3.3806 C   0  0  0  0  0  0  0  0  0  0  0  0
    2.7382    0.4921   -2.0204 H   0  0  0  0  0  0  0  0  0  0  0  0
    2.7240    2.5143   -4.2310 H   0  0  0  0  0  0  0  0  0  0  0  0
    4.9906    0.9040   -2.9531 H   0  0  0  0  0  0  0  0  0  0  0  0
    5.1668    2.1122   -4.2435 H   0  0  0  0  0  0  0  0  0  0  0  0
    4.6160    2.6124   -2.6314 H   0  0  0  0  0  0  0  0  0  0  0  0
    3.1457    0.7900   -6.2185 N   0  0  0  0  0  0  0  0  0  0  0  0
    3.0302   -0.1985   -7.2848 C   0  0  0  0  0  0  0  0  0  0  0  0
    3.1628    1.7758   -6.4667 H   0  0  0  0  0  0  0  0  0  0  0  0
    3.8254   -0.9473   -7.2019 H   0  0  0  0  0  0  0  0  0  0  0  0
    2.0607   -0.7059   -7.2349 H   0  0  0  0  0  0  0  0  0  0  0  0
    3.1149    0.2875   -8.2618 H   0  0  0  0  0  0  0  0  0  0  0  0
  1  2  2  0  0  0  0
  1  3  1  0  0  0  0
  1  7  1  0  0  0  0
  3  4  1  0  0  0  0
  3  5  1  0  0  0  0
  3  6  1  0  0  0  0
  7  8  1  0  0  0  0
  7 13  1  0  0  0  0
  8  9  1  0  0  0  0
  8 11  1  0  0  0  0
  8 14  1  0  0  0  0
  9 10  2  0  0  0  0
  9 17  1  0  0  0  0
 11 12  1  0  0  0  0
 11 15  1  0  0  0  0
 11 16  1  0  0  0  0
 12 44  1  0  0  0  0
 17 18  1  0  0  0  0
 17 19  1  0  0  0  0
 18 20  1  0  0  0  0
 18 21  1  0  0  0  0
 18 22  1  0  0  0  0
 23 24  2  0  0  0  0
 23 25  1  0  0  0  0
 23 29  1  0  0  0  0
 25 26  1  0  0  0  0
 25 27  1  0  0  0  0
 25 28  1  0  0  0  0
 29 30  1  0  0  0  0
 29 34  1  0  0  0  0
 30 31  1  0  0  0  0
 30 33  1  0  0  0  0
 30 35  1  0  0  0  0
 31 32  2  0  0  0  0
 31 39  1  0  0  0  0
 33 36  1  0  0  0  0
 33 37  1  0  0  0  0
 33 38  1  0  0  0  0
 39 40  1  0  0  0  0
 39 45  1  0  0  0  0
 40 41  1  0  0  0  0
 40 43  1  0  0  0  0
 40 46  1  0  0  0  0
 41 42  2  0  0  0  0
 41 49  1  0  0  0  0
 43 44  1  0  0  0  0
 43 47  1  0  0  0  0
 43 48  1  0  0  0  0
 49 50  1  0  0  0  0
 49 54  1  0  0  0  0
 50 51  1  0  0  0  0
 50 53  1  0  0  0  0
 50 55  1  0  0  0  0
 51 52  2  0  0  0  0
 51 59  1  0  0  0  0
 53 56  1  0  0  0  0
 53 57  1  0  0  0  0
 53 58  1  0  0  0  0
 59 60  1  0  0  0  0
 59 61  1  0  0  0  0
 60 62  1  0  0  0  0
 60 63  1  0  0  0  0
 60 64  1  0  0  0  0
M  END
$$$$

  -OEChem-05262216053D

 64 63  0     1  0  0  0  0  0999 V2000
    1.2913   -7.5677   -3.8364 C   0  0  0  0  0  0  0  0  0  0  0  0
    0.4232   -7.3043   -4.6540 O   0  0  0  0  0  0  0  0  0  0  0  0
    1.4050   -8.9699   -3.2702 C   0  0  0  0  0  0  0  0  0  0  0  0
    1.4047   -8.9329   -2.1782 H   0  0  0  0  0  0  0  0  0  0  0  0
    0.5594   -9.5791   -3.6016 H   0  0  0  0  0  0  0  0  0  0  0  0
    2.3326   -9.4348   -3.6128 H   0  0  0  0  0  0  0  0  0  0  0  0
    2.1771   -6.5910   -3.4376 N   0  0  0  0  0  0  0  0  0  0  0  0
    2.2324   -5.2370   -4.0069 C   0  0  2  0  0  0  0  0  0  0  0  0
    3.6460   -4.6206   -3.8756 C   0  0  0  0  0  0  0  0  0  0  0  0
    4.5576   -5.2953   -3.4047 O   0  0  0  0  0  0  0  0  0  0  0  0
    1.1605   -4.3655   -3.3374 C   0  0  0  0  0  0  0  0  0  0  0  0
    1.5667   -4.0164   -1.5751 S   0  0  0  0  0  0  0  0  0  0  0  0
    2.9590   -6.8722   -2.8469 H   0  0  0  0  0  0  0  0  0  0  0  0
    2.0140   -5.2936   -5.0786 H   0  0  0  0  0  0  0  0  0  0  0  0
    1.0786   -3.4276   -3.8902 H   0  0  0  0  0  0  0  0  0  0  0  0
    0.1870   -4.8632   -3.3927 H   0  0  0  0  0  0  0  0  0  0  0  0
    3.9355   -3.3433   -4.3271 N   0  0  0  0  0  0  0  0  0  0  0  0
    5.2635   -2.7503   -4.2345 C   0  0  0  0  0  0  0  0  0  0  0  0
    3.1665   -2.7473   -4.6401 H   0  0  0  0  0  0  0  0  0  0  0  0
    5.5350   -2.5806   -3.1877 H   0  0  0  0  0  0  0  0  0  0  0  0
    6.0115   -3.4063   -4.6921 H   0  0  0  0  0  0  0  0  0  0  0  0
    5.2837   -1.7912   -4.7605 H   0  0  0  0  0  0  0  0  0  0  0  0
   -5.5775    2.1911   -1.8649 C   0  0  0  0  0  0  0  0  0  0  0  0
   -6.1249    1.4226   -2.6398 O   0  0  0  0  0  0  0  0  0  0  0  0
   -6.4081    3.0862   -0.9652 C   0  0  0  0  0  0  0  0  0  0  0  0
   -6.1707    4.1346   -1.1610 H   0  0  0  0  0  0  0  0  0  0  0  0
   -7.4733    2.9246   -1.1524 H   0  0  0  0  0  0  0  0  0  0  0  0
   -6.1954    2.8610    0.0826 H   0  0  0  0  0  0  0  0  0  0  0  0
   -4.2021    2.2428   -1.7995 N   0  0  0  0  0  0  0  0  0  0  0  0
   -3.3009    1.3316   -2.5158 C   0  0  2  0  0  0  0  0  0  0  0  0
   -1.9753    1.1281   -1.7527 C   0  0  0  0  0  0  0  0  0  0  0  0
   -1.7125    1.8127   -0.7679 O   0  0  0  0  0  0  0  0  0  0  0  0
   -3.0317    1.9096   -3.9094 C   0  0  0  0  0  0  0  0  0  0  0  0
   -3.7864    2.8059   -1.0579 H   0  0  0  0  0  0  0  0  0  0  0  0
   -3.7741    0.3487   -2.6160 H   0  0  0  0  0  0  0  0  0  0  0  0
   -2.5508    2.8899   -3.8293 H   0  0  0  0  0  0  0  0  0  0  0  0
   -2.3760    1.2481   -4.4830 H   0  0  0  0  0  0  0  0  0  0  0  0
   -3.9703    2.0242   -4.4604 H   0  0  0  0  0  0  0  0  0  0  0  0
   -1.0736    0.1638   -2.1648 N   0  0  0  0  0  0  0  0  0  0  0  0
    0.3360    0.1947   -1.7392 C   0  0  2  0  0  0  0  0  0  0  0  0
    1.1533    1.2886   -2.4872 C   0  0  0  0  0  0  0  0  0  0  0  0
    0.5853    2.1166   -3.1930 O   0  0  0  0  0  0  0  0  0  0  0  0
    0.9177   -1.1888   -2.0700 C   0  0  0  0  0  0  0  0  0  0  0  0
    0.1536   -2.5489   -1.1080 S   0  0  0  0  0  0  0  0  0  0  0  0
   -1.2881   -0.2852   -3.0496 H   0  0  0  0  0  0  0  0  0  0  0  0
    0.4123    0.3762   -0.6616 H   0  0  0  0  0  0  0  0  0  0  0  0
    0.7927   -1.3821   -3.1383 H   0  0  0  0  0  0  0  0  0  0  0  0
    1.9878   -1.2111   -1.8480 H   0  0  0  0  0  0  0  0  0  0  0  0
    2.5095    1.1033   -2.7153 N   0  0  0  0  0  0  0  0  0  0  0  0
    3.1322    1.4814   -3.9905 C   0  0  2  0  0  0  0  0  0  0  0  0
    2.7515    0.4934   -5.1178 C   0  0  0  0  0  0  0  0  0  0  0  0
    2.6412   -0.7088   -4.8807 O   0  0  0  0  0  0  0  0  0  0  0  0
    4.6485    1.4975   -3.7849 C   0  0  0  0  0  0  0  0  0  0  0  0
    2.9135    0.2967   -2.2490 H   0  0  0  0  0  0  0  0  0  0  0  0
    2.8120    2.4879   -4.2816 H   0  0  0  0  0  0  0  0  0  0  0  0
    5.0083    0.5064   -3.4903 H   0  0  0  0  0  0  0  0  0  0  0  0
    5.1562    1.7905   -4.7092 H   0  0  0  0  0  0  0  0  0  0  0  0
    4.9178    2.2125   -3.0010 H   0  0  0  0  0  0  0  0  0  0  0  0
    2.5395    0.9497   -6.4043 N   0  0  0  0  0  0  0  0  0  0  0  0
    2.0887    0.0902   -7.4919 C   0  0  0  0  0  0  0  0  0  0  0  0
    2.5219    1.9570   -6.5418 H   0  0  0  0  0  0  0  0  0  0  0  0
    2.8024   -0.7233   -7.6590 H   0  0  0  0  0  0  0  0  0  0  0  0
    1.1094   -0.3410   -7.2590 H   0  0  0  0  0  0  0  0  0  0  0  0
    2.0017    0.6672   -8.4178 H   0  0  0  0  0  0  0  0  0  0  0  0
  1  2  2  0  0  0  0
  1  3  1  0  0  0  0
  1  7  1  0  0  0  0
  3  4  1  0  0  0  0
  3  5  1  0  0  0  0
  3  6  1  0  0  0  0
  7  8  1  0  0  0  0
  7 13  1  0  0  0  0
  8  9  1  0  0  0  0
  8 11  1  0  0  0  0
  8 14  1  0  0  0  0
  9 10  2  0  0  0  0
  9 17  1  0  0  0  0
 11 12  1  0  0  0  0
 11 15  1  0  0  0  0
 11 16  1  0  0  0  0
 12 44  1  0  0  0  0
 17 18  1  0  0  0  0
 17 19  1  0  0  0  0
 18 20  1  0  0  0  0
 18 21  1  0  0  0  0
 18 22  1  0  0  0  0
 23 24  2  0  0  0  0
 23 25  1  0  0  0  0
 23 29  1  0  0  0  0
 25 26  1  0  0  0  0
 25 27  1  0  0  0  0
 25 28  1  0  0  0  0
 29 30  1  0  0  0  0
 29 34  1  0  0  0  0
 30 31  1  0  0  0  0
 30 33  1  0  0  0  0
 30 35  1  0  0  0  0
 31 32  2  0  0  0  0
 31 39  1  0  0  0  0
 33 36  1  0  0  0  0
 33 37  1  0  0  0  0
 33 38  1  0  0  0  0
 39 40  1  0  0  0  0
 39 45  1  0  0  0  0
 40 41  1  0  0  0  0
 40 43  1  0  0  0  0
 40 46  1  0  0  0  0
 41 42  2  0  0  0  0
 41 49  1  0  0  0  0
 43 44  1  0  0  0  0
 43 47  1  0  0  0  0
 43 48  1  0  0  0  0
 49 50  1  0  0  0  0
 49 54  1  0  0  0  0
 50 51  1  0  0  0  0
 50 53  1  0  0  0  0
 50 55  1  0  0  0  0
 51 52  2  0  0  0  0
 51 59  1  0  0  0  0
 53 56  1  0  0  0  0
 53 57  1  0  0  0  0
 53 58  1  0  0  0  0
 59 60  1  0  0  0  0
 59 61  1  0  0  0  0
 60 62  1  0  0  0  0
 60 63  1  0  0  0  0
 60 64  1  0  0  0  0
M  END
$$$$

  -OEChem-05262216053D

 64 63  0     1  0  0  0  0  0999 V2000
    1.3562   -7.7511   -3.7610 C   0  0  0  0  0  0  0  0  0  0  0  0
    0.4075   -7.5923   -4.5133 O   0  0  0  0  0  0  0  0  0  0  0  0
    1.6566   -9.1231   -3.1877 C   0  0  0  0  0  0  0  0  0  0  0  0
    1.6707   -9.0767   -2.0961 H   0  0  0  0  0  0  0  0  0  0  0  0
    0.8898   -9.8375   -3.4996 H   0  0  0  0  0  0  0  0  0  0  0  0
    2.6293   -9.4713   -3.5435 H   0  0  0  0  0  0  0  0  0  0  0  0
    2.1629   -6.6811   -3.4420 N   0  0  0  0  0  0  0  0  0  0  0  0
    2.0380   -5.3393   -4.0297 C   0  0  2  0  0  0  0  0  0  0  0  0
    3.3984   -4.6018   -4.0526 C   0  0  0  0  0  0  0  0  0  0  0  0
    4.3979   -5.1621   -3.6111 O   0  0  0  0  0  0  0  0  0  0  0  0
    0.9707   -4.5519   -3.2570 C   0  0  0  0  0  0  0  0  0  0  0  0
    1.5194   -4.1751   -1.5400 S   0  0  0  0  0  0  0  0  0  0  0  0
    3.0075   -6.8685   -2.9027 H   0  0  0  0  0  0  0  0  0  0  0  0
    1.7148   -5.4339   -5.0717 H   0  0  0  0  0  0  0  0  0  0  0  0
    0.7611   -3.6234   -3.7918 H   0  0  0  0  0  0  0  0  0  0  0  0
    0.0383   -5.1243   -3.2211 H   0  0  0  0  0  0  0  0  0  0  0  0
    3.5435   -3.3439   -4.6148 N   0  0  0  0  0  0  0  0  0  0  0  0
    4.8272   -2.6588   -4.7046 C   0  0  0  0  0  0  0  0  0  0  0  0
    2.7095   -2.8452   -4.9288 H   0  0  0  0  0  0  0  0  0  0  0  0
    5.1733   -2.3629   -3.7092 H   0  0  0  0  0  0  0  0  0  0  0  0
    5.5811   -3.3083   -5.1620 H   0  0  0  0  0  0  0  0  0  0  0  0
    4.7324   -1.7620   -5.3234 H   0  0  0  0  0  0  0  0  0  0  0  0
   -5.4317    2.3693   -2.0884 C   0  0  0  0  0  0  0  0  0  0  0  0
   -5.9932    1.6621   -2.9105 O   0  0  0  0  0  0  0  0  0  0  0  0
   -6.2316    3.3514   -1.2542 C   0  0  0  0  0  0  0  0  0  0  0  0
   -5.8536    4.3648   -1.4079 H   0  0  0  0  0  0  0  0  0  0  0  0
   -7.2858    3.3202   -1.5426 H   0  0  0  0  0  0  0  0  0  0  0  0
   -6.1475    3.0959   -0.1953 H   0  0  0  0  0  0  0  0  0  0  0  0
   -4.0679    2.2773   -1.9132 N   0  0  0  0  0  0  0  0  0  0  0  0
   -3.2078    1.2830   -2.5666 C   0  0  2  0  0  0  0  0  0  0  0  0
   -1.9457    0.9868   -1.7287 C   0  0  0  0  0  0  0  0  0  0  0  0
   -1.7291    1.6109   -0.6940 O   0  0  0  0  0  0  0  0  0  0  0  0
   -2.8120    1.8160   -3.9483 C   0  0  0  0  0  0  0  0  0  0  0  0
   -3.6551    2.7975   -1.1390 H   0  0  0  0  0  0  0  0  0  0  0  0
   -3.7562    0.3419   -2.6807 H   0  0  0  0  0  0  0  0  0  0  0  0
   -2.2342    2.7407   -3.8470 H   0  0  0  0  0  0  0  0  0  0  0  0
   -2.2032    1.0836   -4.4862 H   0  0  0  0  0  0  0  0  0  0  0  0
   -3.7043    2.0246   -4.5463 H   0  0  0  0  0  0  0  0  0  0  0  0
   -1.0404    0.0228   -2.1382 N   0  0  0  0  0  0  0  0  0  0  0  0
    0.3644    0.0588   -1.6941 C   0  0  2  0  0  0  0  0  0  0  0  0
    1.1742    1.1635   -2.4373 C   0  0  0  0  0  0  0  0  0  0  0  0
    0.6068    2.1465   -2.9011 O   0  0  0  0  0  0  0  0  0  0  0  0
    0.9581   -1.3277   -1.9862 C   0  0  0  0  0  0  0  0  0  0  0  0
    0.1796   -2.6655   -1.0048 S   0  0  0  0  0  0  0  0  0  0  0  0
   -1.2308   -0.3899   -3.0458 H   0  0  0  0  0  0  0  0  0  0  0  0
    0.4260    0.2550   -0.6181 H   0  0  0  0  0  0  0  0  0  0  0  0
    0.8595   -1.5473   -3.0520 H   0  0  0  0  0  0  0  0  0  0  0  0
    2.0221   -1.3361   -1.7342 H   0  0  0  0  0  0  0  0  0  0  0  0
    2.4393    0.8855   -2.9367 N   0  0  0  0  0  0  0  0  0  0  0  0
    2.8776    1.3801   -4.2495 C   0  0  2  0  0  0  0  0  0  0  0  0
    2.3537    0.4748   -5.3887 C   0  0  0  0  0  0  0  0  0  0  0  0
    2.1392   -0.7195   -5.1850 O   0  0  0  0  0  0  0  0  0  0  0  0
    4.4068    1.4213   -4.2475 C   0  0  0  0  0  0  0  0  0  0  0  0
    2.8065   -0.0240   -2.6725 H   0  0  0  0  0  0  0  0  0  0  0  0
    2.5102    2.3981   -4.4189 H   0  0  0  0  0  0  0  0  0  0  0  0
    4.8202    0.4222   -4.0802 H   0  0  0  0  0  0  0  0  0  0  0  0
    4.7802    1.7968   -5.2052 H   0  0  0  0  0  0  0  0  0  0  0  0
    4.7659    2.0832   -3.4531 H   0  0  0  0  0  0  0  0  0  0  0  0
    2.1309    0.9938   -6.6496 N   0  0  0  0  0  0  0  0  0  0  0  0
    1.5788    0.2135   -7.7506 C   0  0  0  0  0  0  0  0  0  0  0  0
    2.2333    1.9987   -6.7664 H   0  0  0  0  0  0  0  0  0  0  0  0
    2.2316   -0.6336   -7.9861 H   0  0  0  0  0  0  0  0  0  0  0  0
    0.5860   -0.1675   -7.4905 H   0  0  0  0  0  0  0  0  0  0  0  0
    1.4850    0.8360   -8.6456 H   0  0  0  0  0  0  0  0  0  0  0  0
  1  2  2  0  0  0  0
  1  3  1  0  0  0  0
  1  7  1  0  0  0  0
  3  4  1  0  0  0  0
  3  5  1  0  0  0  0
  3  6  1  0  0  0  0
  7  8  1  0  0  0  0
  7 13  1  0  0  0  0
  8  9  1  0  0  0  0
  8 11  1  0  0  0  0
  8 14  1  0  0  0  0
  9 10  2  0  0  0  0
  9 17  1  0  0  0  0
 11 12  1  0  0  0  0
 11 15  1  0  0  0  0
 11 16  1  0  0  0  0
 12 44  1  0  0  0  0
 17 18  1  0  0  0  0
 17 19  1  0  0  0  0
 18 20  1  0  0  0  0
 18 21  1  0  0  0  0
 18 22  1  0  0  0  0
 23 24  2  0  0  0  0
 23 25  1  0  0  0  0
 23 29  1  0  0  0  0
 25 26  1  0  0  0  0
 25 27  1  0  0  0  0
 25 28  1  0  0  0  0
 29 30  1  0  0  0  0
 29 34  1  0  0  0  0
 30 31  1  0  0  0  0
 30 33  1  0  0  0  0
 30 35  1  0  0  0  0
 31 32  2  0  0  0  0
 31 39  1  0  0  0  0
 33 36  1  0  0  0  0
 33 37  1  0  0  0  0
 33 38  1  0  0  0  0
 39 40  1  0  0  0  0
 39 45  1  0  0  0  0
 40 41  1  0  0  0  0
 40 43  1  0  0  0  0
 40 46  1  0  0  0  0
 41 42  2  0  0  0  0
 41 49  1  0  0  0  0
 43 44  1  0  0  0  0
 43 47  1  0  0  0  0
 43 48  1  0  0  0  0
 49 50  1  0  0  0  0
 49 54  1  0  0  0  0
 50 51  1  0  0  0  0
 50 53  1  0  0  0  0
 50 55  1  0  0  0  0
 51 52  2  0  0  0  0
 51 59  1  0  0  0  0
 53 56  1  0  0  0  0
 53 57  1  0  0  0  0
 53 58  1  0  0  0  0
 59 60  1  0  0  0  0
 59 61  1  0  0  0  0
 60 62  1  0  0  0  0
 60 63  1  0  0  0  0
 60 64  1  0  0  0  0
M  END
$$$$

  -OEChem-05262216053D

 64 63  0     1  0  0  0  0  0999 V2000
    0.5716   -7.3466   -3.5911 C   0  0  0  0  0  0  0  0  0  0  0  0
   -0.5411   -7.0375   -3.9877 O   0  0  0  0  0  0  0  0  0  0  0  0
    0.8734   -8.7809   -3.2010 C   0  0  0  0  0  0  0  0  0  0  0  0
    1.1934   -8.8231   -2.1569 H   0  0  0  0  0  0  0  0  0  0  0  0
   -0.0201   -9.3999   -3.3221 H   0  0  0  0  0  0  0  0  0  0  0  0
    1.6679   -9.1813   -3.8355 H   0  0  0  0  0  0  0  0  0  0  0  0
    1.5594   -6.3900   -3.5102 N   0  0  0  0  0  0  0  0  0  0  0  0
    1.4111   -5.0007   -3.9664 C   0  0  2  0  0  0  0  0  0  0  0  0
    2.7629   -4.4027   -4.4220 C   0  0  0  0  0  0  0  0  0  0  0  0
    3.7817   -5.0844   -4.3560 O   0  0  0  0  0  0  0  0  0  0  0  0
    0.7705   -4.1751   -2.8427 C   0  0  0  0  0  0  0  0  0  0  0  0
    1.8993   -4.0036   -1.3963 S   0  0  0  0  0  0  0  0  0  0  0  0
    2.5033   -6.7012   -3.2836 H   0  0  0  0  0  0  0  0  0  0  0  0
    0.7481   -4.9786   -4.8378 H   0  0  0  0  0  0  0  0  0  0  0  0
    0.5117   -3.1866   -3.2295 H   0  0  0  0  0  0  0  0  0  0  0  0
   -0.1613   -4.6501   -2.5185 H   0  0  0  0  0  0  0  0  0  0  0  0
    2.8554   -3.1316   -4.9651 N   0  0  0  0  0  0  0  0  0  0  0  0
    4.1024   -2.5776   -5.4768 C   0  0  0  0  0  0  0  0  0  0  0  0
    2.0216   -2.5424   -4.9846 H   0  0  0  0  0  0  0  0  0  0  0  0
    4.8147   -2.4203   -4.6604 H   0  0  0  0  0  0  0  0  0  0  0  0
    4.5515   -3.2536   -6.2121 H   0  0  0  0  0  0  0  0  0  0  0  0
    3.9149   -1.6183   -5.9672 H   0  0  0  0  0  0  0  0  0  0  0  0
   -5.1396    1.4339   -2.7037 C   0  0  0  0  0  0  0  0  0  0  0  0
   -5.4276    0.6351   -3.5814 O   0  0  0  0  0  0  0  0  0  0  0  0
   -6.2287    2.2360   -2.0173 C   0  0  0  0  0  0  0  0  0  0  0  0
   -6.0649    3.3035   -2.1832 H   0  0  0  0  0  0  0  0  0  0  0  0
   -7.2082    1.9618   -2.4189 H   0  0  0  0  0  0  0  0  0  0  0  0
   -6.2200    2.0355   -0.9433 H   0  0  0  0  0  0  0  0  0  0  0  0
   -3.8235    1.6074   -2.3335 N   0  0  0  0  0  0  0  0  0  0  0  0
   -2.7069    0.7910   -2.8257 C   0  0  2  0  0  0  0  0  0  0  0  0
   -1.5494    0.7362   -1.8070 C   0  0  0  0  0  0  0  0  0  0  0  0
   -1.5795    1.4266   -0.7929 O   0  0  0  0  0  0  0  0  0  0  0  0
   -2.2147    1.3818   -4.1525 C   0  0  0  0  0  0  0  0  0  0  0  0
   -3.6334    2.1997   -1.5252 H   0  0  0  0  0  0  0  0  0  0  0  0
   -3.0487   -0.2366   -2.9888 H   0  0  0  0  0  0  0  0  0  0  0  0
   -1.8468    2.4019   -4.0008 H   0  0  0  0  0  0  0  0  0  0  0  0
   -1.4015    0.7783   -4.5669 H   0  0  0  0  0  0  0  0  0  0  0  0
   -3.0294    1.4089   -4.8828 H   0  0  0  0  0  0  0  0  0  0  0  0
   -0.4669   -0.0957   -2.0312 N   0  0  0  0  0  0  0  0  0  0  0  0
    0.8650    0.2170   -1.4844 C   0  0  2  0  0  0  0  0  0  0  0  0
    1.5207    1.3628   -2.3064 C   0  0  0  0  0  0  0  0  0  0  0  0
    0.8664    2.3293   -2.6806 O   0  0  0  0  0  0  0  0  0  0  0  0
    1.7014   -1.0706   -1.5375 C   0  0  0  0  0  0  0  0  0  0  0  0
    1.0178   -2.3717   -0.4407 S   0  0  0  0  0  0  0  0  0  0  0  0
   -0.4809   -0.5633   -2.9336 H   0  0  0  0  0  0  0  0  0  0  0  0
    0.7886    0.5471   -0.4422 H   0  0  0  0  0  0  0  0  0  0  0  0
    1.7466   -1.4388   -2.5650 H   0  0  0  0  0  0  0  0  0  0  0  0
    2.7250   -0.8679   -1.2076 H   0  0  0  0  0  0  0  0  0  0  0  0
    2.7256    1.1385   -2.9562 N   0  0  0  0  0  0  0  0  0  0  0  0
    2.8661    1.5443   -4.3623 C   0  0  2  0  0  0  0  0  0  0  0  0
    1.9603    0.7045   -5.3001 C   0  0  0  0  0  0  0  0  0  0  0  0
    1.5536   -0.4067   -4.9574 O   0  0  0  0  0  0  0  0  0  0  0  0
    4.3383    1.3844   -4.7474 C   0  0  0  0  0  0  0  0  0  0  0  0
    3.1633    0.2543   -2.7176 H   0  0  0  0  0  0  0  0  0  0  0  0
    2.5929    2.5995   -4.4743 H   0  0  0  0  0  0  0  0  0  0  0  0
    4.6570    0.3441   -4.6307 H   0  0  0  0  0  0  0  0  0  0  0  0
    4.4964    1.6820   -5.7887 H   0  0  0  0  0  0  0  0  0  0  0  0
    4.9670    2.0142   -4.1096 H   0  0  0  0  0  0  0  0  0  0  0  0
    1.6114    1.1890   -6.5462 N   0  0  0  0  0  0  0  0  0  0  0  0
    0.7162    0.4895   -7.4609 C   0  0  0  0  0  0  0  0  0  0  0  0
    1.8821    2.1436   -6.7676 H   0  0  0  0  0  0  0  0  0  0  0  0
    1.1068   -0.5061   -7.6966 H   0  0  0  0  0  0  0  0  0  0  0  0
   -0.2798    0.3831   -7.0184 H   0  0  0  0  0  0  0  0  0  0  0  0
    0.6199    1.0496   -8.3963 H   0  0  0  0  0  0  0  0  0  0  0  0
  1  2  2  0  0  0  0
  1  3  1  0  0  0  0
  1  7  1  0  0  0  0
  3  4  1  0  0  0  0
  3  5  1  0  0  0  0
  3  6  1  0  0  0  0
  7  8  1  0  0  0  0
  7 13  1  0  0  0  0
  8  9  1  0  0  0  0
  8 11  1  0  0  0  0
  8 14  1  0  0  0  0
  9 10  2  0  0  0  0
  9 17  1  0  0  0  0
 11 12  1  0  0  0  0
 11 15  1  0  0  0  0
 11 16  1  0  0  0  0
 12 44  1  0  0  0  0
 17 18  1  0  0  0  0
 17 19  1  0  0  0  0
 18 20  1  0  0  0  0
 18 21  1  0  0  0  0
 18 22  1  0  0  0  0
 23 24  2  0  0  0  0
 23 25  1  0  0  0  0
 23 29  1  0  0  0  0
 25 26  1  0  0  0  0
 25 27  1  0  0  0  0
 25 28  1  0  0  0  0
 29 30  1  0  0  0  0
 29 34  1  0  0  0  0
 30 31  1  0  0  0  0
 30 33  1  0  0  0  0
 30 35  1  0  0  0  0
 31 32  2  0  0  0  0
 31 39  1  0  0  0  0
 33 36  1  0  0  0  0
 33 37  1  0  0  0  0
 33 38  1  0  0  0  0
 39 40  1  0  0  0  0
 39 45  1  0  0  0  0
 40 41  1  0  0  0  0
 40 43  1  0  0  0  0
 40 46  1  0  0  0  0
 41 42  2  0  0  0  0
 41 49  1  0  0  0  0
 43 44  1  0  0  0  0
 43 47  1  0  0  0  0
 43 48  1  0  0  0  0
 49 50  1  0  0  0  0
 49 54  1  0  0  0  0
 50 51  1  0  0  0  0
 50 53  1  0  0  0  0
 50 55  1  0  0  0  0
 51 52  2  0  0  0  0
 51 59  1  0  0  0  0
 53 56  1  0  0  0  0
 53 57  1  0  0  0  0
 53 58  1  0  0  0  0
 59 60  1  0  0  0  0
 59 61  1  0  0  0  0
 60 62  1  0  0  0  0
 60 63  1  0  0  0  0
 60 64  1  0  0  0  0
M  END
$$$$

  -OEChem-05262216053D

 64 63  0     1  0  0  0  0  0999 V2000
    0.7360   -7.8246   -2.9566 C   0  0  0  0  0  0  0  0  0  0  0  0
   -0.4131   -7.7805   -3.3680 O   0  0  0  0  0  0  0  0  0  0  0  0
    1.2249   -9.0303   -2.1769 C   0  0  0  0  0  0  0  0  0  0  0  0
    1.5397   -8.7235   -1.1765 H   0  0  0  0  0  0  0  0  0  0  0  0
    0.4237   -9.7688   -2.0840 H   0  0  0  0  0  0  0  0  0  0  0  0
    2.0710   -9.4907   -2.6927 H   0  0  0  0  0  0  0  0  0  0  0  0
    1.5906   -6.7740   -3.2079 N   0  0  0  0  0  0  0  0  0  0  0  0
    1.2322   -5.5752   -3.9774 C   0  0  2  0  0  0  0  0  0  0  0  0
    2.4657   -4.9127   -4.6293 C   0  0  0  0  0  0  0  0  0  0  0  0
    3.5963   -5.2887   -4.3380 O   0  0  0  0  0  0  0  0  0  0  0  0
    0.5031   -4.5861   -3.0554 C   0  0  0  0  0  0  0  0  0  0  0  0
    1.5878   -4.0322   -1.6752 S   0  0  0  0  0  0  0  0  0  0  0  0
    2.5588   -6.8578   -2.9005 H   0  0  0  0  0  0  0  0  0  0  0  0
    0.5587   -5.8617   -4.7920 H   0  0  0  0  0  0  0  0  0  0  0  0
    0.1773   -3.7186   -3.6353 H   0  0  0  0  0  0  0  0  0  0  0  0
   -0.3937   -5.0586   -2.6406 H   0  0  0  0  0  0  0  0  0  0  0  0
    2.3097   -3.9096   -5.5704 N   0  0  0  0  0  0  0  0  0  0  0  0
    3.4267   -3.2358   -6.2233 C   0  0  0  0  0  0  0  0  0  0  0  0
    1.3655   -3.6234   -5.8116 H   0  0  0  0  0  0  0  0  0  0  0  0
    3.9301   -2.5631   -5.5214 H   0  0  0  0  0  0  0  0  0  0  0  0
    4.1540   -3.9631   -6.5997 H   0  0  0  0  0  0  0  0  0  0  0  0
    3.0662   -2.6460   -7.0718 H   0  0  0  0  0  0  0  0  0  0  0  0
   -5.5244    1.4487   -1.5738 C   0  0  0  0  0  0  0  0  0  0  0  0
   -5.9994    0.5987   -2.3107 O   0  0  0  0  0  0  0  0  0  0  0  0
   -6.3873    2.1051   -0.5129 C   0  0  0  0  0  0  0  0  0  0  0  0
   -6.3776    3.1901   -0.6409 H   0  0  0  0  0  0  0  0  0  0  0  0
   -7.4185    1.7501   -0.5924 H   0  0  0  0  0  0  0  0  0  0  0  0
   -6.0047    1.8589    0.4805 H   0  0  0  0  0  0  0  0  0  0  0  0
   -4.1963    1.7989   -1.6916 N   0  0  0  0  0  0  0  0  0  0  0  0
   -3.2268    1.0897   -2.5362 C   0  0  2  0  0  0  0  0  0  0  0  0
   -1.8291    1.0482   -1.8856 C   0  0  0  0  0  0  0  0  0  0  0  0
   -1.5671    1.7905   -0.9468 O   0  0  0  0  0  0  0  0  0  0  0  0
   -3.1614    1.7953   -3.8931 C   0  0  0  0  0  0  0  0  0  0  0  0
   -3.8097    2.4154   -0.9767 H   0  0  0  0  0  0  0  0  0  0  0  0
   -3.5500    0.0532   -2.6811 H   0  0  0  0  0  0  0  0  0  0  0  0
   -2.8292    2.8313   -3.7690 H   0  0  0  0  0  0  0  0  0  0  0  0
   -2.4620    1.2831   -4.5602 H   0  0  0  0  0  0  0  0  0  0  0  0
   -4.1493    1.7994   -4.3647 H   0  0  0  0  0  0  0  0  0  0  0  0
   -0.8908    0.1241   -2.3104 N   0  0  0  0  0  0  0  0  0  0  0  0
    0.5444    0.2405   -1.9977 C   0  0  2  0  0  0  0  0  0  0  0  0
    1.2441    1.3285   -2.8529 C   0  0  0  0  0  0  0  0  0  0  0  0
    0.9678    2.5129   -2.7330 O   0  0  0  0  0  0  0  0  0  0  0  0
    1.1888   -1.1393   -2.2003 C   0  0  0  0  0  0  0  0  0  0  0  0
    0.5321   -2.3656   -1.0036 S   0  0  0  0  0  0  0  0  0  0  0  0
   -1.1639   -0.4564   -3.0965 H   0  0  0  0  0  0  0  0  0  0  0  0
    0.6734    0.5277   -0.9476 H   0  0  0  0  0  0  0  0  0  0  0  0
    1.0109   -1.4934   -3.2198 H   0  0  0  0  0  0  0  0  0  0  0  0
    2.2714   -1.0656   -2.0511 H   0  0  0  0  0  0  0  0  0  0  0  0
    2.0681    0.9622   -3.9040 N   0  0  0  0  0  0  0  0  0  0  0  0
    2.4691    1.8460   -5.0051 C   0  0  2  0  0  0  0  0  0  0  0  0
    2.4524    1.0835   -6.3475 C   0  0  0  0  0  0  0  0  0  0  0  0
    2.2557   -0.1293   -6.3611 O   0  0  0  0  0  0  0  0  0  0  0  0
    3.8655    2.3906   -4.6946 C   0  0  0  0  0  0  0  0  0  0  0  0
    2.1523   -0.0354   -4.0914 H   0  0  0  0  0  0  0  0  0  0  0  0
    1.7680    2.6826   -5.0966 H   0  0  0  0  0  0  0  0  0  0  0  0
    4.5883    1.5721   -4.6172 H   0  0  0  0  0  0  0  0  0  0  0  0
    4.1959    3.0758   -5.4806 H   0  0  0  0  0  0  0  0  0  0  0  0
    3.8540    2.9364   -3.7455 H   0  0  0  0  0  0  0  0  0  0  0  0
    2.6324    1.7543   -7.5427 N   0  0  0  0  0  0  0  0  0  0  0  0
    2.6330    1.0932   -8.8423 C   0  0  0  0  0  0  0  0  0  0  0  0
    2.7820    2.7589   -7.5025 H   0  0  0  0  0  0  0  0  0  0  0  0
    3.4544    0.3716   -8.9046 H   0  0  0  0  0  0  0  0  0  0  0  0
    1.6869    0.5664   -9.0057 H   0  0  0  0  0  0  0  0  0  0  0  0
    2.7594    1.8299   -9.6418 H   0  0  0  0  0  0  0  0  0  0  0  0
  1  2  2  0  0  0  0
  1  3  1  0  0  0  0
  1  7  1  0  0  0  0
  3  4  1  0  0  0  0
  3  5  1  0  0  0  0
  3  6  1  0  0  0  0
  7  8  1  0  0  0  0
  7 13  1  0  0  0  0
  8  9  1  0  0  0  0
  8 11  1  0  0  0  0
  8 14  1  0  0  0  0
  9 10  2  0  0  0  0
  9 17  1  0  0  0  0
 11 12  1  0  0  0  0
 11 15  1  0  0  0  0
 11 16  1  0  0  0  0
 12 44  1  0  0  0  0
 17 18  1  0  0  0  0
 17 19  1  0  0  0  0
 18 20  1  0  0  0  0
 18 21  1  0  0  0  0
 18 22  1  0  0  0  0
 23 24  2  0  0  0  0
 23 25  1  0  0  0  0
 23 29  1  0  0  0  0
 25 26  1  0  0  0  0
 25 27  1  0  0  0  0
 25 28  1  0  0  0  0
 29 30  1  0  0  0  0
 29 34  1  0  0  0  0
 30 31  1  0  0  0  0
 30 33  1  0  0  0  0
 30 35  1  0  0  0  0
 31 32  2  0  0  0  0
 31 39  1  0  0  0  0
 33 36  1  0  0  0  0
 33 37  1  0  0  0  0
 33 38  1  0  0  0  0
 39 40  1  0  0  0  0
 39 45  1  0  0  0  0
 40 41  1  0  0  0  0
 40 43  1  0  0  0  0
 40 46  1  0  0  0  0
 41 42  2  0  0  0  0
 41 49  1  0  0  0  0
 43 44  1  0  0  0  0
 43 47  1  0  0  0  0
 43 48  1  0  0  0  0
 49 50  1  0  0  0  0
 49 54  1  0  0  0  0
 50 51  1  0  0  0  0
 50 53  1  0  0  0  0
 50 55  1  0  0  0  0
 51 52  2  0  0  0  0
 51 59  1  0  0  0  0
 53 56  1  0  0  0  0
 53 57  1  0  0  0  0
 53 58  1  0  0  0  0
 59 60  1  0  0  0  0
 59 61  1  0  0  0  0
 60 62  1  0  0  0  0
 60 63  1  0  0  0  0
 60 64  1  0  0  0  0
M  END
$$$$

  -OEChem-05262216053D

 64 63  0     1  0  0  0  0  0999 V2000
    0.4709   -7.7635   -2.6361 C   0  0  0  0  0  0  0  0  0  0  0  0
   -0.6596   -7.6763   -3.0896 O   0  0  0  0  0  0  0  0  0  0  0  0
    0.8252   -8.8784   -1.6708 C   0  0  0  0  0  0  0  0  0  0  0  0
    1.0992   -8.4576   -0.7004 H   0  0  0  0  0  0  0  0  0  0  0  0
   -0.0295   -9.5470   -1.5366 H   0  0  0  0  0  0  0  0  0  0  0  0
    1.6662   -9.4561   -2.0610 H   0  0  0  0  0  0  0  0  0  0  0  0
    1.4262   -6.8437   -3.0091 N   0  0  0  0  0  0  0  0  0  0  0  0
    1.1995   -5.7432   -3.9563 C   0  0  2  0  0  0  0  0  0  0  0  0
    2.5061   -5.2822   -4.6378 C   0  0  0  0  0  0  0  0  0  0  0  0
    3.5879   -5.7299   -4.2728 O   0  0  0  0  0  0  0  0  0  0  0  0
    0.5266   -4.5741   -3.2209 C   0  0  0  0  0  0  0  0  0  0  0  0
    1.5941   -3.9290   -1.8683 S   0  0  0  0  0  0  0  0  0  0  0  0
    2.3752   -6.9684   -2.6587 H   0  0  0  0  0  0  0  0  0  0  0  0
    0.5332   -6.0909   -4.7526 H   0  0  0  0  0  0  0  0  0  0  0  0
    0.3088   -3.7691   -3.9279 H   0  0  0  0  0  0  0  0  0  0  0  0
   -0.4262   -4.9080   -2.7968 H   0  0  0  0  0  0  0  0  0  0  0  0
    2.4703   -4.3833   -5.6899 N   0  0  0  0  0  0  0  0  0  0  0  0
    3.6630   -3.9349   -6.3990 C   0  0  0  0  0  0  0  0  0  0  0  0
    1.5608   -4.0752   -6.0208 H   0  0  0  0  0  0  0  0  0  0  0  0
    4.3741   -3.4773   -5.7029 H   0  0  0  0  0  0  0  0  0  0  0  0
    4.1519   -4.7781   -6.8988 H   0  0  0  0  0  0  0  0  0  0  0  0
    3.3957   -3.1908   -7.1559 H   0  0  0  0  0  0  0  0  0  0  0  0
   -5.4708    1.0893   -1.3510 C   0  0  0  0  0  0  0  0  0  0  0  0
   -5.8881    0.1051   -1.9408 O   0  0  0  0  0  0  0  0  0  0  0  0
   -6.2680    1.6815   -0.2039 C   0  0  0  0  0  0  0  0  0  0  0  0
   -6.5371    2.7158   -0.4310 H   0  0  0  0  0  0  0  0  0  0  0  0
   -7.1840    1.1054   -0.0449 H   0  0  0  0  0  0  0  0  0  0  0  0
   -5.6747    1.6588    0.7136 H   0  0  0  0  0  0  0  0  0  0  0  0
   -4.2675    1.6543   -1.7177 N   0  0  0  0  0  0  0  0  0  0  0  0
   -3.3157    1.0309   -2.6471 C   0  0  2  0  0  0  0  0  0  0  0  0
   -1.8664    1.1519   -2.1342 C   0  0  0  0  0  0  0  0  0  0  0  0
   -1.5744    2.0305   -1.3343 O   0  0  0  0  0  0  0  0  0  0  0  0
   -3.4592    1.7127   -4.0102 C   0  0  0  0  0  0  0  0  0  0  0  0
   -3.8949    2.3837   -1.1098 H   0  0  0  0  0  0  0  0  0  0  0  0
   -3.5374   -0.0363   -2.7542 H   0  0  0  0  0  0  0  0  0  0  0  0
   -3.2288    2.7802   -3.9311 H   0  0  0  0  0  0  0  0  0  0  0  0
   -2.7786    1.2630   -4.7392 H   0  0  0  0  0  0  0  0  0  0  0  0
   -4.4832    1.6032   -4.3808 H   0  0  0  0  0  0  0  0  0  0  0  0
   -0.9018    0.2515   -2.5484 N   0  0  0  0  0  0  0  0  0  0  0  0
    0.5276    0.3504   -2.2056 C   0  0  2  0  0  0  0  0  0  0  0  0
    1.2548    1.4532   -3.0105 C   0  0  0  0  0  0  0  0  0  0  0  0
    1.3582    2.5936   -2.5841 O   0  0  0  0  0  0  0  0  0  0  0  0
    1.1789   -1.0219   -2.4284 C   0  0  0  0  0  0  0  0  0  0  0  0
    0.4898   -2.2659   -1.2683 S   0  0  0  0  0  0  0  0  0  0  0  0
   -1.2117   -0.5159   -3.1363 H   0  0  0  0  0  0  0  0  0  0  0  0
    0.6314    0.6095   -1.1452 H   0  0  0  0  0  0  0  0  0  0  0  0
    1.0218   -1.3579   -3.4574 H   0  0  0  0  0  0  0  0  0  0  0  0
    2.2585   -0.9467   -2.2589 H   0  0  0  0  0  0  0  0  0  0  0  0
    1.8398    1.1530   -4.2281 N   0  0  0  0  0  0  0  0  0  0  0  0
    2.3135    2.1579   -5.1865 C   0  0  2  0  0  0  0  0  0  0  0  0
    1.9392    1.7505   -6.6268 C   0  0  0  0  0  0  0  0  0  0  0  0
    1.5343    0.6133   -6.8555 O   0  0  0  0  0  0  0  0  0  0  0  0
    3.8296    2.2985   -5.0296 C   0  0  0  0  0  0  0  0  0  0  0  0
    1.6173    0.2422   -4.6252 H   0  0  0  0  0  0  0  0  0  0  0  0
    1.8397    3.1252   -4.9869 H   0  0  0  0  0  0  0  0  0  0  0  0
    4.3273    1.3455   -5.2352 H   0  0  0  0  0  0  0  0  0  0  0  0
    4.2200    3.0522   -5.7201 H   0  0  0  0  0  0  0  0  0  0  0  0
    4.0753    2.6069   -4.0081 H   0  0  0  0  0  0  0  0  0  0  0  0
    2.0226    2.6657   -7.6592 N   0  0  0  0  0  0  0  0  0  0  0  0
    1.6193    2.3688   -9.0286 C   0  0  0  0  0  0  0  0  0  0  0  0
    2.3201    3.6098   -7.4283 H   0  0  0  0  0  0  0  0  0  0  0  0
    2.1876    1.5189   -9.4208 H   0  0  0  0  0  0  0  0  0  0  0  0
    0.5517    2.1283   -9.0704 H   0  0  0  0  0  0  0  0  0  0  0  0
    1.8042    3.2337   -9.6732 H   0  0  0  0  0  0  0  0  0  0  0  0
  1  2  2  0  0  0  0
  1  3  1  0  0  0  0
  1  7  1  0  0  0  0
  3  4  1  0  0  0  0
  3  5  1  0  0  0  0
  3  6  1  0  0  0  0
  7  8  1  0  0  0  0
  7 13  1  0  0  0  0
  8  9  1  0  0  0  0
  8 11  1  0  0  0  0
  8 14  1  0  0  0  0
  9 10  2  0  0  0  0
  9 17  1  0  0  0  0
 11 12  1  0  0  0  0
 11 15  1  0  0  0  0
 11 16  1  0  0  0  0
 12 44  1  0  0  0  0
 17 18  1  0  0  0  0
 17 19  1  0  0  0  0
 18 20  1  0  0  0  0
 18 21  1  0  0  0  0
 18 22  1  0  0  0  0
 23 24  2  0  0  0  0
 23 25  1  0  0  0  0
 23 29  1  0  0  0  0
 25 26  1  0  0  0  0
 25 27  1  0  0  0  0
 25 28  1  0  0  0  0
 29 30  1  0  0  0  0
 29 34  1  0  0  0  0
 30 31  1  0  0  0  0
 30 33  1  0  0  0  0
 30 35  1  0  0  0  0
 31 32  2  0  0  0  0
 31 39  1  0  0  0  0
 33 36  1  0  0  0  0
 33 37  1  0  0  0  0
 33 38  1  0  0  0  0
 39 40  1  0  0  0  0
 39 45  1  0  0  0  0
 40 41  1  0  0  0  0
 40 43  1  0  0  0  0
 40 46  1  0  0  0  0
 41 42  2  0  0  0  0
 41 49  1  0  0  0  0
 43 44  1  0  0  0  0
 43 47  1  0  0  0  0
 43 48  1  0  0  0  0
 49 50  1  0  0  0  0
 49 54  1  0  0  0  0
 50 51  1  0  0  0  0
 50 53  1  0  0  0  0
 50 55  1  0  0  0  0
 51 52  2  0  0  0  0
 51 59  1  0  0  0  0
 53 56  1  0  0  0  0
 53 57  1  0  0  0  0
 53 58  1  0  0  0  0
 59 60  1  0  0  0  0
 59 61  1  0  0  0  0
 60 62  1  0  0  0  0
 60 63  1  0  0  0  0
 60 64  1  0  0  0  0
M  END
$$$$

  -OEChem-05262216053D

 64 63  0     1  0  0  0  0  0999 V2000
    0.5201   -7.7088   -2.7006 C   0  0  0  0  0  0  0  0  0  0  0  0
   -0.6251   -7.6130   -3.1136 O   0  0  0  0  0  0  0  0  0  0  0  0
    0.9034   -8.8322   -1.7568 C   0  0  0  0  0  0  0  0  0  0  0  0
    1.2706   -8.4175   -0.8147 H   0  0  0  0  0  0  0  0  0  0  0  0
    0.0346   -9.4636   -1.5503 H   0  0  0  0  0  0  0  0  0  0  0  0
    1.6863   -9.4473   -2.2070 H   0  0  0  0  0  0  0  0  0  0  0  0
    1.4678   -6.7952   -3.1055 N   0  0  0  0  0  0  0  0  0  0  0  0
    1.2131   -5.6844   -4.0328 C   0  0  2  0  0  0  0  0  0  0  0  0
    2.5049   -5.2040   -4.7295 C   0  0  0  0  0  0  0  0  0  0  0  0
    3.5934   -5.6623   -4.3991 O   0  0  0  0  0  0  0  0  0  0  0  0
    0.5417   -4.5311   -3.2706 C   0  0  0  0  0  0  0  0  0  0  0  0
    1.6198   -3.9019   -1.9180 S   0  0  0  0  0  0  0  0  0  0  0  0
    2.4292   -6.9303   -2.7943 H   0  0  0  0  0  0  0  0  0  0  0  0
    0.5357   -6.0285   -4.8215 H   0  0  0  0  0  0  0  0  0  0  0  0
    0.3123   -3.7166   -3.9626 H   0  0  0  0  0  0  0  0  0  0  0  0
   -0.4053   -4.8773   -2.8433 H   0  0  0  0  0  0  0  0  0  0  0  0
    2.4492   -4.2810   -5.7600 N   0  0  0  0  0  0  0  0  0  0  0  0
    3.6295   -3.8216   -6.4834 C   0  0  0  0  0  0  0  0  0  0  0  0
    1.5336   -3.9667   -6.0676 H   0  0  0  0  0  0  0  0  0  0  0  0
    4.3466   -3.3623   -5.7947 H   0  0  0  0  0  0  0  0  0  0  0  0
    4.1174   -4.6592   -6.9931 H   0  0  0  0  0  0  0  0  0  0  0  0
    3.3479   -3.0765   -7.2338 H   0  0  0  0  0  0  0  0  0  0  0  0
   -5.5429    1.2684   -1.1624 C   0  0  0  0  0  0  0  0  0  0  0  0
   -6.0171    0.1907   -1.4853 O   0  0  0  0  0  0  0  0  0  0  0  0
   -6.3083    2.1910   -0.2323 C   0  0  0  0  0  0  0  0  0  0  0  0
   -6.4697    3.1573   -0.7164 H   0  0  0  0  0  0  0  0  0  0  0  0
   -7.2797    1.7543    0.0156 H   0  0  0  0  0  0  0  0  0  0  0  0
   -5.7444    2.3431    0.6914 H   0  0  0  0  0  0  0  0  0  0  0  0
   -4.3067    1.6460   -1.6419 N   0  0  0  0  0  0  0  0  0  0  0  0
   -3.4224    0.7785   -2.4303 C   0  0  2  0  0  0  0  0  0  0  0  0
   -1.9358    1.0934   -2.1643 C   0  0  0  0  0  0  0  0  0  0  0  0
   -1.6196    2.1305   -1.5968 O   0  0  0  0  0  0  0  0  0  0  0  0
   -3.7515    0.9704   -3.9141 C   0  0  0  0  0  0  0  0  0  0  0  0
   -3.8915    2.4946   -1.2571 H   0  0  0  0  0  0  0  0  0  0  0  0
   -3.5904   -0.2683   -2.1542 H   0  0  0  0  0  0  0  0  0  0  0  0
   -3.5925    2.0127   -4.2088 H   0  0  0  0  0  0  0  0  0  0  0  0
   -3.1171    0.3319   -4.5360 H   0  0  0  0  0  0  0  0  0  0  0  0
   -4.7971    0.7099   -4.1069 H   0  0  0  0  0  0  0  0  0  0  0  0
   -0.9533    0.2050   -2.5604 N   0  0  0  0  0  0  0  0  0  0  0  0
    0.4706    0.3585   -2.2171 C   0  0  2  0  0  0  0  0  0  0  0  0
    1.1668    1.4621   -3.0437 C   0  0  0  0  0  0  0  0  0  0  0  0
    1.6065    2.4686   -2.5063 O   0  0  0  0  0  0  0  0  0  0  0  0
    1.1690   -0.9891   -2.4378 C   0  0  0  0  0  0  0  0  0  0  0  0
    0.5200   -2.2518   -1.2739 S   0  0  0  0  0  0  0  0  0  0  0  0
   -1.2753   -0.7129   -2.8539 H   0  0  0  0  0  0  0  0  0  0  0  0
    0.5656    0.6345   -1.1602 H   0  0  0  0  0  0  0  0  0  0  0  0
    1.0254   -1.3302   -3.4673 H   0  0  0  0  0  0  0  0  0  0  0  0
    2.2455   -0.8747   -2.2696 H   0  0  0  0  0  0  0  0  0  0  0  0
    1.4849    1.2291   -4.3697 N   0  0  0  0  0  0  0  0  0  0  0  0
    2.0328    2.2438   -5.2772 C   0  0  2  0  0  0  0  0  0  0  0  0
    1.4069    2.1133   -6.6811 C   0  0  0  0  0  0  0  0  0  0  0  0
    0.8171    1.0826   -6.9944 O   0  0  0  0  0  0  0  0  0  0  0  0
    3.5518    2.0661   -5.3402 C   0  0  0  0  0  0  0  0  0  0  0  0
    1.0006    0.4534   -4.8183 H   0  0  0  0  0  0  0  0  0  0  0  0
    1.8002    3.2476   -4.9047 H   0  0  0  0  0  0  0  0  0  0  0  0
    3.8060    1.0693   -5.7140 H   0  0  0  0  0  0  0  0  0  0  0  0
    3.9986    2.8121   -6.0039 H   0  0  0  0  0  0  0  0  0  0  0  0
    3.9877    2.1863   -4.3433 H   0  0  0  0  0  0  0  0  0  0  0  0
    1.4851    3.1560   -7.5853 N   0  0  0  0  0  0  0  0  0  0  0  0
    0.8597    3.1237   -8.9020 C   0  0  0  0  0  0  0  0  0  0  0  0
    1.9424    4.0106   -7.2798 H   0  0  0  0  0  0  0  0  0  0  0  0
    1.2784    2.3120   -9.5061 H   0  0  0  0  0  0  0  0  0  0  0  0
   -0.2212    2.9737   -8.8097 H   0  0  0  0  0  0  0  0  0  0  0  0
    1.0329    4.0685   -9.4261 H   0  0  0  0  0  0  0  0  0  0  0  0
  1  2  2  0  0  0  0
  1  3  1  0  0  0  0
  1  7  1  0  0  0  0
  3  4  1  0  0  0  0
  3  5  1  0  0  0  0
  3  6  1  0  0  0  0
  7  8  1  0  0  0  0
  7 13  1  0  0  0  0
  8  9  1  0  0  0  0
  8 11  1  0  0  0  0
  8 14  1  0  0  0  0
  9 10  2  0  0  0  0
  9 17  1  0  0  0  0
 11 12  1  0  0  0  0
 11 15  1  0  0  0  0
 11 16  1  0  0  0  0
 12 44  1  0  0  0  0
 17 18  1  0  0  0  0
 17 19  1  0  0  0  0
 18 20  1  0  0  0  0
 18 21  1  0  0  0  0
 18 22  1  0  0  0  0
 23 24  2  0  0  0  0
 23 25  1  0  0  0  0
 23 29  1  0  0  0  0
 25 26  1  0  0  0  0
 25 27  1  0  0  0  0
 25 28  1  0  0  0  0
 29 30  1  0  0  0  0
 29 34  1  0  0  0  0
 30 31  1  0  0  0  0
 30 33  1  0  0  0  0
 30 35  1  0  0  0  0
 31 32  2  0  0  0  0
 31 39  1  0  0  0  0
 33 36  1  0  0  0  0
 33 37  1  0  0  0  0
 33 38  1  0  0  0  0
 39 40  1  0  0  0  0
 39 45  1  0  0  0  0
 40 41  1  0  0  0  0
 40 43  1  0  0  0  0
 40 46  1  0  0  0  0
 41 42  2  0  0  0  0
 41 49  1  0  0  0  0
 43 44  1  0  0  0  0
 43 47  1  0  0  0  0
 43 48  1  0  0  0  0
 49 50  1  0  0  0  0
 49 54  1  0  0  0  0
 50 51  1  0  0  0  0
 50 53  1  0  0  0  0
 50 55  1  0  0  0  0
 51 52  2  0  0  0  0
 51 59  1  0  0  0  0
 53 56  1  0  0  0  0
 53 57  1  0  0  0  0
 53 58  1  0  0  0  0
 59 60  1  0  0  0  0
 59 61  1  0  0  0  0
 60 62  1  0  0  0  0
 60 63  1  0  0  0  0
 60 64  1  0  0  0  0
M  END
$$$$

  -OEChem-05262216053D

 64 63  0     1  0  0  0  0  0999 V2000
    0.4567   -7.7390   -2.6182 C   0  0  0  0  0  0  0  0  0  0  0  0
   -0.6662   -7.6523   -3.0903 O   0  0  0  0  0  0  0  0  0  0  0  0
    0.7907   -8.8406   -1.6309 C   0  0  0  0  0  0  0  0  0  0  0  0
    1.0887   -8.4043   -0.6744 H   0  0  0  0  0  0  0  0  0  0  0  0
   -0.0813   -9.4808   -1.4707 H   0  0  0  0  0  0  0  0  0  0  0  0
    1.6105   -9.4519   -2.0160 H   0  0  0  0  0  0  0  0  0  0  0  0
    1.4251   -6.8343   -2.9936 N   0  0  0  0  0  0  0  0  0  0  0  0
    1.2215   -5.7515   -3.9660 C   0  0  2  0  0  0  0  0  0  0  0  0
    2.5416   -5.3198   -4.6396 C   0  0  0  0  0  0  0  0  0  0  0  0
    3.6138   -5.7686   -4.2484 O   0  0  0  0  0  0  0  0  0  0  0  0
    0.5444   -4.5604   -3.2690 C   0  0  0  0  0  0  0  0  0  0  0  0
    1.5759   -3.9053   -1.8942 S   0  0  0  0  0  0  0  0  0  0  0  0
    2.3697   -6.9658   -2.6336 H   0  0  0  0  0  0  0  0  0  0  0  0
    0.5649   -6.1113   -4.7649 H   0  0  0  0  0  0  0  0  0  0  0  0
    0.3584   -3.7632   -3.9935 H   0  0  0  0  0  0  0  0  0  0  0  0
   -0.4253   -4.8760   -2.8702 H   0  0  0  0  0  0  0  0  0  0  0  0
    2.5270   -4.4600   -5.7244 N   0  0  0  0  0  0  0  0  0  0  0  0
    3.7337   -4.0552   -6.4357 C   0  0  0  0  0  0  0  0  0  0  0  0
    1.6238   -4.1614   -6.0805 H   0  0  0  0  0  0  0  0  0  0  0  0
    4.4301   -3.5562   -5.7535 H   0  0  0  0  0  0  0  0  0  0  0  0
    4.2323   -4.9270   -6.8726 H   0  0  0  0  0  0  0  0  0  0  0  0
    3.4836   -3.3594   -7.2424 H   0  0  0  0  0  0  0  0  0  0  0  0
   -5.4281    1.0600   -1.2567 C   0  0  0  0  0  0  0  0  0  0  0  0
   -5.8045   -0.0329   -1.6494 O   0  0  0  0  0  0  0  0  0  0  0  0
   -6.1889    1.7760   -0.1571 C   0  0  0  0  0  0  0  0  0  0  0  0
   -6.5027    2.7639   -0.5023 H   0  0  0  0  0  0  0  0  0  0  0  0
   -7.0767    1.2016    0.1219 H   0  0  0  0  0  0  0  0  0  0  0  0
   -5.5515    1.8907    0.7231 H   0  0  0  0  0  0  0  0  0  0  0  0
   -4.3018    1.6414   -1.7998 N   0  0  0  0  0  0  0  0  0  0  0  0
   -3.3755    0.9562   -2.7108 C   0  0  2  0  0  0  0  0  0  0  0  0
   -1.9085    1.1711   -2.2891 C   0  0  0  0  0  0  0  0  0  0  0  0
   -1.5902    2.1752   -1.6657 O   0  0  0  0  0  0  0  0  0  0  0  0
   -3.6056    1.5017   -4.1227 C   0  0  0  0  0  0  0  0  0  0  0  0
   -3.9514    2.4827   -1.3431 H   0  0  0  0  0  0  0  0  0  0  0  0
   -3.5650   -0.1223   -2.7085 H   0  0  0  0  0  0  0  0  0  0  0  0
   -3.4219    2.5809   -4.1514 H   0  0  0  0  0  0  0  0  0  0  0  0
   -2.9334    1.0169   -4.8378 H   0  0  0  0  0  0  0  0  0  0  0  0
   -4.6377    1.3149   -4.4360 H   0  0  0  0  0  0  0  0  0  0  0  0
   -0.9350    0.2582   -2.6495 N   0  0  0  0  0  0  0  0  0  0  0  0
    0.4763    0.3701   -2.2426 C   0  0  2  0  0  0  0  0  0  0  0  0
    1.2112    1.4640   -3.0416 C   0  0  0  0  0  0  0  0  0  0  0  0
    1.8688    2.3263   -2.4761 O   0  0  0  0  0  0  0  0  0  0  0  0
    1.1661   -0.9834   -2.4465 C   0  0  0  0  0  0  0  0  0  0  0  0
    0.4442   -2.2478   -1.3274 S   0  0  0  0  0  0  0  0  0  0  0  0
   -1.2638   -0.6350   -3.0056 H   0  0  0  0  0  0  0  0  0  0  0  0
    0.5355    0.6399   -1.1816 H   0  0  0  0  0  0  0  0  0  0  0  0
    1.0698   -1.3093   -3.4863 H   0  0  0  0  0  0  0  0  0  0  0  0
    2.2344   -0.8859   -2.2241 H   0  0  0  0  0  0  0  0  0  0  0  0
    1.2836    1.3555   -4.4176 N   0  0  0  0  0  0  0  0  0  0  0  0
    1.6913    2.4622   -5.2897 C   0  0  2  0  0  0  0  0  0  0  0  0
    0.6929    2.6233   -6.4556 C   0  0  0  0  0  0  0  0  0  0  0  0
   -0.1391    1.7464   -6.6745 O   0  0  0  0  0  0  0  0  0  0  0  0
    3.1033    2.1723   -5.8044 C   0  0  0  0  0  0  0  0  0  0  0  0
    0.6075    0.7149   -4.8310 H   0  0  0  0  0  0  0  0  0  0  0  0
    1.6981    3.4055   -4.7325 H   0  0  0  0  0  0  0  0  0  0  0  0
    3.1204    1.2377   -6.3743 H   0  0  0  0  0  0  0  0  0  0  0  0
    3.4514    2.9829   -6.4518 H   0  0  0  0  0  0  0  0  0  0  0  0
    3.7981    2.0810   -4.9630 H   0  0  0  0  0  0  0  0  0  0  0  0
    0.7111    3.7571   -7.2460 N   0  0  0  0  0  0  0  0  0  0  0  0
   -0.2411    3.9979   -8.3234 C   0  0  0  0  0  0  0  0  0  0  0  0
    1.3745    4.4880   -7.0044 H   0  0  0  0  0  0  0  0  0  0  0  0
   -0.2152    3.1787   -9.0499 H   0  0  0  0  0  0  0  0  0  0  0  0
   -1.2571    4.0834   -7.9240 H   0  0  0  0  0  0  0  0  0  0  0  0
    0.0058    4.9276   -8.8451 H   0  0  0  0  0  0  0  0  0  0  0  0
  1  2  2  0  0  0  0
  1  3  1  0  0  0  0
  1  7  1  0  0  0  0
  3  4  1  0  0  0  0
  3  5  1  0  0  0  0
  3  6  1  0  0  0  0
  7  8  1  0  0  0  0
  7 13  1  0  0  0  0
  8  9  1  0  0  0  0
  8 11  1  0  0  0  0
  8 14  1  0  0  0  0
  9 10  2  0  0  0  0
  9 17  1  0  0  0  0
 11 12  1  0  0  0  0
 11 15  1  0  0  0  0
 11 16  1  0  0  0  0
 12 44  1  0  0  0  0
 17 18  1  0  0  0  0
 17 19  1  0  0  0  0
 18 20  1  0  0  0  0
 18 21  1  0  0  0  0
 18 22  1  0  0  0  0
 23 24  2  0  0  0  0
 23 25  1  0  0  0  0
 23 29  1  0  0  0  0
 25 26  1  0  0  0  0
 25 27  1  0  0  0  0
 25 28  1  0  0  0  0
 29 30  1  0  0  0  0
 29 34  1  0  0  0  0
 30 31  1  0  0  0  0
 30 33  1  0  0  0  0
 30 35  1  0  0  0  0
 31 32  2  0  0  0  0
 31 39  1  0  0  0  0
 33 36  1  0  0  0  0
 33 37  1  0  0  0  0
 33 38  1  0  0  0  0
 39 40  1  0  0  0  0
 39 45  1  0  0  0  0
 40 41  1  0  0  0  0
 40 43  1  0  0  0  0
 40 46  1  0  0  0  0
 41 42  2  0  0  0  0
 41 49  1  0  0  0  0
 43 44  1  0  0  0  0
 43 47  1  0  0  0  0
 43 48  1  0  0  0  0
 49 50  1  0  0  0  0
 49 54  1  0  0  0  0
 50 51  1  0  0  0  0
 50 53  1  0  0  0  0
 50 55  1  0  0  0  0
 51 52  2  0  0  0  0
 51 59  1  0  0  0  0
 53 56  1  0  0  0  0
 53 57  1  0  0  0  0
 53 58  1  0  0  0  0
 59 60  1  0  0  0  0
 59 61  1  0  0  0  0
 60 62  1  0  0  0  0
 60 63  1  0  0  0  0
 60 64  1  0  0  0  0
M  END
$$$$

  -OEChem-05262216053D

 64 63  0     1  0  0  0  0  0999 V2000
    0.4506   -7.7397   -2.6111 C   0  0  0  0  0  0  0  0  0  0  0  0
   -0.6657   -7.6610   -3.0998 O   0  0  0  0  0  0  0  0  0  0  0  0
    0.7754   -8.8412   -1.6201 C   0  0  0  0  0  0  0  0  0  0  0  0
    1.0496   -8.4072   -0.6556 H   0  0  0  0  0  0  0  0  0  0  0  0
   -0.0936   -9.4901   -1.4808 H   0  0  0  0  0  0  0  0  0  0  0  0
    1.6080   -9.4438   -1.9906 H   0  0  0  0  0  0  0  0  0  0  0  0
    1.4193   -6.8318   -2.9785 N   0  0  0  0  0  0  0  0  0  0  0  0
    1.2274   -5.7638   -3.9696 C   0  0  2  0  0  0  0  0  0  0  0  0
    2.5551   -5.3373   -4.6317 C   0  0  0  0  0  0  0  0  0  0  0  0
    3.6227   -5.7842   -4.2266 O   0  0  0  0  0  0  0  0  0  0  0  0
    0.5411   -4.5655   -3.2966 C   0  0  0  0  0  0  0  0  0  0  0  0
    1.5559   -3.8971   -1.9158 S   0  0  0  0  0  0  0  0  0  0  0  0
    2.3571   -6.9498   -2.5968 H   0  0  0  0  0  0  0  0  0  0  0  0
    0.5811   -6.1346   -4.7717 H   0  0  0  0  0  0  0  0  0  0  0  0
    0.3649   -3.7772   -4.0334 H   0  0  0  0  0  0  0  0  0  0  0  0
   -0.4335   -4.8757   -2.9054 H   0  0  0  0  0  0  0  0  0  0  0  0
    2.5521   -4.4802   -5.7188 N   0  0  0  0  0  0  0  0  0  0  0  0
    3.7642   -4.0765   -6.4217 C   0  0  0  0  0  0  0  0  0  0  0  0
    1.6529   -4.1755   -6.0788 H   0  0  0  0  0  0  0  0  0  0  0  0
    4.4561   -3.5750   -5.7370 H   0  0  0  0  0  0  0  0  0  0  0  0
    4.2655   -4.9491   -6.8534 H   0  0  0  0  0  0  0  0  0  0  0  0
    3.5193   -3.3830   -7.2320 H   0  0  0  0  0  0  0  0  0  0  0  0
   -5.3996    1.0485   -1.2187 C   0  0  0  0  0  0  0  0  0  0  0  0
   -5.7471   -0.0723   -1.5547 O   0  0  0  0  0  0  0  0  0  0  0  0
   -6.1380    1.7697   -0.1074 C   0  0  0  0  0  0  0  0  0  0  0  0
   -6.4782    2.7471   -0.4571 H   0  0  0  0  0  0  0  0  0  0  0  0
   -7.0076    1.1863    0.2071 H   0  0  0  0  0  0  0  0  0  0  0  0
   -5.4759    1.9071    0.7508 H   0  0  0  0  0  0  0  0  0  0  0  0
   -4.3245    1.6550   -1.8340 N   0  0  0  0  0  0  0  0  0  0  0  0
   -3.4055    0.9699   -2.7533 C   0  0  2  0  0  0  0  0  0  0  0  0
   -1.9359    1.1775   -2.3378 C   0  0  0  0  0  0  0  0  0  0  0  0
   -1.6038    2.1961   -1.7447 O   0  0  0  0  0  0  0  0  0  0  0  0
   -3.6381    1.5245   -4.1609 C   0  0  0  0  0  0  0  0  0  0  0  0
   -3.9860    2.5204   -1.4156 H   0  0  0  0  0  0  0  0  0  0  0  0
   -3.5993   -0.1076   -2.7583 H   0  0  0  0  0  0  0  0  0  0  0  0
   -3.4406    2.6009   -4.1868 H   0  0  0  0  0  0  0  0  0  0  0  0
   -2.9759    1.0354   -4.8818 H   0  0  0  0  0  0  0  0  0  0  0  0
   -4.6735    1.3519   -4.4698 H   0  0  0  0  0  0  0  0  0  0  0  0
   -0.9668    0.2554   -2.6874 N   0  0  0  0  0  0  0  0  0  0  0  0
    0.4407    0.3704   -2.2644 C   0  0  2  0  0  0  0  0  0  0  0  0
    1.1859    1.4584   -3.0597 C   0  0  0  0  0  0  0  0  0  0  0  0
    2.0363    2.1578   -2.5266 O   0  0  0  0  0  0  0  0  0  0  0  0
    1.1361   -0.9775   -2.4710 C   0  0  0  0  0  0  0  0  0  0  0  0
    0.4044   -2.2488   -1.3670 S   0  0  0  0  0  0  0  0  0  0  0  0
   -1.3013   -0.6519   -3.0009 H   0  0  0  0  0  0  0  0  0  0  0  0
    0.4918    0.6383   -1.2024 H   0  0  0  0  0  0  0  0  0  0  0  0
    1.0496   -1.2933   -3.5148 H   0  0  0  0  0  0  0  0  0  0  0  0
    2.2023   -0.8784   -2.2394 H   0  0  0  0  0  0  0  0  0  0  0  0
    1.0155    1.5190   -4.4295 N   0  0  0  0  0  0  0  0  0  0  0  0
    1.3931    2.6861   -5.2331 C   0  0  2  0  0  0  0  0  0  0  0  0
    0.2269    3.0933   -6.1591 C   0  0  0  0  0  0  0  0  0  0  0  0
   -0.7216    2.3294   -6.3206 O   0  0  0  0  0  0  0  0  0  0  0  0
    2.6442    2.3330   -6.0407 C   0  0  0  0  0  0  0  0  0  0  0  0
    0.1983    1.0151   -4.7726 H   0  0  0  0  0  0  0  0  0  0  0  0
    1.6119    3.5418   -4.5853 H   0  0  0  0  0  0  0  0  0  0  0  0
    2.4476    1.4825   -6.7009 H   0  0  0  0  0  0  0  0  0  0  0  0
    2.9598    3.1837   -6.6519 H   0  0  0  0  0  0  0  0  0  0  0  0
    3.4655    2.0690   -5.3667 H   0  0  0  0  0  0  0  0  0  0  0  0
    0.2295    4.3170   -6.8019 N   0  0  0  0  0  0  0  0  0  0  0  0
   -0.8680    4.7803   -7.6423 C   0  0  0  0  0  0  0  0  0  0  0  0
    0.9951    4.9534   -6.5987 H   0  0  0  0  0  0  0  0  0  0  0  0
   -1.0580    4.0689   -8.4530 H   0  0  0  0  0  0  0  0  0  0  0  0
   -1.7823    4.8925   -7.0502 H   0  0  0  0  0  0  0  0  0  0  0  0
   -0.6213    5.7493   -8.0867 H   0  0  0  0  0  0  0  0  0  0  0  0
  1  2  2  0  0  0  0
  1  3  1  0  0  0  0
  1  7  1  0  0  0  0
  3  4  1  0  0  0  0
  3  5  1  0  0  0  0
  3  6  1  0  0  0  0
  7  8  1  0  0  0  0
  7 13  1  0  0  0  0
  8  9  1  0  0  0  0
  8 11  1  0  0  0  0
  8 14  1  0  0  0  0
  9 10  2  0  0  0  0
  9 17  1  0  0  0  0
 11 12  1  0  0  0  0
 11 15  1  0  0  0  0
 11 16  1  0  0  0  0
 12 44  1  0  0  0  0
 17 18  1  0  0  0  0
 17 19  1  0  0  0  0
 18 20  1  0  0  0  0
 18 21  1  0  0  0  0
 18 22  1  0  0  0  0
 23 24  2  0  0  0  0
 23 25  1  0  0  0  0
 23 29  1  0  0  0  0
 25 26  1  0  0  0  0
 25 27  1  0  0  0  0
 25 28  1  0  0  0  0
 29 30  1  0  0  0  0
 29 34  1  0  0  0  0
 30 31  1  0  0  0  0
 30 33  1  0  0  0  0
 30 35  1  0  0  0  0
 31 32  2  0  0  0  0
 31 39  1  0  0  0  0
 33 36  1  0  0  0  0
 33 37  1  0  0  0  0
 33 38  1  0  0  0  0
 39 40  1  0  0  0  0
 39 45  1  0  0  0  0
 40 41  1  0  0  0  0
 40 43  1  0  0  0  0
 40 46  1  0  0  0  0
 41 42  2  0  0  0  0
 41 49  1  0  0  0  0
 43 44  1  0  0  0  0
 43 47  1  0  0  0  0
 43 48  1  0  0  0  0
 49 50  1  0  0  0  0
 49 54  1  0  0  0  0
 50 51  1  0  0  0  0
 50 53  1  0  0  0  0
 50 55  1  0  0  0  0
 51 52  2  0  0  0  0
 51 59  1  0  0  0  0
 53 56  1  0  0  0  0
 53 57  1  0  0  0  0
 53 58  1  0  0  0  0
 59 60  1  0  0  0  0
 59 61  1  0  0  0  0
 60 62  1  0  0  0  0
 60 63  1  0  0  0  0
 60 64  1  0  0  0  0
M  END
$$$$

  -OEChem-05262216053D

 64 63  0     1  0  0  0  0  0999 V2000
    0.4498   -7.7392   -2.6138 C   0  0  0  0  0  0  0  0  0  0  0  0
   -0.6657   -7.6632   -3.1054 O   0  0  0  0  0  0  0  0  0  0  0  0
    0.7718   -8.8320   -1.6122 C   0  0  0  0  0  0  0  0  0  0  0  0
    1.0425   -8.3896   -0.6503 H   0  0  0  0  0  0  0  0  0  0  0  0
   -0.0976   -9.4798   -1.4697 H   0  0  0  0  0  0  0  0  0  0  0  0
    1.6059   -9.4375   -1.9752 H   0  0  0  0  0  0  0  0  0  0  0  0
    1.4205   -6.8356   -2.9865 N   0  0  0  0  0  0  0  0  0  0  0  0
    1.2327   -5.7758   -3.9870 C   0  0  2  0  0  0  0  0  0  0  0  0
    2.5647   -5.3562   -4.6459 C   0  0  0  0  0  0  0  0  0  0  0  0
    3.6286   -5.8083   -4.2368 O   0  0  0  0  0  0  0  0  0  0  0  0
    0.5430   -4.5720   -3.3261 C   0  0  0  0  0  0  0  0  0  0  0  0
    1.5624   -3.8816   -1.9595 S   0  0  0  0  0  0  0  0  0  0  0  0
    2.3586   -6.9547   -2.6056 H   0  0  0  0  0  0  0  0  0  0  0  0
    0.5900   -6.1545   -4.7885 H   0  0  0  0  0  0  0  0  0  0  0  0
    0.3594   -3.7928   -4.0709 H   0  0  0  0  0  0  0  0  0  0  0  0
   -0.4282   -4.8832   -2.9270 H   0  0  0  0  0  0  0  0  0  0  0  0
    2.5709   -4.5011   -5.7345 N   0  0  0  0  0  0  0  0  0  0  0  0
    3.7903   -4.0925   -6.4220 C   0  0  0  0  0  0  0  0  0  0  0  0
    1.6754   -4.1841   -6.0933 H   0  0  0  0  0  0  0  0  0  0  0  0
    4.4782   -3.6027   -5.7245 H   0  0  0  0  0  0  0  0  0  0  0  0
    4.2930   -4.9606   -6.8613 H   0  0  0  0  0  0  0  0  0  0  0  0
    3.5544   -3.3871   -7.2246 H   0  0  0  0  0  0  0  0  0  0  0  0
   -5.4321    1.0594   -1.1538 C   0  0  0  0  0  0  0  0  0  0  0  0
   -5.8013   -0.0563   -1.4841 O   0  0  0  0  0  0  0  0  0  0  0  0
   -6.1491    1.7973   -0.0396 C   0  0  0  0  0  0  0  0  0  0  0  0
   -6.4619    2.7850   -0.3862 H   0  0  0  0  0  0  0  0  0  0  0  0
   -7.0343    1.2370    0.2735 H   0  0  0  0  0  0  0  0  0  0  0  0
   -5.4830    1.9134    0.8187 H   0  0  0  0  0  0  0  0  0  0  0  0
   -4.3479    1.6432   -1.7748 N   0  0  0  0  0  0  0  0  0  0  0  0
   -3.4488    0.9402   -2.6997 C   0  0  2  0  0  0  0  0  0  0  0  0
   -1.9709    1.1663   -2.3267 C   0  0  0  0  0  0  0  0  0  0  0  0
   -1.6306    2.1892   -1.7447 O   0  0  0  0  0  0  0  0  0  0  0  0
   -3.7207    1.4551   -4.1154 C   0  0  0  0  0  0  0  0  0  0  0  0
   -3.9949    2.5083   -1.3677 H   0  0  0  0  0  0  0  0  0  0  0  0
   -3.6363   -0.1384   -2.6697 H   0  0  0  0  0  0  0  0  0  0  0  0
   -3.5178    2.5293   -4.1799 H   0  0  0  0  0  0  0  0  0  0  0  0
   -3.0839    0.9403   -4.8411 H   0  0  0  0  0  0  0  0  0  0  0  0
   -4.7660    1.2799   -4.3875 H   0  0  0  0  0  0  0  0  0  0  0  0
   -1.0021    0.2518   -2.6973 N   0  0  0  0  0  0  0  0  0  0  0  0
    0.4097    0.3803   -2.2912 C   0  0  2  0  0  0  0  0  0  0  0  0
    1.1436    1.4783   -3.0849 C   0  0  0  0  0  0  0  0  0  0  0  0
    2.1556    2.0029   -2.6398 O   0  0  0  0  0  0  0  0  0  0  0  0
    1.1111   -0.9615   -2.5157 C   0  0  0  0  0  0  0  0  0  0  0  0
    0.3998   -2.2416   -1.4075 S   0  0  0  0  0  0  0  0  0  0  0  0
   -1.3339   -0.6626   -2.9936 H   0  0  0  0  0  0  0  0  0  0  0  0
    0.4705    0.6418   -1.2286 H   0  0  0  0  0  0  0  0  0  0  0  0
    1.0140   -1.2713   -3.5605 H   0  0  0  0  0  0  0  0  0  0  0  0
    2.1797   -0.8573   -2.2962 H   0  0  0  0  0  0  0  0  0  0  0  0
    0.7427    1.7574   -4.3770 N   0  0  0  0  0  0  0  0  0  0  0  0
    1.1386    2.9668   -5.1040 C   0  0  2  0  0  0  0  0  0  0  0  0
   -0.0828    3.5875   -5.8150 C   0  0  0  0  0  0  0  0  0  0  0  0
   -1.1088    2.9279   -5.9606 O   0  0  0  0  0  0  0  0  0  0  0  0
    2.2273    2.5898   -6.1111 C   0  0  0  0  0  0  0  0  0  0  0  0
   -0.1769    1.3909   -4.6215 H   0  0  0  0  0  0  0  0  0  0  0  0
    1.5318    3.7160   -4.4080 H   0  0  0  0  0  0  0  0  0  0  0  0
    1.8502    1.8487   -6.8230 H   0  0  0  0  0  0  0  0  0  0  0  0
    2.5584    3.4718   -6.6673 H   0  0  0  0  0  0  0  0  0  0  0  0
    3.0914    2.1652   -5.5900 H   0  0  0  0  0  0  0  0  0  0  0  0
   -0.0385    4.8875   -6.2826 N   0  0  0  0  0  0  0  0  0  0  0  0
   -1.1812    5.5538   -6.8953 C   0  0  0  0  0  0  0  0  0  0  0  0
    0.8014    5.4271   -6.0931 H   0  0  0  0  0  0  0  0  0  0  0  0
   -1.5430    4.9817   -7.7561 H   0  0  0  0  0  0  0  0  0  0  0  0
   -1.9970    5.6563   -6.1722 H   0  0  0  0  0  0  0  0  0  0  0  0
   -0.8967    6.5522   -7.2408 H   0  0  0  0  0  0  0  0  0  0  0  0
  1  2  2  0  0  0  0
  1  3  1  0  0  0  0
  1  7  1  0  0  0  0
  3  4  1  0  0  0  0
  3  5  1  0  0  0  0
  3  6  1  0  0  0  0
  7  8  1  0  0  0  0
  7 13  1  0  0  0  0
  8  9  1  0  0  0  0
  8 11  1  0  0  0  0
  8 14  1  0  0  0  0
  9 10  2  0  0  0  0
  9 17  1  0  0  0  0
 11 12  1  0  0  0  0
 11 15  1  0  0  0  0
 11 16  1  0  0  0  0
 12 44  1  0  0  0  0
 17 18  1  0  0  0  0
 17 19  1  0  0  0  0
 18 20  1  0  0  0  0
 18 21  1  0  0  0  0
 18 22  1  0  0  0  0
 23 24  2  0  0  0  0
 23 25  1  0  0  0  0
 23 29  1  0  0  0  0
 25 26  1  0  0  0  0
 25 27  1  0  0  0  0
 25 28  1  0  0  0  0
 29 30  1  0  0  0  0
 29 34  1  0  0  0  0
 30 31  1  0  0  0  0
 30 33  1  0  0  0  0
 30 35  1  0  0  0  0
 31 32  2  0  0  0  0
 31 39  1  0  0  0  0
 33 36  1  0  0  0  0
 33 37  1  0  0  0  0
 33 38  1  0  0  0  0
 39 40  1  0  0  0  0
 39 45  1  0  0  0  0
 40 41  1  0  0  0  0
 40 43  1  0  0  0  0
 40 46  1  0  0  0  0
 41 42  2  0  0  0  0
 41 49  1  0  0  0  0
 43 44  1  0  0  0  0
 43 47  1  0  0  0  0
 43 48  1  0  0  0  0
 49 50  1  0  0  0  0
 49 54  1  0  0  0  0
 50 51  1  0  0  0  0
 50 53  1  0  0  0  0
 50 55  1  0  0  0  0
 51 52  2  0  0  0  0
 51 59  1  0  0  0  0
 53 56  1  0  0  0  0
 53 57  1  0  0  0  0
 53 58  1  0  0  0  0
 59 60  1  0  0  0  0
 59 61  1  0  0  0  0
 60 62  1  0  0  0  0
 60 63  1  0  0  0  0
 60 64  1  0  0  0  0
M  END
$$$$

  -OEChem-05262216053D

 64 63  0     1  0  0  0  0  0999 V2000
    0.4503   -7.7323   -2.6234 C   0  0  0  0  0  0  0  0  0  0  0  0
   -0.6678   -7.6469   -3.1075 O   0  0  0  0  0  0  0  0  0  0  0  0
    0.7649   -8.8138   -1.6075 C   0  0  0  0  0  0  0  0  0  0  0  0
    1.0367   -8.3584   -0.6519 H   0  0  0  0  0  0  0  0  0  0  0  0
   -0.1079   -9.4556   -1.4572 H   0  0  0  0  0  0  0  0  0  0  0  0
    1.5973   -9.4274   -1.9608 H   0  0  0  0  0  0  0  0  0  0  0  0
    1.4298   -6.8443   -3.0102 N   0  0  0  0  0  0  0  0  0  0  0  0
    1.2481   -5.7873   -4.0148 C   0  0  2  0  0  0  0  0  0  0  0  0
    2.5834   -5.3763   -4.6722 C   0  0  0  0  0  0  0  0  0  0  0  0
    3.6427   -5.8447   -4.2696 O   0  0  0  0  0  0  0  0  0  0  0  0
    0.5611   -4.5774   -3.3617 C   0  0  0  0  0  0  0  0  0  0  0  0
    1.5780   -3.8749   -1.9996 S   0  0  0  0  0  0  0  0  0  0  0  0
    2.3700   -6.9763   -2.6388 H   0  0  0  0  0  0  0  0  0  0  0  0
    0.6055   -6.1668   -4.8160 H   0  0  0  0  0  0  0  0  0  0  0  0
    0.3786   -3.8042   -4.1126 H   0  0  0  0  0  0  0  0  0  0  0  0
   -0.4105   -4.8836   -2.9606 H   0  0  0  0  0  0  0  0  0  0  0  0
    2.5974   -4.5110   -5.7523 N   0  0  0  0  0  0  0  0  0  0  0  0
    3.8212   -4.0976   -6.4286 C   0  0  0  0  0  0  0  0  0  0  0  0
    1.7056   -4.1739   -6.1012 H   0  0  0  0  0  0  0  0  0  0  0  0
    4.4984   -3.6003   -5.7262 H   0  0  0  0  0  0  0  0  0  0  0  0
    4.3339   -4.9646   -6.8583 H   0  0  0  0  0  0  0  0  0  0  0  0
    3.5890   -3.3976   -7.2368 H   0  0  0  0  0  0  0  0  0  0  0  0
   -5.4804    1.0439   -1.0684 C   0  0  0  0  0  0  0  0  0  0  0  0
   -5.8537   -0.0682   -1.4062 O   0  0  0  0  0  0  0  0  0  0  0  0
   -6.2258    1.7984    0.0160 C   0  0  0  0  0  0  0  0  0  0  0  0
   -6.5403    2.7759   -0.3574 H   0  0  0  0  0  0  0  0  0  0  0  0
   -7.1124    1.2368    0.3231 H   0  0  0  0  0  0  0  0  0  0  0  0
   -5.5781    1.9384    0.8846 H   0  0  0  0  0  0  0  0  0  0  0  0
   -4.3753    1.6130   -1.6657 N   0  0  0  0  0  0  0  0  0  0  0  0
   -3.4894    0.9161   -2.6075 C   0  0  2  0  0  0  0  0  0  0  0  0
   -2.0031    1.1540   -2.2739 C   0  0  0  0  0  0  0  0  0  0  0  0
   -1.6530    2.1727   -1.6909 O   0  0  0  0  0  0  0  0  0  0  0  0
   -3.8077    1.4230   -4.0167 C   0  0  0  0  0  0  0  0  0  0  0  0
   -4.0293    2.4858   -1.2695 H   0  0  0  0  0  0  0  0  0  0  0  0
   -3.6658   -0.1640   -2.5677 H   0  0  0  0  0  0  0  0  0  0  0  0
   -3.6499    2.5048   -4.0816 H   0  0  0  0  0  0  0  0  0  0  0  0
   -3.1653    0.9353   -4.7559 H   0  0  0  0  0  0  0  0  0  0  0  0
   -4.8509    1.2079   -4.2690 H   0  0  0  0  0  0  0  0  0  0  0  0
   -1.0344    0.2540   -2.6813 N   0  0  0  0  0  0  0  0  0  0  0  0
    0.3889    0.3861   -2.3136 C   0  0  2  0  0  0  0  0  0  0  0  0
    1.1110    1.4969   -3.1052 C   0  0  0  0  0  0  0  0  0  0  0  0
    2.2449    1.8426   -2.8003 O   0  0  0  0  0  0  0  0  0  0  0  0
    1.0803   -0.9575   -2.5684 C   0  0  0  0  0  0  0  0  0  0  0  0
    0.3995   -2.2454   -1.4491 S   0  0  0  0  0  0  0  0  0  0  0  0
   -1.3626   -0.6532   -3.0016 H   0  0  0  0  0  0  0  0  0  0  0  0
    0.4766    0.6338   -1.2493 H   0  0  0  0  0  0  0  0  0  0  0  0
    0.9535   -1.2576   -3.6127 H   0  0  0  0  0  0  0  0  0  0  0  0
    2.1549   -0.8599   -2.3775 H   0  0  0  0  0  0  0  0  0  0  0  0
    0.5249    2.0247   -4.2392 N   0  0  0  0  0  0  0  0  0  0  0  0
    0.9702    3.2563   -4.8959 C   0  0  2  0  0  0  0  0  0  0  0  0
   -0.2444    4.0777   -5.3778 C   0  0  0  0  0  0  0  0  0  0  0  0
   -1.3417    3.5394   -5.4976 O   0  0  0  0  0  0  0  0  0  0  0  0
    1.8773    2.8801   -6.0702 C   0  0  0  0  0  0  0  0  0  0  0  0
   -0.4639    1.8037   -4.3526 H   0  0  0  0  0  0  0  0  0  0  0  0
    1.5303    3.8772   -4.1883 H   0  0  0  0  0  0  0  0  0  0  0  0
    1.3330    2.2618   -6.7913 H   0  0  0  0  0  0  0  0  0  0  0  0
    2.2372    3.7782   -6.5813 H   0  0  0  0  0  0  0  0  0  0  0  0
    2.7446    2.3165   -5.7116 H   0  0  0  0  0  0  0  0  0  0  0  0
   -0.1112    5.4227   -5.6686 N   0  0  0  0  0  0  0  0  0  0  0  0
   -1.2310    6.2699   -6.0608 C   0  0  0  0  0  0  0  0  0  0  0  0
    0.7949    5.8515   -5.5028 H   0  0  0  0  0  0  0  0  0  0  0  0
   -1.7005    5.8882   -6.9736 H   0  0  0  0  0  0  0  0  0  0  0  0
   -1.9828    6.3039   -5.2650 H   0  0  0  0  0  0  0  0  0  0  0  0
   -0.8837    7.2897   -6.2527 H   0  0  0  0  0  0  0  0  0  0  0  0
  1  2  2  0  0  0  0
  1  3  1  0  0  0  0
  1  7  1  0  0  0  0
  3  4  1  0  0  0  0
  3  5  1  0  0  0  0
  3  6  1  0  0  0  0
  7  8  1  0  0  0  0
  7 13  1  0  0  0  0
  8  9  1  0  0  0  0
  8 11  1  0  0  0  0
  8 14  1  0  0  0  0
  9 10  2  0  0  0  0
  9 17  1  0  0  0  0
 11 12  1  0  0  0  0
 11 15  1  0  0  0  0
 11 16  1  0  0  0  0
 12 44  1  0  0  0  0
 17 18  1  0  0  0  0
 17 19  1  0  0  0  0
 18 20  1  0  0  0  0
 18 21  1  0  0  0  0
 18 22  1  0  0  0  0
 23 24  2  0  0  0  0
 23 25  1  0  0  0  0
 23 29  1  0  0  0  0
 25 26  1  0  0  0  0
 25 27  1  0  0  0  0
 25 28  1  0  0  0  0
 29 30  1  0  0  0  0
 29 34  1  0  0  0  0
 30 31  1  0  0  0  0
 30 33  1  0  0  0  0
 30 35  1  0  0  0  0
 31 32  2  0  0  0  0
 31 39  1  0  0  0  0
 33 36  1  0  0  0  0
 33 37  1  0  0  0  0
 33 38  1  0  0  0  0
 39 40  1  0  0  0  0
 39 45  1  0  0  0  0
 40 41  1  0  0  0  0
 40 43  1  0  0  0  0
 40 46  1  0  0  0  0
 41 42  2  0  0  0  0
 41 49  1  0  0  0  0
 43 44  1  0  0  0  0
 43 47  1  0  0  0  0
 43 48  1  0  0  0  0
 49 50  1  0  0  0  0
 49 54  1  0  0  0  0
 50 51  1  0  0  0  0
 50 53  1  0  0  0  0
 50 55  1  0  0  0  0
 51 52  2  0  0  0  0
 51 59  1  0  0  0  0
 53 56  1  0  0  0  0
 53 57  1  0  0  0  0
 53 58  1  0  0  0  0
 59 60  1  0  0  0  0
 59 61  1  0  0  0  0
 60 62  1  0  0  0  0
 60 63  1  0  0  0  0
 60 64  1  0  0  0  0
M  END
$$$$

  -OEChem-05262216053D

 64 63  0     1  0  0  0  0  0999 V2000
    0.4455   -7.7136   -2.6971 C   0  0  0  0  0  0  0  0  0  0  0  0
   -0.6650   -7.6231   -3.1975 O   0  0  0  0  0  0  0  0  0  0  0  0
    0.7306   -8.7703   -1.6469 C   0  0  0  0  0  0  0  0  0  0  0  0
    1.1049   -8.2976   -0.7354 H   0  0  0  0  0  0  0  0  0  0  0  0
   -0.1835   -9.3208   -1.4078 H   0  0  0  0  0  0  0  0  0  0  0  0
    1.4795   -9.4739   -2.0185 H   0  0  0  0  0  0  0  0  0  0  0  0
    1.4447   -6.8535   -3.0956 N   0  0  0  0  0  0  0  0  0  0  0  0
    1.2893   -5.8004   -4.1085 C   0  0  2  0  0  0  0  0  0  0  0  0
    2.6428   -5.3985   -4.7347 C   0  0  0  0  0  0  0  0  0  0  0  0
    3.6868   -5.8923   -4.3219 O   0  0  0  0  0  0  0  0  0  0  0  0
    0.5936   -4.5855   -3.4738 C   0  0  0  0  0  0  0  0  0  0  0  0
    1.5833   -3.8903   -2.0882 S   0  0  0  0  0  0  0  0  0  0  0  0
    2.3771   -6.9890   -2.7065 H   0  0  0  0  0  0  0  0  0  0  0  0
    0.6628   -6.1803   -4.9221 H   0  0  0  0  0  0  0  0  0  0  0  0
    0.4332   -3.8120   -4.2294 H   0  0  0  0  0  0  0  0  0  0  0  0
   -0.3887   -4.8856   -3.0947 H   0  0  0  0  0  0  0  0  0  0  0  0
    2.6943   -4.5092   -5.7942 N   0  0  0  0  0  0  0  0  0  0  0  0
    3.9415   -4.0844   -6.4194 C   0  0  0  0  0  0  0  0  0  0  0  0
    1.8185   -4.1251   -6.1351 H   0  0  0  0  0  0  0  0  0  0  0  0
    4.5818   -3.5770   -5.6900 H   0  0  0  0  0  0  0  0  0  0  0  0
    4.4827   -4.9469   -6.8228 H   0  0  0  0  0  0  0  0  0  0  0  0
    3.7370   -3.3913   -7.2411 H   0  0  0  0  0  0  0  0  0  0  0  0
   -5.5533    1.0965   -0.9693 C   0  0  0  0  0  0  0  0  0  0  0  0
   -5.9559   -0.0087   -1.2961 O   0  0  0  0  0  0  0  0  0  0  0  0
   -6.3032    1.9000    0.0761 C   0  0  0  0  0  0  0  0  0  0  0  0
   -6.6367    2.8477   -0.3529 H   0  0  0  0  0  0  0  0  0  0  0  0
   -7.1781    1.3436    0.4231 H   0  0  0  0  0  0  0  0  0  0  0  0
   -5.6525    2.1019    0.9304 H   0  0  0  0  0  0  0  0  0  0  0  0
   -4.4158    1.6169   -1.5502 N   0  0  0  0  0  0  0  0  0  0  0  0
   -3.5410    0.8776   -2.4698 C   0  0  2  0  0  0  0  0  0  0  0  0
   -2.0508    1.1056   -2.1494 C   0  0  0  0  0  0  0  0  0  0  0  0
   -1.6901    2.1039   -1.5385 O   0  0  0  0  0  0  0  0  0  0  0  0
   -3.8533    1.3437   -3.8947 C   0  0  0  0  0  0  0  0  0  0  0  0
   -4.0510    2.4883   -1.1670 H   0  0  0  0  0  0  0  0  0  0  0  0
   -3.7319   -0.1979   -2.3912 H   0  0  0  0  0  0  0  0  0  0  0  0
   -3.6534    2.4156   -3.9991 H   0  0  0  0  0  0  0  0  0  0  0  0
   -3.2384    0.8042   -4.6210 H   0  0  0  0  0  0  0  0  0  0  0  0
   -4.9064    1.1611   -4.1307 H   0  0  0  0  0  0  0  0  0  0  0  0
   -1.0856    0.2349   -2.6214 N   0  0  0  0  0  0  0  0  0  0  0  0
    0.3482    0.3603   -2.2929 C   0  0  2  0  0  0  0  0  0  0  0  0
    1.0572    1.5071   -3.0519 C   0  0  0  0  0  0  0  0  0  0  0  0
    2.2647    1.6757   -2.9357 O   0  0  0  0  0  0  0  0  0  0  0  0
    1.0227   -0.9801   -2.6110 C   0  0  0  0  0  0  0  0  0  0  0  0
    0.3696   -2.2966   -1.5087 S   0  0  0  0  0  0  0  0  0  0  0  0
   -1.4150   -0.6525   -2.9920 H   0  0  0  0  0  0  0  0  0  0  0  0
    0.4634    0.5660   -1.2228 H   0  0  0  0  0  0  0  0  0  0  0  0
    0.8605   -1.2486   -3.6589 H   0  0  0  0  0  0  0  0  0  0  0  0
    2.1037   -0.8976   -2.4514 H   0  0  0  0  0  0  0  0  0  0  0  0
    0.3540    2.3000   -3.9383 N   0  0  0  0  0  0  0  0  0  0  0  0
    0.8670    3.5325   -4.5429 C   0  0  2  0  0  0  0  0  0  0  0  0
   -0.2855    4.5182   -4.8304 C   0  0  0  0  0  0  0  0  0  0  0  0
   -1.4447    4.1165   -4.8739 O   0  0  0  0  0  0  0  0  0  0  0  0
    1.6069    3.1816   -5.8371 C   0  0  0  0  0  0  0  0  0  0  0  0
   -0.6615    2.2340   -3.8665 H   0  0  0  0  0  0  0  0  0  0  0  0
    1.5593    4.0211   -3.8489 H   0  0  0  0  0  0  0  0  0  0  0  0
    0.9277    2.6991   -6.5470 H   0  0  0  0  0  0  0  0  0  0  0  0
    2.0143    4.0844   -6.3018 H   0  0  0  0  0  0  0  0  0  0  0  0
    2.4358    2.4981   -5.6278 H   0  0  0  0  0  0  0  0  0  0  0  0
   -0.0239    5.8595   -5.0409 N   0  0  0  0  0  0  0  0  0  0  0  0
   -1.0674    6.8497   -5.2770 C   0  0  0  0  0  0  0  0  0  0  0  0
    0.9409    6.1691   -4.9664 H   0  0  0  0  0  0  0  0  0  0  0  0
   -1.6313    6.6031   -6.1827 H   0  0  0  0  0  0  0  0  0  0  0  0
   -1.7599    6.8867   -4.4295 H   0  0  0  0  0  0  0  0  0  0  0  0
   -0.6248    7.8422   -5.4048 H   0  0  0  0  0  0  0  0  0  0  0  0
  1  2  2  0  0  0  0
  1  3  1  0  0  0  0
  1  7  1  0  0  0  0
  3  4  1  0  0  0  0
  3  5  1  0  0  0  0
  3  6  1  0  0  0  0
  7  8  1  0  0  0  0
  7 13  1  0  0  0  0
  8  9  1  0  0  0  0
  8 11  1  0  0  0  0
  8 14  1  0  0  0  0
  9 10  2  0  0  0  0
  9 17  1  0  0  0  0
 11 12  1  0  0  0  0
 11 15  1  0  0  0  0
 11 16  1  0  0  0  0
 12 44  1  0  0  0  0
 17 18  1  0  0  0  0
 17 19  1  0  0  0  0
 18 20  1  0  0  0  0
 18 21  1  0  0  0  0
 18 22  1  0  0  0  0
 23 24  2  0  0  0  0
 23 25  1  0  0  0  0
 23 29  1  0  0  0  0
 25 26  1  0  0  0  0
 25 27  1  0  0  0  0
 25 28  1  0  0  0  0
 29 30  1  0  0  0  0
 29 34  1  0  0  0  0
 30 31  1  0  0  0  0
 30 33  1  0  0  0  0
 30 35  1  0  0  0  0
 31 32  2  0  0  0  0
 31 39  1  0  0  0  0
 33 36  1  0  0  0  0
 33 37  1  0  0  0  0
 33 38  1  0  0  0  0
 39 40  1  0  0  0  0
 39 45  1  0  0  0  0
 40 41  1  0  0  0  0
 40 43  1  0  0  0  0
 40 46  1  0  0  0  0
 41 42  2  0  0  0  0
 41 49  1  0  0  0  0
 43 44  1  0  0  0  0
 43 47  1  0  0  0  0
 43 48  1  0  0  0  0
 49 50  1  0  0  0  0
 49 54  1  0  0  0  0
 50 51  1  0  0  0  0
 50 53  1  0  0  0  0
 50 55  1  0  0  0  0
 51 52  2  0  0  0  0
 51 59  1  0  0  0  0
 53 56  1  0  0  0  0
 53 57  1  0  0  0  0
 53 58  1  0  0  0  0
 59 60  1  0  0  0  0
 59 61  1  0  0  0  0
 60 62  1  0  0  0  0
 60 63  1  0  0  0  0
 60 64  1  0  0  0  0
M  END
$$$$

  -OEChem-05262216053D

 64 63  0     1  0  0  0  0  0999 V2000
    0.4451   -7.7063   -2.7239 C   0  0  0  0  0  0  0  0  0  0  0  0
   -0.6624   -7.6162   -3.2307 O   0  0  0  0  0  0  0  0  0  0  0  0
    0.7188   -8.7520   -1.6591 C   0  0  0  0  0  0  0  0  0  0  0  0
    1.0978   -8.2721   -0.7532 H   0  0  0  0  0  0  0  0  0  0  0  0
   -0.2016   -9.2893   -1.4130 H   0  0  0  0  0  0  0  0  0  0  0  0
    1.4607   -9.4680   -2.0213 H   0  0  0  0  0  0  0  0  0  0  0  0
    1.4488   -6.8523   -3.1244 N   0  0  0  0  0  0  0  0  0  0  0  0
    1.3005   -5.8027   -4.1423 C   0  0  2  0  0  0  0  0  0  0  0  0
    2.6590   -5.3991   -4.7557 C   0  0  0  0  0  0  0  0  0  0  0  0
    3.6994   -5.8977   -4.3397 O   0  0  0  0  0  0  0  0  0  0  0  0
    0.5967   -4.5871   -3.5171 C   0  0  0  0  0  0  0  0  0  0  0  0
    1.5774   -3.8917   -2.1251 S   0  0  0  0  0  0  0  0  0  0  0  0
    2.3767   -6.9816   -2.7228 H   0  0  0  0  0  0  0  0  0  0  0  0
    0.6837   -6.1864   -4.9618 H   0  0  0  0  0  0  0  0  0  0  0  0
    0.4417   -3.8143   -4.2746 H   0  0  0  0  0  0  0  0  0  0  0  0
   -0.3889   -4.8869   -3.1461 H   0  0  0  0  0  0  0  0  0  0  0  0
    2.7172   -4.4996   -5.8058 N   0  0  0  0  0  0  0  0  0  0  0  0
    3.9683   -4.0608   -6.4119 C   0  0  0  0  0  0  0  0  0  0  0  0
    1.8443   -4.1051   -6.1420 H   0  0  0  0  0  0  0  0  0  0  0  0
    4.5944   -3.5530   -5.6706 H   0  0  0  0  0  0  0  0  0  0  0  0
    4.5209   -4.9165   -6.8141 H   0  0  0  0  0  0  0  0  0  0  0  0
    3.7685   -3.3640   -7.2317 H   0  0  0  0  0  0  0  0  0  0  0  0
   -5.6046    1.0828   -0.9853 C   0  0  0  0  0  0  0  0  0  0  0  0
   -6.0235   -0.0009   -1.3603 O   0  0  0  0  0  0  0  0  0  0  0  0
   -6.3695    1.8749    0.0573 C   0  0  0  0  0  0  0  0  0  0  0  0
   -6.6535    2.8482   -0.3500 H   0  0  0  0  0  0  0  0  0  0  0  0
   -7.2755    1.3361    0.3485 H   0  0  0  0  0  0  0  0  0  0  0  0
   -5.7475    2.0253    0.9433 H   0  0  0  0  0  0  0  0  0  0  0  0
   -4.4355    1.5900   -1.5107 N   0  0  0  0  0  0  0  0  0  0  0  0
   -3.5513    0.8560   -2.4243 C   0  0  2  0  0  0  0  0  0  0  0  0
   -2.0647    1.0814   -2.0862 C   0  0  0  0  0  0  0  0  0  0  0  0
   -1.7138    2.0587   -1.4365 O   0  0  0  0  0  0  0  0  0  0  0  0
   -3.8456    1.3320   -3.8492 C   0  0  0  0  0  0  0  0  0  0  0  0
   -4.0652    2.4440   -1.0949 H   0  0  0  0  0  0  0  0  0  0  0  0
   -3.7447   -0.2199   -2.3546 H   0  0  0  0  0  0  0  0  0  0  0  0
   -3.6489    2.4057   -3.9423 H   0  0  0  0  0  0  0  0  0  0  0  0
   -3.2179    0.7998   -4.5701 H   0  0  0  0  0  0  0  0  0  0  0  0
   -4.8945    1.1463   -4.1011 H   0  0  0  0  0  0  0  0  0  0  0  0
   -1.0873    0.2438   -2.5898 N   0  0  0  0  0  0  0  0  0  0  0  0
    0.3471    0.3662   -2.2609 C   0  0  2  0  0  0  0  0  0  0  0  0
    1.0514    1.5488   -2.9741 C   0  0  0  0  0  0  0  0  0  0  0  0
    2.2707    1.5691   -3.0920 O   0  0  0  0  0  0  0  0  0  0  0  0
    1.0157   -0.9698   -2.6157 C   0  0  0  0  0  0  0  0  0  0  0  0
    0.3568   -2.3063   -1.5404 S   0  0  0  0  0  0  0  0  0  0  0  0
   -1.4058   -0.6197   -3.0214 H   0  0  0  0  0  0  0  0  0  0  0  0
    0.4611    0.5355   -1.1844 H   0  0  0  0  0  0  0  0  0  0  0  0
    0.8511   -1.2099   -3.6702 H   0  0  0  0  0  0  0  0  0  0  0  0
    2.0973   -0.9003   -2.4553 H   0  0  0  0  0  0  0  0  0  0  0  0
    0.3132    2.5520   -3.5726 N   0  0  0  0  0  0  0  0  0  0  0  0
    0.8756    3.7555   -4.1938 C   0  0  2  0  0  0  0  0  0  0  0  0
   -0.1511    4.9073   -4.2106 C   0  0  0  0  0  0  0  0  0  0  0  0
   -1.3524    4.6696   -4.1375 O   0  0  0  0  0  0  0  0  0  0  0  0
    1.3128    3.4224   -5.6243 C   0  0  0  0  0  0  0  0  0  0  0  0
   -0.6625    2.6120   -3.2719 H   0  0  0  0  0  0  0  0  0  0  0  0
    1.7434    4.0910   -3.6163 H   0  0  0  0  0  0  0  0  0  0  0  0
    0.4561    3.0830   -6.2153 H   0  0  0  0  0  0  0  0  0  0  0  0
    1.7433    4.3042   -6.1083 H   0  0  0  0  0  0  0  0  0  0  0  0
    2.0682    2.6305   -5.6197 H   0  0  0  0  0  0  0  0  0  0  0  0
    0.2759    6.2181   -4.3187 N   0  0  0  0  0  0  0  0  0  0  0  0
   -0.6322    7.3585   -4.3215 C   0  0  0  0  0  0  0  0  0  0  0  0
    1.2775    6.3858   -4.3486 H   0  0  0  0  0  0  0  0  0  0  0  0
   -1.3177    7.2998   -5.1736 H   0  0  0  0  0  0  0  0  0  0  0  0
   -1.2191    7.3846   -3.3971 H   0  0  0  0  0  0  0  0  0  0  0  0
   -0.0655    8.2916   -4.3972 H   0  0  0  0  0  0  0  0  0  0  0  0
  1  2  2  0  0  0  0
  1  3  1  0  0  0  0
  1  7  1  0  0  0  0
  3  4  1  0  0  0  0
  3  5  1  0  0  0  0
  3  6  1  0  0  0  0
  7  8  1  0  0  0  0
  7 13  1  0  0  0  0
  8  9  1  0  0  0  0
  8 11  1  0  0  0  0
  8 14  1  0  0  0  0
  9 10  2  0  0  0  0
  9 17  1  0  0  0  0
 11 12  1  0  0  0  0
 11 15  1  0  0  0  0
 11 16  1  0  0  0  0
 12 44  1  0  0  0  0
 17 18  1  0  0  0  0
 17 19  1  0  0  0  0
 18 20  1  0  0  0  0
 18 21  1  0  0  0  0
 18 22  1  0  0  0  0
 23 24  2  0  0  0  0
 23 25  1  0  0  0  0
 23 29  1  0  0  0  0
 25 26  1  0  0  0  0
 25 27  1  0  0  0  0
 25 28  1  0  0  0  0
 29 30  1  0  0  0  0
 29 34  1  0  0  0  0
 30 31  1  0  0  0  0
 30 33  1  0  0  0  0
 30 35  1  0  0  0  0
 31 32  2  0  0  0  0
 31 39  1  0  0  0  0
 33 36  1  0  0  0  0
 33 37  1  0  0  0  0
 33 38  1  0  0  0  0
 39 40  1  0  0  0  0
 39 45  1  0  0  0  0
 40 41  1  0  0  0  0
 40 43  1  0  0  0  0
 40 46  1  0  0  0  0
 41 42  2  0  0  0  0
 41 49  1  0  0  0  0
 43 44  1  0  0  0  0
 43 47  1  0  0  0  0
 43 48  1  0  0  0  0
 49 50  1  0  0  0  0
 49 54  1  0  0  0  0
 50 51  1  0  0  0  0
 50 53  1  0  0  0  0
 50 55  1  0  0  0  0
 51 52  2  0  0  0  0
 51 59  1  0  0  0  0
 53 56  1  0  0  0  0
 53 57  1  0  0  0  0
 53 58  1  0  0  0  0
 59 60  1  0  0  0  0
 59 61  1  0  0  0  0
 60 62  1  0  0  0  0
 60 63  1  0  0  0  0
 60 64  1  0  0  0  0
M  END
$$$$

  -OEChem-05262216053D

 64 63  0     1  0  0  0  0  0999 V2000
    0.4427   -7.7320   -2.7476 C   0  0  0  0  0  0  0  0  0  0  0  0
   -0.6579   -7.6509   -3.2708 O   0  0  0  0  0  0  0  0  0  0  0  0
    0.7139   -8.7842   -1.6892 C   0  0  0  0  0  0  0  0  0  0  0  0
    1.1214   -8.3140   -0.7906 H   0  0  0  0  0  0  0  0  0  0  0  0
   -0.2131   -9.3011   -1.4255 H   0  0  0  0  0  0  0  0  0  0  0  0
    1.4323   -9.5157   -2.0670 H   0  0  0  0  0  0  0  0  0  0  0  0
    1.4425   -6.8630   -3.1245 N   0  0  0  0  0  0  0  0  0  0  0  0
    1.2981   -5.8072   -4.1365 C   0  0  2  0  0  0  0  0  0  0  0  0
    2.6617   -5.3876   -4.7289 C   0  0  0  0  0  0  0  0  0  0  0  0
    3.6997   -5.8866   -4.3070 O   0  0  0  0  0  0  0  0  0  0  0  0
    0.5750   -4.6031   -3.5118 C   0  0  0  0  0  0  0  0  0  0  0  0
    1.5254   -3.9176   -2.0941 S   0  0  0  0  0  0  0  0  0  0  0  0
    2.3673   -6.9896   -2.7146 H   0  0  0  0  0  0  0  0  0  0  0  0
    0.6954   -6.1903   -4.9667 H   0  0  0  0  0  0  0  0  0  0  0  0
    0.4291   -3.8229   -4.2637 H   0  0  0  0  0  0  0  0  0  0  0  0
   -0.4154   -4.9136   -3.1629 H   0  0  0  0  0  0  0  0  0  0  0  0
    2.7284   -4.4783   -5.7704 N   0  0  0  0  0  0  0  0  0  0  0  0
    3.9836   -4.0419   -6.3703 C   0  0  0  0  0  0  0  0  0  0  0  0
    1.8575   -4.0855   -6.1137 H   0  0  0  0  0  0  0  0  0  0  0  0
    4.6210   -3.5640   -5.6189 H   0  0  0  0  0  0  0  0  0  0  0  0
    4.5209   -4.8948   -6.7983 H   0  0  0  0  0  0  0  0  0  0  0  0
    3.7906   -3.3194   -7.1692 H   0  0  0  0  0  0  0  0  0  0  0  0
   -5.5930    1.0866   -1.0232 C   0  0  0  0  0  0  0  0  0  0  0  0
   -6.0106    0.0226   -1.4520 O   0  0  0  0  0  0  0  0  0  0  0  0
   -6.3405    1.8043    0.0848 C   0  0  0  0  0  0  0  0  0  0  0  0
   -6.6667    2.7883   -0.2605 H   0  0  0  0  0  0  0  0  0  0  0  0
   -7.2197    1.2258    0.3816 H   0  0  0  0  0  0  0  0  0  0  0  0
   -5.6906    1.9273    0.9545 H   0  0  0  0  0  0  0  0  0  0  0  0
   -4.4366    1.6326   -1.5391 N   0  0  0  0  0  0  0  0  0  0  0  0
   -3.5408    0.9415   -2.4761 C   0  0  2  0  0  0  0  0  0  0  0  0
   -2.0623    1.1003   -2.0701 C   0  0  0  0  0  0  0  0  0  0  0  0
   -1.7120    2.0207   -1.3410 O   0  0  0  0  0  0  0  0  0  0  0  0
   -3.7726    1.5318   -3.8695 C   0  0  0  0  0  0  0  0  0  0  0  0
   -4.0613    2.4557   -1.0685 H   0  0  0  0  0  0  0  0  0  0  0  0
   -3.7628   -0.1311   -2.4957 H   0  0  0  0  0  0  0  0  0  0  0  0
   -3.5428    2.6029   -3.8743 H   0  0  0  0  0  0  0  0  0  0  0  0
   -3.1361    1.0367   -4.6091 H   0  0  0  0  0  0  0  0  0  0  0  0
   -4.8174    1.3978   -4.1674 H   0  0  0  0  0  0  0  0  0  0  0  0
   -1.0891    0.2615   -2.5798 N   0  0  0  0  0  0  0  0  0  0  0  0
    0.3440    0.3517   -2.2361 C   0  0  2  0  0  0  0  0  0  0  0  0
    1.0694    1.5405   -2.9213 C   0  0  0  0  0  0  0  0  0  0  0  0
    2.2427    1.4476   -3.2632 O   0  0  0  0  0  0  0  0  0  0  0  0
    0.9918   -0.9943   -2.5946 C   0  0  0  0  0  0  0  0  0  0  0  0
    0.2986   -2.3279   -1.5379 S   0  0  0  0  0  0  0  0  0  0  0  0
   -1.4088   -0.5507   -3.0998 H   0  0  0  0  0  0  0  0  0  0  0  0
    0.4485    0.5030   -1.1563 H   0  0  0  0  0  0  0  0  0  0  0  0
    0.8369   -1.2226   -3.6531 H   0  0  0  0  0  0  0  0  0  0  0  0
    2.0720   -0.9446   -2.4194 H   0  0  0  0  0  0  0  0  0  0  0  0
    0.3876    2.7031   -3.2279 N   0  0  0  0  0  0  0  0  0  0  0  0
    0.9776    3.8994   -3.8408 C   0  0  2  0  0  0  0  0  0  0  0  0
    0.1175    5.1534   -3.5768 C   0  0  0  0  0  0  0  0  0  0  0  0
   -1.0796    5.0460   -3.3349 O   0  0  0  0  0  0  0  0  0  0  0  0
    1.1133    3.6751   -5.3514 C   0  0  0  0  0  0  0  0  0  0  0  0
   -0.5249    2.8166   -2.7736 H   0  0  0  0  0  0  0  0  0  0  0  0
    1.9682    4.0754   -3.4084 H   0  0  0  0  0  0  0  0  0  0  0  0
    0.1317    3.4876   -5.7980 H   0  0  0  0  0  0  0  0  0  0  0  0
    1.5522    4.5549   -5.8318 H   0  0  0  0  0  0  0  0  0  0  0  0
    1.7585    2.8152   -5.5554 H   0  0  0  0  0  0  0  0  0  0  0  0
    0.6848    6.4134   -3.6329 N   0  0  0  0  0  0  0  0  0  0  0  0
   -0.0654    7.6393   -3.3886 C   0  0  0  0  0  0  0  0  0  0  0  0
    1.6821    6.4741   -3.8153 H   0  0  0  0  0  0  0  0  0  0  0  0
   -0.8855    7.7355   -4.1078 H   0  0  0  0  0  0  0  0  0  0  0  0
   -0.4825    7.6384   -2.3758 H   0  0  0  0  0  0  0  0  0  0  0  0
    0.5886    8.5105   -3.4928 H   0  0  0  0  0  0  0  0  0  0  0  0
  1  2  2  0  0  0  0
  1  3  1  0  0  0  0
  1  7  1  0  0  0  0
  3  4  1  0  0  0  0
  3  5  1  0  0  0  0
  3  6  1  0  0  0  0
  7  8  1  0  0  0  0
  7 13  1  0  0  0  0
  8  9  1  0  0  0  0
  8 11  1  0  0  0  0
  8 14  1  0  0  0  0
  9 10  2  0  0  0  0
  9 17  1  0  0  0  0
 11 12  1  0  0  0  0
 11 15  1  0  0  0  0
 11 16  1  0  0  0  0
 12 44  1  0  0  0  0
 17 18  1  0  0  0  0
 17 19  1  0  0  0  0
 18 20  1  0  0  0  0
 18 21  1  0  0  0  0
 18 22  1  0  0  0  0
 23 24  2  0  0  0  0
 23 25  1  0  0  0  0
 23 29  1  0  0  0  0
 25 26  1  0  0  0  0
 25 27  1  0  0  0  0
 25 28  1  0  0  0  0
 29 30  1  0  0  0  0
 29 34  1  0  0  0  0
 30 31  1  0  0  0  0
 30 33  1  0  0  0  0
 30 35  1  0  0  0  0
 31 32  2  0  0  0  0
 31 39  1  0  0  0  0
 33 36  1  0  0  0  0
 33 37  1  0  0  0  0
 33 38  1  0  0  0  0
 39 40  1  0  0  0  0
 39 45  1  0  0  0  0
 40 41  1  0  0  0  0
 40 43  1  0  0  0  0
 40 46  1  0  0  0  0
 41 42  2  0  0  0  0
 41 49  1  0  0  0  0
 43 44  1  0  0  0  0
 43 47  1  0  0  0  0
 43 48  1  0  0  0  0
 49 50  1  0  0  0  0
 49 54  1  0  0  0  0
 50 51  1  0  0  0  0
 50 53  1  0  0  0  0
 50 55  1  0  0  0  0
 51 52  2  0  0  0  0
 51 59  1  0  0  0  0
 53 56  1  0  0  0  0
 53 57  1  0  0  0  0
 53 58  1  0  0  0  0
 59 60  1  0  0  0  0
 59 61  1  0  0  0  0
 60 62  1  0  0  0  0
 60 63  1  0  0  0  0
 60 64  1  0  0  0  0
M  END
$$$$

  -OEChem-05262216053D

 64 63  0     1  0  0  0  0  0999 V2000
    0.3889   -7.7424   -3.0501 C   0  0  0  0  0  0  0  0  0  0  0  0
   -0.6601   -7.5718   -3.6519 O   0  0  0  0  0  0  0  0  0  0  0  0
    0.5429   -8.9096   -2.0944 C   0  0  0  0  0  0  0  0  0  0  0  0
    0.7138   -8.5395   -1.0808 H   0  0  0  0  0  0  0  0  0  0  0  0
   -0.3632   -9.5213   -2.0985 H   0  0  0  0  0  0  0  0  0  0  0  0
    1.3894   -9.5311   -2.3959 H   0  0  0  0  0  0  0  0  0  0  0  0
    1.4344   -6.8665   -3.2421 N   0  0  0  0  0  0  0  0  0  0  0  0
    1.4110   -5.7348   -4.1791 C   0  0  2  0  0  0  0  0  0  0  0  0
    2.8274   -5.3533   -4.6629 C   0  0  0  0  0  0  0  0  0  0  0  0
    3.8099   -5.9436   -4.2262 O   0  0  0  0  0  0  0  0  0  0  0  0
    0.7077   -4.5442   -3.5087 C   0  0  0  0  0  0  0  0  0  0  0  0
    1.6422   -3.9452   -2.0424 S   0  0  0  0  0  0  0  0  0  0  0  0
    2.3223   -7.0735   -2.7860 H   0  0  0  0  0  0  0  0  0  0  0  0
    0.8426   -6.0224   -5.0698 H   0  0  0  0  0  0  0  0  0  0  0  0
    0.5988   -3.7266   -4.2260 H   0  0  0  0  0  0  0  0  0  0  0  0
   -0.2975   -4.8450   -3.1956 H   0  0  0  0  0  0  0  0  0  0  0  0
    3.0035   -4.3779   -5.6289 N   0  0  0  0  0  0  0  0  0  0  0  0
    4.3137   -3.9706   -6.1229 C   0  0  0  0  0  0  0  0  0  0  0  0
    2.1783   -3.9009   -5.9785 H   0  0  0  0  0  0  0  0  0  0  0  0
    4.9224   -3.5670   -5.3065 H   0  0  0  0  0  0  0  0  0  0  0  0
    4.8393   -4.8231   -6.5664 H   0  0  0  0  0  0  0  0  0  0  0  0
    4.2057   -3.1964   -6.8890 H   0  0  0  0  0  0  0  0  0  0  0  0
   -5.6296    1.5114   -0.9694 C   0  0  0  0  0  0  0  0  0  0  0  0
   -6.1878    0.4887   -1.3340 O   0  0  0  0  0  0  0  0  0  0  0  0
   -6.3430    2.4786   -0.0438 C   0  0  0  0  0  0  0  0  0  0  0  0
   -6.2867    3.4928   -0.4464 H   0  0  0  0  0  0  0  0  0  0  0  0
   -7.3952    2.1978    0.0546 H   0  0  0  0  0  0  0  0  0  0  0  0
   -5.8781    2.4601    0.9449 H   0  0  0  0  0  0  0  0  0  0  0  0
   -4.3449    1.7810   -1.3909 N   0  0  0  0  0  0  0  0  0  0  0  0
   -3.5164    0.8542   -2.1734 C   0  0  2  0  0  0  0  0  0  0  0  0
   -2.0139    1.0429   -1.8763 C   0  0  0  0  0  0  0  0  0  0  0  0
   -1.6310    1.9670   -1.1681 O   0  0  0  0  0  0  0  0  0  0  0  0
   -3.8035    1.0895   -3.6603 C   0  0  0  0  0  0  0  0  0  0  0  0
   -3.8736    2.5865   -0.9784 H   0  0  0  0  0  0  0  0  0  0  0  0
   -3.7730   -0.1785   -1.9128 H   0  0  0  0  0  0  0  0  0  0  0  0
   -3.5357    2.1126   -3.9434 H   0  0  0  0  0  0  0  0  0  0  0  0
   -3.2300    0.3942   -4.2801 H   0  0  0  0  0  0  0  0  0  0  0  0
   -4.8672    0.9376   -3.8701 H   0  0  0  0  0  0  0  0  0  0  0  0
   -1.0653    0.1964   -2.4205 N   0  0  0  0  0  0  0  0  0  0  0  0
    0.3845    0.3018   -2.1656 C   0  0  2  0  0  0  0  0  0  0  0  0
    1.0526    1.4780   -2.9275 C   0  0  0  0  0  0  0  0  0  0  0  0
    2.0919    1.3132   -3.5572 O   0  0  0  0  0  0  0  0  0  0  0  0
    1.0227   -1.0460   -2.5348 C   0  0  0  0  0  0  0  0  0  0  0  0
    0.4164   -2.3762   -1.4226 S   0  0  0  0  0  0  0  0  0  0  0  0
   -1.4080   -0.6166   -2.9248 H   0  0  0  0  0  0  0  0  0  0  0  0
    0.5553    0.4793   -1.0980 H   0  0  0  0  0  0  0  0  0  0  0  0
    0.8074   -1.2934   -3.5782 H   0  0  0  0  0  0  0  0  0  0  0  0
    2.1109   -0.9799   -2.4262 H   0  0  0  0  0  0  0  0  0  0  0  0
    0.4641    2.7278   -2.9570 N   0  0  0  0  0  0  0  0  0  0  0  0
    1.0165    3.9142   -3.6224 C   0  0  2  0  0  0  0  0  0  0  0  0
    0.4441    5.2213   -3.0351 C   0  0  0  0  0  0  0  0  0  0  0  0
   -0.6629    5.2358   -2.5099 O   0  0  0  0  0  0  0  0  0  0  0  0
    0.7026    3.8382   -5.1206 C   0  0  0  0  0  0  0  0  0  0  0  0
   -0.3524    2.8623   -2.3488 H   0  0  0  0  0  0  0  0  0  0  0  0
    2.1020    3.9333   -3.4804 H   0  0  0  0  0  0  0  0  0  0  0  0
   -0.3795    3.8060   -5.2825 H   0  0  0  0  0  0  0  0  0  0  0  0
    1.1070    4.7119   -5.6405 H   0  0  0  0  0  0  0  0  0  0  0  0
    1.1478    2.9407   -5.5606 H   0  0  0  0  0  0  0  0  0  0  0  0
    1.1658    6.3981   -3.1181 N   0  0  0  0  0  0  0  0  0  0  0  0
    0.6934    7.6644   -2.5710 C   0  0  0  0  0  0  0  0  0  0  0  0
    2.0887    6.3570   -3.5403 H   0  0  0  0  0  0  0  0  0  0  0  0
   -0.2498    7.9582   -3.0436 H   0  0  0  0  0  0  0  0  0  0  0  0
    0.5344    7.5793   -1.4907 H   0  0  0  0  0  0  0  0  0  0  0  0
    1.4301    8.4532   -2.7509 H   0  0  0  0  0  0  0  0  0  0  0  0
  1  2  2  0  0  0  0
  1  3  1  0  0  0  0
  1  7  1  0  0  0  0
  3  4  1  0  0  0  0
  3  5  1  0  0  0  0
  3  6  1  0  0  0  0
  7  8  1  0  0  0  0
  7 13  1  0  0  0  0
  8  9  1  0  0  0  0
  8 11  1  0  0  0  0
  8 14  1  0  0  0  0
  9 10  2  0  0  0  0
  9 17  1  0  0  0  0
 11 12  1  0  0  0  0
 11 15  1  0  0  0  0
 11 16  1  0  0  0  0
 12 44  1  0  0  0  0
 17 18  1  0  0  0  0
 17 19  1  0  0  0  0
 18 20  1  0  0  0  0
 18 21  1  0  0  0  0
 18 22  1  0  0  0  0
 23 24  2  0  0  0  0
 23 25  1  0  0  0  0
 23 29  1  0  0  0  0
 25 26  1  0  0  0  0
 25 27  1  0  0  0  0
 25 28  1  0  0  0  0
 29 30  1  0  0  0  0
 29 34  1  0  0  0  0
 30 31  1  0  0  0  0
 30 33  1  0  0  0  0
 30 35  1  0  0  0  0
 31 32  2  0  0  0  0
 31 39  1  0  0  0  0
 33 36  1  0  0  0  0
 33 37  1  0  0  0  0
 33 38  1  0  0  0  0
 39 40  1  0  0  0  0
 39 45  1  0  0  0  0
 40 41  1  0  0  0  0
 40 43  1  0  0  0  0
 40 46  1  0  0  0  0
 41 42  2  0  0  0  0
 41 49  1  0  0  0  0
 43 44  1  0  0  0  0
 43 47  1  0  0  0  0
 43 48  1  0  0  0  0
 49 50  1  0  0  0  0
 49 54  1  0  0  0  0
 50 51  1  0  0  0  0
 50 53  1  0  0  0  0
 50 55  1  0  0  0  0
 51 52  2  0  0  0  0
 51 59  1  0  0  0  0
 53 56  1  0  0  0  0
 53 57  1  0  0  0  0
 53 58  1  0  0  0  0
 59 60  1  0  0  0  0
 59 61  1  0  0  0  0
 60 62  1  0  0  0  0
 60 63  1  0  0  0  0
 60 64  1  0  0  0  0
M  END
$$$$

  -OEChem-05262216053D

 64 63  0     1  0  0  0  0  0999 V2000
    0.4414   -7.7133   -2.7062 C   0  0  0  0  0  0  0  0  0  0  0  0
   -0.6657   -7.6170   -3.2128 O   0  0  0  0  0  0  0  0  0  0  0  0
    0.7283   -8.8002   -1.6879 C   0  0  0  0  0  0  0  0  0  0  0  0
    1.0584   -8.3517   -0.7475 H   0  0  0  0  0  0  0  0  0  0  0  0
   -0.1745   -9.3882   -1.5006 H   0  0  0  0  0  0  0  0  0  0  0  0
    1.5113   -9.4649   -2.0612 H   0  0  0  0  0  0  0  0  0  0  0  0
    1.4348   -6.8308   -3.0668 N   0  0  0  0  0  0  0  0  0  0  0  0
    1.2807   -5.7596   -4.0602 C   0  0  2  0  0  0  0  0  0  0  0  0
    2.6336   -5.3529   -4.6835 C   0  0  0  0  0  0  0  0  0  0  0  0
    3.6775   -5.8539   -4.2789 O   0  0  0  0  0  0  0  0  0  0  0  0
    0.5891   -4.5563   -3.4000 C   0  0  0  0  0  0  0  0  0  0  0  0
    1.5769   -3.8992   -1.9946 S   0  0  0  0  0  0  0  0  0  0  0  0
    2.3642   -6.9671   -2.6710 H   0  0  0  0  0  0  0  0  0  0  0  0
    0.6516   -6.1214   -4.8803 H   0  0  0  0  0  0  0  0  0  0  0  0
    0.4342   -3.7637   -4.1371 H   0  0  0  0  0  0  0  0  0  0  0  0
   -0.3960   -4.8605   -3.0314 H   0  0  0  0  0  0  0  0  0  0  0  0
    2.6809   -4.4590   -5.7388 N   0  0  0  0  0  0  0  0  0  0  0  0
    3.9230   -4.0422   -6.3785 C   0  0  0  0  0  0  0  0  0  0  0  0
    1.8031   -4.0752   -6.0750 H   0  0  0  0  0  0  0  0  0  0  0  0
    4.5960   -3.5823   -5.6469 H   0  0  0  0  0  0  0  0  0  0  0  0
    4.4285   -4.9015   -6.8315 H   0  0  0  0  0  0  0  0  0  0  0  0
    3.7159   -3.3094   -7.1643 H   0  0  0  0  0  0  0  0  0  0  0  0
   -5.6272    1.0870   -1.2304 C   0  0  0  0  0  0  0  0  0  0  0  0
   -6.0708    0.1120   -1.8159 O   0  0  0  0  0  0  0  0  0  0  0  0
   -6.4293    1.7400   -0.1207 C   0  0  0  0  0  0  0  0  0  0  0  0
   -6.6550    2.7760   -0.3843 H   0  0  0  0  0  0  0  0  0  0  0  0
   -7.3693    1.2025    0.0320 H   0  0  0  0  0  0  0  0  0  0  0  0
   -5.8591    1.7238    0.8115 H   0  0  0  0  0  0  0  0  0  0  0  0
   -4.3904    1.5908   -1.5738 N   0  0  0  0  0  0  0  0  0  0  0  0
   -3.4700    0.9512   -2.5226 C   0  0  2  0  0  0  0  0  0  0  0  0
   -2.0008    1.1208   -2.0877 C   0  0  0  0  0  0  0  0  0  0  0  0
   -1.6803    2.0282   -1.3285 O   0  0  0  0  0  0  0  0  0  0  0  0
   -3.6934    1.5800   -3.9003 C   0  0  0  0  0  0  0  0  0  0  0  0
   -4.0107    2.3398   -0.9951 H   0  0  0  0  0  0  0  0  0  0  0  0
   -3.6751   -0.1237   -2.5765 H   0  0  0  0  0  0  0  0  0  0  0  0
   -3.5018    2.6574   -3.8638 H   0  0  0  0  0  0  0  0  0  0  0  0
   -3.0257    1.1321   -4.6420 H   0  0  0  0  0  0  0  0  0  0  0  0
   -4.7264    1.4203   -4.2253 H   0  0  0  0  0  0  0  0  0  0  0  0
   -1.0178    0.2720   -2.5601 N   0  0  0  0  0  0  0  0  0  0  0  0
    0.4064    0.3711   -2.1944 C   0  0  2  0  0  0  0  0  0  0  0  0
    1.1234    1.5472   -2.9029 C   0  0  0  0  0  0  0  0  0  0  0  0
    2.0531    1.3457   -3.6769 O   0  0  0  0  0  0  0  0  0  0  0  0
    1.0754   -0.9779   -2.4963 C   0  0  0  0  0  0  0  0  0  0  0  0
    0.3805   -2.2925   -1.4179 S   0  0  0  0  0  0  0  0  0  0  0  0
   -1.3166   -0.5148   -3.1291 H   0  0  0  0  0  0  0  0  0  0  0  0
    0.4929    0.5526   -1.1175 H   0  0  0  0  0  0  0  0  0  0  0  0
    0.9434   -1.2406   -3.5502 H   0  0  0  0  0  0  0  0  0  0  0  0
    2.1513   -0.9046   -2.3050 H   0  0  0  0  0  0  0  0  0  0  0  0
    0.6943    2.8463   -2.7111 N   0  0  0  0  0  0  0  0  0  0  0  0
    1.3140    4.0392   -3.3026 C   0  0  2  0  0  0  0  0  0  0  0  0
    1.1779    5.2841   -2.4009 C   0  0  0  0  0  0  0  0  0  0  0  0
    0.2748    5.3633   -1.5774 O   0  0  0  0  0  0  0  0  0  0  0  0
    0.6575    4.2953   -4.6624 C   0  0  0  0  0  0  0  0  0  0  0  0
   -0.0794    2.9840   -2.0493 H   0  0  0  0  0  0  0  0  0  0  0  0
    2.3846    3.8601   -3.4457 H   0  0  0  0  0  0  0  0  0  0  0  0
   -0.4127    4.4893   -4.5383 H   0  0  0  0  0  0  0  0  0  0  0  0
    1.1144    5.1603   -5.1520 H   0  0  0  0  0  0  0  0  0  0  0  0
    0.7808    3.4250   -5.3143 H   0  0  0  0  0  0  0  0  0  0  0  0
    2.0666    6.3366   -2.5287 N   0  0  0  0  0  0  0  0  0  0  0  0
    2.0002    7.5422   -1.7114 C   0  0  0  0  0  0  0  0  0  0  0  0
    2.8195    6.2392   -3.2034 H   0  0  0  0  0  0  0  0  0  0  0  0
    1.0463    8.0572   -1.8662 H   0  0  0  0  0  0  0  0  0  0  0  0
    2.0981    7.2922   -0.6497 H   0  0  0  0  0  0  0  0  0  0  0  0
    2.8099    8.2272   -1.9799 H   0  0  0  0  0  0  0  0  0  0  0  0
  1  2  2  0  0  0  0
  1  3  1  0  0  0  0
  1  7  1  0  0  0  0
  3  4  1  0  0  0  0
  3  5  1  0  0  0  0
  3  6  1  0  0  0  0
  7  8  1  0  0  0  0
  7 13  1  0  0  0  0
  8  9  1  0  0  0  0
  8 11  1  0  0  0  0
  8 14  1  0  0  0  0
  9 10  2  0  0  0  0
  9 17  1  0  0  0  0
 11 12  1  0  0  0  0
 11 15  1  0  0  0  0
 11 16  1  0  0  0  0
 12 44  1  0  0  0  0
 17 18  1  0  0  0  0
 17 19  1  0  0  0  0
 18 20  1  0  0  0  0
 18 21  1  0  0  0  0
 18 22  1  0  0  0  0
 23 24  2  0  0  0  0
 23 25  1  0  0  0  0
 23 29  1  0  0  0  0
 25 26  1  0  0  0  0
 25 27  1  0  0  0  0
 25 28  1  0  0  0  0
 29 30  1  0  0  0  0
 29 34  1  0  0  0  0
 30 31  1  0  0  0  0
 30 33  1  0  0  0  0
 30 35  1  0  0  0  0
 31 32  2  0  0  0  0
 31 39  1  0  0  0  0
 33 36  1  0  0  0  0
 33 37  1  0  0  0  0
 33 38  1  0  0  0  0
 39 40  1  0  0  0  0
 39 45  1  0  0  0  0
 40 41  1  0  0  0  0
 40 43  1  0  0  0  0
 40 46  1  0  0  0  0
 41 42  2  0  0  0  0
 41 49  1  0  0  0  0
 43 44  1  0  0  0  0
 43 47  1  0  0  0  0
 43 48  1  0  0  0  0
 49 50  1  0  0  0  0
 49 54  1  0  0  0  0
 50 51  1  0  0  0  0
 50 53  1  0  0  0  0
 50 55  1  0  0  0  0
 51 52  2  0  0  0  0
 51 59  1  0  0  0  0
 53 56  1  0  0  0  0
 53 57  1  0  0  0  0
 53 58  1  0  0  0  0
 59 60  1  0  0  0  0
 59 61  1  0  0  0  0
 60 62  1  0  0  0  0
 60 63  1  0  0  0  0
 60 64  1  0  0  0  0
M  END
$$$$

  -OEChem-05262216053D

 64 63  0     1  0  0  0  0  0999 V2000
    0.4011   -7.7672   -2.9411 C   0  0  0  0  0  0  0  0  0  0  0  0
   -0.6722   -7.6119   -3.5028 O   0  0  0  0  0  0  0  0  0  0  0  0
    0.6045   -8.9281   -1.9868 C   0  0  0  0  0  0  0  0  0  0  0  0
    0.8194   -8.5514   -0.9839 H   0  0  0  0  0  0  0  0  0  0  0  0
   -0.2982   -9.5434   -1.9464 H   0  0  0  0  0  0  0  0  0  0  0  0
    1.4387   -9.5482   -2.3233 H   0  0  0  0  0  0  0  0  0  0  0  0
    1.4291   -6.8820   -3.1779 N   0  0  0  0  0  0  0  0  0  0  0  0
    1.3582   -5.7523   -4.1149 C   0  0  2  0  0  0  0  0  0  0  0  0
    2.7559   -5.3376   -4.6248 C   0  0  0  0  0  0  0  0  0  0  0  0
    3.7586   -5.9145   -4.2165 O   0  0  0  0  0  0  0  0  0  0  0  0
    0.6434   -4.5742   -3.4342 C   0  0  0  0  0  0  0  0  0  0  0  0
    1.5832   -3.9672   -1.9745 S   0  0  0  0  0  0  0  0  0  0  0  0
    2.3378   -7.0814   -2.7612 H   0  0  0  0  0  0  0  0  0  0  0  0
    0.7791   -6.0547   -4.9937 H   0  0  0  0  0  0  0  0  0  0  0  0
    0.5168   -3.7560   -4.1478 H   0  0  0  0  0  0  0  0  0  0  0  0
   -0.3552   -4.8883   -3.1132 H   0  0  0  0  0  0  0  0  0  0  0  0
    2.8925   -4.3443   -5.5791 N   0  0  0  0  0  0  0  0  0  0  0  0
    4.1850   -3.8928   -6.0806 C   0  0  0  0  0  0  0  0  0  0  0  0
    2.0513   -3.8743   -5.8997 H   0  0  0  0  0  0  0  0  0  0  0  0
    4.7908   -3.4859   -5.2641 H   0  0  0  0  0  0  0  0  0  0  0  0
    4.7288   -4.7232   -6.5435 H   0  0  0  0  0  0  0  0  0  0  0  0
    4.0478   -3.1097   -6.8325 H   0  0  0  0  0  0  0  0  0  0  0  0
   -5.5978    1.4242   -1.1181 C   0  0  0  0  0  0  0  0  0  0  0  0
   -6.1398    0.4366   -1.5882 O   0  0  0  0  0  0  0  0  0  0  0  0
   -6.3248    2.2796   -0.0982 C   0  0  0  0  0  0  0  0  0  0  0  0
   -6.4097    3.3061   -0.4631 H   0  0  0  0  0  0  0  0  0  0  0  0
   -7.3289    1.8836    0.0774 H   0  0  0  0  0  0  0  0  0  0  0  0
   -5.7765    2.2800    0.8470 H   0  0  0  0  0  0  0  0  0  0  0  0
   -4.3170    1.7559   -1.5056 N   0  0  0  0  0  0  0  0  0  0  0  0
   -3.4640    0.9089   -2.3492 C   0  0  2  0  0  0  0  0  0  0  0  0
   -1.9714    1.0936   -2.0069 C   0  0  0  0  0  0  0  0  0  0  0  0
   -1.6081    2.0244   -1.2951 O   0  0  0  0  0  0  0  0  0  0  0  0
   -3.7258    1.2610   -3.8171 C   0  0  0  0  0  0  0  0  0  0  0  0
   -3.8567    2.5140   -1.0017 H   0  0  0  0  0  0  0  0  0  0  0  0
   -3.7100   -0.1453   -2.1806 H   0  0  0  0  0  0  0  0  0  0  0  0
   -3.4688    2.3071   -4.0114 H   0  0  0  0  0  0  0  0  0  0  0  0
   -3.1285    0.6263   -4.4785 H   0  0  0  0  0  0  0  0  0  0  0  0
   -4.7828    1.1111   -4.0597 H   0  0  0  0  0  0  0  0  0  0  0  0
   -1.0179    0.2188   -2.4927 N   0  0  0  0  0  0  0  0  0  0  0  0
    0.4138    0.3080   -2.1613 C   0  0  2  0  0  0  0  0  0  0  0  0
    1.1114    1.4668   -2.9134 C   0  0  0  0  0  0  0  0  0  0  0  0
    1.8570    1.2498   -3.8631 O   0  0  0  0  0  0  0  0  0  0  0  0
    1.0641   -1.0454   -2.4818 C   0  0  0  0  0  0  0  0  0  0  0  0
    0.3876   -2.3604   -1.3917 S   0  0  0  0  0  0  0  0  0  0  0  0
   -1.3463   -0.5887   -3.0145 H   0  0  0  0  0  0  0  0  0  0  0  0
    0.5362    0.4957   -1.0886 H   0  0  0  0  0  0  0  0  0  0  0  0
    0.9017   -1.3048   -3.5324 H   0  0  0  0  0  0  0  0  0  0  0  0
    2.1452   -0.9779   -2.3202 H   0  0  0  0  0  0  0  0  0  0  0  0
    0.9049    2.7707   -2.5094 N   0  0  0  0  0  0  0  0  0  0  0  0
    1.5134    3.9590   -3.1201 C   0  0  2  0  0  0  0  0  0  0  0  0
    1.7275    5.0974   -2.0995 C   0  0  0  0  0  0  0  0  0  0  0  0
    1.0413    5.1651   -1.0870 O   0  0  0  0  0  0  0  0  0  0  0  0
    0.6015    4.4296   -4.2572 C   0  0  0  0  0  0  0  0  0  0  0  0
    0.2128    2.9167   -1.7662 H   0  0  0  0  0  0  0  0  0  0  0  0
    2.4954    3.6981   -3.5282 H   0  0  0  0  0  0  0  0  0  0  0  0
   -0.3864    4.6972   -3.8680 H   0  0  0  0  0  0  0  0  0  0  0  0
    1.0287    5.3055   -4.7545 H   0  0  0  0  0  0  0  0  0  0  0  0
    0.4794    3.6358   -5.0008 H   0  0  0  0  0  0  0  0  0  0  0  0
    2.6905    6.0649   -2.3246 N   0  0  0  0  0  0  0  0  0  0  0  0
    2.9576    7.1558   -1.3948 C   0  0  0  0  0  0  0  0  0  0  0  0
    3.2699    5.9712   -3.1535 H   0  0  0  0  0  0  0  0  0  0  0  0
    2.0583    7.7632   -1.2488 H   0  0  0  0  0  0  0  0  0  0  0  0
    3.2785    6.7631   -0.4244 H   0  0  0  0  0  0  0  0  0  0  0  0
    3.7502    7.8009   -1.7851 H   0  0  0  0  0  0  0  0  0  0  0  0
  1  2  2  0  0  0  0
  1  3  1  0  0  0  0
  1  7  1  0  0  0  0
  3  4  1  0  0  0  0
  3  5  1  0  0  0  0
  3  6  1  0  0  0  0
  7  8  1  0  0  0  0
  7 13  1  0  0  0  0
  8  9  1  0  0  0  0
  8 11  1  0  0  0  0
  8 14  1  0  0  0  0
  9 10  2  0  0  0  0
  9 17  1  0  0  0  0
 11 12  1  0  0  0  0
 11 15  1  0  0  0  0
 11 16  1  0  0  0  0
 12 44  1  0  0  0  0
 17 18  1  0  0  0  0
 17 19  1  0  0  0  0
 18 20  1  0  0  0  0
 18 21  1  0  0  0  0
 18 22  1  0  0  0  0
 23 24  2  0  0  0  0
 23 25  1  0  0  0  0
 23 29  1  0  0  0  0
 25 26  1  0  0  0  0
 25 27  1  0  0  0  0
 25 28  1  0  0  0  0
 29 30  1  0  0  0  0
 29 34  1  0  0  0  0
 30 31  1  0  0  0  0
 30 33  1  0  0  0  0
 30 35  1  0  0  0  0
 31 32  2  0  0  0  0
 31 39  1  0  0  0  0
 33 36  1  0  0  0  0
 33 37  1  0  0  0  0
 33 38  1  0  0  0  0
 39 40  1  0  0  0  0
 39 45  1  0  0  0  0
 40 41  1  0  0  0  0
 40 43  1  0  0  0  0
 40 46  1  0  0  0  0
 41 42  2  0  0  0  0
 41 49  1  0  0  0  0
 43 44  1  0  0  0  0
 43 47  1  0  0  0  0
 43 48  1  0  0  0  0
 49 50  1  0  0  0  0
 49 54  1  0  0  0  0
 50 51  1  0  0  0  0
 50 53  1  0  0  0  0
 50 55  1  0  0  0  0
 51 52  2  0  0  0  0
 51 59  1  0  0  0  0
 53 56  1  0  0  0  0
 53 57  1  0  0  0  0
 53 58  1  0  0  0  0
 59 60  1  0  0  0  0
 59 61  1  0  0  0  0
 60 62  1  0  0  0  0
 60 63  1  0  0  0  0
 60 64  1  0  0  0  0
M  END
$$$$

  -OEChem-05262216053D

 64 63  0     1  0  0  0  0  0999 V2000
    0.4053   -7.7822   -2.9810 C   0  0  0  0  0  0  0  0  0  0  0  0
   -0.6714   -7.6119   -3.5317 O   0  0  0  0  0  0  0  0  0  0  0  0
    0.6106   -8.9601   -2.0480 C   0  0  0  0  0  0  0  0  0  0  0  0
    0.8828   -8.6032   -1.0517 H   0  0  0  0  0  0  0  0  0  0  0  0
   -0.3093   -9.5466   -1.9730 H   0  0  0  0  0  0  0  0  0  0  0  0
    1.4085   -9.6024   -2.4282 H   0  0  0  0  0  0  0  0  0  0  0  0
    1.4377   -6.9010   -3.2151 N   0  0  0  0  0  0  0  0  0  0  0  0
    1.3645   -5.7501   -4.1254 C   0  0  2  0  0  0  0  0  0  0  0  0
    2.7628   -5.3142   -4.6163 C   0  0  0  0  0  0  0  0  0  0  0  0
    3.7676   -5.8844   -4.2038 O   0  0  0  0  0  0  0  0  0  0  0  0
    0.6402   -4.5926   -3.4206 C   0  0  0  0  0  0  0  0  0  0  0  0
    1.5657   -4.0195   -1.9375 S   0  0  0  0  0  0  0  0  0  0  0  0
    2.3445   -7.1026   -2.7952 H   0  0  0  0  0  0  0  0  0  0  0  0
    0.7912   -6.0355   -5.0136 H   0  0  0  0  0  0  0  0  0  0  0  0
    0.5166   -3.7573   -4.1149 H   0  0  0  0  0  0  0  0  0  0  0  0
   -0.3598   -4.9179   -3.1160 H   0  0  0  0  0  0  0  0  0  0  0  0
    2.9001   -4.3074   -5.5561 N   0  0  0  0  0  0  0  0  0  0  0  0
    4.1927   -3.8463   -6.0493 C   0  0  0  0  0  0  0  0  0  0  0  0
    2.0572   -3.8503   -5.8905 H   0  0  0  0  0  0  0  0  0  0  0  0
    4.8133   -3.4870   -5.2215 H   0  0  0  0  0  0  0  0  0  0  0  0
    4.7210   -4.6593   -6.5585 H   0  0  0  0  0  0  0  0  0  0  0  0
    4.0557   -3.0251   -6.7596 H   0  0  0  0  0  0  0  0  0  0  0  0
   -5.5593    1.5389   -1.1102 C   0  0  0  0  0  0  0  0  0  0  0  0
   -6.1311    0.5600   -1.5628 O   0  0  0  0  0  0  0  0  0  0  0  0
   -6.2611    2.4392   -0.1117 C   0  0  0  0  0  0  0  0  0  0  0  0
   -6.2469    3.4726   -0.4659 H   0  0  0  0  0  0  0  0  0  0  0  0
   -7.3006    2.1242    0.0135 H   0  0  0  0  0  0  0  0  0  0  0  0
   -5.7568    2.3856    0.8560 H   0  0  0  0  0  0  0  0  0  0  0  0
   -4.2656    1.8185   -1.4954 N   0  0  0  0  0  0  0  0  0  0  0  0
   -3.4370    0.9313   -2.3218 C   0  0  2  0  0  0  0  0  0  0  0  0
   -1.9393    1.0861   -1.9872 C   0  0  0  0  0  0  0  0  0  0  0  0
   -1.5488    2.0251   -1.2996 O   0  0  0  0  0  0  0  0  0  0  0  0
   -3.6918    1.2586   -3.7963 C   0  0  0  0  0  0  0  0  0  0  0  0
   -3.7842    2.5745   -1.0088 H   0  0  0  0  0  0  0  0  0  0  0  0
   -3.7098   -0.1123   -2.1296 H   0  0  0  0  0  0  0  0  0  0  0  0
   -3.4204    2.2973   -4.0101 H   0  0  0  0  0  0  0  0  0  0  0  0
   -3.1018    0.6033   -4.4440 H   0  0  0  0  0  0  0  0  0  0  0  0
   -4.7501    1.1182   -4.0377 H   0  0  0  0  0  0  0  0  0  0  0  0
   -1.0090    0.1794   -2.4587 N   0  0  0  0  0  0  0  0  0  0  0  0
    0.4199    0.2503   -2.1197 C   0  0  2  0  0  0  0  0  0  0  0  0
    1.1316    1.3845   -2.8899 C   0  0  0  0  0  0  0  0  0  0  0  0
    1.6863    1.1698   -3.9632 O   0  0  0  0  0  0  0  0  0  0  0  0
    1.0629   -1.1063   -2.4316 C   0  0  0  0  0  0  0  0  0  0  0  0
    0.3719   -2.4160   -1.3458 S   0  0  0  0  0  0  0  0  0  0  0  0
   -1.3545   -0.6356   -2.9577 H   0  0  0  0  0  0  0  0  0  0  0  0
    0.5410    0.4454   -1.0483 H   0  0  0  0  0  0  0  0  0  0  0  0
    0.9033   -1.3668   -3.4824 H   0  0  0  0  0  0  0  0  0  0  0  0
    2.1435   -1.0426   -2.2662 H   0  0  0  0  0  0  0  0  0  0  0  0
    1.1941    2.6474   -2.3369 N   0  0  0  0  0  0  0  0  0  0  0  0
    1.8601    3.8061   -2.9429 C   0  0  2  0  0  0  0  0  0  0  0  0
    2.3595    4.8109   -1.8827 C   0  0  0  0  0  0  0  0  0  0  0  0
    1.8918    4.8088   -0.7502 O   0  0  0  0  0  0  0  0  0  0  0  0
    0.8710    4.4832   -3.8967 C   0  0  0  0  0  0  0  0  0  0  0  0
    0.6242    2.8119   -1.5024 H   0  0  0  0  0  0  0  0  0  0  0  0
    2.7345    3.4687   -3.5088 H   0  0  0  0  0  0  0  0  0  0  0  0
   -0.0125    4.8272   -3.3492 H   0  0  0  0  0  0  0  0  0  0  0  0
    1.3363    5.3447   -4.3843 H   0  0  0  0  0  0  0  0  0  0  0  0
    0.5483    3.7809   -4.6716 H   0  0  0  0  0  0  0  0  0  0  0  0
    3.3399    5.7326   -2.2034 N   0  0  0  0  0  0  0  0  0  0  0  0
    3.8649    6.7056   -1.2525 C   0  0  0  0  0  0  0  0  0  0  0  0
    3.7222    5.7071   -3.1439 H   0  0  0  0  0  0  0  0  0  0  0  0
    3.0708    7.3813   -0.9177 H   0  0  0  0  0  0  0  0  0  0  0  0
    4.2884    6.1990   -0.3786 H   0  0  0  0  0  0  0  0  0  0  0  0
    4.6533    7.3038   -1.7193 H   0  0  0  0  0  0  0  0  0  0  0  0
  1  2  2  0  0  0  0
  1  3  1  0  0  0  0
  1  7  1  0  0  0  0
  3  4  1  0  0  0  0
  3  5  1  0  0  0  0
  3  6  1  0  0  0  0
  7  8  1  0  0  0  0
  7 13  1  0  0  0  0
  8  9  1  0  0  0  0
  8 11  1  0  0  0  0
  8 14  1  0  0  0  0
  9 10  2  0  0  0  0
  9 17  1  0  0  0  0
 11 12  1  0  0  0  0
 11 15  1  0  0  0  0
 11 16  1  0  0  0  0
 12 44  1  0  0  0  0
 17 18  1  0  0  0  0
 17 19  1  0  0  0  0
 18 20  1  0  0  0  0
 18 21  1  0  0  0  0
 18 22  1  0  0  0  0
 23 24  2  0  0  0  0
 23 25  1  0  0  0  0
 23 29  1  0  0  0  0
 25 26  1  0  0  0  0
 25 27  1  0  0  0  0
 25 28  1  0  0  0  0
 29 30  1  0  0  0  0
 29 34  1  0  0  0  0
 30 31  1  0  0  0  0
 30 33  1  0  0  0  0
 30 35  1  0  0  0  0
 31 32  2  0  0  0  0
 31 39  1  0  0  0  0
 33 36  1  0  0  0  0
 33 37  1  0  0  0  0
 33 38  1  0  0  0  0
 39 40  1  0  0  0  0
 39 45  1  0  0  0  0
 40 41  1  0  0  0  0
 40 43  1  0  0  0  0
 40 46  1  0  0  0  0
 41 42  2  0  0  0  0
 41 49  1  0  0  0  0
 43 44  1  0  0  0  0
 43 47  1  0  0  0  0
 43 48  1  0  0  0  0
 49 50  1  0  0  0  0
 49 54  1  0  0  0  0
 50 51  1  0  0  0  0
 50 53  1  0  0  0  0
 50 55  1  0  0  0  0
 51 52  2  0  0  0  0
 51 59  1  0  0  0  0
 53 56  1  0  0  0  0
 53 57  1  0  0  0  0
 53 58  1  0  0  0  0
 59 60  1  0  0  0  0
 59 61  1  0  0  0  0
 60 62  1  0  0  0  0
 60 63  1  0  0  0  0
 60 64  1  0  0  0  0
M  END
$$$$

  -OEChem-05262216053D

 64 63  0     1  0  0  0  0  0999 V2000
    0.4344   -7.8093   -2.9290 C   0  0  0  0  0  0  0  0  0  0  0  0
   -0.6564   -7.6542   -3.4557 O   0  0  0  0  0  0  0  0  0  0  0  0
    0.6734   -8.9770   -1.9907 C   0  0  0  0  0  0  0  0  0  0  0  0
    1.0092   -8.6100   -1.0175 H   0  0  0  0  0  0  0  0  0  0  0  0
   -0.2513   -9.5445   -1.8534 H   0  0  0  0  0  0  0  0  0  0  0  0
    1.4363   -9.6403   -2.4055 H   0  0  0  0  0  0  0  0  0  0  0  0
    1.4509   -6.9184   -3.1926 N   0  0  0  0  0  0  0  0  0  0  0  0
    1.3387   -5.7680   -4.1003 C   0  0  2  0  0  0  0  0  0  0  0  0
    2.7157   -5.3160   -4.6346 C   0  0  0  0  0  0  0  0  0  0  0  0
    3.7395   -5.8756   -4.2560 O   0  0  0  0  0  0  0  0  0  0  0  0
    0.6250   -4.6179   -3.3724 C   0  0  0  0  0  0  0  0  0  0  0  0
    1.5878   -4.0469   -1.9125 S   0  0  0  0  0  0  0  0  0  0  0  0
    2.3692   -7.1070   -2.7925 H   0  0  0  0  0  0  0  0  0  0  0  0
    0.7424   -6.0589   -4.9716 H   0  0  0  0  0  0  0  0  0  0  0  0
    0.4769   -3.7806   -4.0596 H   0  0  0  0  0  0  0  0  0  0  0  0
   -0.3643   -4.9507   -3.0417 H   0  0  0  0  0  0  0  0  0  0  0  0
    2.8109   -4.3058   -5.5761 N   0  0  0  0  0  0  0  0  0  0  0  0
    4.0808   -3.8393   -6.1202 C   0  0  0  0  0  0  0  0  0  0  0  0
    1.9513   -3.8641   -5.8880 H   0  0  0  0  0  0  0  0  0  0  0  0
    4.7338   -3.4825   -5.3166 H   0  0  0  0  0  0  0  0  0  0  0  0
    4.5888   -4.6495   -6.6537 H   0  0  0  0  0  0  0  0  0  0  0  0
    3.9148   -3.0152   -6.8208 H   0  0  0  0  0  0  0  0  0  0  0  0
   -5.5703    1.5451   -1.2098 C   0  0  0  0  0  0  0  0  0  0  0  0
   -6.1360    0.6136   -1.7598 O   0  0  0  0  0  0  0  0  0  0  0  0
   -6.3086    2.3903   -0.1890 C   0  0  0  0  0  0  0  0  0  0  0  0
   -6.2456    3.4464   -0.4625 H   0  0  0  0  0  0  0  0  0  0  0  0
   -7.3622    2.0992   -0.1491 H   0  0  0  0  0  0  0  0  0  0  0  0
   -5.8658    2.2497    0.8003 H   0  0  0  0  0  0  0  0  0  0  0  0
   -4.2513    1.8184   -1.5040 N   0  0  0  0  0  0  0  0  0  0  0  0
   -3.3993    0.9676   -2.3454 C   0  0  2  0  0  0  0  0  0  0  0  0
   -1.9155    1.0685   -1.9366 C   0  0  0  0  0  0  0  0  0  0  0  0
   -1.5311    1.9746   -1.2037 O   0  0  0  0  0  0  0  0  0  0  0  0
   -3.5773    1.3857   -3.8086 C   0  0  0  0  0  0  0  0  0  0  0  0
   -3.7825    2.5304   -0.9443 H   0  0  0  0  0  0  0  0  0  0  0  0
   -3.6999   -0.0795   -2.2300 H   0  0  0  0  0  0  0  0  0  0  0  0
   -3.2728    2.4279   -3.9487 H   0  0  0  0  0  0  0  0  0  0  0  0
   -2.9715    0.7538   -4.4651 H   0  0  0  0  0  0  0  0  0  0  0  0
   -4.6257    1.2852   -4.1074 H   0  0  0  0  0  0  0  0  0  0  0  0
   -0.9894    0.1528   -2.3974 N   0  0  0  0  0  0  0  0  0  0  0  0
    0.4401    0.2246   -2.0646 C   0  0  2  0  0  0  0  0  0  0  0  0
    1.1480    1.3451   -2.8549 C   0  0  0  0  0  0  0  0  0  0  0  0
    1.4524    1.1783   -4.0318 O   0  0  0  0  0  0  0  0  0  0  0  0
    1.0896   -1.1286   -2.3749 C   0  0  0  0  0  0  0  0  0  0  0  0
    0.4117   -2.4425   -1.2862 S   0  0  0  0  0  0  0  0  0  0  0  0
   -1.3164   -0.5902   -3.0080 H   0  0  0  0  0  0  0  0  0  0  0  0
    0.5645    0.4263   -0.9950 H   0  0  0  0  0  0  0  0  0  0  0  0
    0.9270   -1.3928   -3.4243 H   0  0  0  0  0  0  0  0  0  0  0  0
    2.1704   -1.0588   -2.2144 H   0  0  0  0  0  0  0  0  0  0  0  0
    1.4980    2.5232   -2.2264 N   0  0  0  0  0  0  0  0  0  0  0  0
    2.2154    3.6376   -2.8571 C   0  0  2  0  0  0  0  0  0  0  0  0
    3.0328    4.4524   -1.8323 C   0  0  0  0  0  0  0  0  0  0  0  0
    2.8197    4.3342   -0.6312 O   0  0  0  0  0  0  0  0  0  0  0  0
    1.1877    4.5326   -3.5570 C   0  0  0  0  0  0  0  0  0  0  0  0
    1.1756    2.6568   -1.2667 H   0  0  0  0  0  0  0  0  0  0  0  0
    2.9201    3.2468   -3.5985 H   0  0  0  0  0  0  0  0  0  0  0  0
    0.4758    4.9361   -2.8293 H   0  0  0  0  0  0  0  0  0  0  0  0
    1.6828    5.3679   -4.0612 H   0  0  0  0  0  0  0  0  0  0  0  0
    0.6322    3.9593   -4.3060 H   0  0  0  0  0  0  0  0  0  0  0  0
    4.0212    5.3210   -2.2588 N   0  0  0  0  0  0  0  0  0  0  0  0
    4.8369    6.1131   -1.3457 C   0  0  0  0  0  0  0  0  0  0  0  0
    4.1892    5.3924   -3.2580 H   0  0  0  0  0  0  0  0  0  0  0  0
    4.2060    6.7818   -0.7502 H   0  0  0  0  0  0  0  0  0  0  0  0
    5.3969    5.4605   -0.6672 H   0  0  0  0  0  0  0  0  0  0  0  0
    5.5515    6.7223   -1.9079 H   0  0  0  0  0  0  0  0  0  0  0  0
  1  2  2  0  0  0  0
  1  3  1  0  0  0  0
  1  7  1  0  0  0  0
  3  4  1  0  0  0  0
  3  5  1  0  0  0  0
  3  6  1  0  0  0  0
  7  8  1  0  0  0  0
  7 13  1  0  0  0  0
  8  9  1  0  0  0  0
  8 11  1  0  0  0  0
  8 14  1  0  0  0  0
  9 10  2  0  0  0  0
  9 17  1  0  0  0  0
 11 12  1  0  0  0  0
 11 15  1  0  0  0  0
 11 16  1  0  0  0  0
 12 44  1  0  0  0  0
 17 18  1  0  0  0  0
 17 19  1  0  0  0  0
 18 20  1  0  0  0  0
 18 21  1  0  0  0  0
 18 22  1  0  0  0  0
 23 24  2  0  0  0  0
 23 25  1  0  0  0  0
 23 29  1  0  0  0  0
 25 26  1  0  0  0  0
 25 27  1  0  0  0  0
 25 28  1  0  0  0  0
 29 30  1  0  0  0  0
 29 34  1  0  0  0  0
 30 31  1  0  0  0  0
 30 33  1  0  0  0  0
 30 35  1  0  0  0  0
 31 32  2  0  0  0  0
 31 39  1  0  0  0  0
 33 36  1  0  0  0  0
 33 37  1  0  0  0  0
 33 38  1  0  0  0  0
 39 40  1  0  0  0  0
 39 45  1  0  0  0  0
 40 41  1  0  0  0  0
 40 43  1  0  0  0  0
 40 46  1  0  0  0  0
 41 42  2  0  0  0  0
 41 49  1  0  0  0  0
 43 44  1  0  0  0  0
 43 47  1  0  0  0  0
 43 48  1  0  0  0  0
 49 50  1  0  0  0  0
 49 54  1  0  0  0  0
 50 51  1  0  0  0  0
 50 53  1  0  0  0  0
 50 55  1  0  0  0  0
 51 52  2  0  0  0  0
 51 59  1  0  0  0  0
 53 56  1  0  0  0  0
 53 57  1  0  0  0  0
 53 58  1  0  0  0  0
 59 60  1  0  0  0  0
 59 61  1  0  0  0  0
 60 62  1  0  0  0  0
 60 63  1  0  0  0  0
 60 64  1  0  0  0  0
M  END
$$$$

  -OEChem-05262216053D

 64 63  0     1  0  0  0  0  0999 V2000
    0.4581   -7.8087   -2.8361 C   0  0  0  0  0  0  0  0  0  0  0  0
   -0.6554   -7.6622   -3.3157 O   0  0  0  0  0  0  0  0  0  0  0  0
    0.7397   -8.9599   -1.8900 C   0  0  0  0  0  0  0  0  0  0  0  0
    1.0833   -8.5746   -0.9268 H   0  0  0  0  0  0  0  0  0  0  0  0
   -0.1683   -9.5484   -1.7302 H   0  0  0  0  0  0  0  0  0  0  0  0
    1.5115   -9.6083   -2.3115 H   0  0  0  0  0  0  0  0  0  0  0  0
    1.4623   -6.9234   -3.1589 N   0  0  0  0  0  0  0  0  0  0  0  0
    1.3085   -5.7799   -4.0684 C   0  0  2  0  0  0  0  0  0  0  0  0
    2.6617   -5.3299   -4.6620 C   0  0  0  0  0  0  0  0  0  0  0  0
    3.7047   -5.8649   -4.3005 O   0  0  0  0  0  0  0  0  0  0  0  0
    0.6227   -4.6252   -3.3205 C   0  0  0  0  0  0  0  0  0  0  0  0
    1.6382   -4.0440   -1.9006 S   0  0  0  0  0  0  0  0  0  0  0  0
    2.3961   -7.1028   -2.7916 H   0  0  0  0  0  0  0  0  0  0  0  0
    0.6761   -6.0784   -4.9110 H   0  0  0  0  0  0  0  0  0  0  0  0
    0.4486   -3.7920   -4.0065 H   0  0  0  0  0  0  0  0  0  0  0  0
   -0.3537   -4.9564   -2.9518 H   0  0  0  0  0  0  0  0  0  0  0  0
    2.7134   -4.3482   -5.6365 N   0  0  0  0  0  0  0  0  0  0  0  0
    3.9590   -3.8772   -6.2310 C   0  0  0  0  0  0  0  0  0  0  0  0
    1.8377   -3.9317   -5.9383 H   0  0  0  0  0  0  0  0  0  0  0  0
    4.6253   -3.4782   -5.4587 H   0  0  0  0  0  0  0  0  0  0  0  0
    4.4707   -4.6948   -6.7498 H   0  0  0  0  0  0  0  0  0  0  0  0
    3.7555   -3.0825   -6.9554 H   0  0  0  0  0  0  0  0  0  0  0  0
   -5.5851    1.4915   -1.3123 C   0  0  0  0  0  0  0  0  0  0  0  0
   -6.1266    0.6039   -1.9519 O   0  0  0  0  0  0  0  0  0  0  0  0
   -6.3750    2.2835   -0.2878 C   0  0  0  0  0  0  0  0  0  0  0  0
   -6.2786    3.3536   -0.4869 H   0  0  0  0  0  0  0  0  0  0  0  0
   -7.4329    2.0103   -0.3360 H   0  0  0  0  0  0  0  0  0  0  0  0
   -6.0004    2.0713    0.7167 H   0  0  0  0  0  0  0  0  0  0  0  0
   -4.2503    1.7699   -1.5152 N   0  0  0  0  0  0  0  0  0  0  0  0
   -3.3611    0.9861   -2.3815 C   0  0  2  0  0  0  0  0  0  0  0  0
   -1.9017    1.0377   -1.8861 C   0  0  0  0  0  0  0  0  0  0  0  0
   -1.5420    1.9030   -1.0937 O   0  0  0  0  0  0  0  0  0  0  0  0
   -3.4593    1.5364   -3.8081 C   0  0  0  0  0  0  0  0  0  0  0  0
   -3.8091    2.4468   -0.8933 H   0  0  0  0  0  0  0  0  0  0  0  0
   -3.6716   -0.0646   -2.3748 H   0  0  0  0  0  0  0  0  0  0  0  0
   -3.1665    2.5909   -3.8313 H   0  0  0  0  0  0  0  0  0  0  0  0
   -2.8037    0.9788   -4.4836 H   0  0  0  0  0  0  0  0  0  0  0  0
   -4.4859    1.4515   -4.1779 H   0  0  0  0  0  0  0  0  0  0  0  0
   -0.9714    0.1257   -2.3442 N   0  0  0  0  0  0  0  0  0  0  0  0
    0.4599    0.2182   -2.0239 C   0  0  2  0  0  0  0  0  0  0  0  0
    1.1458    1.3357   -2.8341 C   0  0  0  0  0  0  0  0  0  0  0  0
    1.1877    1.2654   -4.0584 O   0  0  0  0  0  0  0  0  0  0  0  0
    1.1290   -1.1249   -2.3329 C   0  0  0  0  0  0  0  0  0  0  0  0
    0.4805   -2.4434   -1.2322 S   0  0  0  0  0  0  0  0  0  0  0  0
   -1.2684   -0.5258   -3.0646 H   0  0  0  0  0  0  0  0  0  0  0  0
    0.5890    0.4326   -0.9571 H   0  0  0  0  0  0  0  0  0  0  0  0
    0.9588   -1.3968   -3.3790 H   0  0  0  0  0  0  0  0  0  0  0  0
    2.2103   -1.0393   -2.1836 H   0  0  0  0  0  0  0  0  0  0  0  0
    1.7655    2.3901   -2.1934 N   0  0  0  0  0  0  0  0  0  0  0  0
    2.5247    3.4542   -2.8611 C   0  0  2  0  0  0  0  0  0  0  0  0
    3.6492    4.0069   -1.9598 C   0  0  0  0  0  0  0  0  0  0  0  0
    3.6661    3.7460   -0.7622 O   0  0  0  0  0  0  0  0  0  0  0  0
    1.5472    4.5693   -3.2456 C   0  0  0  0  0  0  0  0  0  0  0  0
    1.7307    2.4137   -1.1739 H   0  0  0  0  0  0  0  0  0  0  0  0
    2.9972    3.0574   -3.7658 H   0  0  0  0  0  0  0  0  0  0  0  0
    1.0693    4.9822   -2.3512 H   0  0  0  0  0  0  0  0  0  0  0  0
    2.0690    5.3775   -3.7665 H   0  0  0  0  0  0  0  0  0  0  0  0
    0.7673    4.1796   -3.9077 H   0  0  0  0  0  0  0  0  0  0  0  0
    4.6522    4.7957   -2.4933 N   0  0  0  0  0  0  0  0  0  0  0  0
    5.7337    5.3618   -1.6951 C   0  0  0  0  0  0  0  0  0  0  0  0
    4.6142    5.0001   -3.4876 H   0  0  0  0  0  0  0  0  0  0  0  0
    5.3356    6.0609   -0.9520 H   0  0  0  0  0  0  0  0  0  0  0  0
    6.2828    4.5700   -1.1744 H   0  0  0  0  0  0  0  0  0  0  0  0
    6.4360    5.9020   -2.3374 H   0  0  0  0  0  0  0  0  0  0  0  0
  1  2  2  0  0  0  0
  1  3  1  0  0  0  0
  1  7  1  0  0  0  0
  3  4  1  0  0  0  0
  3  5  1  0  0  0  0
  3  6  1  0  0  0  0
  7  8  1  0  0  0  0
  7 13  1  0  0  0  0
  8  9  1  0  0  0  0
  8 11  1  0  0  0  0
  8 14  1  0  0  0  0
  9 10  2  0  0  0  0
  9 17  1  0  0  0  0
 11 12  1  0  0  0  0
 11 15  1  0  0  0  0
 11 16  1  0  0  0  0
 12 44  1  0  0  0  0
 17 18  1  0  0  0  0
 17 19  1  0  0  0  0
 18 20  1  0  0  0  0
 18 21  1  0  0  0  0
 18 22  1  0  0  0  0
 23 24  2  0  0  0  0
 23 25  1  0  0  0  0
 23 29  1  0  0  0  0
 25 26  1  0  0  0  0
 25 27  1  0  0  0  0
 25 28  1  0  0  0  0
 29 30  1  0  0  0  0
 29 34  1  0  0  0  0
 30 31  1  0  0  0  0
 30 33  1  0  0  0  0
 30 35  1  0  0  0  0
 31 32  2  0  0  0  0
 31 39  1  0  0  0  0
 33 36  1  0  0  0  0
 33 37  1  0  0  0  0
 33 38  1  0  0  0  0
 39 40  1  0  0  0  0
 39 45  1  0  0  0  0
 40 41  1  0  0  0  0
 40 43  1  0  0  0  0
 40 46  1  0  0  0  0
 41 42  2  0  0  0  0
 41 49  1  0  0  0  0
 43 44  1  0  0  0  0
 43 47  1  0  0  0  0
 43 48  1  0  0  0  0
 49 50  1  0  0  0  0
 49 54  1  0  0  0  0
 50 51  1  0  0  0  0
 50 53  1  0  0  0  0
 50 55  1  0  0  0  0
 51 52  2  0  0  0  0
 51 59  1  0  0  0  0
 53 56  1  0  0  0  0
 53 57  1  0  0  0  0
 53 58  1  0  0  0  0
 59 60  1  0  0  0  0
 59 61  1  0  0  0  0
 60 62  1  0  0  0  0
 60 63  1  0  0  0  0
 60 64  1  0  0  0  0
M  END
$$$$

  -OEChem-05262216053D

 64 63  0     1  0  0  0  0  0999 V2000
    0.4607   -7.7537   -2.6762 C   0  0  0  0  0  0  0  0  0  0  0  0
   -0.6692   -7.6237   -3.1207 O   0  0  0  0  0  0  0  0  0  0  0  0
    0.7723   -8.8637   -1.6909 C   0  0  0  0  0  0  0  0  0  0  0  0
    1.2158   -8.4445   -0.7842 H   0  0  0  0  0  0  0  0  0  0  0  0
   -0.1452   -9.3942   -1.4211 H   0  0  0  0  0  0  0  0  0  0  0  0
    1.4730   -9.5734   -2.1371 H   0  0  0  0  0  0  0  0  0  0  0  0
    1.4540   -6.8875   -3.0759 N   0  0  0  0  0  0  0  0  0  0  0  0
    1.2662   -5.7812   -4.0245 C   0  0  2  0  0  0  0  0  0  0  0  0
    2.5959   -5.3593   -4.6865 C   0  0  0  0  0  0  0  0  0  0  0  0
    3.6485   -5.8976   -4.3601 O   0  0  0  0  0  0  0  0  0  0  0  0
    0.6119   -4.5955   -3.2967 C   0  0  0  0  0  0  0  0  0  0  0  0
    1.6808   -3.9695   -1.9368 S   0  0  0  0  0  0  0  0  0  0  0  0
    2.4017   -7.0554   -2.7399 H   0  0  0  0  0  0  0  0  0  0  0  0
    0.6015   -6.1119   -4.8296 H   0  0  0  0  0  0  0  0  0  0  0  0
    0.4143   -3.7863   -4.0049 H   0  0  0  0  0  0  0  0  0  0  0  0
   -0.3508   -4.9086   -2.8795 H   0  0  0  0  0  0  0  0  0  0  0  0
    2.6136   -4.3978   -5.6820 N   0  0  0  0  0  0  0  0  0  0  0  0
    3.8357   -3.9545   -6.3414 C   0  0  0  0  0  0  0  0  0  0  0  0
    1.7309   -3.9715   -5.9465 H   0  0  0  0  0  0  0  0  0  0  0  0
    4.5302   -3.5253   -5.6113 H   0  0  0  0  0  0  0  0  0  0  0  0
    4.3263   -4.7948   -6.8439 H   0  0  0  0  0  0  0  0  0  0  0  0
    3.6062   -3.1906   -7.0906 H   0  0  0  0  0  0  0  0  0  0  0  0
   -5.6044    1.2825   -1.3926 C   0  0  0  0  0  0  0  0  0  0  0  0
   -6.0816    0.4287   -2.1230 O   0  0  0  0  0  0  0  0  0  0  0  0
   -6.4451    1.8930   -0.2877 C   0  0  0  0  0  0  0  0  0  0  0  0
   -6.5925    2.9589   -0.4773 H   0  0  0  0  0  0  0  0  0  0  0  0
   -7.4217    1.4029   -0.2448 H   0  0  0  0  0  0  0  0  0  0  0  0
   -5.9454    1.7659    0.6757 H   0  0  0  0  0  0  0  0  0  0  0  0
   -4.2957    1.6823   -1.5625 N   0  0  0  0  0  0  0  0  0  0  0  0
   -3.3497    1.0394   -2.4839 C   0  0  2  0  0  0  0  0  0  0  0  0
   -1.9100    1.0654   -1.9322 C   0  0  0  0  0  0  0  0  0  0  0  0
   -1.5849    1.8876   -1.0814 O   0  0  0  0  0  0  0  0  0  0  0  0
   -3.4172    1.7612   -3.8330 C   0  0  0  0  0  0  0  0  0  0  0  0
   -3.9033    2.3164   -0.8675 H   0  0  0  0  0  0  0  0  0  0  0  0
   -3.6269   -0.0112   -2.6232 H   0  0  0  0  0  0  0  0  0  0  0  0
   -3.1418    2.8147   -3.7183 H   0  0  0  0  0  0  0  0  0  0  0  0
   -2.7327    1.2994   -4.5513 H   0  0  0  0  0  0  0  0  0  0  0  0
   -4.4321    1.7082   -4.2402 H   0  0  0  0  0  0  0  0  0  0  0  0
   -0.9660    0.1698   -2.3958 N   0  0  0  0  0  0  0  0  0  0  0  0
    0.4636    0.2916   -2.0740 C   0  0  2  0  0  0  0  0  0  0  0  0
    1.1376    1.4219   -2.8759 C   0  0  0  0  0  0  0  0  0  0  0  0
    0.9785    1.4852   -4.0908 O   0  0  0  0  0  0  0  0  0  0  0  0
    1.1610   -1.0381   -2.3782 C   0  0  0  0  0  0  0  0  0  0  0  0
    0.5331   -2.3617   -1.2700 S   0  0  0  0  0  0  0  0  0  0  0  0
   -1.2279   -0.3922   -3.2001 H   0  0  0  0  0  0  0  0  0  0  0  0
    0.5833    0.5088   -1.0070 H   0  0  0  0  0  0  0  0  0  0  0  0
    0.9977   -1.3170   -3.4235 H   0  0  0  0  0  0  0  0  0  0  0  0
    2.2406   -0.9333   -2.2264 H   0  0  0  0  0  0  0  0  0  0  0  0
    1.9937    2.3098   -2.2547 N   0  0  0  0  0  0  0  0  0  0  0  0
    2.8249    3.3022   -2.9475 C   0  0  2  0  0  0  0  0  0  0  0  0
    4.1782    3.5040   -2.2319 C   0  0  0  0  0  0  0  0  0  0  0  0
    4.3640    3.0234   -1.1194 O   0  0  0  0  0  0  0  0  0  0  0  0
    2.0407    4.6163   -3.0158 C   0  0  0  0  0  0  0  0  0  0  0  0
    2.1797    2.1699   -1.2614 H   0  0  0  0  0  0  0  0  0  0  0  0
    3.0436    2.9592   -3.9642 H   0  0  0  0  0  0  0  0  0  0  0  0
    1.8211    4.9840   -2.0081 H   0  0  0  0  0  0  0  0  0  0  0  0
    2.6130    5.3812   -3.5491 H   0  0  0  0  0  0  0  0  0  0  0  0
    1.0939    4.4639   -3.5440 H   0  0  0  0  0  0  0  0  0  0  0  0
    5.2020    4.2039   -2.8443 N   0  0  0  0  0  0  0  0  0  0  0  0
    6.5136    4.3970   -2.2362 C   0  0  0  0  0  0  0  0  0  0  0  0
    5.0325    4.5702   -3.7764 H   0  0  0  0  0  0  0  0  0  0  0  0
    6.4156    4.8669   -1.2517 H   0  0  0  0  0  0  0  0  0  0  0  0
    7.0261    3.4366   -2.1179 H   0  0  0  0  0  0  0  0  0  0  0  0
    7.1318    5.0444   -2.8656 H   0  0  0  0  0  0  0  0  0  0  0  0
  1  2  2  0  0  0  0
  1  3  1  0  0  0  0
  1  7  1  0  0  0  0
  3  4  1  0  0  0  0
  3  5  1  0  0  0  0
  3  6  1  0  0  0  0
  7  8  1  0  0  0  0
  7 13  1  0  0  0  0
  8  9  1  0  0  0  0
  8 11  1  0  0  0  0
  8 14  1  0  0  0  0
  9 10  2  0  0  0  0
  9 17  1  0  0  0  0
 11 12  1  0  0  0  0
 11 15  1  0  0  0  0
 11 16  1  0  0  0  0
 12 44  1  0  0  0  0
 17 18  1  0  0  0  0
 17 19  1  0  0  0  0
 18 20  1  0  0  0  0
 18 21  1  0  0  0  0
 18 22  1  0  0  0  0
 23 24  2  0  0  0  0
 23 25  1  0  0  0  0
 23 29  1  0  0  0  0
 25 26  1  0  0  0  0
 25 27  1  0  0  0  0
 25 28  1  0  0  0  0
 29 30  1  0  0  0  0
 29 34  1  0  0  0  0
 30 31  1  0  0  0  0
 30 33  1  0  0  0  0
 30 35  1  0  0  0  0
 31 32  2  0  0  0  0
 31 39  1  0  0  0  0
 33 36  1  0  0  0  0
 33 37  1  0  0  0  0
 33 38  1  0  0  0  0
 39 40  1  0  0  0  0
 39 45  1  0  0  0  0
 40 41  1  0  0  0  0
 40 43  1  0  0  0  0
 40 46  1  0  0  0  0
 41 42  2  0  0  0  0
 41 49  1  0  0  0  0
 43 44  1  0  0  0  0
 43 47  1  0  0  0  0
 43 48  1  0  0  0  0
 49 50  1  0  0  0  0
 49 54  1  0  0  0  0
 50 51  1  0  0  0  0
 50 53  1  0  0  0  0
 50 55  1  0  0  0  0
 51 52  2  0  0  0  0
 51 59  1  0  0  0  0
 53 56  1  0  0  0  0
 53 57  1  0  0  0  0
 53 58  1  0  0  0  0
 59 60  1  0  0  0  0
 59 61  1  0  0  0  0
 60 62  1  0  0  0  0
 60 63  1  0  0  0  0
 60 64  1  0  0  0  0
M  END
$$$$

  -OEChem-05262216053D

 64 63  0     1  0  0  0  0  0999 V2000
    0.4667   -7.7393   -2.6265 C   0  0  0  0  0  0  0  0  0  0  0  0
   -0.6703   -7.6037   -3.0509 O   0  0  0  0  0  0  0  0  0  0  0  0
    0.7955   -8.8650   -1.6644 C   0  0  0  0  0  0  0  0  0  0  0  0
    1.2116   -8.4573   -0.7400 H   0  0  0  0  0  0  0  0  0  0  0  0
   -0.1090   -9.4299   -1.4225 H   0  0  0  0  0  0  0  0  0  0  0  0
    1.5247   -9.5411   -2.1173 H   0  0  0  0  0  0  0  0  0  0  0  0
    1.4548   -6.8708   -3.0349 N   0  0  0  0  0  0  0  0  0  0  0  0
    1.2604   -5.7779   -3.9981 C   0  0  2  0  0  0  0  0  0  0  0  0
    2.5807   -5.3810   -4.6940 C   0  0  0  0  0  0  0  0  0  0  0  0
    3.6349   -5.9228   -4.3784 O   0  0  0  0  0  0  0  0  0  0  0  0
    0.6308   -4.5736   -3.2799 C   0  0  0  0  0  0  0  0  0  0  0  0
    1.7276   -3.9319   -1.9504 S   0  0  0  0  0  0  0  0  0  0  0  0
    2.4082   -7.0480   -2.7202 H   0  0  0  0  0  0  0  0  0  0  0  0
    0.5774   -6.1148   -4.7849 H   0  0  0  0  0  0  0  0  0  0  0  0
    0.4278   -3.7756   -3.9990 H   0  0  0  0  0  0  0  0  0  0  0  0
   -0.3272   -4.8707   -2.8406 H   0  0  0  0  0  0  0  0  0  0  0  0
    2.5878   -4.4386   -5.7078 N   0  0  0  0  0  0  0  0  0  0  0  0
    3.8036   -4.0059   -6.3863 C   0  0  0  0  0  0  0  0  0  0  0  0
    1.7031   -4.0121   -5.9654 H   0  0  0  0  0  0  0  0  0  0  0  0
    4.4959   -3.5453   -5.6735 H   0  0  0  0  0  0  0  0  0  0  0  0
    4.3024   -4.8570   -6.8618 H   0  0  0  0  0  0  0  0  0  0  0  0
    3.5645   -3.2707   -7.1607 H   0  0  0  0  0  0  0  0  0  0  0  0
   -5.5946    1.2358   -1.4170 C   0  0  0  0  0  0  0  0  0  0  0  0
   -6.0530    0.3746   -2.1508 O   0  0  0  0  0  0  0  0  0  0  0  0
   -6.4375    1.8039   -0.2910 C   0  0  0  0  0  0  0  0  0  0  0  0
   -6.6716    2.8519   -0.4919 H   0  0  0  0  0  0  0  0  0  0  0  0
   -7.3725    1.2440   -0.2015 H   0  0  0  0  0  0  0  0  0  0  0  0
   -5.8939    1.7335    0.6543 H   0  0  0  0  0  0  0  0  0  0  0  0
   -4.3031    1.6826   -1.5998 N   0  0  0  0  0  0  0  0  0  0  0  0
   -3.3386    1.0650   -2.5193 C   0  0  2  0  0  0  0  0  0  0  0  0
   -1.9160    1.0580   -1.9254 C   0  0  0  0  0  0  0  0  0  0  0  0
   -1.6092    1.8560   -1.0451 O   0  0  0  0  0  0  0  0  0  0  0  0
   -3.3626    1.8435   -3.8377 C   0  0  0  0  0  0  0  0  0  0  0  0
   -3.9227    2.3127   -0.8947 H   0  0  0  0  0  0  0  0  0  0  0  0
   -3.6169    0.0229   -2.7104 H   0  0  0  0  0  0  0  0  0  0  0  0
   -3.0905    2.8908   -3.6693 H   0  0  0  0  0  0  0  0  0  0  0  0
   -2.6550    1.4118   -4.5526 H   0  0  0  0  0  0  0  0  0  0  0  0
   -4.3642    1.8096   -4.2785 H   0  0  0  0  0  0  0  0  0  0  0  0
   -0.9669    0.1681   -2.3905 N   0  0  0  0  0  0  0  0  0  0  0  0
    0.4614    0.3150   -2.0702 C   0  0  2  0  0  0  0  0  0  0  0  0
    1.1239    1.4504   -2.8761 C   0  0  0  0  0  0  0  0  0  0  0  0
    0.7870    1.6553   -4.0380 O   0  0  0  0  0  0  0  0  0  0  0  0
    1.1796   -1.0041   -2.3724 C   0  0  0  0  0  0  0  0  0  0  0  0
    0.5760   -2.3363   -1.2614 S   0  0  0  0  0  0  0  0  0  0  0  0
   -1.2138   -0.3517   -3.2271 H   0  0  0  0  0  0  0  0  0  0  0  0
    0.5779    0.5385   -1.0041 H   0  0  0  0  0  0  0  0  0  0  0  0
    1.0178   -1.2879   -3.4168 H   0  0  0  0  0  0  0  0  0  0  0  0
    2.2579   -0.8821   -2.2225 H   0  0  0  0  0  0  0  0  0  0  0  0
    2.1883    2.1529   -2.3451 N   0  0  0  0  0  0  0  0  0  0  0  0
    3.0346    3.0905   -3.0941 C   0  0  2  0  0  0  0  0  0  0  0  0
    4.5083    3.0007   -2.6444 C   0  0  0  0  0  0  0  0  0  0  0  0
    4.8065    2.3736   -1.6337 O   0  0  0  0  0  0  0  0  0  0  0  0
    2.4860    4.5044   -2.8832 C   0  0  0  0  0  0  0  0  0  0  0  0
    2.5292    1.8667   -1.4273 H   0  0  0  0  0  0  0  0  0  0  0  0
    3.0065    2.8500   -4.1620 H   0  0  0  0  0  0  0  0  0  0  0  0
    2.5188    4.7735   -1.8226 H   0  0  0  0  0  0  0  0  0  0  0  0
    3.0750    5.2346   -3.4461 H   0  0  0  0  0  0  0  0  0  0  0  0
    1.4475    4.5614   -3.2249 H   0  0  0  0  0  0  0  0  0  0  0  0
    5.5068    3.6007   -3.3892 N   0  0  0  0  0  0  0  0  0  0  0  0
    6.9213    3.5164   -3.0458 C   0  0  0  0  0  0  0  0  0  0  0  0
    5.2341    4.0893   -4.2371 H   0  0  0  0  0  0  0  0  0  0  0  0
    7.0915    3.8739   -2.0246 H   0  0  0  0  0  0  0  0  0  0  0  0
    7.2718    2.4817   -3.1205 H   0  0  0  0  0  0  0  0  0  0  0  0
    7.5132    4.1333   -3.7285 H   0  0  0  0  0  0  0  0  0  0  0  0
  1  2  2  0  0  0  0
  1  3  1  0  0  0  0
  1  7  1  0  0  0  0
  3  4  1  0  0  0  0
  3  5  1  0  0  0  0
  3  6  1  0  0  0  0
  7  8  1  0  0  0  0
  7 13  1  0  0  0  0
  8  9  1  0  0  0  0
  8 11  1  0  0  0  0
  8 14  1  0  0  0  0
  9 10  2  0  0  0  0
  9 17  1  0  0  0  0
 11 12  1  0  0  0  0
 11 15  1  0  0  0  0
 11 16  1  0  0  0  0
 12 44  1  0  0  0  0
 17 18  1  0  0  0  0
 17 19  1  0  0  0  0
 18 20  1  0  0  0  0
 18 21  1  0  0  0  0
 18 22  1  0  0  0  0
 23 24  2  0  0  0  0
 23 25  1  0  0  0  0
 23 29  1  0  0  0  0
 25 26  1  0  0  0  0
 25 27  1  0  0  0  0
 25 28  1  0  0  0  0
 29 30  1  0  0  0  0
 29 34  1  0  0  0  0
 30 31  1  0  0  0  0
 30 33  1  0  0  0  0
 30 35  1  0  0  0  0
 31 32  2  0  0  0  0
 31 39  1  0  0  0  0
 33 36  1  0  0  0  0
 33 37  1  0  0  0  0
 33 38  1  0  0  0  0
 39 40  1  0  0  0  0
 39 45  1  0  0  0  0
 40 41  1  0  0  0  0
 40 43  1  0  0  0  0
 40 46  1  0  0  0  0
 41 42  2  0  0  0  0
 41 49  1  0  0  0  0
 43 44  1  0  0  0  0
 43 47  1  0  0  0  0
 43 48  1  0  0  0  0
 49 50  1  0  0  0  0
 49 54  1  0  0  0  0
 50 51  1  0  0  0  0
 50 53  1  0  0  0  0
 50 55  1  0  0  0  0
 51 52  2  0  0  0  0
 51 59  1  0  0  0  0
 53 56  1  0  0  0  0
 53 57  1  0  0  0  0
 53 58  1  0  0  0  0
 59 60  1  0  0  0  0
 59 61  1  0  0  0  0
 60 62  1  0  0  0  0
 60 63  1  0  0  0  0
 60 64  1  0  0  0  0
M  END
$$$$

  -OEChem-05262216053D

 64 63  0     1  0  0  0  0  0999 V2000
    0.4819   -7.7460   -2.6537 C   0  0  0  0  0  0  0  0  0  0  0  0
   -0.6454   -7.6311   -3.1092 O   0  0  0  0  0  0  0  0  0  0  0  0
    0.7989   -8.8462   -1.6594 C   0  0  0  0  0  0  0  0  0  0  0  0
    1.2364   -8.4155   -0.7553 H   0  0  0  0  0  0  0  0  0  0  0  0
   -0.1141   -9.3831   -1.3873 H   0  0  0  0  0  0  0  0  0  0  0  0
    1.5074   -9.5528   -2.0983 H   0  0  0  0  0  0  0  0  0  0  0  0
    1.4686   -6.8683   -3.0443 N   0  0  0  0  0  0  0  0  0  0  0  0
    1.2789   -5.7687   -4.0000 C   0  0  2  0  0  0  0  0  0  0  0  0
    2.6010   -5.3637   -4.6878 C   0  0  0  0  0  0  0  0  0  0  0  0
    3.6581   -5.8907   -4.3570 O   0  0  0  0  0  0  0  0  0  0  0  0
    0.6492   -4.5727   -3.2687 C   0  0  0  0  0  0  0  0  0  0  0  0
    1.7551   -3.9320   -1.9457 S   0  0  0  0  0  0  0  0  0  0  0  0
    2.4133   -7.0226   -2.6942 H   0  0  0  0  0  0  0  0  0  0  0  0
    0.5980   -6.0991   -4.7917 H   0  0  0  0  0  0  0  0  0  0  0  0
    0.4346   -3.7720   -3.9811 H   0  0  0  0  0  0  0  0  0  0  0  0
   -0.3021   -4.8792   -2.8216 H   0  0  0  0  0  0  0  0  0  0  0  0
    2.6063   -4.4305   -5.7102 N   0  0  0  0  0  0  0  0  0  0  0  0
    3.8208   -4.0085   -6.3977 C   0  0  0  0  0  0  0  0  0  0  0  0
    1.7174   -4.0269   -5.9901 H   0  0  0  0  0  0  0  0  0  0  0  0
    4.5372   -3.5859   -5.6850 H   0  0  0  0  0  0  0  0  0  0  0  0
    4.2882   -4.8587   -6.9057 H   0  0  0  0  0  0  0  0  0  0  0  0
    3.5873   -3.2445   -7.1455 H   0  0  0  0  0  0  0  0  0  0  0  0
   -5.6114    1.2645   -1.4403 C   0  0  0  0  0  0  0  0  0  0  0  0
   -6.0723    0.4405   -2.2143 O   0  0  0  0  0  0  0  0  0  0  0  0
   -6.4795    1.8366   -0.3356 C   0  0  0  0  0  0  0  0  0  0  0  0
   -6.6210    2.9088   -0.4913 H   0  0  0  0  0  0  0  0  0  0  0  0
   -7.4577    1.3470   -0.3341 H   0  0  0  0  0  0  0  0  0  0  0  0
   -6.0040    1.6743    0.6349 H   0  0  0  0  0  0  0  0  0  0  0  0
   -4.2976    1.6660   -1.5607 N   0  0  0  0  0  0  0  0  0  0  0  0
   -3.3263    1.0478   -2.4724 C   0  0  2  0  0  0  0  0  0  0  0  0
   -1.9088    1.0235   -1.8671 C   0  0  0  0  0  0  0  0  0  0  0  0
   -1.6093    1.7898   -0.9565 O   0  0  0  0  0  0  0  0  0  0  0  0
   -3.3253    1.8325   -3.7871 C   0  0  0  0  0  0  0  0  0  0  0  0
   -3.9220    2.2719   -0.8320 H   0  0  0  0  0  0  0  0  0  0  0  0
   -3.6135    0.0095   -2.6707 H   0  0  0  0  0  0  0  0  0  0  0  0
   -3.0289    2.8720   -3.6119 H   0  0  0  0  0  0  0  0  0  0  0  0
   -2.6240    1.3876   -4.5001 H   0  0  0  0  0  0  0  0  0  0  0  0
   -4.3250    1.8236   -4.2333 H   0  0  0  0  0  0  0  0  0  0  0  0
   -0.9600    0.1445   -2.3537 N   0  0  0  0  0  0  0  0  0  0  0  0
    0.4721    0.3107   -2.0591 C   0  0  2  0  0  0  0  0  0  0  0  0
    1.1134    1.4556   -2.8720 C   0  0  0  0  0  0  0  0  0  0  0  0
    0.6089    1.8251   -3.9278 O   0  0  0  0  0  0  0  0  0  0  0  0
    1.1901   -1.0063   -2.3745 C   0  0  0  0  0  0  0  0  0  0  0  0
    0.6110   -2.3359   -1.2471 S   0  0  0  0  0  0  0  0  0  0  0  0
   -1.2089   -0.3395   -3.2107 H   0  0  0  0  0  0  0  0  0  0  0  0
    0.6068    0.5355   -0.9954 H   0  0  0  0  0  0  0  0  0  0  0  0
    1.0096   -1.2920   -3.4152 H   0  0  0  0  0  0  0  0  0  0  0  0
    2.2708   -0.8845   -2.2449 H   0  0  0  0  0  0  0  0  0  0  0  0
    2.3489    1.9548   -2.5059 N   0  0  0  0  0  0  0  0  0  0  0  0
    3.1791    2.8353   -3.3383 C   0  0  2  0  0  0  0  0  0  0  0  0
    4.6752    2.4727   -3.2214 C   0  0  0  0  0  0  0  0  0  0  0  0
    5.0435    1.6471   -2.3930 O   0  0  0  0  0  0  0  0  0  0  0  0
    2.9285    4.2793   -2.8961 C   0  0  0  0  0  0  0  0  0  0  0  0
    2.8147    1.5122   -1.7137 H   0  0  0  0  0  0  0  0  0  0  0  0
    2.9025    2.7302   -4.3927 H   0  0  0  0  0  0  0  0  0  0  0  0
    3.2201    4.4166   -1.8496 H   0  0  0  0  0  0  0  0  0  0  0  0
    3.5025    4.9769   -3.5132 H   0  0  0  0  0  0  0  0  0  0  0  0
    1.8663    4.5242   -2.9968 H   0  0  0  0  0  0  0  0  0  0  0  0
    5.6090    3.0538   -4.0595 N   0  0  0  0  0  0  0  0  0  0  0  0
    7.0335    2.7467   -4.0060 C   0  0  0  0  0  0  0  0  0  0  0  0
    5.2771    3.7349   -4.7360 H   0  0  0  0  0  0  0  0  0  0  0  0
    7.4406    2.9860   -3.0180 H   0  0  0  0  0  0  0  0  0  0  0  0
    7.2043    1.6845   -4.2096 H   0  0  0  0  0  0  0  0  0  0  0  0
    7.5756    3.3331   -4.7540 H   0  0  0  0  0  0  0  0  0  0  0  0
  1  2  2  0  0  0  0
  1  3  1  0  0  0  0
  1  7  1  0  0  0  0
  3  4  1  0  0  0  0
  3  5  1  0  0  0  0
  3  6  1  0  0  0  0
  7  8  1  0  0  0  0
  7 13  1  0  0  0  0
  8  9  1  0  0  0  0
  8 11  1  0  0  0  0
  8 14  1  0  0  0  0
  9 10  2  0  0  0  0
  9 17  1  0  0  0  0
 11 12  1  0  0  0  0
 11 15  1  0  0  0  0
 11 16  1  0  0  0  0
 12 44  1  0  0  0  0
 17 18  1  0  0  0  0
 17 19  1  0  0  0  0
 18 20  1  0  0  0  0
 18 21  1  0  0  0  0
 18 22  1  0  0  0  0
 23 24  2  0  0  0  0
 23 25  1  0  0  0  0
 23 29  1  0  0  0  0
 25 26  1  0  0  0  0
 25 27  1  0  0  0  0
 25 28  1  0  0  0  0
 29 30  1  0  0  0  0
 29 34  1  0  0  0  0
 30 31  1  0  0  0  0
 30 33  1  0  0  0  0
 30 35  1  0  0  0  0
 31 32  2  0  0  0  0
 31 39  1  0  0  0  0
 33 36  1  0  0  0  0
 33 37  1  0  0  0  0
 33 38  1  0  0  0  0
 39 40  1  0  0  0  0
 39 45  1  0  0  0  0
 40 41  1  0  0  0  0
 40 43  1  0  0  0  0
 40 46  1  0  0  0  0
 41 42  2  0  0  0  0
 41 49  1  0  0  0  0
 43 44  1  0  0  0  0
 43 47  1  0  0  0  0
 43 48  1  0  0  0  0
 49 50  1  0  0  0  0
 49 54  1  0  0  0  0
 50 51  1  0  0  0  0
 50 53  1  0  0  0  0
 50 55  1  0  0  0  0
 51 52  2  0  0  0  0
 51 59  1  0  0  0  0
 53 56  1  0  0  0  0
 53 57  1  0  0  0  0
 53 58  1  0  0  0  0
 59 60  1  0  0  0  0
 59 61  1  0  0  0  0
 60 62  1  0  0  0  0
 60 63  1  0  0  0  0
 60 64  1  0  0  0  0
M  END
$$$$

  -OEChem-05262216053D

 64 63  0     1  0  0  0  0  0999 V2000
    0.9213   -7.3452   -4.6666 C   0  0  0  0  0  0  0  0  0  0  0  0
   -0.2210   -7.1680   -5.0607 O   0  0  0  0  0  0  0  0  0  0  0  0
    1.3143   -8.6641   -4.0286 C   0  0  0  0  0  0  0  0  0  0  0  0
    1.6150   -8.5004   -2.9907 H   0  0  0  0  0  0  0  0  0  0  0  0
    0.4688   -9.3574   -4.0461 H   0  0  0  0  0  0  0  0  0  0  0  0
    2.1473   -9.1112   -4.5767 H   0  0  0  0  0  0  0  0  0  0  0  0
    1.8565   -6.3447   -4.8152 N   0  0  0  0  0  0  0  0  0  0  0  0
    1.6016   -5.0604   -5.4823 C   0  0  2  0  0  0  0  0  0  0  0  0
    2.8912   -4.4479   -6.0703 C   0  0  0  0  0  0  0  0  0  0  0  0
    3.9747   -4.9927   -5.8866 O   0  0  0  0  0  0  0  0  0  0  0  0
    0.9307   -4.0988   -4.4884 C   0  0  0  0  0  0  0  0  0  0  0  0
    2.0229   -3.7319   -3.0545 S   0  0  0  0  0  0  0  0  0  0  0  0
    2.8194   -6.5452   -4.5467 H   0  0  0  0  0  0  0  0  0  0  0  0
    0.9211   -5.2266   -6.3239 H   0  0  0  0  0  0  0  0  0  0  0  0
    0.6701   -3.1647   -4.9930 H   0  0  0  0  0  0  0  0  0  0  0  0
    0.0008   -4.5463   -4.1227 H   0  0  0  0  0  0  0  0  0  0  0  0
    2.8351   -3.3092   -6.8552 N   0  0  0  0  0  0  0  0  0  0  0  0
    4.0153   -2.6897   -7.4468 C   0  0  0  0  0  0  0  0  0  0  0  0
    1.9240   -2.8941   -7.0256 H   0  0  0  0  0  0  0  0  0  0  0  0
    4.7279   -2.4001   -6.6669 H   0  0  0  0  0  0  0  0  0  0  0  0
    4.5091   -3.3843   -8.1347 H   0  0  0  0  0  0  0  0  0  0  0  0
    3.7322   -1.7925   -8.0056 H   0  0  0  0  0  0  0  0  0  0  0  0
   -5.5424    1.1072   -1.4151 C   0  0  0  0  0  0  0  0  0  0  0  0
   -5.9460    0.1774   -2.0954 O   0  0  0  0  0  0  0  0  0  0  0  0
   -6.3934    1.6373   -0.2768 C   0  0  0  0  0  0  0  0  0  0  0  0
   -6.6667    2.6771   -0.4701 H   0  0  0  0  0  0  0  0  0  0  0  0
   -7.3068    1.0439   -0.1805 H   0  0  0  0  0  0  0  0  0  0  0  0
   -5.8385    1.5817    0.6628 H   0  0  0  0  0  0  0  0  0  0  0  0
   -4.3120    1.6749   -1.6712 N   0  0  0  0  0  0  0  0  0  0  0  0
   -3.3061    1.0899   -2.5692 C   0  0  2  0  0  0  0  0  0  0  0  0
   -1.9300    0.9760   -1.8822 C   0  0  0  0  0  0  0  0  0  0  0  0
   -1.6751    1.6486   -0.8871 O   0  0  0  0  0  0  0  0  0  0  0  0
   -3.2061    1.9768   -3.8130 C   0  0  0  0  0  0  0  0  0  0  0  0
   -3.9643    2.3362   -0.9781 H   0  0  0  0  0  0  0  0  0  0  0  0
   -3.6036    0.0806   -2.8724 H   0  0  0  0  0  0  0  0  0  0  0  0
   -2.8832    2.9863   -3.5386 H   0  0  0  0  0  0  0  0  0  0  0  0
   -2.4827    1.5651   -4.5231 H   0  0  0  0  0  0  0  0  0  0  0  0
   -4.1788    2.0438   -4.3101 H   0  0  0  0  0  0  0  0  0  0  0  0
   -0.9672    0.1122   -2.3736 N   0  0  0  0  0  0  0  0  0  0  0  0
    0.4607    0.3059   -2.0658 C   0  0  2  0  0  0  0  0  0  0  0  0
    1.0261    1.6630   -2.5560 C   0  0  0  0  0  0  0  0  0  0  0  0
    0.3946    2.3592   -3.3452 O   0  0  0  0  0  0  0  0  0  0  0  0
    1.2438   -0.8423   -2.7203 C   0  0  0  0  0  0  0  0  0  0  0  0
    0.7891   -2.4522   -1.9619 S   0  0  0  0  0  0  0  0  0  0  0  0
   -1.1988   -0.3466   -3.2484 H   0  0  0  0  0  0  0  0  0  0  0  0
    0.6031    0.2625   -0.9805 H   0  0  0  0  0  0  0  0  0  0  0  0
    1.0444   -0.8649   -3.7961 H   0  0  0  0  0  0  0  0  0  0  0  0
    2.3203   -0.6935   -2.5859 H   0  0  0  0  0  0  0  0  0  0  0  0
    2.3541    1.9752   -2.3285 N   0  0  0  0  0  0  0  0  0  0  0  0
    3.0945    3.0507   -3.0016 C   0  0  2  0  0  0  0  0  0  0  0  0
    4.5273    2.6049   -3.3616 C   0  0  0  0  0  0  0  0  0  0  0  0
    4.9549    1.5284   -2.9587 O   0  0  0  0  0  0  0  0  0  0  0  0
    3.1145    4.2658   -2.0708 C   0  0  0  0  0  0  0  0  0  0  0  0
    2.9172    1.2800   -1.8394 H   0  0  0  0  0  0  0  0  0  0  0  0
    2.5990    3.3255   -3.9384 H   0  0  0  0  0  0  0  0  0  0  0  0
    3.6237    4.0215   -1.1330 H   0  0  0  0  0  0  0  0  0  0  0  0
    3.6346    5.1050   -2.5420 H   0  0  0  0  0  0  0  0  0  0  0  0
    2.0917    4.5806   -1.8404 H   0  0  0  0  0  0  0  0  0  0  0  0
    5.3314    3.3982   -4.1589 N   0  0  0  0  0  0  0  0  0  0  0  0
    6.6844    3.0243   -4.5529 C   0  0  0  0  0  0  0  0  0  0  0  0
    4.9472    4.2785   -4.4901 H   0  0  0  0  0  0  0  0  0  0  0  0
    7.3020    2.8298   -3.6697 H   0  0  0  0  0  0  0  0  0  0  0  0
    6.6657    2.1236   -5.1754 H   0  0  0  0  0  0  0  0  0  0  0  0
    7.1492    3.8324   -5.1259 H   0  0  0  0  0  0  0  0  0  0  0  0
  1  2  2  0  0  0  0
  1  3  1  0  0  0  0
  1  7  1  0  0  0  0
  3  4  1  0  0  0  0
  3  5  1  0  0  0  0
  3  6  1  0  0  0  0
  7  8  1  0  0  0  0
  7 13  1  0  0  0  0
  8  9  1  0  0  0  0
  8 11  1  0  0  0  0
  8 14  1  0  0  0  0
  9 10  2  0  0  0  0
  9 17  1  0  0  0  0
 11 12  1  0  0  0  0
 11 15  1  0  0  0  0
 11 16  1  0  0  0  0
 12 44  1  0  0  0  0
 17 18  1  0  0  0  0
 17 19  1  0  0  0  0
 18 20  1  0  0  0  0
 18 21  1  0  0  0  0
 18 22  1  0  0  0  0
 23 24  2  0  0  0  0
 23 25  1  0  0  0  0
 23 29  1  0  0  0  0
 25 26  1  0  0  0  0
 25 27  1  0  0  0  0
 25 28  1  0  0  0  0
 29 30  1  0  0  0  0
 29 34  1  0  0  0  0
 30 31  1  0  0  0  0
 30 33  1  0  0  0  0
 30 35  1  0  0  0  0
 31 32  2  0  0  0  0
 31 39  1  0  0  0  0
 33 36  1  0  0  0  0
 33 37  1  0  0  0  0
 33 38  1  0  0  0  0
 39 40  1  0  0  0  0
 39 45  1  0  0  0  0
 40 41  1  0  0  0  0
 40 43  1  0  0  0  0
 40 46  1  0  0  0  0
 41 42  2  0  0  0  0
 41 49  1  0  0  0  0
 43 44  1  0  0  0  0
 43 47  1  0  0  0  0
 43 48  1  0  0  0  0
 49 50  1  0  0  0  0
 49 54  1  0  0  0  0
 50 51  1  0  0  0  0
 50 53  1  0  0  0  0
 50 55  1  0  0  0  0
 51 52  2  0  0  0  0
 51 59  1  0  0  0  0
 53 56  1  0  0  0  0
 53 57  1  0  0  0  0
 53 58  1  0  0  0  0
 59 60  1  0  0  0  0
 59 61  1  0  0  0  0
 60 62  1  0  0  0  0
 60 63  1  0  0  0  0
 60 64  1  0  0  0  0
M  END
$$$$

  -OEChem-05262216053D

 64 63  0     1  0  0  0  0  0999 V2000
    1.8694   -6.6505   -5.8789 C   0  0  0  0  0  0  0  0  0  0  0  0
    1.1139   -6.1550   -6.7008 O   0  0  0  0  0  0  0  0  0  0  0  0
    1.9358   -8.1566   -5.7132 C   0  0  0  0  0  0  0  0  0  0  0  0
    1.6812   -8.4290   -4.6860 H   0  0  0  0  0  0  0  0  0  0  0  0
    1.2291   -8.6415   -6.3925 H   0  0  0  0  0  0  0  0  0  0  0  0
    2.9437   -8.5136   -5.9390 H   0  0  0  0  0  0  0  0  0  0  0  0
    2.6690   -5.8387   -5.1049 N   0  0  0  0  0  0  0  0  0  0  0  0
    2.7778   -4.3818   -5.2687 C   0  0  2  0  0  0  0  0  0  0  0  0
    4.1471   -3.8537   -4.7779 C   0  0  0  0  0  0  0  0  0  0  0  0
    5.0119   -4.6511   -4.4254 O   0  0  0  0  0  0  0  0  0  0  0  0
    1.6049   -3.7043   -4.5461 C   0  0  0  0  0  0  0  0  0  0  0  0
    1.7537   -3.8515   -2.7164 S   0  0  0  0  0  0  0  0  0  0  0  0
    3.3722   -6.2876   -4.5190 H   0  0  0  0  0  0  0  0  0  0  0  0
    2.7145   -4.1386   -6.3346 H   0  0  0  0  0  0  0  0  0  0  0  0
    1.5836   -2.6488   -4.8275 H   0  0  0  0  0  0  0  0  0  0  0  0
    0.6591   -4.1495   -4.8715 H   0  0  0  0  0  0  0  0  0  0  0  0
    4.4517   -2.5029   -4.7747 N   0  0  0  0  0  0  0  0  0  0  0  0
    5.7300   -1.9763   -4.3152 C   0  0  0  0  0  0  0  0  0  0  0  0
    3.7028   -1.8349   -4.9743 H   0  0  0  0  0  0  0  0  0  0  0  0
    5.8775   -2.1994   -3.2534 H   0  0  0  0  0  0  0  0  0  0  0  0
    6.5541   -2.4155   -4.8873 H   0  0  0  0  0  0  0  0  0  0  0  0
    5.7584   -0.8908   -4.4498 H   0  0  0  0  0  0  0  0  0  0  0  0
   -5.6957    2.1751   -1.4411 C   0  0  0  0  0  0  0  0  0  0  0  0
   -6.2665    1.5311   -2.3072 O   0  0  0  0  0  0  0  0  0  0  0  0
   -6.5000    2.9062   -0.3832 C   0  0  0  0  0  0  0  0  0  0  0  0
   -6.2510    3.9701   -0.3935 H   0  0  0  0  0  0  0  0  0  0  0  0
   -7.5698    2.7929   -0.5792 H   0  0  0  0  0  0  0  0  0  0  0  0
   -6.2762    2.4953    0.6042 H   0  0  0  0  0  0  0  0  0  0  0  0
   -4.3187    2.2318   -1.4187 N   0  0  0  0  0  0  0  0  0  0  0  0
   -3.4412    1.4625   -2.3101 C   0  0  2  0  0  0  0  0  0  0  0  0
   -2.1015    1.1133   -1.6311 C   0  0  0  0  0  0  0  0  0  0  0  0
   -1.7561    1.6841   -0.6003 O   0  0  0  0  0  0  0  0  0  0  0  0
   -3.1907    2.2896   -3.5748 C   0  0  0  0  0  0  0  0  0  0  0  0
   -3.8761    2.6916   -0.6236 H   0  0  0  0  0  0  0  0  0  0  0  0
   -3.9260    0.5190   -2.5837 H   0  0  0  0  0  0  0  0  0  0  0  0
   -2.6894    3.2302   -3.3232 H   0  0  0  0  0  0  0  0  0  0  0  0
   -2.5581    1.7376   -4.2764 H   0  0  0  0  0  0  0  0  0  0  0  0
   -4.1382    2.5201   -4.0721 H   0  0  0  0  0  0  0  0  0  0  0  0
   -1.2763    0.1403   -2.1654 N   0  0  0  0  0  0  0  0  0  0  0  0
    0.1673    0.1162   -1.8732 C   0  0  2  0  0  0  0  0  0  0  0  0
    0.9165    1.4020   -2.3287 C   0  0  0  0  0  0  0  0  0  0  0  0
    0.3374    2.2527   -2.9988 O   0  0  0  0  0  0  0  0  0  0  0  0
    0.7577   -1.0720   -2.6466 C   0  0  0  0  0  0  0  0  0  0  0  0
    0.1331   -2.6979   -2.0764 S   0  0  0  0  0  0  0  0  0  0  0  0
   -1.5772   -0.2455   -3.0548 H   0  0  0  0  0  0  0  0  0  0  0  0
    0.3288   -0.0186   -0.7986 H   0  0  0  0  0  0  0  0  0  0  0  0
    0.5480   -0.9510   -3.7139 H   0  0  0  0  0  0  0  0  0  0  0  0
    1.8437   -1.0920   -2.5239 H   0  0  0  0  0  0  0  0  0  0  0  0
    2.3024    1.3920   -2.4002 N   0  0  0  0  0  0  0  0  0  0  0  0
    3.0171    2.0504   -3.5032 C   0  0  2  0  0  0  0  0  0  0  0  0
    2.9148    1.2348   -4.8141 C   0  0  0  0  0  0  0  0  0  0  0  0
    2.9448    0.0054   -4.7876 O   0  0  0  0  0  0  0  0  0  0  0  0
    4.4802    2.2170   -3.0886 C   0  0  0  0  0  0  0  0  0  0  0  0
    2.7452    0.5636   -2.0123 H   0  0  0  0  0  0  0  0  0  0  0  0
    2.5968    3.0469   -3.6779 H   0  0  0  0  0  0  0  0  0  0  0  0
    4.9442    1.2424   -2.9069 H   0  0  0  0  0  0  0  0  0  0  0  0
    5.0424    2.7279   -3.8764 H   0  0  0  0  0  0  0  0  0  0  0  0
    4.5491    2.8130   -2.1731 H   0  0  0  0  0  0  0  0  0  0  0  0
    2.8040    1.8754   -6.0331 N   0  0  0  0  0  0  0  0  0  0  0  0
    2.6379    1.1661   -7.2964 C   0  0  0  0  0  0  0  0  0  0  0  0
    2.6620    2.8822   -6.0172 H   0  0  0  0  0  0  0  0  0  0  0  0
    3.5063    0.5288   -7.4950 H   0  0  0  0  0  0  0  0  0  0  0  0
    1.7387    0.5412   -7.2710 H   0  0  0  0  0  0  0  0  0  0  0  0
    2.5386    1.8798   -8.1201 H   0  0  0  0  0  0  0  0  0  0  0  0
  1  2  2  0  0  0  0
  1  3  1  0  0  0  0
  1  7  1  0  0  0  0
  3  4  1  0  0  0  0
  3  5  1  0  0  0  0
  3  6  1  0  0  0  0
  7  8  1  0  0  0  0
  7 13  1  0  0  0  0
  8  9  1  0  0  0  0
  8 11  1  0  0  0  0
  8 14  1  0  0  0  0
  9 10  2  0  0  0  0
  9 17  1  0  0  0  0
 11 12  1  0  0  0  0
 11 15  1  0  0  0  0
 11 16  1  0  0  0  0
 12 44  1  0  0  0  0
 17 18  1  0  0  0  0
 17 19  1  0  0  0  0
 18 20  1  0  0  0  0
 18 21  1  0  0  0  0
 18 22  1  0  0  0  0
 23 24  2  0  0  0  0
 23 25  1  0  0  0  0
 23 29  1  0  0  0  0
 25 26  1  0  0  0  0
 25 27  1  0  0  0  0
 25 28  1  0  0  0  0
 29 30  1  0  0  0  0
 29 34  1  0  0  0  0
 30 31  1  0  0  0  0
 30 33  1  0  0  0  0
 30 35  1  0  0  0  0
 31 32  2  0  0  0  0
 31 39  1  0  0  0  0
 33 36  1  0  0  0  0
 33 37  1  0  0  0  0
 33 38  1  0  0  0  0
 39 40  1  0  0  0  0
 39 45  1  0  0  0  0
 40 41  1  0  0  0  0
 40 43  1  0  0  0  0
 40 46  1  0  0  0  0
 41 42  2  0  0  0  0
 41 49  1  0  0  0  0
 43 44  1  0  0  0  0
 43 47  1  0  0  0  0
 43 48  1  0  0  0  0
 49 50  1  0  0  0  0
 49 54  1  0  0  0  0
 50 51  1  0  0  0  0
 50 53  1  0  0  0  0
 50 55  1  0  0  0  0
 51 52  2  0  0  0  0
 51 59  1  0  0  0  0
 53 56  1  0  0  0  0
 53 57  1  0  0  0  0
 53 58  1  0  0  0  0
 59 60  1  0  0  0  0
 59 61  1  0  0  0  0
 60 62  1  0  0  0  0
 60 63  1  0  0  0  0
 60 64  1  0  0  0  0
M  END
$$$$

  -OEChem-05262216053D

 64 63  0     1  0  0  0  0  0999 V2000
    1.7016   -6.8055   -5.7842 C   0  0  0  0  0  0  0  0  0  0  0  0
    0.8081   -6.3907   -6.5060 O   0  0  0  0  0  0  0  0  0  0  0  0
    1.8863   -8.2965   -5.5781 C   0  0  0  0  0  0  0  0  0  0  0  0
    1.8703   -8.5303   -4.5109 H   0  0  0  0  0  0  0  0  0  0  0  0
    1.0808   -8.8475   -6.0716 H   0  0  0  0  0  0  0  0  0  0  0  0
    2.8424   -8.6151   -6.0002 H   0  0  0  0  0  0  0  0  0  0  0  0
    2.5545   -5.9168   -5.1680 N   0  0  0  0  0  0  0  0  0  0  0  0
    2.5446   -4.4636   -5.3882 C   0  0  2  0  0  0  0  0  0  0  0  0
    3.9253   -3.8333   -5.0866 C   0  0  0  0  0  0  0  0  0  0  0  0
    4.8689   -4.5603   -4.7882 O   0  0  0  0  0  0  0  0  0  0  0  0
    1.4291   -3.8333   -4.5428 C   0  0  0  0  0  0  0  0  0  0  0  0
    1.8011   -3.9329   -2.7417 S   0  0  0  0  0  0  0  0  0  0  0  0
    3.3564   -6.2988   -4.6676 H   0  0  0  0  0  0  0  0  0  0  0  0
    2.3334   -4.2658   -6.4443 H   0  0  0  0  0  0  0  0  0  0  0  0
    1.3137   -2.7884   -4.8389 H   0  0  0  0  0  0  0  0  0  0  0  0
    0.4782   -4.3369   -4.7445 H   0  0  0  0  0  0  0  0  0  0  0  0
    4.1499   -2.4709   -5.1954 N   0  0  0  0  0  0  0  0  0  0  0  0
    5.4414   -1.8549   -4.9210 C   0  0  0  0  0  0  0  0  0  0  0  0
    3.3495   -1.8538   -5.3506 H   0  0  0  0  0  0  0  0  0  0  0  0
    5.6852   -1.9370   -3.8571 H   0  0  0  0  0  0  0  0  0  0  0  0
    6.2320   -2.3395   -5.5034 H   0  0  0  0  0  0  0  0  0  0  0  0
    5.4178   -0.7958   -5.1936 H   0  0  0  0  0  0  0  0  0  0  0  0
   -5.5466    2.1929   -1.6693 C   0  0  0  0  0  0  0  0  0  0  0  0
   -6.1224    1.4857   -2.4814 O   0  0  0  0  0  0  0  0  0  0  0  0
   -6.3447    3.0441   -0.7000 C   0  0  0  0  0  0  0  0  0  0  0  0
   -6.0935    4.0986   -0.8360 H   0  0  0  0  0  0  0  0  0  0  0  0
   -7.4156    2.9107   -0.8754 H   0  0  0  0  0  0  0  0  0  0  0  0
   -6.1169    2.7525    0.3278 H   0  0  0  0  0  0  0  0  0  0  0  0
   -4.1691    2.2168   -1.6284 N   0  0  0  0  0  0  0  0  0  0  0  0
   -3.2990    1.3336   -2.4149 C   0  0  2  0  0  0  0  0  0  0  0  0
   -1.9741    1.0393   -1.6810 C   0  0  0  0  0  0  0  0  0  0  0  0
   -1.7004    1.6134   -0.6308 O   0  0  0  0  0  0  0  0  0  0  0  0
   -3.0215    2.0019   -3.7655 C   0  0  0  0  0  0  0  0  0  0  0  0
   -3.7302    2.7184   -0.8567 H   0  0  0  0  0  0  0  0  0  0  0  0
   -3.8007    0.3740   -2.5799 H   0  0  0  0  0  0  0  0  0  0  0  0
   -2.4982    2.9525   -3.6197 H   0  0  0  0  0  0  0  0  0  0  0  0
   -2.4010    1.3576   -4.3947 H   0  0  0  0  0  0  0  0  0  0  0  0
   -3.9602    2.1970   -4.2933 H   0  0  0  0  0  0  0  0  0  0  0  0
   -1.1015    0.0801   -2.1633 N   0  0  0  0  0  0  0  0  0  0  0  0
    0.3306    0.0853   -1.8133 C   0  0  2  0  0  0  0  0  0  0  0  0
    1.0911    1.3767   -2.2520 C   0  0  0  0  0  0  0  0  0  0  0  0
    0.4868    2.3284   -2.7364 O   0  0  0  0  0  0  0  0  0  0  0  0
    0.9384   -1.1266   -2.5385 C   0  0  0  0  0  0  0  0  0  0  0  0
    0.2899   -2.7328   -1.9401 S   0  0  0  0  0  0  0  0  0  0  0  0
   -1.3610   -0.3360   -3.0519 H   0  0  0  0  0  0  0  0  0  0  0  0
    0.4508   -0.0295   -0.7308 H   0  0  0  0  0  0  0  0  0  0  0  0
    0.7535   -1.0316   -3.6122 H   0  0  0  0  0  0  0  0  0  0  0  0
    2.0203   -1.1553   -2.3866 H   0  0  0  0  0  0  0  0  0  0  0  0
    2.4421    1.3004   -2.5645 N   0  0  0  0  0  0  0  0  0  0  0  0
    3.0179    2.0090   -3.7157 C   0  0  2  0  0  0  0  0  0  0  0  0
    2.6735    1.2969   -5.0447 C   0  0  0  0  0  0  0  0  0  0  0  0
    2.6345    0.0684   -5.1006 O   0  0  0  0  0  0  0  0  0  0  0  0
    4.5336    2.0695   -3.5150 C   0  0  0  0  0  0  0  0  0  0  0  0
    2.8880    0.4212   -2.3202 H   0  0  0  0  0  0  0  0  0  0  0  0
    2.6367    3.0352   -3.7577 H   0  0  0  0  0  0  0  0  0  0  0  0
    4.9561    1.0610   -3.4653 H   0  0  0  0  0  0  0  0  0  0  0  0
    5.0077    2.6050   -4.3434 H   0  0  0  0  0  0  0  0  0  0  0  0
    4.7718    2.5936   -2.5838 H   0  0  0  0  0  0  0  0  0  0  0  0
    2.4196    2.0319   -6.1865 N   0  0  0  0  0  0  0  0  0  0  0  0
    1.9980    1.4317   -7.4468 C   0  0  0  0  0  0  0  0  0  0  0  0
    2.3466    3.0406   -6.0805 H   0  0  0  0  0  0  0  0  0  0  0  0
    2.7376    0.7019   -7.7930 H   0  0  0  0  0  0  0  0  0  0  0  0
    1.0333    0.9273   -7.3272 H   0  0  0  0  0  0  0  0  0  0  0  0
    1.8917    2.2033   -8.2158 H   0  0  0  0  0  0  0  0  0  0  0  0
  1  2  2  0  0  0  0
  1  3  1  0  0  0  0
  1  7  1  0  0  0  0
  3  4  1  0  0  0  0
  3  5  1  0  0  0  0
  3  6  1  0  0  0  0
  7  8  1  0  0  0  0
  7 13  1  0  0  0  0
  8  9  1  0  0  0  0
  8 11  1  0  0  0  0
  8 14  1  0  0  0  0
  9 10  2  0  0  0  0
  9 17  1  0  0  0  0
 11 12  1  0  0  0  0
 11 15  1  0  0  0  0
 11 16  1  0  0  0  0
 12 44  1  0  0  0  0
 17 18  1  0  0  0  0
 17 19  1  0  0  0  0
 18 20  1  0  0  0  0
 18 21  1  0  0  0  0
 18 22  1  0  0  0  0
 23 24  2  0  0  0  0
 23 25  1  0  0  0  0
 23 29  1  0  0  0  0
 25 26  1  0  0  0  0
 25 27  1  0  0  0  0
 25 28  1  0  0  0  0
 29 30  1  0  0  0  0
 29 34  1  0  0  0  0
 30 31  1  0  0  0  0
 30 33  1  0  0  0  0
 30 35  1  0  0  0  0
 31 32  2  0  0  0  0
 31 39  1  0  0  0  0
 33 36  1  0  0  0  0
 33 37  1  0  0  0  0
 33 38  1  0  0  0  0
 39 40  1  0  0  0  0
 39 45  1  0  0  0  0
 40 41  1  0  0  0  0
 40 43  1  0  0  0  0
 40 46  1  0  0  0  0
 41 42  2  0  0  0  0
 41 49  1  0  0  0  0
 43 44  1  0  0  0  0
 43 47  1  0  0  0  0
 43 48  1  0  0  0  0
 49 50  1  0  0  0  0
 49 54  1  0  0  0  0
 50 51  1  0  0  0  0
 50 53  1  0  0  0  0
 50 55  1  0  0  0  0
 51 52  2  0  0  0  0
 51 59  1  0  0  0  0
 53 56  1  0  0  0  0
 53 57  1  0  0  0  0
 53 58  1  0  0  0  0
 59 60  1  0  0  0  0
 59 61  1  0  0  0  0
 60 62  1  0  0  0  0
 60 63  1  0  0  0  0
 60 64  1  0  0  0  0
M  END
$$$$

  -OEChem-05262216053D

 64 63  0     1  0  0  0  0  0999 V2000
    1.7630   -7.0200   -5.7896 C   0  0  0  0  0  0  0  0  0  0  0  0
    0.8052   -6.7152   -6.4831 O   0  0  0  0  0  0  0  0  0  0  0  0
    2.1451   -8.4770   -5.6126 C   0  0  0  0  0  0  0  0  0  0  0  0
    2.1385   -8.7383   -4.5517 H   0  0  0  0  0  0  0  0  0  0  0  0
    1.4334   -9.1196   -6.1383 H   0  0  0  0  0  0  0  0  0  0  0  0
    3.1444   -8.6524   -6.0181 H   0  0  0  0  0  0  0  0  0  0  0  0
    2.5097   -6.0346   -5.1826 N   0  0  0  0  0  0  0  0  0  0  0  0
    2.3249   -4.5947   -5.4127 C   0  0  2  0  0  0  0  0  0  0  0  0
    3.6504   -3.8168   -5.2367 C   0  0  0  0  0  0  0  0  0  0  0  0
    4.6762   -4.4265   -4.9479 O   0  0  0  0  0  0  0  0  0  0  0  0
    1.2253   -4.0751   -4.4763 C   0  0  0  0  0  0  0  0  0  0  0  0
    1.7669   -4.1013   -2.7159 S   0  0  0  0  0  0  0  0  0  0  0  0
    3.3692   -6.3158   -4.7120 H   0  0  0  0  0  0  0  0  0  0  0  0
    2.0042   -4.4360   -6.4475 H   0  0  0  0  0  0  0  0  0  0  0  0
    0.9667   -3.0551   -4.7686 H   0  0  0  0  0  0  0  0  0  0  0  0
    0.3225   -4.6848   -4.5871 H   0  0  0  0  0  0  0  0  0  0  0  0
    3.7350   -2.4517   -5.4560 N   0  0  0  0  0  0  0  0  0  0  0  0
    4.9846   -1.7087   -5.3536 C   0  0  0  0  0  0  0  0  0  0  0  0
    2.8779   -1.9277   -5.6413 H   0  0  0  0  0  0  0  0  0  0  0  0
    5.3118   -1.6540   -4.3105 H   0  0  0  0  0  0  0  0  0  0  0  0
    5.7708   -2.1897   -5.9452 H   0  0  0  0  0  0  0  0  0  0  0  0
    4.8490   -0.6919   -5.7330 H   0  0  0  0  0  0  0  0  0  0  0  0
   -5.3603    2.4572   -1.8972 C   0  0  0  0  0  0  0  0  0  0  0  0
   -5.9470    1.8493   -2.7788 O   0  0  0  0  0  0  0  0  0  0  0  0
   -6.1221    3.3994   -0.9842 C   0  0  0  0  0  0  0  0  0  0  0  0
   -5.7131    4.4092   -1.0664 H   0  0  0  0  0  0  0  0  0  0  0  0
   -7.1792    3.4235   -1.2632 H   0  0  0  0  0  0  0  0  0  0  0  0
   -6.0383    3.0628    0.0518 H   0  0  0  0  0  0  0  0  0  0  0  0
   -4.0032    2.2882   -1.7273 N   0  0  0  0  0  0  0  0  0  0  0  0
   -3.1816    1.3205   -2.4658 C   0  0  2  0  0  0  0  0  0  0  0  0
   -1.9269    0.9145   -1.6630 C   0  0  0  0  0  0  0  0  0  0  0  0
   -1.7038    1.4148   -0.5646 O   0  0  0  0  0  0  0  0  0  0  0  0
   -2.7744    1.9498   -3.8035 C   0  0  0  0  0  0  0  0  0  0  0  0
   -3.5721    2.7210   -0.9105 H   0  0  0  0  0  0  0  0  0  0  0  0
   -3.7633    0.4113   -2.6514 H   0  0  0  0  0  0  0  0  0  0  0  0
   -2.1780    2.8521   -3.6327 H   0  0  0  0  0  0  0  0  0  0  0  0
   -2.1809    1.2485   -4.3969 H   0  0  0  0  0  0  0  0  0  0  0  0
   -3.6620    2.2226   -4.3828 H   0  0  0  0  0  0  0  0  0  0  0  0
   -1.0548   -0.0480   -2.1437 N   0  0  0  0  0  0  0  0  0  0  0  0
    0.3770   -0.0433   -1.7836 C   0  0  2  0  0  0  0  0  0  0  0  0
    1.1321    1.2542   -2.2230 C   0  0  0  0  0  0  0  0  0  0  0  0
    0.5340    2.3061   -2.4152 O   0  0  0  0  0  0  0  0  0  0  0  0
    0.9983   -1.2747   -2.4644 C   0  0  0  0  0  0  0  0  0  0  0  0
    0.3417   -2.8618   -1.8246 S   0  0  0  0  0  0  0  0  0  0  0  0
   -1.2945   -0.4196   -3.0572 H   0  0  0  0  0  0  0  0  0  0  0  0
    0.4847   -0.1380   -0.6977 H   0  0  0  0  0  0  0  0  0  0  0  0
    0.8360   -1.2144   -3.5436 H   0  0  0  0  0  0  0  0  0  0  0  0
    2.0766   -1.2966   -2.2837 H   0  0  0  0  0  0  0  0  0  0  0  0
    2.3786    1.1557   -2.8277 N   0  0  0  0  0  0  0  0  0  0  0  0
    2.7565    1.9782   -3.9859 C   0  0  2  0  0  0  0  0  0  0  0  0
    2.2676    1.3362   -5.3043 C   0  0  0  0  0  0  0  0  0  0  0  0
    2.1527    0.1145   -5.3960 O   0  0  0  0  0  0  0  0  0  0  0  0
    4.2790    2.1227   -3.9832 C   0  0  0  0  0  0  0  0  0  0  0  0
    2.7829    0.2243   -2.8123 H   0  0  0  0  0  0  0  0  0  0  0  0
    2.3227    2.9807   -3.9082 H   0  0  0  0  0  0  0  0  0  0  0  0
    4.7605    1.1427   -4.0514 H   0  0  0  0  0  0  0  0  0  0  0  0
    4.6061    2.7314   -4.8318 H   0  0  0  0  0  0  0  0  0  0  0  0
    4.6103    2.6099   -3.0606 H   0  0  0  0  0  0  0  0  0  0  0  0
    1.9632    2.1278   -6.3949 N   0  0  0  0  0  0  0  0  0  0  0  0
    1.4393    1.5999   -7.6491 C   0  0  0  0  0  0  0  0  0  0  0  0
    1.9811    3.1353   -6.2595 H   0  0  0  0  0  0  0  0  0  0  0  0
    2.1505    0.8984   -8.0972 H   0  0  0  0  0  0  0  0  0  0  0  0
    0.4896    1.0814   -7.4809 H   0  0  0  0  0  0  0  0  0  0  0  0
    1.2667    2.4145   -8.3592 H   0  0  0  0  0  0  0  0  0  0  0  0
  1  2  2  0  0  0  0
  1  3  1  0  0  0  0
  1  7  1  0  0  0  0
  3  4  1  0  0  0  0
  3  5  1  0  0  0  0
  3  6  1  0  0  0  0
  7  8  1  0  0  0  0
  7 13  1  0  0  0  0
  8  9  1  0  0  0  0
  8 11  1  0  0  0  0
  8 14  1  0  0  0  0
  9 10  2  0  0  0  0
  9 17  1  0  0  0  0
 11 12  1  0  0  0  0
 11 15  1  0  0  0  0
 11 16  1  0  0  0  0
 12 44  1  0  0  0  0
 17 18  1  0  0  0  0
 17 19  1  0  0  0  0
 18 20  1  0  0  0  0
 18 21  1  0  0  0  0
 18 22  1  0  0  0  0
 23 24  2  0  0  0  0
 23 25  1  0  0  0  0
 23 29  1  0  0  0  0
 25 26  1  0  0  0  0
 25 27  1  0  0  0  0
 25 28  1  0  0  0  0
 29 30  1  0  0  0  0
 29 34  1  0  0  0  0
 30 31  1  0  0  0  0
 30 33  1  0  0  0  0
 30 35  1  0  0  0  0
 31 32  2  0  0  0  0
 31 39  1  0  0  0  0
 33 36  1  0  0  0  0
 33 37  1  0  0  0  0
 33 38  1  0  0  0  0
 39 40  1  0  0  0  0
 39 45  1  0  0  0  0
 40 41  1  0  0  0  0
 40 43  1  0  0  0  0
 40 46  1  0  0  0  0
 41 42  2  0  0  0  0
 41 49  1  0  0  0  0
 43 44  1  0  0  0  0
 43 47  1  0  0  0  0
 43 48  1  0  0  0  0
 49 50  1  0  0  0  0
 49 54  1  0  0  0  0
 50 51  1  0  0  0  0
 50 53  1  0  0  0  0
 50 55  1  0  0  0  0
 51 52  2  0  0  0  0
 51 59  1  0  0  0  0
 53 56  1  0  0  0  0
 53 57  1  0  0  0  0
 53 58  1  0  0  0  0
 59 60  1  0  0  0  0
 59 61  1  0  0  0  0
 60 62  1  0  0  0  0
 60 63  1  0  0  0  0
 60 64  1  0  0  0  0
M  END
$$$$

  -OEChem-05262216053D

 64 63  0     1  0  0  0  0  0999 V2000
    1.1459   -7.3950   -4.9147 C   0  0  0  0  0  0  0  0  0  0  0  0
   -0.0079   -7.2730   -5.2960 O   0  0  0  0  0  0  0  0  0  0  0  0
    1.6526   -8.7401   -4.4296 C   0  0  0  0  0  0  0  0  0  0  0  0
    2.0769   -8.6411   -3.4274 H   0  0  0  0  0  0  0  0  0  0  0  0
    0.8314   -9.4616   -4.3940 H   0  0  0  0  0  0  0  0  0  0  0  0
    2.4225   -9.1148   -5.1085 H   0  0  0  0  0  0  0  0  0  0  0  0
    1.9912   -6.3076   -4.9435 N   0  0  0  0  0  0  0  0  0  0  0  0
    1.6214   -4.9787   -5.4499 C   0  0  2  0  0  0  0  0  0  0  0  0
    2.8546   -4.1677   -5.9066 C   0  0  0  0  0  0  0  0  0  0  0  0
    3.9850   -4.6088   -5.7268 O   0  0  0  0  0  0  0  0  0  0  0  0
    0.8387   -4.2212   -4.3666 C   0  0  0  0  0  0  0  0  0  0  0  0
    1.8742   -3.9177   -2.8765 S   0  0  0  0  0  0  0  0  0  0  0  0
    2.9659   -6.4500   -4.6807 H   0  0  0  0  0  0  0  0  0  0  0  0
    0.9788   -5.0998   -6.3282 H   0  0  0  0  0  0  0  0  0  0  0  0
    0.4911   -3.2664   -4.7691 H   0  0  0  0  0  0  0  0  0  0  0  0
   -0.0465   -4.7973   -4.0781 H   0  0  0  0  0  0  0  0  0  0  0  0
    2.6992   -2.9498   -6.5459 N   0  0  0  0  0  0  0  0  0  0  0  0
    3.8174   -2.1080   -6.9560 C   0  0  0  0  0  0  0  0  0  0  0  0
    1.7563   -2.5954   -6.6731 H   0  0  0  0  0  0  0  0  0  0  0  0
    4.3099   -1.6732   -6.0801 H   0  0  0  0  0  0  0  0  0  0  0  0
    4.5527   -2.6882   -7.5237 H   0  0  0  0  0  0  0  0  0  0  0  0
    3.4606   -1.2932   -7.5936 H   0  0  0  0  0  0  0  0  0  0  0  0
   -5.5520    1.3988   -1.5618 C   0  0  0  0  0  0  0  0  0  0  0  0
   -6.0091    0.6923   -2.4468 O   0  0  0  0  0  0  0  0  0  0  0  0
   -6.4546    1.9075   -0.4537 C   0  0  0  0  0  0  0  0  0  0  0  0
   -6.4511    2.9999   -0.4409 H   0  0  0  0  0  0  0  0  0  0  0  0
   -7.4791    1.5599   -0.6139 H   0  0  0  0  0  0  0  0  0  0  0  0
   -6.1043    1.5377    0.5131 H   0  0  0  0  0  0  0  0  0  0  0  0
   -4.2124    1.7238   -1.5641 N   0  0  0  0  0  0  0  0  0  0  0  0
   -3.2251    1.1483   -2.4855 C   0  0  2  0  0  0  0  0  0  0  0  0
   -1.8426    0.9966   -1.8194 C   0  0  0  0  0  0  0  0  0  0  0  0
   -1.5996    1.5744   -0.7666 O   0  0  0  0  0  0  0  0  0  0  0  0
   -3.1223    2.0561   -3.7136 C   0  0  0  0  0  0  0  0  0  0  0  0
   -3.8434    2.2103   -0.7471 H   0  0  0  0  0  0  0  0  0  0  0  0
   -3.5500    0.1502   -2.7981 H   0  0  0  0  0  0  0  0  0  0  0  0
   -2.7765    3.0531   -3.4208 H   0  0  0  0  0  0  0  0  0  0  0  0
   -2.4173    1.6425   -4.4409 H   0  0  0  0  0  0  0  0  0  0  0  0
   -4.1000    2.1525   -4.1966 H   0  0  0  0  0  0  0  0  0  0  0  0
   -0.9169    0.1034   -2.3292 N   0  0  0  0  0  0  0  0  0  0  0  0
    0.5342    0.2196   -2.0898 C   0  0  2  0  0  0  0  0  0  0  0  0
    1.1711    1.5411   -2.6158 C   0  0  0  0  0  0  0  0  0  0  0  0
    0.7117    2.6425   -2.3525 O   0  0  0  0  0  0  0  0  0  0  0  0
    1.2001   -1.0198   -2.7106 C   0  0  0  0  0  0  0  0  0  0  0  0
    0.6752   -2.5546   -1.8514 S   0  0  0  0  0  0  0  0  0  0  0  0
   -1.2095   -0.3871   -3.1678 H   0  0  0  0  0  0  0  0  0  0  0  0
    0.7154    0.2000   -1.0093 H   0  0  0  0  0  0  0  0  0  0  0  0
    0.9612   -1.0856   -3.7765 H   0  0  0  0  0  0  0  0  0  0  0  0
    2.2879   -0.9458   -2.6094 H   0  0  0  0  0  0  0  0  0  0  0  0
    2.1795    1.4934   -3.5646 N   0  0  0  0  0  0  0  0  0  0  0  0
    2.6068    2.6181   -4.4062 C   0  0  2  0  0  0  0  0  0  0  0  0
    2.8893    2.1388   -5.8471 C   0  0  0  0  0  0  0  0  0  0  0  0
    2.8044    0.9448   -6.1247 O   0  0  0  0  0  0  0  0  0  0  0  0
    3.8535    3.2409   -3.7714 C   0  0  0  0  0  0  0  0  0  0  0  0
    2.4306    0.5703   -3.9132 H   0  0  0  0  0  0  0  0  0  0  0  0
    1.8170    3.3747   -4.4647 H   0  0  0  0  0  0  0  0  0  0  0  0
    4.6662    2.5089   -3.7241 H   0  0  0  0  0  0  0  0  0  0  0  0
    4.1939    4.1039   -4.3513 H   0  0  0  0  0  0  0  0  0  0  0  0
    3.6292    3.5787   -2.7543 H   0  0  0  0  0  0  0  0  0  0  0  0
    3.2198    3.0420   -6.8401 N   0  0  0  0  0  0  0  0  0  0  0  0
    3.5276    2.6524   -8.2115 C   0  0  0  0  0  0  0  0  0  0  0  0
    3.2966    4.0213   -6.5789 H   0  0  0  0  0  0  0  0  0  0  0  0
    4.4375    2.0438   -8.2418 H   0  0  0  0  0  0  0  0  0  0  0  0
    2.7027    2.0750   -8.6426 H   0  0  0  0  0  0  0  0  0  0  0  0
    3.6848    3.5412   -8.8305 H   0  0  0  0  0  0  0  0  0  0  0  0
  1  2  2  0  0  0  0
  1  3  1  0  0  0  0
  1  7  1  0  0  0  0
  3  4  1  0  0  0  0
  3  5  1  0  0  0  0
  3  6  1  0  0  0  0
  7  8  1  0  0  0  0
  7 13  1  0  0  0  0
  8  9  1  0  0  0  0
  8 11  1  0  0  0  0
  8 14  1  0  0  0  0
  9 10  2  0  0  0  0
  9 17  1  0  0  0  0
 11 12  1  0  0  0  0
 11 15  1  0  0  0  0
 11 16  1  0  0  0  0
 12 44  1  0  0  0  0
 17 18  1  0  0  0  0
 17 19  1  0  0  0  0
 18 20  1  0  0  0  0
 18 21  1  0  0  0  0
 18 22  1  0  0  0  0
 23 24  2  0  0  0  0
 23 25  1  0  0  0  0
 23 29  1  0  0  0  0
 25 26  1  0  0  0  0
 25 27  1  0  0  0  0
 25 28  1  0  0  0  0
 29 30  1  0  0  0  0
 29 34  1  0  0  0  0
 30 31  1  0  0  0  0
 30 33  1  0  0  0  0
 30 35  1  0  0  0  0
 31 32  2  0  0  0  0
 31 39  1  0  0  0  0
 33 36  1  0  0  0  0
 33 37  1  0  0  0  0
 33 38  1  0  0  0  0
 39 40  1  0  0  0  0
 39 45  1  0  0  0  0
 40 41  1  0  0  0  0
 40 43  1  0  0  0  0
 40 46  1  0  0  0  0
 41 42  2  0  0  0  0
 41 49  1  0  0  0  0
 43 44  1  0  0  0  0
 43 47  1  0  0  0  0
 43 48  1  0  0  0  0
 49 50  1  0  0  0  0
 49 54  1  0  0  0  0
 50 51  1  0  0  0  0
 50 53  1  0  0  0  0
 50 55  1  0  0  0  0
 51 52  2  0  0  0  0
 51 59  1  0  0  0  0
 53 56  1  0  0  0  0
 53 57  1  0  0  0  0
 53 58  1  0  0  0  0
 59 60  1  0  0  0  0
 59 61  1  0  0  0  0
 60 62  1  0  0  0  0
 60 63  1  0  0  0  0
 60 64  1  0  0  0  0
M  END
$$$$

  -OEChem-05262216053D

 64 63  0     1  0  0  0  0  0999 V2000
    1.1692   -7.3254   -4.9629 C   0  0  0  0  0  0  0  0  0  0  0  0
    0.0055   -7.2512   -5.3259 O   0  0  0  0  0  0  0  0  0  0  0  0
    1.7471   -8.6532   -4.5115 C   0  0  0  0  0  0  0  0  0  0  0  0
    2.1104   -8.5717   -3.4841 H   0  0  0  0  0  0  0  0  0  0  0  0
    0.9800   -9.4317   -4.5531 H   0  0  0  0  0  0  0  0  0  0  0  0
    2.5763   -8.9398   -5.1629 H   0  0  0  0  0  0  0  0  0  0  0  0
    1.9579   -6.1959   -4.9719 N   0  0  0  0  0  0  0  0  0  0  0  0
    1.5093   -4.8703   -5.4196 C   0  0  2  0  0  0  0  0  0  0  0  0
    2.6861   -3.9842   -5.8834 C   0  0  0  0  0  0  0  0  0  0  0  0
    3.8431   -4.3416   -5.6893 O   0  0  0  0  0  0  0  0  0  0  0  0
    0.7297   -4.1892   -4.2846 C   0  0  0  0  0  0  0  0  0  0  0  0
    1.8003   -3.9049   -2.8141 S   0  0  0  0  0  0  0  0  0  0  0  0
    2.9382   -6.2919   -4.7091 H   0  0  0  0  0  0  0  0  0  0  0  0
    0.8452   -4.9922   -6.2818 H   0  0  0  0  0  0  0  0  0  0  0  0
    0.3332   -3.2342   -4.6384 H   0  0  0  0  0  0  0  0  0  0  0  0
   -0.1232   -4.8118   -3.9950 H   0  0  0  0  0  0  0  0  0  0  0  0
    2.4507   -2.7939   -6.5496 N   0  0  0  0  0  0  0  0  0  0  0  0
    3.5134   -1.9204   -7.0349 C   0  0  0  0  0  0  0  0  0  0  0  0
    1.4874   -2.5342   -6.7393 H   0  0  0  0  0  0  0  0  0  0  0  0
    4.0178   -1.4281   -6.1969 H   0  0  0  0  0  0  0  0  0  0  0  0
    4.2534   -2.4909   -7.6069 H   0  0  0  0  0  0  0  0  0  0  0  0
    3.0979   -1.1487   -7.6905 H   0  0  0  0  0  0  0  0  0  0  0  0
   -5.5440    1.3541   -1.4287 C   0  0  0  0  0  0  0  0  0  0  0  0
   -6.0405    0.4402   -2.0685 O   0  0  0  0  0  0  0  0  0  0  0  0
   -6.3572    2.0722   -0.3687 C   0  0  0  0  0  0  0  0  0  0  0  0
   -6.3926    3.1421   -0.5875 H   0  0  0  0  0  0  0  0  0  0  0  0
   -7.3786    1.6819   -0.3480 H   0  0  0  0  0  0  0  0  0  0  0  0
   -5.9024    1.9222    0.6136 H   0  0  0  0  0  0  0  0  0  0  0  0
   -4.2355    1.7227   -1.6556 N   0  0  0  0  0  0  0  0  0  0  0  0
   -3.2983    0.9662   -2.4949 C   0  0  2  0  0  0  0  0  0  0  0  0
   -1.8568    1.0567   -1.9519 C   0  0  0  0  0  0  0  0  0  0  0  0
   -1.5867    1.8696   -1.0791 O   0  0  0  0  0  0  0  0  0  0  0  0
   -3.3706    1.5170   -3.9219 C   0  0  0  0  0  0  0  0  0  0  0  0
   -3.8214    2.3967   -1.0109 H   0  0  0  0  0  0  0  0  0  0  0  0
   -3.5793   -0.0924   -2.5009 H   0  0  0  0  0  0  0  0  0  0  0  0
   -3.0899    2.5752   -3.9373 H   0  0  0  0  0  0  0  0  0  0  0  0
   -2.6943    0.9667   -4.5827 H   0  0  0  0  0  0  0  0  0  0  0  0
   -4.3887    1.4207   -4.3130 H   0  0  0  0  0  0  0  0  0  0  0  0
   -0.8978    0.1512   -2.3692 N   0  0  0  0  0  0  0  0  0  0  0  0
    0.5499    0.2641   -2.1080 C   0  0  2  0  0  0  0  0  0  0  0  0
    1.2054    1.5450   -2.6950 C   0  0  0  0  0  0  0  0  0  0  0  0
    1.0853    2.6422   -2.1726 O   0  0  0  0  0  0  0  0  0  0  0  0
    1.2187   -1.0004   -2.6681 C   0  0  0  0  0  0  0  0  0  0  0  0
    0.6706   -2.5010   -1.7657 S   0  0  0  0  0  0  0  0  0  0  0  0
   -1.2113   -0.5710   -3.0099 H   0  0  0  0  0  0  0  0  0  0  0  0
    0.7158    0.2983   -1.0251 H   0  0  0  0  0  0  0  0  0  0  0  0
    0.9940   -1.1086   -3.7330 H   0  0  0  0  0  0  0  0  0  0  0  0
    2.3059   -0.9200   -2.5581 H   0  0  0  0  0  0  0  0  0  0  0  0
    1.9933    1.4630   -3.8308 N   0  0  0  0  0  0  0  0  0  0  0  0
    2.4647    2.6144   -4.6079 C   0  0  2  0  0  0  0  0  0  0  0  0
    2.4464    2.2935   -6.1171 C   0  0  0  0  0  0  0  0  0  0  0  0
    2.2111    1.1494   -6.4989 O   0  0  0  0  0  0  0  0  0  0  0  0
    3.8786    2.9648   -4.1371 C   0  0  0  0  0  0  0  0  0  0  0  0
    1.9984    0.5711   -4.3217 H   0  0  0  0  0  0  0  0  0  0  0  0
    1.8055    3.4746   -4.4469 H   0  0  0  0  0  0  0  0  0  0  0  0
    4.5596    2.1252   -4.3096 H   0  0  0  0  0  0  0  0  0  0  0  0
    4.2584    3.8389   -4.6743 H   0  0  0  0  0  0  0  0  0  0  0  0
    3.8727    3.1946   -3.0666 H   0  0  0  0  0  0  0  0  0  0  0  0
    2.6749    3.2873   -7.0499 N   0  0  0  0  0  0  0  0  0  0  0  0
    2.6769    3.0539   -8.4888 C   0  0  0  0  0  0  0  0  0  0  0  0
    2.8595    4.2250   -6.7036 H   0  0  0  0  0  0  0  0  0  0  0  0
    3.4724    2.3527   -8.7619 H   0  0  0  0  0  0  0  0  0  0  0  0
    1.7155    2.6416   -8.8129 H   0  0  0  0  0  0  0  0  0  0  0  0
    2.8461    3.9935   -9.0237 H   0  0  0  0  0  0  0  0  0  0  0  0
  1  2  2  0  0  0  0
  1  3  1  0  0  0  0
  1  7  1  0  0  0  0
  3  4  1  0  0  0  0
  3  5  1  0  0  0  0
  3  6  1  0  0  0  0
  7  8  1  0  0  0  0
  7 13  1  0  0  0  0
  8  9  1  0  0  0  0
  8 11  1  0  0  0  0
  8 14  1  0  0  0  0
  9 10  2  0  0  0  0
  9 17  1  0  0  0  0
 11 12  1  0  0  0  0
 11 15  1  0  0  0  0
 11 16  1  0  0  0  0
 12 44  1  0  0  0  0
 17 18  1  0  0  0  0
 17 19  1  0  0  0  0
 18 20  1  0  0  0  0
 18 21  1  0  0  0  0
 18 22  1  0  0  0  0
 23 24  2  0  0  0  0
 23 25  1  0  0  0  0
 23 29  1  0  0  0  0
 25 26  1  0  0  0  0
 25 27  1  0  0  0  0
 25 28  1  0  0  0  0
 29 30  1  0  0  0  0
 29 34  1  0  0  0  0
 30 31  1  0  0  0  0
 30 33  1  0  0  0  0
 30 35  1  0  0  0  0
 31 32  2  0  0  0  0
 31 39  1  0  0  0  0
 33 36  1  0  0  0  0
 33 37  1  0  0  0  0
 33 38  1  0  0  0  0
 39 40  1  0  0  0  0
 39 45  1  0  0  0  0
 40 41  1  0  0  0  0
 40 43  1  0  0  0  0
 40 46  1  0  0  0  0
 41 42  2  0  0  0  0
 41 49  1  0  0  0  0
 43 44  1  0  0  0  0
 43 47  1  0  0  0  0
 43 48  1  0  0  0  0
 49 50  1  0  0  0  0
 49 54  1  0  0  0  0
 50 51  1  0  0  0  0
 50 53  1  0  0  0  0
 50 55  1  0  0  0  0
 51 52  2  0  0  0  0
 51 59  1  0  0  0  0
 53 56  1  0  0  0  0
 53 57  1  0  0  0  0
 53 58  1  0  0  0  0
 59 60  1  0  0  0  0
 59 61  1  0  0  0  0
 60 62  1  0  0  0  0
 60 63  1  0  0  0  0
 60 64  1  0  0  0  0
M  END
$$$$

  -OEChem-05262216053D

 64 63  0     1  0  0  0  0  0999 V2000
    1.2443   -7.2212   -5.0639 C   0  0  0  0  0  0  0  0  0  0  0  0
    0.0614   -7.2136   -5.3677 O   0  0  0  0  0  0  0  0  0  0  0  0
    1.9307   -8.5219   -4.6937 C   0  0  0  0  0  0  0  0  0  0  0  0
    2.3107   -8.4644   -3.6707 H   0  0  0  0  0  0  0  0  0  0  0  0
    1.2233   -9.3532   -4.7608 H   0  0  0  0  0  0  0  0  0  0  0  0
    2.7632   -8.7117   -5.3753 H   0  0  0  0  0  0  0  0  0  0  0  0
    1.9539   -6.0404   -5.0643 N   0  0  0  0  0  0  0  0  0  0  0  0
    1.3932   -4.7345   -5.4362 C   0  0  2  0  0  0  0  0  0  0  0  0
    2.4787   -3.7531   -5.9294 C   0  0  0  0  0  0  0  0  0  0  0  0
    3.6666   -4.0210   -5.7849 O   0  0  0  0  0  0  0  0  0  0  0  0
    0.6367   -4.1464   -4.2353 C   0  0  0  0  0  0  0  0  0  0  0  0
    1.7621   -3.8501   -2.8089 S   0  0  0  0  0  0  0  0  0  0  0  0
    2.9507   -6.0775   -4.8537 H   0  0  0  0  0  0  0  0  0  0  0  0
    0.6899   -4.8729   -6.2641 H   0  0  0  0  0  0  0  0  0  0  0  0
    0.1650   -3.2059   -4.5305 H   0  0  0  0  0  0  0  0  0  0  0  0
   -0.1597   -4.8314   -3.9272 H   0  0  0  0  0  0  0  0  0  0  0  0
    2.1243   -2.5714   -6.5571 N   0  0  0  0  0  0  0  0  0  0  0  0
    3.0955   -1.6037   -7.0556 C   0  0  0  0  0  0  0  0  0  0  0  0
    1.1383   -2.4007   -6.7305 H   0  0  0  0  0  0  0  0  0  0  0  0
    3.5791   -1.0836   -6.2226 H   0  0  0  0  0  0  0  0  0  0  0  0
    3.8653   -2.1000   -7.6557 H   0  0  0  0  0  0  0  0  0  0  0  0
    2.5988   -0.8616   -7.6878 H   0  0  0  0  0  0  0  0  0  0  0  0
   -5.5475    1.3932   -1.1476 C   0  0  0  0  0  0  0  0  0  0  0  0
   -6.0159    0.2696   -1.2415 O   0  0  0  0  0  0  0  0  0  0  0  0
   -6.3149    2.4800   -0.4190 C   0  0  0  0  0  0  0  0  0  0  0  0
   -6.5956    3.2696   -1.1197 H   0  0  0  0  0  0  0  0  0  0  0  0
   -7.2227    2.0654    0.0280 H   0  0  0  0  0  0  0  0  0  0  0  0
   -5.6965    2.9079    0.3736 H   0  0  0  0  0  0  0  0  0  0  0  0
   -4.3192    1.6750   -1.7065 N   0  0  0  0  0  0  0  0  0  0  0  0
   -3.4243    0.6634   -2.2836 C   0  0  2  0  0  0  0  0  0  0  0  0
   -1.9391    1.0517   -2.1164 C   0  0  0  0  0  0  0  0  0  0  0  0
   -1.6453    2.1428   -1.6510 O   0  0  0  0  0  0  0  0  0  0  0  0
   -3.7779    0.4914   -3.7646 C   0  0  0  0  0  0  0  0  0  0  0  0
   -3.9008    2.5782   -1.4829 H   0  0  0  0  0  0  0  0  0  0  0  0
   -3.5689   -0.2908   -1.7653 H   0  0  0  0  0  0  0  0  0  0  0  0
   -3.6259    1.4307   -4.3055 H   0  0  0  0  0  0  0  0  0  0  0  0
   -3.1541   -0.2810   -4.2236 H   0  0  0  0  0  0  0  0  0  0  0  0
   -4.8259    0.1930   -3.8717 H   0  0  0  0  0  0  0  0  0  0  0  0
   -0.9448    0.1539   -2.4633 N   0  0  0  0  0  0  0  0  0  0  0  0
    0.4917    0.3197   -2.1719 C   0  0  2  0  0  0  0  0  0  0  0  0
    1.1372    1.5836   -2.7945 C   0  0  0  0  0  0  0  0  0  0  0  0
    1.3872    2.5657   -2.1100 O   0  0  0  0  0  0  0  0  0  0  0  0
    1.2073   -0.9396   -2.6805 C   0  0  0  0  0  0  0  0  0  0  0  0
    0.6758   -2.4251   -1.7425 S   0  0  0  0  0  0  0  0  0  0  0  0
   -1.2634   -0.7854   -2.6851 H   0  0  0  0  0  0  0  0  0  0  0  0
    0.6312    0.3958   -1.0876 H   0  0  0  0  0  0  0  0  0  0  0  0
    1.0060   -1.0872   -3.7456 H   0  0  0  0  0  0  0  0  0  0  0  0
    2.2895   -0.8212   -2.5577 H   0  0  0  0  0  0  0  0  0  0  0  0
    1.6931    1.5229   -4.0605 N   0  0  0  0  0  0  0  0  0  0  0  0
    2.3024    2.6571   -4.7616 C   0  0  2  0  0  0  0  0  0  0  0  0
    2.0885    2.5305   -6.2845 C   0  0  0  0  0  0  0  0  0  0  0  0
    1.6728    1.4763   -6.7591 O   0  0  0  0  0  0  0  0  0  0  0  0
    3.7959    2.6946   -4.4237 C   0  0  0  0  0  0  0  0  0  0  0  0
    1.4098    0.7409   -4.6479 H   0  0  0  0  0  0  0  0  0  0  0  0
    1.8326    3.5912   -4.4348 H   0  0  0  0  0  0  0  0  0  0  0  0
    4.2853    1.7694   -4.7446 H   0  0  0  0  0  0  0  0  0  0  0  0
    4.2818    3.5383   -4.9226 H   0  0  0  0  0  0  0  0  0  0  0  0
    3.9372    2.8067   -3.3436 H   0  0  0  0  0  0  0  0  0  0  0  0
    2.3462    3.5977   -7.1242 N   0  0  0  0  0  0  0  0  0  0  0  0
    2.1345    3.5527   -8.5658 C   0  0  0  0  0  0  0  0  0  0  0  0
    2.6546    4.4678   -6.6990 H   0  0  0  0  0  0  0  0  0  0  0  0
    2.7170    2.7415   -9.0148 H   0  0  0  0  0  0  0  0  0  0  0  0
    1.0753    3.3929   -8.7925 H   0  0  0  0  0  0  0  0  0  0  0  0
    2.4484    4.4957   -9.0237 H   0  0  0  0  0  0  0  0  0  0  0  0
  1  2  2  0  0  0  0
  1  3  1  0  0  0  0
  1  7  1  0  0  0  0
  3  4  1  0  0  0  0
  3  5  1  0  0  0  0
  3  6  1  0  0  0  0
  7  8  1  0  0  0  0
  7 13  1  0  0  0  0
  8  9  1  0  0  0  0
  8 11  1  0  0  0  0
  8 14  1  0  0  0  0
  9 10  2  0  0  0  0
  9 17  1  0  0  0  0
 11 12  1  0  0  0  0
 11 15  1  0  0  0  0
 11 16  1  0  0  0  0
 12 44  1  0  0  0  0
 17 18  1  0  0  0  0
 17 19  1  0  0  0  0
 18 20  1  0  0  0  0
 18 21  1  0  0  0  0
 18 22  1  0  0  0  0
 23 24  2  0  0  0  0
 23 25  1  0  0  0  0
 23 29  1  0  0  0  0
 25 26  1  0  0  0  0
 25 27  1  0  0  0  0
 25 28  1  0  0  0  0
 29 30  1  0  0  0  0
 29 34  1  0  0  0  0
 30 31  1  0  0  0  0
 30 33  1  0  0  0  0
 30 35  1  0  0  0  0
 31 32  2  0  0  0  0
 31 39  1  0  0  0  0
 33 36  1  0  0  0  0
 33 37  1  0  0  0  0
 33 38  1  0  0  0  0
 39 40  1  0  0  0  0
 39 45  1  0  0  0  0
 40 41  1  0  0  0  0
 40 43  1  0  0  0  0
 40 46  1  0  0  0  0
 41 42  2  0  0  0  0
 41 49  1  0  0  0  0
 43 44  1  0  0  0  0
 43 47  1  0  0  0  0
 43 48  1  0  0  0  0
 49 50  1  0  0  0  0
 49 54  1  0  0  0  0
 50 51  1  0  0  0  0
 50 53  1  0  0  0  0
 50 55  1  0  0  0  0
 51 52  2  0  0  0  0
 51 59  1  0  0  0  0
 53 56  1  0  0  0  0
 53 57  1  0  0  0  0
 53 58  1  0  0  0  0
 59 60  1  0  0  0  0
 59 61  1  0  0  0  0
 60 62  1  0  0  0  0
 60 63  1  0  0  0  0
 60 64  1  0  0  0  0
M  END
$$$$

  -OEChem-05262216053D

 64 63  0     1  0  0  0  0  0999 V2000
    0.9204   -7.3259   -4.6824 C   0  0  0  0  0  0  0  0  0  0  0  0
   -0.2332   -7.1759   -5.0543 O   0  0  0  0  0  0  0  0  0  0  0  0
    1.3493   -8.6226   -4.0226 C   0  0  0  0  0  0  0  0  0  0  0  0
    1.8165   -8.4130   -3.0576 H   0  0  0  0  0  0  0  0  0  0  0  0
    0.4808   -9.2668   -3.8594 H   0  0  0  0  0  0  0  0  0  0  0  0
    2.0652   -9.1477   -4.6595 H   0  0  0  0  0  0  0  0  0  0  0  0
    1.8324   -6.3099   -4.8673 N   0  0  0  0  0  0  0  0  0  0  0  0
    1.5279   -5.0186   -5.4999 C   0  0  2  0  0  0  0  0  0  0  0  0
    2.7934   -4.3332   -6.0598 C   0  0  0  0  0  0  0  0  0  0  0  0
    3.9009   -4.8220   -5.8641 O   0  0  0  0  0  0  0  0  0  0  0  0
    0.8195   -4.1095   -4.4835 C   0  0  0  0  0  0  0  0  0  0  0  0
    1.8914   -3.7620   -3.0289 S   0  0  0  0  0  0  0  0  0  0  0  0
    2.8001   -6.4773   -4.5931 H   0  0  0  0  0  0  0  0  0  0  0  0
    0.8570   -5.1887   -6.3483 H   0  0  0  0  0  0  0  0  0  0  0  0
    0.5412   -3.1675   -4.9631 H   0  0  0  0  0  0  0  0  0  0  0  0
   -0.1030   -4.5909   -4.1430 H   0  0  0  0  0  0  0  0  0  0  0  0
    2.6929   -3.1740   -6.8099 N   0  0  0  0  0  0  0  0  0  0  0  0
    3.8489   -2.4772   -7.3620 C   0  0  0  0  0  0  0  0  0  0  0  0
    1.7643   -2.8075   -6.9971 H   0  0  0  0  0  0  0  0  0  0  0  0
    4.5279   -2.1676   -6.5604 H   0  0  0  0  0  0  0  0  0  0  0  0
    4.3946   -3.1263   -8.0552 H   0  0  0  0  0  0  0  0  0  0  0  0
    3.5283   -1.5832   -7.9058 H   0  0  0  0  0  0  0  0  0  0  0  0
   -5.5170    1.1046   -1.2398 C   0  0  0  0  0  0  0  0  0  0  0  0
   -5.9567    0.0397   -1.6438 O   0  0  0  0  0  0  0  0  0  0  0  0
   -6.2969    1.9126   -0.2204 C   0  0  0  0  0  0  0  0  0  0  0  0
   -6.5408    2.8950   -0.6316 H   0  0  0  0  0  0  0  0  0  0  0  0
   -7.2264    1.3972    0.0372 H   0  0  0  0  0  0  0  0  0  0  0  0
   -5.7017    2.0416    0.6871 H   0  0  0  0  0  0  0  0  0  0  0  0
   -4.3001    1.5640   -1.6972 N   0  0  0  0  0  0  0  0  0  0  0  0
   -3.3898    0.7846   -2.5456 C   0  0  2  0  0  0  0  0  0  0  0  0
   -1.9127    1.1043   -2.2364 C   0  0  0  0  0  0  0  0  0  0  0  0
   -1.6209    2.1367   -1.6489 O   0  0  0  0  0  0  0  0  0  0  0  0
   -3.7090    1.0954   -4.0114 C   0  0  0  0  0  0  0  0  0  0  0  0
   -3.9125    2.3955   -1.2512 H   0  0  0  0  0  0  0  0  0  0  0  0
   -3.5400   -0.2848   -2.3618 H   0  0  0  0  0  0  0  0  0  0  0  0
   -3.5506    2.1587   -4.2192 H   0  0  0  0  0  0  0  0  0  0  0  0
   -3.0678    0.5110   -4.6782 H   0  0  0  0  0  0  0  0  0  0  0  0
   -4.7524    0.8488   -4.2334 H   0  0  0  0  0  0  0  0  0  0  0  0
   -0.9157    0.2268   -2.6220 N   0  0  0  0  0  0  0  0  0  0  0  0
    0.5108    0.3741   -2.2812 C   0  0  2  0  0  0  0  0  0  0  0  0
    1.1465    1.6815   -2.8068 C   0  0  0  0  0  0  0  0  0  0  0  0
    1.6191    2.4998   -2.0299 O   0  0  0  0  0  0  0  0  0  0  0  0
    1.2631   -0.8383   -2.8418 C   0  0  0  0  0  0  0  0  0  0  0  0
    0.7134   -2.3785   -2.0065 S   0  0  0  0  0  0  0  0  0  0  0  0
   -1.2274   -0.6850   -2.9461 H   0  0  0  0  0  0  0  0  0  0  0  0
    0.6186    0.3828   -1.1901 H   0  0  0  0  0  0  0  0  0  0  0  0
    1.0984   -0.9243   -3.9197 H   0  0  0  0  0  0  0  0  0  0  0  0
    2.3385   -0.7107   -2.6757 H   0  0  0  0  0  0  0  0  0  0  0  0
    1.4417    1.8060   -4.1525 N   0  0  0  0  0  0  0  0  0  0  0  0
    1.9259    3.0457   -4.7699 C   0  0  2  0  0  0  0  0  0  0  0  0
    1.2168    3.2946   -6.1171 C   0  0  0  0  0  0  0  0  0  0  0  0
    0.6099    2.3796   -6.6673 O   0  0  0  0  0  0  0  0  0  0  0  0
    3.4392    2.9281   -4.9655 C   0  0  0  0  0  0  0  0  0  0  0  0
    0.9338    1.1805   -4.7758 H   0  0  0  0  0  0  0  0  0  0  0  0
    1.7105    3.9015   -4.1205 H   0  0  0  0  0  0  0  0  0  0  0  0
    3.6763    2.0908   -5.6296 H   0  0  0  0  0  0  0  0  0  0  0  0
    3.8423    3.8461   -5.4036 H   0  0  0  0  0  0  0  0  0  0  0  0
    3.9324    2.7604   -4.0027 H   0  0  0  0  0  0  0  0  0  0  0  0
    1.2497    4.5441   -6.7072 N   0  0  0  0  0  0  0  0  0  0  0  0
    0.5501    4.8659   -7.9450 C   0  0  0  0  0  0  0  0  0  0  0  0
    1.7176    5.2901   -6.2001 H   0  0  0  0  0  0  0  0  0  0  0  0
    0.8679    4.1984   -8.7528 H   0  0  0  0  0  0  0  0  0  0  0  0
   -0.5319    4.7665   -7.8102 H   0  0  0  0  0  0  0  0  0  0  0  0
    0.7683    5.8954   -8.2448 H   0  0  0  0  0  0  0  0  0  0  0  0
  1  2  2  0  0  0  0
  1  3  1  0  0  0  0
  1  7  1  0  0  0  0
  3  4  1  0  0  0  0
  3  5  1  0  0  0  0
  3  6  1  0  0  0  0
  7  8  1  0  0  0  0
  7 13  1  0  0  0  0
  8  9  1  0  0  0  0
  8 11  1  0  0  0  0
  8 14  1  0  0  0  0
  9 10  2  0  0  0  0
  9 17  1  0  0  0  0
 11 12  1  0  0  0  0
 11 15  1  0  0  0  0
 11 16  1  0  0  0  0
 12 44  1  0  0  0  0
 17 18  1  0  0  0  0
 17 19  1  0  0  0  0
 18 20  1  0  0  0  0
 18 21  1  0  0  0  0
 18 22  1  0  0  0  0
 23 24  2  0  0  0  0
 23 25  1  0  0  0  0
 23 29  1  0  0  0  0
 25 26  1  0  0  0  0
 25 27  1  0  0  0  0
 25 28  1  0  0  0  0
 29 30  1  0  0  0  0
 29 34  1  0  0  0  0
 30 31  1  0  0  0  0
 30 33  1  0  0  0  0
 30 35  1  0  0  0  0
 31 32  2  0  0  0  0
 31 39  1  0  0  0  0
 33 36  1  0  0  0  0
 33 37  1  0  0  0  0
 33 38  1  0  0  0  0
 39 40  1  0  0  0  0
 39 45  1  0  0  0  0
 40 41  1  0  0  0  0
 40 43  1  0  0  0  0
 40 46  1  0  0  0  0
 41 42  2  0  0  0  0
 41 49  1  0  0  0  0
 43 44  1  0  0  0  0
 43 47  1  0  0  0  0
 43 48  1  0  0  0  0
 49 50  1  0  0  0  0
 49 54  1  0  0  0  0
 50 51  1  0  0  0  0
 50 53  1  0  0  0  0
 50 55  1  0  0  0  0
 51 52  2  0  0  0  0
 51 59  1  0  0  0  0
 53 56  1  0  0  0  0
 53 57  1  0  0  0  0
 53 58  1  0  0  0  0
 59 60  1  0  0  0  0
 59 61  1  0  0  0  0
 60 62  1  0  0  0  0
 60 63  1  0  0  0  0
 60 64  1  0  0  0  0
M  END
$$$$

  -OEChem-05262216053D

 64 63  0     1  0  0  0  0  0999 V2000
    0.9084   -7.3717   -4.6610 C   0  0  0  0  0  0  0  0  0  0  0  0
   -0.2235   -7.2333   -5.0981 O   0  0  0  0  0  0  0  0  0  0  0  0
    1.3212   -8.6736   -4.0017 C   0  0  0  0  0  0  0  0  0  0  0  0
    1.5726   -8.4963   -2.9530 H   0  0  0  0  0  0  0  0  0  0  0  0
    0.5037   -9.3983   -4.0523 H   0  0  0  0  0  0  0  0  0  0  0  0
    2.1919   -9.0910   -4.5131 H   0  0  0  0  0  0  0  0  0  0  0  0
    1.8164   -6.3431   -4.7837 N   0  0  0  0  0  0  0  0  0  0  0  0
    1.5433   -5.0681   -5.4611 C   0  0  2  0  0  0  0  0  0  0  0  0
    2.8286   -4.4152   -6.0144 C   0  0  0  0  0  0  0  0  0  0  0  0
    3.9287   -4.8915   -5.7556 O   0  0  0  0  0  0  0  0  0  0  0  0
    0.8201   -4.1233   -4.4887 C   0  0  0  0  0  0  0  0  0  0  0  0
    1.8426   -3.7729   -3.0000 S   0  0  0  0  0  0  0  0  0  0  0  0
    2.7713   -6.5059   -4.4661 H   0  0  0  0  0  0  0  0  0  0  0  0
    0.8908   -5.2548   -6.3204 H   0  0  0  0  0  0  0  0  0  0  0  0
    0.5814   -3.1841   -4.9948 H   0  0  0  0  0  0  0  0  0  0  0  0
   -0.1244   -4.5786   -4.1731 H   0  0  0  0  0  0  0  0  0  0  0  0
    2.7522   -3.3108   -6.8452 N   0  0  0  0  0  0  0  0  0  0  0  0
    3.9234   -2.6717   -7.4337 C   0  0  0  0  0  0  0  0  0  0  0  0
    1.8293   -2.9707   -7.0978 H   0  0  0  0  0  0  0  0  0  0  0  0
    4.6032   -2.3208   -6.6498 H   0  0  0  0  0  0  0  0  0  0  0  0
    4.4619   -3.3747   -8.0784 H   0  0  0  0  0  0  0  0  0  0  0  0
    3.6209   -1.8112   -8.0384 H   0  0  0  0  0  0  0  0  0  0  0  0
   -5.4017    1.0210   -1.3114 C   0  0  0  0  0  0  0  0  0  0  0  0
   -5.7481   -0.0734   -1.7266 O   0  0  0  0  0  0  0  0  0  0  0  0
   -6.1733    1.6873   -0.1885 C   0  0  0  0  0  0  0  0  0  0  0  0
   -6.5153    2.6754   -0.5055 H   0  0  0  0  0  0  0  0  0  0  0  0
   -7.0436    1.0827    0.0821 H   0  0  0  0  0  0  0  0  0  0  0  0
   -5.5318    1.7953    0.6895 H   0  0  0  0  0  0  0  0  0  0  0  0
   -4.2972    1.6486   -1.8474 N   0  0  0  0  0  0  0  0  0  0  0  0
   -3.3502    1.0045   -2.7669 C   0  0  2  0  0  0  0  0  0  0  0  0
   -1.8951    1.1923   -2.2969 C   0  0  0  0  0  0  0  0  0  0  0  0
   -1.5880    2.1805   -1.6432 O   0  0  0  0  0  0  0  0  0  0  0  0
   -3.5403    1.6217   -4.1544 C   0  0  0  0  0  0  0  0  0  0  0  0
   -3.9633    2.4806   -1.3623 H   0  0  0  0  0  0  0  0  0  0  0  0
   -3.5418   -0.0719   -2.8248 H   0  0  0  0  0  0  0  0  0  0  0  0
   -3.3455    2.6990   -4.1253 H   0  0  0  0  0  0  0  0  0  0  0  0
   -2.8542    1.1659   -4.8752 H   0  0  0  0  0  0  0  0  0  0  0  0
   -4.5657    1.4612   -4.5017 H   0  0  0  0  0  0  0  0  0  0  0  0
   -0.9217    0.2761   -2.6519 N   0  0  0  0  0  0  0  0  0  0  0  0
    0.4939    0.3738   -2.2538 C   0  0  2  0  0  0  0  0  0  0  0  0
    1.1585    1.6684   -2.7636 C   0  0  0  0  0  0  0  0  0  0  0  0
    1.8123    2.3790   -2.0124 O   0  0  0  0  0  0  0  0  0  0  0  0
    1.2494   -0.8398   -2.8039 C   0  0  0  0  0  0  0  0  0  0  0  0
    0.6334   -2.3832   -2.0235 S   0  0  0  0  0  0  0  0  0  0  0  0
   -1.2483   -0.6043   -3.0417 H   0  0  0  0  0  0  0  0  0  0  0  0
    0.5649    0.3749   -1.1598 H   0  0  0  0  0  0  0  0  0  0  0  0
    1.1376   -0.8999   -3.8906 H   0  0  0  0  0  0  0  0  0  0  0  0
    2.3175   -0.7352   -2.5833 H   0  0  0  0  0  0  0  0  0  0  0  0
    1.2024    1.9050   -4.1245 N   0  0  0  0  0  0  0  0  0  0  0  0
    1.5316    3.2144   -4.6961 C   0  0  2  0  0  0  0  0  0  0  0  0
    0.4989    3.6008   -5.7760 C   0  0  0  0  0  0  0  0  0  0  0  0
   -0.2817    2.7556   -6.2071 O   0  0  0  0  0  0  0  0  0  0  0  0
    2.9444    3.1416   -5.2785 C   0  0  0  0  0  0  0  0  0  0  0  0
    0.5382    1.3589   -4.6717 H   0  0  0  0  0  0  0  0  0  0  0  0
    1.5003    3.9884   -3.9213 H   0  0  0  0  0  0  0  0  0  0  0  0
    2.9986    2.3756   -6.0584 H   0  0  0  0  0  0  0  0  0  0  0  0
    3.2321    4.1037   -5.7126 H   0  0  0  0  0  0  0  0  0  0  0  0
    3.6623    2.8897   -4.4912 H   0  0  0  0  0  0  0  0  0  0  0  0
    0.4277    4.8966   -6.2517 N   0  0  0  0  0  0  0  0  0  0  0  0
   -0.5661    5.3372   -7.2232 C   0  0  0  0  0  0  0  0  0  0  0  0
    1.0423    5.5868   -5.8292 H   0  0  0  0  0  0  0  0  0  0  0  0
   -0.4957    4.7435   -8.1409 H   0  0  0  0  0  0  0  0  0  0  0  0
   -1.5759    5.2328   -6.8125 H   0  0  0  0  0  0  0  0  0  0  0  0
   -0.4038    6.3883   -7.4803 H   0  0  0  0  0  0  0  0  0  0  0  0
  1  2  2  0  0  0  0
  1  3  1  0  0  0  0
  1  7  1  0  0  0  0
  3  4  1  0  0  0  0
  3  5  1  0  0  0  0
  3  6  1  0  0  0  0
  7  8  1  0  0  0  0
  7 13  1  0  0  0  0
  8  9  1  0  0  0  0
  8 11  1  0  0  0  0
  8 14  1  0  0  0  0
  9 10  2  0  0  0  0
  9 17  1  0  0  0  0
 11 12  1  0  0  0  0
 11 15  1  0  0  0  0
 11 16  1  0  0  0  0
 12 44  1  0  0  0  0
 17 18  1  0  0  0  0
 17 19  1  0  0  0  0
 18 20  1  0  0  0  0
 18 21  1  0  0  0  0
 18 22  1  0  0  0  0
 23 24  2  0  0  0  0
 23 25  1  0  0  0  0
 23 29  1  0  0  0  0
 25 26  1  0  0  0  0
 25 27  1  0  0  0  0
 25 28  1  0  0  0  0
 29 30  1  0  0  0  0
 29 34  1  0  0  0  0
 30 31  1  0  0  0  0
 30 33  1  0  0  0  0
 30 35  1  0  0  0  0
 31 32  2  0  0  0  0
 31 39  1  0  0  0  0
 33 36  1  0  0  0  0
 33 37  1  0  0  0  0
 33 38  1  0  0  0  0
 39 40  1  0  0  0  0
 39 45  1  0  0  0  0
 40 41  1  0  0  0  0
 40 43  1  0  0  0  0
 40 46  1  0  0  0  0
 41 42  2  0  0  0  0
 41 49  1  0  0  0  0
 43 44  1  0  0  0  0
 43 47  1  0  0  0  0
 43 48  1  0  0  0  0
 49 50  1  0  0  0  0
 49 54  1  0  0  0  0
 50 51  1  0  0  0  0
 50 53  1  0  0  0  0
 50 55  1  0  0  0  0
 51 52  2  0  0  0  0
 51 59  1  0  0  0  0
 53 56  1  0  0  0  0
 53 57  1  0  0  0  0
 53 58  1  0  0  0  0
 59 60  1  0  0  0  0
 59 61  1  0  0  0  0
 60 62  1  0  0  0  0
 60 63  1  0  0  0  0
 60 64  1  0  0  0  0
M  END
$$$$

  -OEChem-05262216053D

 64 63  0     1  0  0  0  0  0999 V2000
    0.9179   -7.3914   -4.6930 C   0  0  0  0  0  0  0  0  0  0  0  0
   -0.1940   -7.2805   -5.1856 O   0  0  0  0  0  0  0  0  0  0  0  0
    1.3222   -8.6759   -3.9952 C   0  0  0  0  0  0  0  0  0  0  0  0
    1.5082   -8.4806   -2.9363 H   0  0  0  0  0  0  0  0  0  0  0  0
    0.5249   -9.4193   -4.0821 H   0  0  0  0  0  0  0  0  0  0  0  0
    2.2305   -9.0785   -4.4502 H   0  0  0  0  0  0  0  0  0  0  0  0
    1.8071   -6.3427   -4.7755 N   0  0  0  0  0  0  0  0  0  0  0  0
    1.5384   -5.0721   -5.4629 C   0  0  2  0  0  0  0  0  0  0  0  0
    2.8297   -4.4202   -6.0029 C   0  0  0  0  0  0  0  0  0  0  0  0
    3.9263   -4.8886   -5.7167 O   0  0  0  0  0  0  0  0  0  0  0  0
    0.8038   -4.1255   -4.5012 C   0  0  0  0  0  0  0  0  0  0  0  0
    1.8147   -3.7618   -3.0071 S   0  0  0  0  0  0  0  0  0  0  0  0
    2.7508   -6.4866   -4.4183 H   0  0  0  0  0  0  0  0  0  0  0  0
    0.8962   -5.2632   -6.3290 H   0  0  0  0  0  0  0  0  0  0  0  0
    0.5631   -3.1901   -5.0136 H   0  0  0  0  0  0  0  0  0  0  0  0
   -0.1401   -4.5856   -4.1908 H   0  0  0  0  0  0  0  0  0  0  0  0
    2.7656   -3.3288   -6.8524 N   0  0  0  0  0  0  0  0  0  0  0  0
    3.9453   -2.7136   -7.4493 C   0  0  0  0  0  0  0  0  0  0  0  0
    1.8469   -3.0011   -7.1350 H   0  0  0  0  0  0  0  0  0  0  0  0
    4.6400   -2.3789   -6.6714 H   0  0  0  0  0  0  0  0  0  0  0  0
    4.4611   -3.4283   -8.0991 H   0  0  0  0  0  0  0  0  0  0  0  0
    3.6570   -1.8451   -8.0495 H   0  0  0  0  0  0  0  0  0  0  0  0
   -5.3944    1.0136   -1.2730 C   0  0  0  0  0  0  0  0  0  0  0  0
   -5.7320   -0.0860   -1.6816 O   0  0  0  0  0  0  0  0  0  0  0  0
   -6.1604    1.6666   -0.1380 C   0  0  0  0  0  0  0  0  0  0  0  0
   -6.5072    2.6578   -0.4401 H   0  0  0  0  0  0  0  0  0  0  0  0
   -7.0283    1.0569    0.1289 H   0  0  0  0  0  0  0  0  0  0  0  0
   -5.5153    1.7646    0.7386 H   0  0  0  0  0  0  0  0  0  0  0  0
   -4.3046    1.6531   -1.8262 N   0  0  0  0  0  0  0  0  0  0  0  0
   -3.3747    1.0266   -2.7755 C   0  0  2  0  0  0  0  0  0  0  0  0
   -1.9091    1.2263   -2.3440 C   0  0  0  0  0  0  0  0  0  0  0  0
   -1.5876    2.2285   -1.7182 O   0  0  0  0  0  0  0  0  0  0  0  0
   -3.6113    1.6502   -4.1530 C   0  0  0  0  0  0  0  0  0  0  0  0
   -3.9780    2.4974   -1.3582 H   0  0  0  0  0  0  0  0  0  0  0  0
   -3.5572   -0.0513   -2.8359 H   0  0  0  0  0  0  0  0  0  0  0  0
   -3.4121    2.7267   -4.1268 H   0  0  0  0  0  0  0  0  0  0  0  0
   -2.9526    1.1962   -4.8998 H   0  0  0  0  0  0  0  0  0  0  0  0
   -4.6486    1.4946   -4.4656 H   0  0  0  0  0  0  0  0  0  0  0  0
   -0.9416    0.2966   -2.6836 N   0  0  0  0  0  0  0  0  0  0  0  0
    0.4720    0.3930   -2.2725 C   0  0  2  0  0  0  0  0  0  0  0  0
    1.1542    1.6758   -2.7867 C   0  0  0  0  0  0  0  0  0  0  0  0
    1.9862    2.2630   -2.1083 O   0  0  0  0  0  0  0  0  0  0  0  0
    1.2266   -0.8226   -2.8173 C   0  0  0  0  0  0  0  0  0  0  0  0
    0.6008   -2.3657   -2.0433 S   0  0  0  0  0  0  0  0  0  0  0  0
   -1.2757   -0.5996   -3.0293 H   0  0  0  0  0  0  0  0  0  0  0  0
    0.5357    0.4001   -1.1784 H   0  0  0  0  0  0  0  0  0  0  0  0
    1.1203   -0.8798   -3.9046 H   0  0  0  0  0  0  0  0  0  0  0  0
    2.2936   -0.7204   -2.5903 H   0  0  0  0  0  0  0  0  0  0  0  0
    0.9491    2.0548   -4.0991 N   0  0  0  0  0  0  0  0  0  0  0  0
    1.2313    3.4060   -4.5908 C   0  0  2  0  0  0  0  0  0  0  0  0
    0.0285    3.9423   -5.3958 C   0  0  0  0  0  0  0  0  0  0  0  0
   -0.8453    3.1694   -5.7813 O   0  0  0  0  0  0  0  0  0  0  0  0
    2.4943    3.3520   -5.4529 C   0  0  0  0  0  0  0  0  0  0  0  0
    0.1544    1.5987   -4.5457 H   0  0  0  0  0  0  0  0  0  0  0  0
    1.3969    4.0896   -3.7510 H   0  0  0  0  0  0  0  0  0  0  0  0
    2.3467    2.6872   -6.3100 H   0  0  0  0  0  0  0  0  0  0  0  0
    2.7491    4.3494   -5.8238 H   0  0  0  0  0  0  0  0  0  0  0  0
    3.3368    2.9782   -4.8621 H   0  0  0  0  0  0  0  0  0  0  0  0
   -0.0801    5.2893   -5.6859 N   0  0  0  0  0  0  0  0  0  0  0  0
   -1.2093    5.8639   -6.4069 C   0  0  0  0  0  0  0  0  0  0  0  0
    0.6265    5.9111   -5.3031 H   0  0  0  0  0  0  0  0  0  0  0  0
   -1.3136    5.3963   -7.3918 H   0  0  0  0  0  0  0  0  0  0  0  0
   -2.1377    5.7151   -5.8454 H   0  0  0  0  0  0  0  0  0  0  0  0
   -1.0595    6.9384   -6.5508 H   0  0  0  0  0  0  0  0  0  0  0  0
  1  2  2  0  0  0  0
  1  3  1  0  0  0  0
  1  7  1  0  0  0  0
  3  4  1  0  0  0  0
  3  5  1  0  0  0  0
  3  6  1  0  0  0  0
  7  8  1  0  0  0  0
  7 13  1  0  0  0  0
  8  9  1  0  0  0  0
  8 11  1  0  0  0  0
  8 14  1  0  0  0  0
  9 10  2  0  0  0  0
  9 17  1  0  0  0  0
 11 12  1  0  0  0  0
 11 15  1  0  0  0  0
 11 16  1  0  0  0  0
 12 44  1  0  0  0  0
 17 18  1  0  0  0  0
 17 19  1  0  0  0  0
 18 20  1  0  0  0  0
 18 21  1  0  0  0  0
 18 22  1  0  0  0  0
 23 24  2  0  0  0  0
 23 25  1  0  0  0  0
 23 29  1  0  0  0  0
 25 26  1  0  0  0  0
 25 27  1  0  0  0  0
 25 28  1  0  0  0  0
 29 30  1  0  0  0  0
 29 34  1  0  0  0  0
 30 31  1  0  0  0  0
 30 33  1  0  0  0  0
 30 35  1  0  0  0  0
 31 32  2  0  0  0  0
 31 39  1  0  0  0  0
 33 36  1  0  0  0  0
 33 37  1  0  0  0  0
 33 38  1  0  0  0  0
 39 40  1  0  0  0  0
 39 45  1  0  0  0  0
 40 41  1  0  0  0  0
 40 43  1  0  0  0  0
 40 46  1  0  0  0  0
 41 42  2  0  0  0  0
 41 49  1  0  0  0  0
 43 44  1  0  0  0  0
 43 47  1  0  0  0  0
 43 48  1  0  0  0  0
 49 50  1  0  0  0  0
 49 54  1  0  0  0  0
 50 51  1  0  0  0  0
 50 53  1  0  0  0  0
 50 55  1  0  0  0  0
 51 52  2  0  0  0  0
 51 59  1  0  0  0  0
 53 56  1  0  0  0  0
 53 57  1  0  0  0  0
 53 58  1  0  0  0  0
 59 60  1  0  0  0  0
 59 61  1  0  0  0  0
 60 62  1  0  0  0  0
 60 63  1  0  0  0  0
 60 64  1  0  0  0  0
M  END
$$$$

  -OEChem-05262216053D

 64 63  0     1  0  0  0  0  0999 V2000
    0.9066   -7.3760   -4.6679 C   0  0  0  0  0  0  0  0  0  0  0  0
   -0.2226   -7.2358   -5.1115 O   0  0  0  0  0  0  0  0  0  0  0  0
    1.3029   -8.6664   -3.9760 C   0  0  0  0  0  0  0  0  0  0  0  0
    1.5660   -8.4650   -2.9347 H   0  0  0  0  0  0  0  0  0  0  0  0
    0.4716   -9.3767   -3.9983 H   0  0  0  0  0  0  0  0  0  0  0  0
    2.1621   -9.1138   -4.4817 H   0  0  0  0  0  0  0  0  0  0  0  0
    1.8227   -6.3565   -4.8037 N   0  0  0  0  0  0  0  0  0  0  0  0
    1.5602   -5.0880   -5.4969 C   0  0  2  0  0  0  0  0  0  0  0  0
    2.8540   -4.4468   -6.0430 C   0  0  0  0  0  0  0  0  0  0  0  0
    3.9463   -4.9441   -5.7910 O   0  0  0  0  0  0  0  0  0  0  0  0
    0.8308   -4.1292   -4.5431 C   0  0  0  0  0  0  0  0  0  0  0  0
    1.8520   -3.7414   -3.0630 S   0  0  0  0  0  0  0  0  0  0  0  0
    2.7771   -6.5237   -4.4867 H   0  0  0  0  0  0  0  0  0  0  0  0
    0.9164   -5.2822   -6.3609 H   0  0  0  0  0  0  0  0  0  0  0  0
    0.5850   -3.2013   -5.0666 H   0  0  0  0  0  0  0  0  0  0  0  0
   -0.1107   -4.5848   -4.2191 H   0  0  0  0  0  0  0  0  0  0  0  0
    2.7949   -3.3315   -6.8608 N   0  0  0  0  0  0  0  0  0  0  0  0
    3.9783   -2.6943   -7.4262 C   0  0  0  0  0  0  0  0  0  0  0  0
    1.8783   -2.9635   -7.0969 H   0  0  0  0  0  0  0  0  0  0  0  0
    4.6433   -2.3462   -6.6288 H   0  0  0  0  0  0  0  0  0  0  0  0
    4.5267   -3.3990   -8.0603 H   0  0  0  0  0  0  0  0  0  0  0  0
    3.6902   -1.8324   -8.0356 H   0  0  0  0  0  0  0  0  0  0  0  0
   -5.4411    1.0078   -1.1767 C   0  0  0  0  0  0  0  0  0  0  0  0
   -5.7936   -0.0997   -1.5498 O   0  0  0  0  0  0  0  0  0  0  0  0
   -6.2010    1.7116   -0.0679 C   0  0  0  0  0  0  0  0  0  0  0  0
   -6.5482    2.6887   -0.4129 H   0  0  0  0  0  0  0  0  0  0  0  0
   -7.0677    1.1155    0.2315 H   0  0  0  0  0  0  0  0  0  0  0  0
   -5.5514    1.8485    0.8001 H   0  0  0  0  0  0  0  0  0  0  0  0
   -4.3439    1.6151   -1.7507 N   0  0  0  0  0  0  0  0  0  0  0  0
   -3.4322    0.9572   -2.6964 C   0  0  2  0  0  0  0  0  0  0  0  0
   -1.9562    1.1787   -2.3083 C   0  0  0  0  0  0  0  0  0  0  0  0
   -1.6277    2.1804   -1.6847 O   0  0  0  0  0  0  0  0  0  0  0  0
   -3.7093    1.5278   -4.0892 C   0  0  0  0  0  0  0  0  0  0  0  0
   -4.0107    2.4750   -1.3173 H   0  0  0  0  0  0  0  0  0  0  0  0
   -3.6101   -0.1231   -2.7111 H   0  0  0  0  0  0  0  0  0  0  0  0
   -3.5505    2.6110   -4.0982 H   0  0  0  0  0  0  0  0  0  0  0  0
   -3.0445    1.0754   -4.8310 H   0  0  0  0  0  0  0  0  0  0  0  0
   -4.7444    1.3256   -4.3818 H   0  0  0  0  0  0  0  0  0  0  0  0
   -0.9815    0.2695   -2.6841 N   0  0  0  0  0  0  0  0  0  0  0  0
    0.4441    0.3925   -2.3178 C   0  0  2  0  0  0  0  0  0  0  0  0
    1.1057    1.6856   -2.8385 C   0  0  0  0  0  0  0  0  0  0  0  0
    2.1120    2.1307   -2.3023 O   0  0  0  0  0  0  0  0  0  0  0  0
    1.1965   -0.8108   -2.8929 C   0  0  0  0  0  0  0  0  0  0  0  0
    0.6173   -2.3635   -2.1004 S   0  0  0  0  0  0  0  0  0  0  0  0
   -1.3070   -0.6290   -3.0326 H   0  0  0  0  0  0  0  0  0  0  0  0
    0.5422    0.3936   -1.2263 H   0  0  0  0  0  0  0  0  0  0  0  0
    1.0553   -0.8640   -3.9767 H   0  0  0  0  0  0  0  0  0  0  0  0
    2.2695   -0.6977   -2.7011 H   0  0  0  0  0  0  0  0  0  0  0  0
    0.6491    2.2587   -4.0097 N   0  0  0  0  0  0  0  0  0  0  0  0
    0.9657    3.6312   -4.4126 C   0  0  2  0  0  0  0  0  0  0  0  0
   -0.2911    4.3290   -4.9751 C   0  0  0  0  0  0  0  0  0  0  0  0
   -1.2455    3.6585   -5.3602 O   0  0  0  0  0  0  0  0  0  0  0  0
    2.0834    3.5835   -5.4569 C   0  0  0  0  0  0  0  0  0  0  0  0
   -0.2570    1.9157   -4.3261 H   0  0  0  0  0  0  0  0  0  0  0  0
    1.3036    4.2084   -3.5450 H   0  0  0  0  0  0  0  0  0  0  0  0
    1.7648    3.0106   -6.3336 H   0  0  0  0  0  0  0  0  0  0  0  0
    2.3525    4.5939   -5.7784 H   0  0  0  0  0  0  0  0  0  0  0  0
    2.9736    3.1071   -5.0337 H   0  0  0  0  0  0  0  0  0  0  0  0
   -0.3580    5.7082   -5.0431 N   0  0  0  0  0  0  0  0  0  0  0  0
   -1.5388    6.4294   -5.5020 C   0  0  0  0  0  0  0  0  0  0  0  0
    0.4198    6.2354   -4.6565 H   0  0  0  0  0  0  0  0  0  0  0  0
   -1.8051    6.1228   -6.5191 H   0  0  0  0  0  0  0  0  0  0  0  0
   -2.3885    6.2326   -4.8398 H   0  0  0  0  0  0  0  0  0  0  0  0
   -1.3460    7.5065   -5.5075 H   0  0  0  0  0  0  0  0  0  0  0  0
  1  2  2  0  0  0  0
  1  3  1  0  0  0  0
  1  7  1  0  0  0  0
  3  4  1  0  0  0  0
  3  5  1  0  0  0  0
  3  6  1  0  0  0  0
  7  8  1  0  0  0  0
  7 13  1  0  0  0  0
  8  9  1  0  0  0  0
  8 11  1  0  0  0  0
  8 14  1  0  0  0  0
  9 10  2  0  0  0  0
  9 17  1  0  0  0  0
 11 12  1  0  0  0  0
 11 15  1  0  0  0  0
 11 16  1  0  0  0  0
 12 44  1  0  0  0  0
 17 18  1  0  0  0  0
 17 19  1  0  0  0  0
 18 20  1  0  0  0  0
 18 21  1  0  0  0  0
 18 22  1  0  0  0  0
 23 24  2  0  0  0  0
 23 25  1  0  0  0  0
 23 29  1  0  0  0  0
 25 26  1  0  0  0  0
 25 27  1  0  0  0  0
 25 28  1  0  0  0  0
 29 30  1  0  0  0  0
 29 34  1  0  0  0  0
 30 31  1  0  0  0  0
 30 33  1  0  0  0  0
 30 35  1  0  0  0  0
 31 32  2  0  0  0  0
 31 39  1  0  0  0  0
 33 36  1  0  0  0  0
 33 37  1  0  0  0  0
 33 38  1  0  0  0  0
 39 40  1  0  0  0  0
 39 45  1  0  0  0  0
 40 41  1  0  0  0  0
 40 43  1  0  0  0  0
 40 46  1  0  0  0  0
 41 42  2  0  0  0  0
 41 49  1  0  0  0  0
 43 44  1  0  0  0  0
 43 47  1  0  0  0  0
 43 48  1  0  0  0  0
 49 50  1  0  0  0  0
 49 54  1  0  0  0  0
 50 51  1  0  0  0  0
 50 53  1  0  0  0  0
 50 55  1  0  0  0  0
 51 52  2  0  0  0  0
 51 59  1  0  0  0  0
 53 56  1  0  0  0  0
 53 57  1  0  0  0  0
 53 58  1  0  0  0  0
 59 60  1  0  0  0  0
 59 61  1  0  0  0  0
 60 62  1  0  0  0  0
 60 63  1  0  0  0  0
 60 64  1  0  0  0  0
M  END
$$$$

  -OEChem-05262216053D

 64 63  0     1  0  0  0  0  0999 V2000
    0.9087   -7.3648   -4.6559 C   0  0  0  0  0  0  0  0  0  0  0  0
   -0.2283   -7.2159   -5.0762 O   0  0  0  0  0  0  0  0  0  0  0  0
    1.3038   -8.6508   -3.9546 C   0  0  0  0  0  0  0  0  0  0  0  0
    1.5961   -8.4381   -2.9233 H   0  0  0  0  0  0  0  0  0  0  0  0
    0.4623   -9.3494   -3.9448 H   0  0  0  0  0  0  0  0  0  0  0  0
    2.1436   -9.1173   -4.4751 H   0  0  0  0  0  0  0  0  0  0  0  0
    1.8340   -6.3580   -4.8244 N   0  0  0  0  0  0  0  0  0  0  0  0
    1.5747   -5.0969   -5.5336 C   0  0  2  0  0  0  0  0  0  0  0  0
    2.8705   -4.4685   -6.0912 C   0  0  0  0  0  0  0  0  0  0  0  0
    3.9581   -4.9875   -5.8637 O   0  0  0  0  0  0  0  0  0  0  0  0
    0.8514   -4.1218   -4.5908 C   0  0  0  0  0  0  0  0  0  0  0  0
    1.8864   -3.7004   -3.1299 S   0  0  0  0  0  0  0  0  0  0  0  0
    2.7938   -6.5361   -4.5303 H   0  0  0  0  0  0  0  0  0  0  0  0
    0.9275   -5.3005   -6.3933 H   0  0  0  0  0  0  0  0  0  0  0  0
    0.5962   -3.2051   -5.1289 H   0  0  0  0  0  0  0  0  0  0  0  0
   -0.0847   -4.5746   -4.2483 H   0  0  0  0  0  0  0  0  0  0  0  0
    2.8183   -3.3388   -6.8894 N   0  0  0  0  0  0  0  0  0  0  0  0
    4.0046   -2.6961   -7.4425 C   0  0  0  0  0  0  0  0  0  0  0  0
    1.9059   -2.9415   -7.0903 H   0  0  0  0  0  0  0  0  0  0  0  0
    4.6713   -2.3651   -6.6391 H   0  0  0  0  0  0  0  0  0  0  0  0
    4.5512   -3.3905   -8.0894 H   0  0  0  0  0  0  0  0  0  0  0  0
    3.7196   -1.8223   -8.0364 H   0  0  0  0  0  0  0  0  0  0  0  0
   -5.5232    0.9567   -1.1144 C   0  0  0  0  0  0  0  0  0  0  0  0
   -5.8900   -0.1435   -1.4952 O   0  0  0  0  0  0  0  0  0  0  0  0
   -6.2845    1.6749   -0.0166 C   0  0  0  0  0  0  0  0  0  0  0  0
   -6.6029    2.6602   -0.3658 H   0  0  0  0  0  0  0  0  0  0  0  0
   -7.1693    1.0984    0.2676 H   0  0  0  0  0  0  0  0  0  0  0  0
   -5.6454    1.7956    0.8613 H   0  0  0  0  0  0  0  0  0  0  0  0
   -4.4067    1.5441   -1.6704 N   0  0  0  0  0  0  0  0  0  0  0  0
   -3.4924    0.8707   -2.6020 C   0  0  2  0  0  0  0  0  0  0  0  0
   -2.0176    1.1170   -2.2264 C   0  0  0  0  0  0  0  0  0  0  0  0
   -1.7023    2.1018   -1.5704 O   0  0  0  0  0  0  0  0  0  0  0  0
   -3.7806    1.3993   -4.0095 C   0  0  0  0  0  0  0  0  0  0  0  0
   -4.0673    2.4007   -1.2346 H   0  0  0  0  0  0  0  0  0  0  0  0
   -3.6583   -0.2117   -2.5840 H   0  0  0  0  0  0  0  0  0  0  0  0
   -3.6331    2.4837   -4.0501 H   0  0  0  0  0  0  0  0  0  0  0  0
   -3.1159    0.9307   -4.7414 H   0  0  0  0  0  0  0  0  0  0  0  0
   -4.8152    1.1790   -4.2912 H   0  0  0  0  0  0  0  0  0  0  0  0
   -1.0240    0.2520   -2.6512 N   0  0  0  0  0  0  0  0  0  0  0  0
    0.4094    0.4090   -2.3291 C   0  0  2  0  0  0  0  0  0  0  0  0
    1.0424    1.7279   -2.8317 C   0  0  0  0  0  0  0  0  0  0  0  0
    2.1759    2.0365   -2.4867 O   0  0  0  0  0  0  0  0  0  0  0  0
    1.1619   -0.7754   -2.9474 C   0  0  0  0  0  0  0  0  0  0  0  0
    0.6378   -2.3461   -2.1512 S   0  0  0  0  0  0  0  0  0  0  0  0
   -1.3265   -0.6289   -3.0593 H   0  0  0  0  0  0  0  0  0  0  0  0
    0.5387    0.3886   -1.2412 H   0  0  0  0  0  0  0  0  0  0  0  0
    0.9838   -0.8174   -4.0261 H   0  0  0  0  0  0  0  0  0  0  0  0
    2.2393   -0.6491   -2.7928 H   0  0  0  0  0  0  0  0  0  0  0  0
    0.3920    2.5033   -3.7724 N   0  0  0  0  0  0  0  0  0  0  0  0
    0.7837    3.8693   -4.1269 C   0  0  2  0  0  0  0  0  0  0  0  0
   -0.4647    4.7305   -4.4120 C   0  0  0  0  0  0  0  0  0  0  0  0
   -1.5270    4.1944   -4.7147 O   0  0  0  0  0  0  0  0  0  0  0  0
    1.6943    3.8115   -5.3558 C   0  0  0  0  0  0  0  0  0  0  0  0
   -0.5978    2.2915   -3.8929 H   0  0  0  0  0  0  0  0  0  0  0  0
    1.3239    4.3298   -3.2926 H   0  0  0  0  0  0  0  0  0  0  0  0
    1.1682    3.3530   -6.1992 H   0  0  0  0  0  0  0  0  0  0  0  0
    2.0111    4.8172   -5.6472 H   0  0  0  0  0  0  0  0  0  0  0  0
    2.5872    3.2173   -5.1369 H   0  0  0  0  0  0  0  0  0  0  0  0
   -0.3979    6.1088   -4.3312 N   0  0  0  0  0  0  0  0  0  0  0  0
   -1.5518    6.9777   -4.5288 C   0  0  0  0  0  0  0  0  0  0  0  0
    0.4782    6.5183   -4.0204 H   0  0  0  0  0  0  0  0  0  0  0  0
   -1.9766    6.8309   -5.5274 H   0  0  0  0  0  0  0  0  0  0  0  0
   -2.3240    6.7642   -3.7822 H   0  0  0  0  0  0  0  0  0  0  0  0
   -1.2571    8.0273   -4.4312 H   0  0  0  0  0  0  0  0  0  0  0  0
  1  2  2  0  0  0  0
  1  3  1  0  0  0  0
  1  7  1  0  0  0  0
  3  4  1  0  0  0  0
  3  5  1  0  0  0  0
  3  6  1  0  0  0  0
  7  8  1  0  0  0  0
  7 13  1  0  0  0  0
  8  9  1  0  0  0  0
  8 11  1  0  0  0  0
  8 14  1  0  0  0  0
  9 10  2  0  0  0  0
  9 17  1  0  0  0  0
 11 12  1  0  0  0  0
 11 15  1  0  0  0  0
 11 16  1  0  0  0  0
 12 44  1  0  0  0  0
 17 18  1  0  0  0  0
 17 19  1  0  0  0  0
 18 20  1  0  0  0  0
 18 21  1  0  0  0  0
 18 22  1  0  0  0  0
 23 24  2  0  0  0  0
 23 25  1  0  0  0  0
 23 29  1  0  0  0  0
 25 26  1  0  0  0  0
 25 27  1  0  0  0  0
 25 28  1  0  0  0  0
 29 30  1  0  0  0  0
 29 34  1  0  0  0  0
 30 31  1  0  0  0  0
 30 33  1  0  0  0  0
 30 35  1  0  0  0  0
 31 32  2  0  0  0  0
 31 39  1  0  0  0  0
 33 36  1  0  0  0  0
 33 37  1  0  0  0  0
 33 38  1  0  0  0  0
 39 40  1  0  0  0  0
 39 45  1  0  0  0  0
 40 41  1  0  0  0  0
 40 43  1  0  0  0  0
 40 46  1  0  0  0  0
 41 42  2  0  0  0  0
 41 49  1  0  0  0  0
 43 44  1  0  0  0  0
 43 47  1  0  0  0  0
 43 48  1  0  0  0  0
 49 50  1  0  0  0  0
 49 54  1  0  0  0  0
 50 51  1  0  0  0  0
 50 53  1  0  0  0  0
 50 55  1  0  0  0  0
 51 52  2  0  0  0  0
 51 59  1  0  0  0  0
 53 56  1  0  0  0  0
 53 57  1  0  0  0  0
 53 58  1  0  0  0  0
 59 60  1  0  0  0  0
 59 61  1  0  0  0  0
 60 62  1  0  0  0  0
 60 63  1  0  0  0  0
 60 64  1  0  0  0  0
M  END
$$$$

  -OEChem-05262216053D

 64 63  0     1  0  0  0  0  0999 V2000
    0.9195   -7.3319   -4.6636 C   0  0  0  0  0  0  0  0  0  0  0  0
   -0.2164   -7.1821   -5.0867 O   0  0  0  0  0  0  0  0  0  0  0  0
    1.3098   -8.6137   -3.9535 C   0  0  0  0  0  0  0  0  0  0  0  0
    1.6401   -8.3899   -2.9362 H   0  0  0  0  0  0  0  0  0  0  0  0
    0.4549   -9.2937   -3.9049 H   0  0  0  0  0  0  0  0  0  0  0  0
    2.1221   -9.1067   -4.4929 H   0  0  0  0  0  0  0  0  0  0  0  0
    1.8502   -6.3323   -4.8408 N   0  0  0  0  0  0  0  0  0  0  0  0
    1.5971   -5.0747   -5.5579 C   0  0  2  0  0  0  0  0  0  0  0  0
    2.8966   -4.4573   -6.1202 C   0  0  0  0  0  0  0  0  0  0  0  0
    3.9798   -4.9877   -5.8973 O   0  0  0  0  0  0  0  0  0  0  0  0
    0.8773   -4.0934   -4.6191 C   0  0  0  0  0  0  0  0  0  0  0  0
    1.9173   -3.6640   -3.1644 S   0  0  0  0  0  0  0  0  0  0  0  0
    2.8083   -6.5119   -4.5422 H   0  0  0  0  0  0  0  0  0  0  0  0
    0.9488   -5.2799   -6.4162 H   0  0  0  0  0  0  0  0  0  0  0  0
    0.6200   -3.1802   -5.1619 H   0  0  0  0  0  0  0  0  0  0  0  0
   -0.0575   -4.5441   -4.2699 H   0  0  0  0  0  0  0  0  0  0  0  0
    2.8525   -3.3288   -6.9209 N   0  0  0  0  0  0  0  0  0  0  0  0
    4.0422   -2.7065   -7.4903 C   0  0  0  0  0  0  0  0  0  0  0  0
    1.9427   -2.9270   -7.1249 H   0  0  0  0  0  0  0  0  0  0  0  0
    4.7500   -2.4369   -6.6992 H   0  0  0  0  0  0  0  0  0  0  0  0
    4.5365   -3.3913   -8.1873 H   0  0  0  0  0  0  0  0  0  0  0  0
    3.7710   -1.7962   -8.0336 H   0  0  0  0  0  0  0  0  0  0  0  0
   -5.6174    0.9155   -1.1101 C   0  0  0  0  0  0  0  0  0  0  0  0
   -5.9869   -0.1830   -1.4933 O   0  0  0  0  0  0  0  0  0  0  0  0
   -6.4088    1.6557   -0.0486 C   0  0  0  0  0  0  0  0  0  0  0  0
   -6.6979    2.6426   -0.4180 H   0  0  0  0  0  0  0  0  0  0  0  0
   -7.3133    1.0956    0.2053 H   0  0  0  0  0  0  0  0  0  0  0  0
   -5.8028    1.7746    0.8531 H   0  0  0  0  0  0  0  0  0  0  0  0
   -4.4720    1.4792   -1.6307 N   0  0  0  0  0  0  0  0  0  0  0  0
   -3.5384    0.7827   -2.5248 C   0  0  2  0  0  0  0  0  0  0  0  0
   -2.0707    1.0406   -2.1288 C   0  0  0  0  0  0  0  0  0  0  0  0
   -1.7752    2.0056   -1.4356 O   0  0  0  0  0  0  0  0  0  0  0  0
   -3.7994    1.2758   -3.9503 C   0  0  0  0  0  0  0  0  0  0  0  0
   -4.1386    2.3402   -1.1988 H   0  0  0  0  0  0  0  0  0  0  0  0
   -3.7053   -0.2990   -2.4805 H   0  0  0  0  0  0  0  0  0  0  0  0
   -3.6199    2.3541   -4.0216 H   0  0  0  0  0  0  0  0  0  0  0  0
   -3.1434    0.7660   -4.6620 H   0  0  0  0  0  0  0  0  0  0  0  0
   -4.8377    1.0761   -4.2338 H   0  0  0  0  0  0  0  0  0  0  0  0
   -1.0548    0.2271   -2.5974 N   0  0  0  0  0  0  0  0  0  0  0  0
    0.3837    0.4146   -2.3105 C   0  0  2  0  0  0  0  0  0  0  0  0
    0.9924    1.7616   -2.7835 C   0  0  0  0  0  0  0  0  0  0  0  0
    2.1982    1.9546   -2.6862 O   0  0  0  0  0  0  0  0  0  0  0  0
    1.1308   -0.7557   -2.9654 C   0  0  0  0  0  0  0  0  0  0  0  0
    0.6510   -2.3407   -2.1676 S   0  0  0  0  0  0  0  0  0  0  0  0
   -1.3365   -0.6311   -3.0646 H   0  0  0  0  0  0  0  0  0  0  0  0
    0.5377    0.3705   -1.2269 H   0  0  0  0  0  0  0  0  0  0  0  0
    0.9182   -0.7881   -4.0381 H   0  0  0  0  0  0  0  0  0  0  0  0
    2.2114   -0.6229   -2.8436 H   0  0  0  0  0  0  0  0  0  0  0  0
    0.2235    2.7114   -3.4290 N   0  0  0  0  0  0  0  0  0  0  0  0
    0.6841    4.0593   -3.7759 C   0  0  2  0  0  0  0  0  0  0  0  0
   -0.4863    5.0651   -3.7418 C   0  0  0  0  0  0  0  0  0  0  0  0
   -1.6412    4.6763   -3.8860 O   0  0  0  0  0  0  0  0  0  0  0  0
    1.3149    4.0214   -5.1709 C   0  0  0  0  0  0  0  0  0  0  0  0
   -0.7817    2.6207   -3.2718 H   0  0  0  0  0  0  0  0  0  0  0  0
    1.4302    4.3932   -3.0470 H   0  0  0  0  0  0  0  0  0  0  0  0
    0.5805    3.6909   -5.9122 H   0  0  0  0  0  0  0  0  0  0  0  0
    1.6754    5.0144   -5.4552 H   0  0  0  0  0  0  0  0  0  0  0  0
    2.1625    3.3292   -5.1878 H   0  0  0  0  0  0  0  0  0  0  0  0
   -0.2432    6.4127   -3.5496 N   0  0  0  0  0  0  0  0  0  0  0  0
   -1.3019    7.4088   -3.4372 C   0  0  0  0  0  0  0  0  0  0  0  0
    0.7176    6.6966   -3.3824 H   0  0  0  0  0  0  0  0  0  0  0  0
   -1.9415    7.3924   -4.3260 H   0  0  0  0  0  0  0  0  0  0  0  0
   -1.9200    7.2129   -2.5546 H   0  0  0  0  0  0  0  0  0  0  0  0
   -0.8701    8.4096   -3.3427 H   0  0  0  0  0  0  0  0  0  0  0  0
  1  2  2  0  0  0  0
  1  3  1  0  0  0  0
  1  7  1  0  0  0  0
  3  4  1  0  0  0  0
  3  5  1  0  0  0  0
  3  6  1  0  0  0  0
  7  8  1  0  0  0  0
  7 13  1  0  0  0  0
  8  9  1  0  0  0  0
  8 11  1  0  0  0  0
  8 14  1  0  0  0  0
  9 10  2  0  0  0  0
  9 17  1  0  0  0  0
 11 12  1  0  0  0  0
 11 15  1  0  0  0  0
 11 16  1  0  0  0  0
 12 44  1  0  0  0  0
 17 18  1  0  0  0  0
 17 19  1  0  0  0  0
 18 20  1  0  0  0  0
 18 21  1  0  0  0  0
 18 22  1  0  0  0  0
 23 24  2  0  0  0  0
 23 25  1  0  0  0  0
 23 29  1  0  0  0  0
 25 26  1  0  0  0  0
 25 27  1  0  0  0  0
 25 28  1  0  0  0  0
 29 30  1  0  0  0  0
 29 34  1  0  0  0  0
 30 31  1  0  0  0  0
 30 33  1  0  0  0  0
 30 35  1  0  0  0  0
 31 32  2  0  0  0  0
 31 39  1  0  0  0  0
 33 36  1  0  0  0  0
 33 37  1  0  0  0  0
 33 38  1  0  0  0  0
 39 40  1  0  0  0  0
 39 45  1  0  0  0  0
 40 41  1  0  0  0  0
 40 43  1  0  0  0  0
 40 46  1  0  0  0  0
 41 42  2  0  0  0  0
 41 49  1  0  0  0  0
 43 44  1  0  0  0  0
 43 47  1  0  0  0  0
 43 48  1  0  0  0  0
 49 50  1  0  0  0  0
 49 54  1  0  0  0  0
 50 51  1  0  0  0  0
 50 53  1  0  0  0  0
 50 55  1  0  0  0  0
 51 52  2  0  0  0  0
 51 59  1  0  0  0  0
 53 56  1  0  0  0  0
 53 57  1  0  0  0  0
 53 58  1  0  0  0  0
 59 60  1  0  0  0  0
 59 61  1  0  0  0  0
 60 62  1  0  0  0  0
 60 63  1  0  0  0  0
 60 64  1  0  0  0  0
M  END
$$$$

  -OEChem-05262216053D

 64 63  0     1  0  0  0  0  0999 V2000
    0.9074   -7.3012   -4.7306 C   0  0  0  0  0  0  0  0  0  0  0  0
   -0.2241   -7.1388   -5.1607 O   0  0  0  0  0  0  0  0  0  0  0  0
    1.2679   -8.5695   -3.9809 C   0  0  0  0  0  0  0  0  0  0  0  0
    1.6716   -8.3183   -2.9970 H   0  0  0  0  0  0  0  0  0  0  0  0
    0.3798   -9.1936   -3.8474 H   0  0  0  0  0  0  0  0  0  0  0  0
    2.0167   -9.1351   -4.5411 H   0  0  0  0  0  0  0  0  0  0  0  0
    1.8602   -6.3273   -4.9323 N   0  0  0  0  0  0  0  0  0  0  0  0
    1.6295   -5.0660   -5.6498 C   0  0  2  0  0  0  0  0  0  0  0  0
    2.9461   -4.4535   -6.1763 C   0  0  0  0  0  0  0  0  0  0  0  0
    4.0209   -4.9896   -5.9278 O   0  0  0  0  0  0  0  0  0  0  0  0
    0.8966   -4.0839   -4.7215 C   0  0  0  0  0  0  0  0  0  0  0  0
    1.9086   -3.6844   -3.2387 S   0  0  0  0  0  0  0  0  0  0  0  0
    2.8096   -6.5104   -4.6092 H   0  0  0  0  0  0  0  0  0  0  0  0
    1.0000   -5.2646   -6.5234 H   0  0  0  0  0  0  0  0  0  0  0  0
    0.6640   -3.1622   -5.2613 H   0  0  0  0  0  0  0  0  0  0  0  0
   -0.0521   -4.5261   -4.4004 H   0  0  0  0  0  0  0  0  0  0  0  0
    2.9291   -3.3149   -6.9633 N   0  0  0  0  0  0  0  0  0  0  0  0
    4.1393   -2.6716   -7.4617 C   0  0  0  0  0  0  0  0  0  0  0  0
    2.0290   -2.8895   -7.1629 H   0  0  0  0  0  0  0  0  0  0  0  0
    4.7689   -2.3428   -6.6280 H   0  0  0  0  0  0  0  0  0  0  0  0
    4.7143   -3.3641   -8.0856 H   0  0  0  0  0  0  0  0  0  0  0  0
    3.8814   -1.7965   -8.0658 H   0  0  0  0  0  0  0  0  0  0  0  0
   -5.6813    0.9613   -1.0946 C   0  0  0  0  0  0  0  0  0  0  0  0
   -6.0899   -0.0975   -1.5445 O   0  0  0  0  0  0  0  0  0  0  0  0
   -6.4935    1.7106   -0.0553 C   0  0  0  0  0  0  0  0  0  0  0  0
   -6.8092    2.6771   -0.4552 H   0  0  0  0  0  0  0  0  0  0  0  0
   -7.3820    1.1336    0.2159 H   0  0  0  0  0  0  0  0  0  0  0  0
   -5.8929    1.8743    0.8428 H   0  0  0  0  0  0  0  0  0  0  0  0
   -4.4791    1.4771   -1.5295 N   0  0  0  0  0  0  0  0  0  0  0  0
   -3.5468    0.7734   -2.4194 C   0  0  2  0  0  0  0  0  0  0  0  0
   -2.0810    0.9715   -1.9844 C   0  0  0  0  0  0  0  0  0  0  0  0
   -1.7828    1.8546   -1.1898 O   0  0  0  0  0  0  0  0  0  0  0  0
   -3.7577    1.3141   -3.8359 C   0  0  0  0  0  0  0  0  0  0  0  0
   -4.1222    2.3021   -1.0479 H   0  0  0  0  0  0  0  0  0  0  0  0
   -3.7503   -0.3030   -2.4079 H   0  0  0  0  0  0  0  0  0  0  0  0
   -3.5524    2.3897   -3.8688 H   0  0  0  0  0  0  0  0  0  0  0  0
   -3.0935    0.8109   -4.5449 H   0  0  0  0  0  0  0  0  0  0  0  0
   -4.7920    1.1465   -4.1532 H   0  0  0  0  0  0  0  0  0  0  0  0
   -1.0713    0.1897   -2.5146 N   0  0  0  0  0  0  0  0  0  0  0  0
    0.3750    0.3652   -2.2620 C   0  0  2  0  0  0  0  0  0  0  0  0
    0.9795    1.7344   -2.6879 C   0  0  0  0  0  0  0  0  0  0  0  0
    2.1883    1.8467   -2.8546 O   0  0  0  0  0  0  0  0  0  0  0  0
    1.0923   -0.7897   -2.9799 C   0  0  0  0  0  0  0  0  0  0  0  0
    0.6237   -2.3966   -2.2206 S   0  0  0  0  0  0  0  0  0  0  0  0
   -1.3591   -0.5985   -3.0883 H   0  0  0  0  0  0  0  0  0  0  0  0
    0.5552    0.2746   -1.1857 H   0  0  0  0  0  0  0  0  0  0  0  0
    0.8504   -0.7837   -4.0471 H   0  0  0  0  0  0  0  0  0  0  0  0
    2.1776   -0.6736   -2.8842 H   0  0  0  0  0  0  0  0  0  0  0  0
    0.1837    2.8261   -2.9794 N   0  0  0  0  0  0  0  0  0  0  0  0
    0.6737    4.1630   -3.3322 C   0  0  2  0  0  0  0  0  0  0  0  0
   -0.3863    5.2444   -3.0343 C   0  0  0  0  0  0  0  0  0  0  0  0
   -1.5781    4.9556   -3.0087 O   0  0  0  0  0  0  0  0  0  0  0  0
    1.0353    4.1868   -4.8218 C   0  0  0  0  0  0  0  0  0  0  0  0
   -0.7694    2.7793   -2.6078 H   0  0  0  0  0  0  0  0  0  0  0  0
    1.5628    4.3927   -2.7361 H   0  0  0  0  0  0  0  0  0  0  0  0
    0.1575    3.9463   -5.4303 H   0  0  0  0  0  0  0  0  0  0  0  0
    1.3996    5.1771   -5.1116 H   0  0  0  0  0  0  0  0  0  0  0  0
    1.8202    3.4555   -5.0392 H   0  0  0  0  0  0  0  0  0  0  0  0
   -0.0029    6.5549   -2.8162 N   0  0  0  0  0  0  0  0  0  0  0  0
   -0.9477    7.6290   -2.5344 C   0  0  0  0  0  0  0  0  0  0  0  0
    0.9914    6.7628   -2.8228 H   0  0  0  0  0  0  0  0  0  0  0  0
   -1.6483    7.7507   -3.3669 H   0  0  0  0  0  0  0  0  0  0  0  0
   -1.5171    7.4124   -1.6243 H   0  0  0  0  0  0  0  0  0  0  0  0
   -0.4146    8.5738   -2.3917 H   0  0  0  0  0  0  0  0  0  0  0  0
  1  2  2  0  0  0  0
  1  3  1  0  0  0  0
  1  7  1  0  0  0  0
  3  4  1  0  0  0  0
  3  5  1  0  0  0  0
  3  6  1  0  0  0  0
  7  8  1  0  0  0  0
  7 13  1  0  0  0  0
  8  9  1  0  0  0  0
  8 11  1  0  0  0  0
  8 14  1  0  0  0  0
  9 10  2  0  0  0  0
  9 17  1  0  0  0  0
 11 12  1  0  0  0  0
 11 15  1  0  0  0  0
 11 16  1  0  0  0  0
 12 44  1  0  0  0  0
 17 18  1  0  0  0  0
 17 19  1  0  0  0  0
 18 20  1  0  0  0  0
 18 21  1  0  0  0  0
 18 22  1  0  0  0  0
 23 24  2  0  0  0  0
 23 25  1  0  0  0  0
 23 29  1  0  0  0  0
 25 26  1  0  0  0  0
 25 27  1  0  0  0  0
 25 28  1  0  0  0  0
 29 30  1  0  0  0  0
 29 34  1  0  0  0  0
 30 31  1  0  0  0  0
 30 33  1  0  0  0  0
 30 35  1  0  0  0  0
 31 32  2  0  0  0  0
 31 39  1  0  0  0  0
 33 36  1  0  0  0  0
 33 37  1  0  0  0  0
 33 38  1  0  0  0  0
 39 40  1  0  0  0  0
 39 45  1  0  0  0  0
 40 41  1  0  0  0  0
 40 43  1  0  0  0  0
 40 46  1  0  0  0  0
 41 42  2  0  0  0  0
 41 49  1  0  0  0  0
 43 44  1  0  0  0  0
 43 47  1  0  0  0  0
 43 48  1  0  0  0  0
 49 50  1  0  0  0  0
 49 54  1  0  0  0  0
 50 51  1  0  0  0  0
 50 53  1  0  0  0  0
 50 55  1  0  0  0  0
 51 52  2  0  0  0  0
 51 59  1  0  0  0  0
 53 56  1  0  0  0  0
 53 57  1  0  0  0  0
 53 58  1  0  0  0  0
 59 60  1  0  0  0  0
 59 61  1  0  0  0  0
 60 62  1  0  0  0  0
 60 63  1  0  0  0  0
 60 64  1  0  0  0  0
M  END
$$$$

  -OEChem-05262216053D

 64 63  0     1  0  0  0  0  0999 V2000
    0.9122   -7.3346   -4.7688 C   0  0  0  0  0  0  0  0  0  0  0  0
   -0.2141   -7.1756   -5.2137 O   0  0  0  0  0  0  0  0  0  0  0  0
    1.2697   -8.6046   -4.0204 C   0  0  0  0  0  0  0  0  0  0  0  0
    1.7015   -8.3553   -3.0480 H   0  0  0  0  0  0  0  0  0  0  0  0
    0.3750   -9.2131   -3.8620 H   0  0  0  0  0  0  0  0  0  0  0  0
    1.9951   -9.1850   -4.5956 H   0  0  0  0  0  0  0  0  0  0  0  0
    1.8612   -6.3531   -4.9491 N   0  0  0  0  0  0  0  0  0  0  0  0
    1.6332   -5.0871   -5.6595 C   0  0  2  0  0  0  0  0  0  0  0  0
    2.9544   -4.4667   -6.1653 C   0  0  0  0  0  0  0  0  0  0  0  0
    4.0264   -5.0116   -5.9229 O   0  0  0  0  0  0  0  0  0  0  0  0
    0.8856   -4.1149   -4.7329 C   0  0  0  0  0  0  0  0  0  0  0  0
    1.8783   -3.7267   -3.2338 S   0  0  0  0  0  0  0  0  0  0  0  0
    2.8081   -6.5354   -4.6180 H   0  0  0  0  0  0  0  0  0  0  0  0
    1.0146   -5.2807   -6.5418 H   0  0  0  0  0  0  0  0  0  0  0  0
    0.6573   -3.1890   -5.2677 H   0  0  0  0  0  0  0  0  0  0  0  0
   -0.0662   -4.5615   -4.4273 H   0  0  0  0  0  0  0  0  0  0  0  0
    2.9452   -3.3130   -6.9299 N   0  0  0  0  0  0  0  0  0  0  0  0
    4.1598   -2.6673   -7.4134 C   0  0  0  0  0  0  0  0  0  0  0  0
    2.0484   -2.8764   -7.1190 H   0  0  0  0  0  0  0  0  0  0  0  0
    4.7902   -2.3597   -6.5725 H   0  0  0  0  0  0  0  0  0  0  0  0
    4.7303   -3.3515   -8.0502 H   0  0  0  0  0  0  0  0  0  0  0  0
    3.9084   -1.7787   -8.0002 H   0  0  0  0  0  0  0  0  0  0  0  0
   -5.6756    1.0155   -1.1419 C   0  0  0  0  0  0  0  0  0  0  0  0
   -6.1082    0.0199   -1.7005 O   0  0  0  0  0  0  0  0  0  0  0  0
   -6.4750    1.6722   -0.0326 C   0  0  0  0  0  0  0  0  0  0  0  0
   -6.7569    2.6860   -0.3267 H   0  0  0  0  0  0  0  0  0  0  0  0
   -7.3833    1.0970    0.1681 H   0  0  0  0  0  0  0  0  0  0  0  0
   -5.8783    1.7178    0.8817 H   0  0  0  0  0  0  0  0  0  0  0  0
   -4.4567    1.5412   -1.5141 N   0  0  0  0  0  0  0  0  0  0  0  0
   -3.5201    0.8871   -2.4371 C   0  0  2  0  0  0  0  0  0  0  0  0
   -2.0695    0.9605   -1.9206 C   0  0  0  0  0  0  0  0  0  0  0  0
   -1.7689    1.7360   -1.0212 O   0  0  0  0  0  0  0  0  0  0  0  0
   -3.6357    1.5866   -3.7937 C   0  0  0  0  0  0  0  0  0  0  0  0
   -4.0800    2.2926   -0.9364 H   0  0  0  0  0  0  0  0  0  0  0  0
   -3.7747   -0.1721   -2.5521 H   0  0  0  0  0  0  0  0  0  0  0  0
   -3.3631    2.6434   -3.7022 H   0  0  0  0  0  0  0  0  0  0  0  0
   -2.9735    1.1187   -4.5281 H   0  0  0  0  0  0  0  0  0  0  0  0
   -4.6633    1.5223   -4.1653 H   0  0  0  0  0  0  0  0  0  0  0  0
   -1.0752    0.1789   -2.4785 N   0  0  0  0  0  0  0  0  0  0  0  0
    0.3745    0.3273   -2.2310 C   0  0  2  0  0  0  0  0  0  0  0  0
    0.9863    1.7036   -2.6293 C   0  0  0  0  0  0  0  0  0  0  0  0
    2.1348    1.7691   -3.0520 O   0  0  0  0  0  0  0  0  0  0  0  0
    1.0719   -0.8301   -2.9655 C   0  0  0  0  0  0  0  0  0  0  0  0
    0.5836   -2.4401   -2.2260 S   0  0  0  0  0  0  0  0  0  0  0  0
   -1.3701   -0.5090   -3.1656 H   0  0  0  0  0  0  0  0  0  0  0  0
    0.5578    0.2143   -1.1570 H   0  0  0  0  0  0  0  0  0  0  0  0
    0.8299   -0.8063   -4.0319 H   0  0  0  0  0  0  0  0  0  0  0  0
    2.1586   -0.7320   -2.8691 H   0  0  0  0  0  0  0  0  0  0  0  0
    0.2527    2.8749   -2.5937 N   0  0  0  0  0  0  0  0  0  0  0  0
    0.7493    4.2108   -2.9462 C   0  0  2  0  0  0  0  0  0  0  0  0
   -0.1484    5.3236   -2.3650 C   0  0  0  0  0  0  0  0  0  0  0  0
   -1.3324    5.1091   -2.1303 O   0  0  0  0  0  0  0  0  0  0  0  0
    0.8011    4.3440   -4.4730 C   0  0  0  0  0  0  0  0  0  0  0  0
   -0.6358    2.8313   -2.0832 H   0  0  0  0  0  0  0  0  0  0  0  0
    1.7549    4.3410   -2.5331 H   0  0  0  0  0  0  0  0  0  0  0  0
   -0.1939    4.1901   -4.9022 H   0  0  0  0  0  0  0  0  0  0  0  0
    1.1534    5.3394   -4.7593 H   0  0  0  0  0  0  0  0  0  0  0  0
    1.4830    3.6038   -4.9014 H   0  0  0  0  0  0  0  0  0  0  0  0
    0.3680    6.5862   -2.1373 N   0  0  0  0  0  0  0  0  0  0  0  0
   -0.4204    7.6892   -1.6012 C   0  0  0  0  0  0  0  0  0  0  0  0
    1.3548    6.7332   -2.3276 H   0  0  0  0  0  0  0  0  0  0  0  0
   -1.2617    7.9168   -2.2642 H   0  0  0  0  0  0  0  0  0  0  0  0
   -0.8112    7.4351   -0.6104 H   0  0  0  0  0  0  0  0  0  0  0  0
    0.1982    8.5870   -1.5088 H   0  0  0  0  0  0  0  0  0  0  0  0
  1  2  2  0  0  0  0
  1  3  1  0  0  0  0
  1  7  1  0  0  0  0
  3  4  1  0  0  0  0
  3  5  1  0  0  0  0
  3  6  1  0  0  0  0
  7  8  1  0  0  0  0
  7 13  1  0  0  0  0
  8  9  1  0  0  0  0
  8 11  1  0  0  0  0
  8 14  1  0  0  0  0
  9 10  2  0  0  0  0
  9 17  1  0  0  0  0
 11 12  1  0  0  0  0
 11 15  1  0  0  0  0
 11 16  1  0  0  0  0
 12 44  1  0  0  0  0
 17 18  1  0  0  0  0
 17 19  1  0  0  0  0
 18 20  1  0  0  0  0
 18 21  1  0  0  0  0
 18 22  1  0  0  0  0
 23 24  2  0  0  0  0
 23 25  1  0  0  0  0
 23 29  1  0  0  0  0
 25 26  1  0  0  0  0
 25 27  1  0  0  0  0
 25 28  1  0  0  0  0
 29 30  1  0  0  0  0
 29 34  1  0  0  0  0
 30 31  1  0  0  0  0
 30 33  1  0  0  0  0
 30 35  1  0  0  0  0
 31 32  2  0  0  0  0
 31 39  1  0  0  0  0
 33 36  1  0  0  0  0
 33 37  1  0  0  0  0
 33 38  1  0  0  0  0
 39 40  1  0  0  0  0
 39 45  1  0  0  0  0
 40 41  1  0  0  0  0
 40 43  1  0  0  0  0
 40 46  1  0  0  0  0
 41 42  2  0  0  0  0
 41 49  1  0  0  0  0
 43 44  1  0  0  0  0
 43 47  1  0  0  0  0
 43 48  1  0  0  0  0
 49 50  1  0  0  0  0
 49 54  1  0  0  0  0
 50 51  1  0  0  0  0
 50 53  1  0  0  0  0
 50 55  1  0  0  0  0
 51 52  2  0  0  0  0
 51 59  1  0  0  0  0
 53 56  1  0  0  0  0
 53 57  1  0  0  0  0
 53 58  1  0  0  0  0
 59 60  1  0  0  0  0
 59 61  1  0  0  0  0
 60 62  1  0  0  0  0
 60 63  1  0  0  0  0
 60 64  1  0  0  0  0
M  END
$$$$

  -OEChem-05262216053D

 64 63  0     1  0  0  0  0  0999 V2000
    0.9121   -7.3191   -4.7445 C   0  0  0  0  0  0  0  0  0  0  0  0
   -0.2197   -7.1454   -5.1694 O   0  0  0  0  0  0  0  0  0  0  0  0
    1.2711   -8.6048   -4.0242 C   0  0  0  0  0  0  0  0  0  0  0  0
    1.7005   -8.3764   -3.0454 H   0  0  0  0  0  0  0  0  0  0  0  0
    0.3775   -9.2191   -3.8816 H   0  0  0  0  0  0  0  0  0  0  0  0
    1.9991   -9.1696   -4.6117 H   0  0  0  0  0  0  0  0  0  0  0  0
    1.8659   -6.3420   -4.9261 N   0  0  0  0  0  0  0  0  0  0  0  0
    1.6366   -5.0681   -5.6221 C   0  0  2  0  0  0  0  0  0  0  0  0
    2.9531   -4.4491   -6.1412 C   0  0  0  0  0  0  0  0  0  0  0  0
    4.0261   -4.9984   -5.9146 O   0  0  0  0  0  0  0  0  0  0  0  0
    0.9055   -4.0993   -4.6785 C   0  0  0  0  0  0  0  0  0  0  0  0
    1.9172   -3.7233   -3.1895 S   0  0  0  0  0  0  0  0  0  0  0  0
    2.8180   -6.5388   -4.6197 H   0  0  0  0  0  0  0  0  0  0  0  0
    1.0061   -5.2521   -6.4982 H   0  0  0  0  0  0  0  0  0  0  0  0
    0.6746   -3.1691   -5.2044 H   0  0  0  0  0  0  0  0  0  0  0  0
   -0.0444   -4.5438   -4.3640 H   0  0  0  0  0  0  0  0  0  0  0  0
    2.9369   -3.2944   -6.9043 N   0  0  0  0  0  0  0  0  0  0  0  0
    4.1456   -2.6557   -7.4114 C   0  0  0  0  0  0  0  0  0  0  0  0
    2.0386   -2.8575   -7.0860 H   0  0  0  0  0  0  0  0  0  0  0  0
    4.8068   -2.3757   -6.5843 H   0  0  0  0  0  0  0  0  0  0  0  0
    4.6859   -3.3337   -8.0808 H   0  0  0  0  0  0  0  0  0  0  0  0
    3.8898   -1.7501   -7.9701 H   0  0  0  0  0  0  0  0  0  0  0  0
   -5.7368    1.0664   -1.2714 C   0  0  0  0  0  0  0  0  0  0  0  0
   -6.2085    0.1950   -1.9849 O   0  0  0  0  0  0  0  0  0  0  0  0
   -6.5744    1.6861   -0.1691 C   0  0  0  0  0  0  0  0  0  0  0  0
   -6.7021    2.7555   -0.3537 H   0  0  0  0  0  0  0  0  0  0  0  0
   -7.5600    1.2134   -0.1350 H   0  0  0  0  0  0  0  0  0  0  0  0
   -6.0837    1.5465    0.7972 H   0  0  0  0  0  0  0  0  0  0  0  0
   -4.4375    1.4835   -1.4663 N   0  0  0  0  0  0  0  0  0  0  0  0
   -3.5002    0.8615   -2.4103 C   0  0  2  0  0  0  0  0  0  0  0  0
   -2.0439    0.9575   -1.9112 C   0  0  0  0  0  0  0  0  0  0  0  0
   -1.7542    1.7135   -0.9920 O   0  0  0  0  0  0  0  0  0  0  0  0
   -3.6450    1.5632   -3.7644 C   0  0  0  0  0  0  0  0  0  0  0  0
   -4.0461    2.1405   -0.7909 H   0  0  0  0  0  0  0  0  0  0  0  0
   -3.7398   -0.2015   -2.5241 H   0  0  0  0  0  0  0  0  0  0  0  0
   -3.4059    2.6276   -3.6704 H   0  0  0  0  0  0  0  0  0  0  0  0
   -2.9726    1.1189   -4.5041 H   0  0  0  0  0  0  0  0  0  0  0  0
   -4.6717    1.4685   -4.1324 H   0  0  0  0  0  0  0  0  0  0  0  0
   -1.0474    0.1769   -2.4676 N   0  0  0  0  0  0  0  0  0  0  0  0
    0.4020    0.3308   -2.2232 C   0  0  2  0  0  0  0  0  0  0  0  0
    1.0063    1.7077   -2.6294 C   0  0  0  0  0  0  0  0  0  0  0  0
    2.0395    1.7603   -3.2878 O   0  0  0  0  0  0  0  0  0  0  0  0
    1.1107   -0.8338   -2.9344 C   0  0  0  0  0  0  0  0  0  0  0  0
    0.6335   -2.4352   -2.1702 S   0  0  0  0  0  0  0  0  0  0  0  0
   -1.3378   -0.4921   -3.1752 H   0  0  0  0  0  0  0  0  0  0  0  0
    0.5825    0.2295   -1.1477 H   0  0  0  0  0  0  0  0  0  0  0  0
    0.8708   -0.8312   -4.0016 H   0  0  0  0  0  0  0  0  0  0  0  0
    2.1962   -0.7219   -2.8368 H   0  0  0  0  0  0  0  0  0  0  0  0
    0.3911    2.9060   -2.3198 N   0  0  0  0  0  0  0  0  0  0  0  0
    0.9058    4.2409   -2.6541 C   0  0  2  0  0  0  0  0  0  0  0  0
    0.3418    5.3330   -1.7217 C   0  0  0  0  0  0  0  0  0  0  0  0
   -0.7521    5.1937   -1.1881 O   0  0  0  0  0  0  0  0  0  0  0  0
    0.5365    4.5644   -4.1058 C   0  0  0  0  0  0  0  0  0  0  0  0
   -0.4307    2.8552   -1.7059 H   0  0  0  0  0  0  0  0  0  0  0  0
    1.9956    4.2456   -2.5467 H   0  0  0  0  0  0  0  0  0  0  0  0
   -0.5511    4.5617   -4.2303 H   0  0  0  0  0  0  0  0  0  0  0  0
    0.9174    5.5510   -4.3867 H   0  0  0  0  0  0  0  0  0  0  0  0
    0.9676    3.8235   -4.7858 H   0  0  0  0  0  0  0  0  0  0  0  0
    1.0504    6.5020   -1.5124 N   0  0  0  0  0  0  0  0  0  0  0  0
    0.5694    7.5877   -0.6669 C   0  0  0  0  0  0  0  0  0  0  0  0
    1.9585    6.5902   -1.9588 H   0  0  0  0  0  0  0  0  0  0  0  0
   -0.3725    7.9874   -1.0570 H   0  0  0  0  0  0  0  0  0  0  0  0
    0.4051    7.2337    0.3564 H   0  0  0  0  0  0  0  0  0  0  0  0
    1.3036    8.3984   -0.6379 H   0  0  0  0  0  0  0  0  0  0  0  0
  1  2  2  0  0  0  0
  1  3  1  0  0  0  0
  1  7  1  0  0  0  0
  3  4  1  0  0  0  0
  3  5  1  0  0  0  0
  3  6  1  0  0  0  0
  7  8  1  0  0  0  0
  7 13  1  0  0  0  0
  8  9  1  0  0  0  0
  8 11  1  0  0  0  0
  8 14  1  0  0  0  0
  9 10  2  0  0  0  0
  9 17  1  0  0  0  0
 11 12  1  0  0  0  0
 11 15  1  0  0  0  0
 11 16  1  0  0  0  0
 12 44  1  0  0  0  0
 17 18  1  0  0  0  0
 17 19  1  0  0  0  0
 18 20  1  0  0  0  0
 18 21  1  0  0  0  0
 18 22  1  0  0  0  0
 23 24  2  0  0  0  0
 23 25  1  0  0  0  0
 23 29  1  0  0  0  0
 25 26  1  0  0  0  0
 25 27  1  0  0  0  0
 25 28  1  0  0  0  0
 29 30  1  0  0  0  0
 29 34  1  0  0  0  0
 30 31  1  0  0  0  0
 30 33  1  0  0  0  0
 30 35  1  0  0  0  0
 31 32  2  0  0  0  0
 31 39  1  0  0  0  0
 33 36  1  0  0  0  0
 33 37  1  0  0  0  0
 33 38  1  0  0  0  0
 39 40  1  0  0  0  0
 39 45  1  0  0  0  0
 40 41  1  0  0  0  0
 40 43  1  0  0  0  0
 40 46  1  0  0  0  0
 41 42  2  0  0  0  0
 41 49  1  0  0  0  0
 43 44  1  0  0  0  0
 43 47  1  0  0  0  0
 43 48  1  0  0  0  0
 49 50  1  0  0  0  0
 49 54  1  0  0  0  0
 50 51  1  0  0  0  0
 50 53  1  0  0  0  0
 50 55  1  0  0  0  0
 51 52  2  0  0  0  0
 51 59  1  0  0  0  0
 53 56  1  0  0  0  0
 53 57  1  0  0  0  0
 53 58  1  0  0  0  0
 59 60  1  0  0  0  0
 59 61  1  0  0  0  0
 60 62  1  0  0  0  0
 60 63  1  0  0  0  0
 60 64  1  0  0  0  0
M  END
$$$$

  -OEChem-05262216053D

 64 63  0     1  0  0  0  0  0999 V2000
    0.8945   -7.3188   -4.7400 C   0  0  0  0  0  0  0  0  0  0  0  0
   -0.2349   -7.1441   -5.1707 O   0  0  0  0  0  0  0  0  0  0  0  0
    1.2545   -8.6144   -4.0379 C   0  0  0  0  0  0  0  0  0  0  0  0
    1.6183   -8.4033   -3.0294 H   0  0  0  0  0  0  0  0  0  0  0  0
    0.3757   -9.2612   -3.9668 H   0  0  0  0  0  0  0  0  0  0  0  0
    2.0336   -9.1377   -4.5971 H   0  0  0  0  0  0  0  0  0  0  0  0
    1.8445   -6.3341   -4.8993 N   0  0  0  0  0  0  0  0  0  0  0  0
    1.6158   -5.0531   -5.5829 C   0  0  2  0  0  0  0  0  0  0  0  0
    2.9322   -4.4316   -6.0995 C   0  0  0  0  0  0  0  0  0  0  0  0
    4.0065   -4.9751   -5.8652 O   0  0  0  0  0  0  0  0  0  0  0  0
    0.8892   -4.0918   -4.6288 C   0  0  0  0  0  0  0  0  0  0  0  0
    1.8987   -3.7423   -3.1320 S   0  0  0  0  0  0  0  0  0  0  0  0
    2.7946   -6.5296   -4.5853 H   0  0  0  0  0  0  0  0  0  0  0  0
    0.9825   -5.2275   -6.4588 H   0  0  0  0  0  0  0  0  0  0  0  0
    0.6677   -3.1530   -5.1431 H   0  0  0  0  0  0  0  0  0  0  0  0
   -0.0650   -4.5332   -4.3228 H   0  0  0  0  0  0  0  0  0  0  0  0
    2.9140   -3.2806   -6.8681 N   0  0  0  0  0  0  0  0  0  0  0  0
    4.1213   -2.6366   -7.3720 C   0  0  0  0  0  0  0  0  0  0  0  0
    2.0146   -2.8480   -7.0540 H   0  0  0  0  0  0  0  0  0  0  0  0
    4.7613   -2.3183   -6.5423 H   0  0  0  0  0  0  0  0  0  0  0  0
    4.6865   -3.3248   -8.0094 H   0  0  0  0  0  0  0  0  0  0  0  0
    3.8606   -1.7543   -7.9648 H   0  0  0  0  0  0  0  0  0  0  0  0
   -5.7288    1.0490   -1.3515 C   0  0  0  0  0  0  0  0  0  0  0  0
   -6.1880    0.1975   -2.0963 O   0  0  0  0  0  0  0  0  0  0  0  0
   -6.5840    1.6397   -0.2473 C   0  0  0  0  0  0  0  0  0  0  0  0
   -6.7209    2.7106   -0.4160 H   0  0  0  0  0  0  0  0  0  0  0  0
   -7.5647    1.1561   -0.2310 H   0  0  0  0  0  0  0  0  0  0  0  0
   -6.1000    1.4882    0.7208 H   0  0  0  0  0  0  0  0  0  0  0  0
   -4.4266    1.4723   -1.5117 N   0  0  0  0  0  0  0  0  0  0  0  0
   -3.4742    0.8799   -2.4594 C   0  0  2  0  0  0  0  0  0  0  0  0
   -2.0222    0.9949   -1.9516 C   0  0  0  0  0  0  0  0  0  0  0  0
   -1.7470    1.7669   -1.0409 O   0  0  0  0  0  0  0  0  0  0  0  0
   -3.6254    1.5926   -3.8073 C   0  0  0  0  0  0  0  0  0  0  0  0
   -4.0448    2.1007   -0.8044 H   0  0  0  0  0  0  0  0  0  0  0  0
   -3.6955   -0.1857   -2.5853 H   0  0  0  0  0  0  0  0  0  0  0  0
   -3.4165    2.6621   -3.6998 H   0  0  0  0  0  0  0  0  0  0  0  0
   -2.9340    1.1743   -4.5450 H   0  0  0  0  0  0  0  0  0  0  0  0
   -4.6459    1.4731   -4.1858 H   0  0  0  0  0  0  0  0  0  0  0  0
   -1.0232    0.1970   -2.4779 N   0  0  0  0  0  0  0  0  0  0  0  0
    0.4207    0.3371   -2.2031 C   0  0  2  0  0  0  0  0  0  0  0  0
    1.0341    1.7057   -2.6136 C   0  0  0  0  0  0  0  0  0  0  0  0
    1.9237    1.7589   -3.4566 O   0  0  0  0  0  0  0  0  0  0  0  0
    1.1395   -0.8368   -2.8875 C   0  0  0  0  0  0  0  0  0  0  0  0
    0.6331   -2.4289   -2.1227 S   0  0  0  0  0  0  0  0  0  0  0  0
   -1.3052   -0.4786   -3.1825 H   0  0  0  0  0  0  0  0  0  0  0  0
    0.5803    0.2445   -1.1233 H   0  0  0  0  0  0  0  0  0  0  0  0
    0.9253   -0.8418   -3.9603 H   0  0  0  0  0  0  0  0  0  0  0  0
    2.2227   -0.7264   -2.7658 H   0  0  0  0  0  0  0  0  0  0  0  0
    0.5854    2.8962   -2.0753 N   0  0  0  0  0  0  0  0  0  0  0  0
    1.1314    4.2268   -2.3747 C   0  0  2  0  0  0  0  0  0  0  0  0
    0.9784    5.2075   -1.1930 C   0  0  0  0  0  0  0  0  0  0  0  0
    0.1296    5.0215   -0.3300 O   0  0  0  0  0  0  0  0  0  0  0  0
    0.4121    4.7785   -3.6093 C   0  0  0  0  0  0  0  0  0  0  0  0
   -0.1742    2.8343   -1.3862 H   0  0  0  0  0  0  0  0  0  0  0  0
    2.2018    4.1403   -2.5885 H   0  0  0  0  0  0  0  0  0  0  0  0
   -0.6577    4.8929   -3.4058 H   0  0  0  0  0  0  0  0  0  0  0  0
    0.8210    5.7550   -3.8868 H   0  0  0  0  0  0  0  0  0  0  0  0
    0.5359    4.0992   -4.4587 H   0  0  0  0  0  0  0  0  0  0  0  0
    1.7873    6.3265   -1.1107 N   0  0  0  0  0  0  0  0  0  0  0  0
    1.6881    7.3084   -0.0377 C   0  0  0  0  0  0  0  0  0  0  0  0
    2.4863    6.4581   -1.8354 H   0  0  0  0  0  0  0  0  0  0  0  0
    0.7169    7.8132   -0.0700 H   0  0  0  0  0  0  0  0  0  0  0  0
    1.8014    6.8244    0.9381 H   0  0  0  0  0  0  0  0  0  0  0  0
    2.4743    8.0624   -0.1411 H   0  0  0  0  0  0  0  0  0  0  0  0
  1  2  2  0  0  0  0
  1  3  1  0  0  0  0
  1  7  1  0  0  0  0
  3  4  1  0  0  0  0
  3  5  1  0  0  0  0
  3  6  1  0  0  0  0
  7  8  1  0  0  0  0
  7 13  1  0  0  0  0
  8  9  1  0  0  0  0
  8 11  1  0  0  0  0
  8 14  1  0  0  0  0
  9 10  2  0  0  0  0
  9 17  1  0  0  0  0
 11 12  1  0  0  0  0
 11 15  1  0  0  0  0
 11 16  1  0  0  0  0
 12 44  1  0  0  0  0
 17 18  1  0  0  0  0
 17 19  1  0  0  0  0
 18 20  1  0  0  0  0
 18 21  1  0  0  0  0
 18 22  1  0  0  0  0
 23 24  2  0  0  0  0
 23 25  1  0  0  0  0
 23 29  1  0  0  0  0
 25 26  1  0  0  0  0
 25 27  1  0  0  0  0
 25 28  1  0  0  0  0
 29 30  1  0  0  0  0
 29 34  1  0  0  0  0
 30 31  1  0  0  0  0
 30 33  1  0  0  0  0
 30 35  1  0  0  0  0
 31 32  2  0  0  0  0
 31 39  1  0  0  0  0
 33 36  1  0  0  0  0
 33 37  1  0  0  0  0
 33 38  1  0  0  0  0
 39 40  1  0  0  0  0
 39 45  1  0  0  0  0
 40 41  1  0  0  0  0
 40 43  1  0  0  0  0
 40 46  1  0  0  0  0
 41 42  2  0  0  0  0
 41 49  1  0  0  0  0
 43 44  1  0  0  0  0
 43 47  1  0  0  0  0
 43 48  1  0  0  0  0
 49 50  1  0  0  0  0
 49 54  1  0  0  0  0
 50 51  1  0  0  0  0
 50 53  1  0  0  0  0
 50 55  1  0  0  0  0
 51 52  2  0  0  0  0
 51 59  1  0  0  0  0
 53 56  1  0  0  0  0
 53 57  1  0  0  0  0
 53 58  1  0  0  0  0
 59 60  1  0  0  0  0
 59 61  1  0  0  0  0
 60 62  1  0  0  0  0
 60 63  1  0  0  0  0
 60 64  1  0  0  0  0
M  END
$$$$

  -OEChem-05262216053D

 64 63  0     1  0  0  0  0  0999 V2000
    0.8798   -7.3212   -4.7685 C   0  0  0  0  0  0  0  0  0  0  0  0
   -0.2462   -7.1407   -5.2057 O   0  0  0  0  0  0  0  0  0  0  0  0
    1.2320   -8.6191   -4.0680 C   0  0  0  0  0  0  0  0  0  0  0  0
    1.6188   -8.4093   -3.0677 H   0  0  0  0  0  0  0  0  0  0  0  0
    0.3443   -9.2514   -3.9770 H   0  0  0  0  0  0  0  0  0  0  0  0
    1.9923   -9.1566   -4.6395 H   0  0  0  0  0  0  0  0  0  0  0  0
    1.8336   -6.3385   -4.9132 N   0  0  0  0  0  0  0  0  0  0  0  0
    1.6117   -5.0493   -5.5823 C   0  0  2  0  0  0  0  0  0  0  0  0
    2.9341   -4.4227   -6.0769 C   0  0  0  0  0  0  0  0  0  0  0  0
    4.0042   -4.9786   -5.8516 O   0  0  0  0  0  0  0  0  0  0  0  0
    0.8750   -4.1009   -4.6229 C   0  0  0  0  0  0  0  0  0  0  0  0
    1.8698   -3.7661   -3.1129 S   0  0  0  0  0  0  0  0  0  0  0  0
    2.7820   -6.5413   -4.5990 H   0  0  0  0  0  0  0  0  0  0  0  0
    0.9872   -5.2116   -6.4670 H   0  0  0  0  0  0  0  0  0  0  0  0
    0.6541   -3.1572   -5.1285 H   0  0  0  0  0  0  0  0  0  0  0  0
   -0.0800   -4.5484   -4.3294 H   0  0  0  0  0  0  0  0  0  0  0  0
    2.9266   -3.2529   -6.8166 N   0  0  0  0  0  0  0  0  0  0  0  0
    4.1400   -2.6079   -7.3035 C   0  0  0  0  0  0  0  0  0  0  0  0
    2.0308   -2.8093   -6.9945 H   0  0  0  0  0  0  0  0  0  0  0  0
    4.7922   -2.3361   -6.4668 H   0  0  0  0  0  0  0  0  0  0  0  0
    4.6875   -3.2782   -7.9744 H   0  0  0  0  0  0  0  0  0  0  0  0
    3.8887   -1.6970   -7.8552 H   0  0  0  0  0  0  0  0  0  0  0  0
   -5.6907    1.0972   -1.3409 C   0  0  0  0  0  0  0  0  0  0  0  0
   -6.1496    0.2252   -2.0616 O   0  0  0  0  0  0  0  0  0  0  0  0
   -6.5402    1.6979   -0.2371 C   0  0  0  0  0  0  0  0  0  0  0  0
   -6.6412    2.7755   -0.3877 H   0  0  0  0  0  0  0  0  0  0  0  0
   -7.5361    1.2460   -0.2407 H   0  0  0  0  0  0  0  0  0  0  0  0
   -6.0737    1.5146    0.7337 H   0  0  0  0  0  0  0  0  0  0  0  0
   -4.3944    1.5295   -1.5260 N   0  0  0  0  0  0  0  0  0  0  0  0
   -3.4467    0.9217   -2.4692 C   0  0  2  0  0  0  0  0  0  0  0  0
   -1.9904    1.0432   -1.9759 C   0  0  0  0  0  0  0  0  0  0  0  0
   -1.6971    1.8606   -1.1108 O   0  0  0  0  0  0  0  0  0  0  0  0
   -3.6044    1.6104   -3.8283 C   0  0  0  0  0  0  0  0  0  0  0  0
   -4.0124    2.1802   -0.8401 H   0  0  0  0  0  0  0  0  0  0  0  0
   -3.6695   -0.1455   -2.5773 H   0  0  0  0  0  0  0  0  0  0  0  0
   -3.3869    2.6800   -3.7432 H   0  0  0  0  0  0  0  0  0  0  0  0
   -2.9215    1.1733   -4.5630 H   0  0  0  0  0  0  0  0  0  0  0  0
   -4.6284    1.4915   -4.1970 H   0  0  0  0  0  0  0  0  0  0  0  0
   -1.0075    0.2106   -2.4780 N   0  0  0  0  0  0  0  0  0  0  0  0
    0.4325    0.3205   -2.1815 C   0  0  2  0  0  0  0  0  0  0  0  0
    1.0693    1.6703   -2.6038 C   0  0  0  0  0  0  0  0  0  0  0  0
    1.8024    1.7370   -3.5854 O   0  0  0  0  0  0  0  0  0  0  0  0
    1.1430   -0.8619   -2.8567 C   0  0  0  0  0  0  0  0  0  0  0  0
    0.6019   -2.4505   -2.1097 S   0  0  0  0  0  0  0  0  0  0  0  0
   -1.3032   -0.5041   -3.1371 H   0  0  0  0  0  0  0  0  0  0  0  0
    0.5790    0.2308   -1.1000 H   0  0  0  0  0  0  0  0  0  0  0  0
    0.9409   -0.8612   -3.9322 H   0  0  0  0  0  0  0  0  0  0  0  0
    2.2260   -0.7638   -2.7233 H   0  0  0  0  0  0  0  0  0  0  0  0
    0.8429    2.8188   -1.8727 N   0  0  0  0  0  0  0  0  0  0  0  0
    1.4248    4.1361   -2.1569 C   0  0  2  0  0  0  0  0  0  0  0  0
    1.6173    4.9851   -0.8818 C   0  0  0  0  0  0  0  0  0  0  0  0
    1.0059    4.7221    0.1467 O   0  0  0  0  0  0  0  0  0  0  0  0
    0.5067    4.8585   -3.1473 C   0  0  0  0  0  0  0  0  0  0  0  0
    0.1350    2.7587   -1.1325 H   0  0  0  0  0  0  0  0  0  0  0  0
    2.4134    4.0076   -2.6095 H   0  0  0  0  0  0  0  0  0  0  0  0
   -0.4870    5.0014   -2.7103 H   0  0  0  0  0  0  0  0  0  0  0  0
    0.9175    5.8382   -3.4087 H   0  0  0  0  0  0  0  0  0  0  0  0
    0.4026    4.2726   -4.0660 H   0  0  0  0  0  0  0  0  0  0  0  0
    2.4855    6.0622   -0.8903 N   0  0  0  0  0  0  0  0  0  0  0  0
    2.7334    6.8995    0.2774 C   0  0  0  0  0  0  0  0  0  0  0  0
    3.0004    6.2456   -1.7463 H   0  0  0  0  0  0  0  0  0  0  0  0
    1.8009    7.3546    0.6274 H   0  0  0  0  0  0  0  0  0  0  0  0
    3.1624    6.3052    1.0912 H   0  0  0  0  0  0  0  0  0  0  0  0
    3.4352    7.7007    0.0262 H   0  0  0  0  0  0  0  0  0  0  0  0
  1  2  2  0  0  0  0
  1  3  1  0  0  0  0
  1  7  1  0  0  0  0
  3  4  1  0  0  0  0
  3  5  1  0  0  0  0
  3  6  1  0  0  0  0
  7  8  1  0  0  0  0
  7 13  1  0  0  0  0
  8  9  1  0  0  0  0
  8 11  1  0  0  0  0
  8 14  1  0  0  0  0
  9 10  2  0  0  0  0
  9 17  1  0  0  0  0
 11 12  1  0  0  0  0
 11 15  1  0  0  0  0
 11 16  1  0  0  0  0
 12 44  1  0  0  0  0
 17 18  1  0  0  0  0
 17 19  1  0  0  0  0
 18 20  1  0  0  0  0
 18 21  1  0  0  0  0
 18 22  1  0  0  0  0
 23 24  2  0  0  0  0
 23 25  1  0  0  0  0
 23 29  1  0  0  0  0
 25 26  1  0  0  0  0
 25 27  1  0  0  0  0
 25 28  1  0  0  0  0
 29 30  1  0  0  0  0
 29 34  1  0  0  0  0
 30 31  1  0  0  0  0
 30 33  1  0  0  0  0
 30 35  1  0  0  0  0
 31 32  2  0  0  0  0
 31 39  1  0  0  0  0
 33 36  1  0  0  0  0
 33 37  1  0  0  0  0
 33 38  1  0  0  0  0
 39 40  1  0  0  0  0
 39 45  1  0  0  0  0
 40 41  1  0  0  0  0
 40 43  1  0  0  0  0
 40 46  1  0  0  0  0
 41 42  2  0  0  0  0
 41 49  1  0  0  0  0
 43 44  1  0  0  0  0
 43 47  1  0  0  0  0
 43 48  1  0  0  0  0
 49 50  1  0  0  0  0
 49 54  1  0  0  0  0
 50 51  1  0  0  0  0
 50 53  1  0  0  0  0
 50 55  1  0  0  0  0
 51 52  2  0  0  0  0
 51 59  1  0  0  0  0
 53 56  1  0  0  0  0
 53 57  1  0  0  0  0
 53 58  1  0  0  0  0
 59 60  1  0  0  0  0
 59 61  1  0  0  0  0
 60 62  1  0  0  0  0
 60 63  1  0  0  0  0
 60 64  1  0  0  0  0
M  END
$$$$

  -OEChem-05262216053D

 64 63  0     1  0  0  0  0  0999 V2000
    0.8779   -7.3434   -4.7751 C   0  0  0  0  0  0  0  0  0  0  0  0
   -0.2513   -7.1589   -5.2021 O   0  0  0  0  0  0  0  0  0  0  0  0
    1.2320   -8.6466   -4.0850 C   0  0  0  0  0  0  0  0  0  0  0  0
    1.6209   -8.4444   -3.0840 H   0  0  0  0  0  0  0  0  0  0  0  0
    0.3445   -9.2794   -3.9968 H   0  0  0  0  0  0  0  0  0  0  0  0
    1.9905   -9.1804   -4.6625 H   0  0  0  0  0  0  0  0  0  0  0  0
    1.8321   -6.3614   -4.9227 N   0  0  0  0  0  0  0  0  0  0  0  0
    1.6055   -5.0666   -5.5800 C   0  0  2  0  0  0  0  0  0  0  0  0
    2.9246   -4.4300   -6.0704 C   0  0  0  0  0  0  0  0  0  0  0  0
    3.9970   -4.9853   -5.8553 O   0  0  0  0  0  0  0  0  0  0  0  0
    0.8663   -4.1289   -4.6117 C   0  0  0  0  0  0  0  0  0  0  0  0
    1.8612   -3.8073   -3.0985 S   0  0  0  0  0  0  0  0  0  0  0  0
    2.7811   -6.5651   -4.6109 H   0  0  0  0  0  0  0  0  0  0  0  0
    0.9811   -5.2232   -6.4659 H   0  0  0  0  0  0  0  0  0  0  0  0
    0.6435   -3.1807   -5.1084 H   0  0  0  0  0  0  0  0  0  0  0  0
   -0.0885   -4.5807   -4.3233 H   0  0  0  0  0  0  0  0  0  0  0  0
    2.9116   -3.2506   -6.7947 N   0  0  0  0  0  0  0  0  0  0  0  0
    4.1221   -2.5926   -7.2721 C   0  0  0  0  0  0  0  0  0  0  0  0
    2.0142   -2.8062   -6.9630 H   0  0  0  0  0  0  0  0  0  0  0  0
    4.7686   -2.3218   -6.4304 H   0  0  0  0  0  0  0  0  0  0  0  0
    4.6781   -3.2539   -7.9452 H   0  0  0  0  0  0  0  0  0  0  0  0
    3.8663   -1.6796   -7.8189 H   0  0  0  0  0  0  0  0  0  0  0  0
   -5.6265    1.1728   -1.3230 C   0  0  0  0  0  0  0  0  0  0  0  0
   -6.1044    0.3041   -2.0350 O   0  0  0  0  0  0  0  0  0  0  0  0
   -6.4515    1.7801   -0.2047 C   0  0  0  0  0  0  0  0  0  0  0  0
   -6.5700    2.8539   -0.3688 H   0  0  0  0  0  0  0  0  0  0  0  0
   -7.4413    1.3161   -0.1734 H   0  0  0  0  0  0  0  0  0  0  0  0
   -5.9554    1.6165    0.7550 H   0  0  0  0  0  0  0  0  0  0  0  0
   -4.3296    1.5940   -1.5282 N   0  0  0  0  0  0  0  0  0  0  0  0
   -3.4002    0.9734   -2.4813 C   0  0  2  0  0  0  0  0  0  0  0  0
   -1.9397    1.0653   -1.9960 C   0  0  0  0  0  0  0  0  0  0  0  0
   -1.6180    1.8930   -1.1499 O   0  0  0  0  0  0  0  0  0  0  0  0
   -3.5556    1.6698   -3.8368 C   0  0  0  0  0  0  0  0  0  0  0  0
   -3.9333    2.2450   -0.8509 H   0  0  0  0  0  0  0  0  0  0  0  0
   -3.6413   -0.0894   -2.5921 H   0  0  0  0  0  0  0  0  0  0  0  0
   -3.3167    2.7347   -3.7506 H   0  0  0  0  0  0  0  0  0  0  0  0
   -2.8876    1.2224   -4.5790 H   0  0  0  0  0  0  0  0  0  0  0  0
   -4.5848    1.5716   -4.1968 H   0  0  0  0  0  0  0  0  0  0  0  0
   -0.9809    0.1989   -2.4868 N   0  0  0  0  0  0  0  0  0  0  0  0
    0.4553    0.2900   -2.1771 C   0  0  2  0  0  0  0  0  0  0  0  0
    1.0938    1.6290   -2.6189 C   0  0  0  0  0  0  0  0  0  0  0  0
    1.6305    1.7345   -3.7173 O   0  0  0  0  0  0  0  0  0  0  0  0
    1.1673   -0.8967   -2.8404 C   0  0  0  0  0  0  0  0  0  0  0  0
    0.6045   -2.4792   -2.0976 S   0  0  0  0  0  0  0  0  0  0  0  0
   -1.2870   -0.5125   -3.1446 H   0  0  0  0  0  0  0  0  0  0  0  0
    0.5943    0.2073   -1.0937 H   0  0  0  0  0  0  0  0  0  0  0  0
    0.9767   -0.8985   -3.9180 H   0  0  0  0  0  0  0  0  0  0  0  0
    2.2489   -0.8028   -2.6957 H   0  0  0  0  0  0  0  0  0  0  0  0
    1.1203    2.7038   -1.7535 N   0  0  0  0  0  0  0  0  0  0  0  0
    1.7391    4.0046   -2.0346 C   0  0  2  0  0  0  0  0  0  0  0  0
    2.2446    4.7012   -0.7527 C   0  0  0  0  0  0  0  0  0  0  0  0
    1.8349    4.3570    0.3496 O   0  0  0  0  0  0  0  0  0  0  0  0
    0.7048    4.8812   -2.7472 C   0  0  0  0  0  0  0  0  0  0  0  0
    0.5454    2.6267   -0.9106 H   0  0  0  0  0  0  0  0  0  0  0  0
    2.6050    3.8624   -2.6893 H   0  0  0  0  0  0  0  0  0  0  0  0
   -0.1707    5.0338   -2.1076 H   0  0  0  0  0  0  0  0  0  0  0  0
    1.1319    5.8580   -2.9931 H   0  0  0  0  0  0  0  0  0  0  0  0
    0.3775    4.4046   -3.6765 H   0  0  0  0  0  0  0  0  0  0  0  0
    3.1700    5.7265   -0.8346 N   0  0  0  0  0  0  0  0  0  0  0  0
    3.7131    6.4082    0.3347 C   0  0  0  0  0  0  0  0  0  0  0  0
    3.5171    5.9763   -1.7557 H   0  0  0  0  0  0  0  0  0  0  0  0
    2.9079    6.8580    0.9254 H   0  0  0  0  0  0  0  0  0  0  0  0
    4.2628    5.7034    0.9676 H   0  0  0  0  0  0  0  0  0  0  0  0
    4.3987    7.2031    0.0256 H   0  0  0  0  0  0  0  0  0  0  0  0
  1  2  2  0  0  0  0
  1  3  1  0  0  0  0
  1  7  1  0  0  0  0
  3  4  1  0  0  0  0
  3  5  1  0  0  0  0
  3  6  1  0  0  0  0
  7  8  1  0  0  0  0
  7 13  1  0  0  0  0
  8  9  1  0  0  0  0
  8 11  1  0  0  0  0
  8 14  1  0  0  0  0
  9 10  2  0  0  0  0
  9 17  1  0  0  0  0
 11 12  1  0  0  0  0
 11 15  1  0  0  0  0
 11 16  1  0  0  0  0
 12 44  1  0  0  0  0
 17 18  1  0  0  0  0
 17 19  1  0  0  0  0
 18 20  1  0  0  0  0
 18 21  1  0  0  0  0
 18 22  1  0  0  0  0
 23 24  2  0  0  0  0
 23 25  1  0  0  0  0
 23 29  1  0  0  0  0
 25 26  1  0  0  0  0
 25 27  1  0  0  0  0
 25 28  1  0  0  0  0
 29 30  1  0  0  0  0
 29 34  1  0  0  0  0
 30 31  1  0  0  0  0
 30 33  1  0  0  0  0
 30 35  1  0  0  0  0
 31 32  2  0  0  0  0
 31 39  1  0  0  0  0
 33 36  1  0  0  0  0
 33 37  1  0  0  0  0
 33 38  1  0  0  0  0
 39 40  1  0  0  0  0
 39 45  1  0  0  0  0
 40 41  1  0  0  0  0
 40 43  1  0  0  0  0
 40 46  1  0  0  0  0
 41 42  2  0  0  0  0
 41 49  1  0  0  0  0
 43 44  1  0  0  0  0
 43 47  1  0  0  0  0
 43 48  1  0  0  0  0
 49 50  1  0  0  0  0
 49 54  1  0  0  0  0
 50 51  1  0  0  0  0
 50 53  1  0  0  0  0
 50 55  1  0  0  0  0
 51 52  2  0  0  0  0
 51 59  1  0  0  0  0
 53 56  1  0  0  0  0
 53 57  1  0  0  0  0
 53 58  1  0  0  0  0
 59 60  1  0  0  0  0
 59 61  1  0  0  0  0
 60 62  1  0  0  0  0
 60 63  1  0  0  0  0
 60 64  1  0  0  0  0
M  END
$$$$

  -OEChem-05262216053D

 64 63  0     1  0  0  0  0  0999 V2000
    0.8834   -7.3705   -4.7822 C   0  0  0  0  0  0  0  0  0  0  0  0
   -0.2490   -7.1921   -5.2035 O   0  0  0  0  0  0  0  0  0  0  0  0
    1.2499   -8.6715   -4.0939 C   0  0  0  0  0  0  0  0  0  0  0  0
    1.6362   -8.4657   -3.0927 H   0  0  0  0  0  0  0  0  0  0  0  0
    0.3689   -9.3131   -4.0058 H   0  0  0  0  0  0  0  0  0  0  0  0
    2.0138   -9.1978   -4.6710 H   0  0  0  0  0  0  0  0  0  0  0  0
    1.8294   -6.3802   -4.9284 N   0  0  0  0  0  0  0  0  0  0  0  0
    1.5913   -5.0807   -5.5727 C   0  0  2  0  0  0  0  0  0  0  0  0
    2.9055   -4.4326   -6.0629 C   0  0  0  0  0  0  0  0  0  0  0  0
    3.9814   -4.9838   -5.8547 O   0  0  0  0  0  0  0  0  0  0  0  0
    0.8531   -4.1557   -4.5916 C   0  0  0  0  0  0  0  0  0  0  0  0
    1.8624   -3.8360   -3.0878 S   0  0  0  0  0  0  0  0  0  0  0  0
    2.7818   -6.5785   -4.6234 H   0  0  0  0  0  0  0  0  0  0  0  0
    0.9627   -5.2322   -6.4564 H   0  0  0  0  0  0  0  0  0  0  0  0
    0.6175   -3.2066   -5.0806 H   0  0  0  0  0  0  0  0  0  0  0  0
   -0.0949   -4.6169   -4.2958 H   0  0  0  0  0  0  0  0  0  0  0  0
    2.8853   -3.2485   -6.7794 N   0  0  0  0  0  0  0  0  0  0  0  0
    4.0909   -2.5878   -7.2657 C   0  0  0  0  0  0  0  0  0  0  0  0
    1.9849   -2.8093   -6.9449 H   0  0  0  0  0  0  0  0  0  0  0  0
    4.7406   -2.3103   -6.4290 H   0  0  0  0  0  0  0  0  0  0  0  0
    4.6464   -3.2497   -7.9385 H   0  0  0  0  0  0  0  0  0  0  0  0
    3.8288   -1.6789   -7.8157 H   0  0  0  0  0  0  0  0  0  0  0  0
   -5.5890    1.2131   -1.3259 C   0  0  0  0  0  0  0  0  0  0  0  0
   -6.0721    0.3412   -2.0305 O   0  0  0  0  0  0  0  0  0  0  0  0
   -6.4062    1.8261   -0.2045 C   0  0  0  0  0  0  0  0  0  0  0  0
   -6.5477    2.8937   -0.3880 H   0  0  0  0  0  0  0  0  0  0  0  0
   -7.3867    1.3455   -0.1459 H   0  0  0  0  0  0  0  0  0  0  0  0
   -5.8908    1.6916    0.7495 H   0  0  0  0  0  0  0  0  0  0  0  0
   -4.2948    1.6359   -1.5451 N   0  0  0  0  0  0  0  0  0  0  0  0
   -3.3687    1.0056   -2.4949 C   0  0  2  0  0  0  0  0  0  0  0  0
   -1.9128    1.0573   -1.9892 C   0  0  0  0  0  0  0  0  0  0  0  0
   -1.5808    1.8698   -1.1321 O   0  0  0  0  0  0  0  0  0  0  0  0
   -3.4923    1.7251   -3.8411 C   0  0  0  0  0  0  0  0  0  0  0  0
   -3.8918    2.2862   -0.8713 H   0  0  0  0  0  0  0  0  0  0  0  0
   -3.6321   -0.0498   -2.6247 H   0  0  0  0  0  0  0  0  0  0  0  0
   -3.2310    2.7831   -3.7354 H   0  0  0  0  0  0  0  0  0  0  0  0
   -2.8248    1.2735   -4.5811 H   0  0  0  0  0  0  0  0  0  0  0  0
   -4.5188    1.6553   -4.2152 H   0  0  0  0  0  0  0  0  0  0  0  0
   -0.9682    0.1725   -2.4729 N   0  0  0  0  0  0  0  0  0  0  0  0
    0.4653    0.2609   -2.1569 C   0  0  2  0  0  0  0  0  0  0  0  0
    1.0985    1.5940   -2.6154 C   0  0  0  0  0  0  0  0  0  0  0  0
    1.3948    1.7636   -3.7940 O   0  0  0  0  0  0  0  0  0  0  0  0
    1.1859   -0.9218   -2.8144 C   0  0  0  0  0  0  0  0  0  0  0  0
    0.6203   -2.5049   -2.0739 S   0  0  0  0  0  0  0  0  0  0  0  0
   -1.2668   -0.4885   -3.1841 H   0  0  0  0  0  0  0  0  0  0  0  0
    0.6002    0.1843   -1.0731 H   0  0  0  0  0  0  0  0  0  0  0  0
    1.0040   -0.9243   -3.8935 H   0  0  0  0  0  0  0  0  0  0  0  0
    2.2660   -0.8246   -2.6598 H   0  0  0  0  0  0  0  0  0  0  0  0
    1.4035    2.5754   -1.6936 N   0  0  0  0  0  0  0  0  0  0  0  0
    2.0675    3.8484   -1.9990 C   0  0  2  0  0  0  0  0  0  0  0  0
    2.8942    4.3731   -0.8050 C   0  0  0  0  0  0  0  0  0  0  0  0
    2.7202    3.9185    0.3199 O   0  0  0  0  0  0  0  0  0  0  0  0
    0.9925    4.8650   -2.3967 C   0  0  0  0  0  0  0  0  0  0  0  0
    1.0750    2.4359   -0.7372 H   0  0  0  0  0  0  0  0  0  0  0  0
    2.7600    3.7079   -2.8353 H   0  0  0  0  0  0  0  0  0  0  0  0
    0.2914    5.0222   -1.5704 H   0  0  0  0  0  0  0  0  0  0  0  0
    1.4479    5.8255   -2.6557 H   0  0  0  0  0  0  0  0  0  0  0  0
    0.4307    4.5051   -3.2646 H   0  0  0  0  0  0  0  0  0  0  0  0
    3.8491    5.3567   -0.9929 N   0  0  0  0  0  0  0  0  0  0  0  0
    4.6901    5.8712    0.0821 C   0  0  0  0  0  0  0  0  0  0  0  0
    3.9953    5.6982   -1.9383 H   0  0  0  0  0  0  0  0  0  0  0  0
    4.0739    6.2721    0.8941 H   0  0  0  0  0  0  0  0  0  0  0  0
    5.3272    5.0761    0.4835 H   0  0  0  0  0  0  0  0  0  0  0  0
    5.3331    6.6746   -0.2906 H   0  0  0  0  0  0  0  0  0  0  0  0
  1  2  2  0  0  0  0
  1  3  1  0  0  0  0
  1  7  1  0  0  0  0
  3  4  1  0  0  0  0
  3  5  1  0  0  0  0
  3  6  1  0  0  0  0
  7  8  1  0  0  0  0
  7 13  1  0  0  0  0
  8  9  1  0  0  0  0
  8 11  1  0  0  0  0
  8 14  1  0  0  0  0
  9 10  2  0  0  0  0
  9 17  1  0  0  0  0
 11 12  1  0  0  0  0
 11 15  1  0  0  0  0
 11 16  1  0  0  0  0
 12 44  1  0  0  0  0
 17 18  1  0  0  0  0
 17 19  1  0  0  0  0
 18 20  1  0  0  0  0
 18 21  1  0  0  0  0
 18 22  1  0  0  0  0
 23 24  2  0  0  0  0
 23 25  1  0  0  0  0
 23 29  1  0  0  0  0
 25 26  1  0  0  0  0
 25 27  1  0  0  0  0
 25 28  1  0  0  0  0
 29 30  1  0  0  0  0
 29 34  1  0  0  0  0
 30 31  1  0  0  0  0
 30 33  1  0  0  0  0
 30 35  1  0  0  0  0
 31 32  2  0  0  0  0
 31 39  1  0  0  0  0
 33 36  1  0  0  0  0
 33 37  1  0  0  0  0
 33 38  1  0  0  0  0
 39 40  1  0  0  0  0
 39 45  1  0  0  0  0
 40 41  1  0  0  0  0
 40 43  1  0  0  0  0
 40 46  1  0  0  0  0
 41 42  2  0  0  0  0
 41 49  1  0  0  0  0
 43 44  1  0  0  0  0
 43 47  1  0  0  0  0
 43 48  1  0  0  0  0
 49 50  1  0  0  0  0
 49 54  1  0  0  0  0
 50 51  1  0  0  0  0
 50 53  1  0  0  0  0
 50 55  1  0  0  0  0
 51 52  2  0  0  0  0
 51 59  1  0  0  0  0
 53 56  1  0  0  0  0
 53 57  1  0  0  0  0
 53 58  1  0  0  0  0
 59 60  1  0  0  0  0
 59 61  1  0  0  0  0
 60 62  1  0  0  0  0
 60 63  1  0  0  0  0
 60 64  1  0  0  0  0
M  END
$$$$

  -OEChem-05262216053D

 64 63  0     1  0  0  0  0  0999 V2000
    0.8973   -7.4109   -4.9094 C   0  0  0  0  0  0  0  0  0  0  0  0
   -0.2331   -7.2093   -5.3254 O   0  0  0  0  0  0  0  0  0  0  0  0
    1.2623   -8.7505   -4.2982 C   0  0  0  0  0  0  0  0  0  0  0  0
    1.6352   -8.6061   -3.2812 H   0  0  0  0  0  0  0  0  0  0  0  0
    0.3833   -9.4001   -4.2613 H   0  0  0  0  0  0  0  0  0  0  0  0
    2.0364   -9.2360   -4.8975 H   0  0  0  0  0  0  0  0  0  0  0  0
    1.8435   -6.4137   -4.9949 N   0  0  0  0  0  0  0  0  0  0  0  0
    1.6108   -5.0850   -5.5782 C   0  0  2  0  0  0  0  0  0  0  0  0
    2.9286   -4.4235   -6.0408 C   0  0  0  0  0  0  0  0  0  0  0  0
    4.0015   -4.9883   -5.8543 O   0  0  0  0  0  0  0  0  0  0  0  0
    0.8776   -4.2028   -4.5551 C   0  0  0  0  0  0  0  0  0  0  0  0
    1.8953   -3.9368   -3.0465 S   0  0  0  0  0  0  0  0  0  0  0  0
    2.7960   -6.6313   -4.7035 H   0  0  0  0  0  0  0  0  0  0  0  0
    0.9802   -5.1927   -6.4670 H   0  0  0  0  0  0  0  0  0  0  0  0
    0.6366   -3.2364   -5.0053 H   0  0  0  0  0  0  0  0  0  0  0  0
   -0.0674   -4.6776   -4.2717 H   0  0  0  0  0  0  0  0  0  0  0  0
    2.9161   -3.2109   -6.7085 N   0  0  0  0  0  0  0  0  0  0  0  0
    4.1253   -2.5415   -7.1741 C   0  0  0  0  0  0  0  0  0  0  0  0
    2.0178   -2.7632   -6.8628 H   0  0  0  0  0  0  0  0  0  0  0  0
    4.7914   -2.3223   -6.3329 H   0  0  0  0  0  0  0  0  0  0  0  0
    4.6608   -3.1713   -7.8923 H   0  0  0  0  0  0  0  0  0  0  0  0
    3.8697   -1.5982   -7.6660 H   0  0  0  0  0  0  0  0  0  0  0  0
   -5.5571    1.4631   -1.3098 C   0  0  0  0  0  0  0  0  0  0  0  0
   -6.1065    0.6279   -2.0104 O   0  0  0  0  0  0  0  0  0  0  0  0
   -6.3452    2.1995   -0.2431 C   0  0  0  0  0  0  0  0  0  0  0  0
   -6.2327    3.2784   -0.3736 H   0  0  0  0  0  0  0  0  0  0  0  0
   -7.4065    1.9454   -0.3156 H   0  0  0  0  0  0  0  0  0  0  0  0
   -5.9817    1.9189    0.7486 H   0  0  0  0  0  0  0  0  0  0  0  0
   -4.2146    1.7280   -1.4788 N   0  0  0  0  0  0  0  0  0  0  0  0
   -3.3264    0.9731   -2.3723 C   0  0  2  0  0  0  0  0  0  0  0  0
   -1.8721    0.9676   -1.8582 C   0  0  0  0  0  0  0  0  0  0  0  0
   -1.5114    1.7721   -1.0046 O   0  0  0  0  0  0  0  0  0  0  0  0
   -3.3919    1.5981   -3.7696 C   0  0  0  0  0  0  0  0  0  0  0  0
   -3.7701    2.3565   -0.8104 H   0  0  0  0  0  0  0  0  0  0  0  0
   -3.6590   -0.0692   -2.4255 H   0  0  0  0  0  0  0  0  0  0  0  0
   -3.0626    2.6416   -3.7375 H   0  0  0  0  0  0  0  0  0  0  0  0
   -2.7494    1.0520   -4.4668 H   0  0  0  0  0  0  0  0  0  0  0  0
   -4.4173    1.5677   -4.1515 H   0  0  0  0  0  0  0  0  0  0  0  0
   -0.9547    0.0563   -2.3469 N   0  0  0  0  0  0  0  0  0  0  0  0
    0.4868    0.1448   -2.0674 C   0  0  2  0  0  0  0  0  0  0  0  0
    1.1000    1.4653   -2.5816 C   0  0  0  0  0  0  0  0  0  0  0  0
    1.1091    1.7061   -3.7850 O   0  0  0  0  0  0  0  0  0  0  0  0
    1.1997   -1.0348   -2.7377 C   0  0  0  0  0  0  0  0  0  0  0  0
    0.6664   -2.6247   -1.9899 S   0  0  0  0  0  0  0  0  0  0  0  0
   -1.2643   -0.5587   -3.0936 H   0  0  0  0  0  0  0  0  0  0  0  0
    0.6508    0.0861   -0.9861 H   0  0  0  0  0  0  0  0  0  0  0  0
    0.9941   -1.0374   -3.8127 H   0  0  0  0  0  0  0  0  0  0  0  0
    2.2820   -0.9300   -2.6076 H   0  0  0  0  0  0  0  0  0  0  0  0
    1.7093    2.3463   -1.7102 N   0  0  0  0  0  0  0  0  0  0  0  0
    2.3627    3.6013   -2.0998 C   0  0  2  0  0  0  0  0  0  0  0  0
    3.4493    4.0202   -1.0866 C   0  0  0  0  0  0  0  0  0  0  0  0
    3.5153    3.4781    0.0110 O   0  0  0  0  0  0  0  0  0  0  0  0
    1.2885    4.6881   -2.2160 C   0  0  0  0  0  0  0  0  0  0  0  0
    1.6671    2.1346   -0.7133 H   0  0  0  0  0  0  0  0  0  0  0  0
    2.8531    3.4721   -3.0702 H   0  0  0  0  0  0  0  0  0  0  0  0
    0.7929    4.8398   -1.2515 H   0  0  0  0  0  0  0  0  0  0  0  0
    1.7326    5.6361   -2.5338 H   0  0  0  0  0  0  0  0  0  0  0  0
    0.5323    4.3988   -2.9527 H   0  0  0  0  0  0  0  0  0  0  0  0
    4.3659    5.0044   -1.4093 N   0  0  0  0  0  0  0  0  0  0  0  0
    5.4105    5.4539   -0.4966 C   0  0  0  0  0  0  0  0  0  0  0  0
    4.2934    5.4350   -2.3264 H   0  0  0  0  0  0  0  0  0  0  0  0
    4.9698    5.8633    0.4185 H   0  0  0  0  0  0  0  0  0  0  0  0
    6.0693    4.6213   -0.2280 H   0  0  0  0  0  0  0  0  0  0  0  0
    6.0148    6.2351   -0.9675 H   0  0  0  0  0  0  0  0  0  0  0  0
  1  2  2  0  0  0  0
  1  3  1  0  0  0  0
  1  7  1  0  0  0  0
  3  4  1  0  0  0  0
  3  5  1  0  0  0  0
  3  6  1  0  0  0  0
  7  8  1  0  0  0  0
  7 13  1  0  0  0  0
  8  9  1  0  0  0  0
  8 11  1  0  0  0  0
  8 14  1  0  0  0  0
  9 10  2  0  0  0  0
  9 17  1  0  0  0  0
 11 12  1  0  0  0  0
 11 15  1  0  0  0  0
 11 16  1  0  0  0  0
 12 44  1  0  0  0  0
 17 18  1  0  0  0  0
 17 19  1  0  0  0  0
 18 20  1  0  0  0  0
 18 21  1  0  0  0  0
 18 22  1  0  0  0  0
 23 24  2  0  0  0  0
 23 25  1  0  0  0  0
 23 29  1  0  0  0  0
 25 26  1  0  0  0  0
 25 27  1  0  0  0  0
 25 28  1  0  0  0  0
 29 30  1  0  0  0  0
 29 34  1  0  0  0  0
 30 31  1  0  0  0  0
 30 33  1  0  0  0  0
 30 35  1  0  0  0  0
 31 32  2  0  0  0  0
 31 39  1  0  0  0  0
 33 36  1  0  0  0  0
 33 37  1  0  0  0  0
 33 38  1  0  0  0  0
 39 40  1  0  0  0  0
 39 45  1  0  0  0  0
 40 41  1  0  0  0  0
 40 43  1  0  0  0  0
 40 46  1  0  0  0  0
 41 42  2  0  0  0  0
 41 49  1  0  0  0  0
 43 44  1  0  0  0  0
 43 47  1  0  0  0  0
 43 48  1  0  0  0  0
 49 50  1  0  0  0  0
 49 54  1  0  0  0  0
 50 51  1  0  0  0  0
 50 53  1  0  0  0  0
 50 55  1  0  0  0  0
 51 52  2  0  0  0  0
 51 59  1  0  0  0  0
 53 56  1  0  0  0  0
 53 57  1  0  0  0  0
 53 58  1  0  0  0  0
 59 60  1  0  0  0  0
 59 61  1  0  0  0  0
 60 62  1  0  0  0  0
 60 63  1  0  0  0  0
 60 64  1  0  0  0  0
M  END
$$$$

  -OEChem-05262216053D

 64 63  0     1  0  0  0  0  0999 V2000
    0.9080   -7.3849   -4.7464 C   0  0  0  0  0  0  0  0  0  0  0  0
   -0.2351   -7.2102   -5.1390 O   0  0  0  0  0  0  0  0  0  0  0  0
    1.2952   -8.6853   -4.0685 C   0  0  0  0  0  0  0  0  0  0  0  0
    1.7149   -8.4795   -3.0805 H   0  0  0  0  0  0  0  0  0  0  0  0
    0.4164   -9.3255   -3.9509 H   0  0  0  0  0  0  0  0  0  0  0  0
    2.0390   -9.2126   -4.6706 H   0  0  0  0  0  0  0  0  0  0  0  0
    1.8481   -6.3929   -4.9172 N   0  0  0  0  0  0  0  0  0  0  0  0
    1.5873   -5.0917   -5.5471 C   0  0  2  0  0  0  0  0  0  0  0  0
    2.8834   -4.4363   -6.0716 C   0  0  0  0  0  0  0  0  0  0  0  0
    3.9682   -4.9796   -5.8910 O   0  0  0  0  0  0  0  0  0  0  0  0
    0.8755   -4.1741   -4.5398 C   0  0  0  0  0  0  0  0  0  0  0  0
    1.9259   -3.8493   -3.0648 S   0  0  0  0  0  0  0  0  0  0  0  0
    2.8081   -6.5881   -4.6356 H   0  0  0  0  0  0  0  0  0  0  0  0
    0.9334   -5.2408   -6.4125 H   0  0  0  0  0  0  0  0  0  0  0  0
    0.6195   -3.2249   -5.0182 H   0  0  0  0  0  0  0  0  0  0  0  0
   -0.0603   -4.6419   -4.2167 H   0  0  0  0  0  0  0  0  0  0  0  0
    2.8363   -3.2512   -6.7851 N   0  0  0  0  0  0  0  0  0  0  0  0
    4.0246   -2.5844   -7.3040 C   0  0  0  0  0  0  0  0  0  0  0  0
    1.9283   -2.8210   -6.9323 H   0  0  0  0  0  0  0  0  0  0  0  0
    4.6886   -2.2909   -6.4839 H   0  0  0  0  0  0  0  0  0  0  0  0
    4.5727   -3.2490   -7.9803 H   0  0  0  0  0  0  0  0  0  0  0  0
    3.7420   -1.6845   -7.8589 H   0  0  0  0  0  0  0  0  0  0  0  0
   -5.5839    1.2630   -1.3864 C   0  0  0  0  0  0  0  0  0  0  0  0
   -6.0664    0.4323   -2.1398 O   0  0  0  0  0  0  0  0  0  0  0  0
   -6.4215    1.8509   -0.2666 C   0  0  0  0  0  0  0  0  0  0  0  0
   -6.5909    2.9150   -0.4477 H   0  0  0  0  0  0  0  0  0  0  0  0
   -7.3885    1.3430   -0.2128 H   0  0  0  0  0  0  0  0  0  0  0  0
   -5.9063    1.7273    0.6891 H   0  0  0  0  0  0  0  0  0  0  0  0
   -4.2720    1.6580   -1.5439 N   0  0  0  0  0  0  0  0  0  0  0  0
   -3.3285    1.0348   -2.4814 C   0  0  2  0  0  0  0  0  0  0  0  0
   -1.8939    1.0123   -1.9171 C   0  0  0  0  0  0  0  0  0  0  0  0
   -1.5666    1.7819   -1.0190 O   0  0  0  0  0  0  0  0  0  0  0  0
   -3.3687    1.8140   -3.7990 C   0  0  0  0  0  0  0  0  0  0  0  0
   -3.8752    2.2655   -0.8279 H   0  0  0  0  0  0  0  0  0  0  0  0
   -3.6226   -0.0040   -2.6665 H   0  0  0  0  0  0  0  0  0  0  0  0
   -3.0637    2.8532   -3.6388 H   0  0  0  0  0  0  0  0  0  0  0  0
   -2.6938    1.3635   -4.5331 H   0  0  0  0  0  0  0  0  0  0  0  0
   -4.3824    1.8076   -4.2121 H   0  0  0  0  0  0  0  0  0  0  0  0
   -0.9629    0.1144   -2.4035 N   0  0  0  0  0  0  0  0  0  0  0  0
    0.4739    0.2297   -2.1102 C   0  0  2  0  0  0  0  0  0  0  0  0
    1.0785    1.5586   -2.6123 C   0  0  0  0  0  0  0  0  0  0  0  0
    0.8912    1.9140   -3.7719 O   0  0  0  0  0  0  0  0  0  0  0  0
    1.2139   -0.9403   -2.7665 C   0  0  0  0  0  0  0  0  0  0  0  0
    0.6983   -2.5332   -2.0115 S   0  0  0  0  0  0  0  0  0  0  0  0
   -1.2424   -0.4403   -3.2067 H   0  0  0  0  0  0  0  0  0  0  0  0
    0.6222    0.1771   -1.0265 H   0  0  0  0  0  0  0  0  0  0  0  0
    1.0173   -0.9534   -3.8429 H   0  0  0  0  0  0  0  0  0  0  0  0
    2.2932   -0.8181   -2.6263 H   0  0  0  0  0  0  0  0  0  0  0  0
    1.9266    2.2926   -1.8061 N   0  0  0  0  0  0  0  0  0  0  0  0
    2.6623    3.4924   -2.2230 C   0  0  2  0  0  0  0  0  0  0  0  0
    3.9993    3.6278   -1.4629 C   0  0  0  0  0  0  0  0  0  0  0  0
    4.2214    2.9309   -0.4789 O   0  0  0  0  0  0  0  0  0  0  0  0
    1.7678    4.7111   -1.9755 C   0  0  0  0  0  0  0  0  0  0  0  0
    2.1202    1.9365   -0.8702 H   0  0  0  0  0  0  0  0  0  0  0  0
    2.8982    3.4304   -3.2903 H   0  0  0  0  0  0  0  0  0  0  0  0
    1.5198    4.7954   -0.9122 H   0  0  0  0  0  0  0  0  0  0  0  0
    2.2715    5.6298   -2.2906 H   0  0  0  0  0  0  0  0  0  0  0  0
    0.8358    4.6175   -2.5427 H   0  0  0  0  0  0  0  0  0  0  0  0
    4.9701    4.5126   -1.8962 N   0  0  0  0  0  0  0  0  0  0  0  0
    6.2678    4.6556   -1.2460 C   0  0  0  0  0  0  0  0  0  0  0  0
    4.7726    5.0615   -2.7278 H   0  0  0  0  0  0  0  0  0  0  0  0
    6.1420    4.9268   -0.1923 H   0  0  0  0  0  0  0  0  0  0  0  0
    6.8301    3.7175   -1.3027 H   0  0  0  0  0  0  0  0  0  0  0  0
    6.8532    5.4397   -1.7358 H   0  0  0  0  0  0  0  0  0  0  0  0
  1  2  2  0  0  0  0
  1  3  1  0  0  0  0
  1  7  1  0  0  0  0
  3  4  1  0  0  0  0
  3  5  1  0  0  0  0
  3  6  1  0  0  0  0
  7  8  1  0  0  0  0
  7 13  1  0  0  0  0
  8  9  1  0  0  0  0
  8 11  1  0  0  0  0
  8 14  1  0  0  0  0
  9 10  2  0  0  0  0
  9 17  1  0  0  0  0
 11 12  1  0  0  0  0
 11 15  1  0  0  0  0
 11 16  1  0  0  0  0
 12 44  1  0  0  0  0
 17 18  1  0  0  0  0
 17 19  1  0  0  0  0
 18 20  1  0  0  0  0
 18 21  1  0  0  0  0
 18 22  1  0  0  0  0
 23 24  2  0  0  0  0
 23 25  1  0  0  0  0
 23 29  1  0  0  0  0
 25 26  1  0  0  0  0
 25 27  1  0  0  0  0
 25 28  1  0  0  0  0
 29 30  1  0  0  0  0
 29 34  1  0  0  0  0
 30 31  1  0  0  0  0
 30 33  1  0  0  0  0
 30 35  1  0  0  0  0
 31 32  2  0  0  0  0
 31 39  1  0  0  0  0
 33 36  1  0  0  0  0
 33 37  1  0  0  0  0
 33 38  1  0  0  0  0
 39 40  1  0  0  0  0
 39 45  1  0  0  0  0
 40 41  1  0  0  0  0
 40 43  1  0  0  0  0
 40 46  1  0  0  0  0
 41 42  2  0  0  0  0
 41 49  1  0  0  0  0
 43 44  1  0  0  0  0
 43 47  1  0  0  0  0
 43 48  1  0  0  0  0
 49 50  1  0  0  0  0
 49 54  1  0  0  0  0
 50 51  1  0  0  0  0
 50 53  1  0  0  0  0
 50 55  1  0  0  0  0
 51 52  2  0  0  0  0
 51 59  1  0  0  0  0
 53 56  1  0  0  0  0
 53 57  1  0  0  0  0
 53 58  1  0  0  0  0
 59 60  1  0  0  0  0
 59 61  1  0  0  0  0
 60 62  1  0  0  0  0
 60 63  1  0  0  0  0
 60 64  1  0  0  0  0
M  END
$$$$

  -OEChem-05262216053D

 64 63  0     1  0  0  0  0  0999 V2000
    0.9228   -7.3482   -4.7001 C   0  0  0  0  0  0  0  0  0  0  0  0
   -0.2060   -7.1984   -5.1413 O   0  0  0  0  0  0  0  0  0  0  0  0
    1.3186   -8.6517   -4.0344 C   0  0  0  0  0  0  0  0  0  0  0  0
    1.5363   -8.4768   -2.9782 H   0  0  0  0  0  0  0  0  0  0  0  0
    0.5043   -9.3775   -4.1127 H   0  0  0  0  0  0  0  0  0  0  0  0
    2.2068   -9.0642   -4.5190 H   0  0  0  0  0  0  0  0  0  0  0  0
    1.8404   -6.3276   -4.8129 N   0  0  0  0  0  0  0  0  0  0  0  0
    1.5800   -5.0407   -5.4719 C   0  0  2  0  0  0  0  0  0  0  0  0
    2.8712   -4.4067   -6.0330 C   0  0  0  0  0  0  0  0  0  0  0  0
    3.9635   -4.9116   -5.7962 O   0  0  0  0  0  0  0  0  0  0  0  0
    0.8838   -4.1002   -4.4761 C   0  0  0  0  0  0  0  0  0  0  0  0
    1.9428   -3.7654   -3.0092 S   0  0  0  0  0  0  0  0  0  0  0  0
    2.7920   -6.5006   -4.4910 H   0  0  0  0  0  0  0  0  0  0  0  0
    0.9138   -5.2041   -6.3254 H   0  0  0  0  0  0  0  0  0  0  0  0
    0.6350   -3.1555   -4.9671 H   0  0  0  0  0  0  0  0  0  0  0  0
   -0.0549   -4.5555   -4.1431 H   0  0  0  0  0  0  0  0  0  0  0  0
    2.8080   -3.2989   -6.8601 N   0  0  0  0  0  0  0  0  0  0  0  0
    3.9830   -2.7040   -7.4860 C   0  0  0  0  0  0  0  0  0  0  0  0
    1.8898   -2.9327   -7.0924 H   0  0  0  0  0  0  0  0  0  0  0  0
    4.7022   -2.3824   -6.7253 H   0  0  0  0  0  0  0  0  0  0  0  0
    4.4707   -3.4265   -8.1490 H   0  0  0  0  0  0  0  0  0  0  0  0
    3.6948   -1.8303   -8.0783 H   0  0  0  0  0  0  0  0  0  0  0  0
   -5.5232    1.0759   -1.3648 C   0  0  0  0  0  0  0  0  0  0  0  0
   -5.8986    0.0758   -1.9555 O   0  0  0  0  0  0  0  0  0  0  0  0
   -6.3593    1.6458   -0.2347 C   0  0  0  0  0  0  0  0  0  0  0  0
   -6.6767    2.6615   -0.4822 H   0  0  0  0  0  0  0  0  0  0  0  0
   -7.2470    1.0275   -0.0744 H   0  0  0  0  0  0  0  0  0  0  0  0
   -5.7747    1.6681    0.6882 H   0  0  0  0  0  0  0  0  0  0  0  0
   -4.3371    1.6877   -1.7133 N   0  0  0  0  0  0  0  0  0  0  0  0
   -3.3360    1.0911   -2.6090 C   0  0  2  0  0  0  0  0  0  0  0  0
   -1.9460    1.0320   -1.9455 C   0  0  0  0  0  0  0  0  0  0  0  0
   -1.6654    1.7923   -1.0238 O   0  0  0  0  0  0  0  0  0  0  0  0
   -3.2764    1.9364   -3.8837 C   0  0  0  0  0  0  0  0  0  0  0  0
   -3.9982    2.4099   -1.0795 H   0  0  0  0  0  0  0  0  0  0  0  0
   -3.6162    0.0661   -2.8738 H   0  0  0  0  0  0  0  0  0  0  0  0
   -2.9718    2.9619   -3.6496 H   0  0  0  0  0  0  0  0  0  0  0  0
   -2.5553    1.5147   -4.5910 H   0  0  0  0  0  0  0  0  0  0  0  0
   -4.2590    1.9651   -4.3654 H   0  0  0  0  0  0  0  0  0  0  0  0
   -0.9910    0.1408   -2.3962 N   0  0  0  0  0  0  0  0  0  0  0  0
    0.4341    0.2941   -2.0645 C   0  0  2  0  0  0  0  0  0  0  0  0
    1.0283    1.6270   -2.5698 C   0  0  0  0  0  0  0  0  0  0  0  0
    0.6813    2.0815   -3.6559 O   0  0  0  0  0  0  0  0  0  0  0  0
    1.2123   -0.8639   -2.6969 C   0  0  0  0  0  0  0  0  0  0  0  0
    0.7099   -2.4626   -1.9459 S   0  0  0  0  0  0  0  0  0  0  0  0
   -1.2299   -0.3920   -3.2264 H   0  0  0  0  0  0  0  0  0  0  0  0
    0.5561    0.2577   -0.9766 H   0  0  0  0  0  0  0  0  0  0  0  0
    1.0388   -0.8854   -3.7774 H   0  0  0  0  0  0  0  0  0  0  0  0
    2.2861   -0.7214   -2.5349 H   0  0  0  0  0  0  0  0  0  0  0  0
    2.0665    2.2291   -1.8849 N   0  0  0  0  0  0  0  0  0  0  0  0
    2.8594    3.3598   -2.3837 C   0  0  2  0  0  0  0  0  0  0  0  0
    4.3451    3.2244   -1.9883 C   0  0  0  0  0  0  0  0  0  0  0  0
    4.6889    2.3832   -1.1651 O   0  0  0  0  0  0  0  0  0  0  0  0
    2.2576    4.6472   -1.8145 C   0  0  0  0  0  0  0  0  0  0  0  0
    2.4262    1.7495   -1.0599 H   0  0  0  0  0  0  0  0  0  0  0  0
    2.8169    3.3969   -3.4773 H   0  0  0  0  0  0  0  0  0  0  0  0
    2.3038    4.6412   -0.7205 H   0  0  0  0  0  0  0  0  0  0  0  0
    2.8012    5.5225   -2.1822 H   0  0  0  0  0  0  0  0  0  0  0  0
    1.2096    4.7397   -2.1176 H   0  0  0  0  0  0  0  0  0  0  0  0
    5.3039    4.0311   -2.5727 N   0  0  0  0  0  0  0  0  0  0  0  0
    6.7268    3.9315   -2.2688 C   0  0  0  0  0  0  0  0  0  0  0  0
    4.9932    4.7097   -3.2619 H   0  0  0  0  0  0  0  0  0  0  0  0
    6.9066    4.1130   -1.2037 H   0  0  0  0  0  0  0  0  0  0  0  0
    7.1051    2.9362   -2.5253 H   0  0  0  0  0  0  0  0  0  0  0  0
    7.2887    4.6730   -2.8445 H   0  0  0  0  0  0  0  0  0  0  0  0
  1  2  2  0  0  0  0
  1  3  1  0  0  0  0
  1  7  1  0  0  0  0
  3  4  1  0  0  0  0
  3  5  1  0  0  0  0
  3  6  1  0  0  0  0
  7  8  1  0  0  0  0
  7 13  1  0  0  0  0
  8  9  1  0  0  0  0
  8 11  1  0  0  0  0
  8 14  1  0  0  0  0
  9 10  2  0  0  0  0
  9 17  1  0  0  0  0
 11 12  1  0  0  0  0
 11 15  1  0  0  0  0
 11 16  1  0  0  0  0
 12 44  1  0  0  0  0
 17 18  1  0  0  0  0
 17 19  1  0  0  0  0
 18 20  1  0  0  0  0
 18 21  1  0  0  0  0
 18 22  1  0  0  0  0
 23 24  2  0  0  0  0
 23 25  1  0  0  0  0
 23 29  1  0  0  0  0
 25 26  1  0  0  0  0
 25 27  1  0  0  0  0
 25 28  1  0  0  0  0
 29 30  1  0  0  0  0
 29 34  1  0  0  0  0
 30 31  1  0  0  0  0
 30 33  1  0  0  0  0
 30 35  1  0  0  0  0
 31 32  2  0  0  0  0
 31 39  1  0  0  0  0
 33 36  1  0  0  0  0
 33 37  1  0  0  0  0
 33 38  1  0  0  0  0
 39 40  1  0  0  0  0
 39 45  1  0  0  0  0
 40 41  1  0  0  0  0
 40 43  1  0  0  0  0
 40 46  1  0  0  0  0
 41 42  2  0  0  0  0
 41 49  1  0  0  0  0
 43 44  1  0  0  0  0
 43 47  1  0  0  0  0
 43 48  1  0  0  0  0
 49 50  1  0  0  0  0
 49 54  1  0  0  0  0
 50 51  1  0  0  0  0
 50 53  1  0  0  0  0
 50 55  1  0  0  0  0
 51 52  2  0  0  0  0
 51 59  1  0  0  0  0
 53 56  1  0  0  0  0
 53 57  1  0  0  0  0
 53 58  1  0  0  0  0
 59 60  1  0  0  0  0
 59 61  1  0  0  0  0
 60 62  1  0  0  0  0
 60 63  1  0  0  0  0
 60 64  1  0  0  0  0
M  END
$$$$

  -OEChem-05262216053D

 64 63  0     1  0  0  0  0  0999 V2000
    0.9367   -7.3493   -4.6954 C   0  0  0  0  0  0  0  0  0  0  0  0
   -0.2101   -7.1709   -5.0757 O   0  0  0  0  0  0  0  0  0  0  0  0
    1.3262   -8.6520   -4.0236 C   0  0  0  0  0  0  0  0  0  0  0  0
    1.7956   -8.4482   -3.0579 H   0  0  0  0  0  0  0  0  0  0  0  0
    0.4390   -9.2697   -3.8595 H   0  0  0  0  0  0  0  0  0  0  0  0
    2.0286   -9.2018   -4.6547 H   0  0  0  0  0  0  0  0  0  0  0  0
    1.8775   -6.3601   -4.8792 N   0  0  0  0  0  0  0  0  0  0  0  0
    1.6140   -5.0655   -5.5222 C   0  0  2  0  0  0  0  0  0  0  0  0
    2.9026   -4.4289   -6.0869 C   0  0  0  0  0  0  0  0  0  0  0  0
    3.9868   -4.9787   -5.9240 O   0  0  0  0  0  0  0  0  0  0  0  0
    0.9320   -4.1299   -4.5117 C   0  0  0  0  0  0  0  0  0  0  0  0
    2.0246   -3.7789   -3.0745 S   0  0  0  0  0  0  0  0  0  0  0  0
    2.8408   -6.5574   -4.6100 H   0  0  0  0  0  0  0  0  0  0  0  0
    0.9394   -5.2217   -6.3706 H   0  0  0  0  0  0  0  0  0  0  0  0
    0.6618   -3.1900   -4.9996 H   0  0  0  0  0  0  0  0  0  0  0  0
    0.0067   -4.5927   -4.1534 H   0  0  0  0  0  0  0  0  0  0  0  0
    2.8480   -3.2560   -6.8197 N   0  0  0  0  0  0  0  0  0  0  0  0
    4.0284   -2.6150   -7.3875 C   0  0  0  0  0  0  0  0  0  0  0  0
    1.9382   -2.8298   -6.9670 H   0  0  0  0  0  0  0  0  0  0  0  0
    4.7446   -2.3624   -6.5983 H   0  0  0  0  0  0  0  0  0  0  0  0
    4.5177   -3.2806   -8.1064 H   0  0  0  0  0  0  0  0  0  0  0  0
    3.7471   -1.6932   -7.9059 H   0  0  0  0  0  0  0  0  0  0  0  0
   -5.6077    1.2569   -1.4382 C   0  0  0  0  0  0  0  0  0  0  0  0
   -6.0743    0.4770   -2.2535 O   0  0  0  0  0  0  0  0  0  0  0  0
   -6.4813    1.8025   -0.3246 C   0  0  0  0  0  0  0  0  0  0  0  0
   -6.5992    2.8828   -0.4386 H   0  0  0  0  0  0  0  0  0  0  0  0
   -7.4689    1.3336   -0.3578 H   0  0  0  0  0  0  0  0  0  0  0  0
   -6.0250    1.5918    0.6459 H   0  0  0  0  0  0  0  0  0  0  0  0
   -4.2834    1.6315   -1.5201 N   0  0  0  0  0  0  0  0  0  0  0  0
   -3.3129    1.0339   -2.4460 C   0  0  2  0  0  0  0  0  0  0  0  0
   -1.9038    0.9529   -1.8259 C   0  0  0  0  0  0  0  0  0  0  0  0
   -1.6034    1.6575   -0.8665 O   0  0  0  0  0  0  0  0  0  0  0  0
   -3.2801    1.8747   -3.7250 C   0  0  0  0  0  0  0  0  0  0  0  0
   -3.9060    2.1963   -0.7601 H   0  0  0  0  0  0  0  0  0  0  0  0
   -3.6192    0.0121   -2.6940 H   0  0  0  0  0  0  0  0  0  0  0  0
   -2.9566    2.8969   -3.5037 H   0  0  0  0  0  0  0  0  0  0  0  0
   -2.5857    1.4417   -4.4512 H   0  0  0  0  0  0  0  0  0  0  0  0
   -4.2752    1.9137   -4.1791 H   0  0  0  0  0  0  0  0  0  0  0  0
   -0.9645    0.0747   -2.3343 N   0  0  0  0  0  0  0  0  0  0  0  0
    0.4731    0.2495   -2.0686 C   0  0  2  0  0  0  0  0  0  0  0  0
    1.0323    1.5941   -2.5874 C   0  0  0  0  0  0  0  0  0  0  0  0
    0.4954    2.1685   -3.5300 O   0  0  0  0  0  0  0  0  0  0  0  0
    1.2368   -0.8977   -2.7408 C   0  0  0  0  0  0  0  0  0  0  0  0
    0.7946   -2.5060   -1.9727 S   0  0  0  0  0  0  0  0  0  0  0  0
   -1.2275   -0.4025   -3.1905 H   0  0  0  0  0  0  0  0  0  0  0  0
    0.6457    0.2099   -0.9875 H   0  0  0  0  0  0  0  0  0  0  0  0
    1.0127   -0.9190   -3.8119 H   0  0  0  0  0  0  0  0  0  0  0  0
    2.3155   -0.7443   -2.6295 H   0  0  0  0  0  0  0  0  0  0  0  0
    2.2644    2.0402   -2.1482 N   0  0  0  0  0  0  0  0  0  0  0  0
    3.0261    3.1390   -2.7542 C   0  0  2  0  0  0  0  0  0  0  0  0
    4.5448    2.8725   -2.6826 C   0  0  0  0  0  0  0  0  0  0  0  0
    4.9709    1.9134   -2.0482 O   0  0  0  0  0  0  0  0  0  0  0  0
    2.6567    4.4321   -2.0228 C   0  0  0  0  0  0  0  0  0  0  0  0
    2.7681    1.4521   -1.4842 H   0  0  0  0  0  0  0  0  0  0  0  0
    2.7639    3.2381   -3.8128 H   0  0  0  0  0  0  0  0  0  0  0  0
    2.9238    4.3629   -0.9634 H   0  0  0  0  0  0  0  0  0  0  0  0
    3.1807    5.2864   -2.4609 H   0  0  0  0  0  0  0  0  0  0  0  0
    1.5795    4.6127   -2.0991 H   0  0  0  0  0  0  0  0  0  0  0  0
    5.4363    3.6887   -3.3539 N   0  0  0  0  0  0  0  0  0  0  0  0
    6.8786    3.4742   -3.3447 C   0  0  0  0  0  0  0  0  0  0  0  0
    5.0573    4.4693   -3.8821 H   0  0  0  0  0  0  0  0  0  0  0  0
    7.2607    3.4747   -2.3183 H   0  0  0  0  0  0  0  0  0  0  0  0
    7.1260    2.5148   -3.8114 H   0  0  0  0  0  0  0  0  0  0  0  0
    7.3833    4.2705   -3.9002 H   0  0  0  0  0  0  0  0  0  0  0  0
  1  2  2  0  0  0  0
  1  3  1  0  0  0  0
  1  7  1  0  0  0  0
  3  4  1  0  0  0  0
  3  5  1  0  0  0  0
  3  6  1  0  0  0  0
  7  8  1  0  0  0  0
  7 13  1  0  0  0  0
  8  9  1  0  0  0  0
  8 11  1  0  0  0  0
  8 14  1  0  0  0  0
  9 10  2  0  0  0  0
  9 17  1  0  0  0  0
 11 12  1  0  0  0  0
 11 15  1  0  0  0  0
 11 16  1  0  0  0  0
 12 44  1  0  0  0  0
 17 18  1  0  0  0  0
 17 19  1  0  0  0  0
 18 20  1  0  0  0  0
 18 21  1  0  0  0  0
 18 22  1  0  0  0  0
 23 24  2  0  0  0  0
 23 25  1  0  0  0  0
 23 29  1  0  0  0  0
 25 26  1  0  0  0  0
 25 27  1  0  0  0  0
 25 28  1  0  0  0  0
 29 30  1  0  0  0  0
 29 34  1  0  0  0  0
 30 31  1  0  0  0  0
 30 33  1  0  0  0  0
 30 35  1  0  0  0  0
 31 32  2  0  0  0  0
 31 39  1  0  0  0  0
 33 36  1  0  0  0  0
 33 37  1  0  0  0  0
 33 38  1  0  0  0  0
 39 40  1  0  0  0  0
 39 45  1  0  0  0  0
 40 41  1  0  0  0  0
 40 43  1  0  0  0  0
 40 46  1  0  0  0  0
 41 42  2  0  0  0  0
 41 49  1  0  0  0  0
 43 44  1  0  0  0  0
 43 47  1  0  0  0  0
 43 48  1  0  0  0  0
 49 50  1  0  0  0  0
 49 54  1  0  0  0  0
 50 51  1  0  0  0  0
 50 53  1  0  0  0  0
 50 55  1  0  0  0  0
 51 52  2  0  0  0  0
 51 59  1  0  0  0  0
 53 56  1  0  0  0  0
 53 57  1  0  0  0  0
 53 58  1  0  0  0  0
 59 60  1  0  0  0  0
 59 61  1  0  0  0  0
 60 62  1  0  0  0  0
 60 63  1  0  0  0  0
 60 64  1  0  0  0  0
M  END
$$$$

  -OEChem-05262216053D

 64 63  0     1  0  0  0  0  0999 V2000
    1.3091   -6.4073   -6.5575 C   0  0  0  0  0  0  0  0  0  0  0  0
    0.1541   -6.2030   -6.8978 O   0  0  0  0  0  0  0  0  0  0  0  0
    1.7769   -7.8142   -6.2374 C   0  0  0  0  0  0  0  0  0  0  0  0
    2.1848   -7.8504   -5.2241 H   0  0  0  0  0  0  0  0  0  0  0  0
    0.9399   -8.5145   -6.3051 H   0  0  0  0  0  0  0  0  0  0  0  0
    2.5505   -8.1201   -6.9458 H   0  0  0  0  0  0  0  0  0  0  0  0
    2.1900   -5.3523   -6.4693 N   0  0  0  0  0  0  0  0  0  0  0  0
    1.8593   -3.9580   -6.7951 C   0  0  2  0  0  0  0  0  0  0  0  0
    3.1110   -3.1484   -7.1999 C   0  0  0  0  0  0  0  0  0  0  0  0
    4.2208   -3.6696   -7.1685 O   0  0  0  0  0  0  0  0  0  0  0  0
    1.1475   -3.3163   -5.5937 C   0  0  0  0  0  0  0  0  0  0  0  0
    2.2458   -3.2527   -4.1193 S   0  0  0  0  0  0  0  0  0  0  0  0
    3.1641   -5.5589   -6.2508 H   0  0  0  0  0  0  0  0  0  0  0  0
    1.1814   -3.9443   -7.6548 H   0  0  0  0  0  0  0  0  0  0  0  0
    0.8244   -2.3039   -5.8502 H   0  0  0  0  0  0  0  0  0  0  0  0
    0.2517   -3.8967   -5.3491 H   0  0  0  0  0  0  0  0  0  0  0  0
    2.9963   -1.8398   -7.6363 N   0  0  0  0  0  0  0  0  0  0  0  0
    4.1452   -1.0182   -7.9988 C   0  0  0  0  0  0  0  0  0  0  0  0
    2.0683   -1.4293   -7.6692 H   0  0  0  0  0  0  0  0  0  0  0  0
    4.8248   -0.9134   -7.1461 H   0  0  0  0  0  0  0  0  0  0  0  0
    4.6928   -1.4711   -8.8320 H   0  0  0  0  0  0  0  0  0  0  0  0
    3.8169   -0.0200   -8.3040 H   0  0  0  0  0  0  0  0  0  0  0  0
   -5.6204    1.1287   -1.4925 C   0  0  0  0  0  0  0  0  0  0  0  0
   -6.0629    0.3884   -2.3567 O   0  0  0  0  0  0  0  0  0  0  0  0
   -6.5168    1.6051   -0.3654 C   0  0  0  0  0  0  0  0  0  0  0  0
   -6.6788    2.6824   -0.4487 H   0  0  0  0  0  0  0  0  0  0  0  0
   -7.4837    1.0964   -0.4128 H   0  0  0  0  0  0  0  0  0  0  0  0
   -6.0519    1.3868    0.5991 H   0  0  0  0  0  0  0  0  0  0  0  0
   -4.3002    1.5223   -1.5303 N   0  0  0  0  0  0  0  0  0  0  0  0
   -3.3012    0.9785   -2.4583 C   0  0  2  0  0  0  0  0  0  0  0  0
   -1.9135    0.8739   -1.7940 C   0  0  0  0  0  0  0  0  0  0  0  0
   -1.6846    1.4591   -0.7392 O   0  0  0  0  0  0  0  0  0  0  0  0
   -3.2362    1.8919   -3.6851 C   0  0  0  0  0  0  0  0  0  0  0  0
   -3.9397    2.0330   -0.7246 H   0  0  0  0  0  0  0  0  0  0  0  0
   -3.5924   -0.0300   -2.7708 H   0  0  0  0  0  0  0  0  0  0  0  0
   -2.9371    2.9036   -3.3913 H   0  0  0  0  0  0  0  0  0  0  0  0
   -2.5098    1.5128   -4.4099 H   0  0  0  0  0  0  0  0  0  0  0  0
   -4.2156    1.9436   -4.1714 H   0  0  0  0  0  0  0  0  0  0  0  0
   -0.9350    0.0515   -2.3242 N   0  0  0  0  0  0  0  0  0  0  0  0
    0.5013    0.2761   -2.0720 C   0  0  2  0  0  0  0  0  0  0  0  0
    0.9829    1.7463   -2.2146 C   0  0  0  0  0  0  0  0  0  0  0  0
    0.3148    2.5711   -2.8309 O   0  0  0  0  0  0  0  0  0  0  0  0
    1.2760   -0.6051   -3.0639 C   0  0  0  0  0  0  0  0  0  0  0  0
    0.9703   -2.3824   -2.7182 S   0  0  0  0  0  0  0  0  0  0  0  0
   -1.1822   -0.4118   -3.1926 H   0  0  0  0  0  0  0  0  0  0  0  0
    0.7300   -0.0399   -1.0486 H   0  0  0  0  0  0  0  0  0  0  0  0
    0.9816   -0.3642   -4.0898 H   0  0  0  0  0  0  0  0  0  0  0  0
    2.3515   -0.4202   -2.9762 H   0  0  0  0  0  0  0  0  0  0  0  0
    2.3143    2.0499   -1.9904 N   0  0  0  0  0  0  0  0  0  0  0  0
    2.9879    3.2826   -2.4211 C   0  0  2  0  0  0  0  0  0  0  0  0
    4.4557    3.0093   -2.8127 C   0  0  0  0  0  0  0  0  0  0  0  0
    4.9481    1.9041   -2.6119 O   0  0  0  0  0  0  0  0  0  0  0  0
    2.9032    4.2976   -1.2770 C   0  0  0  0  0  0  0  0  0  0  0  0
    2.9195    1.2953   -1.6676 H   0  0  0  0  0  0  0  0  0  0  0  0
    2.4904    3.6948   -3.3052 H   0  0  0  0  0  0  0  0  0  0  0  0
    3.4145    3.9155   -0.3875 H   0  0  0  0  0  0  0  0  0  0  0  0
    3.3671    5.2453   -1.5659 H   0  0  0  0  0  0  0  0  0  0  0  0
    1.8565    4.4917   -1.0206 H   0  0  0  0  0  0  0  0  0  0  0  0
    5.2190    3.9903   -3.4188 N   0  0  0  0  0  0  0  0  0  0  0  0
    6.6039    3.7873   -3.8281 C   0  0  0  0  0  0  0  0  0  0  0  0
    4.7843    4.8938   -3.5827 H   0  0  0  0  0  0  0  0  0  0  0  0
    7.2187    3.4938   -2.9704 H   0  0  0  0  0  0  0  0  0  0  0  0
    6.6667    3.0038   -4.5907 H   0  0  0  0  0  0  0  0  0  0  0  0
    7.0146    4.7113   -4.2468 H   0  0  0  0  0  0  0  0  0  0  0  0
  1  2  2  0  0  0  0
  1  3  1  0  0  0  0
  1  7  1  0  0  0  0
  3  4  1  0  0  0  0
  3  5  1  0  0  0  0
  3  6  1  0  0  0  0
  7  8  1  0  0  0  0
  7 13  1  0  0  0  0
  8  9  1  0  0  0  0
  8 11  1  0  0  0  0
  8 14  1  0  0  0  0
  9 10  2  0  0  0  0
  9 17  1  0  0  0  0
 11 12  1  0  0  0  0
 11 15  1  0  0  0  0
 11 16  1  0  0  0  0
 12 44  1  0  0  0  0
 17 18  1  0  0  0  0
 17 19  1  0  0  0  0
 18 20  1  0  0  0  0
 18 21  1  0  0  0  0
 18 22  1  0  0  0  0
 23 24  2  0  0  0  0
 23 25  1  0  0  0  0
 23 29  1  0  0  0  0
 25 26  1  0  0  0  0
 25 27  1  0  0  0  0
 25 28  1  0  0  0  0
 29 30  1  0  0  0  0
 29 34  1  0  0  0  0
 30 31  1  0  0  0  0
 30 33  1  0  0  0  0
 30 35  1  0  0  0  0
 31 32  2  0  0  0  0
 31 39  1  0  0  0  0
 33 36  1  0  0  0  0
 33 37  1  0  0  0  0
 33 38  1  0  0  0  0
 39 40  1  0  0  0  0
 39 45  1  0  0  0  0
 40 41  1  0  0  0  0
 40 43  1  0  0  0  0
 40 46  1  0  0  0  0
 41 42  2  0  0  0  0
 41 49  1  0  0  0  0
 43 44  1  0  0  0  0
 43 47  1  0  0  0  0
 43 48  1  0  0  0  0
 49 50  1  0  0  0  0
 49 54  1  0  0  0  0
 50 51  1  0  0  0  0
 50 53  1  0  0  0  0
 50 55  1  0  0  0  0
 51 52  2  0  0  0  0
 51 59  1  0  0  0  0
 53 56  1  0  0  0  0
 53 57  1  0  0  0  0
 53 58  1  0  0  0  0
 59 60  1  0  0  0  0
 59 61  1  0  0  0  0
 60 62  1  0  0  0  0
 60 63  1  0  0  0  0
 60 64  1  0  0  0  0
M  END
$$$$

  -OEChem-05262216053D

 64 63  0     1  0  0  0  0  0999 V2000
    2.1607   -5.3804   -7.4795 C   0  0  0  0  0  0  0  0  0  0  0  0
    1.3818   -4.7231   -8.1525 O   0  0  0  0  0  0  0  0  0  0  0  0
    2.2690   -6.8795   -7.6843 C   0  0  0  0  0  0  0  0  0  0  0  0
    2.0551   -7.4003   -6.7478 H   0  0  0  0  0  0  0  0  0  0  0  0
    1.5527   -7.2090   -8.4421 H   0  0  0  0  0  0  0  0  0  0  0  0
    3.2773   -7.1389   -8.0158 H   0  0  0  0  0  0  0  0  0  0  0  0
    2.9487   -4.7565   -6.5372 N   0  0  0  0  0  0  0  0  0  0  0  0
    3.0109   -3.3011   -6.3378 C   0  0  2  0  0  0  0  0  0  0  0  0
    4.3704   -2.8610   -5.7444 C   0  0  0  0  0  0  0  0  0  0  0  0
    5.2636   -3.6905   -5.5962 O   0  0  0  0  0  0  0  0  0  0  0  0
    1.8303   -2.8651   -5.4591 C   0  0  0  0  0  0  0  0  0  0  0  0
    2.0214   -3.4446   -3.7216 S   0  0  0  0  0  0  0  0  0  0  0  0
    3.6688   -5.3135   -6.0787 H   0  0  0  0  0  0  0  0  0  0  0  0
    2.9213   -2.8041   -7.3095 H   0  0  0  0  0  0  0  0  0  0  0  0
    1.7650   -1.7743   -5.4747 H   0  0  0  0  0  0  0  0  0  0  0  0
    0.8953   -3.2563   -5.8729 H   0  0  0  0  0  0  0  0  0  0  0  0
    4.6333   -1.5400   -5.4248 N   0  0  0  0  0  0  0  0  0  0  0  0
    5.9026   -1.0933   -4.8666 C   0  0  0  0  0  0  0  0  0  0  0  0
    3.8612   -0.8690   -5.4579 H   0  0  0  0  0  0  0  0  0  0  0  0
    6.0822   -1.5665   -3.8958 H   0  0  0  0  0  0  0  0  0  0  0  0
    6.7286   -1.3441   -5.5403 H   0  0  0  0  0  0  0  0  0  0  0  0
    5.8899   -0.0080   -4.7280 H   0  0  0  0  0  0  0  0  0  0  0  0
   -5.6629    2.0486   -1.3757 C   0  0  0  0  0  0  0  0  0  0  0  0
   -6.2275    1.4453   -2.2747 O   0  0  0  0  0  0  0  0  0  0  0  0
   -6.4742    2.7353   -0.2936 C   0  0  0  0  0  0  0  0  0  0  0  0
   -6.2341    3.8009   -0.2674 H   0  0  0  0  0  0  0  0  0  0  0  0
   -7.5431    2.6194   -0.4930 H   0  0  0  0  0  0  0  0  0  0  0  0
   -6.2469    2.2930    0.6793 H   0  0  0  0  0  0  0  0  0  0  0  0
   -4.2859    2.0984   -1.3367 N   0  0  0  0  0  0  0  0  0  0  0  0
   -3.4018    1.3601   -2.2476 C   0  0  2  0  0  0  0  0  0  0  0  0
   -2.0560    1.0108   -1.5793 C   0  0  0  0  0  0  0  0  0  0  0  0
   -1.7473    1.5056   -0.4989 O   0  0  0  0  0  0  0  0  0  0  0  0
   -3.1630    2.2169   -3.4949 C   0  0  0  0  0  0  0  0  0  0  0  0
   -3.8504    2.5160   -0.5145 H   0  0  0  0  0  0  0  0  0  0  0  0
   -3.8781    0.4179   -2.5393 H   0  0  0  0  0  0  0  0  0  0  0  0
   -2.6732    3.1578   -3.2229 H   0  0  0  0  0  0  0  0  0  0  0  0
   -2.5249    1.6883   -4.2093 H   0  0  0  0  0  0  0  0  0  0  0  0
   -4.1139    2.4465   -3.9858 H   0  0  0  0  0  0  0  0  0  0  0  0
   -1.2085    0.0734   -2.1435 N   0  0  0  0  0  0  0  0  0  0  0  0
    0.2496    0.0890   -1.9169 C   0  0  2  0  0  0  0  0  0  0  0  0
    0.9375    1.4836   -2.0413 C   0  0  0  0  0  0  0  0  0  0  0  0
    0.3318    2.4354   -2.5264 O   0  0  0  0  0  0  0  0  0  0  0  0
    0.8540   -0.8255   -2.9941 C   0  0  0  0  0  0  0  0  0  0  0  0
    0.3479   -2.5787   -2.8184 S   0  0  0  0  0  0  0  0  0  0  0  0
   -1.5269   -0.3193   -3.0241 H   0  0  0  0  0  0  0  0  0  0  0  0
    0.4659   -0.3073   -0.9198 H   0  0  0  0  0  0  0  0  0  0  0  0
    0.5764   -0.4571   -3.9868 H   0  0  0  0  0  0  0  0  0  0  0  0
    1.9453   -0.8078   -2.9312 H   0  0  0  0  0  0  0  0  0  0  0  0
    2.3205    1.5382   -2.1494 N   0  0  0  0  0  0  0  0  0  0  0  0
    2.9908    2.4552   -3.0820 C   0  0  2  0  0  0  0  0  0  0  0  0
    2.8198    1.9924   -4.5484 C   0  0  0  0  0  0  0  0  0  0  0  0
    2.9985    0.8144   -4.8531 O   0  0  0  0  0  0  0  0  0  0  0  0
    4.4711    2.5123   -2.7000 C   0  0  0  0  0  0  0  0  0  0  0  0
    2.8029    0.6655   -1.9543 H   0  0  0  0  0  0  0  0  0  0  0  0
    2.5728    3.4628   -2.9805 H   0  0  0  0  0  0  0  0  0  0  0  0
    4.9281    1.5206   -2.7768 H   0  0  0  0  0  0  0  0  0  0  0  0
    5.0100    3.1959   -3.3632 H   0  0  0  0  0  0  0  0  0  0  0  0
    4.5827    2.8695   -1.6714 H   0  0  0  0  0  0  0  0  0  0  0  0
    2.4499    2.8921   -5.5294 N   0  0  0  0  0  0  0  0  0  0  0  0
    2.1504    2.4980   -6.9011 C   0  0  0  0  0  0  0  0  0  0  0  0
    2.1618    3.8163   -5.2177 H   0  0  0  0  0  0  0  0  0  0  0  0
    3.0182    2.0121   -7.3594 H   0  0  0  0  0  0  0  0  0  0  0  0
    1.3031    1.8045   -6.9253 H   0  0  0  0  0  0  0  0  0  0  0  0
    1.8939    3.3779   -7.4991 H   0  0  0  0  0  0  0  0  0  0  0  0
  1  2  2  0  0  0  0
  1  3  1  0  0  0  0
  1  7  1  0  0  0  0
  3  4  1  0  0  0  0
  3  5  1  0  0  0  0
  3  6  1  0  0  0  0
  7  8  1  0  0  0  0
  7 13  1  0  0  0  0
  8  9  1  0  0  0  0
  8 11  1  0  0  0  0
  8 14  1  0  0  0  0
  9 10  2  0  0  0  0
  9 17  1  0  0  0  0
 11 12  1  0  0  0  0
 11 15  1  0  0  0  0
 11 16  1  0  0  0  0
 12 44  1  0  0  0  0
 17 18  1  0  0  0  0
 17 19  1  0  0  0  0
 18 20  1  0  0  0  0
 18 21  1  0  0  0  0
 18 22  1  0  0  0  0
 23 24  2  0  0  0  0
 23 25  1  0  0  0  0
 23 29  1  0  0  0  0
 25 26  1  0  0  0  0
 25 27  1  0  0  0  0
 25 28  1  0  0  0  0
 29 30  1  0  0  0  0
 29 34  1  0  0  0  0
 30 31  1  0  0  0  0
 30 33  1  0  0  0  0
 30 35  1  0  0  0  0
 31 32  2  0  0  0  0
 31 39  1  0  0  0  0
 33 36  1  0  0  0  0
 33 37  1  0  0  0  0
 33 38  1  0  0  0  0
 39 40  1  0  0  0  0
 39 45  1  0  0  0  0
 40 41  1  0  0  0  0
 40 43  1  0  0  0  0
 40 46  1  0  0  0  0
 41 42  2  0  0  0  0
 41 49  1  0  0  0  0
 43 44  1  0  0  0  0
 43 47  1  0  0  0  0
 43 48  1  0  0  0  0
 49 50  1  0  0  0  0
 49 54  1  0  0  0  0
 50 51  1  0  0  0  0
 50 53  1  0  0  0  0
 50 55  1  0  0  0  0
 51 52  2  0  0  0  0
 51 59  1  0  0  0  0
 53 56  1  0  0  0  0
 53 57  1  0  0  0  0
 53 58  1  0  0  0  0
 59 60  1  0  0  0  0
 59 61  1  0  0  0  0
 60 62  1  0  0  0  0
 60 63  1  0  0  0  0
 60 64  1  0  0  0  0
M  END
$$$$

  -OEChem-05262216053D

 64 63  0     1  0  0  0  0  0999 V2000
    1.9143   -5.5742   -7.3827 C   0  0  0  0  0  0  0  0  0  0  0  0
    0.9807   -5.0351   -7.9566 O   0  0  0  0  0  0  0  0  0  0  0  0
    2.1411   -7.0668   -7.5306 C   0  0  0  0  0  0  0  0  0  0  0  0
    2.1611   -7.5420   -6.5467 H   0  0  0  0  0  0  0  0  0  0  0  0
    1.3352   -7.5128   -8.1202 H   0  0  0  0  0  0  0  0  0  0  0  0
    3.0922   -7.2509   -8.0360 H   0  0  0  0  0  0  0  0  0  0  0  0
    2.7707   -4.8213   -6.6097 N   0  0  0  0  0  0  0  0  0  0  0  0
    2.7097   -3.3577   -6.4843 C   0  0  2  0  0  0  0  0  0  0  0  0
    4.0819   -2.7580   -6.0950 C   0  0  0  0  0  0  0  0  0  0  0  0
    5.0643   -3.4911   -6.0239 O   0  0  0  0  0  0  0  0  0  0  0  0
    1.6141   -2.9820   -5.4768 C   0  0  0  0  0  0  0  0  0  0  0  0
    2.0573   -3.4989   -3.7655 S   0  0  0  0  0  0  0  0  0  0  0  0
    3.6033   -5.2795   -6.2413 H   0  0  0  0  0  0  0  0  0  0  0  0
    2.4474   -2.9294   -7.4573 H   0  0  0  0  0  0  0  0  0  0  0  0
    1.4654   -1.9001   -5.5081 H   0  0  0  0  0  0  0  0  0  0  0  0
    0.6673   -3.4511   -5.7631 H   0  0  0  0  0  0  0  0  0  0  0  0
    4.2534   -1.4001   -5.8827 N   0  0  0  0  0  0  0  0  0  0  0  0
    5.5396   -0.8031   -5.5483 C   0  0  0  0  0  0  0  0  0  0  0  0
    3.4244   -0.8023   -5.8456 H   0  0  0  0  0  0  0  0  0  0  0  0
    5.8934   -1.1707   -4.5797 H   0  0  0  0  0  0  0  0  0  0  0  0
    6.2859   -1.0442   -6.3127 H   0  0  0  0  0  0  0  0  0  0  0  0
    5.4442    0.2854   -5.4941 H   0  0  0  0  0  0  0  0  0  0  0  0
   -5.5483    1.9880   -1.6241 C   0  0  0  0  0  0  0  0  0  0  0  0
   -6.0688    1.3645   -2.5358 O   0  0  0  0  0  0  0  0  0  0  0  0
   -6.4102    2.6861   -0.5896 C   0  0  0  0  0  0  0  0  0  0  0  0
   -6.1961    3.7574   -0.5882 H   0  0  0  0  0  0  0  0  0  0  0  0
   -7.4690    2.5379   -0.8193 H   0  0  0  0  0  0  0  0  0  0  0  0
   -6.2042    2.2787    0.4029 H   0  0  0  0  0  0  0  0  0  0  0  0
   -4.1751    2.0508   -1.5267 N   0  0  0  0  0  0  0  0  0  0  0  0
   -3.2493    1.2803   -2.3659 C   0  0  2  0  0  0  0  0  0  0  0  0
   -1.9487    0.9404   -1.6099 C   0  0  0  0  0  0  0  0  0  0  0  0
   -1.7330    1.4063   -0.4950 O   0  0  0  0  0  0  0  0  0  0  0  0
   -2.9332    2.0974   -3.6226 C   0  0  0  0  0  0  0  0  0  0  0  0
   -3.7821    2.4692   -0.6836 H   0  0  0  0  0  0  0  0  0  0  0  0
   -3.7164    0.3329   -2.6559 H   0  0  0  0  0  0  0  0  0  0  0  0
   -2.4439    3.0388   -3.3521 H   0  0  0  0  0  0  0  0  0  0  0  0
   -2.2680    1.5396   -4.2880 H   0  0  0  0  0  0  0  0  0  0  0  0
   -3.8539    2.3257   -4.1682 H   0  0  0  0  0  0  0  0  0  0  0  0
   -1.0566    0.0156   -2.1225 N   0  0  0  0  0  0  0  0  0  0  0  0
    0.3932    0.0589   -1.8452 C   0  0  2  0  0  0  0  0  0  0  0  0
    1.0841    1.4597   -1.9644 C   0  0  0  0  0  0  0  0  0  0  0  0
    0.4370    2.4712   -2.2132 O   0  0  0  0  0  0  0  0  0  0  0  0
    1.0148   -0.8924   -2.8827 C   0  0  0  0  0  0  0  0  0  0  0  0
    0.5048   -2.6391   -2.6633 S   0  0  0  0  0  0  0  0  0  0  0  0
   -1.3297   -0.3851   -3.0144 H   0  0  0  0  0  0  0  0  0  0  0  0
    0.5791   -0.3165   -0.8339 H   0  0  0  0  0  0  0  0  0  0  0  0
    0.7480   -0.5518   -3.8874 H   0  0  0  0  0  0  0  0  0  0  0  0
    2.1046   -0.8828   -2.8063 H   0  0  0  0  0  0  0  0  0  0  0  0
    2.4218    1.5222   -2.3344 N   0  0  0  0  0  0  0  0  0  0  0  0
    2.9344    2.5105   -3.2941 C   0  0  2  0  0  0  0  0  0  0  0  0
    2.6059    2.1118   -4.7514 C   0  0  0  0  0  0  0  0  0  0  0  0
    2.6154    0.9294   -5.0918 O   0  0  0  0  0  0  0  0  0  0  0  0
    4.4481    2.6067   -3.0975 C   0  0  0  0  0  0  0  0  0  0  0  0
    2.9137    0.6340   -2.3111 H   0  0  0  0  0  0  0  0  0  0  0  0
    2.5001    3.4959   -3.0928 H   0  0  0  0  0  0  0  0  0  0  0  0
    4.9245    1.6411   -3.2953 H   0  0  0  0  0  0  0  0  0  0  0  0
    4.8746    3.3509   -3.7773 H   0  0  0  0  0  0  0  0  0  0  0  0
    4.6779    2.9052   -2.0698 H   0  0  0  0  0  0  0  0  0  0  0  0
    2.3303    3.0830   -5.6943 N   0  0  0  0  0  0  0  0  0  0  0  0
    1.9539    2.7814   -7.0702 C   0  0  0  0  0  0  0  0  0  0  0  0
    2.2235    4.0369   -5.3588 H   0  0  0  0  0  0  0  0  0  0  0  0
    2.7166    2.1598   -7.5510 H   0  0  0  0  0  0  0  0  0  0  0  0
    0.9967    2.2504   -7.0979 H   0  0  0  0  0  0  0  0  0  0  0  0
    1.8546    3.7070   -7.6457 H   0  0  0  0  0  0  0  0  0  0  0  0
  1  2  2  0  0  0  0
  1  3  1  0  0  0  0
  1  7  1  0  0  0  0
  3  4  1  0  0  0  0
  3  5  1  0  0  0  0
  3  6  1  0  0  0  0
  7  8  1  0  0  0  0
  7 13  1  0  0  0  0
  8  9  1  0  0  0  0
  8 11  1  0  0  0  0
  8 14  1  0  0  0  0
  9 10  2  0  0  0  0
  9 17  1  0  0  0  0
 11 12  1  0  0  0  0
 11 15  1  0  0  0  0
 11 16  1  0  0  0  0
 12 44  1  0  0  0  0
 17 18  1  0  0  0  0
 17 19  1  0  0  0  0
 18 20  1  0  0  0  0
 18 21  1  0  0  0  0
 18 22  1  0  0  0  0
 23 24  2  0  0  0  0
 23 25  1  0  0  0  0
 23 29  1  0  0  0  0
 25 26  1  0  0  0  0
 25 27  1  0  0  0  0
 25 28  1  0  0  0  0
 29 30  1  0  0  0  0
 29 34  1  0  0  0  0
 30 31  1  0  0  0  0
 30 33  1  0  0  0  0
 30 35  1  0  0  0  0
 31 32  2  0  0  0  0
 31 39  1  0  0  0  0
 33 36  1  0  0  0  0
 33 37  1  0  0  0  0
 33 38  1  0  0  0  0
 39 40  1  0  0  0  0
 39 45  1  0  0  0  0
 40 41  1  0  0  0  0
 40 43  1  0  0  0  0
 40 46  1  0  0  0  0
 41 42  2  0  0  0  0
 41 49  1  0  0  0  0
 43 44  1  0  0  0  0
 43 47  1  0  0  0  0
 43 48  1  0  0  0  0
 49 50  1  0  0  0  0
 49 54  1  0  0  0  0
 50 51  1  0  0  0  0
 50 53  1  0  0  0  0
 50 55  1  0  0  0  0
 51 52  2  0  0  0  0
 51 59  1  0  0  0  0
 53 56  1  0  0  0  0
 53 57  1  0  0  0  0
 53 58  1  0  0  0  0
 59 60  1  0  0  0  0
 59 61  1  0  0  0  0
 60 62  1  0  0  0  0
 60 63  1  0  0  0  0
 60 64  1  0  0  0  0
M  END
$$$$

  -OEChem-05262216053D

 64 63  0     1  0  0  0  0  0999 V2000
    1.4956   -6.4244   -6.7815 C   0  0  0  0  0  0  0  0  0  0  0  0
    0.3486   -6.2446   -7.1607 O   0  0  0  0  0  0  0  0  0  0  0  0
    2.0231   -7.8328   -6.5844 C   0  0  0  0  0  0  0  0  0  0  0  0
    2.3811   -7.9562   -5.5593 H   0  0  0  0  0  0  0  0  0  0  0  0
    1.2290   -8.5619   -6.7690 H   0  0  0  0  0  0  0  0  0  0  0  0
    2.8461   -8.0235   -7.2777 H   0  0  0  0  0  0  0  0  0  0  0  0
    2.3105   -5.3410   -6.5356 N   0  0  0  0  0  0  0  0  0  0  0  0
    1.9127   -3.9397   -6.7295 C   0  0  2  0  0  0  0  0  0  0  0  0
    3.1294   -3.0132   -6.9488 C   0  0  0  0  0  0  0  0  0  0  0  0
    4.2687   -3.4629   -6.8811 O   0  0  0  0  0  0  0  0  0  0  0  0
    1.0845   -3.4766   -5.5204 C   0  0  0  0  0  0  0  0  0  0  0  0
    2.0915   -3.4683   -3.9806 S   0  0  0  0  0  0  0  0  0  0  0  0
    3.2851   -5.5185   -6.2945 H   0  0  0  0  0  0  0  0  0  0  0  0
    1.2942   -3.8682   -7.6304 H   0  0  0  0  0  0  0  0  0  0  0  0
    0.6973   -2.4716   -5.7063 H   0  0  0  0  0  0  0  0  0  0  0  0
    0.2245   -4.1405   -5.3855 H   0  0  0  0  0  0  0  0  0  0  0  0
    2.9473   -1.6724   -7.2398 N   0  0  0  0  0  0  0  0  0  0  0  0
    4.0482   -0.7235   -7.3603 C   0  0  0  0  0  0  0  0  0  0  0  0
    1.9969   -1.3164   -7.2621 H   0  0  0  0  0  0  0  0  0  0  0  0
    4.5515   -0.5973   -6.3958 H   0  0  0  0  0  0  0  0  0  0  0  0
    4.7792   -1.0716   -8.0976 H   0  0  0  0  0  0  0  0  0  0  0  0
    3.6720    0.2517   -7.6847 H   0  0  0  0  0  0  0  0  0  0  0  0
   -5.5861    1.3188   -1.5543 C   0  0  0  0  0  0  0  0  0  0  0  0
   -6.0277    0.6862   -2.5011 O   0  0  0  0  0  0  0  0  0  0  0  0
   -6.5067    1.7382   -0.4237 C   0  0  0  0  0  0  0  0  0  0  0  0
   -6.4913    2.8251   -0.3127 H   0  0  0  0  0  0  0  0  0  0  0  0
   -7.5315    1.4203   -0.6349 H   0  0  0  0  0  0  0  0  0  0  0  0
   -6.1805    1.2783    0.5124 H   0  0  0  0  0  0  0  0  0  0  0  0
   -4.2463    1.6384   -1.5046 N   0  0  0  0  0  0  0  0  0  0  0  0
   -3.2397    1.1168   -2.4375 C   0  0  2  0  0  0  0  0  0  0  0  0
   -1.8743    0.9157   -1.7490 C   0  0  0  0  0  0  0  0  0  0  0  0
   -1.6821    1.3533   -0.6205 O   0  0  0  0  0  0  0  0  0  0  0  0
   -3.1024    2.0954   -3.6070 C   0  0  0  0  0  0  0  0  0  0  0  0
   -3.8931    2.0444   -0.6379 H   0  0  0  0  0  0  0  0  0  0  0  0
   -3.5604    0.1409   -2.8177 H   0  0  0  0  0  0  0  0  0  0  0  0
   -2.7560    3.0712   -3.2508 H   0  0  0  0  0  0  0  0  0  0  0  0
   -2.3840    1.7188   -4.3410 H   0  0  0  0  0  0  0  0  0  0  0  0
   -4.0683    2.2283   -4.1043 H   0  0  0  0  0  0  0  0  0  0  0  0
   -0.9247    0.0808   -2.3106 N   0  0  0  0  0  0  0  0  0  0  0  0
    0.5344    0.2383   -2.1310 C   0  0  2  0  0  0  0  0  0  0  0  0
    1.1176    1.6820   -2.2884 C   0  0  0  0  0  0  0  0  0  0  0  0
    0.5058    2.6896   -1.9658 O   0  0  0  0  0  0  0  0  0  0  0  0
    1.1940   -0.7477   -3.1137 C   0  0  0  0  0  0  0  0  0  0  0  0
    0.8020   -2.4853   -2.6678 S   0  0  0  0  0  0  0  0  0  0  0  0
   -1.2221   -0.3719   -3.1690 H   0  0  0  0  0  0  0  0  0  0  0  0
    0.7848   -0.0702   -1.1103 H   0  0  0  0  0  0  0  0  0  0  0  0
    0.8743   -0.5356   -4.1385 H   0  0  0  0  0  0  0  0  0  0  0  0
    2.2830   -0.6519   -3.0723 H   0  0  0  0  0  0  0  0  0  0  0  0
    2.2738    1.8896   -3.0252 N   0  0  0  0  0  0  0  0  0  0  0  0
    2.7256    3.1834   -3.5577 C   0  0  2  0  0  0  0  0  0  0  0  0
    3.3144    3.0142   -4.9749 C   0  0  0  0  0  0  0  0  0  0  0  0
    3.4134    1.8936   -5.4675 O   0  0  0  0  0  0  0  0  0  0  0  0
    3.7633    3.7622   -2.5916 C   0  0  0  0  0  0  0  0  0  0  0  0
    2.6918    1.0700   -3.4615 H   0  0  0  0  0  0  0  0  0  0  0  0
    1.8845    3.8801   -3.6389 H   0  0  0  0  0  0  0  0  0  0  0  0
    4.6284    3.0961   -2.5126 H   0  0  0  0  0  0  0  0  0  0  0  0
    4.1073    4.7422   -2.9352 H   0  0  0  0  0  0  0  0  0  0  0  0
    3.3239    3.8829   -1.5961 H   0  0  0  0  0  0  0  0  0  0  0  0
    3.7162    4.1133   -5.7110 N   0  0  0  0  0  0  0  0  0  0  0  0
    4.3243    4.0138   -7.0327 C   0  0  0  0  0  0  0  0  0  0  0  0
    3.6368    5.0278   -5.2743 H   0  0  0  0  0  0  0  0  0  0  0  0
    5.2966    3.5138   -6.9688 H   0  0  0  0  0  0  0  0  0  0  0  0
    3.6792    3.4454   -7.7112 H   0  0  0  0  0  0  0  0  0  0  0  0
    4.4742    5.0115   -7.4570 H   0  0  0  0  0  0  0  0  0  0  0  0
  1  2  2  0  0  0  0
  1  3  1  0  0  0  0
  1  7  1  0  0  0  0
  3  4  1  0  0  0  0
  3  5  1  0  0  0  0
  3  6  1  0  0  0  0
  7  8  1  0  0  0  0
  7 13  1  0  0  0  0
  8  9  1  0  0  0  0
  8 11  1  0  0  0  0
  8 14  1  0  0  0  0
  9 10  2  0  0  0  0
  9 17  1  0  0  0  0
 11 12  1  0  0  0  0
 11 15  1  0  0  0  0
 11 16  1  0  0  0  0
 12 44  1  0  0  0  0
 17 18  1  0  0  0  0
 17 19  1  0  0  0  0
 18 20  1  0  0  0  0
 18 21  1  0  0  0  0
 18 22  1  0  0  0  0
 23 24  2  0  0  0  0
 23 25  1  0  0  0  0
 23 29  1  0  0  0  0
 25 26  1  0  0  0  0
 25 27  1  0  0  0  0
 25 28  1  0  0  0  0
 29 30  1  0  0  0  0
 29 34  1  0  0  0  0
 30 31  1  0  0  0  0
 30 33  1  0  0  0  0
 30 35  1  0  0  0  0
 31 32  2  0  0  0  0
 31 39  1  0  0  0  0
 33 36  1  0  0  0  0
 33 37  1  0  0  0  0
 33 38  1  0  0  0  0
 39 40  1  0  0  0  0
 39 45  1  0  0  0  0
 40 41  1  0  0  0  0
 40 43  1  0  0  0  0
 40 46  1  0  0  0  0
 41 42  2  0  0  0  0
 41 49  1  0  0  0  0
 43 44  1  0  0  0  0
 43 47  1  0  0  0  0
 43 48  1  0  0  0  0
 49 50  1  0  0  0  0
 49 54  1  0  0  0  0
 50 51  1  0  0  0  0
 50 53  1  0  0  0  0
 50 55  1  0  0  0  0
 51 52  2  0  0  0  0
 51 59  1  0  0  0  0
 53 56  1  0  0  0  0
 53 57  1  0  0  0  0
 53 58  1  0  0  0  0
 59 60  1  0  0  0  0
 59 61  1  0  0  0  0
 60 62  1  0  0  0  0
 60 63  1  0  0  0  0
 60 64  1  0  0  0  0
M  END
$$$$

  -OEChem-05262216053D

 64 63  0     1  0  0  0  0  0999 V2000
    1.4499   -6.3796   -6.7093 C   0  0  0  0  0  0  0  0  0  0  0  0
    0.2903   -6.2355   -7.0646 O   0  0  0  0  0  0  0  0  0  0  0  0
    2.0238   -7.7699   -6.5131 C   0  0  0  0  0  0  0  0  0  0  0  0
    2.3919   -7.8796   -5.4902 H   0  0  0  0  0  0  0  0  0  0  0  0
    1.2531   -8.5246   -6.6929 H   0  0  0  0  0  0  0  0  0  0  0  0
    2.8488   -7.9346   -7.2103 H   0  0  0  0  0  0  0  0  0  0  0  0
    2.2385   -5.2709   -6.4923 N   0  0  0  0  0  0  0  0  0  0  0  0
    1.7965   -3.8818   -6.6794 C   0  0  2  0  0  0  0  0  0  0  0  0
    2.9837   -2.9200   -6.9090 C   0  0  0  0  0  0  0  0  0  0  0  0
    4.1363   -3.3266   -6.8045 O   0  0  0  0  0  0  0  0  0  0  0  0
    0.9707   -3.4438   -5.4594 C   0  0  0  0  0  0  0  0  0  0  0  0
    1.9895   -3.4536   -3.9264 S   0  0  0  0  0  0  0  0  0  0  0  0
    3.2178   -5.4182   -6.2498 H   0  0  0  0  0  0  0  0  0  0  0  0
    1.1656   -3.8280   -7.5729 H   0  0  0  0  0  0  0  0  0  0  0  0
    0.5756   -2.4392   -5.6293 H   0  0  0  0  0  0  0  0  0  0  0  0
    0.1158   -4.1156   -5.3293 H   0  0  0  0  0  0  0  0  0  0  0  0
    2.7632   -1.5977   -7.2537 N   0  0  0  0  0  0  0  0  0  0  0  0
    3.8361   -0.6300   -7.4550 C   0  0  0  0  0  0  0  0  0  0  0  0
    1.8028   -1.2831   -7.3508 H   0  0  0  0  0  0  0  0  0  0  0  0
    4.3394   -0.4131   -6.5070 H   0  0  0  0  0  0  0  0  0  0  0  0
    4.5745   -1.0135   -8.1672 H   0  0  0  0  0  0  0  0  0  0  0  0
    3.4316    0.3054   -7.8541 H   0  0  0  0  0  0  0  0  0  0  0  0
   -5.5939    1.1308   -1.4509 C   0  0  0  0  0  0  0  0  0  0  0  0
   -6.0235    0.2462   -2.1750 O   0  0  0  0  0  0  0  0  0  0  0  0
   -6.4705    1.7146   -0.3595 C   0  0  0  0  0  0  0  0  0  0  0  0
   -6.5729    2.7930   -0.5005 H   0  0  0  0  0  0  0  0  0  0  0  0
   -7.4643    1.2592   -0.3899 H   0  0  0  0  0  0  0  0  0  0  0  0
   -6.0240    1.5222    0.6192 H   0  0  0  0  0  0  0  0  0  0  0  0
   -4.3030    1.5860   -1.6143 N   0  0  0  0  0  0  0  0  0  0  0  0
   -3.3145    0.9587   -2.5007 C   0  0  2  0  0  0  0  0  0  0  0  0
   -1.8811    1.0868   -1.9428 C   0  0  0  0  0  0  0  0  0  0  0  0
   -1.6657    1.8525   -1.0162 O   0  0  0  0  0  0  0  0  0  0  0  0
   -3.4127    1.6177   -3.8799 C   0  0  0  0  0  0  0  0  0  0  0  0
   -3.9382    2.2282   -0.9102 H   0  0  0  0  0  0  0  0  0  0  0  0
   -3.5333   -0.1104   -2.5945 H   0  0  0  0  0  0  0  0  0  0  0  0
   -3.1863    2.6868   -3.8104 H   0  0  0  0  0  0  0  0  0  0  0  0
   -2.7081    1.1563   -4.5782 H   0  0  0  0  0  0  0  0  0  0  0  0
   -4.4238    1.5014   -4.2834 H   0  0  0  0  0  0  0  0  0  0  0  0
   -0.8917    0.2331   -2.3995 N   0  0  0  0  0  0  0  0  0  0  0  0
    0.5687    0.3507   -2.1992 C   0  0  2  0  0  0  0  0  0  0  0  0
    1.2028    1.7578   -2.4251 C   0  0  0  0  0  0  0  0  0  0  0  0
    0.9742    2.7144   -1.7025 O   0  0  0  0  0  0  0  0  0  0  0  0
    1.2141   -0.6966   -3.1228 C   0  0  0  0  0  0  0  0  0  0  0  0
    0.7602   -2.4003   -2.6128 S   0  0  0  0  0  0  0  0  0  0  0  0
   -1.2054   -0.4831   -3.0478 H   0  0  0  0  0  0  0  0  0  0  0  0
    0.7951    0.0883   -1.1604 H   0  0  0  0  0  0  0  0  0  0  0  0
    0.9186   -0.5229   -4.1619 H   0  0  0  0  0  0  0  0  0  0  0  0
    2.3055   -0.6211   -3.0622 H   0  0  0  0  0  0  0  0  0  0  0  0
    2.1797    1.9367   -3.3916 N   0  0  0  0  0  0  0  0  0  0  0  0
    2.7224    3.2351   -3.8074 C   0  0  2  0  0  0  0  0  0  0  0  0
    2.9401    3.2699   -5.3353 C   0  0  0  0  0  0  0  0  0  0  0  0
    2.8122    2.2432   -5.9984 O   0  0  0  0  0  0  0  0  0  0  0  0
    4.0364    3.4626   -3.0560 C   0  0  0  0  0  0  0  0  0  0  0  0
    2.3124    1.1760   -4.0550 H   0  0  0  0  0  0  0  0  0  0  0  0
    2.0195    4.0379   -3.5586 H   0  0  0  0  0  0  0  0  0  0  0  0
    4.7595    2.6786   -3.3025 H   0  0  0  0  0  0  0  0  0  0  0  0
    4.4684    4.4326   -3.3186 H   0  0  0  0  0  0  0  0  0  0  0  0
    3.8597    3.4460   -1.9756 H   0  0  0  0  0  0  0  0  0  0  0  0
    3.2551    4.4548   -5.9737 N   0  0  0  0  0  0  0  0  0  0  0  0
    3.4662    4.5623   -7.4124 C   0  0  0  0  0  0  0  0  0  0  0  0
    3.3429    5.2896   -5.4005 H   0  0  0  0  0  0  0  0  0  0  0  0
    4.3213    3.9516   -7.7210 H   0  0  0  0  0  0  0  0  0  0  0  0
    2.5778    4.2267   -7.9578 H   0  0  0  0  0  0  0  0  0  0  0  0
    3.6666    5.6025   -7.6877 H   0  0  0  0  0  0  0  0  0  0  0  0
  1  2  2  0  0  0  0
  1  3  1  0  0  0  0
  1  7  1  0  0  0  0
  3  4  1  0  0  0  0
  3  5  1  0  0  0  0
  3  6  1  0  0  0  0
  7  8  1  0  0  0  0
  7 13  1  0  0  0  0
  8  9  1  0  0  0  0
  8 11  1  0  0  0  0
  8 14  1  0  0  0  0
  9 10  2  0  0  0  0
  9 17  1  0  0  0  0
 11 12  1  0  0  0  0
 11 15  1  0  0  0  0
 11 16  1  0  0  0  0
 12 44  1  0  0  0  0
 17 18  1  0  0  0  0
 17 19  1  0  0  0  0
 18 20  1  0  0  0  0
 18 21  1  0  0  0  0
 18 22  1  0  0  0  0
 23 24  2  0  0  0  0
 23 25  1  0  0  0  0
 23 29  1  0  0  0  0
 25 26  1  0  0  0  0
 25 27  1  0  0  0  0
 25 28  1  0  0  0  0
 29 30  1  0  0  0  0
 29 34  1  0  0  0  0
 30 31  1  0  0  0  0
 30 33  1  0  0  0  0
 30 35  1  0  0  0  0
 31 32  2  0  0  0  0
 31 39  1  0  0  0  0
 33 36  1  0  0  0  0
 33 37  1  0  0  0  0
 33 38  1  0  0  0  0
 39 40  1  0  0  0  0
 39 45  1  0  0  0  0
 40 41  1  0  0  0  0
 40 43  1  0  0  0  0
 40 46  1  0  0  0  0
 41 42  2  0  0  0  0
 41 49  1  0  0  0  0
 43 44  1  0  0  0  0
 43 47  1  0  0  0  0
 43 48  1  0  0  0  0
 49 50  1  0  0  0  0
 49 54  1  0  0  0  0
 50 51  1  0  0  0  0
 50 53  1  0  0  0  0
 50 55  1  0  0  0  0
 51 52  2  0  0  0  0
 51 59  1  0  0  0  0
 53 56  1  0  0  0  0
 53 57  1  0  0  0  0
 53 58  1  0  0  0  0
 59 60  1  0  0  0  0
 59 61  1  0  0  0  0
 60 62  1  0  0  0  0
 60 63  1  0  0  0  0
 60 64  1  0  0  0  0
M  END
$$$$

  -OEChem-05262216053D

 64 63  0     1  0  0  0  0  0999 V2000
    1.4755   -6.3024   -6.7605 C   0  0  0  0  0  0  0  0  0  0  0  0
    0.3055   -6.1958   -7.0941 O   0  0  0  0  0  0  0  0  0  0  0  0
    2.1096   -7.6731   -6.6247 C   0  0  0  0  0  0  0  0  0  0  0  0
    2.5158   -7.7969   -5.6180 H   0  0  0  0  0  0  0  0  0  0  0  0
    1.3633   -8.4525   -6.8019 H   0  0  0  0  0  0  0  0  0  0  0  0
    2.9163   -7.7854   -7.3529 H   0  0  0  0  0  0  0  0  0  0  0  0
    2.2181   -5.1685   -6.5126 N   0  0  0  0  0  0  0  0  0  0  0  0
    1.7055   -3.7969   -6.6358 C   0  0  2  0  0  0  0  0  0  0  0  0
    2.8339   -2.7653   -6.8548 C   0  0  0  0  0  0  0  0  0  0  0  0
    4.0091   -3.1019   -6.7568 O   0  0  0  0  0  0  0  0  0  0  0  0
    0.8896   -3.4475   -5.3816 C   0  0  0  0  0  0  0  0  0  0  0  0
    1.9452   -3.4625   -3.8734 S   0  0  0  0  0  0  0  0  0  0  0  0
    3.2047   -5.2796   -6.2808 H   0  0  0  0  0  0  0  0  0  0  0  0
    1.0509   -3.7406   -7.5117 H   0  0  0  0  0  0  0  0  0  0  0  0
    0.4404   -2.4590   -5.5054 H   0  0  0  0  0  0  0  0  0  0  0  0
    0.0725   -4.1654   -5.2561 H   0  0  0  0  0  0  0  0  0  0  0  0
    2.5301   -1.4553   -7.1832 N   0  0  0  0  0  0  0  0  0  0  0  0
    3.5393   -0.4265   -7.4074 C   0  0  0  0  0  0  0  0  0  0  0  0
    1.5527   -1.2104   -7.3098 H   0  0  0  0  0  0  0  0  0  0  0  0
    4.0531   -0.1841   -6.4714 H   0  0  0  0  0  0  0  0  0  0  0  0
    4.2795   -0.7630   -8.1410 H   0  0  0  0  0  0  0  0  0  0  0  0
    3.0702    0.4843   -7.7917 H   0  0  0  0  0  0  0  0  0  0  0  0
   -5.5285    1.1122   -1.2202 C   0  0  0  0  0  0  0  0  0  0  0  0
   -5.9329   -0.0046   -1.5032 O   0  0  0  0  0  0  0  0  0  0  0  0
   -6.3355    2.0026   -0.2941 C   0  0  0  0  0  0  0  0  0  0  0  0
   -6.5772    2.9419   -0.7968 H   0  0  0  0  0  0  0  0  0  0  0  0
   -7.2675    1.5054   -0.0107 H   0  0  0  0  0  0  0  0  0  0  0  0
   -5.7609    2.2182    0.6100 H   0  0  0  0  0  0  0  0  0  0  0  0
   -4.3308    1.5599   -1.7360 N   0  0  0  0  0  0  0  0  0  0  0  0
   -3.3971    0.7250   -2.5028 C   0  0  2  0  0  0  0  0  0  0  0  0
   -1.9303    1.1347   -2.2517 C   0  0  0  0  0  0  0  0  0  0  0  0
   -1.6906    2.2214   -1.7496 O   0  0  0  0  0  0  0  0  0  0  0  0
   -3.7456    0.8517   -3.9888 C   0  0  0  0  0  0  0  0  0  0  0  0
   -3.9643    2.4420   -1.3771 H   0  0  0  0  0  0  0  0  0  0  0  0
   -3.5013   -0.3212   -2.1955 H   0  0  0  0  0  0  0  0  0  0  0  0
   -3.6422    1.8908   -4.3177 H   0  0  0  0  0  0  0  0  0  0  0  0
   -3.0841    0.2257   -4.5952 H   0  0  0  0  0  0  0  0  0  0  0  0
   -4.7781    0.5323   -4.1639 H   0  0  0  0  0  0  0  0  0  0  0  0
   -0.9111    0.2591   -2.5856 N   0  0  0  0  0  0  0  0  0  0  0  0
    0.5306    0.3976   -2.2904 C   0  0  2  0  0  0  0  0  0  0  0  0
    1.1663    1.7918   -2.5522 C   0  0  0  0  0  0  0  0  0  0  0  0
    1.2360    2.6227   -1.6575 O   0  0  0  0  0  0  0  0  0  0  0  0
    1.2446   -0.6811   -3.1169 C   0  0  0  0  0  0  0  0  0  0  0  0
    0.7623   -2.3617   -2.5580 S   0  0  0  0  0  0  0  0  0  0  0  0
   -1.2195   -0.6634   -2.8821 H   0  0  0  0  0  0  0  0  0  0  0  0
    0.6906    0.1887   -1.2269 H   0  0  0  0  0  0  0  0  0  0  0  0
    1.0134   -0.5600   -4.1791 H   0  0  0  0  0  0  0  0  0  0  0  0
    2.3288   -0.5832   -2.9931 H   0  0  0  0  0  0  0  0  0  0  0  0
    1.9744    1.9974   -3.6589 N   0  0  0  0  0  0  0  0  0  0  0  0
    2.5738    3.2870   -4.0208 C   0  0  2  0  0  0  0  0  0  0  0  0
    2.5176    3.5036   -5.5474 C   0  0  0  0  0  0  0  0  0  0  0  0
    2.2651    2.5596   -6.2921 O   0  0  0  0  0  0  0  0  0  0  0  0
    4.0210    3.3043   -3.5209 C   0  0  0  0  0  0  0  0  0  0  0  0
    1.8697    1.3352   -4.4253 H   0  0  0  0  0  0  0  0  0  0  0  0
    2.0183    4.1063   -3.5511 H   0  0  0  0  0  0  0  0  0  0  0  0
    4.5997    2.5024   -3.9910 H   0  0  0  0  0  0  0  0  0  0  0  0
    4.4972    4.2614   -3.7541 H   0  0  0  0  0  0  0  0  0  0  0  0
    4.0467    3.1624   -2.4356 H   0  0  0  0  0  0  0  0  0  0  0  0
    2.7330    4.7573   -6.0883 N   0  0  0  0  0  0  0  0  0  0  0  0
    2.6604    5.0379   -7.5171 C   0  0  0  0  0  0  0  0  0  0  0  0
    2.8928    5.5267   -5.4436 H   0  0  0  0  0  0  0  0  0  0  0  0
    3.3786    4.4206   -8.0670 H   0  0  0  0  0  0  0  0  0  0  0  0
    1.6545    4.8320   -7.8976 H   0  0  0  0  0  0  0  0  0  0  0  0
    2.8941    6.0899   -7.7079 H   0  0  0  0  0  0  0  0  0  0  0  0
  1  2  2  0  0  0  0
  1  3  1  0  0  0  0
  1  7  1  0  0  0  0
  3  4  1  0  0  0  0
  3  5  1  0  0  0  0
  3  6  1  0  0  0  0
  7  8  1  0  0  0  0
  7 13  1  0  0  0  0
  8  9  1  0  0  0  0
  8 11  1  0  0  0  0
  8 14  1  0  0  0  0
  9 10  2  0  0  0  0
  9 17  1  0  0  0  0
 11 12  1  0  0  0  0
 11 15  1  0  0  0  0
 11 16  1  0  0  0  0
 12 44  1  0  0  0  0
 17 18  1  0  0  0  0
 17 19  1  0  0  0  0
 18 20  1  0  0  0  0
 18 21  1  0  0  0  0
 18 22  1  0  0  0  0
 23 24  2  0  0  0  0
 23 25  1  0  0  0  0
 23 29  1  0  0  0  0
 25 26  1  0  0  0  0
 25 27  1  0  0  0  0
 25 28  1  0  0  0  0
 29 30  1  0  0  0  0
 29 34  1  0  0  0  0
 30 31  1  0  0  0  0
 30 33  1  0  0  0  0
 30 35  1  0  0  0  0
 31 32  2  0  0  0  0
 31 39  1  0  0  0  0
 33 36  1  0  0  0  0
 33 37  1  0  0  0  0
 33 38  1  0  0  0  0
 39 40  1  0  0  0  0
 39 45  1  0  0  0  0
 40 41  1  0  0  0  0
 40 43  1  0  0  0  0
 40 46  1  0  0  0  0
 41 42  2  0  0  0  0
 41 49  1  0  0  0  0
 43 44  1  0  0  0  0
 43 47  1  0  0  0  0
 43 48  1  0  0  0  0
 49 50  1  0  0  0  0
 49 54  1  0  0  0  0
 50 51  1  0  0  0  0
 50 53  1  0  0  0  0
 50 55  1  0  0  0  0
 51 52  2  0  0  0  0
 51 59  1  0  0  0  0
 53 56  1  0  0  0  0
 53 57  1  0  0  0  0
 53 58  1  0  0  0  0
 59 60  1  0  0  0  0
 59 61  1  0  0  0  0
 60 62  1  0  0  0  0
 60 63  1  0  0  0  0
 60 64  1  0  0  0  0
M  END
$$$$

  -OEChem-05262216053D

 64 63  0     1  0  0  0  0  0999 V2000
    1.6221   -6.1940   -6.9043 C   0  0  0  0  0  0  0  0  0  0  0  0
    0.4400   -6.1986   -7.2111 O   0  0  0  0  0  0  0  0  0  0  0  0
    2.4073   -7.4908   -6.8633 C   0  0  0  0  0  0  0  0  0  0  0  0
    2.8266   -7.6403   -5.8654 H   0  0  0  0  0  0  0  0  0  0  0  0
    1.7533   -8.3346   -7.1004 H   0  0  0  0  0  0  0  0  0  0  0  0
    3.2205   -7.4584   -7.5923 H   0  0  0  0  0  0  0  0  0  0  0  0
    2.2387   -5.0032   -6.5893 N   0  0  0  0  0  0  0  0  0  0  0  0
    1.5755   -3.6927   -6.6063 C   0  0  2  0  0  0  0  0  0  0  0  0
    2.5746   -2.5359   -6.8263 C   0  0  0  0  0  0  0  0  0  0  0  0
    3.7818   -2.7409   -6.7594 O   0  0  0  0  0  0  0  0  0  0  0  0
    0.8055   -3.5001   -5.2911 C   0  0  0  0  0  0  0  0  0  0  0  0
    1.9428   -3.5173   -3.8427 S   0  0  0  0  0  0  0  0  0  0  0  0
    3.2360   -5.0187   -6.3787 H   0  0  0  0  0  0  0  0  0  0  0  0
    0.8667   -3.6634   -7.4403 H   0  0  0  0  0  0  0  0  0  0  0  0
    0.2653   -2.5504   -5.3224 H   0  0  0  0  0  0  0  0  0  0  0  0
    0.0629   -4.2964   -5.1753 H   0  0  0  0  0  0  0  0  0  0  0  0
    2.1205   -1.2623   -7.1241 N   0  0  0  0  0  0  0  0  0  0  0  0
    3.0065   -0.1325   -7.3838 C   0  0  0  0  0  0  0  0  0  0  0  0
    1.1207   -1.1302   -7.2466 H   0  0  0  0  0  0  0  0  0  0  0  0
    3.4223    0.2509   -6.4463 H   0  0  0  0  0  0  0  0  0  0  0  0
    3.8312   -0.4268   -8.0417 H   0  0  0  0  0  0  0  0  0  0  0  0
    2.4539    0.6733   -7.8760 H   0  0  0  0  0  0  0  0  0  0  0  0
   -5.5263    1.2564   -1.2287 C   0  0  0  0  0  0  0  0  0  0  0  0
   -5.9554    0.1186   -1.3394 O   0  0  0  0  0  0  0  0  0  0  0  0
   -6.3380    2.3097   -0.4993 C   0  0  0  0  0  0  0  0  0  0  0  0
   -6.5985    3.1208   -1.1839 H   0  0  0  0  0  0  0  0  0  0  0  0
   -7.2589    1.8698   -0.1067 H   0  0  0  0  0  0  0  0  0  0  0  0
   -5.7589    2.7160    0.3334 H   0  0  0  0  0  0  0  0  0  0  0  0
   -4.2991    1.5838   -1.7651 N   0  0  0  0  0  0  0  0  0  0  0  0
   -3.3711    0.6124   -2.3581 C   0  0  2  0  0  0  0  0  0  0  0  0
   -1.8998    1.0524   -2.1942 C   0  0  0  0  0  0  0  0  0  0  0  0
   -1.6474    2.1782   -1.7910 O   0  0  0  0  0  0  0  0  0  0  0  0
   -3.7262    0.4431   -3.8397 C   0  0  0  0  0  0  0  0  0  0  0  0
   -3.9157    2.5009   -1.5353 H   0  0  0  0  0  0  0  0  0  0  0  0
   -3.4788   -0.3517   -1.8491 H   0  0  0  0  0  0  0  0  0  0  0  0
   -3.6058    1.3918   -4.3721 H   0  0  0  0  0  0  0  0  0  0  0  0
   -3.0811   -0.3058   -4.3083 H   0  0  0  0  0  0  0  0  0  0  0  0
   -4.7653    0.1146   -3.9463 H   0  0  0  0  0  0  0  0  0  0  0  0
   -0.8822    0.1677   -2.5084 N   0  0  0  0  0  0  0  0  0  0  0  0
    0.5548    0.3287   -2.2072 C   0  0  2  0  0  0  0  0  0  0  0  0
    1.1609    1.7250   -2.5018 C   0  0  0  0  0  0  0  0  0  0  0  0
    1.4228    2.4878   -1.5813 O   0  0  0  0  0  0  0  0  0  0  0  0
    1.2946   -0.7407   -3.0222 C   0  0  0  0  0  0  0  0  0  0  0  0
    0.8365   -2.4257   -2.4542 S   0  0  0  0  0  0  0  0  0  0  0  0
   -1.1890   -0.7771   -2.7255 H   0  0  0  0  0  0  0  0  0  0  0  0
    0.7173    0.1393   -1.1402 H   0  0  0  0  0  0  0  0  0  0  0  0
    1.0623   -0.6348   -4.0859 H   0  0  0  0  0  0  0  0  0  0  0  0
    2.3766   -0.6147   -2.9011 H   0  0  0  0  0  0  0  0  0  0  0  0
    1.7009    2.0026   -3.7456 N   0  0  0  0  0  0  0  0  0  0  0  0
    2.2284    3.3128   -4.1407 C   0  0  2  0  0  0  0  0  0  0  0  0
    1.9486    3.5862   -5.6338 C   0  0  0  0  0  0  0  0  0  0  0  0
    1.5345    2.6827   -6.3557 O   0  0  0  0  0  0  0  0  0  0  0  0
    3.7325    3.3374   -3.8523 C   0  0  0  0  0  0  0  0  0  0  0  0
    1.4001    1.4022   -4.5112 H   0  0  0  0  0  0  0  0  0  0  0  0
    1.7342    4.1014   -3.5625 H   0  0  0  0  0  0  0  0  0  0  0  0
    4.2445    2.5532   -4.4191 H   0  0  0  0  0  0  0  0  0  0  0  0
    4.1624    4.3051   -4.1274 H   0  0  0  0  0  0  0  0  0  0  0  0
    3.9155    3.1720   -2.7856 H   0  0  0  0  0  0  0  0  0  0  0  0
    2.1512    4.8435   -6.1715 N   0  0  0  0  0  0  0  0  0  0  0  0
    1.8897    5.1723   -7.5679 C   0  0  0  0  0  0  0  0  0  0  0  0
    2.4639    5.5786   -5.5432 H   0  0  0  0  0  0  0  0  0  0  0  0
    2.4839    4.5346   -8.2309 H   0  0  0  0  0  0  0  0  0  0  0  0
    0.8291    5.0335   -7.8027 H   0  0  0  0  0  0  0  0  0  0  0  0
    2.1545    6.2154   -7.7666 H   0  0  0  0  0  0  0  0  0  0  0  0
  1  2  2  0  0  0  0
  1  3  1  0  0  0  0
  1  7  1  0  0  0  0
  3  4  1  0  0  0  0
  3  5  1  0  0  0  0
  3  6  1  0  0  0  0
  7  8  1  0  0  0  0
  7 13  1  0  0  0  0
  8  9  1  0  0  0  0
  8 11  1  0  0  0  0
  8 14  1  0  0  0  0
  9 10  2  0  0  0  0
  9 17  1  0  0  0  0
 11 12  1  0  0  0  0
 11 15  1  0  0  0  0
 11 16  1  0  0  0  0
 12 44  1  0  0  0  0
 17 18  1  0  0  0  0
 17 19  1  0  0  0  0
 18 20  1  0  0  0  0
 18 21  1  0  0  0  0
 18 22  1  0  0  0  0
 23 24  2  0  0  0  0
 23 25  1  0  0  0  0
 23 29  1  0  0  0  0
 25 26  1  0  0  0  0
 25 27  1  0  0  0  0
 25 28  1  0  0  0  0
 29 30  1  0  0  0  0
 29 34  1  0  0  0  0
 30 31  1  0  0  0  0
 30 33  1  0  0  0  0
 30 35  1  0  0  0  0
 31 32  2  0  0  0  0
 31 39  1  0  0  0  0
 33 36  1  0  0  0  0
 33 37  1  0  0  0  0
 33 38  1  0  0  0  0
 39 40  1  0  0  0  0
 39 45  1  0  0  0  0
 40 41  1  0  0  0  0
 40 43  1  0  0  0  0
 40 46  1  0  0  0  0
 41 42  2  0  0  0  0
 41 49  1  0  0  0  0
 43 44  1  0  0  0  0
 43 47  1  0  0  0  0
 43 48  1  0  0  0  0
 49 50  1  0  0  0  0
 49 54  1  0  0  0  0
 50 51  1  0  0  0  0
 50 53  1  0  0  0  0
 50 55  1  0  0  0  0
 51 52  2  0  0  0  0
 51 59  1  0  0  0  0
 53 56  1  0  0  0  0
 53 57  1  0  0  0  0
 53 58  1  0  0  0  0
 59 60  1  0  0  0  0
 59 61  1  0  0  0  0
 60 62  1  0  0  0  0
 60 63  1  0  0  0  0
 60 64  1  0  0  0  0
M  END
$$$$

  -OEChem-05262216053D

 64 63  0     1  0  0  0  0  0999 V2000
    1.3019   -6.4374   -6.5657 C   0  0  0  0  0  0  0  0  0  0  0  0
    0.1417   -6.2633   -6.9052 O   0  0  0  0  0  0  0  0  0  0  0  0
    1.8073   -7.8313   -6.2471 C   0  0  0  0  0  0  0  0  0  0  0  0
    2.2207   -7.8544   -5.2359 H   0  0  0  0  0  0  0  0  0  0  0  0
    0.9881   -8.5528   -6.3080 H   0  0  0  0  0  0  0  0  0  0  0  0
    2.5849   -8.1185   -6.9590 H   0  0  0  0  0  0  0  0  0  0  0  0
    2.1526   -5.3583   -6.4697 N   0  0  0  0  0  0  0  0  0  0  0  0
    1.7731   -3.9678   -6.7555 C   0  0  2  0  0  0  0  0  0  0  0  0
    2.9941   -3.0951   -7.1206 C   0  0  0  0  0  0  0  0  0  0  0  0
    4.1274   -3.5597   -7.0611 O   0  0  0  0  0  0  0  0  0  0  0  0
    1.0287   -3.3875   -5.5424 C   0  0  0  0  0  0  0  0  0  0  0  0
    2.1048   -3.3450   -4.0500 S   0  0  0  0  0  0  0  0  0  0  0  0
    3.1301   -5.5368   -6.2419 H   0  0  0  0  0  0  0  0  0  0  0  0
    1.1023   -3.9537   -7.6210 H   0  0  0  0  0  0  0  0  0  0  0  0
    0.6833   -2.3761   -5.7721 H   0  0  0  0  0  0  0  0  0  0  0  0
    0.1437   -3.9961   -5.3296 H   0  0  0  0  0  0  0  0  0  0  0  0
    2.8241   -1.7902   -7.5503 N   0  0  0  0  0  0  0  0  0  0  0  0
    3.9338   -0.9214   -7.9242 C   0  0  0  0  0  0  0  0  0  0  0  0
    1.8755   -1.4377   -7.6355 H   0  0  0  0  0  0  0  0  0  0  0  0
    4.6066   -0.7718   -7.0732 H   0  0  0  0  0  0  0  0  0  0  0  0
    4.5034   -1.3601   -8.7504 H   0  0  0  0  0  0  0  0  0  0  0  0
    3.5585    0.0558   -8.2435 H   0  0  0  0  0  0  0  0  0  0  0  0
   -5.4842    1.0084   -1.3057 C   0  0  0  0  0  0  0  0  0  0  0  0
   -5.8725   -0.0729   -1.7183 O   0  0  0  0  0  0  0  0  0  0  0  0
   -6.2957    1.7641   -0.2703 C   0  0  0  0  0  0  0  0  0  0  0  0
   -6.6050    2.7316   -0.6727 H   0  0  0  0  0  0  0  0  0  0  0  0
   -7.1885    1.1929   -0.0012 H   0  0  0  0  0  0  0  0  0  0  0  0
   -5.6971    1.9250    0.6297 H   0  0  0  0  0  0  0  0  0  0  0  0
   -4.2998    1.5379   -1.7725 N   0  0  0  0  0  0  0  0  0  0  0  0
   -3.3574    0.8186   -2.6394 C   0  0  2  0  0  0  0  0  0  0  0  0
   -1.8932    1.1437   -2.2798 C   0  0  0  0  0  0  0  0  0  0  0  0
   -1.6345    2.1791   -1.6824 O   0  0  0  0  0  0  0  0  0  0  0  0
   -3.6478    1.2076   -4.0915 C   0  0  0  0  0  0  0  0  0  0  0  0
   -3.9510    2.3807   -1.3164 H   0  0  0  0  0  0  0  0  0  0  0  0
   -3.4923   -0.2618   -2.5205 H   0  0  0  0  0  0  0  0  0  0  0  0
   -3.5018    2.2832   -4.2359 H   0  0  0  0  0  0  0  0  0  0  0  0
   -2.9821    0.6711   -4.7743 H   0  0  0  0  0  0  0  0  0  0  0  0
   -4.6818    0.9584   -4.3502 H   0  0  0  0  0  0  0  0  0  0  0  0
   -0.8804    0.2725   -2.6444 N   0  0  0  0  0  0  0  0  0  0  0  0
    0.5492    0.4066   -2.3008 C   0  0  2  0  0  0  0  0  0  0  0  0
    1.1352    1.8251   -2.4872 C   0  0  0  0  0  0  0  0  0  0  0  0
    1.5981    2.4333   -1.5312 O   0  0  0  0  0  0  0  0  0  0  0  0
    1.3351   -0.5930   -3.1582 C   0  0  0  0  0  0  0  0  0  0  0  0
    0.8765   -2.3152   -2.7170 S   0  0  0  0  0  0  0  0  0  0  0  0
   -1.1820   -0.6264   -3.0127 H   0  0  0  0  0  0  0  0  0  0  0  0
    0.6822    0.1498   -1.2436 H   0  0  0  0  0  0  0  0  0  0  0  0
    1.1432   -0.4190   -4.2211 H   0  0  0  0  0  0  0  0  0  0  0  0
    2.4086   -0.4600   -2.9848 H   0  0  0  0  0  0  0  0  0  0  0  0
    1.3989    2.2930   -3.7614 N   0  0  0  0  0  0  0  0  0  0  0  0
    1.7836    3.6788   -4.0470 C   0  0  2  0  0  0  0  0  0  0  0  0
    1.0076    4.2138   -5.2680 C   0  0  0  0  0  0  0  0  0  0  0  0
    0.4556    3.4285   -6.0344 O   0  0  0  0  0  0  0  0  0  0  0  0
    3.2922    3.7164   -4.3000 C   0  0  0  0  0  0  0  0  0  0  0  0
    0.8944    1.8236   -4.5117 H   0  0  0  0  0  0  0  0  0  0  0  0
    1.5415    4.3229   -3.1943 H   0  0  0  0  0  0  0  0  0  0  0  0
    3.5506    3.0985   -5.1660 H   0  0  0  0  0  0  0  0  0  0  0  0
    3.6245    4.7414   -4.4896 H   0  0  0  0  0  0  0  0  0  0  0  0
    3.8302    3.3352   -3.4262 H   0  0  0  0  0  0  0  0  0  0  0  0
    0.9220    5.5727   -5.5059 N   0  0  0  0  0  0  0  0  0  0  0  0
    0.1693    6.1449   -6.6155 C   0  0  0  0  0  0  0  0  0  0  0  0
    1.3428    6.1966   -4.8229 H   0  0  0  0  0  0  0  0  0  0  0  0
    0.5496    5.7691   -7.5710 H   0  0  0  0  0  0  0  0  0  0  0  0
   -0.8919    5.8871   -6.5320 H   0  0  0  0  0  0  0  0  0  0  0  0
    0.2624    7.2352   -6.6137 H   0  0  0  0  0  0  0  0  0  0  0  0
  1  2  2  0  0  0  0
  1  3  1  0  0  0  0
  1  7  1  0  0  0  0
  3  4  1  0  0  0  0
  3  5  1  0  0  0  0
  3  6  1  0  0  0  0
  7  8  1  0  0  0  0
  7 13  1  0  0  0  0
  8  9  1  0  0  0  0
  8 11  1  0  0  0  0
  8 14  1  0  0  0  0
  9 10  2  0  0  0  0
  9 17  1  0  0  0  0
 11 12  1  0  0  0  0
 11 15  1  0  0  0  0
 11 16  1  0  0  0  0
 12 44  1  0  0  0  0
 17 18  1  0  0  0  0
 17 19  1  0  0  0  0
 18 20  1  0  0  0  0
 18 21  1  0  0  0  0
 18 22  1  0  0  0  0
 23 24  2  0  0  0  0
 23 25  1  0  0  0  0
 23 29  1  0  0  0  0
 25 26  1  0  0  0  0
 25 27  1  0  0  0  0
 25 28  1  0  0  0  0
 29 30  1  0  0  0  0
 29 34  1  0  0  0  0
 30 31  1  0  0  0  0
 30 33  1  0  0  0  0
 30 35  1  0  0  0  0
 31 32  2  0  0  0  0
 31 39  1  0  0  0  0
 33 36  1  0  0  0  0
 33 37  1  0  0  0  0
 33 38  1  0  0  0  0
 39 40  1  0  0  0  0
 39 45  1  0  0  0  0
 40 41  1  0  0  0  0
 40 43  1  0  0  0  0
 40 46  1  0  0  0  0
 41 42  2  0  0  0  0
 41 49  1  0  0  0  0
 43 44  1  0  0  0  0
 43 47  1  0  0  0  0
 43 48  1  0  0  0  0
 49 50  1  0  0  0  0
 49 54  1  0  0  0  0
 50 51  1  0  0  0  0
 50 53  1  0  0  0  0
 50 55  1  0  0  0  0
 51 52  2  0  0  0  0
 51 59  1  0  0  0  0
 53 56  1  0  0  0  0
 53 57  1  0  0  0  0
 53 58  1  0  0  0  0
 59 60  1  0  0  0  0
 59 61  1  0  0  0  0
 60 62  1  0  0  0  0
 60 63  1  0  0  0  0
 60 64  1  0  0  0  0
M  END
$$$$

  -OEChem-05262216053D

 64 63  0     1  0  0  0  0  0999 V2000
    1.3151   -6.4852   -6.5675 C   0  0  0  0  0  0  0  0  0  0  0  0
    0.1741   -6.3122   -6.9674 O   0  0  0  0  0  0  0  0  0  0  0  0
    1.8119   -7.8824   -6.2492 C   0  0  0  0  0  0  0  0  0  0  0  0
    2.0510   -7.9594   -5.1856 H   0  0  0  0  0  0  0  0  0  0  0  0
    1.0426   -8.6201   -6.4930 H   0  0  0  0  0  0  0  0  0  0  0  0
    2.7081   -8.1030   -6.8341 H   0  0  0  0  0  0  0  0  0  0  0  0
    2.1536   -5.4039   -6.4113 N   0  0  0  0  0  0  0  0  0  0  0  0
    1.7953   -4.0176   -6.7398 C   0  0  2  0  0  0  0  0  0  0  0  0
    3.0341   -3.1715   -7.1050 C   0  0  0  0  0  0  0  0  0  0  0  0
    4.1616   -3.6360   -6.9746 O   0  0  0  0  0  0  0  0  0  0  0  0
    1.0298   -3.4007   -5.5581 C   0  0  0  0  0  0  0  0  0  0  0  0
    2.0531   -3.3696   -4.0290 S   0  0  0  0  0  0  0  0  0  0  0  0
    3.1194   -5.5813   -6.1371 H   0  0  0  0  0  0  0  0  0  0  0  0
    1.1442   -4.0167   -7.6201 H   0  0  0  0  0  0  0  0  0  0  0  0
    0.7205   -2.3822   -5.8080 H   0  0  0  0  0  0  0  0  0  0  0  0
    0.1229   -3.9847   -5.3692 H   0  0  0  0  0  0  0  0  0  0  0  0
    2.8875   -1.8989   -7.6295 N   0  0  0  0  0  0  0  0  0  0  0  0
    4.0157   -1.0714   -8.0405 C   0  0  0  0  0  0  0  0  0  0  0  0
    1.9446   -1.5600   -7.7952 H   0  0  0  0  0  0  0  0  0  0  0  0
    4.6985   -0.9095   -7.1997 H   0  0  0  0  0  0  0  0  0  0  0  0
    4.5675   -1.5523   -8.8553 H   0  0  0  0  0  0  0  0  0  0  0  0
    3.6627   -0.0963   -8.3895 H   0  0  0  0  0  0  0  0  0  0  0  0
   -5.3889    0.9925   -1.3563 C   0  0  0  0  0  0  0  0  0  0  0  0
   -5.7108   -0.1022   -1.7897 O   0  0  0  0  0  0  0  0  0  0  0  0
   -6.1766    1.6223   -0.2238 C   0  0  0  0  0  0  0  0  0  0  0  0
   -6.5235    2.6158   -0.5180 H   0  0  0  0  0  0  0  0  0  0  0  0
   -7.0446    1.0036    0.0210 H   0  0  0  0  0  0  0  0  0  0  0  0
   -5.5447    1.7115    0.6633 H   0  0  0  0  0  0  0  0  0  0  0  0
   -4.2965    1.6523   -1.8781 N   0  0  0  0  0  0  0  0  0  0  0  0
   -3.3271    1.0427   -2.7979 C   0  0  2  0  0  0  0  0  0  0  0  0
   -1.8824    1.2283   -2.2940 C   0  0  0  0  0  0  0  0  0  0  0  0
   -1.6005    2.2059   -1.6136 O   0  0  0  0  0  0  0  0  0  0  0  0
   -3.4963    1.7013   -4.1694 C   0  0  0  0  0  0  0  0  0  0  0  0
   -3.9835    2.4833   -1.3780 H   0  0  0  0  0  0  0  0  0  0  0  0
   -3.5095   -0.0330   -2.8928 H   0  0  0  0  0  0  0  0  0  0  0  0
   -3.2938    2.7761   -4.1080 H   0  0  0  0  0  0  0  0  0  0  0  0
   -2.8062    1.2609   -4.8956 H   0  0  0  0  0  0  0  0  0  0  0  0
   -4.5185    1.5585   -4.5333 H   0  0  0  0  0  0  0  0  0  0  0  0
   -0.9009    0.3153   -2.6417 N   0  0  0  0  0  0  0  0  0  0  0  0
    0.5250    0.3954   -2.2681 C   0  0  2  0  0  0  0  0  0  0  0  0
    1.1405    1.7990   -2.4512 C   0  0  0  0  0  0  0  0  0  0  0  0
    1.7903    2.3219   -1.5555 O   0  0  0  0  0  0  0  0  0  0  0  0
    1.3032   -0.6089   -3.1254 C   0  0  0  0  0  0  0  0  0  0  0  0
    0.7912   -2.3287   -2.7346 S   0  0  0  0  0  0  0  0  0  0  0  0
   -1.2221   -0.5449   -3.0792 H   0  0  0  0  0  0  0  0  0  0  0  0
    0.6345    0.1312   -1.2103 H   0  0  0  0  0  0  0  0  0  0  0  0
    1.1433   -0.4065   -4.1885 H   0  0  0  0  0  0  0  0  0  0  0  0
    2.3748   -0.5070   -2.9223 H   0  0  0  0  0  0  0  0  0  0  0  0
    1.1401    2.3676   -3.7106 N   0  0  0  0  0  0  0  0  0  0  0  0
    1.3626    3.7998   -3.9298 C   0  0  2  0  0  0  0  0  0  0  0  0
    0.2754    4.3694   -4.8661 C   0  0  0  0  0  0  0  0  0  0  0  0
   -0.4505    3.6060   -5.4988 O   0  0  0  0  0  0  0  0  0  0  0  0
    2.7601    3.9848   -4.5248 C   0  0  0  0  0  0  0  0  0  0  0  0
    0.4807    1.9429   -4.3615 H   0  0  0  0  0  0  0  0  0  0  0  0
    1.2977    4.3457   -2.9820 H   0  0  0  0  0  0  0  0  0  0  0  0
    2.8426    3.4577   -5.4807 H   0  0  0  0  0  0  0  0  0  0  0  0
    2.9709    5.0457   -4.6908 H   0  0  0  0  0  0  0  0  0  0  0  0
    3.5151    3.5858   -3.8394 H   0  0  0  0  0  0  0  0  0  0  0  0
    0.1023    5.7346   -4.9972 N   0  0  0  0  0  0  0  0  0  0  0  0
   -0.9384    6.3319   -5.8252 C   0  0  0  0  0  0  0  0  0  0  0  0
    0.6779    6.3398   -4.4184 H   0  0  0  0  0  0  0  0  0  0  0  0
   -0.8511    5.9857   -6.8604 H   0  0  0  0  0  0  0  0  0  0  0  0
   -1.9301    6.0635   -5.4464 H   0  0  0  0  0  0  0  0  0  0  0  0
   -0.8482    7.4224   -5.8193 H   0  0  0  0  0  0  0  0  0  0  0  0
  1  2  2  0  0  0  0
  1  3  1  0  0  0  0
  1  7  1  0  0  0  0
  3  4  1  0  0  0  0
  3  5  1  0  0  0  0
  3  6  1  0  0  0  0
  7  8  1  0  0  0  0
  7 13  1  0  0  0  0
  8  9  1  0  0  0  0
  8 11  1  0  0  0  0
  8 14  1  0  0  0  0
  9 10  2  0  0  0  0
  9 17  1  0  0  0  0
 11 12  1  0  0  0  0
 11 15  1  0  0  0  0
 11 16  1  0  0  0  0
 12 44  1  0  0  0  0
 17 18  1  0  0  0  0
 17 19  1  0  0  0  0
 18 20  1  0  0  0  0
 18 21  1  0  0  0  0
 18 22  1  0  0  0  0
 23 24  2  0  0  0  0
 23 25  1  0  0  0  0
 23 29  1  0  0  0  0
 25 26  1  0  0  0  0
 25 27  1  0  0  0  0
 25 28  1  0  0  0  0
 29 30  1  0  0  0  0
 29 34  1  0  0  0  0
 30 31  1  0  0  0  0
 30 33  1  0  0  0  0
 30 35  1  0  0  0  0
 31 32  2  0  0  0  0
 31 39  1  0  0  0  0
 33 36  1  0  0  0  0
 33 37  1  0  0  0  0
 33 38  1  0  0  0  0
 39 40  1  0  0  0  0
 39 45  1  0  0  0  0
 40 41  1  0  0  0  0
 40 43  1  0  0  0  0
 40 46  1  0  0  0  0
 41 42  2  0  0  0  0
 41 49  1  0  0  0  0
 43 44  1  0  0  0  0
 43 47  1  0  0  0  0
 43 48  1  0  0  0  0
 49 50  1  0  0  0  0
 49 54  1  0  0  0  0
 50 51  1  0  0  0  0
 50 53  1  0  0  0  0
 50 55  1  0  0  0  0
 51 52  2  0  0  0  0
 51 59  1  0  0  0  0
 53 56  1  0  0  0  0
 53 57  1  0  0  0  0
 53 58  1  0  0  0  0
 59 60  1  0  0  0  0
 59 61  1  0  0  0  0
 60 62  1  0  0  0  0
 60 63  1  0  0  0  0
 60 64  1  0  0  0  0
M  END
$$$$

  -OEChem-05262216053D

 64 63  0     1  0  0  0  0  0999 V2000
    1.3127   -6.4915   -6.5642 C   0  0  0  0  0  0  0  0  0  0  0  0
    0.1750   -6.3195   -6.9737 O   0  0  0  0  0  0  0  0  0  0  0  0
    1.8086   -7.8867   -6.2375 C   0  0  0  0  0  0  0  0  0  0  0  0
    2.0467   -7.9574   -5.1734 H   0  0  0  0  0  0  0  0  0  0  0  0
    1.0395   -8.6257   -6.4777 H   0  0  0  0  0  0  0  0  0  0  0  0
    2.7055   -8.1093   -6.8204 H   0  0  0  0  0  0  0  0  0  0  0  0
    2.1509   -5.4105   -6.4063 N   0  0  0  0  0  0  0  0  0  0  0  0
    1.7993   -4.0265   -6.7503 C   0  0  2  0  0  0  0  0  0  0  0  0
    3.0435   -3.1890   -7.1160 C   0  0  0  0  0  0  0  0  0  0  0  0
    4.1682   -3.6627   -6.9938 O   0  0  0  0  0  0  0  0  0  0  0  0
    1.0293   -3.3974   -5.5788 C   0  0  0  0  0  0  0  0  0  0  0  0
    2.0507   -3.3446   -4.0500 S   0  0  0  0  0  0  0  0  0  0  0  0
    3.1157   -5.5895   -6.1301 H   0  0  0  0  0  0  0  0  0  0  0  0
    1.1532   -4.0315   -7.6346 H   0  0  0  0  0  0  0  0  0  0  0  0
    0.7175   -2.3831   -5.8421 H   0  0  0  0  0  0  0  0  0  0  0  0
    0.1242   -3.9824   -5.3844 H   0  0  0  0  0  0  0  0  0  0  0  0
    2.9037   -1.9132   -7.6339 N   0  0  0  0  0  0  0  0  0  0  0  0
    4.0360   -1.0900   -8.0423 C   0  0  0  0  0  0  0  0  0  0  0  0
    1.9623   -1.5633   -7.7847 H   0  0  0  0  0  0  0  0  0  0  0  0
    4.7160   -0.9281   -7.1991 H   0  0  0  0  0  0  0  0  0  0  0  0
    4.5895   -1.5744   -8.8536 H   0  0  0  0  0  0  0  0  0  0  0  0
    3.6868   -0.1151   -8.3958 H   0  0  0  0  0  0  0  0  0  0  0  0
   -5.4066    0.9787   -1.3094 C   0  0  0  0  0  0  0  0  0  0  0  0
   -5.7341   -0.1136   -1.7451 O   0  0  0  0  0  0  0  0  0  0  0  0
   -6.1822    1.6030   -0.1652 C   0  0  0  0  0  0  0  0  0  0  0  0
   -6.5376    2.5958   -0.4514 H   0  0  0  0  0  0  0  0  0  0  0  0
   -7.0441    0.9800    0.0898 H   0  0  0  0  0  0  0  0  0  0  0  0
   -5.5391    1.6920    0.7135 H   0  0  0  0  0  0  0  0  0  0  0  0
   -4.3168    1.6383   -1.8376 N   0  0  0  0  0  0  0  0  0  0  0  0
   -3.3642    1.0375   -2.7808 C   0  0  2  0  0  0  0  0  0  0  0  0
   -1.9088    1.2391   -2.3146 C   0  0  0  0  0  0  0  0  0  0  0  0
   -1.6191    2.2170   -1.6369 O   0  0  0  0  0  0  0  0  0  0  0  0
   -3.5784    1.6902   -4.1482 C   0  0  0  0  0  0  0  0  0  0  0  0
   -4.0000    2.4703   -1.3416 H   0  0  0  0  0  0  0  0  0  0  0  0
   -3.5383   -0.0402   -2.8674 H   0  0  0  0  0  0  0  0  0  0  0  0
   -3.3989    2.7690   -4.0908 H   0  0  0  0  0  0  0  0  0  0  0  0
   -2.8947    1.2653   -4.8894 H   0  0  0  0  0  0  0  0  0  0  0  0
   -4.6054    1.5253   -4.4889 H   0  0  0  0  0  0  0  0  0  0  0  0
   -0.9280    0.3245   -2.6633 N   0  0  0  0  0  0  0  0  0  0  0  0
    0.5017    0.4160   -2.3006 C   0  0  2  0  0  0  0  0  0  0  0  0
    1.1224    1.8151   -2.4984 C   0  0  0  0  0  0  0  0  0  0  0  0
    1.9528    2.2502   -1.7117 O   0  0  0  0  0  0  0  0  0  0  0  0
    1.2783   -0.5828   -3.1641 C   0  0  0  0  0  0  0  0  0  0  0  0
    0.7782   -2.3045   -2.7654 S   0  0  0  0  0  0  0  0  0  0  0  0
   -1.2488   -0.5413   -3.0903 H   0  0  0  0  0  0  0  0  0  0  0  0
    0.6224    0.1555   -1.2433 H   0  0  0  0  0  0  0  0  0  0  0  0
    1.1102   -0.3791   -4.2260 H   0  0  0  0  0  0  0  0  0  0  0  0
    2.3509   -0.4760   -2.9682 H   0  0  0  0  0  0  0  0  0  0  0  0
    0.8531    2.5065   -3.6637 N   0  0  0  0  0  0  0  0  0  0  0  0
    1.0521    3.9517   -3.7950 C   0  0  2  0  0  0  0  0  0  0  0  0
   -0.1807    4.5969   -4.4624 C   0  0  0  0  0  0  0  0  0  0  0  0
   -0.9804    3.8980   -5.0805 O   0  0  0  0  0  0  0  0  0  0  0  0
    2.3147    4.1954   -4.6235 C   0  0  0  0  0  0  0  0  0  0  0  0
    0.0644    2.1410   -4.1955 H   0  0  0  0  0  0  0  0  0  0  0  0
    1.1710    4.4096   -2.8066 H   0  0  0  0  0  0  0  0  0  0  0  0
    2.2093    3.7557   -5.6201 H   0  0  0  0  0  0  0  0  0  0  0  0
    2.5017    5.2679   -4.7331 H   0  0  0  0  0  0  0  0  0  0  0  0
    3.1803    3.7414   -4.1306 H   0  0  0  0  0  0  0  0  0  0  0  0
   -0.3975    5.9592   -4.3726 N   0  0  0  0  0  0  0  0  0  0  0  0
   -1.5785    6.6159   -4.9196 C   0  0  0  0  0  0  0  0  0  0  0  0
    0.2438    6.4993   -3.7985 H   0  0  0  0  0  0  0  0  0  0  0  0
   -1.6761    6.4028   -5.9894 H   0  0  0  0  0  0  0  0  0  0  0  0
   -2.4809    6.2669   -4.4067 H   0  0  0  0  0  0  0  0  0  0  0  0
   -1.5027    7.6999   -4.7910 H   0  0  0  0  0  0  0  0  0  0  0  0
  1  2  2  0  0  0  0
  1  3  1  0  0  0  0
  1  7  1  0  0  0  0
  3  4  1  0  0  0  0
  3  5  1  0  0  0  0
  3  6  1  0  0  0  0
  7  8  1  0  0  0  0
  7 13  1  0  0  0  0
  8  9  1  0  0  0  0
  8 11  1  0  0  0  0
  8 14  1  0  0  0  0
  9 10  2  0  0  0  0
  9 17  1  0  0  0  0
 11 12  1  0  0  0  0
 11 15  1  0  0  0  0
 11 16  1  0  0  0  0
 12 44  1  0  0  0  0
 17 18  1  0  0  0  0
 17 19  1  0  0  0  0
 18 20  1  0  0  0  0
 18 21  1  0  0  0  0
 18 22  1  0  0  0  0
 23 24  2  0  0  0  0
 23 25  1  0  0  0  0
 23 29  1  0  0  0  0
 25 26  1  0  0  0  0
 25 27  1  0  0  0  0
 25 28  1  0  0  0  0
 29 30  1  0  0  0  0
 29 34  1  0  0  0  0
 30 31  1  0  0  0  0
 30 33  1  0  0  0  0
 30 35  1  0  0  0  0
 31 32  2  0  0  0  0
 31 39  1  0  0  0  0
 33 36  1  0  0  0  0
 33 37  1  0  0  0  0
 33 38  1  0  0  0  0
 39 40  1  0  0  0  0
 39 45  1  0  0  0  0
 40 41  1  0  0  0  0
 40 43  1  0  0  0  0
 40 46  1  0  0  0  0
 41 42  2  0  0  0  0
 41 49  1  0  0  0  0
 43 44  1  0  0  0  0
 43 47  1  0  0  0  0
 43 48  1  0  0  0  0
 49 50  1  0  0  0  0
 49 54  1  0  0  0  0
 50 51  1  0  0  0  0
 50 53  1  0  0  0  0
 50 55  1  0  0  0  0
 51 52  2  0  0  0  0
 51 59  1  0  0  0  0
 53 56  1  0  0  0  0
 53 57  1  0  0  0  0
 53 58  1  0  0  0  0
 59 60  1  0  0  0  0
 59 61  1  0  0  0  0
 60 62  1  0  0  0  0
 60 63  1  0  0  0  0
 60 64  1  0  0  0  0
M  END
$$$$

  -OEChem-05262216053D

 64 63  0     1  0  0  0  0  0999 V2000
    1.3182   -6.4929   -6.5609 C   0  0  0  0  0  0  0  0  0  0  0  0
    0.1821   -6.3234   -6.9760 O   0  0  0  0  0  0  0  0  0  0  0  0
    1.8104   -7.8869   -6.2207 C   0  0  0  0  0  0  0  0  0  0  0  0
    2.0145   -7.9574   -5.1497 H   0  0  0  0  0  0  0  0  0  0  0  0
    1.0528   -8.6297   -6.4849 H   0  0  0  0  0  0  0  0  0  0  0  0
    2.7266   -8.1064   -6.7744 H   0  0  0  0  0  0  0  0  0  0  0  0
    2.1543   -5.4100   -6.4015 N   0  0  0  0  0  0  0  0  0  0  0  0
    1.8055   -4.0272   -6.7552 C   0  0  2  0  0  0  0  0  0  0  0  0
    3.0501   -3.1955   -7.1341 C   0  0  0  0  0  0  0  0  0  0  0  0
    4.1734   -3.6740   -7.0184 O   0  0  0  0  0  0  0  0  0  0  0  0
    1.0452   -3.3842   -5.5852 C   0  0  0  0  0  0  0  0  0  0  0  0
    2.0872   -3.2957   -4.0717 S   0  0  0  0  0  0  0  0  0  0  0  0
    3.1197   -5.5882   -6.1271 H   0  0  0  0  0  0  0  0  0  0  0  0
    1.1538   -4.0364   -7.6349 H   0  0  0  0  0  0  0  0  0  0  0  0
    0.7229   -2.3768   -5.8623 H   0  0  0  0  0  0  0  0  0  0  0  0
    0.1465   -3.9710   -5.3676 H   0  0  0  0  0  0  0  0  0  0  0  0
    2.9126   -1.9185   -7.6506 N   0  0  0  0  0  0  0  0  0  0  0  0
    4.0458   -1.0993   -8.0650 C   0  0  0  0  0  0  0  0  0  0  0  0
    1.9724   -1.5612   -7.7904 H   0  0  0  0  0  0  0  0  0  0  0  0
    4.7292   -0.9366   -7.2245 H   0  0  0  0  0  0  0  0  0  0  0  0
    4.5952   -1.5877   -8.8773 H   0  0  0  0  0  0  0  0  0  0  0  0
    3.6986   -0.1238   -8.4198 H   0  0  0  0  0  0  0  0  0  0  0  0
   -5.4943    0.9102   -1.2479 C   0  0  0  0  0  0  0  0  0  0  0  0
   -5.8439   -0.1657   -1.7067 O   0  0  0  0  0  0  0  0  0  0  0  0
   -6.2836    1.5505   -0.1221 C   0  0  0  0  0  0  0  0  0  0  0  0
   -6.6166    2.5474   -0.4207 H   0  0  0  0  0  0  0  0  0  0  0  0
   -7.1602    0.9423    0.1180 H   0  0  0  0  0  0  0  0  0  0  0  0
   -5.6581    1.6339    0.7700 H   0  0  0  0  0  0  0  0  0  0  0  0
   -4.3694    1.5384   -1.7380 N   0  0  0  0  0  0  0  0  0  0  0  0
   -3.4241    0.9282   -2.6816 C   0  0  2  0  0  0  0  0  0  0  0  0
   -1.9632    1.1784   -2.2575 C   0  0  0  0  0  0  0  0  0  0  0  0
   -1.6841    2.1508   -1.5673 O   0  0  0  0  0  0  0  0  0  0  0  0
   -3.6863    1.5234   -4.0670 C   0  0  0  0  0  0  0  0  0  0  0  0
   -4.0476    2.3686   -1.2419 H   0  0  0  0  0  0  0  0  0  0  0  0
   -3.5742   -0.1560   -2.7231 H   0  0  0  0  0  0  0  0  0  0  0  0
   -3.5470    2.6095   -4.0508 H   0  0  0  0  0  0  0  0  0  0  0  0
   -3.0014    1.0967   -4.8058 H   0  0  0  0  0  0  0  0  0  0  0  0
   -4.7124    1.3090   -4.3821 H   0  0  0  0  0  0  0  0  0  0  0  0
   -0.9610    0.3028   -2.6419 N   0  0  0  0  0  0  0  0  0  0  0  0
    0.4793    0.4508   -2.3415 C   0  0  2  0  0  0  0  0  0  0  0  0
    1.0720    1.8611   -2.5628 C   0  0  0  0  0  0  0  0  0  0  0  0
    2.0838    2.2043   -1.9655 O   0  0  0  0  0  0  0  0  0  0  0  0
    1.2434   -0.5342   -3.2313 C   0  0  0  0  0  0  0  0  0  0  0  0
    0.8119   -2.2633   -2.7850 S   0  0  0  0  0  0  0  0  0  0  0  0
   -1.2606   -0.5644   -3.0814 H   0  0  0  0  0  0  0  0  0  0  0  0
    0.6504    0.1978   -1.2894 H   0  0  0  0  0  0  0  0  0  0  0  0
    1.0159   -0.3473   -4.2853 H   0  0  0  0  0  0  0  0  0  0  0  0
    2.3213   -0.3949   -3.0919 H   0  0  0  0  0  0  0  0  0  0  0  0
    0.5427    2.6913   -3.5325 N   0  0  0  0  0  0  0  0  0  0  0  0
    0.8021    4.1319   -3.5897 C   0  0  2  0  0  0  0  0  0  0  0  0
   -0.4876    4.8913   -3.9660 C   0  0  0  0  0  0  0  0  0  0  0  0
   -1.3934    4.3092   -4.5570 O   0  0  0  0  0  0  0  0  0  0  0  0
    1.9069    4.3907   -4.6164 C   0  0  0  0  0  0  0  0  0  0  0  0
   -0.3716    2.4087   -3.8826 H   0  0  0  0  0  0  0  0  0  0  0  0
    1.1259    4.4931   -2.6075 H   0  0  0  0  0  0  0  0  0  0  0  0
    1.5968    4.0444   -5.6075 H   0  0  0  0  0  0  0  0  0  0  0  0
    2.1332    5.4595   -4.6743 H   0  0  0  0  0  0  0  0  0  0  0  0
    2.8202    3.8590   -4.3308 H   0  0  0  0  0  0  0  0  0  0  0  0
   -0.6351    6.2276   -3.6432 N   0  0  0  0  0  0  0  0  0  0  0  0
   -1.8570    6.9798   -3.9003 C   0  0  0  0  0  0  0  0  0  0  0  0
    0.0982    6.6585   -3.0875 H   0  0  0  0  0  0  0  0  0  0  0  0
   -2.1035    6.9596   -4.9674 H   0  0  0  0  0  0  0  0  0  0  0  0
   -2.6939    6.5538   -3.3368 H   0  0  0  0  0  0  0  0  0  0  0  0
   -1.7300    8.0234   -3.5959 H   0  0  0  0  0  0  0  0  0  0  0  0
  1  2  2  0  0  0  0
  1  3  1  0  0  0  0
  1  7  1  0  0  0  0
  3  4  1  0  0  0  0
  3  5  1  0  0  0  0
  3  6  1  0  0  0  0
  7  8  1  0  0  0  0
  7 13  1  0  0  0  0
  8  9  1  0  0  0  0
  8 11  1  0  0  0  0
  8 14  1  0  0  0  0
  9 10  2  0  0  0  0
  9 17  1  0  0  0  0
 11 12  1  0  0  0  0
 11 15  1  0  0  0  0
 11 16  1  0  0  0  0
 12 44  1  0  0  0  0
 17 18  1  0  0  0  0
 17 19  1  0  0  0  0
 18 20  1  0  0  0  0
 18 21  1  0  0  0  0
 18 22  1  0  0  0  0
 23 24  2  0  0  0  0
 23 25  1  0  0  0  0
 23 29  1  0  0  0  0
 25 26  1  0  0  0  0
 25 27  1  0  0  0  0
 25 28  1  0  0  0  0
 29 30  1  0  0  0  0
 29 34  1  0  0  0  0
 30 31  1  0  0  0  0
 30 33  1  0  0  0  0
 30 35  1  0  0  0  0
 31 32  2  0  0  0  0
 31 39  1  0  0  0  0
 33 36  1  0  0  0  0
 33 37  1  0  0  0  0
 33 38  1  0  0  0  0
 39 40  1  0  0  0  0
 39 45  1  0  0  0  0
 40 41  1  0  0  0  0
 40 43  1  0  0  0  0
 40 46  1  0  0  0  0
 41 42  2  0  0  0  0
 41 49  1  0  0  0  0
 43 44  1  0  0  0  0
 43 47  1  0  0  0  0
 43 48  1  0  0  0  0
 49 50  1  0  0  0  0
 49 54  1  0  0  0  0
 50 51  1  0  0  0  0
 50 53  1  0  0  0  0
 50 55  1  0  0  0  0
 51 52  2  0  0  0  0
 51 59  1  0  0  0  0
 53 56  1  0  0  0  0
 53 57  1  0  0  0  0
 53 58  1  0  0  0  0
 59 60  1  0  0  0  0
 59 61  1  0  0  0  0
 60 62  1  0  0  0  0
 60 63  1  0  0  0  0
 60 64  1  0  0  0  0
M  END
$$$$

  -OEChem-05262216053D

 64 63  0     1  0  0  0  0  0999 V2000
    1.3179   -6.4554   -6.5140 C   0  0  0  0  0  0  0  0  0  0  0  0
    0.1565   -6.2704   -6.8440 O   0  0  0  0  0  0  0  0  0  0  0  0
    1.8036   -7.8510   -6.1714 C   0  0  0  0  0  0  0  0  0  0  0  0
    2.1641   -7.8769   -5.1399 H   0  0  0  0  0  0  0  0  0  0  0  0
    0.9870   -8.5709   -6.2778 H   0  0  0  0  0  0  0  0  0  0  0  0
    2.6172   -8.1382   -6.8422 H   0  0  0  0  0  0  0  0  0  0  0  0
    2.1899   -5.3904   -6.4624 N   0  0  0  0  0  0  0  0  0  0  0  0
    1.8442   -4.0120   -6.8362 C   0  0  2  0  0  0  0  0  0  0  0  0
    3.0903   -3.1995   -7.2529 C   0  0  0  0  0  0  0  0  0  0  0  0
    4.2037   -3.7130   -7.2158 O   0  0  0  0  0  0  0  0  0  0  0  0
    1.1063   -3.3389   -5.6674 C   0  0  0  0  0  0  0  0  0  0  0  0
    2.1798   -3.1992   -4.1803 S   0  0  0  0  0  0  0  0  0  0  0  0
    3.1710   -5.5847   -6.2640 H   0  0  0  0  0  0  0  0  0  0  0  0
    1.1775   -4.0364   -7.7048 H   0  0  0  0  0  0  0  0  0  0  0  0
    0.7690   -2.3428   -5.9662 H   0  0  0  0  0  0  0  0  0  0  0  0
    0.2170   -3.9245   -5.4129 H   0  0  0  0  0  0  0  0  0  0  0  0
    2.9639   -1.9009   -7.7152 N   0  0  0  0  0  0  0  0  0  0  0  0
    4.1024   -1.0778   -8.1054 C   0  0  0  0  0  0  0  0  0  0  0  0
    2.0324   -1.4994   -7.7543 H   0  0  0  0  0  0  0  0  0  0  0  0
    4.7952   -0.9593   -7.2651 H   0  0  0  0  0  0  0  0  0  0  0  0
    4.6378   -1.5377   -8.9428 H   0  0  0  0  0  0  0  0  0  0  0  0
    3.7629   -0.0846   -8.4155 H   0  0  0  0  0  0  0  0  0  0  0  0
   -5.6175    0.8579   -1.2202 C   0  0  0  0  0  0  0  0  0  0  0  0
   -5.9693   -0.2429   -1.6134 O   0  0  0  0  0  0  0  0  0  0  0  0
   -6.4298    1.5862   -0.1665 C   0  0  0  0  0  0  0  0  0  0  0  0
   -6.7590    2.5537   -0.5527 H   0  0  0  0  0  0  0  0  0  0  0  0
   -7.3098    0.9972    0.1066 H   0  0  0  0  0  0  0  0  0  0  0  0
   -5.8215    1.7455    0.7272 H   0  0  0  0  0  0  0  0  0  0  0  0
   -4.4693    1.4354   -1.7182 N   0  0  0  0  0  0  0  0  0  0  0  0
   -3.4983    0.7414   -2.5737 C   0  0  2  0  0  0  0  0  0  0  0  0
   -2.0497    1.0013   -2.1125 C   0  0  0  0  0  0  0  0  0  0  0  0
   -1.8030    1.9279   -1.3517 O   0  0  0  0  0  0  0  0  0  0  0  0
   -3.7015    1.2389   -4.0072 C   0  0  0  0  0  0  0  0  0  0  0  0
   -4.1488    2.2916   -1.2667 H   0  0  0  0  0  0  0  0  0  0  0  0
   -3.6638   -0.3408   -2.5396 H   0  0  0  0  0  0  0  0  0  0  0  0
   -3.5138    2.3165   -4.0683 H   0  0  0  0  0  0  0  0  0  0  0  0
   -3.0215    0.7266   -4.6942 H   0  0  0  0  0  0  0  0  0  0  0  0
   -4.7293    1.0464   -4.3320 H   0  0  0  0  0  0  0  0  0  0  0  0
   -1.0077    0.2121   -2.5682 N   0  0  0  0  0  0  0  0  0  0  0  0
    0.4347    0.4387   -2.3231 C   0  0  2  0  0  0  0  0  0  0  0  0
    0.9651    1.8855   -2.5063 C   0  0  0  0  0  0  0  0  0  0  0  0
    2.1152    2.1531   -2.1813 O   0  0  0  0  0  0  0  0  0  0  0  0
    1.2047   -0.4857   -3.2749 C   0  0  0  0  0  0  0  0  0  0  0  0
    0.8838   -2.2453   -2.8526 S   0  0  0  0  0  0  0  0  0  0  0  0
   -1.2664   -0.6167   -3.0983 H   0  0  0  0  0  0  0  0  0  0  0  0
    0.6602    0.1579   -1.2885 H   0  0  0  0  0  0  0  0  0  0  0  0
    0.9207   -0.2847   -4.3121 H   0  0  0  0  0  0  0  0  0  0  0  0
    2.2801   -0.2981   -3.1811 H   0  0  0  0  0  0  0  0  0  0  0  0
    0.2226    2.8464   -3.1668 N   0  0  0  0  0  0  0  0  0  0  0  0
    0.5756    4.2677   -3.2218 C   0  0  2  0  0  0  0  0  0  0  0  0
   -0.6947    5.1449   -3.2436 C   0  0  0  0  0  0  0  0  0  0  0  0
   -1.7663    4.6738   -3.6138 O   0  0  0  0  0  0  0  0  0  0  0  0
    1.4211    4.5163   -4.4734 C   0  0  0  0  0  0  0  0  0  0  0  0
   -0.7786    2.6530   -3.1999 H   0  0  0  0  0  0  0  0  0  0  0  0
    1.1530    4.5399   -2.3319 H   0  0  0  0  0  0  0  0  0  0  0  0
    0.8579    4.2501   -5.3739 H   0  0  0  0  0  0  0  0  0  0  0  0
    1.7080    5.5701   -4.5393 H   0  0  0  0  0  0  0  0  0  0  0  0
    2.3331    3.9119   -4.4398 H   0  0  0  0  0  0  0  0  0  0  0  0
   -0.6356    6.4695   -2.8509 N   0  0  0  0  0  0  0  0  0  0  0  0
   -1.8006    7.3440   -2.8024 C   0  0  0  0  0  0  0  0  0  0  0  0
    0.2546    6.8186   -2.5081 H   0  0  0  0  0  0  0  0  0  0  0  0
   -2.2634    7.4220   -3.7918 H   0  0  0  0  0  0  0  0  0  0  0  0
   -2.5421    6.9573   -2.0952 H   0  0  0  0  0  0  0  0  0  0  0  0
   -1.5054    8.3471   -2.4797 H   0  0  0  0  0  0  0  0  0  0  0  0
  1  2  2  0  0  0  0
  1  3  1  0  0  0  0
  1  7  1  0  0  0  0
  3  4  1  0  0  0  0
  3  5  1  0  0  0  0
  3  6  1  0  0  0  0
  7  8  1  0  0  0  0
  7 13  1  0  0  0  0
  8  9  1  0  0  0  0
  8 11  1  0  0  0  0
  8 14  1  0  0  0  0
  9 10  2  0  0  0  0
  9 17  1  0  0  0  0
 11 12  1  0  0  0  0
 11 15  1  0  0  0  0
 11 16  1  0  0  0  0
 12 44  1  0  0  0  0
 17 18  1  0  0  0  0
 17 19  1  0  0  0  0
 18 20  1  0  0  0  0
 18 21  1  0  0  0  0
 18 22  1  0  0  0  0
 23 24  2  0  0  0  0
 23 25  1  0  0  0  0
 23 29  1  0  0  0  0
 25 26  1  0  0  0  0
 25 27  1  0  0  0  0
 25 28  1  0  0  0  0
 29 30  1  0  0  0  0
 29 34  1  0  0  0  0
 30 31  1  0  0  0  0
 30 33  1  0  0  0  0
 30 35  1  0  0  0  0
 31 32  2  0  0  0  0
 31 39  1  0  0  0  0
 33 36  1  0  0  0  0
 33 37  1  0  0  0  0
 33 38  1  0  0  0  0
 39 40  1  0  0  0  0
 39 45  1  0  0  0  0
 40 41  1  0  0  0  0
 40 43  1  0  0  0  0
 40 46  1  0  0  0  0
 41 42  2  0  0  0  0
 41 49  1  0  0  0  0
 43 44  1  0  0  0  0
 43 47  1  0  0  0  0
 43 48  1  0  0  0  0
 49 50  1  0  0  0  0
 49 54  1  0  0  0  0
 50 51  1  0  0  0  0
 50 53  1  0  0  0  0
 50 55  1  0  0  0  0
 51 52  2  0  0  0  0
 51 59  1  0  0  0  0
 53 56  1  0  0  0  0
 53 57  1  0  0  0  0
 53 58  1  0  0  0  0
 59 60  1  0  0  0  0
 59 61  1  0  0  0  0
 60 62  1  0  0  0  0
 60 63  1  0  0  0  0
 60 64  1  0  0  0  0
M  END
$$$$

  -OEChem-05262216053D

 64 63  0     1  0  0  0  0  0999 V2000
    1.3322   -6.4371   -6.5264 C   0  0  0  0  0  0  0  0  0  0  0  0
    0.1777   -6.2531   -6.8802 O   0  0  0  0  0  0  0  0  0  0  0  0
    1.8147   -7.8337   -6.1817 C   0  0  0  0  0  0  0  0  0  0  0  0
    2.1426   -7.8680   -5.1399 H   0  0  0  0  0  0  0  0  0  0  0  0
    1.0059   -8.5567   -6.3203 H   0  0  0  0  0  0  0  0  0  0  0  0
    2.6505   -8.1112   -6.8288 H   0  0  0  0  0  0  0  0  0  0  0  0
    2.1983   -5.3688   -6.4482 N   0  0  0  0  0  0  0  0  0  0  0  0
    1.8586   -3.9909   -6.8307 C   0  0  2  0  0  0  0  0  0  0  0  0
    3.1083   -3.1845   -7.2464 C   0  0  0  0  0  0  0  0  0  0  0  0
    4.2214   -3.6967   -7.1917 O   0  0  0  0  0  0  0  0  0  0  0  0
    1.1150   -3.3097   -5.6704 C   0  0  0  0  0  0  0  0  0  0  0  0
    2.1840   -3.1577   -4.1816 S   0  0  0  0  0  0  0  0  0  0  0  0
    3.1756   -5.5612   -6.2303 H   0  0  0  0  0  0  0  0  0  0  0  0
    1.1974   -4.0170   -7.7031 H   0  0  0  0  0  0  0  0  0  0  0  0
    0.7780   -2.3161   -5.9774 H   0  0  0  0  0  0  0  0  0  0  0  0
    0.2257   -3.8951   -5.4150 H   0  0  0  0  0  0  0  0  0  0  0  0
    2.9834   -1.8951   -7.7334 N   0  0  0  0  0  0  0  0  0  0  0  0
    4.1207   -1.0866   -8.1556 C   0  0  0  0  0  0  0  0  0  0  0  0
    2.0502   -1.5006   -7.7971 H   0  0  0  0  0  0  0  0  0  0  0  0
    4.8434   -0.9846   -7.3388 H   0  0  0  0  0  0  0  0  0  0  0  0
    4.6208   -1.5475   -9.0139 H   0  0  0  0  0  0  0  0  0  0  0  0
    3.7865   -0.0859   -8.4460 H   0  0  0  0  0  0  0  0  0  0  0  0
   -5.6595    0.8002   -1.2281 C   0  0  0  0  0  0  0  0  0  0  0  0
   -5.9743   -0.3309   -1.5624 O   0  0  0  0  0  0  0  0  0  0  0  0
   -6.4768    1.5398   -0.1863 C   0  0  0  0  0  0  0  0  0  0  0  0
   -6.8776    2.4625   -0.6124 H   0  0  0  0  0  0  0  0  0  0  0  0
   -7.3090    0.9166    0.1526 H   0  0  0  0  0  0  0  0  0  0  0  0
   -5.8484    1.7861    0.6732 H   0  0  0  0  0  0  0  0  0  0  0  0
   -4.5497    1.4039   -1.7799 N   0  0  0  0  0  0  0  0  0  0  0  0
   -3.5461    0.6997   -2.5901 C   0  0  2  0  0  0  0  0  0  0  0  0
   -2.1194    0.9173   -2.0440 C   0  0  0  0  0  0  0  0  0  0  0  0
   -1.9049    1.7803   -1.2028 O   0  0  0  0  0  0  0  0  0  0  0  0
   -3.6545    1.2258   -4.0240 C   0  0  0  0  0  0  0  0  0  0  0  0
   -4.2510    2.2793   -1.3507 H   0  0  0  0  0  0  0  0  0  0  0  0
   -3.7361   -0.3787   -2.5888 H   0  0  0  0  0  0  0  0  0  0  0  0
   -3.4284    2.2971   -4.0571 H   0  0  0  0  0  0  0  0  0  0  0  0
   -2.9557    0.7011   -4.6825 H   0  0  0  0  0  0  0  0  0  0  0  0
   -4.6684    1.0721   -4.4067 H   0  0  0  0  0  0  0  0  0  0  0  0
   -1.0544    0.1743   -2.5213 N   0  0  0  0  0  0  0  0  0  0  0  0
    0.3856    0.4364   -2.2908 C   0  0  2  0  0  0  0  0  0  0  0  0
    0.8967    1.8987   -2.4507 C   0  0  0  0  0  0  0  0  0  0  0  0
    2.0975    2.1268   -2.3689 O   0  0  0  0  0  0  0  0  0  0  0  0
    1.1514   -0.4745   -3.2634 C   0  0  0  0  0  0  0  0  0  0  0  0
    0.8696   -2.2416   -2.8454 S   0  0  0  0  0  0  0  0  0  0  0  0
   -1.2903   -0.6046   -3.1311 H   0  0  0  0  0  0  0  0  0  0  0  0
    0.6277    0.1460   -1.2629 H   0  0  0  0  0  0  0  0  0  0  0  0
    0.8451   -0.2730   -4.2937 H   0  0  0  0  0  0  0  0  0  0  0  0
    2.2264   -0.2763   -3.1915 H   0  0  0  0  0  0  0  0  0  0  0  0
    0.0635    2.9463   -2.7969 N   0  0  0  0  0  0  0  0  0  0  0  0
    0.4653    4.3563   -2.8397 C   0  0  2  0  0  0  0  0  0  0  0  0
   -0.7300    5.2794   -2.5215 C   0  0  0  0  0  0  0  0  0  0  0  0
   -1.8791    4.9025   -2.7310 O   0  0  0  0  0  0  0  0  0  0  0  0
    1.0247    4.6746   -4.2295 C   0  0  0  0  0  0  0  0  0  0  0  0
   -0.9253    2.7832   -2.5913 H   0  0  0  0  0  0  0  0  0  0  0  0
    1.2374    4.5416   -2.0858 H   0  0  0  0  0  0  0  0  0  0  0  0
    0.2653    4.4949   -4.9972 H   0  0  0  0  0  0  0  0  0  0  0  0
    1.3362    5.7220   -4.2851 H   0  0  0  0  0  0  0  0  0  0  0  0
    1.8938    4.0450   -4.4438 H   0  0  0  0  0  0  0  0  0  0  0  0
   -0.5150    6.5417   -1.9996 N   0  0  0  0  0  0  0  0  0  0  0  0
   -1.5962    7.4351   -1.6047 C   0  0  0  0  0  0  0  0  0  0  0  0
    0.4424    6.8042   -1.7842 H   0  0  0  0  0  0  0  0  0  0  0  0
   -2.2625    7.6290   -2.4517 H   0  0  0  0  0  0  0  0  0  0  0  0
   -2.1786    6.9909   -0.7909 H   0  0  0  0  0  0  0  0  0  0  0  0
   -1.1909    8.3910   -1.2601 H   0  0  0  0  0  0  0  0  0  0  0  0
  1  2  2  0  0  0  0
  1  3  1  0  0  0  0
  1  7  1  0  0  0  0
  3  4  1  0  0  0  0
  3  5  1  0  0  0  0
  3  6  1  0  0  0  0
  7  8  1  0  0  0  0
  7 13  1  0  0  0  0
  8  9  1  0  0  0  0
  8 11  1  0  0  0  0
  8 14  1  0  0  0  0
  9 10  2  0  0  0  0
  9 17  1  0  0  0  0
 11 12  1  0  0  0  0
 11 15  1  0  0  0  0
 11 16  1  0  0  0  0
 12 44  1  0  0  0  0
 17 18  1  0  0  0  0
 17 19  1  0  0  0  0
 18 20  1  0  0  0  0
 18 21  1  0  0  0  0
 18 22  1  0  0  0  0
 23 24  2  0  0  0  0
 23 25  1  0  0  0  0
 23 29  1  0  0  0  0
 25 26  1  0  0  0  0
 25 27  1  0  0  0  0
 25 28  1  0  0  0  0
 29 30  1  0  0  0  0
 29 34  1  0  0  0  0
 30 31  1  0  0  0  0
 30 33  1  0  0  0  0
 30 35  1  0  0  0  0
 31 32  2  0  0  0  0
 31 39  1  0  0  0  0
 33 36  1  0  0  0  0
 33 37  1  0  0  0  0
 33 38  1  0  0  0  0
 39 40  1  0  0  0  0
 39 45  1  0  0  0  0
 40 41  1  0  0  0  0
 40 43  1  0  0  0  0
 40 46  1  0  0  0  0
 41 42  2  0  0  0  0
 41 49  1  0  0  0  0
 43 44  1  0  0  0  0
 43 47  1  0  0  0  0
 43 48  1  0  0  0  0
 49 50  1  0  0  0  0
 49 54  1  0  0  0  0
 50 51  1  0  0  0  0
 50 53  1  0  0  0  0
 50 55  1  0  0  0  0
 51 52  2  0  0  0  0
 51 59  1  0  0  0  0
 53 56  1  0  0  0  0
 53 57  1  0  0  0  0
 53 58  1  0  0  0  0
 59 60  1  0  0  0  0
 59 61  1  0  0  0  0
 60 62  1  0  0  0  0
 60 63  1  0  0  0  0
 60 64  1  0  0  0  0
M  END
$$$$

  -OEChem-05262216053D

 64 63  0     1  0  0  0  0  0999 V2000
    1.3407   -6.4423   -6.5509 C   0  0  0  0  0  0  0  0  0  0  0  0
    0.1876   -6.2592   -6.9095 O   0  0  0  0  0  0  0  0  0  0  0  0
    1.8231   -7.8379   -6.2032 C   0  0  0  0  0  0  0  0  0  0  0  0
    2.1732   -7.8643   -5.1681 H   0  0  0  0  0  0  0  0  0  0  0  0
    1.0082   -8.5578   -6.3188 H   0  0  0  0  0  0  0  0  0  0  0  0
    2.6429   -8.1255   -6.8659 H   0  0  0  0  0  0  0  0  0  0  0  0
    2.2076   -5.3746   -6.4751 N   0  0  0  0  0  0  0  0  0  0  0  0
    1.8688   -3.9957   -6.8544 C   0  0  2  0  0  0  0  0  0  0  0  0
    3.1204   -3.1865   -7.2610 C   0  0  0  0  0  0  0  0  0  0  0  0
    4.2330   -3.6996   -7.2046 O   0  0  0  0  0  0  0  0  0  0  0  0
    1.1195   -3.3212   -5.6942 C   0  0  0  0  0  0  0  0  0  0  0  0
    2.1792   -3.1870   -4.1973 S   0  0  0  0  0  0  0  0  0  0  0  0
    3.1829   -5.5658   -6.2479 H   0  0  0  0  0  0  0  0  0  0  0  0
    1.2121   -4.0202   -7.7300 H   0  0  0  0  0  0  0  0  0  0  0  0
    0.7888   -2.3234   -5.9950 H   0  0  0  0  0  0  0  0  0  0  0  0
    0.2262   -3.9058   -5.4501 H   0  0  0  0  0  0  0  0  0  0  0  0
    3.0003   -1.8951   -7.7446 N   0  0  0  0  0  0  0  0  0  0  0  0
    4.1411   -1.0912   -8.1680 C   0  0  0  0  0  0  0  0  0  0  0  0
    2.0683   -1.4982   -7.8111 H   0  0  0  0  0  0  0  0  0  0  0  0
    4.8724   -1.0044   -7.3571 H   0  0  0  0  0  0  0  0  0  0  0  0
    4.6292   -1.5473   -9.0357 H   0  0  0  0  0  0  0  0  0  0  0  0
    3.8131   -0.0846   -8.4444 H   0  0  0  0  0  0  0  0  0  0  0  0
   -5.6278    0.8413   -1.2297 C   0  0  0  0  0  0  0  0  0  0  0  0
   -5.9366   -0.2819   -1.5955 O   0  0  0  0  0  0  0  0  0  0  0  0
   -6.4354    1.5371   -0.1505 C   0  0  0  0  0  0  0  0  0  0  0  0
   -6.8496    2.4711   -0.5380 H   0  0  0  0  0  0  0  0  0  0  0  0
   -7.2575    0.8955    0.1789 H   0  0  0  0  0  0  0  0  0  0  0  0
   -5.7957    1.7577    0.7076 H   0  0  0  0  0  0  0  0  0  0  0  0
   -4.5364    1.4789   -1.7812 N   0  0  0  0  0  0  0  0  0  0  0  0
   -3.5269    0.8050   -2.6110 C   0  0  2  0  0  0  0  0  0  0  0  0
   -2.1342    0.8284   -1.9483 C   0  0  0  0  0  0  0  0  0  0  0  0
   -1.9264    1.5321   -0.9680 O   0  0  0  0  0  0  0  0  0  0  0  0
   -3.4865    1.5314   -3.9590 C   0  0  0  0  0  0  0  0  0  0  0  0
   -4.2355    2.3311   -1.3089 H   0  0  0  0  0  0  0  0  0  0  0  0
   -3.7946   -0.2435   -2.7790 H   0  0  0  0  0  0  0  0  0  0  0  0
   -3.1923    2.5779   -3.8225 H   0  0  0  0  0  0  0  0  0  0  0  0
   -2.7708    1.0541   -4.6351 H   0  0  0  0  0  0  0  0  0  0  0  0
   -4.4744    1.5066   -4.4302 H   0  0  0  0  0  0  0  0  0  0  0  0
   -1.0788    0.1079   -2.4770 N   0  0  0  0  0  0  0  0  0  0  0  0
    0.3635    0.3711   -2.2577 C   0  0  2  0  0  0  0  0  0  0  0  0
    0.8596    1.8473   -2.3673 C   0  0  0  0  0  0  0  0  0  0  0  0
    2.0496    2.0770   -2.5477 O   0  0  0  0  0  0  0  0  0  0  0  0
    1.1231   -0.5215   -3.2550 C   0  0  0  0  0  0  0  0  0  0  0  0
    0.8496   -2.2956   -2.8606 S   0  0  0  0  0  0  0  0  0  0  0  0
   -1.3172   -0.5329   -3.2288 H   0  0  0  0  0  0  0  0  0  0  0  0
    0.6156    0.0512   -1.2418 H   0  0  0  0  0  0  0  0  0  0  0  0
    0.8092   -0.3034   -4.2797 H   0  0  0  0  0  0  0  0  0  0  0  0
    2.1992   -0.3270   -3.1896 H   0  0  0  0  0  0  0  0  0  0  0  0
    0.0046    2.9333   -2.3572 N   0  0  0  0  0  0  0  0  0  0  0  0
    0.4091    4.3425   -2.4058 C   0  0  2  0  0  0  0  0  0  0  0  0
   -0.6865    5.2523   -1.8106 C   0  0  0  0  0  0  0  0  0  0  0  0
   -1.8643    4.9094   -1.8442 O   0  0  0  0  0  0  0  0  0  0  0  0
    0.6800    4.7385   -3.8612 C   0  0  0  0  0  0  0  0  0  0  0  0
   -0.9271    2.7490   -1.9730 H   0  0  0  0  0  0  0  0  0  0  0  0
    1.3201    4.4804   -1.8144 H   0  0  0  0  0  0  0  0  0  0  0  0
   -0.2219    4.6030   -4.4669 H   0  0  0  0  0  0  0  0  0  0  0  0
    0.9860    5.7874   -3.9214 H   0  0  0  0  0  0  0  0  0  0  0  0
    1.4797    4.1222   -4.2834 H   0  0  0  0  0  0  0  0  0  0  0  0
   -0.3505    6.4678   -1.2433 N   0  0  0  0  0  0  0  0  0  0  0  0
   -1.3223    7.3451   -0.6017 C   0  0  0  0  0  0  0  0  0  0  0  0
    0.6365    6.7014   -1.1838 H   0  0  0  0  0  0  0  0  0  0  0  0
   -2.1216    7.6114   -1.3013 H   0  0  0  0  0  0  0  0  0  0  0  0
   -1.7664    6.8514    0.2690 H   0  0  0  0  0  0  0  0  0  0  0  0
   -0.8369    8.2669   -0.2675 H   0  0  0  0  0  0  0  0  0  0  0  0
  1  2  2  0  0  0  0
  1  3  1  0  0  0  0
  1  7  1  0  0  0  0
  3  4  1  0  0  0  0
  3  5  1  0  0  0  0
  3  6  1  0  0  0  0
  7  8  1  0  0  0  0
  7 13  1  0  0  0  0
  8  9  1  0  0  0  0
  8 11  1  0  0  0  0
  8 14  1  0  0  0  0
  9 10  2  0  0  0  0
  9 17  1  0  0  0  0
 11 12  1  0  0  0  0
 11 15  1  0  0  0  0
 11 16  1  0  0  0  0
 12 44  1  0  0  0  0
 17 18  1  0  0  0  0
 17 19  1  0  0  0  0
 18 20  1  0  0  0  0
 18 21  1  0  0  0  0
 18 22  1  0  0  0  0
 23 24  2  0  0  0  0
 23 25  1  0  0  0  0
 23 29  1  0  0  0  0
 25 26  1  0  0  0  0
 25 27  1  0  0  0  0
 25 28  1  0  0  0  0
 29 30  1  0  0  0  0
 29 34  1  0  0  0  0
 30 31  1  0  0  0  0
 30 33  1  0  0  0  0
 30 35  1  0  0  0  0
 31 32  2  0  0  0  0
 31 39  1  0  0  0  0
 33 36  1  0  0  0  0
 33 37  1  0  0  0  0
 33 38  1  0  0  0  0
 39 40  1  0  0  0  0
 39 45  1  0  0  0  0
 40 41  1  0  0  0  0
 40 43  1  0  0  0  0
 40 46  1  0  0  0  0
 41 42  2  0  0  0  0
 41 49  1  0  0  0  0
 43 44  1  0  0  0  0
 43 47  1  0  0  0  0
 43 48  1  0  0  0  0
 49 50  1  0  0  0  0
 49 54  1  0  0  0  0
 50 51  1  0  0  0  0
 50 53  1  0  0  0  0
 50 55  1  0  0  0  0
 51 52  2  0  0  0  0
 51 59  1  0  0  0  0
 53 56  1  0  0  0  0
 53 57  1  0  0  0  0
 53 58  1  0  0  0  0
 59 60  1  0  0  0  0
 59 61  1  0  0  0  0
 60 62  1  0  0  0  0
 60 63  1  0  0  0  0
 60 64  1  0  0  0  0
M  END
$$$$

  -OEChem-05262216053D

 64 63  0     1  0  0  0  0  0999 V2000
    1.2973   -6.3928   -6.6373 C   0  0  0  0  0  0  0  0  0  0  0  0
    0.1544   -6.1787   -7.0110 O   0  0  0  0  0  0  0  0  0  0  0  0
    1.7309   -7.7980   -6.2660 C   0  0  0  0  0  0  0  0  0  0  0  0
    2.0811   -7.8185   -5.2310 H   0  0  0  0  0  0  0  0  0  0  0  0
    0.8909   -8.4908   -6.3671 H   0  0  0  0  0  0  0  0  0  0  0  0
    2.5395   -8.1253   -6.9240 H   0  0  0  0  0  0  0  0  0  0  0  0
    2.1938   -5.3504   -6.5557 N   0  0  0  0  0  0  0  0  0  0  0  0
    1.8915   -3.9592   -6.9199 C   0  0  2  0  0  0  0  0  0  0  0  0
    3.1664   -3.1705   -7.2914 C   0  0  0  0  0  0  0  0  0  0  0  0
    4.2692   -3.7000   -7.2033 O   0  0  0  0  0  0  0  0  0  0  0  0
    1.1405   -3.2858   -5.7594 C   0  0  0  0  0  0  0  0  0  0  0  0
    2.1850   -3.1979   -4.2479 S   0  0  0  0  0  0  0  0  0  0  0  0
    3.1593   -5.5663   -6.3095 H   0  0  0  0  0  0  0  0  0  0  0  0
    1.2482   -3.9552   -7.8060 H   0  0  0  0  0  0  0  0  0  0  0  0
    0.8346   -2.2768   -6.0489 H   0  0  0  0  0  0  0  0  0  0  0  0
    0.2318   -3.8540   -5.5354 H   0  0  0  0  0  0  0  0  0  0  0  0
    3.0781   -1.8716   -7.7611 N   0  0  0  0  0  0  0  0  0  0  0  0
    4.2444   -1.0533   -8.0702 C   0  0  0  0  0  0  0  0  0  0  0  0
    2.1565   -1.4496   -7.8148 H   0  0  0  0  0  0  0  0  0  0  0  0
    4.8210   -0.8513   -7.1613 H   0  0  0  0  0  0  0  0  0  0  0  0
    4.8914   -1.5617   -8.7930 H   0  0  0  0  0  0  0  0  0  0  0  0
    3.9318   -0.0975   -8.5020 H   0  0  0  0  0  0  0  0  0  0  0  0
   -5.7962    0.9624   -1.3616 C   0  0  0  0  0  0  0  0  0  0  0  0
   -6.2442    0.1131   -2.1162 O   0  0  0  0  0  0  0  0  0  0  0  0
   -6.6889    1.5956   -0.3114 C   0  0  0  0  0  0  0  0  0  0  0  0
   -6.8014    2.6636   -0.5134 H   0  0  0  0  0  0  0  0  0  0  0  0
   -7.6770    1.1269   -0.3242 H   0  0  0  0  0  0  0  0  0  0  0  0
   -6.2502    1.4643    0.6807 H   0  0  0  0  0  0  0  0  0  0  0  0
   -4.4754    1.3434   -1.4645 N   0  0  0  0  0  0  0  0  0  0  0  0
   -3.4977    0.7113   -2.3593 C   0  0  2  0  0  0  0  0  0  0  0  0
   -2.0677    0.7730   -1.7838 C   0  0  0  0  0  0  0  0  0  0  0  0
   -1.8396    1.4057   -0.7607 O   0  0  0  0  0  0  0  0  0  0  0  0
   -3.5575    1.4279   -3.7123 C   0  0  0  0  0  0  0  0  0  0  0  0
   -4.1108    1.9805   -0.7558 H   0  0  0  0  0  0  0  0  0  0  0  0
   -3.7516   -0.3458   -2.4948 H   0  0  0  0  0  0  0  0  0  0  0  0
   -3.2930    2.4841   -3.5964 H   0  0  0  0  0  0  0  0  0  0  0  0
   -2.8642    0.9700   -4.4236 H   0  0  0  0  0  0  0  0  0  0  0  0
   -4.5675    1.3658   -4.1299 H   0  0  0  0  0  0  0  0  0  0  0  0
   -1.0308    0.0749   -2.3751 N   0  0  0  0  0  0  0  0  0  0  0  0
    0.4195    0.3275   -2.2091 C   0  0  2  0  0  0  0  0  0  0  0  0
    0.9197    1.8058   -2.2915 C   0  0  0  0  0  0  0  0  0  0  0  0
    2.0326    2.0434   -2.7470 O   0  0  0  0  0  0  0  0  0  0  0  0
    1.1261   -0.5510   -3.2589 C   0  0  0  0  0  0  0  0  0  0  0  0
    0.8563   -2.3314   -2.8930 S   0  0  0  0  0  0  0  0  0  0  0  0
   -1.2979   -0.5282   -3.1483 H   0  0  0  0  0  0  0  0  0  0  0  0
    0.7102   -0.0229   -1.2135 H   0  0  0  0  0  0  0  0  0  0  0  0
    0.7709   -0.3065   -4.2639 H   0  0  0  0  0  0  0  0  0  0  0  0
    2.2062   -0.3697   -3.2347 H   0  0  0  0  0  0  0  0  0  0  0  0
    0.1569    2.8970   -1.9203 N   0  0  0  0  0  0  0  0  0  0  0  0
    0.5681    4.3048   -2.0009 C   0  0  2  0  0  0  0  0  0  0  0  0
   -0.3384    5.2148   -1.1458 C   0  0  0  0  0  0  0  0  0  0  0  0
   -1.5086    4.9127   -0.9413 O   0  0  0  0  0  0  0  0  0  0  0  0
    0.5136    4.7684   -3.4620 C   0  0  0  0  0  0  0  0  0  0  0  0
   -0.7125    2.6945   -1.4150 H   0  0  0  0  0  0  0  0  0  0  0  0
    1.5916    4.4015   -1.6245 H   0  0  0  0  0  0  0  0  0  0  0  0
   -0.5010    4.6582   -3.8578 H   0  0  0  0  0  0  0  0  0  0  0  0
    0.8064    5.8197   -3.5408 H   0  0  0  0  0  0  0  0  0  0  0  0
    1.1956    4.1774   -4.0802 H   0  0  0  0  0  0  0  0  0  0  0  0
    0.1508    6.4039   -0.6365 N   0  0  0  0  0  0  0  0  0  0  0  0
   -0.6514    7.3191    0.1661 C   0  0  0  0  0  0  0  0  0  0  0  0
    1.1286    6.6225   -0.8044 H   0  0  0  0  0  0  0  0  0  0  0  0
   -1.5427    7.6336   -0.3870 H   0  0  0  0  0  0  0  0  0  0  0  0
   -0.9677    6.8359    1.0967 H   0  0  0  0  0  0  0  0  0  0  0  0
   -0.0705    8.2119    0.4172 H   0  0  0  0  0  0  0  0  0  0  0  0
  1  2  2  0  0  0  0
  1  3  1  0  0  0  0
  1  7  1  0  0  0  0
  3  4  1  0  0  0  0
  3  5  1  0  0  0  0
  3  6  1  0  0  0  0
  7  8  1  0  0  0  0
  7 13  1  0  0  0  0
  8  9  1  0  0  0  0
  8 11  1  0  0  0  0
  8 14  1  0  0  0  0
  9 10  2  0  0  0  0
  9 17  1  0  0  0  0
 11 12  1  0  0  0  0
 11 15  1  0  0  0  0
 11 16  1  0  0  0  0
 12 44  1  0  0  0  0
 17 18  1  0  0  0  0
 17 19  1  0  0  0  0
 18 20  1  0  0  0  0
 18 21  1  0  0  0  0
 18 22  1  0  0  0  0
 23 24  2  0  0  0  0
 23 25  1  0  0  0  0
 23 29  1  0  0  0  0
 25 26  1  0  0  0  0
 25 27  1  0  0  0  0
 25 28  1  0  0  0  0
 29 30  1  0  0  0  0
 29 34  1  0  0  0  0
 30 31  1  0  0  0  0
 30 33  1  0  0  0  0
 30 35  1  0  0  0  0
 31 32  2  0  0  0  0
 31 39  1  0  0  0  0
 33 36  1  0  0  0  0
 33 37  1  0  0  0  0
 33 38  1  0  0  0  0
 39 40  1  0  0  0  0
 39 45  1  0  0  0  0
 40 41  1  0  0  0  0
 40 43  1  0  0  0  0
 40 46  1  0  0  0  0
 41 42  2  0  0  0  0
 41 49  1  0  0  0  0
 43 44  1  0  0  0  0
 43 47  1  0  0  0  0
 43 48  1  0  0  0  0
 49 50  1  0  0  0  0
 49 54  1  0  0  0  0
 50 51  1  0  0  0  0
 50 53  1  0  0  0  0
 50 55  1  0  0  0  0
 51 52  2  0  0  0  0
 51 59  1  0  0  0  0
 53 56  1  0  0  0  0
 53 57  1  0  0  0  0
 53 58  1  0  0  0  0
 59 60  1  0  0  0  0
 59 61  1  0  0  0  0
 60 62  1  0  0  0  0
 60 63  1  0  0  0  0
 60 64  1  0  0  0  0
M  END
$$$$

  -OEChem-05262216053D

 64 63  0     1  0  0  0  0  0999 V2000
    1.3110   -6.3989   -6.5968 C   0  0  0  0  0  0  0  0  0  0  0  0
    0.1599   -6.1977   -6.9521 O   0  0  0  0  0  0  0  0  0  0  0  0
    1.7681   -7.7992   -6.2357 C   0  0  0  0  0  0  0  0  0  0  0  0
    2.1564   -7.8127   -5.2143 H   0  0  0  0  0  0  0  0  0  0  0  0
    0.9294   -8.4978   -6.3027 H   0  0  0  0  0  0  0  0  0  0  0  0
    2.5543   -8.1237   -6.9218 H   0  0  0  0  0  0  0  0  0  0  0  0
    2.1967   -5.3466   -6.5276 N   0  0  0  0  0  0  0  0  0  0  0  0
    1.8749   -3.9586   -6.8859 C   0  0  2  0  0  0  0  0  0  0  0  0
    3.1402   -3.1560   -7.2608 C   0  0  0  0  0  0  0  0  0  0  0  0
    4.2471   -3.6804   -7.1919 O   0  0  0  0  0  0  0  0  0  0  0  0
    1.1204   -3.2975   -5.7209 C   0  0  0  0  0  0  0  0  0  0  0  0
    2.1626   -3.2154   -4.2077 S   0  0  0  0  0  0  0  0  0  0  0  0
    3.1679   -5.5517   -6.2949 H   0  0  0  0  0  0  0  0  0  0  0  0
    1.2276   -3.9608   -7.7691 H   0  0  0  0  0  0  0  0  0  0  0  0
    0.8092   -2.2880   -6.0033 H   0  0  0  0  0  0  0  0  0  0  0  0
    0.2147   -3.8720   -5.5010 H   0  0  0  0  0  0  0  0  0  0  0  0
    3.0407   -1.8550   -7.7222 N   0  0  0  0  0  0  0  0  0  0  0  0
    4.1993   -1.0438   -8.0767 C   0  0  0  0  0  0  0  0  0  0  0  0
    2.1161   -1.4392   -7.7766 H   0  0  0  0  0  0  0  0  0  0  0  0
    4.8680   -0.9331   -7.2164 H   0  0  0  0  0  0  0  0  0  0  0  0
    4.7557   -1.5078   -8.8979 H   0  0  0  0  0  0  0  0  0  0  0  0
    3.8803   -0.0469   -8.3955 H   0  0  0  0  0  0  0  0  0  0  0  0
   -5.8102    0.9231   -1.4441 C   0  0  0  0  0  0  0  0  0  0  0  0
   -6.2422    0.1096   -2.2455 O   0  0  0  0  0  0  0  0  0  0  0  0
   -6.7104    1.4742   -0.3553 C   0  0  0  0  0  0  0  0  0  0  0  0
   -6.8182    2.5549   -0.4742 H   0  0  0  0  0  0  0  0  0  0  0  0
   -7.6997    1.0120   -0.4134 H   0  0  0  0  0  0  0  0  0  0  0  0
   -6.2799    1.2631    0.6265 H   0  0  0  0  0  0  0  0  0  0  0  0
   -4.4981    1.3377   -1.5253 N   0  0  0  0  0  0  0  0  0  0  0  0
   -3.5030    0.7610   -2.4389 C   0  0  2  0  0  0  0  0  0  0  0  0
   -2.0835    0.8110   -1.8368 C   0  0  0  0  0  0  0  0  0  0  0  0
   -1.8776    1.4257   -0.7986 O   0  0  0  0  0  0  0  0  0  0  0  0
   -3.5527    1.5412   -3.7562 C   0  0  0  0  0  0  0  0  0  0  0  0
   -4.1434    1.9212   -0.7667 H   0  0  0  0  0  0  0  0  0  0  0  0
   -3.7412   -0.2910   -2.6297 H   0  0  0  0  0  0  0  0  0  0  0  0
   -3.3072    2.5943   -3.5847 H   0  0  0  0  0  0  0  0  0  0  0  0
   -2.8411    1.1286   -4.4772 H   0  0  0  0  0  0  0  0  0  0  0  0
   -4.5553    1.4843   -4.1919 H   0  0  0  0  0  0  0  0  0  0  0  0
   -1.0430    0.1034   -2.4088 N   0  0  0  0  0  0  0  0  0  0  0  0
    0.4054    0.3382   -2.2118 C   0  0  2  0  0  0  0  0  0  0  0  0
    0.9158    1.8134   -2.2789 C   0  0  0  0  0  0  0  0  0  0  0  0
    1.9109    2.0834   -2.9429 O   0  0  0  0  0  0  0  0  0  0  0  0
    1.1322   -0.5530   -3.2360 C   0  0  0  0  0  0  0  0  0  0  0  0
    0.8363   -2.3283   -2.8651 S   0  0  0  0  0  0  0  0  0  0  0  0
   -1.3003   -0.4871   -3.1949 H   0  0  0  0  0  0  0  0  0  0  0  0
    0.6682   -0.0130   -1.2086 H   0  0  0  0  0  0  0  0  0  0  0  0
    0.8076   -0.3114   -4.2524 H   0  0  0  0  0  0  0  0  0  0  0  0
    2.2123   -0.3780   -3.1826 H   0  0  0  0  0  0  0  0  0  0  0  0
    0.2861    2.8717   -1.6516 N   0  0  0  0  0  0  0  0  0  0  0  0
    0.7256    4.2734   -1.6899 C   0  0  2  0  0  0  0  0  0  0  0  0
    0.1656    5.0955   -0.5113 C   0  0  0  0  0  0  0  0  0  0  0  0
   -0.9241    4.8239   -0.0226 O   0  0  0  0  0  0  0  0  0  0  0  0
    0.2711    4.9031   -3.0114 C   0  0  0  0  0  0  0  0  0  0  0  0
   -0.5308    2.6461   -1.0718 H   0  0  0  0  0  0  0  0  0  0  0  0
    1.8181    4.3083   -1.6270 H   0  0  0  0  0  0  0  0  0  0  0  0
   -0.8205    4.8752   -3.0893 H   0  0  0  0  0  0  0  0  0  0  0  0
    0.5979    5.9459   -3.0705 H   0  0  0  0  0  0  0  0  0  0  0  0
    0.6962    4.3614   -3.8619 H   0  0  0  0  0  0  0  0  0  0  0  0
    0.8709    6.1809   -0.0246 N   0  0  0  0  0  0  0  0  0  0  0  0
    0.3925    7.0200    1.0673 C   0  0  0  0  0  0  0  0  0  0  0  0
    1.7771    6.3791   -0.4385 H   0  0  0  0  0  0  0  0  0  0  0  0
   -0.5454    7.5117    0.7888 H   0  0  0  0  0  0  0  0  0  0  0  0
    0.2207    6.4181    1.9660 H   0  0  0  0  0  0  0  0  0  0  0  0
    1.1314    7.7919    1.3034 H   0  0  0  0  0  0  0  0  0  0  0  0
  1  2  2  0  0  0  0
  1  3  1  0  0  0  0
  1  7  1  0  0  0  0
  3  4  1  0  0  0  0
  3  5  1  0  0  0  0
  3  6  1  0  0  0  0
  7  8  1  0  0  0  0
  7 13  1  0  0  0  0
  8  9  1  0  0  0  0
  8 11  1  0  0  0  0
  8 14  1  0  0  0  0
  9 10  2  0  0  0  0
  9 17  1  0  0  0  0
 11 12  1  0  0  0  0
 11 15  1  0  0  0  0
 11 16  1  0  0  0  0
 12 44  1  0  0  0  0
 17 18  1  0  0  0  0
 17 19  1  0  0  0  0
 18 20  1  0  0  0  0
 18 21  1  0  0  0  0
 18 22  1  0  0  0  0
 23 24  2  0  0  0  0
 23 25  1  0  0  0  0
 23 29  1  0  0  0  0
 25 26  1  0  0  0  0
 25 27  1  0  0  0  0
 25 28  1  0  0  0  0
 29 30  1  0  0  0  0
 29 34  1  0  0  0  0
 30 31  1  0  0  0  0
 30 33  1  0  0  0  0
 30 35  1  0  0  0  0
 31 32  2  0  0  0  0
 31 39  1  0  0  0  0
 33 36  1  0  0  0  0
 33 37  1  0  0  0  0
 33 38  1  0  0  0  0
 39 40  1  0  0  0  0
 39 45  1  0  0  0  0
 40 41  1  0  0  0  0
 40 43  1  0  0  0  0
 40 46  1  0  0  0  0
 41 42  2  0  0  0  0
 41 49  1  0  0  0  0
 43 44  1  0  0  0  0
 43 47  1  0  0  0  0
 43 48  1  0  0  0  0
 49 50  1  0  0  0  0
 49 54  1  0  0  0  0
 50 51  1  0  0  0  0
 50 53  1  0  0  0  0
 50 55  1  0  0  0  0
 51 52  2  0  0  0  0
 51 59  1  0  0  0  0
 53 56  1  0  0  0  0
 53 57  1  0  0  0  0
 53 58  1  0  0  0  0
 59 60  1  0  0  0  0
 59 61  1  0  0  0  0
 60 62  1  0  0  0  0
 60 63  1  0  0  0  0
 60 64  1  0  0  0  0
M  END
$$$$

  -OEChem-05262216053D

 64 63  0     1  0  0  0  0  0999 V2000
    1.2820   -6.3907   -6.6098 C   0  0  0  0  0  0  0  0  0  0  0  0
    0.1395   -6.1829   -6.9883 O   0  0  0  0  0  0  0  0  0  0  0  0
    1.7273   -7.7965   -6.2545 C   0  0  0  0  0  0  0  0  0  0  0  0
    2.0685   -7.8279   -5.2166 H   0  0  0  0  0  0  0  0  0  0  0  0
    0.8957   -8.4968   -6.3738 H   0  0  0  0  0  0  0  0  0  0  0  0
    2.5451   -8.1059   -6.9098 H   0  0  0  0  0  0  0  0  0  0  0  0
    2.1681   -5.3410   -6.5091 N   0  0  0  0  0  0  0  0  0  0  0  0
    1.8558   -3.9471   -6.8544 C   0  0  2  0  0  0  0  0  0  0  0  0
    3.1276   -3.1415   -7.2004 C   0  0  0  0  0  0  0  0  0  0  0  0
    4.2338   -3.6633   -7.1067 O   0  0  0  0  0  0  0  0  0  0  0  0
    1.0864   -3.2988   -5.6921 C   0  0  0  0  0  0  0  0  0  0  0  0
    2.1001   -3.2508   -4.1581 S   0  0  0  0  0  0  0  0  0  0  0  0
    3.1325   -5.5507   -6.2537 H   0  0  0  0  0  0  0  0  0  0  0  0
    1.2214   -3.9356   -7.7468 H   0  0  0  0  0  0  0  0  0  0  0  0
    0.7892   -2.2824   -5.9633 H   0  0  0  0  0  0  0  0  0  0  0  0
    0.1716   -3.8681   -5.4985 H   0  0  0  0  0  0  0  0  0  0  0  0
    3.0361   -1.8401   -7.6630 N   0  0  0  0  0  0  0  0  0  0  0  0
    4.2007   -1.0245   -7.9881 C   0  0  0  0  0  0  0  0  0  0  0  0
    2.1122   -1.4255   -7.7360 H   0  0  0  0  0  0  0  0  0  0  0  0
    4.8379   -0.8981   -7.1062 H   0  0  0  0  0  0  0  0  0  0  0  0
    4.7887   -1.4956   -8.7828 H   0  0  0  0  0  0  0  0  0  0  0  0
    3.8866   -0.0341   -8.3321 H   0  0  0  0  0  0  0  0  0  0  0  0
   -5.8214    0.8894   -1.5162 C   0  0  0  0  0  0  0  0  0  0  0  0
   -6.2253    0.0738   -2.3300 O   0  0  0  0  0  0  0  0  0  0  0  0
   -6.7438    1.3951   -0.4230 C   0  0  0  0  0  0  0  0  0  0  0  0
   -6.8870    2.4737   -0.5251 H   0  0  0  0  0  0  0  0  0  0  0  0
   -7.7168    0.9008   -0.4940 H   0  0  0  0  0  0  0  0  0  0  0  0
   -6.3118    1.1818    0.5579 H   0  0  0  0  0  0  0  0  0  0  0  0
   -4.5200    1.3400   -1.5855 N   0  0  0  0  0  0  0  0  0  0  0  0
   -3.5063    0.7959   -2.4991 C   0  0  2  0  0  0  0  0  0  0  0  0
   -2.0841    0.9162   -1.9137 C   0  0  0  0  0  0  0  0  0  0  0  0
   -1.8884    1.6119   -0.9263 O   0  0  0  0  0  0  0  0  0  0  0  0
   -3.5943    1.5479   -3.8309 C   0  0  0  0  0  0  0  0  0  0  0  0
   -4.1852    1.9290   -0.8225 H   0  0  0  0  0  0  0  0  0  0  0  0
   -3.7014   -0.2685   -2.6699 H   0  0  0  0  0  0  0  0  0  0  0  0
   -3.3971    2.6143   -3.6818 H   0  0  0  0  0  0  0  0  0  0  0  0
   -2.8638    1.1548   -4.5439 H   0  0  0  0  0  0  0  0  0  0  0  0
   -4.5928    1.4360   -4.2656 H   0  0  0  0  0  0  0  0  0  0  0  0
   -1.0442    0.1726   -2.4417 N   0  0  0  0  0  0  0  0  0  0  0  0
    0.4037    0.3483   -2.1934 C   0  0  2  0  0  0  0  0  0  0  0  0
    0.9675    1.8014   -2.2430 C   0  0  0  0  0  0  0  0  0  0  0  0
    1.8359    2.0955   -3.0583 O   0  0  0  0  0  0  0  0  0  0  0  0
    1.1391   -0.5652   -3.1900 C   0  0  0  0  0  0  0  0  0  0  0  0
    0.7692   -2.3309   -2.8414 S   0  0  0  0  0  0  0  0  0  0  0  0
   -1.2998   -0.4672   -3.1892 H   0  0  0  0  0  0  0  0  0  0  0  0
    0.6176   -0.0138   -1.1825 H   0  0  0  0  0  0  0  0  0  0  0  0
    0.8625   -0.3104   -4.2175 H   0  0  0  0  0  0  0  0  0  0  0  0
    2.2208   -0.4216   -3.0924 H   0  0  0  0  0  0  0  0  0  0  0  0
    0.5280    2.8049   -1.4020 N   0  0  0  0  0  0  0  0  0  0  0  0
    1.0216    4.1890   -1.3912 C   0  0  2  0  0  0  0  0  0  0  0  0
    0.8684    4.8634   -0.0108 C   0  0  0  0  0  0  0  0  0  0  0  0
    0.0611    4.4426    0.8084 O   0  0  0  0  0  0  0  0  0  0  0  0
    0.2520    4.9831   -2.4513 C   0  0  0  0  0  0  0  0  0  0  0  0
   -0.2593    2.5755   -0.7835 H   0  0  0  0  0  0  0  0  0  0  0  0
    2.0886    4.1953   -1.6371 H   0  0  0  0  0  0  0  0  0  0  0  0
   -0.8182    4.9864   -2.2205 H   0  0  0  0  0  0  0  0  0  0  0  0
    0.6047    6.0182   -2.4866 H   0  0  0  0  0  0  0  0  0  0  0  0
    0.3943    4.5362   -3.4401 H   0  0  0  0  0  0  0  0  0  0  0  0
    1.6305    5.9728    0.3096 N   0  0  0  0  0  0  0  0  0  0  0  0
    1.5263    6.6744    1.5838 C   0  0  0  0  0  0  0  0  0  0  0  0
    2.3026    6.2987   -0.3784 H   0  0  0  0  0  0  0  0  0  0  0  0
    0.5262    7.1038    1.7043 H   0  0  0  0  0  0  0  0  0  0  0  0
    1.7178    5.9895    2.4164 H   0  0  0  0  0  0  0  0  0  0  0  0
    2.2588    7.4858    1.6307 H   0  0  0  0  0  0  0  0  0  0  0  0
  1  2  2  0  0  0  0
  1  3  1  0  0  0  0
  1  7  1  0  0  0  0
  3  4  1  0  0  0  0
  3  5  1  0  0  0  0
  3  6  1  0  0  0  0
  7  8  1  0  0  0  0
  7 13  1  0  0  0  0
  8  9  1  0  0  0  0
  8 11  1  0  0  0  0
  8 14  1  0  0  0  0
  9 10  2  0  0  0  0
  9 17  1  0  0  0  0
 11 12  1  0  0  0  0
 11 15  1  0  0  0  0
 11 16  1  0  0  0  0
 12 44  1  0  0  0  0
 17 18  1  0  0  0  0
 17 19  1  0  0  0  0
 18 20  1  0  0  0  0
 18 21  1  0  0  0  0
 18 22  1  0  0  0  0
 23 24  2  0  0  0  0
 23 25  1  0  0  0  0
 23 29  1  0  0  0  0
 25 26  1  0  0  0  0
 25 27  1  0  0  0  0
 25 28  1  0  0  0  0
 29 30  1  0  0  0  0
 29 34  1  0  0  0  0
 30 31  1  0  0  0  0
 30 33  1  0  0  0  0
 30 35  1  0  0  0  0
 31 32  2  0  0  0  0
 31 39  1  0  0  0  0
 33 36  1  0  0  0  0
 33 37  1  0  0  0  0
 33 38  1  0  0  0  0
 39 40  1  0  0  0  0
 39 45  1  0  0  0  0
 40 41  1  0  0  0  0
 40 43  1  0  0  0  0
 40 46  1  0  0  0  0
 41 42  2  0  0  0  0
 41 49  1  0  0  0  0
 43 44  1  0  0  0  0
 43 47  1  0  0  0  0
 43 48  1  0  0  0  0
 49 50  1  0  0  0  0
 49 54  1  0  0  0  0
 50 51  1  0  0  0  0
 50 53  1  0  0  0  0
 50 55  1  0  0  0  0
 51 52  2  0  0  0  0
 51 59  1  0  0  0  0
 53 56  1  0  0  0  0
 53 57  1  0  0  0  0
 53 58  1  0  0  0  0
 59 60  1  0  0  0  0
 59 61  1  0  0  0  0
 60 62  1  0  0  0  0
 60 63  1  0  0  0  0
 60 64  1  0  0  0  0
M  END
$$$$

  -OEChem-05262216053D

 64 63  0     1  0  0  0  0  0999 V2000
    1.2724   -6.4040   -6.6270 C   0  0  0  0  0  0  0  0  0  0  0  0
    0.1315   -6.1925   -7.0083 O   0  0  0  0  0  0  0  0  0  0  0  0
    1.7168   -7.8113   -6.2787 C   0  0  0  0  0  0  0  0  0  0  0  0
    2.0307   -7.8526   -5.2328 H   0  0  0  0  0  0  0  0  0  0  0  0
    0.8936   -8.5150   -6.4287 H   0  0  0  0  0  0  0  0  0  0  0  0
    2.5537   -8.1071   -6.9159 H   0  0  0  0  0  0  0  0  0  0  0  0
    2.1596   -5.3567   -6.5142 N   0  0  0  0  0  0  0  0  0  0  0  0
    1.8496   -3.9591   -6.8444 C   0  0  2  0  0  0  0  0  0  0  0  0
    3.1233   -3.1475   -7.1660 C   0  0  0  0  0  0  0  0  0  0  0  0
    4.2300   -3.6678   -7.0700 O   0  0  0  0  0  0  0  0  0  0  0  0
    1.0646   -3.3249   -5.6840 C   0  0  0  0  0  0  0  0  0  0  0  0
    2.0536   -3.3093   -4.1334 S   0  0  0  0  0  0  0  0  0  0  0  0
    3.1231   -5.5701   -6.2581 H   0  0  0  0  0  0  0  0  0  0  0  0
    1.2269   -3.9376   -7.7448 H   0  0  0  0  0  0  0  0  0  0  0  0
    0.7792   -2.3016   -5.9429 H   0  0  0  0  0  0  0  0  0  0  0  0
    0.1424   -3.8910   -5.5156 H   0  0  0  0  0  0  0  0  0  0  0  0
    3.0294   -1.8426   -7.6169 N   0  0  0  0  0  0  0  0  0  0  0  0
    4.1904   -1.0246   -7.9463 C   0  0  0  0  0  0  0  0  0  0  0  0
    2.1036   -1.4339   -7.6979 H   0  0  0  0  0  0  0  0  0  0  0  0
    4.8297   -0.8945   -7.0666 H   0  0  0  0  0  0  0  0  0  0  0  0
    4.7773   -1.4941   -8.7430 H   0  0  0  0  0  0  0  0  0  0  0  0
    3.8709   -0.0361   -8.2903 H   0  0  0  0  0  0  0  0  0  0  0  0
   -5.7410    0.9462   -1.4619 C   0  0  0  0  0  0  0  0  0  0  0  0
   -6.1509    0.0841   -2.2228 O   0  0  0  0  0  0  0  0  0  0  0  0
   -6.6358    1.4787   -0.3589 C   0  0  0  0  0  0  0  0  0  0  0  0
   -6.8186    2.5454   -0.5092 H   0  0  0  0  0  0  0  0  0  0  0  0
   -7.5945    0.9527   -0.3645 H   0  0  0  0  0  0  0  0  0  0  0  0
   -6.1586    1.3303    0.6129 H   0  0  0  0  0  0  0  0  0  0  0  0
   -4.4570    1.4298   -1.5986 N   0  0  0  0  0  0  0  0  0  0  0  0
   -3.4594    0.8767   -2.5241 C   0  0  2  0  0  0  0  0  0  0  0  0
   -2.0271    1.0024   -1.9641 C   0  0  0  0  0  0  0  0  0  0  0  0
   -1.8009    1.7593   -1.0284 O   0  0  0  0  0  0  0  0  0  0  0  0
   -3.5752    1.6173   -3.8599 C   0  0  0  0  0  0  0  0  0  0  0  0
   -4.1138    2.0583   -0.8727 H   0  0  0  0  0  0  0  0  0  0  0  0
   -3.6568   -0.1890   -2.6839 H   0  0  0  0  0  0  0  0  0  0  0  0
   -3.3765    2.6855   -3.7243 H   0  0  0  0  0  0  0  0  0  0  0  0
   -2.8591    1.2184   -4.5847 H   0  0  0  0  0  0  0  0  0  0  0  0
   -4.5830    1.5005   -4.2717 H   0  0  0  0  0  0  0  0  0  0  0  0
   -1.0115    0.2076   -2.4641 N   0  0  0  0  0  0  0  0  0  0  0  0
    0.4345    0.3359   -2.1888 C   0  0  2  0  0  0  0  0  0  0  0  0
    1.0244    1.7733   -2.2541 C   0  0  0  0  0  0  0  0  0  0  0  0
    1.7428    2.1099   -3.1904 O   0  0  0  0  0  0  0  0  0  0  0  0
    1.1645   -0.5981   -3.1684 C   0  0  0  0  0  0  0  0  0  0  0  0
    0.7361   -2.3527   -2.8290 S   0  0  0  0  0  0  0  0  0  0  0  0
   -1.2856   -0.4754   -3.1653 H   0  0  0  0  0  0  0  0  0  0  0  0
    0.6246   -0.0215   -1.1715 H   0  0  0  0  0  0  0  0  0  0  0  0
    0.9111   -0.3391   -4.2009 H   0  0  0  0  0  0  0  0  0  0  0  0
    2.2475   -0.4781   -3.0529 H   0  0  0  0  0  0  0  0  0  0  0  0
    0.7975    2.6877   -1.2452 N   0  0  0  0  0  0  0  0  0  0  0  0
    1.3142    4.0615   -1.2085 C   0  0  2  0  0  0  0  0  0  0  0  0
    1.4646    4.5947    0.2330 C   0  0  0  0  0  0  0  0  0  0  0  0
    0.8404    4.0907    1.1590 O   0  0  0  0  0  0  0  0  0  0  0  0
    0.3604    4.9557   -2.0073 C   0  0  0  0  0  0  0  0  0  0  0  0
    0.0513    2.4495   -0.5836 H   0  0  0  0  0  0  0  0  0  0  0  0
    2.3067    4.0891   -1.6694 H   0  0  0  0  0  0  0  0  0  0  0  0
   -0.6418    4.9306   -1.5672 H   0  0  0  0  0  0  0  0  0  0  0  0
    0.7148    5.9909   -2.0097 H   0  0  0  0  0  0  0  0  0  0  0  0
    0.2943    4.6122   -3.0445 H   0  0  0  0  0  0  0  0  0  0  0  0
    2.3051    5.6619    0.4956 N   0  0  0  0  0  0  0  0  0  0  0  0
    2.5057    6.2110    1.8316 C   0  0  0  0  0  0  0  0  0  0  0  0
    2.8276    6.0538   -0.2821 H   0  0  0  0  0  0  0  0  0  0  0  0
    1.5573    6.5736    2.2423 H   0  0  0  0  0  0  0  0  0  0  0  0
    2.9117    5.4471    2.5034 H   0  0  0  0  0  0  0  0  0  0  0  0
    3.2094    7.0481    1.7958 H   0  0  0  0  0  0  0  0  0  0  0  0
  1  2  2  0  0  0  0
  1  3  1  0  0  0  0
  1  7  1  0  0  0  0
  3  4  1  0  0  0  0
  3  5  1  0  0  0  0
  3  6  1  0  0  0  0
  7  8  1  0  0  0  0
  7 13  1  0  0  0  0
  8  9  1  0  0  0  0
  8 11  1  0  0  0  0
  8 14  1  0  0  0  0
  9 10  2  0  0  0  0
  9 17  1  0  0  0  0
 11 12  1  0  0  0  0
 11 15  1  0  0  0  0
 11 16  1  0  0  0  0
 12 44  1  0  0  0  0
 17 18  1  0  0  0  0
 17 19  1  0  0  0  0
 18 20  1  0  0  0  0
 18 21  1  0  0  0  0
 18 22  1  0  0  0  0
 23 24  2  0  0  0  0
 23 25  1  0  0  0  0
 23 29  1  0  0  0  0
 25 26  1  0  0  0  0
 25 27  1  0  0  0  0
 25 28  1  0  0  0  0
 29 30  1  0  0  0  0
 29 34  1  0  0  0  0
 30 31  1  0  0  0  0
 30 33  1  0  0  0  0
 30 35  1  0  0  0  0
 31 32  2  0  0  0  0
 31 39  1  0  0  0  0
 33 36  1  0  0  0  0
 33 37  1  0  0  0  0
 33 38  1  0  0  0  0
 39 40  1  0  0  0  0
 39 45  1  0  0  0  0
 40 41  1  0  0  0  0
 40 43  1  0  0  0  0
 40 46  1  0  0  0  0
 41 42  2  0  0  0  0
 41 49  1  0  0  0  0
 43 44  1  0  0  0  0
 43 47  1  0  0  0  0
 43 48  1  0  0  0  0
 49 50  1  0  0  0  0
 49 54  1  0  0  0  0
 50 51  1  0  0  0  0
 50 53  1  0  0  0  0
 50 55  1  0  0  0  0
 51 52  2  0  0  0  0
 51 59  1  0  0  0  0
 53 56  1  0  0  0  0
 53 57  1  0  0  0  0
 53 58  1  0  0  0  0
 59 60  1  0  0  0  0
 59 61  1  0  0  0  0
 60 62  1  0  0  0  0
 60 63  1  0  0  0  0
 60 64  1  0  0  0  0
M  END
$$$$

  -OEChem-05262216053D

 64 63  0     1  0  0  0  0  0999 V2000
    1.2733   -6.4194   -6.6530 C   0  0  0  0  0  0  0  0  0  0  0  0
    0.1347   -6.2083   -7.0408 O   0  0  0  0  0  0  0  0  0  0  0  0
    1.7153   -7.8271   -6.3021 C   0  0  0  0  0  0  0  0  0  0  0  0
    2.0856   -7.8551   -5.2745 H   0  0  0  0  0  0  0  0  0  0  0  0
    0.8734   -8.5189   -6.3917 H   0  0  0  0  0  0  0  0  0  0  0  0
    2.5111   -8.1494   -6.9780 H   0  0  0  0  0  0  0  0  0  0  0  0
    2.1561   -5.3695   -6.5305 N   0  0  0  0  0  0  0  0  0  0  0  0
    1.8439   -3.9699   -6.8524 C   0  0  2  0  0  0  0  0  0  0  0  0
    3.1160   -3.1551   -7.1746 C   0  0  0  0  0  0  0  0  0  0  0  0
    4.2212   -3.6827   -7.1063 O   0  0  0  0  0  0  0  0  0  0  0  0
    1.0683   -3.3435   -5.6829 C   0  0  0  0  0  0  0  0  0  0  0  0
    2.0625   -3.3570   -4.1353 S   0  0  0  0  0  0  0  0  0  0  0  0
    3.1169   -5.5798   -6.2626 H   0  0  0  0  0  0  0  0  0  0  0  0
    1.2143   -3.9419   -7.7478 H   0  0  0  0  0  0  0  0  0  0  0  0
    0.7917   -2.3144   -5.9282 H   0  0  0  0  0  0  0  0  0  0  0  0
    0.1419   -3.9039   -5.5188 H   0  0  0  0  0  0  0  0  0  0  0  0
    3.0248   -1.8359   -7.5830 N   0  0  0  0  0  0  0  0  0  0  0  0
    4.1878   -1.0131   -7.8917 C   0  0  0  0  0  0  0  0  0  0  0  0
    2.1016   -1.4159   -7.6293 H   0  0  0  0  0  0  0  0  0  0  0  0
    4.8325   -0.9151   -7.0119 H   0  0  0  0  0  0  0  0  0  0  0  0
    4.7675   -1.4598   -8.7063 H   0  0  0  0  0  0  0  0  0  0  0  0
    3.8718   -0.0125   -8.2021 H   0  0  0  0  0  0  0  0  0  0  0  0
   -5.6694    1.0529   -1.4075 C   0  0  0  0  0  0  0  0  0  0  0  0
   -6.1167    0.2084   -2.1671 O   0  0  0  0  0  0  0  0  0  0  0  0
   -6.5329    1.6106   -0.2923 C   0  0  0  0  0  0  0  0  0  0  0  0
   -6.6844    2.6828   -0.4389 H   0  0  0  0  0  0  0  0  0  0  0  0
   -7.5070    1.1136   -0.2860 H   0  0  0  0  0  0  0  0  0  0  0  0
   -6.0479    1.4460    0.6729 H   0  0  0  0  0  0  0  0  0  0  0  0
   -4.3727    1.4963   -1.5587 N   0  0  0  0  0  0  0  0  0  0  0  0
   -3.4081    0.9252   -2.5073 C   0  0  2  0  0  0  0  0  0  0  0  0
   -1.9631    1.0169   -1.9751 C   0  0  0  0  0  0  0  0  0  0  0  0
   -1.6927    1.7881   -1.0618 O   0  0  0  0  0  0  0  0  0  0  0  0
   -3.5356    1.6740   -3.8374 C   0  0  0  0  0  0  0  0  0  0  0  0
   -4.0012    2.1165   -0.8398 H   0  0  0  0  0  0  0  0  0  0  0  0
   -3.6325   -0.1353   -2.6663 H   0  0  0  0  0  0  0  0  0  0  0  0
   -3.3172    2.7378   -3.6995 H   0  0  0  0  0  0  0  0  0  0  0  0
   -2.8386    1.2684   -4.5768 H   0  0  0  0  0  0  0  0  0  0  0  0
   -4.5524    1.5757   -4.2314 H   0  0  0  0  0  0  0  0  0  0  0  0
   -0.9801    0.1803   -2.4720 N   0  0  0  0  0  0  0  0  0  0  0  0
    0.4643    0.2867   -2.1928 C   0  0  2  0  0  0  0  0  0  0  0  0
    1.0498    1.7206   -2.2856 C   0  0  0  0  0  0  0  0  0  0  0  0
    1.5620    2.1179   -3.3276 O   0  0  0  0  0  0  0  0  0  0  0  0
    1.1957   -0.6507   -3.1639 C   0  0  0  0  0  0  0  0  0  0  0  0
    0.7488   -2.4004   -2.8291 S   0  0  0  0  0  0  0  0  0  0  0  0
   -1.2710   -0.4960   -3.1729 H   0  0  0  0  0  0  0  0  0  0  0  0
    0.6514   -0.0633   -1.1724 H   0  0  0  0  0  0  0  0  0  0  0  0
    0.9545   -0.3890   -4.1987 H   0  0  0  0  0  0  0  0  0  0  0  0
    2.2774   -0.5357   -3.0359 H   0  0  0  0  0  0  0  0  0  0  0  0
    1.0797    2.5404   -1.1752 N   0  0  0  0  0  0  0  0  0  0  0  0
    1.6291    3.9010   -1.1409 C   0  0  2  0  0  0  0  0  0  0  0  0
    2.0902    4.3034    0.2763 C   0  0  0  0  0  0  0  0  0  0  0  0
    1.6906    3.6946    1.2621 O   0  0  0  0  0  0  0  0  0  0  0  0
    0.5539    4.8695   -1.6437 C   0  0  0  0  0  0  0  0  0  0  0  0
    0.4920    2.2573   -0.3883 H   0  0  0  0  0  0  0  0  0  0  0  0
    2.5034    3.9579   -1.7976 H   0  0  0  0  0  0  0  0  0  0  0  0
   -0.3278    4.8284   -0.9958 H   0  0  0  0  0  0  0  0  0  0  0  0
    0.9340    5.8953   -1.6521 H   0  0  0  0  0  0  0  0  0  0  0  0
    0.2498    4.6067   -2.6616 H   0  0  0  0  0  0  0  0  0  0  0  0
    2.9651    5.3608    0.4490 N   0  0  0  0  0  0  0  0  0  0  0  0
    3.4683    5.7772    1.7526 C   0  0  0  0  0  0  0  0  0  0  0  0
    3.3029    5.8337   -0.3838 H   0  0  0  0  0  0  0  0  0  0  0  0
    2.6392    6.0394    2.4184 H   0  0  0  0  0  0  0  0  0  0  0  0
    4.0491    4.9714    2.2138 H   0  0  0  0  0  0  0  0  0  0  0  0
    4.1151    6.6532    1.6459 H   0  0  0  0  0  0  0  0  0  0  0  0
  1  2  2  0  0  0  0
  1  3  1  0  0  0  0
  1  7  1  0  0  0  0
  3  4  1  0  0  0  0
  3  5  1  0  0  0  0
  3  6  1  0  0  0  0
  7  8  1  0  0  0  0
  7 13  1  0  0  0  0
  8  9  1  0  0  0  0
  8 11  1  0  0  0  0
  8 14  1  0  0  0  0
  9 10  2  0  0  0  0
  9 17  1  0  0  0  0
 11 12  1  0  0  0  0
 11 15  1  0  0  0  0
 11 16  1  0  0  0  0
 12 44  1  0  0  0  0
 17 18  1  0  0  0  0
 17 19  1  0  0  0  0
 18 20  1  0  0  0  0
 18 21  1  0  0  0  0
 18 22  1  0  0  0  0
 23 24  2  0  0  0  0
 23 25  1  0  0  0  0
 23 29  1  0  0  0  0
 25 26  1  0  0  0  0
 25 27  1  0  0  0  0
 25 28  1  0  0  0  0
 29 30  1  0  0  0  0
 29 34  1  0  0  0  0
 30 31  1  0  0  0  0
 30 33  1  0  0  0  0
 30 35  1  0  0  0  0
 31 32  2  0  0  0  0
 31 39  1  0  0  0  0
 33 36  1  0  0  0  0
 33 37  1  0  0  0  0
 33 38  1  0  0  0  0
 39 40  1  0  0  0  0
 39 45  1  0  0  0  0
 40 41  1  0  0  0  0
 40 43  1  0  0  0  0
 40 46  1  0  0  0  0
 41 42  2  0  0  0  0
 41 49  1  0  0  0  0
 43 44  1  0  0  0  0
 43 47  1  0  0  0  0
 43 48  1  0  0  0  0
 49 50  1  0  0  0  0
 49 54  1  0  0  0  0
 50 51  1  0  0  0  0
 50 53  1  0  0  0  0
 50 55  1  0  0  0  0
 51 52  2  0  0  0  0
 51 59  1  0  0  0  0
 53 56  1  0  0  0  0
 53 57  1  0  0  0  0
 53 58  1  0  0  0  0
 59 60  1  0  0  0  0
 59 61  1  0  0  0  0
 60 62  1  0  0  0  0
 60 63  1  0  0  0  0
 60 64  1  0  0  0  0
M  END
$$$$

  -OEChem-05262216053D

 64 63  0     1  0  0  0  0  0999 V2000
    1.2584   -6.4469   -6.7030 C   0  0  0  0  0  0  0  0  0  0  0  0
    0.1099   -6.2245   -7.0534 O   0  0  0  0  0  0  0  0  0  0  0  0
    1.7039   -7.8625   -6.3912 C   0  0  0  0  0  0  0  0  0  0  0  0
    2.0950   -7.9133   -5.3720 H   0  0  0  0  0  0  0  0  0  0  0  0
    0.8590   -8.5512   -6.4791 H   0  0  0  0  0  0  0  0  0  0  0  0
    2.4853   -8.1703   -7.0902 H   0  0  0  0  0  0  0  0  0  0  0  0
    2.1508   -5.4041   -6.5899 N   0  0  0  0  0  0  0  0  0  0  0  0
    1.8356   -3.9981   -6.8782 C   0  0  2  0  0  0  0  0  0  0  0  0
    3.1059   -3.1760   -7.1891 C   0  0  0  0  0  0  0  0  0  0  0  0
    4.2120   -3.7037   -7.1368 O   0  0  0  0  0  0  0  0  0  0  0  0
    1.0681   -3.3956   -5.6899 C   0  0  0  0  0  0  0  0  0  0  0  0
    2.0840   -3.4106   -4.1563 S   0  0  0  0  0  0  0  0  0  0  0  0
    3.1175   -5.6238   -6.3521 H   0  0  0  0  0  0  0  0  0  0  0  0
    1.1999   -3.9522   -7.7689 H   0  0  0  0  0  0  0  0  0  0  0  0
    0.7740   -2.3682   -5.9204 H   0  0  0  0  0  0  0  0  0  0  0  0
    0.1515   -3.9690   -5.5181 H   0  0  0  0  0  0  0  0  0  0  0  0
    3.0134   -1.8442   -7.5543 N   0  0  0  0  0  0  0  0  0  0  0  0
    4.1777   -0.9998   -7.7928 C   0  0  0  0  0  0  0  0  0  0  0  0
    2.0904   -1.4218   -7.5778 H   0  0  0  0  0  0  0  0  0  0  0  0
    4.7829   -0.9174   -6.8836 H   0  0  0  0  0  0  0  0  0  0  0  0
    4.7979   -1.4174   -8.5931 H   0  0  0  0  0  0  0  0  0  0  0  0
    3.8615    0.0048   -8.0903 H   0  0  0  0  0  0  0  0  0  0  0  0
   -5.6049    1.1712   -1.3632 C   0  0  0  0  0  0  0  0  0  0  0  0
   -6.0765    0.3216   -2.1022 O   0  0  0  0  0  0  0  0  0  0  0  0
   -6.4585    1.7868   -0.2709 C   0  0  0  0  0  0  0  0  0  0  0  0
   -6.5281    2.8679   -0.4147 H   0  0  0  0  0  0  0  0  0  0  0  0
   -7.4660    1.3618   -0.2969 H   0  0  0  0  0  0  0  0  0  0  0  0
   -6.0158    1.5830    0.7070 H   0  0  0  0  0  0  0  0  0  0  0  0
   -4.2927    1.5657   -1.5184 N   0  0  0  0  0  0  0  0  0  0  0  0
   -3.3476    0.9411   -2.4536 C   0  0  2  0  0  0  0  0  0  0  0  0
   -1.8976    0.9894   -1.9290 C   0  0  0  0  0  0  0  0  0  0  0  0
   -1.5923    1.7605   -1.0259 O   0  0  0  0  0  0  0  0  0  0  0  0
   -3.4482    1.6660   -3.7987 C   0  0  0  0  0  0  0  0  0  0  0  0
   -3.9031    2.1965   -0.8186 H   0  0  0  0  0  0  0  0  0  0  0  0
   -3.6100   -0.1136   -2.5902 H   0  0  0  0  0  0  0  0  0  0  0  0
   -3.1923    2.7241   -3.6826 H   0  0  0  0  0  0  0  0  0  0  0  0
   -2.7650    1.2209   -4.5282 H   0  0  0  0  0  0  0  0  0  0  0  0
   -4.4673    1.5947   -4.1922 H   0  0  0  0  0  0  0  0  0  0  0  0
   -0.9424    0.1279   -2.4380 N   0  0  0  0  0  0  0  0  0  0  0  0
    0.5052    0.2276   -2.1806 C   0  0  2  0  0  0  0  0  0  0  0  0
    1.0787    1.6604   -2.3049 C   0  0  0  0  0  0  0  0  0  0  0  0
    1.3180    2.1369   -3.4103 O   0  0  0  0  0  0  0  0  0  0  0  0
    1.2300   -0.7051   -3.1600 C   0  0  0  0  0  0  0  0  0  0  0  0
    0.7907   -2.4571   -2.8266 S   0  0  0  0  0  0  0  0  0  0  0  0
   -1.2490   -0.5199   -3.1584 H   0  0  0  0  0  0  0  0  0  0  0  0
    0.7056   -0.1161   -1.1608 H   0  0  0  0  0  0  0  0  0  0  0  0
    0.9739   -0.4440   -4.1915 H   0  0  0  0  0  0  0  0  0  0  0  0
    2.3125   -0.5843   -3.0466 H   0  0  0  0  0  0  0  0  0  0  0  0
    1.4072    2.3821   -1.1742 N   0  0  0  0  0  0  0  0  0  0  0  0
    1.9510    3.7448   -1.1695 C   0  0  2  0  0  0  0  0  0  0  0  0
    2.7339    4.0462    0.1262 C   0  0  0  0  0  0  0  0  0  0  0  0
    2.5970    3.3359    1.1161 O   0  0  0  0  0  0  0  0  0  0  0  0
    0.7870    4.7290   -1.3285 C   0  0  0  0  0  0  0  0  0  0  0  0
    1.1077    2.0019   -0.2764 H   0  0  0  0  0  0  0  0  0  0  0  0
    2.6452    3.8640   -2.0077 H   0  0  0  0  0  0  0  0  0  0  0  0
    0.0747    4.6123   -0.5050 H   0  0  0  0  0  0  0  0  0  0  0  0
    1.1513    5.7606   -1.3315 H   0  0  0  0  0  0  0  0  0  0  0  0
    0.2602    4.5469   -2.2704 H   0  0  0  0  0  0  0  0  0  0  0  0
    3.6054    5.1188    0.1822 N   0  0  0  0  0  0  0  0  0  0  0  0
    4.3900    5.4494    1.3658 C   0  0  0  0  0  0  0  0  0  0  0  0
    3.7132    5.6839   -0.6549 H   0  0  0  0  0  0  0  0  0  0  0  0
    3.7314    5.6583    2.2155 H   0  0  0  0  0  0  0  0  0  0  0  0
    5.0530    4.6186    1.6295 H   0  0  0  0  0  0  0  0  0  0  0  0
    5.0035    6.3357    1.1787 H   0  0  0  0  0  0  0  0  0  0  0  0
  1  2  2  0  0  0  0
  1  3  1  0  0  0  0
  1  7  1  0  0  0  0
  3  4  1  0  0  0  0
  3  5  1  0  0  0  0
  3  6  1  0  0  0  0
  7  8  1  0  0  0  0
  7 13  1  0  0  0  0
  8  9  1  0  0  0  0
  8 11  1  0  0  0  0
  8 14  1  0  0  0  0
  9 10  2  0  0  0  0
  9 17  1  0  0  0  0
 11 12  1  0  0  0  0
 11 15  1  0  0  0  0
 11 16  1  0  0  0  0
 12 44  1  0  0  0  0
 17 18  1  0  0  0  0
 17 19  1  0  0  0  0
 18 20  1  0  0  0  0
 18 21  1  0  0  0  0
 18 22  1  0  0  0  0
 23 24  2  0  0  0  0
 23 25  1  0  0  0  0
 23 29  1  0  0  0  0
 25 26  1  0  0  0  0
 25 27  1  0  0  0  0
 25 28  1  0  0  0  0
 29 30  1  0  0  0  0
 29 34  1  0  0  0  0
 30 31  1  0  0  0  0
 30 33  1  0  0  0  0
 30 35  1  0  0  0  0
 31 32  2  0  0  0  0
 31 39  1  0  0  0  0
 33 36  1  0  0  0  0
 33 37  1  0  0  0  0
 33 38  1  0  0  0  0
 39 40  1  0  0  0  0
 39 45  1  0  0  0  0
 40 41  1  0  0  0  0
 40 43  1  0  0  0  0
 40 46  1  0  0  0  0
 41 42  2  0  0  0  0
 41 49  1  0  0  0  0
 43 44  1  0  0  0  0
 43 47  1  0  0  0  0
 43 48  1  0  0  0  0
 49 50  1  0  0  0  0
 49 54  1  0  0  0  0
 50 51  1  0  0  0  0
 50 53  1  0  0  0  0
 50 55  1  0  0  0  0
 51 52  2  0  0  0  0
 51 59  1  0  0  0  0
 53 56  1  0  0  0  0
 53 57  1  0  0  0  0
 53 58  1  0  0  0  0
 59 60  1  0  0  0  0
 59 61  1  0  0  0  0
 60 62  1  0  0  0  0
 60 63  1  0  0  0  0
 60 64  1  0  0  0  0
M  END
$$$$

  -OEChem-05262216053D

 64 63  0     1  0  0  0  0  0999 V2000
    1.2929   -6.4376   -6.6063 C   0  0  0  0  0  0  0  0  0  0  0  0
    0.1417   -6.2338   -6.9593 O   0  0  0  0  0  0  0  0  0  0  0  0
    1.7605   -7.8466   -6.2953 C   0  0  0  0  0  0  0  0  0  0  0  0
    2.1092   -7.9043   -5.2611 H   0  0  0  0  0  0  0  0  0  0  0  0
    0.9381   -8.5547   -6.4306 H   0  0  0  0  0  0  0  0  0  0  0  0
    2.5785   -8.1246   -6.9644 H   0  0  0  0  0  0  0  0  0  0  0  0
    2.1699   -5.3810   -6.4984 N   0  0  0  0  0  0  0  0  0  0  0  0
    1.8363   -3.9828   -6.8033 C   0  0  2  0  0  0  0  0  0  0  0  0
    3.0929   -3.1526   -7.1451 C   0  0  0  0  0  0  0  0  0  0  0  0
    4.2092   -3.6530   -7.0538 O   0  0  0  0  0  0  0  0  0  0  0  0
    1.0766   -3.3713   -5.6155 C   0  0  0  0  0  0  0  0  0  0  0  0
    2.0950   -3.3861   -4.0846 S   0  0  0  0  0  0  0  0  0  0  0  0
    3.1384   -5.5837   -6.2523 H   0  0  0  0  0  0  0  0  0  0  0  0
    1.1893   -3.9558   -7.6863 H   0  0  0  0  0  0  0  0  0  0  0  0
    0.7875   -2.3430   -5.8490 H   0  0  0  0  0  0  0  0  0  0  0  0
    0.1583   -3.9405   -5.4379 H   0  0  0  0  0  0  0  0  0  0  0  0
    2.9751   -1.8523   -7.6047 N   0  0  0  0  0  0  0  0  0  0  0  0
    4.1209   -1.0250   -7.9633 C   0  0  0  0  0  0  0  0  0  0  0  0
    2.0414   -1.4647   -7.7014 H   0  0  0  0  0  0  0  0  0  0  0  0
    4.7953   -0.9132   -7.1075 H   0  0  0  0  0  0  0  0  0  0  0  0
    4.6747   -1.4765   -8.7933 H   0  0  0  0  0  0  0  0  0  0  0  0
    3.7879   -0.0293   -8.2716 H   0  0  0  0  0  0  0  0  0  0  0  0
   -5.5759    1.1076   -1.3833 C   0  0  0  0  0  0  0  0  0  0  0  0
   -6.0093    0.1960   -2.0699 O   0  0  0  0  0  0  0  0  0  0  0  0
   -6.4053    1.6556   -0.2372 C   0  0  0  0  0  0  0  0  0  0  0  0
   -6.6696    2.6975   -0.4330 H   0  0  0  0  0  0  0  0  0  0  0  0
   -7.3240    1.0729   -0.1253 H   0  0  0  0  0  0  0  0  0  0  0  0
   -5.8381    1.5994    0.6951 H   0  0  0  0  0  0  0  0  0  0  0  0
   -4.3263    1.6316   -1.6393 N   0  0  0  0  0  0  0  0  0  0  0  0
   -3.3579    1.0339   -2.5688 C   0  0  2  0  0  0  0  0  0  0  0  0
   -1.9358    1.0203   -1.9730 C   0  0  0  0  0  0  0  0  0  0  0  0
   -1.6469    1.7753   -1.0501 O   0  0  0  0  0  0  0  0  0  0  0  0
   -3.3838    1.8390   -3.8707 C   0  0  0  0  0  0  0  0  0  0  0  0
   -3.9523    2.2885   -0.9553 H   0  0  0  0  0  0  0  0  0  0  0  0
   -3.6308   -0.0050   -2.7836 H   0  0  0  0  0  0  0  0  0  0  0  0
   -3.1046    2.8812   -3.6830 H   0  0  0  0  0  0  0  0  0  0  0  0
   -2.6826    1.4169   -4.5973 H   0  0  0  0  0  0  0  0  0  0  0  0
   -4.3878    1.8192   -4.3070 H   0  0  0  0  0  0  0  0  0  0  0  0
   -0.9868    0.1303   -2.4425 N   0  0  0  0  0  0  0  0  0  0  0  0
    0.4519    0.2321   -2.1456 C   0  0  2  0  0  0  0  0  0  0  0  0
    1.0209    1.6614   -2.2936 C   0  0  0  0  0  0  0  0  0  0  0  0
    1.0436    2.2003   -3.3961 O   0  0  0  0  0  0  0  0  0  0  0  0
    1.2189   -0.7014   -3.0876 C   0  0  0  0  0  0  0  0  0  0  0  0
    0.7846   -2.4541   -2.7581 S   0  0  0  0  0  0  0  0  0  0  0  0
   -1.2700   -0.4785   -3.2047 H   0  0  0  0  0  0  0  0  0  0  0  0
    0.6212   -0.0909   -1.1135 H   0  0  0  0  0  0  0  0  0  0  0  0
    0.9983   -0.4491   -4.1294 H   0  0  0  0  0  0  0  0  0  0  0  0
    2.2956   -0.5706   -2.9352 H   0  0  0  0  0  0  0  0  0  0  0  0
    1.6001    2.2992   -1.2150 N   0  0  0  0  0  0  0  0  0  0  0  0
    2.2454    3.6152   -1.2597 C   0  0  2  0  0  0  0  0  0  0  0  0
    3.3512    3.7420   -0.1909 C   0  0  0  0  0  0  0  0  0  0  0  0
    3.4367    2.9178    0.7131 O   0  0  0  0  0  0  0  0  0  0  0  0
    1.1649    4.6809   -1.0526 C   0  0  0  0  0  0  0  0  0  0  0  0
    1.5775    1.8251   -0.3128 H   0  0  0  0  0  0  0  0  0  0  0  0
    2.7176    3.7612   -2.2367 H   0  0  0  0  0  0  0  0  0  0  0  0
    0.6814    4.5492   -0.0791 H   0  0  0  0  0  0  0  0  0  0  0  0
    1.5981    5.6845   -1.0952 H   0  0  0  0  0  0  0  0  0  0  0  0
    0.4005    4.6017   -1.8324 H   0  0  0  0  0  0  0  0  0  0  0  0
    4.2707    4.7729   -0.2541 N   0  0  0  0  0  0  0  0  0  0  0  0
    5.3710    4.9201    0.6911 C   0  0  0  0  0  0  0  0  0  0  0  0
    4.1965    5.4242   -1.0301 H   0  0  0  0  0  0  0  0  0  0  0  0
    4.9923    4.9693    1.7174 H   0  0  0  0  0  0  0  0  0  0  0  0
    6.0591    4.0722    0.6113 H   0  0  0  0  0  0  0  0  0  0  0  0
    5.9275    5.8394    0.4848 H   0  0  0  0  0  0  0  0  0  0  0  0
  1  2  2  0  0  0  0
  1  3  1  0  0  0  0
  1  7  1  0  0  0  0
  3  4  1  0  0  0  0
  3  5  1  0  0  0  0
  3  6  1  0  0  0  0
  7  8  1  0  0  0  0
  7 13  1  0  0  0  0
  8  9  1  0  0  0  0
  8 11  1  0  0  0  0
  8 14  1  0  0  0  0
  9 10  2  0  0  0  0
  9 17  1  0  0  0  0
 11 12  1  0  0  0  0
 11 15  1  0  0  0  0
 11 16  1  0  0  0  0
 12 44  1  0  0  0  0
 17 18  1  0  0  0  0
 17 19  1  0  0  0  0
 18 20  1  0  0  0  0
 18 21  1  0  0  0  0
 18 22  1  0  0  0  0
 23 24  2  0  0  0  0
 23 25  1  0  0  0  0
 23 29  1  0  0  0  0
 25 26  1  0  0  0  0
 25 27  1  0  0  0  0
 25 28  1  0  0  0  0
 29 30  1  0  0  0  0
 29 34  1  0  0  0  0
 30 31  1  0  0  0  0
 30 33  1  0  0  0  0
 30 35  1  0  0  0  0
 31 32  2  0  0  0  0
 31 39  1  0  0  0  0
 33 36  1  0  0  0  0
 33 37  1  0  0  0  0
 33 38  1  0  0  0  0
 39 40  1  0  0  0  0
 39 45  1  0  0  0  0
 40 41  1  0  0  0  0
 40 43  1  0  0  0  0
 40 46  1  0  0  0  0
 41 42  2  0  0  0  0
 41 49  1  0  0  0  0
 43 44  1  0  0  0  0
 43 47  1  0  0  0  0
 43 48  1  0  0  0  0
 49 50  1  0  0  0  0
 49 54  1  0  0  0  0
 50 51  1  0  0  0  0
 50 53  1  0  0  0  0
 50 55  1  0  0  0  0
 51 52  2  0  0  0  0
 51 59  1  0  0  0  0
 53 56  1  0  0  0  0
 53 57  1  0  0  0  0
 53 58  1  0  0  0  0
 59 60  1  0  0  0  0
 59 61  1  0  0  0  0
 60 62  1  0  0  0  0
 60 63  1  0  0  0  0
 60 64  1  0  0  0  0
M  END
$$$$

  -OEChem-05262216053D

 64 63  0     1  0  0  0  0  0999 V2000
    1.2920   -6.4675   -6.6293 C   0  0  0  0  0  0  0  0  0  0  0  0
    0.1378   -6.2681   -6.9753 O   0  0  0  0  0  0  0  0  0  0  0  0
    1.7634   -7.8723   -6.3057 C   0  0  0  0  0  0  0  0  0  0  0  0
    2.1458   -7.9109   -5.2828 H   0  0  0  0  0  0  0  0  0  0  0  0
    0.9333   -8.5780   -6.3977 H   0  0  0  0  0  0  0  0  0  0  0  0
    2.5574   -8.1680   -6.9956 H   0  0  0  0  0  0  0  0  0  0  0  0
    2.1679   -5.4088   -6.5337 N   0  0  0  0  0  0  0  0  0  0  0  0
    1.8260   -4.0104   -6.8285 C   0  0  2  0  0  0  0  0  0  0  0  0
    3.0756   -3.1698   -7.1718 C   0  0  0  0  0  0  0  0  0  0  0  0
    4.1934   -3.6720   -7.1162 O   0  0  0  0  0  0  0  0  0  0  0  0
    1.0717   -3.4111   -5.6309 C   0  0  0  0  0  0  0  0  0  0  0  0
    2.1216   -3.3910   -4.1207 S   0  0  0  0  0  0  0  0  0  0  0  0
    3.1396   -5.6097   -6.3003 H   0  0  0  0  0  0  0  0  0  0  0  0
    1.1737   -3.9827   -7.7075 H   0  0  0  0  0  0  0  0  0  0  0  0
    0.7516   -2.3926   -5.8658 H   0  0  0  0  0  0  0  0  0  0  0  0
    0.1714   -4.0017   -5.4334 H   0  0  0  0  0  0  0  0  0  0  0  0
    2.9502   -1.8527   -7.5788 N   0  0  0  0  0  0  0  0  0  0  0  0
    4.0913   -1.0044   -7.9025 C   0  0  0  0  0  0  0  0  0  0  0  0
    2.0165   -1.4558   -7.6230 H   0  0  0  0  0  0  0  0  0  0  0  0
    4.7290   -0.8689   -7.0227 H   0  0  0  0  0  0  0  0  0  0  0  0
    4.6875   -1.4519   -8.7048 H   0  0  0  0  0  0  0  0  0  0  0  0
    3.7490   -0.0200   -8.2358 H   0  0  0  0  0  0  0  0  0  0  0  0
   -5.5868    1.1733   -1.4167 C   0  0  0  0  0  0  0  0  0  0  0  0
   -6.0522    0.3475   -2.1860 O   0  0  0  0  0  0  0  0  0  0  0  0
   -6.4351    1.7165   -0.2827 C   0  0  0  0  0  0  0  0  0  0  0  0
   -6.6367    2.7781   -0.4442 H   0  0  0  0  0  0  0  0  0  0  0  0
   -7.3864    1.1791   -0.2340 H   0  0  0  0  0  0  0  0  0  0  0  0
   -5.9124    1.5918    0.6688 H   0  0  0  0  0  0  0  0  0  0  0  0
   -4.2845    1.6007   -1.5667 N   0  0  0  0  0  0  0  0  0  0  0  0
   -3.3230    1.0037   -2.5026 C   0  0  2  0  0  0  0  0  0  0  0  0
   -1.8976    0.9766   -1.9147 C   0  0  0  0  0  0  0  0  0  0  0  0
   -1.6044    1.6985   -0.9666 O   0  0  0  0  0  0  0  0  0  0  0  0
   -3.3446    1.8119   -3.8027 C   0  0  0  0  0  0  0  0  0  0  0  0
   -3.8995    2.1944   -0.8328 H   0  0  0  0  0  0  0  0  0  0  0  0
   -3.6079   -0.0320   -2.7172 H   0  0  0  0  0  0  0  0  0  0  0  0
   -3.0480    2.8487   -3.6134 H   0  0  0  0  0  0  0  0  0  0  0  0
   -2.6542    1.3819   -4.5347 H   0  0  0  0  0  0  0  0  0  0  0  0
   -4.3508    1.8092   -4.2336 H   0  0  0  0  0  0  0  0  0  0  0  0
   -0.9530    0.0959   -2.4092 N   0  0  0  0  0  0  0  0  0  0  0  0
    0.4906    0.2224   -2.1451 C   0  0  2  0  0  0  0  0  0  0  0  0
    1.0365    1.6597   -2.3080 C   0  0  0  0  0  0  0  0  0  0  0  0
    0.8277    2.2764   -3.3485 O   0  0  0  0  0  0  0  0  0  0  0  0
    1.2445   -0.6993   -3.1093 C   0  0  0  0  0  0  0  0  0  0  0  0
    0.8396   -2.4578   -2.7674 S   0  0  0  0  0  0  0  0  0  0  0  0
   -1.2364   -0.4678   -3.2050 H   0  0  0  0  0  0  0  0  0  0  0  0
    0.6874   -0.0951   -1.1161 H   0  0  0  0  0  0  0  0  0  0  0  0
    0.9928   -0.4490   -4.1445 H   0  0  0  0  0  0  0  0  0  0  0  0
    2.3234   -0.5570   -2.9857 H   0  0  0  0  0  0  0  0  0  0  0  0
    1.8925    2.1970   -1.3659 N   0  0  0  0  0  0  0  0  0  0  0  0
    2.5515    3.5042   -1.4716 C   0  0  2  0  0  0  0  0  0  0  0  0
    3.8747    3.5368   -0.6771 C   0  0  0  0  0  0  0  0  0  0  0  0
    4.1288    2.6523    0.1332 O   0  0  0  0  0  0  0  0  0  0  0  0
    1.5824    4.5713   -0.9538 C   0  0  0  0  0  0  0  0  0  0  0  0
    2.1001    1.6425   -0.5359 H   0  0  0  0  0  0  0  0  0  0  0  0
    2.7925    3.7125   -2.5192 H   0  0  0  0  0  0  0  0  0  0  0  0
    1.3362    4.3861    0.0968 H   0  0  0  0  0  0  0  0  0  0  0  0
    2.0245    5.5683   -1.0388 H   0  0  0  0  0  0  0  0  0  0  0  0
    0.6550    4.5547   -1.5354 H   0  0  0  0  0  0  0  0  0  0  0  0
    4.7966    4.5467   -0.8852 N   0  0  0  0  0  0  0  0  0  0  0  0
    6.0785    4.6139   -0.1924 C   0  0  0  0  0  0  0  0  0  0  0  0
    4.5713    5.2577   -1.5750 H   0  0  0  0  0  0  0  0  0  0  0  0
    5.9281    4.6763    0.8907 H   0  0  0  0  0  0  0  0  0  0  0  0
    6.6802    3.7256   -0.4129 H   0  0  0  0  0  0  0  0  0  0  0  0
    6.6371    5.4984   -0.5137 H   0  0  0  0  0  0  0  0  0  0  0  0
  1  2  2  0  0  0  0
  1  3  1  0  0  0  0
  1  7  1  0  0  0  0
  3  4  1  0  0  0  0
  3  5  1  0  0  0  0
  3  6  1  0  0  0  0
  7  8  1  0  0  0  0
  7 13  1  0  0  0  0
  8  9  1  0  0  0  0
  8 11  1  0  0  0  0
  8 14  1  0  0  0  0
  9 10  2  0  0  0  0
  9 17  1  0  0  0  0
 11 12  1  0  0  0  0
 11 15  1  0  0  0  0
 11 16  1  0  0  0  0
 12 44  1  0  0  0  0
 17 18  1  0  0  0  0
 17 19  1  0  0  0  0
 18 20  1  0  0  0  0
 18 21  1  0  0  0  0
 18 22  1  0  0  0  0
 23 24  2  0  0  0  0
 23 25  1  0  0  0  0
 23 29  1  0  0  0  0
 25 26  1  0  0  0  0
 25 27  1  0  0  0  0
 25 28  1  0  0  0  0
 29 30  1  0  0  0  0
 29 34  1  0  0  0  0
 30 31  1  0  0  0  0
 30 33  1  0  0  0  0
 30 35  1  0  0  0  0
 31 32  2  0  0  0  0
 31 39  1  0  0  0  0
 33 36  1  0  0  0  0
 33 37  1  0  0  0  0
 33 38  1  0  0  0  0
 39 40  1  0  0  0  0
 39 45  1  0  0  0  0
 40 41  1  0  0  0  0
 40 43  1  0  0  0  0
 40 46  1  0  0  0  0
 41 42  2  0  0  0  0
 41 49  1  0  0  0  0
 43 44  1  0  0  0  0
 43 47  1  0  0  0  0
 43 48  1  0  0  0  0
 49 50  1  0  0  0  0
 49 54  1  0  0  0  0
 50 51  1  0  0  0  0
 50 53  1  0  0  0  0
 50 55  1  0  0  0  0
 51 52  2  0  0  0  0
 51 59  1  0  0  0  0
 53 56  1  0  0  0  0
 53 57  1  0  0  0  0
 53 58  1  0  0  0  0
 59 60  1  0  0  0  0
 59 61  1  0  0  0  0
 60 62  1  0  0  0  0
 60 63  1  0  0  0  0
 60 64  1  0  0  0  0
M  END
$$$$

  -OEChem-05262216053D

 64 63  0     1  0  0  0  0  0999 V2000
    1.3237   -6.4355   -6.5825 C   0  0  0  0  0  0  0  0  0  0  0  0
    0.1837   -6.2465   -6.9772 O   0  0  0  0  0  0  0  0  0  0  0  0
    1.7999   -7.8397   -6.2642 C   0  0  0  0  0  0  0  0  0  0  0  0
    2.0031   -7.9291   -5.1943 H   0  0  0  0  0  0  0  0  0  0  0  0
    1.0335   -8.5692   -6.5405 H   0  0  0  0  0  0  0  0  0  0  0  0
    2.7132   -8.0606   -6.8217 H   0  0  0  0  0  0  0  0  0  0  0  0
    2.1790   -5.3663   -6.4311 N   0  0  0  0  0  0  0  0  0  0  0  0
    1.8390   -3.9743   -6.7550 C   0  0  2  0  0  0  0  0  0  0  0  0
    3.0854   -3.1491   -7.1419 C   0  0  0  0  0  0  0  0  0  0  0  0
    4.2068   -3.6364   -7.0442 O   0  0  0  0  0  0  0  0  0  0  0  0
    1.1040   -3.3475   -5.5600 C   0  0  0  0  0  0  0  0  0  0  0  0
    2.1568   -3.3261   -4.0516 S   0  0  0  0  0  0  0  0  0  0  0  0
    3.1440   -5.5583   -6.1652 H   0  0  0  0  0  0  0  0  0  0  0  0
    1.1727   -3.9619   -7.6241 H   0  0  0  0  0  0  0  0  0  0  0  0
    0.8014   -2.3256   -5.8039 H   0  0  0  0  0  0  0  0  0  0  0  0
    0.1946   -3.9209   -5.3521 H   0  0  0  0  0  0  0  0  0  0  0  0
    2.9497   -1.8730   -7.6605 N   0  0  0  0  0  0  0  0  0  0  0  0
    4.0817   -1.0696   -8.1064 C   0  0  0  0  0  0  0  0  0  0  0  0
    2.0102   -1.5070   -7.7821 H   0  0  0  0  0  0  0  0  0  0  0  0
    4.7760   -0.8923   -7.2783 H   0  0  0  0  0  0  0  0  0  0  0  0
    4.6185   -1.5787   -8.9139 H   0  0  0  0  0  0  0  0  0  0  0  0
    3.7350   -0.1011   -8.4795 H   0  0  0  0  0  0  0  0  0  0  0  0
   -5.5413    1.0392   -1.3858 C   0  0  0  0  0  0  0  0  0  0  0  0
   -5.9142    0.0516   -1.9990 O   0  0  0  0  0  0  0  0  0  0  0  0
   -6.3887    1.5945   -0.2566 C   0  0  0  0  0  0  0  0  0  0  0  0
   -6.7257    2.6037   -0.5049 H   0  0  0  0  0  0  0  0  0  0  0  0
   -7.2642    0.9592   -0.0958 H   0  0  0  0  0  0  0  0  0  0  0  0
   -5.8051    1.6294    0.6666 H   0  0  0  0  0  0  0  0  0  0  0  0
   -4.3471    1.6495   -1.7079 N   0  0  0  0  0  0  0  0  0  0  0  0
   -3.3374    1.0605   -2.5992 C   0  0  2  0  0  0  0  0  0  0  0  0
   -1.9573    0.9760   -1.9168 C   0  0  0  0  0  0  0  0  0  0  0  0
   -1.7045    1.6779   -0.9422 O   0  0  0  0  0  0  0  0  0  0  0  0
   -3.2519    1.9299   -3.8560 C   0  0  0  0  0  0  0  0  0  0  0  0
   -4.0100    2.3535   -1.0531 H   0  0  0  0  0  0  0  0  0  0  0  0
   -3.6232    0.0434   -2.8872 H   0  0  0  0  0  0  0  0  0  0  0  0
   -2.9431    2.9482   -3.5974 H   0  0  0  0  0  0  0  0  0  0  0  0
   -2.5235    1.5167   -4.5605 H   0  0  0  0  0  0  0  0  0  0  0  0
   -4.2269    1.9753   -4.3515 H   0  0  0  0  0  0  0  0  0  0  0  0
   -0.9946    0.0991   -2.3838 N   0  0  0  0  0  0  0  0  0  0  0  0
    0.4397    0.2584   -2.0860 C   0  0  2  0  0  0  0  0  0  0  0  0
    0.9649    1.7039   -2.2539 C   0  0  0  0  0  0  0  0  0  0  0  0
    0.5931    2.3858   -3.2047 O   0  0  0  0  0  0  0  0  0  0  0  0
    1.2327   -0.6497   -3.0321 C   0  0  0  0  0  0  0  0  0  0  0  0
    0.8578   -2.4160   -2.6968 S   0  0  0  0  0  0  0  0  0  0  0  0
   -1.2458   -0.4451   -3.2032 H   0  0  0  0  0  0  0  0  0  0  0  0
    0.6205   -0.0473   -1.0504 H   0  0  0  0  0  0  0  0  0  0  0  0
    0.9956   -0.4047   -4.0723 H   0  0  0  0  0  0  0  0  0  0  0  0
    2.3064   -0.4863   -2.8888 H   0  0  0  0  0  0  0  0  0  0  0  0
    2.0146    2.1547   -1.4765 N   0  0  0  0  0  0  0  0  0  0  0  0
    2.7338    3.4182   -1.6805 C   0  0  2  0  0  0  0  0  0  0  0  0
    4.2227    3.2857   -1.2972 C   0  0  0  0  0  0  0  0  0  0  0  0
    4.6136    2.3026   -0.6770 O   0  0  0  0  0  0  0  0  0  0  0  0
    2.0468    4.4971   -0.8384 C   0  0  0  0  0  0  0  0  0  0  0  0
    2.4055    1.5119   -0.7881 H   0  0  0  0  0  0  0  0  0  0  0  0
    2.6933    3.7058   -2.7363 H   0  0  0  0  0  0  0  0  0  0  0  0
    2.0859    4.2353    0.2240 H   0  0  0  0  0  0  0  0  0  0  0  0
    2.5357    5.4658   -0.9774 H   0  0  0  0  0  0  0  0  0  0  0  0
    0.9971    4.5951   -1.1338 H   0  0  0  0  0  0  0  0  0  0  0  0
    5.1344    4.2569   -1.6678 N   0  0  0  0  0  0  0  0  0  0  0  0
    6.5583    4.1724   -1.3644 C   0  0  0  0  0  0  0  0  0  0  0  0
    4.7886    5.0534   -2.1952 H   0  0  0  0  0  0  0  0  0  0  0  0
    6.7182    4.1439   -0.2814 H   0  0  0  0  0  0  0  0  0  0  0  0
    6.9922    3.2699   -1.8080 H   0  0  0  0  0  0  0  0  0  0  0  0
    7.0844    5.0423   -1.7690 H   0  0  0  0  0  0  0  0  0  0  0  0
  1  2  2  0  0  0  0
  1  3  1  0  0  0  0
  1  7  1  0  0  0  0
  3  4  1  0  0  0  0
  3  5  1  0  0  0  0
  3  6  1  0  0  0  0
  7  8  1  0  0  0  0
  7 13  1  0  0  0  0
  8  9  1  0  0  0  0
  8 11  1  0  0  0  0
  8 14  1  0  0  0  0
  9 10  2  0  0  0  0
  9 17  1  0  0  0  0
 11 12  1  0  0  0  0
 11 15  1  0  0  0  0
 11 16  1  0  0  0  0
 12 44  1  0  0  0  0
 17 18  1  0  0  0  0
 17 19  1  0  0  0  0
 18 20  1  0  0  0  0
 18 21  1  0  0  0  0
 18 22  1  0  0  0  0
 23 24  2  0  0  0  0
 23 25  1  0  0  0  0
 23 29  1  0  0  0  0
 25 26  1  0  0  0  0
 25 27  1  0  0  0  0
 25 28  1  0  0  0  0
 29 30  1  0  0  0  0
 29 34  1  0  0  0  0
 30 31  1  0  0  0  0
 30 33  1  0  0  0  0
 30 35  1  0  0  0  0
 31 32  2  0  0  0  0
 31 39  1  0  0  0  0
 33 36  1  0  0  0  0
 33 37  1  0  0  0  0
 33 38  1  0  0  0  0
 39 40  1  0  0  0  0
 39 45  1  0  0  0  0
 40 41  1  0  0  0  0
 40 43  1  0  0  0  0
 40 46  1  0  0  0  0
 41 42  2  0  0  0  0
 41 49  1  0  0  0  0
 43 44  1  0  0  0  0
 43 47  1  0  0  0  0
 43 48  1  0  0  0  0
 49 50  1  0  0  0  0
 49 54  1  0  0  0  0
 50 51  1  0  0  0  0
 50 53  1  0  0  0  0
 50 55  1  0  0  0  0
 51 52  2  0  0  0  0
 51 59  1  0  0  0  0
 53 56  1  0  0  0  0
 53 57  1  0  0  0  0
 53 58  1  0  0  0  0
 59 60  1  0  0  0  0
 59 61  1  0  0  0  0
 60 62  1  0  0  0  0
 60 63  1  0  0  0  0
 60 64  1  0  0  0  0
M  END
$$$$

  -OEChem-05262216053D

 64 63  0     1  0  0  0  0  0999 V2000
    1.3117   -6.4219   -6.5577 C   0  0  0  0  0  0  0  0  0  0  0  0
    0.1528   -6.2232   -6.8879 O   0  0  0  0  0  0  0  0  0  0  0  0
    1.7887   -7.8255   -6.2375 C   0  0  0  0  0  0  0  0  0  0  0  0
    2.1994   -7.8570   -5.2252 H   0  0  0  0  0  0  0  0  0  0  0  0
    0.9558   -8.5314   -6.3022 H   0  0  0  0  0  0  0  0  0  0  0  0
    2.5627   -8.1271   -6.9473 H   0  0  0  0  0  0  0  0  0  0  0  0
    2.1899   -5.3637   -6.4815 N   0  0  0  0  0  0  0  0  0  0  0  0
    1.8475   -3.9690   -6.7933 C   0  0  2  0  0  0  0  0  0  0  0  0
    3.0925   -3.1447   -7.1882 C   0  0  0  0  0  0  0  0  0  0  0  0
    4.2082   -3.6530   -7.1528 O   0  0  0  0  0  0  0  0  0  0  0  0
    1.1287   -3.3443   -5.5867 C   0  0  0  0  0  0  0  0  0  0  0  0
    2.2203   -3.2916   -4.1069 S   0  0  0  0  0  0  0  0  0  0  0  0
    3.1660   -5.5658   -6.2678 H   0  0  0  0  0  0  0  0  0  0  0  0
    1.1705   -3.9522   -7.6539 H   0  0  0  0  0  0  0  0  0  0  0  0
    0.8018   -2.3306   -5.8330 H   0  0  0  0  0  0  0  0  0  0  0  0
    0.2346   -3.9311   -5.3515 H   0  0  0  0  0  0  0  0  0  0  0  0
    2.9635   -1.8385   -7.6278 N   0  0  0  0  0  0  0  0  0  0  0  0
    4.0993   -1.0126   -8.0204 C   0  0  0  0  0  0  0  0  0  0  0  0
    2.0293   -1.4432   -7.6739 H   0  0  0  0  0  0  0  0  0  0  0  0
    4.7879   -0.8836   -7.1786 H   0  0  0  0  0  0  0  0  0  0  0  0
    4.6414   -1.4754   -8.8519 H   0  0  0  0  0  0  0  0  0  0  0  0
    3.7561   -0.0240   -8.3402 H   0  0  0  0  0  0  0  0  0  0  0  0
   -5.6079    1.1320   -1.4595 C   0  0  0  0  0  0  0  0  0  0  0  0
   -6.0541    0.3415   -2.2761 O   0  0  0  0  0  0  0  0  0  0  0  0
   -6.4875    1.6372   -0.3317 C   0  0  0  0  0  0  0  0  0  0  0  0
   -6.6787    2.7053   -0.4597 H   0  0  0  0  0  0  0  0  0  0  0  0
   -7.4424    1.1042   -0.3313 H   0  0  0  0  0  0  0  0  0  0  0  0
   -5.9936    1.4742    0.6294 H   0  0  0  0  0  0  0  0  0  0  0  0
   -4.3006    1.5593   -1.5547 N   0  0  0  0  0  0  0  0  0  0  0  0
   -3.3115    0.9916   -2.4802 C   0  0  2  0  0  0  0  0  0  0  0  0
   -1.9165    0.9042   -1.8302 C   0  0  0  0  0  0  0  0  0  0  0  0
   -1.6635    1.5435   -0.8130 O   0  0  0  0  0  0  0  0  0  0  0  0
   -3.2585    1.8709   -3.7322 C   0  0  0  0  0  0  0  0  0  0  0  0
   -3.9327    2.1120   -0.7811 H   0  0  0  0  0  0  0  0  0  0  0  0
   -3.6043   -0.0249   -2.7639 H   0  0  0  0  0  0  0  0  0  0  0  0
   -2.9521    2.8891   -3.4705 H   0  0  0  0  0  0  0  0  0  0  0  0
   -2.5422    1.4692   -4.4553 H   0  0  0  0  0  0  0  0  0  0  0  0
   -4.2437    1.9121   -4.2072 H   0  0  0  0  0  0  0  0  0  0  0  0
   -0.9532    0.0528   -2.3411 N   0  0  0  0  0  0  0  0  0  0  0  0
    0.4851    0.2522   -2.0875 C   0  0  2  0  0  0  0  0  0  0  0  0
    0.9772    1.7114   -2.2576 C   0  0  0  0  0  0  0  0  0  0  0  0
    0.4316    2.4602   -3.0634 O   0  0  0  0  0  0  0  0  0  0  0  0
    1.2638   -0.6398   -3.0621 C   0  0  0  0  0  0  0  0  0  0  0  0
    0.9414   -2.4135   -2.7134 S   0  0  0  0  0  0  0  0  0  0  0  0
   -1.2086   -0.4349   -3.1939 H   0  0  0  0  0  0  0  0  0  0  0  0
    0.7053   -0.0525   -1.0590 H   0  0  0  0  0  0  0  0  0  0  0  0
    0.9854   -0.4032   -4.0933 H   0  0  0  0  0  0  0  0  0  0  0  0
    2.3382   -0.4558   -2.9582 H   0  0  0  0  0  0  0  0  0  0  0  0
    2.2095    2.0800   -1.7508 N   0  0  0  0  0  0  0  0  0  0  0  0
    2.9198    3.3232   -2.0764 C   0  0  2  0  0  0  0  0  0  0  0  0
    4.4495    3.1233   -2.0246 C   0  0  0  0  0  0  0  0  0  0  0  0
    4.9185    2.0865   -1.5677 O   0  0  0  0  0  0  0  0  0  0  0  0
    2.4742    4.4026   -1.0843 C   0  0  0  0  0  0  0  0  0  0  0  0
    2.7334    1.3812   -1.2239 H   0  0  0  0  0  0  0  0  0  0  0  0
    2.6679    3.6417   -3.0935 H   0  0  0  0  0  0  0  0  0  0  0  0
    2.7326    4.1124   -0.0608 H   0  0  0  0  0  0  0  0  0  0  0  0
    2.9578    5.3578   -1.3089 H   0  0  0  0  0  0  0  0  0  0  0  0
    1.3900    4.5448   -1.1410 H   0  0  0  0  0  0  0  0  0  0  0  0
    5.3037    4.0920   -2.5186 N   0  0  0  0  0  0  0  0  0  0  0  0
    6.7550    3.9491   -2.5317 C   0  0  0  0  0  0  0  0  0  0  0  0
    4.8882    4.9329   -2.9084 H   0  0  0  0  0  0  0  0  0  0  0  0
    7.1347    3.7863   -1.5174 H   0  0  0  0  0  0  0  0  0  0  0  0
    7.0511    3.1013   -3.1583 H   0  0  0  0  0  0  0  0  0  0  0  0
    7.2208    4.8545   -2.9329 H   0  0  0  0  0  0  0  0  0  0  0  0
  1  2  2  0  0  0  0
  1  3  1  0  0  0  0
  1  7  1  0  0  0  0
  3  4  1  0  0  0  0
  3  5  1  0  0  0  0
  3  6  1  0  0  0  0
  7  8  1  0  0  0  0
  7 13  1  0  0  0  0
  8  9  1  0  0  0  0
  8 11  1  0  0  0  0
  8 14  1  0  0  0  0
  9 10  2  0  0  0  0
  9 17  1  0  0  0  0
 11 12  1  0  0  0  0
 11 15  1  0  0  0  0
 11 16  1  0  0  0  0
 12 44  1  0  0  0  0
 17 18  1  0  0  0  0
 17 19  1  0  0  0  0
 18 20  1  0  0  0  0
 18 21  1  0  0  0  0
 18 22  1  0  0  0  0
 23 24  2  0  0  0  0
 23 25  1  0  0  0  0
 23 29  1  0  0  0  0
 25 26  1  0  0  0  0
 25 27  1  0  0  0  0
 25 28  1  0  0  0  0
 29 30  1  0  0  0  0
 29 34  1  0  0  0  0
 30 31  1  0  0  0  0
 30 33  1  0  0  0  0
 30 35  1  0  0  0  0
 31 32  2  0  0  0  0
 31 39  1  0  0  0  0
 33 36  1  0  0  0  0
 33 37  1  0  0  0  0
 33 38  1  0  0  0  0
 39 40  1  0  0  0  0
 39 45  1  0  0  0  0
 40 41  1  0  0  0  0
 40 43  1  0  0  0  0
 40 46  1  0  0  0  0
 41 42  2  0  0  0  0
 41 49  1  0  0  0  0
 43 44  1  0  0  0  0
 43 47  1  0  0  0  0
 43 48  1  0  0  0  0
 49 50  1  0  0  0  0
 49 54  1  0  0  0  0
 50 51  1  0  0  0  0
 50 53  1  0  0  0  0
 50 55  1  0  0  0  0
 51 52  2  0  0  0  0
 51 59  1  0  0  0  0
 53 56  1  0  0  0  0
 53 57  1  0  0  0  0
 53 58  1  0  0  0  0
 59 60  1  0  0  0  0
 59 61  1  0  0  0  0
 60 62  1  0  0  0  0
 60 63  1  0  0  0  0
 60 64  1  0  0  0  0
M  END
$$$$

  -OEChem-05262216053D

 64 63  0     1  0  0  0  0  0999 V2000
    1.5982   -5.0013   -8.1128 C   0  0  0  0  0  0  0  0  0  0  0  0
    0.4284   -4.7825   -8.3870 O   0  0  0  0  0  0  0  0  0  0  0  0
    2.1434   -6.4162   -8.1506 C   0  0  0  0  0  0  0  0  0  0  0  0
    2.5608   -6.6803   -7.1758 H   0  0  0  0  0  0  0  0  0  0  0  0
    1.3442   -7.1218   -8.3940 H   0  0  0  0  0  0  0  0  0  0  0  0
    2.9268   -6.4947   -8.9082 H   0  0  0  0  0  0  0  0  0  0  0  0
    2.4244   -3.9551   -7.7665 N   0  0  0  0  0  0  0  0  0  0  0  0
    2.0161   -2.5440   -7.7313 C   0  0  2  0  0  0  0  0  0  0  0  0
    3.2181   -1.5917   -7.9194 C   0  0  0  0  0  0  0  0  0  0  0  0
    4.3539   -2.0428   -8.0237 O   0  0  0  0  0  0  0  0  0  0  0  0
    1.2863   -2.2644   -6.4078 C   0  0  0  0  0  0  0  0  0  0  0  0
    2.4013   -2.4988   -4.9638 S   0  0  0  0  0  0  0  0  0  0  0  0
    3.4124   -4.1556   -7.6148 H   0  0  0  0  0  0  0  0  0  0  0  0
    1.3271   -2.3520   -8.5604 H   0  0  0  0  0  0  0  0  0  0  0  0
    0.8999   -1.2417   -6.4055 H   0  0  0  0  0  0  0  0  0  0  0  0
    0.4301   -2.9404   -6.3140 H   0  0  0  0  0  0  0  0  0  0  0  0
    3.0266   -0.2244   -8.0161 N   0  0  0  0  0  0  0  0  0  0  0  0
    4.1191    0.7262   -8.1885 C   0  0  0  0  0  0  0  0  0  0  0  0
    2.0766    0.1268   -7.9472 H   0  0  0  0  0  0  0  0  0  0  0  0
    4.8232    0.6571   -7.3524 H   0  0  0  0  0  0  0  0  0  0  0  0
    4.6582    0.5270   -9.1206 H   0  0  0  0  0  0  0  0  0  0  0  0
    3.7295    1.7480   -8.2274 H   0  0  0  0  0  0  0  0  0  0  0  0
   -5.6580    1.0356   -1.6046 C   0  0  0  0  0  0  0  0  0  0  0  0
   -6.0601    0.3441   -2.5272 O   0  0  0  0  0  0  0  0  0  0  0  0
   -6.6132    1.4762   -0.5116 C   0  0  0  0  0  0  0  0  0  0  0  0
   -6.7186    2.5637   -0.5250 H   0  0  0  0  0  0  0  0  0  0  0  0
   -7.5970    1.0236   -0.6657 H   0  0  0  0  0  0  0  0  0  0  0  0
   -6.2319    1.1655    0.4642 H   0  0  0  0  0  0  0  0  0  0  0  0
   -4.3316    1.4061   -1.5473 N   0  0  0  0  0  0  0  0  0  0  0  0
   -3.2903    0.8912   -2.4453 C   0  0  2  0  0  0  0  0  0  0  0  0
   -1.9300    0.7642   -1.7298 C   0  0  0  0  0  0  0  0  0  0  0  0
   -1.7707    1.2371   -0.6085 O   0  0  0  0  0  0  0  0  0  0  0  0
   -3.1707    1.8398   -3.6416 C   0  0  0  0  0  0  0  0  0  0  0  0
   -4.0106    1.8712   -0.6984 H   0  0  0  0  0  0  0  0  0  0  0  0
   -3.5681   -0.1072   -2.7994 H   0  0  0  0  0  0  0  0  0  0  0  0
   -2.8743    2.8399   -3.3080 H   0  0  0  0  0  0  0  0  0  0  0  0
   -2.4211    1.4745   -4.3496 H   0  0  0  0  0  0  0  0  0  0  0  0
   -4.1299    1.9155   -4.1632 H   0  0  0  0  0  0  0  0  0  0  0  0
   -0.9135   -0.0020   -2.2735 N   0  0  0  0  0  0  0  0  0  0  0  0
    0.5218    0.2760   -2.0560 C   0  0  2  0  0  0  0  0  0  0  0  0
    0.9411    1.7582   -1.8411 C   0  0  0  0  0  0  0  0  0  0  0  0
    0.2447    2.6778   -2.2597 O   0  0  0  0  0  0  0  0  0  0  0  0
    1.2605   -0.2646   -3.2911 C   0  0  0  0  0  0  0  0  0  0  0  0
    1.0951   -2.0913   -3.3900 S   0  0  0  0  0  0  0  0  0  0  0  0
   -1.1476   -0.4496   -3.1542 H   0  0  0  0  0  0  0  0  0  0  0  0
    0.8457   -0.2735   -1.1664 H   0  0  0  0  0  0  0  0  0  0  0  0
    0.8674    0.2026   -4.1996 H   0  0  0  0  0  0  0  0  0  0  0  0
    2.3269   -0.0240   -3.2312 H   0  0  0  0  0  0  0  0  0  0  0  0
    2.2773    2.0498   -1.6275 N   0  0  0  0  0  0  0  0  0  0  0  0
    2.8958    3.3741   -1.7770 C   0  0  2  0  0  0  0  0  0  0  0  0
    4.3792    3.2535   -2.1859 C   0  0  0  0  0  0  0  0  0  0  0  0
    4.9112    2.1499   -2.2448 O   0  0  0  0  0  0  0  0  0  0  0  0
    2.7471    4.1263   -0.4500 C   0  0  0  0  0  0  0  0  0  0  0  0
    2.9171    1.2647   -1.5068 H   0  0  0  0  0  0  0  0  0  0  0  0
    2.3890    3.9362   -2.5685 H   0  0  0  0  0  0  0  0  0  0  0  0
    3.2706    3.5970    0.3527 H   0  0  0  0  0  0  0  0  0  0  0  0
    3.1602    5.1360   -0.5300 H   0  0  0  0  0  0  0  0  0  0  0  0
    1.6894    4.2094   -0.1790 H   0  0  0  0  0  0  0  0  0  0  0  0
    5.1119    4.3767   -2.5229 N   0  0  0  0  0  0  0  0  0  0  0  0
    6.5103    4.3261   -2.9339 C   0  0  0  0  0  0  0  0  0  0  0  0
    4.6451    5.2777   -2.4718 H   0  0  0  0  0  0  0  0  0  0  0  0
    7.1232    3.8601   -2.1550 H   0  0  0  0  0  0  0  0  0  0  0  0
    6.6168    3.7485   -3.8582 H   0  0  0  0  0  0  0  0  0  0  0  0
    6.8901    5.3369   -3.1119 H   0  0  0  0  0  0  0  0  0  0  0  0
  1  2  2  0  0  0  0
  1  3  1  0  0  0  0
  1  7  1  0  0  0  0
  3  4  1  0  0  0  0
  3  5  1  0  0  0  0
  3  6  1  0  0  0  0
  7  8  1  0  0  0  0
  7 13  1  0  0  0  0
  8  9  1  0  0  0  0
  8 11  1  0  0  0  0
  8 14  1  0  0  0  0
  9 10  2  0  0  0  0
  9 17  1  0  0  0  0
 11 12  1  0  0  0  0
 11 15  1  0  0  0  0
 11 16  1  0  0  0  0
 12 44  1  0  0  0  0
 17 18  1  0  0  0  0
 17 19  1  0  0  0  0
 18 20  1  0  0  0  0
 18 21  1  0  0  0  0
 18 22  1  0  0  0  0
 23 24  2  0  0  0  0
 23 25  1  0  0  0  0
 23 29  1  0  0  0  0
 25 26  1  0  0  0  0
 25 27  1  0  0  0  0
 25 28  1  0  0  0  0
 29 30  1  0  0  0  0
 29 34  1  0  0  0  0
 30 31  1  0  0  0  0
 30 33  1  0  0  0  0
 30 35  1  0  0  0  0
 31 32  2  0  0  0  0
 31 39  1  0  0  0  0
 33 36  1  0  0  0  0
 33 37  1  0  0  0  0
 33 38  1  0  0  0  0
 39 40  1  0  0  0  0
 39 45  1  0  0  0  0
 40 41  1  0  0  0  0
 40 43  1  0  0  0  0
 40 46  1  0  0  0  0
 41 42  2  0  0  0  0
 41 49  1  0  0  0  0
 43 44  1  0  0  0  0
 43 47  1  0  0  0  0
 43 48  1  0  0  0  0
 49 50  1  0  0  0  0
 49 54  1  0  0  0  0
 50 51  1  0  0  0  0
 50 53  1  0  0  0  0
 50 55  1  0  0  0  0
 51 52  2  0  0  0  0
 51 59  1  0  0  0  0
 53 56  1  0  0  0  0
 53 57  1  0  0  0  0
 53 58  1  0  0  0  0
 59 60  1  0  0  0  0
 59 61  1  0  0  0  0
 60 62  1  0  0  0  0
 60 63  1  0  0  0  0
 60 64  1  0  0  0  0
M  END
$$$$

  -OEChem-05262216053D

 64 63  0     1  0  0  0  0  0999 V2000
    2.2900   -3.7846   -8.6529 C   0  0  0  0  0  0  0  0  0  0  0  0
    1.4551   -3.0276   -9.1234 O   0  0  0  0  0  0  0  0  0  0  0  0
    2.4456   -5.1887   -9.2054 C   0  0  0  0  0  0  0  0  0  0  0  0
    2.2711   -5.9218   -8.4141 H   0  0  0  0  0  0  0  0  0  0  0  0
    1.7243   -5.3595  -10.0095 H   0  0  0  0  0  0  0  0  0  0  0  0
    3.4547   -5.3239   -9.6020 H   0  0  0  0  0  0  0  0  0  0  0  0
    3.0973   -3.3595   -7.6209 N   0  0  0  0  0  0  0  0  0  0  0  0
    3.1225   -1.9863   -7.0963 C   0  0  2  0  0  0  0  0  0  0  0  0
    4.4960   -1.6438   -6.4718 C   0  0  0  0  0  0  0  0  0  0  0  0
    5.4148   -2.4547   -6.5521 O   0  0  0  0  0  0  0  0  0  0  0  0
    1.9708   -1.8097   -6.0967 C   0  0  0  0  0  0  0  0  0  0  0  0
    2.2553   -2.7621   -4.5469 S   0  0  0  0  0  0  0  0  0  0  0  0
    3.8652   -3.9690   -7.3415 H   0  0  0  0  0  0  0  0  0  0  0  0
    2.9726   -1.2855   -7.9244 H   0  0  0  0  0  0  0  0  0  0  0  0
    1.8699   -0.7477   -5.8585 H   0  0  0  0  0  0  0  0  0  0  0  0
    1.0310   -2.1346   -6.5544 H   0  0  0  0  0  0  0  0  0  0  0  0
    4.7422   -0.4226   -5.8685 N   0  0  0  0  0  0  0  0  0  0  0  0
    6.0229   -0.0778   -5.2658 C   0  0  0  0  0  0  0  0  0  0  0  0
    3.9539    0.2116   -5.7141 H   0  0  0  0  0  0  0  0  0  0  0  0
    6.2394   -0.7406   -4.4215 H   0  0  0  0  0  0  0  0  0  0  0  0
    6.8300   -0.1662   -6.0007 H   0  0  0  0  0  0  0  0  0  0  0  0
    6.0010    0.9541   -4.9023 H   0  0  0  0  0  0  0  0  0  0  0  0
   -5.6095    1.9562   -1.4776 C   0  0  0  0  0  0  0  0  0  0  0  0
   -6.1164    1.4197   -2.4503 O   0  0  0  0  0  0  0  0  0  0  0  0
   -6.4872    2.5683   -0.4025 C   0  0  0  0  0  0  0  0  0  0  0  0
   -6.2138    3.6145   -0.2474 H   0  0  0  0  0  0  0  0  0  0  0  0
   -7.5377    2.5196   -0.7016 H   0  0  0  0  0  0  0  0  0  0  0  0
   -6.3620    2.0230    0.5360 H   0  0  0  0  0  0  0  0  0  0  0  0
   -4.2377    1.9930   -1.3495 N   0  0  0  0  0  0  0  0  0  0  0  0
   -3.3018    1.2996   -2.2431 C   0  0  2  0  0  0  0  0  0  0  0  0
   -1.9953    0.9210   -1.5167 C   0  0  0  0  0  0  0  0  0  0  0  0
   -1.7761    1.3183   -0.3766 O   0  0  0  0  0  0  0  0  0  0  0  0
   -2.9911    2.2167   -3.4309 C   0  0  0  0  0  0  0  0  0  0  0  0
   -3.8533    2.3483   -0.4743 H   0  0  0  0  0  0  0  0  0  0  0  0
   -3.7579    0.3721   -2.6057 H   0  0  0  0  0  0  0  0  0  0  0  0
   -2.5125    3.1384   -3.0834 H   0  0  0  0  0  0  0  0  0  0  0  0
   -2.3175    1.7211   -4.1367 H   0  0  0  0  0  0  0  0  0  0  0  0
   -3.9122    2.4797   -3.9606 H   0  0  0  0  0  0  0  0  0  0  0  0
   -1.1018    0.0330   -2.0879 N   0  0  0  0  0  0  0  0  0  0  0  0
    0.3630    0.1082   -1.9048 C   0  0  2  0  0  0  0  0  0  0  0  0
    1.0018    1.5183   -1.6879 C   0  0  0  0  0  0  0  0  0  0  0  0
    0.3731    2.5394   -1.9525 O   0  0  0  0  0  0  0  0  0  0  0  0
    0.9530   -0.4700   -3.2031 C   0  0  0  0  0  0  0  0  0  0  0  0
    0.5591   -2.2443   -3.4411 S   0  0  0  0  0  0  0  0  0  0  0  0
   -1.4101   -0.3541   -2.9752 H   0  0  0  0  0  0  0  0  0  0  0  0
    0.6450   -0.5153   -1.0505 H   0  0  0  0  0  0  0  0  0  0  0  0
    0.5965    0.1090   -4.0613 H   0  0  0  0  0  0  0  0  0  0  0  0
    2.0429   -0.3950   -3.1901 H   0  0  0  0  0  0  0  0  0  0  0  0
    2.3792    1.6393   -1.8236 N   0  0  0  0  0  0  0  0  0  0  0  0
    2.9930    2.7492   -2.5665 C   0  0  2  0  0  0  0  0  0  0  0  0
    2.6894    2.6404   -4.0795 C   0  0  0  0  0  0  0  0  0  0  0  0
    3.0390    1.6477   -4.7152 O   0  0  0  0  0  0  0  0  0  0  0  0
    4.5006    2.7192   -2.3050 C   0  0  0  0  0  0  0  0  0  0  0  0
    2.8920    0.7620   -1.8242 H   0  0  0  0  0  0  0  0  0  0  0  0
    2.6047    3.7049   -2.1977 H   0  0  0  0  0  0  0  0  0  0  0  0
    4.9322    1.7690   -2.6351 H   0  0  0  0  0  0  0  0  0  0  0  0
    4.9956    3.5319   -2.8460 H   0  0  0  0  0  0  0  0  0  0  0  0
    4.7023    2.8413   -1.2362 H   0  0  0  0  0  0  0  0  0  0  0  0
    1.9563    3.6239   -4.7132 N   0  0  0  0  0  0  0  0  0  0  0  0
    1.4999    3.5122   -6.0929 C   0  0  0  0  0  0  0  0  0  0  0  0
    1.5003    4.3032   -4.1076 H   0  0  0  0  0  0  0  0  0  0  0  0
    2.3537    3.4369   -6.7747 H   0  0  0  0  0  0  0  0  0  0  0  0
    0.8681    2.6266   -6.2171 H   0  0  0  0  0  0  0  0  0  0  0  0
    0.9158    4.3952   -6.3700 H   0  0  0  0  0  0  0  0  0  0  0  0
  1  2  2  0  0  0  0
  1  3  1  0  0  0  0
  1  7  1  0  0  0  0
  3  4  1  0  0  0  0
  3  5  1  0  0  0  0
  3  6  1  0  0  0  0
  7  8  1  0  0  0  0
  7 13  1  0  0  0  0
  8  9  1  0  0  0  0
  8 11  1  0  0  0  0
  8 14  1  0  0  0  0
  9 10  2  0  0  0  0
  9 17  1  0  0  0  0
 11 12  1  0  0  0  0
 11 15  1  0  0  0  0
 11 16  1  0  0  0  0
 12 44  1  0  0  0  0
 17 18  1  0  0  0  0
 17 19  1  0  0  0  0
 18 20  1  0  0  0  0
 18 21  1  0  0  0  0
 18 22  1  0  0  0  0
 23 24  2  0  0  0  0
 23 25  1  0  0  0  0
 23 29  1  0  0  0  0
 25 26  1  0  0  0  0
 25 27  1  0  0  0  0
 25 28  1  0  0  0  0
 29 30  1  0  0  0  0
 29 34  1  0  0  0  0
 30 31  1  0  0  0  0
 30 33  1  0  0  0  0
 30 35  1  0  0  0  0
 31 32  2  0  0  0  0
 31 39  1  0  0  0  0
 33 36  1  0  0  0  0
 33 37  1  0  0  0  0
 33 38  1  0  0  0  0
 39 40  1  0  0  0  0
 39 45  1  0  0  0  0
 40 41  1  0  0  0  0
 40 43  1  0  0  0  0
 40 46  1  0  0  0  0
 41 42  2  0  0  0  0
 41 49  1  0  0  0  0
 43 44  1  0  0  0  0
 43 47  1  0  0  0  0
 43 48  1  0  0  0  0
 49 50  1  0  0  0  0
 49 54  1  0  0  0  0
 50 51  1  0  0  0  0
 50 53  1  0  0  0  0
 50 55  1  0  0  0  0
 51 52  2  0  0  0  0
 51 59  1  0  0  0  0
 53 56  1  0  0  0  0
 53 57  1  0  0  0  0
 53 58  1  0  0  0  0
 59 60  1  0  0  0  0
 59 61  1  0  0  0  0
 60 62  1  0  0  0  0
 60 63  1  0  0  0  0
 60 64  1  0  0  0  0
M  END
$$$$

  -OEChem-05262216053D

 64 63  0     1  0  0  0  0  0999 V2000
    1.7472   -4.8735   -8.3468 C   0  0  0  0  0  0  0  0  0  0  0  0
    0.5937   -4.6150   -8.6534 O   0  0  0  0  0  0  0  0  0  0  0  0
    2.3084   -6.2630   -8.5807 C   0  0  0  0  0  0  0  0  0  0  0  0
    2.6700   -6.6835   -7.6391 H   0  0  0  0  0  0  0  0  0  0  0  0
    1.5327   -6.9190   -8.9855 H   0  0  0  0  0  0  0  0  0  0  0  0
    3.1362   -6.2149   -9.2922 H   0  0  0  0  0  0  0  0  0  0  0  0
    2.5438   -3.8925   -7.7990 N   0  0  0  0  0  0  0  0  0  0  0  0
    2.1380   -2.4907   -7.6263 C   0  0  2  0  0  0  0  0  0  0  0  0
    3.3568   -1.5421   -7.5874 C   0  0  0  0  0  0  0  0  0  0  0  0
    4.4917   -1.9941   -7.7019 O   0  0  0  0  0  0  0  0  0  0  0  0
    1.2881   -2.3596   -6.3522 C   0  0  0  0  0  0  0  0  0  0  0  0
    2.2807   -2.7055   -4.8426 S   0  0  0  0  0  0  0  0  0  0  0  0
    3.5258   -4.1124   -7.6348 H   0  0  0  0  0  0  0  0  0  0  0  0
    1.5305   -2.1879   -8.4855 H   0  0  0  0  0  0  0  0  0  0  0  0
    0.8754   -1.3495   -6.2904 H   0  0  0  0  0  0  0  0  0  0  0  0
    0.4448   -3.0566   -6.3976 H   0  0  0  0  0  0  0  0  0  0  0  0
    3.1853   -0.1759   -7.4509 N   0  0  0  0  0  0  0  0  0  0  0  0
    4.2986    0.7531   -7.2993 C   0  0  0  0  0  0  0  0  0  0  0  0
    2.2429    0.1701   -7.3024 H   0  0  0  0  0  0  0  0  0  0  0  0
    4.8572    0.5345   -6.3831 H   0  0  0  0  0  0  0  0  0  0  0  0
    4.9794    0.6809   -8.1540 H   0  0  0  0  0  0  0  0  0  0  0  0
    3.9277    1.7808   -7.2404 H   0  0  0  0  0  0  0  0  0  0  0  0
   -5.6388    1.2359   -1.6340 C   0  0  0  0  0  0  0  0  0  0  0  0
   -6.0372    0.6985   -2.6557 O   0  0  0  0  0  0  0  0  0  0  0  0
   -6.6142    1.5844   -0.5265 C   0  0  0  0  0  0  0  0  0  0  0  0
   -6.5352    2.6459   -0.2801 H   0  0  0  0  0  0  0  0  0  0  0  0
   -7.6381    1.3714   -0.8454 H   0  0  0  0  0  0  0  0  0  0  0  0
   -6.3908    0.9924    0.3643 H   0  0  0  0  0  0  0  0  0  0  0  0
   -4.2970    1.5064   -1.4755 N   0  0  0  0  0  0  0  0  0  0  0  0
   -3.2460    1.0308   -2.3827 C   0  0  2  0  0  0  0  0  0  0  0  0
   -1.9271    0.7593   -1.6308 C   0  0  0  0  0  0  0  0  0  0  0  0
   -1.8142    1.0639   -0.4487 O   0  0  0  0  0  0  0  0  0  0  0  0
   -3.0253    2.0874   -3.4688 C   0  0  0  0  0  0  0  0  0  0  0  0
   -3.9887    1.8340   -0.5598 H   0  0  0  0  0  0  0  0  0  0  0  0
   -3.5578    0.0899   -2.8482 H   0  0  0  0  0  0  0  0  0  0  0  0
   -2.6997    3.0313   -3.0190 H   0  0  0  0  0  0  0  0  0  0  0  0
   -2.2601    1.7576   -4.1777 H   0  0  0  0  0  0  0  0  0  0  0  0
   -3.9540    2.2647   -4.0207 H   0  0  0  0  0  0  0  0  0  0  0  0
   -0.9316   -0.0070   -2.2094 N   0  0  0  0  0  0  0  0  0  0  0  0
    0.5209    0.2330   -2.0535 C   0  0  2  0  0  0  0  0  0  0  0  0
    1.0266    1.7013   -1.8452 C   0  0  0  0  0  0  0  0  0  0  0  0
    0.2807    2.6369   -1.5929 O   0  0  0  0  0  0  0  0  0  0  0  0
    1.1599   -0.3847   -3.3139 C   0  0  0  0  0  0  0  0  0  0  0  0
    0.9153   -2.2046   -3.3470 S   0  0  0  0  0  0  0  0  0  0  0  0
   -1.2032   -0.4220   -3.0950 H   0  0  0  0  0  0  0  0  0  0  0  0
    0.8603   -0.3222   -1.1731 H   0  0  0  0  0  0  0  0  0  0  0  0
    0.7429    0.0749   -4.2153 H   0  0  0  0  0  0  0  0  0  0  0  0
    2.2398   -0.2149   -3.3248 H   0  0  0  0  0  0  0  0  0  0  0  0
    2.2871    2.0629   -2.2961 N   0  0  0  0  0  0  0  0  0  0  0  0
    2.7297    3.4341   -2.5916 C   0  0  2  0  0  0  0  0  0  0  0  0
    3.5633    3.4773   -3.8912 C   0  0  0  0  0  0  0  0  0  0  0  0
    3.7895    2.4408   -4.5090 O   0  0  0  0  0  0  0  0  0  0  0  0
    3.5340    3.9348   -1.3888 C   0  0  0  0  0  0  0  0  0  0  0  0
    2.8592    1.3224   -2.6977 H   0  0  0  0  0  0  0  0  0  0  0  0
    1.8686    4.0935   -2.7442 H   0  0  0  0  0  0  0  0  0  0  0  0
    4.4241    3.3158   -1.2380 H   0  0  0  0  0  0  0  0  0  0  0  0
    3.8490    4.9716   -1.5381 H   0  0  0  0  0  0  0  0  0  0  0  0
    2.9210    3.8903   -0.4824 H   0  0  0  0  0  0  0  0  0  0  0  0
    4.0424    4.6751   -4.3888 N   0  0  0  0  0  0  0  0  0  0  0  0
    4.8716    4.7731   -5.5846 C   0  0  0  0  0  0  0  0  0  0  0  0
    3.8561    5.5169   -3.8509 H   0  0  0  0  0  0  0  0  0  0  0  0
    5.8138    4.2330   -5.4422 H   0  0  0  0  0  0  0  0  0  0  0  0
    4.3499    4.3511   -6.4502 H   0  0  0  0  0  0  0  0  0  0  0  0
    5.1034    5.8208   -5.8001 H   0  0  0  0  0  0  0  0  0  0  0  0
  1  2  2  0  0  0  0
  1  3  1  0  0  0  0
  1  7  1  0  0  0  0
  3  4  1  0  0  0  0
  3  5  1  0  0  0  0
  3  6  1  0  0  0  0
  7  8  1  0  0  0  0
  7 13  1  0  0  0  0
  8  9  1  0  0  0  0
  8 11  1  0  0  0  0
  8 14  1  0  0  0  0
  9 10  2  0  0  0  0
  9 17  1  0  0  0  0
 11 12  1  0  0  0  0
 11 15  1  0  0  0  0
 11 16  1  0  0  0  0
 12 44  1  0  0  0  0
 17 18  1  0  0  0  0
 17 19  1  0  0  0  0
 18 20  1  0  0  0  0
 18 21  1  0  0  0  0
 18 22  1  0  0  0  0
 23 24  2  0  0  0  0
 23 25  1  0  0  0  0
 23 29  1  0  0  0  0
 25 26  1  0  0  0  0
 25 27  1  0  0  0  0
 25 28  1  0  0  0  0
 29 30  1  0  0  0  0
 29 34  1  0  0  0  0
 30 31  1  0  0  0  0
 30 33  1  0  0  0  0
 30 35  1  0  0  0  0
 31 32  2  0  0  0  0
 31 39  1  0  0  0  0
 33 36  1  0  0  0  0
 33 37  1  0  0  0  0
 33 38  1  0  0  0  0
 39 40  1  0  0  0  0
 39 45  1  0  0  0  0
 40 41  1  0  0  0  0
 40 43  1  0  0  0  0
 40 46  1  0  0  0  0
 41 42  2  0  0  0  0
 41 49  1  0  0  0  0
 43 44  1  0  0  0  0
 43 47  1  0  0  0  0
 43 48  1  0  0  0  0
 49 50  1  0  0  0  0
 49 54  1  0  0  0  0
 50 51  1  0  0  0  0
 50 53  1  0  0  0  0
 50 55  1  0  0  0  0
 51 52  2  0  0  0  0
 51 59  1  0  0  0  0
 53 56  1  0  0  0  0
 53 57  1  0  0  0  0
 53 58  1  0  0  0  0
 59 60  1  0  0  0  0
 59 61  1  0  0  0  0
 60 62  1  0  0  0  0
 60 63  1  0  0  0  0
 60 64  1  0  0  0  0
M  END
$$$$

  -OEChem-05262216053D

 64 63  0     1  0  0  0  0  0999 V2000
    1.8202   -4.9424   -8.3831 C   0  0  0  0  0  0  0  0  0  0  0  0
    0.6808   -4.7519   -8.7793 O   0  0  0  0  0  0  0  0  0  0  0  0
    2.4826   -6.2936   -8.5755 C   0  0  0  0  0  0  0  0  0  0  0  0
    2.6947   -6.7465   -7.6038 H   0  0  0  0  0  0  0  0  0  0  0  0
    1.8238   -6.9596   -9.1397 H   0  0  0  0  0  0  0  0  0  0  0  0
    3.4186   -6.1753   -9.1270 H   0  0  0  0  0  0  0  0  0  0  0  0
    2.5088   -3.9192   -7.7697 N   0  0  0  0  0  0  0  0  0  0  0  0
    2.0026   -2.5483   -7.6173 C   0  0  2  0  0  0  0  0  0  0  0  0
    3.1508   -1.5197   -7.5106 C   0  0  0  0  0  0  0  0  0  0  0  0
    4.3165   -1.8999   -7.4746 O   0  0  0  0  0  0  0  0  0  0  0  0
    1.0871   -2.4798   -6.3852 C   0  0  0  0  0  0  0  0  0  0  0  0
    2.0224   -2.8239   -4.8381 S   0  0  0  0  0  0  0  0  0  0  0  0
    3.4847   -4.0810   -7.5231 H   0  0  0  0  0  0  0  0  0  0  0  0
    1.4192   -2.2824   -8.5051 H   0  0  0  0  0  0  0  0  0  0  0  0
    0.6330   -1.4874   -6.3234 H   0  0  0  0  0  0  0  0  0  0  0  0
    0.2747   -3.2070   -6.4865 H   0  0  0  0  0  0  0  0  0  0  0  0
    2.8832   -0.1623   -7.4765 N   0  0  0  0  0  0  0  0  0  0  0  0
    3.9214    0.8553   -7.3564 C   0  0  0  0  0  0  0  0  0  0  0  0
    1.9145    0.1357   -7.5369 H   0  0  0  0  0  0  0  0  0  0  0  0
    4.4611    0.7434   -6.4102 H   0  0  0  0  0  0  0  0  0  0  0  0
    4.6366    0.7759   -8.1818 H   0  0  0  0  0  0  0  0  0  0  0  0
    3.4761    1.8543   -7.3832 H   0  0  0  0  0  0  0  0  0  0  0  0
   -5.5158    1.1833   -1.1331 C   0  0  0  0  0  0  0  0  0  0  0  0
   -5.8451    0.0090   -1.1963 O   0  0  0  0  0  0  0  0  0  0  0  0
   -6.3234    2.1555   -0.2946 C   0  0  0  0  0  0  0  0  0  0  0  0
   -6.7617    2.9243   -0.9355 H   0  0  0  0  0  0  0  0  0  0  0  0
   -7.1279    1.6265    0.2237 H   0  0  0  0  0  0  0  0  0  0  0  0
   -5.6799    2.6326    0.4486 H   0  0  0  0  0  0  0  0  0  0  0  0
   -4.4091    1.6264   -1.8259 N   0  0  0  0  0  0  0  0  0  0  0  0
   -3.4694    0.7463   -2.5316 C   0  0  2  0  0  0  0  0  0  0  0  0
   -2.0192    1.2672   -2.4348 C   0  0  0  0  0  0  0  0  0  0  0  0
   -1.8353    2.4481   -2.1866 O   0  0  0  0  0  0  0  0  0  0  0  0
   -3.9127    0.6480   -3.9941 C   0  0  0  0  0  0  0  0  0  0  0  0
   -4.0917    2.5791   -1.6454 H   0  0  0  0  0  0  0  0  0  0  0  0
   -3.4891   -0.2517   -2.0807 H   0  0  0  0  0  0  0  0  0  0  0  0
   -3.8900    1.6346   -4.4680 H   0  0  0  0  0  0  0  0  0  0  0  0
   -3.2524   -0.0220   -4.5520 H   0  0  0  0  0  0  0  0  0  0  0  0
   -4.9329    0.2557   -4.0549 H   0  0  0  0  0  0  0  0  0  0  0  0
   -0.9759    0.4082   -2.7419 N   0  0  0  0  0  0  0  0  0  0  0  0
    0.4611    0.5010   -2.3893 C   0  0  2  0  0  0  0  0  0  0  0  0
    1.1136    1.9040   -2.2050 C   0  0  0  0  0  0  0  0  0  0  0  0
    0.8167    2.5914   -1.2378 O   0  0  0  0  0  0  0  0  0  0  0  0
    1.1784   -0.3054   -3.4868 C   0  0  0  0  0  0  0  0  0  0  0  0
    0.7077   -2.0795   -3.4016 S   0  0  0  0  0  0  0  0  0  0  0  0
   -1.2882   -0.5316   -2.9729 H   0  0  0  0  0  0  0  0  0  0  0  0
    0.6118   -0.0048   -1.4299 H   0  0  0  0  0  0  0  0  0  0  0  0
    0.9452    0.1058   -4.4742 H   0  0  0  0  0  0  0  0  0  0  0  0
    2.2629   -0.2592   -3.3471 H   0  0  0  0  0  0  0  0  0  0  0  0
    2.3451    2.1933   -2.7712 N   0  0  0  0  0  0  0  0  0  0  0  0
    2.9953    3.5082   -2.6926 C   0  0  2  0  0  0  0  0  0  0  0  0
    3.4414    3.9788   -4.0929 C   0  0  0  0  0  0  0  0  0  0  0  0
    3.4602    3.1840   -5.0291 O   0  0  0  0  0  0  0  0  0  0  0  0
    4.1920    3.3889   -1.7468 C   0  0  0  0  0  0  0  0  0  0  0  0
    2.5939    1.6446   -3.5921 H   0  0  0  0  0  0  0  0  0  0  0  0
    2.3005    4.2595   -2.3010 H   0  0  0  0  0  0  0  0  0  0  0  0
    4.9153    2.6627   -2.1317 H   0  0  0  0  0  0  0  0  0  0  0  0
    4.6922    4.3556   -1.6362 H   0  0  0  0  0  0  0  0  0  0  0  0
    3.8569    3.0577   -0.7586 H   0  0  0  0  0  0  0  0  0  0  0  0
    3.8085    5.2932   -4.3129 N   0  0  0  0  0  0  0  0  0  0  0  0
    4.2104    5.8046   -5.6175 C   0  0  0  0  0  0  0  0  0  0  0  0
    3.7478    5.9368   -3.5286 H   0  0  0  0  0  0  0  0  0  0  0  0
    5.0933    5.2704   -5.9832 H   0  0  0  0  0  0  0  0  0  0  0  0
    3.3999    5.6840   -6.3437 H   0  0  0  0  0  0  0  0  0  0  0  0
    4.4558    6.8684   -5.5480 H   0  0  0  0  0  0  0  0  0  0  0  0
  1  2  2  0  0  0  0
  1  3  1  0  0  0  0
  1  7  1  0  0  0  0
  3  4  1  0  0  0  0
  3  5  1  0  0  0  0
  3  6  1  0  0  0  0
  7  8  1  0  0  0  0
  7 13  1  0  0  0  0
  8  9  1  0  0  0  0
  8 11  1  0  0  0  0
  8 14  1  0  0  0  0
  9 10  2  0  0  0  0
  9 17  1  0  0  0  0
 11 12  1  0  0  0  0
 11 15  1  0  0  0  0
 11 16  1  0  0  0  0
 12 44  1  0  0  0  0
 17 18  1  0  0  0  0
 17 19  1  0  0  0  0
 18 20  1  0  0  0  0
 18 21  1  0  0  0  0
 18 22  1  0  0  0  0
 23 24  2  0  0  0  0
 23 25  1  0  0  0  0
 23 29  1  0  0  0  0
 25 26  1  0  0  0  0
 25 27  1  0  0  0  0
 25 28  1  0  0  0  0
 29 30  1  0  0  0  0
 29 34  1  0  0  0  0
 30 31  1  0  0  0  0
 30 33  1  0  0  0  0
 30 35  1  0  0  0  0
 31 32  2  0  0  0  0
 31 39  1  0  0  0  0
 33 36  1  0  0  0  0
 33 37  1  0  0  0  0
 33 38  1  0  0  0  0
 39 40  1  0  0  0  0
 39 45  1  0  0  0  0
 40 41  1  0  0  0  0
 40 43  1  0  0  0  0
 40 46  1  0  0  0  0
 41 42  2  0  0  0  0
 41 49  1  0  0  0  0
 43 44  1  0  0  0  0
 43 47  1  0  0  0  0
 43 48  1  0  0  0  0
 49 50  1  0  0  0  0
 49 54  1  0  0  0  0
 50 51  1  0  0  0  0
 50 53  1  0  0  0  0
 50 55  1  0  0  0  0
 51 52  2  0  0  0  0
 51 59  1  0  0  0  0
 53 56  1  0  0  0  0
 53 57  1  0  0  0  0
 53 58  1  0  0  0  0
 59 60  1  0  0  0  0
 59 61  1  0  0  0  0
 60 62  1  0  0  0  0
 60 63  1  0  0  0  0
 60 64  1  0  0  0  0
M  END
$$$$

  -OEChem-05262216053D

 64 63  0     1  0  0  0  0  0999 V2000
    1.8001   -4.9241   -8.3598 C   0  0  0  0  0  0  0  0  0  0  0  0
    0.6414   -4.7731   -8.7147 O   0  0  0  0  0  0  0  0  0  0  0  0
    2.4935   -6.2590   -8.5523 C   0  0  0  0  0  0  0  0  0  0  0  0
    2.8518   -6.6348   -7.5908 H   0  0  0  0  0  0  0  0  0  0  0  0
    1.7974   -6.9871   -8.9780 H   0  0  0  0  0  0  0  0  0  0  0  0
    3.3425   -6.1437   -9.2304 H   0  0  0  0  0  0  0  0  0  0  0  0
    2.4789   -3.8714   -7.7873 N   0  0  0  0  0  0  0  0  0  0  0  0
    1.9225   -2.5254   -7.5957 C   0  0  2  0  0  0  0  0  0  0  0  0
    3.0306   -1.4529   -7.5091 C   0  0  0  0  0  0  0  0  0  0  0  0
    4.2078   -1.7880   -7.4275 O   0  0  0  0  0  0  0  0  0  0  0  0
    1.0528   -2.5115   -6.3289 C   0  0  0  0  0  0  0  0  0  0  0  0
    2.0539   -2.8647   -4.8249 S   0  0  0  0  0  0  0  0  0  0  0  0
    3.4627   -4.0038   -7.5538 H   0  0  0  0  0  0  0  0  0  0  0  0
    1.2972   -2.2714   -8.4581 H   0  0  0  0  0  0  0  0  0  0  0  0
    0.5742   -1.5342   -6.2269 H   0  0  0  0  0  0  0  0  0  0  0  0
    0.2574   -3.2589   -6.4159 H   0  0  0  0  0  0  0  0  0  0  0  0
    2.7117   -0.1067   -7.5395 N   0  0  0  0  0  0  0  0  0  0  0  0
    3.7037    0.9551   -7.4128 C   0  0  0  0  0  0  0  0  0  0  0  0
    1.7348    0.1510   -7.6400 H   0  0  0  0  0  0  0  0  0  0  0  0
    4.0951    0.9917   -6.3908 H   0  0  0  0  0  0  0  0  0  0  0  0
    4.5374    0.7922   -8.1039 H   0  0  0  0  0  0  0  0  0  0  0  0
    3.2524    1.9242   -7.6470 H   0  0  0  0  0  0  0  0  0  0  0  0
   -5.4951    1.1103   -1.1979 C   0  0  0  0  0  0  0  0  0  0  0  0
   -5.8532   -0.0432   -1.3771 O   0  0  0  0  0  0  0  0  0  0  0  0
   -6.2966    2.0258   -0.2924 C   0  0  0  0  0  0  0  0  0  0  0  0
   -6.6916    2.8656   -0.8688 H   0  0  0  0  0  0  0  0  0  0  0  0
   -7.1319    1.4783    0.1527 H   0  0  0  0  0  0  0  0  0  0  0  0
   -5.6602    2.4093    0.5086 H   0  0  0  0  0  0  0  0  0  0  0  0
   -4.3574    1.5814   -1.8174 N   0  0  0  0  0  0  0  0  0  0  0  0
   -3.4258    0.7444   -2.5841 C   0  0  2  0  0  0  0  0  0  0  0  0
   -1.9670    1.2211   -2.4170 C   0  0  0  0  0  0  0  0  0  0  0  0
   -1.7591    2.3781   -2.0871 O   0  0  0  0  0  0  0  0  0  0  0  0
   -3.8446    0.7878   -4.0569 C   0  0  0  0  0  0  0  0  0  0  0  0
   -4.0247    2.5076   -1.5485 H   0  0  0  0  0  0  0  0  0  0  0  0
   -3.4763   -0.2891   -2.2245 H   0  0  0  0  0  0  0  0  0  0  0  0
   -3.8056    1.8146   -4.4350 H   0  0  0  0  0  0  0  0  0  0  0  0
   -3.1809    0.1661   -4.6650 H   0  0  0  0  0  0  0  0  0  0  0  0
   -4.8672    0.4135   -4.1708 H   0  0  0  0  0  0  0  0  0  0  0  0
   -0.9312    0.3510   -2.7173 N   0  0  0  0  0  0  0  0  0  0  0  0
    0.5049    0.4576   -2.3696 C   0  0  2  0  0  0  0  0  0  0  0  0
    1.1280    1.8763   -2.2208 C   0  0  0  0  0  0  0  0  0  0  0  0
    0.9823    2.4930   -1.1736 O   0  0  0  0  0  0  0  0  0  0  0  0
    1.2401   -0.3564   -3.4461 C   0  0  0  0  0  0  0  0  0  0  0  0
    0.7923   -2.1347   -3.3352 S   0  0  0  0  0  0  0  0  0  0  0  0
   -1.2401   -0.5842   -2.9710 H   0  0  0  0  0  0  0  0  0  0  0  0
    0.6601   -0.0252   -1.3988 H   0  0  0  0  0  0  0  0  0  0  0  0
    1.0034    0.0326   -4.4413 H   0  0  0  0  0  0  0  0  0  0  0  0
    2.3228   -0.2811   -3.2994 H   0  0  0  0  0  0  0  0  0  0  0  0
    2.1777    2.2866   -3.0274 N   0  0  0  0  0  0  0  0  0  0  0  0
    2.7472    3.6395   -3.0021 C   0  0  2  0  0  0  0  0  0  0  0  0
    2.9410    4.1739   -4.4364 C   0  0  0  0  0  0  0  0  0  0  0  0
    2.8673    3.4062   -5.3924 O   0  0  0  0  0  0  0  0  0  0  0  0
    4.0799    3.5846   -2.2514 C   0  0  0  0  0  0  0  0  0  0  0  0
    2.2760    1.7970   -3.9149 H   0  0  0  0  0  0  0  0  0  0  0  0
    2.0691    4.3283   -2.4861 H   0  0  0  0  0  0  0  0  0  0  0  0
    4.7766    2.9078   -2.7561 H   0  0  0  0  0  0  0  0  0  0  0  0
    4.5347    4.5784   -2.1991 H   0  0  0  0  0  0  0  0  0  0  0  0
    3.9213    3.2236   -1.2300 H   0  0  0  0  0  0  0  0  0  0  0  0
    3.1764    5.5171   -4.6623 N   0  0  0  0  0  0  0  0  0  0  0  0
    3.3187    6.0918   -5.9945 C   0  0  0  0  0  0  0  0  0  0  0  0
    3.1948    6.1343   -3.8549 H   0  0  0  0  0  0  0  0  0  0  0  0
    4.1952    5.6737   -6.5006 H   0  0  0  0  0  0  0  0  0  0  0  0
    2.4296    5.8839   -6.5996 H   0  0  0  0  0  0  0  0  0  0  0  0
    3.4433    7.1768   -5.9271 H   0  0  0  0  0  0  0  0  0  0  0  0
  1  2  2  0  0  0  0
  1  3  1  0  0  0  0
  1  7  1  0  0  0  0
  3  4  1  0  0  0  0
  3  5  1  0  0  0  0
  3  6  1  0  0  0  0
  7  8  1  0  0  0  0
  7 13  1  0  0  0  0
  8  9  1  0  0  0  0
  8 11  1  0  0  0  0
  8 14  1  0  0  0  0
  9 10  2  0  0  0  0
  9 17  1  0  0  0  0
 11 12  1  0  0  0  0
 11 15  1  0  0  0  0
 11 16  1  0  0  0  0
 12 44  1  0  0  0  0
 17 18  1  0  0  0  0
 17 19  1  0  0  0  0
 18 20  1  0  0  0  0
 18 21  1  0  0  0  0
 18 22  1  0  0  0  0
 23 24  2  0  0  0  0
 23 25  1  0  0  0  0
 23 29  1  0  0  0  0
 25 26  1  0  0  0  0
 25 27  1  0  0  0  0
 25 28  1  0  0  0  0
 29 30  1  0  0  0  0
 29 34  1  0  0  0  0
 30 31  1  0  0  0  0
 30 33  1  0  0  0  0
 30 35  1  0  0  0  0
 31 32  2  0  0  0  0
 31 39  1  0  0  0  0
 33 36  1  0  0  0  0
 33 37  1  0  0  0  0
 33 38  1  0  0  0  0
 39 40  1  0  0  0  0
 39 45  1  0  0  0  0
 40 41  1  0  0  0  0
 40 43  1  0  0  0  0
 40 46  1  0  0  0  0
 41 42  2  0  0  0  0
 41 49  1  0  0  0  0
 43 44  1  0  0  0  0
 43 47  1  0  0  0  0
 43 48  1  0  0  0  0
 49 50  1  0  0  0  0
 49 54  1  0  0  0  0
 50 51  1  0  0  0  0
 50 53  1  0  0  0  0
 50 55  1  0  0  0  0
 51 52  2  0  0  0  0
 51 59  1  0  0  0  0
 53 56  1  0  0  0  0
 53 57  1  0  0  0  0
 53 58  1  0  0  0  0
 59 60  1  0  0  0  0
 59 61  1  0  0  0  0
 60 62  1  0  0  0  0
 60 63  1  0  0  0  0
 60 64  1  0  0  0  0
M  END
$$$$

  -OEChem-05262216053D

 64 63  0     1  0  0  0  0  0999 V2000
    1.7919   -4.8723   -8.3643 C   0  0  0  0  0  0  0  0  0  0  0  0
    0.6176   -4.7543   -8.6787 O   0  0  0  0  0  0  0  0  0  0  0  0
    2.5172   -6.1839   -8.5985 C   0  0  0  0  0  0  0  0  0  0  0  0
    2.9147   -6.5641   -7.6546 H   0  0  0  0  0  0  0  0  0  0  0  0
    1.8297   -6.9255   -9.0149 H   0  0  0  0  0  0  0  0  0  0  0  0
    3.3422   -6.0352   -9.2991 H   0  0  0  0  0  0  0  0  0  0  0  0
    2.4548   -3.8056   -7.7977 N   0  0  0  0  0  0  0  0  0  0  0  0
    1.8576   -2.4831   -7.5661 C   0  0  2  0  0  0  0  0  0  0  0  0
    2.9209   -1.3640   -7.5123 C   0  0  0  0  0  0  0  0  0  0  0  0
    4.1144   -1.6460   -7.5052 O   0  0  0  0  0  0  0  0  0  0  0  0
    1.0376   -2.5193   -6.2675 C   0  0  0  0  0  0  0  0  0  0  0  0
    2.1080   -2.8604   -4.8093 S   0  0  0  0  0  0  0  0  0  0  0  0
    3.4473   -3.9112   -7.5897 H   0  0  0  0  0  0  0  0  0  0  0  0
    1.1888   -2.2439   -8.3992 H   0  0  0  0  0  0  0  0  0  0  0  0
    0.5289   -1.5614   -6.1321 H   0  0  0  0  0  0  0  0  0  0  0  0
    0.2659   -3.2929   -6.3373 H   0  0  0  0  0  0  0  0  0  0  0  0
    2.5409   -0.0329   -7.4970 N   0  0  0  0  0  0  0  0  0  0  0  0
    3.4881    1.0757   -7.4458 C   0  0  0  0  0  0  0  0  0  0  0  0
    1.5493    0.1802   -7.5447 H   0  0  0  0  0  0  0  0  0  0  0  0
    3.9307    1.1547   -6.4478 H   0  0  0  0  0  0  0  0  0  0  0  0
    4.2906    0.9362   -8.1778 H   0  0  0  0  0  0  0  0  0  0  0  0
    2.9796    2.0170   -7.6756 H   0  0  0  0  0  0  0  0  0  0  0  0
   -5.4869    1.1045   -1.2406 C   0  0  0  0  0  0  0  0  0  0  0  0
   -5.8571   -0.0453   -1.4184 O   0  0  0  0  0  0  0  0  0  0  0  0
   -6.2936    2.0369   -0.3575 C   0  0  0  0  0  0  0  0  0  0  0  0
   -6.6663    2.8779   -0.9472 H   0  0  0  0  0  0  0  0  0  0  0  0
   -7.1450    1.5040    0.0750 H   0  0  0  0  0  0  0  0  0  0  0  0
   -5.6681    2.4178    0.4534 H   0  0  0  0  0  0  0  0  0  0  0  0
   -4.3296    1.5557   -1.8384 N   0  0  0  0  0  0  0  0  0  0  0  0
   -3.3896    0.6980   -2.5706 C   0  0  2  0  0  0  0  0  0  0  0  0
   -1.9303    1.1655   -2.3817 C   0  0  0  0  0  0  0  0  0  0  0  0
   -1.7153    2.3130   -2.0209 O   0  0  0  0  0  0  0  0  0  0  0  0
   -3.7767    0.7163   -4.0526 C   0  0  0  0  0  0  0  0  0  0  0  0
   -3.9879    2.4770   -1.5644 H   0  0  0  0  0  0  0  0  0  0  0  0
   -3.4555   -0.3283   -2.1932 H   0  0  0  0  0  0  0  0  0  0  0  0
   -3.7132    1.7338   -4.4517 H   0  0  0  0  0  0  0  0  0  0  0  0
   -3.1111    0.0709   -4.6335 H   0  0  0  0  0  0  0  0  0  0  0  0
   -4.8029    0.3564   -4.1803 H   0  0  0  0  0  0  0  0  0  0  0  0
   -0.8946    0.2917   -2.6708 N   0  0  0  0  0  0  0  0  0  0  0  0
    0.5380    0.4203   -2.3224 C   0  0  2  0  0  0  0  0  0  0  0  0
    1.1275    1.8525   -2.2044 C   0  0  0  0  0  0  0  0  0  0  0  0
    1.1443    2.4115   -1.1154 O   0  0  0  0  0  0  0  0  0  0  0  0
    1.3016   -0.3856   -3.3825 C   0  0  0  0  0  0  0  0  0  0  0  0
    0.8920   -2.1721   -3.2635 S   0  0  0  0  0  0  0  0  0  0  0  0
   -1.1963   -0.6436   -2.9333 H   0  0  0  0  0  0  0  0  0  0  0  0
    0.6990   -0.0450   -1.3443 H   0  0  0  0  0  0  0  0  0  0  0  0
    1.0630   -0.0145   -4.3836 H   0  0  0  0  0  0  0  0  0  0  0  0
    2.3808   -0.2738   -3.2281 H   0  0  0  0  0  0  0  0  0  0  0  0
    1.9410    2.3712   -3.1982 N   0  0  0  0  0  0  0  0  0  0  0  0
    2.4332    3.7531   -3.2137 C   0  0  2  0  0  0  0  0  0  0  0  0
    2.3459    4.3436   -4.6367 C   0  0  0  0  0  0  0  0  0  0  0  0
    2.1844    3.5991   -5.6008 O   0  0  0  0  0  0  0  0  0  0  0  0
    3.8788    3.7554   -2.7105 C   0  0  0  0  0  0  0  0  0  0  0  0
    1.8648    1.9306   -4.1130 H   0  0  0  0  0  0  0  0  0  0  0  0
    1.8186    4.3797   -2.5575 H   0  0  0  0  0  0  0  0  0  0  0  0
    4.5126    3.1458   -3.3624 H   0  0  0  0  0  0  0  0  0  0  0  0
    4.2774    4.7740   -2.6891 H   0  0  0  0  0  0  0  0  0  0  0  0
    3.9254    3.3453   -1.6966 H   0  0  0  0  0  0  0  0  0  0  0  0
    2.4395    5.7076   -4.8401 N   0  0  0  0  0  0  0  0  0  0  0  0
    2.3361    6.3310   -6.1538 C   0  0  0  0  0  0  0  0  0  0  0  0
    2.5321    6.3006   -4.0200 H   0  0  0  0  0  0  0  0  0  0  0  0
    3.1333    5.9707   -6.8127 H   0  0  0  0  0  0  0  0  0  0  0  0
    1.3681    6.1023   -6.6125 H   0  0  0  0  0  0  0  0  0  0  0  0
    2.4274    7.4179   -6.0653 H   0  0  0  0  0  0  0  0  0  0  0  0
  1  2  2  0  0  0  0
  1  3  1  0  0  0  0
  1  7  1  0  0  0  0
  3  4  1  0  0  0  0
  3  5  1  0  0  0  0
  3  6  1  0  0  0  0
  7  8  1  0  0  0  0
  7 13  1  0  0  0  0
  8  9  1  0  0  0  0
  8 11  1  0  0  0  0
  8 14  1  0  0  0  0
  9 10  2  0  0  0  0
  9 17  1  0  0  0  0
 11 12  1  0  0  0  0
 11 15  1  0  0  0  0
 11 16  1  0  0  0  0
 12 44  1  0  0  0  0
 17 18  1  0  0  0  0
 17 19  1  0  0  0  0
 18 20  1  0  0  0  0
 18 21  1  0  0  0  0
 18 22  1  0  0  0  0
 23 24  2  0  0  0  0
 23 25  1  0  0  0  0
 23 29  1  0  0  0  0
 25 26  1  0  0  0  0
 25 27  1  0  0  0  0
 25 28  1  0  0  0  0
 29 30  1  0  0  0  0
 29 34  1  0  0  0  0
 30 31  1  0  0  0  0
 30 33  1  0  0  0  0
 30 35  1  0  0  0  0
 31 32  2  0  0  0  0
 31 39  1  0  0  0  0
 33 36  1  0  0  0  0
 33 37  1  0  0  0  0
 33 38  1  0  0  0  0
 39 40  1  0  0  0  0
 39 45  1  0  0  0  0
 40 41  1  0  0  0  0
 40 43  1  0  0  0  0
 40 46  1  0  0  0  0
 41 42  2  0  0  0  0
 41 49  1  0  0  0  0
 43 44  1  0  0  0  0
 43 47  1  0  0  0  0
 43 48  1  0  0  0  0
 49 50  1  0  0  0  0
 49 54  1  0  0  0  0
 50 51  1  0  0  0  0
 50 53  1  0  0  0  0
 50 55  1  0  0  0  0
 51 52  2  0  0  0  0
 51 59  1  0  0  0  0
 53 56  1  0  0  0  0
 53 57  1  0  0  0  0
 53 58  1  0  0  0  0
 59 60  1  0  0  0  0
 59 61  1  0  0  0  0
 60 62  1  0  0  0  0
 60 63  1  0  0  0  0
 60 64  1  0  0  0  0
M  END
$$$$

  -OEChem-05262216053D

 64 63  0     1  0  0  0  0  0999 V2000
    1.7902   -4.7378   -8.3873 C   0  0  0  0  0  0  0  0  0  0  0  0
    0.5931   -4.6990   -8.6260 O   0  0  0  0  0  0  0  0  0  0  0  0
    2.5965   -5.9801   -8.7146 C   0  0  0  0  0  0  0  0  0  0  0  0
    3.0672   -6.3681   -7.8079 H   0  0  0  0  0  0  0  0  0  0  0  0
    1.9447   -6.7531   -9.1317 H   0  0  0  0  0  0  0  0  0  0  0  0
    3.3717   -5.7392   -9.4462 H   0  0  0  0  0  0  0  0  0  0  0  0
    2.4079   -3.6426   -7.8244 N   0  0  0  0  0  0  0  0  0  0  0  0
    1.7311   -2.3789   -7.5037 C   0  0  2  0  0  0  0  0  0  0  0  0
    2.7118   -1.1861   -7.4620 C   0  0  0  0  0  0  0  0  0  0  0  0
    3.9219   -1.3800   -7.5088 O   0  0  0  0  0  0  0  0  0  0  0  0
    0.9935   -2.5243   -6.1639 C   0  0  0  0  0  0  0  0  0  0  0  0
    2.1653   -2.8639   -4.7853 S   0  0  0  0  0  0  0  0  0  0  0  0
    3.4168   -3.6787   -7.6834 H   0  0  0  0  0  0  0  0  0  0  0  0
    0.9987   -2.1599   -8.2874 H   0  0  0  0  0  0  0  0  0  0  0  0
    0.4381   -1.6063   -5.9549 H   0  0  0  0  0  0  0  0  0  0  0  0
    0.2656   -3.3398   -6.2270 H   0  0  0  0  0  0  0  0  0  0  0  0
    2.2394    0.1140   -7.4012 N   0  0  0  0  0  0  0  0  0  0  0  0
    3.1105    1.2844   -7.3898 C   0  0  0  0  0  0  0  0  0  0  0  0
    1.2344    0.2592   -7.4328 H   0  0  0  0  0  0  0  0  0  0  0  0
    3.6430    1.3557   -6.4359 H   0  0  0  0  0  0  0  0  0  0  0  0
    3.8444    1.2301   -8.2010 H   0  0  0  0  0  0  0  0  0  0  0  0
    2.5207    2.1953   -7.5274 H   0  0  0  0  0  0  0  0  0  0  0  0
   -5.4864    1.1702   -1.3102 C   0  0  0  0  0  0  0  0  0  0  0  0
   -5.8737    0.0132   -1.3516 O   0  0  0  0  0  0  0  0  0  0  0  0
   -6.3028    2.2233   -0.5862 C   0  0  0  0  0  0  0  0  0  0  0  0
   -6.5852    3.0178   -1.2809 H   0  0  0  0  0  0  0  0  0  0  0  0
   -7.2110    1.7770   -0.1718 H   0  0  0  0  0  0  0  0  0  0  0  0
   -5.7169    2.6530    0.2300 H   0  0  0  0  0  0  0  0  0  0  0  0
   -4.2975    1.5205   -1.9132 N   0  0  0  0  0  0  0  0  0  0  0  0
   -3.3386    0.5564   -2.4672 C   0  0  2  0  0  0  0  0  0  0  0  0
   -1.8843    1.0519   -2.3093 C   0  0  0  0  0  0  0  0  0  0  0  0
   -1.6790    2.2088   -1.9696 O   0  0  0  0  0  0  0  0  0  0  0  0
   -3.6818    0.3231   -3.9424 C   0  0  0  0  0  0  0  0  0  0  0  0
   -3.9418    2.4588   -1.7296 H   0  0  0  0  0  0  0  0  0  0  0  0
   -3.4178   -0.3923   -1.9252 H   0  0  0  0  0  0  0  0  0  0  0  0
   -3.5976    1.2570   -4.5075 H   0  0  0  0  0  0  0  0  0  0  0  0
   -3.0067   -0.4160   -4.3839 H   0  0  0  0  0  0  0  0  0  0  0  0
   -4.7067   -0.0501   -4.0371 H   0  0  0  0  0  0  0  0  0  0  0  0
   -0.8360    0.1873   -2.5798 N   0  0  0  0  0  0  0  0  0  0  0  0
    0.5926    0.3613   -2.2378 C   0  0  2  0  0  0  0  0  0  0  0  0
    1.1342    1.8122   -2.1667 C   0  0  0  0  0  0  0  0  0  0  0  0
    1.3310    2.3331   -1.0764 O   0  0  0  0  0  0  0  0  0  0  0  0
    1.3854   -0.4290   -3.2867 C   0  0  0  0  0  0  0  0  0  0  0  0
    1.0377   -2.2274   -3.1521 S   0  0  0  0  0  0  0  0  0  0  0  0
   -1.1192   -0.7626   -2.8084 H   0  0  0  0  0  0  0  0  0  0  0  0
    0.7712   -0.0771   -1.2500 H   0  0  0  0  0  0  0  0  0  0  0  0
    1.1344   -0.0779   -4.2918 H   0  0  0  0  0  0  0  0  0  0  0  0
    2.4593   -0.2717   -3.1348 H   0  0  0  0  0  0  0  0  0  0  0  0
    1.6587    2.4236   -3.2921 N   0  0  0  0  0  0  0  0  0  0  0  0
    2.0752    3.8283   -3.3392 C   0  0  2  0  0  0  0  0  0  0  0  0
    1.7470    4.4472   -4.7139 C   0  0  0  0  0  0  0  0  0  0  0  0
    1.4333    3.7224   -5.6549 O   0  0  0  0  0  0  0  0  0  0  0  0
    3.5782    3.8997   -3.0548 C   0  0  0  0  0  0  0  0  0  0  0  0
    1.3845    2.0216   -4.1866 H   0  0  0  0  0  0  0  0  0  0  0  0
    1.5329    4.4026   -2.5798 H   0  0  0  0  0  0  0  0  0  0  0  0
    4.1379    3.3371   -3.8091 H   0  0  0  0  0  0  0  0  0  0  0  0
    3.9232    4.9381   -3.0656 H   0  0  0  0  0  0  0  0  0  0  0  0
    3.7974    3.4746   -2.0697 H   0  0  0  0  0  0  0  0  0  0  0  0
    1.7992    5.8161   -4.8997 N   0  0  0  0  0  0  0  0  0  0  0  0
    1.4709    6.4674   -6.1619 C   0  0  0  0  0  0  0  0  0  0  0  0
    2.0256    6.3915   -4.0931 H   0  0  0  0  0  0  0  0  0  0  0  0
    2.1221    6.1027   -6.9634 H   0  0  0  0  0  0  0  0  0  0  0  0
    0.4292    6.2695   -6.4359 H   0  0  0  0  0  0  0  0  0  0  0  0
    1.6056    7.5498   -6.0745 H   0  0  0  0  0  0  0  0  0  0  0  0
  1  2  2  0  0  0  0
  1  3  1  0  0  0  0
  1  7  1  0  0  0  0
  3  4  1  0  0  0  0
  3  5  1  0  0  0  0
  3  6  1  0  0  0  0
  7  8  1  0  0  0  0
  7 13  1  0  0  0  0
  8  9  1  0  0  0  0
  8 11  1  0  0  0  0
  8 14  1  0  0  0  0
  9 10  2  0  0  0  0
  9 17  1  0  0  0  0
 11 12  1  0  0  0  0
 11 15  1  0  0  0  0
 11 16  1  0  0  0  0
 12 44  1  0  0  0  0
 17 18  1  0  0  0  0
 17 19  1  0  0  0  0
 18 20  1  0  0  0  0
 18 21  1  0  0  0  0
 18 22  1  0  0  0  0
 23 24  2  0  0  0  0
 23 25  1  0  0  0  0
 23 29  1  0  0  0  0
 25 26  1  0  0  0  0
 25 27  1  0  0  0  0
 25 28  1  0  0  0  0
 29 30  1  0  0  0  0
 29 34  1  0  0  0  0
 30 31  1  0  0  0  0
 30 33  1  0  0  0  0
 30 35  1  0  0  0  0
 31 32  2  0  0  0  0
 31 39  1  0  0  0  0
 33 36  1  0  0  0  0
 33 37  1  0  0  0  0
 33 38  1  0  0  0  0
 39 40  1  0  0  0  0
 39 45  1  0  0  0  0
 40 41  1  0  0  0  0
 40 43  1  0  0  0  0
 40 46  1  0  0  0  0
 41 42  2  0  0  0  0
 41 49  1  0  0  0  0
 43 44  1  0  0  0  0
 43 47  1  0  0  0  0
 43 48  1  0  0  0  0
 49 50  1  0  0  0  0
 49 54  1  0  0  0  0
 50 51  1  0  0  0  0
 50 53  1  0  0  0  0
 50 55  1  0  0  0  0
 51 52  2  0  0  0  0
 51 59  1  0  0  0  0
 53 56  1  0  0  0  0
 53 57  1  0  0  0  0
 53 58  1  0  0  0  0
 59 60  1  0  0  0  0
 59 61  1  0  0  0  0
 60 62  1  0  0  0  0
 60 63  1  0  0  0  0
 60 64  1  0  0  0  0
M  END
$$$$

  -OEChem-05262216053D

 64 63  0     1  0  0  0  0  0999 V2000
    1.6021   -5.0699   -8.1498 C   0  0  0  0  0  0  0  0  0  0  0  0
    0.4194   -4.8882   -8.3938 O   0  0  0  0  0  0  0  0  0  0  0  0
    2.1918   -6.4660   -8.2162 C   0  0  0  0  0  0  0  0  0  0  0  0
    2.6701   -6.7148   -7.2656 H   0  0  0  0  0  0  0  0  0  0  0  0
    1.4046   -7.1986   -8.4155 H   0  0  0  0  0  0  0  0  0  0  0  0
    2.9346   -6.5197   -9.0157 H   0  0  0  0  0  0  0  0  0  0  0  0
    2.3998   -3.9983   -7.8135 N   0  0  0  0  0  0  0  0  0  0  0  0
    1.9349   -2.6069   -7.7221 C   0  0  2  0  0  0  0  0  0  0  0  0
    3.0978   -1.5974   -7.8436 C   0  0  0  0  0  0  0  0  0  0  0  0
    4.2551   -1.9944   -7.9289 O   0  0  0  0  0  0  0  0  0  0  0  0
    1.1763   -2.4075   -6.3996 C   0  0  0  0  0  0  0  0  0  0  0  0
    2.2711   -2.6907   -4.9479 S   0  0  0  0  0  0  0  0  0  0  0  0
    3.3954   -4.1665   -7.6733 H   0  0  0  0  0  0  0  0  0  0  0  0
    1.2523   -2.4070   -8.5547 H   0  0  0  0  0  0  0  0  0  0  0  0
    0.7704   -1.3932   -6.3581 H   0  0  0  0  0  0  0  0  0  0  0  0
    0.3305   -3.1011   -6.3513 H   0  0  0  0  0  0  0  0  0  0  0  0
    2.8486   -0.2364   -7.8893 N   0  0  0  0  0  0  0  0  0  0  0  0
    3.9010    0.7655   -8.0112 C   0  0  0  0  0  0  0  0  0  0  0  0
    1.8810    0.0710   -7.8618 H   0  0  0  0  0  0  0  0  0  0  0  0
    4.5922    0.7013   -7.1639 H   0  0  0  0  0  0  0  0  0  0  0  0
    4.4652    0.6180   -8.9383 H   0  0  0  0  0  0  0  0  0  0  0  0
    3.4667    1.7699   -8.0268 H   0  0  0  0  0  0  0  0  0  0  0  0
   -5.4496    0.9764   -1.3660 C   0  0  0  0  0  0  0  0  0  0  0  0
   -5.7955   -0.1363   -1.7297 O   0  0  0  0  0  0  0  0  0  0  0  0
   -6.2708    1.7299   -0.3371 C   0  0  0  0  0  0  0  0  0  0  0  0
   -6.6036    2.6840   -0.7525 H   0  0  0  0  0  0  0  0  0  0  0  0
   -7.1490    1.1433   -0.0528 H   0  0  0  0  0  0  0  0  0  0  0  0
   -5.6692    1.9186    0.5554 H   0  0  0  0  0  0  0  0  0  0  0  0
   -4.3052    1.5465   -1.8823 N   0  0  0  0  0  0  0  0  0  0  0  0
   -3.3351    0.8342   -2.7246 C   0  0  2  0  0  0  0  0  0  0  0  0
   -1.8835    1.1775   -2.3305 C   0  0  0  0  0  0  0  0  0  0  0  0
   -1.6581    2.2253   -1.7401 O   0  0  0  0  0  0  0  0  0  0  0  0
   -3.5972    1.2175   -4.1832 C   0  0  0  0  0  0  0  0  0  0  0  0
   -3.9832    2.4124   -1.4508 H   0  0  0  0  0  0  0  0  0  0  0  0
   -3.4603   -0.2476   -2.6091 H   0  0  0  0  0  0  0  0  0  0  0  0
   -3.4584    2.2942   -4.3267 H   0  0  0  0  0  0  0  0  0  0  0  0
   -2.9113    0.6862   -4.8497 H   0  0  0  0  0  0  0  0  0  0  0  0
   -4.6228    0.9571   -4.4643 H   0  0  0  0  0  0  0  0  0  0  0  0
   -0.8546    0.3128   -2.6709 N   0  0  0  0  0  0  0  0  0  0  0  0
    0.5772    0.4350   -2.3207 C   0  0  2  0  0  0  0  0  0  0  0  0
    1.1228    1.8717   -2.1499 C   0  0  0  0  0  0  0  0  0  0  0  0
    1.5499    2.2415   -1.0636 O   0  0  0  0  0  0  0  0  0  0  0  0
    1.3833   -0.2852   -3.4089 C   0  0  0  0  0  0  0  0  0  0  0  0
    1.0166   -2.0843   -3.3969 S   0  0  0  0  0  0  0  0  0  0  0  0
   -1.1448   -0.5732   -3.0779 H   0  0  0  0  0  0  0  0  0  0  0  0
    0.7430   -0.0712   -1.3633 H   0  0  0  0  0  0  0  0  0  0  0  0
    1.1517    0.1332   -4.3928 H   0  0  0  0  0  0  0  0  0  0  0  0
    2.4547   -0.1441   -3.2275 H   0  0  0  0  0  0  0  0  0  0  0  0
    1.3521    2.6566   -3.2648 N   0  0  0  0  0  0  0  0  0  0  0  0
    1.6201    4.0952   -3.1833 C   0  0  2  0  0  0  0  0  0  0  0  0
    0.7917    4.8595   -4.2364 C   0  0  0  0  0  0  0  0  0  0  0  0
    0.3242    4.2609   -5.2019 O   0  0  0  0  0  0  0  0  0  0  0  0
    3.1183    4.3196   -3.3992 C   0  0  0  0  0  0  0  0  0  0  0  0
    0.8630    2.3615   -4.1084 H   0  0  0  0  0  0  0  0  0  0  0  0
    1.3333    4.4787   -2.1978 H   0  0  0  0  0  0  0  0  0  0  0  0
    3.4218    3.9572   -4.3868 H   0  0  0  0  0  0  0  0  0  0  0  0
    3.3617    5.3840   -3.3275 H   0  0  0  0  0  0  0  0  0  0  0  0
    3.6930    3.7816   -2.6384 H   0  0  0  0  0  0  0  0  0  0  0  0
    0.5711    6.2178   -4.1033 N   0  0  0  0  0  0  0  0  0  0  0  0
   -0.2486    6.9913   -5.0283 C   0  0  0  0  0  0  0  0  0  0  0  0
    0.9179    6.6674   -3.2605 H   0  0  0  0  0  0  0  0  0  0  0  0
    0.1410    6.9089   -6.0483 H   0  0  0  0  0  0  0  0  0  0  0  0
   -1.2829    6.6319   -5.0154 H   0  0  0  0  0  0  0  0  0  0  0  0
   -0.2459    8.0481   -4.7441 H   0  0  0  0  0  0  0  0  0  0  0  0
  1  2  2  0  0  0  0
  1  3  1  0  0  0  0
  1  7  1  0  0  0  0
  3  4  1  0  0  0  0
  3  5  1  0  0  0  0
  3  6  1  0  0  0  0
  7  8  1  0  0  0  0
  7 13  1  0  0  0  0
  8  9  1  0  0  0  0
  8 11  1  0  0  0  0
  8 14  1  0  0  0  0
  9 10  2  0  0  0  0
  9 17  1  0  0  0  0
 11 12  1  0  0  0  0
 11 15  1  0  0  0  0
 11 16  1  0  0  0  0
 12 44  1  0  0  0  0
 17 18  1  0  0  0  0
 17 19  1  0  0  0  0
 18 20  1  0  0  0  0
 18 21  1  0  0  0  0
 18 22  1  0  0  0  0
 23 24  2  0  0  0  0
 23 25  1  0  0  0  0
 23 29  1  0  0  0  0
 25 26  1  0  0  0  0
 25 27  1  0  0  0  0
 25 28  1  0  0  0  0
 29 30  1  0  0  0  0
 29 34  1  0  0  0  0
 30 31  1  0  0  0  0
 30 33  1  0  0  0  0
 30 35  1  0  0  0  0
 31 32  2  0  0  0  0
 31 39  1  0  0  0  0
 33 36  1  0  0  0  0
 33 37  1  0  0  0  0
 33 38  1  0  0  0  0
 39 40  1  0  0  0  0
 39 45  1  0  0  0  0
 40 41  1  0  0  0  0
 40 43  1  0  0  0  0
 40 46  1  0  0  0  0
 41 42  2  0  0  0  0
 41 49  1  0  0  0  0
 43 44  1  0  0  0  0
 43 47  1  0  0  0  0
 43 48  1  0  0  0  0
 49 50  1  0  0  0  0
 49 54  1  0  0  0  0
 50 51  1  0  0  0  0
 50 53  1  0  0  0  0
 50 55  1  0  0  0  0
 51 52  2  0  0  0  0
 51 59  1  0  0  0  0
 53 56  1  0  0  0  0
 53 57  1  0  0  0  0
 53 58  1  0  0  0  0
 59 60  1  0  0  0  0
 59 61  1  0  0  0  0
 60 62  1  0  0  0  0
 60 63  1  0  0  0  0
 60 64  1  0  0  0  0
M  END
$$$$

  -OEChem-05262216053D

 64 63  0     1  0  0  0  0  0999 V2000
    1.6309   -5.1303   -8.1667 C   0  0  0  0  0  0  0  0  0  0  0  0
    0.4709   -4.9340   -8.4941 O   0  0  0  0  0  0  0  0  0  0  0  0
    2.2183   -6.5274   -8.2253 C   0  0  0  0  0  0  0  0  0  0  0  0
    2.4623   -6.8706   -7.2168 H   0  0  0  0  0  0  0  0  0  0  0  0
    1.4992   -7.2205   -8.6704 H   0  0  0  0  0  0  0  0  0  0  0  0
    3.1269   -6.5262   -8.8325 H   0  0  0  0  0  0  0  0  0  0  0  0
    2.4100   -4.0728   -7.7524 N   0  0  0  0  0  0  0  0  0  0  0  0
    1.9656   -2.6728   -7.7201 C   0  0  2  0  0  0  0  0  0  0  0  0
    3.1489   -1.6896   -7.8567 C   0  0  0  0  0  0  0  0  0  0  0  0
    4.3024   -2.1062   -7.8494 O   0  0  0  0  0  0  0  0  0  0  0  0
    1.1815   -2.4203   -6.4227 C   0  0  0  0  0  0  0  0  0  0  0  0
    2.2269   -2.7058   -4.9357 S   0  0  0  0  0  0  0  0  0  0  0  0
    3.3938   -4.2516   -7.5529 H   0  0  0  0  0  0  0  0  0  0  0  0
    1.3033   -2.4895   -8.5725 H   0  0  0  0  0  0  0  0  0  0  0  0
    0.8062   -1.3934   -6.4118 H   0  0  0  0  0  0  0  0  0  0  0  0
    0.3154   -3.0891   -6.3843 H   0  0  0  0  0  0  0  0  0  0  0  0
    2.9252   -0.3349   -8.0338 N   0  0  0  0  0  0  0  0  0  0  0  0
    4.0018    0.6355   -8.1966 C   0  0  0  0  0  0  0  0  0  0  0  0
    1.9629   -0.0153   -8.0939 H   0  0  0  0  0  0  0  0  0  0  0  0
    4.6565    0.6311   -7.3187 H   0  0  0  0  0  0  0  0  0  0  0  0
    4.6003    0.4009   -9.0834 H   0  0  0  0  0  0  0  0  0  0  0  0
    3.5902    1.6424   -8.3146 H   0  0  0  0  0  0  0  0  0  0  0  0
   -5.3942    0.9765   -1.3905 C   0  0  0  0  0  0  0  0  0  0  0  0
   -5.6982   -0.1146   -1.8456 O   0  0  0  0  0  0  0  0  0  0  0  0
   -6.2084    1.5817   -0.2624 C   0  0  0  0  0  0  0  0  0  0  0  0
   -6.5962    2.5579   -0.5632 H   0  0  0  0  0  0  0  0  0  0  0  0
   -7.0505    0.9300   -0.0133 H   0  0  0  0  0  0  0  0  0  0  0  0
   -5.5821    1.7029    0.6247 H   0  0  0  0  0  0  0  0  0  0  0  0
   -4.2989    1.6540   -1.8845 N   0  0  0  0  0  0  0  0  0  0  0  0
   -3.3098    1.0676   -2.7997 C   0  0  2  0  0  0  0  0  0  0  0  0
   -1.8727    1.2533   -2.2722 C   0  0  0  0  0  0  0  0  0  0  0  0
   -1.6200    2.2134   -1.5557 O   0  0  0  0  0  0  0  0  0  0  0  0
   -3.4631    1.7494   -4.1614 C   0  0  0  0  0  0  0  0  0  0  0  0
   -3.9990    2.4770   -1.3635 H   0  0  0  0  0  0  0  0  0  0  0  0
   -3.4845   -0.0069   -2.9168 H   0  0  0  0  0  0  0  0  0  0  0  0
   -3.2739    2.8250   -4.0758 H   0  0  0  0  0  0  0  0  0  0  0  0
   -2.7551    1.3300   -4.8826 H   0  0  0  0  0  0  0  0  0  0  0  0
   -4.4774    1.6026   -4.5461 H   0  0  0  0  0  0  0  0  0  0  0  0
   -0.8805    0.3514   -2.6280 N   0  0  0  0  0  0  0  0  0  0  0  0
    0.5598    0.4293   -2.2975 C   0  0  2  0  0  0  0  0  0  0  0  0
    1.1336    1.8544   -2.1440 C   0  0  0  0  0  0  0  0  0  0  0  0
    1.7674    2.1697   -1.1455 O   0  0  0  0  0  0  0  0  0  0  0  0
    1.3410   -0.2916   -3.4020 C   0  0  0  0  0  0  0  0  0  0  0  0
    0.9374   -2.0825   -3.4191 S   0  0  0  0  0  0  0  0  0  0  0  0
   -1.1927   -0.4798   -3.1250 H   0  0  0  0  0  0  0  0  0  0  0  0
    0.7294   -0.0822   -1.3435 H   0  0  0  0  0  0  0  0  0  0  0  0
    1.1161    0.1487   -4.3776 H   0  0  0  0  0  0  0  0  0  0  0  0
    2.4159   -0.1765   -3.2230 H   0  0  0  0  0  0  0  0  0  0  0  0
    1.0685    2.7227   -3.2171 N   0  0  0  0  0  0  0  0  0  0  0  0
    1.1849    4.1739   -3.0566 C   0  0  2  0  0  0  0  0  0  0  0  0
    0.0584    4.8853   -3.8350 C   0  0  0  0  0  0  0  0  0  0  0  0
   -0.5789    4.2755   -4.6910 O   0  0  0  0  0  0  0  0  0  0  0  0
    2.5637    4.6101   -3.5555 C   0  0  0  0  0  0  0  0  0  0  0  0
    0.4198    2.4368   -3.9493 H   0  0  0  0  0  0  0  0  0  0  0  0
    1.0773    4.4479   -2.0013 H   0  0  0  0  0  0  0  0  0  0  0  0
    2.6883    4.3523   -4.6119 H   0  0  0  0  0  0  0  0  0  0  0  0
    2.6891    5.6910   -3.4421 H   0  0  0  0  0  0  0  0  0  0  0  0
    3.3477    4.1088   -2.9786 H   0  0  0  0  0  0  0  0  0  0  0  0
   -0.2420    6.2095   -3.5767 N   0  0  0  0  0  0  0  0  0  0  0  0
   -1.3324    6.9247   -4.2275 C   0  0  0  0  0  0  0  0  0  0  0  0
    0.2588    6.6627   -2.8176 H   0  0  0  0  0  0  0  0  0  0  0  0
   -1.1915    6.9337   -5.3134 H   0  0  0  0  0  0  0  0  0  0  0  0
   -2.2919    6.4492   -3.9999 H   0  0  0  0  0  0  0  0  0  0  0  0
   -1.3676    7.9603   -3.8764 H   0  0  0  0  0  0  0  0  0  0  0  0
  1  2  2  0  0  0  0
  1  3  1  0  0  0  0
  1  7  1  0  0  0  0
  3  4  1  0  0  0  0
  3  5  1  0  0  0  0
  3  6  1  0  0  0  0
  7  8  1  0  0  0  0
  7 13  1  0  0  0  0
  8  9  1  0  0  0  0
  8 11  1  0  0  0  0
  8 14  1  0  0  0  0
  9 10  2  0  0  0  0
  9 17  1  0  0  0  0
 11 12  1  0  0  0  0
 11 15  1  0  0  0  0
 11 16  1  0  0  0  0
 12 44  1  0  0  0  0
 17 18  1  0  0  0  0
 17 19  1  0  0  0  0
 18 20  1  0  0  0  0
 18 21  1  0  0  0  0
 18 22  1  0  0  0  0
 23 24  2  0  0  0  0
 23 25  1  0  0  0  0
 23 29  1  0  0  0  0
 25 26  1  0  0  0  0
 25 27  1  0  0  0  0
 25 28  1  0  0  0  0
 29 30  1  0  0  0  0
 29 34  1  0  0  0  0
 30 31  1  0  0  0  0
 30 33  1  0  0  0  0
 30 35  1  0  0  0  0
 31 32  2  0  0  0  0
 31 39  1  0  0  0  0
 33 36  1  0  0  0  0
 33 37  1  0  0  0  0
 33 38  1  0  0  0  0
 39 40  1  0  0  0  0
 39 45  1  0  0  0  0
 40 41  1  0  0  0  0
 40 43  1  0  0  0  0
 40 46  1  0  0  0  0
 41 42  2  0  0  0  0
 41 49  1  0  0  0  0
 43 44  1  0  0  0  0
 43 47  1  0  0  0  0
 43 48  1  0  0  0  0
 49 50  1  0  0  0  0
 49 54  1  0  0  0  0
 50 51  1  0  0  0  0
 50 53  1  0  0  0  0
 50 55  1  0  0  0  0
 51 52  2  0  0  0  0
 51 59  1  0  0  0  0
 53 56  1  0  0  0  0
 53 57  1  0  0  0  0
 53 58  1  0  0  0  0
 59 60  1  0  0  0  0
 59 61  1  0  0  0  0
 60 62  1  0  0  0  0
 60 63  1  0  0  0  0
 60 64  1  0  0  0  0
M  END
$$$$

  -OEChem-05262216053D

 64 63  0     1  0  0  0  0  0999 V2000
    1.6410   -5.1390   -8.1758 C   0  0  0  0  0  0  0  0  0  0  0  0
    0.4888   -4.9392   -8.5278 O   0  0  0  0  0  0  0  0  0  0  0  0
    2.2218   -6.5397   -8.2120 C   0  0  0  0  0  0  0  0  0  0  0  0
    2.4555   -6.8709   -7.1972 H   0  0  0  0  0  0  0  0  0  0  0  0
    1.5023   -7.2348   -8.6539 H   0  0  0  0  0  0  0  0  0  0  0  0
    3.1356   -6.5504   -8.8113 H   0  0  0  0  0  0  0  0  0  0  0  0
    2.4147   -4.0836   -7.7466 N   0  0  0  0  0  0  0  0  0  0  0  0
    1.9761   -2.6819   -7.7306 C   0  0  2  0  0  0  0  0  0  0  0  0
    3.1630   -1.7046   -7.8702 C   0  0  0  0  0  0  0  0  0  0  0  0
    4.3152   -2.1245   -7.8677 O   0  0  0  0  0  0  0  0  0  0  0  0
    1.1868   -2.4147   -6.4391 C   0  0  0  0  0  0  0  0  0  0  0  0
    2.2323   -2.6645   -4.9458 S   0  0  0  0  0  0  0  0  0  0  0  0
    3.3935   -4.2658   -7.5269 H   0  0  0  0  0  0  0  0  0  0  0  0
    1.3201   -2.5036   -8.5891 H   0  0  0  0  0  0  0  0  0  0  0  0
    0.8032   -1.3910   -6.4458 H   0  0  0  0  0  0  0  0  0  0  0  0
    0.3266   -3.0906   -6.3917 H   0  0  0  0  0  0  0  0  0  0  0  0
    2.9409   -0.3502   -8.0472 N   0  0  0  0  0  0  0  0  0  0  0  0
    4.0168    0.6179   -8.2250 C   0  0  0  0  0  0  0  0  0  0  0  0
    1.9788   -0.0306   -8.1050 H   0  0  0  0  0  0  0  0  0  0  0  0
    4.6924    0.6028   -7.3630 H   0  0  0  0  0  0  0  0  0  0  0  0
    4.5932    0.3895   -9.1279 H   0  0  0  0  0  0  0  0  0  0  0  0
    3.6053    1.6272   -8.3230 H   0  0  0  0  0  0  0  0  0  0  0  0
   -5.4474    0.9172   -1.3500 C   0  0  0  0  0  0  0  0  0  0  0  0
   -5.7557   -0.1694   -1.8130 O   0  0  0  0  0  0  0  0  0  0  0  0
   -6.2673    1.5251   -0.2277 C   0  0  0  0  0  0  0  0  0  0  0  0
   -6.6343    2.5102   -0.5252 H   0  0  0  0  0  0  0  0  0  0  0  0
   -7.1237    0.8853    0.0031 H   0  0  0  0  0  0  0  0  0  0  0  0
   -5.6521    1.6279    0.6695 H   0  0  0  0  0  0  0  0  0  0  0  0
   -4.3444    1.5895   -1.8332 N   0  0  0  0  0  0  0  0  0  0  0  0
   -3.3554    1.0049   -2.7490 C   0  0  2  0  0  0  0  0  0  0  0  0
   -1.9163    1.2234   -2.2397 C   0  0  0  0  0  0  0  0  0  0  0  0
   -1.6765    2.1640   -1.4933 O   0  0  0  0  0  0  0  0  0  0  0  0
   -3.5388    1.6560   -4.1218 C   0  0  0  0  0  0  0  0  0  0  0  0
   -4.0482    2.4161   -1.3161 H   0  0  0  0  0  0  0  0  0  0  0  0
   -3.5118   -0.0751   -2.8416 H   0  0  0  0  0  0  0  0  0  0  0  0
   -3.3737    2.7369   -4.0594 H   0  0  0  0  0  0  0  0  0  0  0  0
   -2.8312    1.2377   -4.8438 H   0  0  0  0  0  0  0  0  0  0  0  0
   -4.5540    1.4800   -4.4910 H   0  0  0  0  0  0  0  0  0  0  0  0
   -0.9072    0.3474   -2.6100 N   0  0  0  0  0  0  0  0  0  0  0  0
    0.5393    0.4709   -2.3206 C   0  0  2  0  0  0  0  0  0  0  0  0
    1.0998    1.9058   -2.1991 C   0  0  0  0  0  0  0  0  0  0  0  0
    1.9474    2.1730   -1.3575 O   0  0  0  0  0  0  0  0  0  0  0  0
    1.2962   -0.2367   -3.4494 C   0  0  0  0  0  0  0  0  0  0  0  0
    0.9338   -2.0374   -3.4396 S   0  0  0  0  0  0  0  0  0  0  0  0
   -1.2021   -0.4798   -3.1238 H   0  0  0  0  0  0  0  0  0  0  0  0
    0.7523   -0.0300   -1.3699 H   0  0  0  0  0  0  0  0  0  0  0  0
    1.0261    0.1958   -4.4174 H   0  0  0  0  0  0  0  0  0  0  0  0
    2.3738   -0.0970   -3.3095 H   0  0  0  0  0  0  0  0  0  0  0  0
    0.7369    2.8580   -3.1326 N   0  0  0  0  0  0  0  0  0  0  0  0
    0.8675    4.2964   -2.8919 C   0  0  2  0  0  0  0  0  0  0  0  0
   -0.3951    5.0336   -3.3869 C   0  0  0  0  0  0  0  0  0  0  0  0
   -1.1403    4.4976   -4.2038 O   0  0  0  0  0  0  0  0  0  0  0  0
    2.1163    4.8025   -3.6159 C   0  0  0  0  0  0  0  0  0  0  0  0
   -0.0658    2.6013   -3.7054 H   0  0  0  0  0  0  0  0  0  0  0  0
    0.9644    4.4900   -1.8180 H   0  0  0  0  0  0  0  0  0  0  0  0
    2.0306    4.6281   -4.6930 H   0  0  0  0  0  0  0  0  0  0  0  0
    2.2508    5.8748   -3.4450 H   0  0  0  0  0  0  0  0  0  0  0  0
    3.0038    4.2792   -3.2462 H   0  0  0  0  0  0  0  0  0  0  0  0
   -0.6972    6.2990   -2.9191 N   0  0  0  0  0  0  0  0  0  0  0  0
   -1.9130    7.0164   -3.2840 C   0  0  0  0  0  0  0  0  0  0  0  0
   -0.1005    6.6824   -2.1914 H   0  0  0  0  0  0  0  0  0  0  0  0
   -1.9812    7.1302   -4.3713 H   0  0  0  0  0  0  0  0  0  0  0  0
   -2.7970    6.4756   -2.9298 H   0  0  0  0  0  0  0  0  0  0  0  0
   -1.9132    8.0135   -2.8333 H   0  0  0  0  0  0  0  0  0  0  0  0
  1  2  2  0  0  0  0
  1  3  1  0  0  0  0
  1  7  1  0  0  0  0
  3  4  1  0  0  0  0
  3  5  1  0  0  0  0
  3  6  1  0  0  0  0
  7  8  1  0  0  0  0
  7 13  1  0  0  0  0
  8  9  1  0  0  0  0
  8 11  1  0  0  0  0
  8 14  1  0  0  0  0
  9 10  2  0  0  0  0
  9 17  1  0  0  0  0
 11 12  1  0  0  0  0
 11 15  1  0  0  0  0
 11 16  1  0  0  0  0
 12 44  1  0  0  0  0
 17 18  1  0  0  0  0
 17 19  1  0  0  0  0
 18 20  1  0  0  0  0
 18 21  1  0  0  0  0
 18 22  1  0  0  0  0
 23 24  2  0  0  0  0
 23 25  1  0  0  0  0
 23 29  1  0  0  0  0
 25 26  1  0  0  0  0
 25 27  1  0  0  0  0
 25 28  1  0  0  0  0
 29 30  1  0  0  0  0
 29 34  1  0  0  0  0
 30 31  1  0  0  0  0
 30 33  1  0  0  0  0
 30 35  1  0  0  0  0
 31 32  2  0  0  0  0
 31 39  1  0  0  0  0
 33 36  1  0  0  0  0
 33 37  1  0  0  0  0
 33 38  1  0  0  0  0
 39 40  1  0  0  0  0
 39 45  1  0  0  0  0
 40 41  1  0  0  0  0
 40 43  1  0  0  0  0
 40 46  1  0  0  0  0
 41 42  2  0  0  0  0
 41 49  1  0  0  0  0
 43 44  1  0  0  0  0
 43 47  1  0  0  0  0
 43 48  1  0  0  0  0
 49 50  1  0  0  0  0
 49 54  1  0  0  0  0
 50 51  1  0  0  0  0
 50 53  1  0  0  0  0
 50 55  1  0  0  0  0
 51 52  2  0  0  0  0
 51 59  1  0  0  0  0
 53 56  1  0  0  0  0
 53 57  1  0  0  0  0
 53 58  1  0  0  0  0
 59 60  1  0  0  0  0
 59 61  1  0  0  0  0
 60 62  1  0  0  0  0
 60 63  1  0  0  0  0
 60 64  1  0  0  0  0
M  END
$$$$

  -OEChem-05262216053D

 64 63  0     1  0  0  0  0  0999 V2000
    1.6446   -5.1435   -8.1374 C   0  0  0  0  0  0  0  0  0  0  0  0
    0.4804   -4.9524   -8.4535 O   0  0  0  0  0  0  0  0  0  0  0  0
    2.2281   -6.5431   -8.1720 C   0  0  0  0  0  0  0  0  0  0  0  0
    2.5542   -6.8357   -7.1708 H   0  0  0  0  0  0  0  0  0  0  0  0
    1.4756   -7.2558   -8.5211 H   0  0  0  0  0  0  0  0  0  0  0  0
    3.0843   -6.5746   -8.8501 H   0  0  0  0  0  0  0  0  0  0  0  0
    2.4303   -4.0791   -7.7547 N   0  0  0  0  0  0  0  0  0  0  0  0
    1.9923   -2.6767   -7.7600 C   0  0  2  0  0  0  0  0  0  0  0  0
    3.1777   -1.7034   -7.9436 C   0  0  0  0  0  0  0  0  0  0  0  0
    4.3235   -2.1333   -8.0241 O   0  0  0  0  0  0  0  0  0  0  0  0
    1.2258   -2.3838   -6.4611 C   0  0  0  0  0  0  0  0  0  0  0  0
    2.3134   -2.5519   -4.9873 S   0  0  0  0  0  0  0  0  0  0  0  0
    3.4186   -4.2549   -7.5767 H   0  0  0  0  0  0  0  0  0  0  0  0
    1.3191   -2.5171   -8.6088 H   0  0  0  0  0  0  0  0  0  0  0  0
    0.8136   -1.3718   -6.4949 H   0  0  0  0  0  0  0  0  0  0  0  0
    0.3852   -3.0794   -6.3687 H   0  0  0  0  0  0  0  0  0  0  0  0
    2.9610   -0.3416   -8.0642 N   0  0  0  0  0  0  0  0  0  0  0  0
    4.0371    0.6242   -8.2526 C   0  0  0  0  0  0  0  0  0  0  0  0
    2.0028   -0.0080   -8.0276 H   0  0  0  0  0  0  0  0  0  0  0  0
    4.7563    0.5613   -7.4288 H   0  0  0  0  0  0  0  0  0  0  0  0
    4.5619    0.4347   -9.1950 H   0  0  0  0  0  0  0  0  0  0  0  0
    3.6337    1.6409   -8.2803 H   0  0  0  0  0  0  0  0  0  0  0  0
   -5.5556    0.8193   -1.3422 C   0  0  0  0  0  0  0  0  0  0  0  0
   -5.8588   -0.2938   -1.7413 O   0  0  0  0  0  0  0  0  0  0  0  0
   -6.3829    1.4912   -0.2627 C   0  0  0  0  0  0  0  0  0  0  0  0
   -6.7164    2.4743   -0.6036 H   0  0  0  0  0  0  0  0  0  0  0  0
   -7.2601    0.8823   -0.0273 H   0  0  0  0  0  0  0  0  0  0  0  0
   -5.7846    1.6117    0.6436 H   0  0  0  0  0  0  0  0  0  0  0  0
   -4.4463    1.4603   -1.8508 N   0  0  0  0  0  0  0  0  0  0  0  0
   -3.4336    0.8126   -2.6950 C   0  0  2  0  0  0  0  0  0  0  0  0
   -2.0092    1.0593   -2.1561 C   0  0  0  0  0  0  0  0  0  0  0  0
   -1.8100    1.9557   -1.3467 O   0  0  0  0  0  0  0  0  0  0  0  0
   -3.5742    1.3783   -4.1103 C   0  0  0  0  0  0  0  0  0  0  0  0
   -4.1554    2.3130   -1.3739 H   0  0  0  0  0  0  0  0  0  0  0  0
   -3.5920   -0.2709   -2.7235 H   0  0  0  0  0  0  0  0  0  0  0  0
   -3.4017    2.4599   -4.1086 H   0  0  0  0  0  0  0  0  0  0  0  0
   -2.8522    0.9115   -4.7866 H   0  0  0  0  0  0  0  0  0  0  0  0
   -4.5812    1.1868   -4.4950 H   0  0  0  0  0  0  0  0  0  0  0  0
   -0.9519    0.2678   -2.5737 N   0  0  0  0  0  0  0  0  0  0  0  0
    0.4939    0.4987   -2.3432 C   0  0  2  0  0  0  0  0  0  0  0  0
    0.9931    1.9615   -2.2274 C   0  0  0  0  0  0  0  0  0  0  0  0
    2.0415    2.1982   -1.6413 O   0  0  0  0  0  0  0  0  0  0  0  0
    1.2453   -0.1587   -3.5055 C   0  0  0  0  0  0  0  0  0  0  0  0
    1.0042   -1.9800   -3.4687 S   0  0  0  0  0  0  0  0  0  0  0  0
   -1.1990   -0.5369   -3.1455 H   0  0  0  0  0  0  0  0  0  0  0  0
    0.7755    0.0058   -1.4063 H   0  0  0  0  0  0  0  0  0  0  0  0
    0.9034    0.2519   -4.4601 H   0  0  0  0  0  0  0  0  0  0  0  0
    2.3173    0.0518   -3.4153 H   0  0  0  0  0  0  0  0  0  0  0  0
    0.3560    2.9874   -2.9004 N   0  0  0  0  0  0  0  0  0  0  0  0
    0.5860    4.4071   -2.6204 C   0  0  2  0  0  0  0  0  0  0  0  0
   -0.7322    5.2001   -2.7513 C   0  0  0  0  0  0  0  0  0  0  0  0
   -1.6592    4.7515   -3.4211 O   0  0  0  0  0  0  0  0  0  0  0  0
    1.6395    4.9399   -3.5942 C   0  0  0  0  0  0  0  0  0  0  0  0
   -0.5928    2.7665   -3.2011 H   0  0  0  0  0  0  0  0  0  0  0  0
    0.9452    4.5298   -1.5929 H   0  0  0  0  0  0  0  0  0  0  0  0
    1.2944    4.8322   -4.6271 H   0  0  0  0  0  0  0  0  0  0  0  0
    1.8391    5.9980   -3.4009 H   0  0  0  0  0  0  0  0  0  0  0  0
    2.5760    4.3854   -3.4789 H   0  0  0  0  0  0  0  0  0  0  0  0
   -0.8817    6.4204   -2.1182 N   0  0  0  0  0  0  0  0  0  0  0  0
   -2.1237    7.1832   -2.1374 C   0  0  0  0  0  0  0  0  0  0  0  0
   -0.1209    6.7368   -1.5236 H   0  0  0  0  0  0  0  0  0  0  0  0
   -2.4515    7.3606   -3.1673 H   0  0  0  0  0  0  0  0  0  0  0  0
   -2.9127    6.6413   -1.6051 H   0  0  0  0  0  0  0  0  0  0  0  0
   -1.9780    8.1532   -1.6521 H   0  0  0  0  0  0  0  0  0  0  0  0
  1  2  2  0  0  0  0
  1  3  1  0  0  0  0
  1  7  1  0  0  0  0
  3  4  1  0  0  0  0
  3  5  1  0  0  0  0
  3  6  1  0  0  0  0
  7  8  1  0  0  0  0
  7 13  1  0  0  0  0
  8  9  1  0  0  0  0
  8 11  1  0  0  0  0
  8 14  1  0  0  0  0
  9 10  2  0  0  0  0
  9 17  1  0  0  0  0
 11 12  1  0  0  0  0
 11 15  1  0  0  0  0
 11 16  1  0  0  0  0
 12 44  1  0  0  0  0
 17 18  1  0  0  0  0
 17 19  1  0  0  0  0
 18 20  1  0  0  0  0
 18 21  1  0  0  0  0
 18 22  1  0  0  0  0
 23 24  2  0  0  0  0
 23 25  1  0  0  0  0
 23 29  1  0  0  0  0
 25 26  1  0  0  0  0
 25 27  1  0  0  0  0
 25 28  1  0  0  0  0
 29 30  1  0  0  0  0
 29 34  1  0  0  0  0
 30 31  1  0  0  0  0
 30 33  1  0  0  0  0
 30 35  1  0  0  0  0
 31 32  2  0  0  0  0
 31 39  1  0  0  0  0
 33 36  1  0  0  0  0
 33 37  1  0  0  0  0
 33 38  1  0  0  0  0
 39 40  1  0  0  0  0
 39 45  1  0  0  0  0
 40 41  1  0  0  0  0
 40 43  1  0  0  0  0
 40 46  1  0  0  0  0
 41 42  2  0  0  0  0
 41 49  1  0  0  0  0
 43 44  1  0  0  0  0
 43 47  1  0  0  0  0
 43 48  1  0  0  0  0
 49 50  1  0  0  0  0
 49 54  1  0  0  0  0
 50 51  1  0  0  0  0
 50 53  1  0  0  0  0
 50 55  1  0  0  0  0
 51 52  2  0  0  0  0
 51 59  1  0  0  0  0
 53 56  1  0  0  0  0
 53 57  1  0  0  0  0
 53 58  1  0  0  0  0
 59 60  1  0  0  0  0
 59 61  1  0  0  0  0
 60 62  1  0  0  0  0
 60 63  1  0  0  0  0
 60 64  1  0  0  0  0
M  END
$$$$

  -OEChem-05262216053D

 64 63  0     1  0  0  0  0  0999 V2000
    1.6423   -5.0978   -8.0915 C   0  0  0  0  0  0  0  0  0  0  0  0
    0.4663   -4.9079   -8.3609 O   0  0  0  0  0  0  0  0  0  0  0  0
    2.2194   -6.5001   -8.1232 C   0  0  0  0  0  0  0  0  0  0  0  0
    2.6106   -6.7646   -7.1377 H   0  0  0  0  0  0  0  0  0  0  0  0
    1.4441   -7.2202   -8.3996 H   0  0  0  0  0  0  0  0  0  0  0  0
    3.0286   -6.5546   -8.8555 H   0  0  0  0  0  0  0  0  0  0  0  0
    2.4479   -4.0287   -7.7679 N   0  0  0  0  0  0  0  0  0  0  0  0
    2.0166   -2.6244   -7.7896 C   0  0  2  0  0  0  0  0  0  0  0  0
    3.2063   -1.6632   -8.0057 C   0  0  0  0  0  0  0  0  0  0  0  0
    4.3459   -2.1047   -8.1106 O   0  0  0  0  0  0  0  0  0  0  0  0
    1.2668   -2.3022   -6.4871 C   0  0  0  0  0  0  0  0  0  0  0  0
    2.3657   -2.4486   -5.0200 S   0  0  0  0  0  0  0  0  0  0  0  0
    3.4436   -4.2041   -7.6361 H   0  0  0  0  0  0  0  0  0  0  0  0
    1.3338   -2.4756   -8.6327 H   0  0  0  0  0  0  0  0  0  0  0  0
    0.8609   -1.2882   -6.5343 H   0  0  0  0  0  0  0  0  0  0  0  0
    0.4228   -2.9903   -6.3735 H   0  0  0  0  0  0  0  0  0  0  0  0
    2.9998   -0.3002   -8.1295 N   0  0  0  0  0  0  0  0  0  0  0  0
    4.0829    0.6564   -8.3260 C   0  0  0  0  0  0  0  0  0  0  0  0
    2.0475    0.0441   -8.0575 H   0  0  0  0  0  0  0  0  0  0  0  0
    4.8002    0.5988   -7.5001 H   0  0  0  0  0  0  0  0  0  0  0  0
    4.6089    0.4522   -9.2648 H   0  0  0  0  0  0  0  0  0  0  0  0
    3.6851    1.6750   -8.3668 H   0  0  0  0  0  0  0  0  0  0  0  0
   -5.6296    0.7163   -1.3536 C   0  0  0  0  0  0  0  0  0  0  0  0
   -5.8974   -0.4395   -1.6412 O   0  0  0  0  0  0  0  0  0  0  0  0
   -6.4701    1.4595   -0.3329 C   0  0  0  0  0  0  0  0  0  0  0  0
   -6.9359    2.3313   -0.7984 H   0  0  0  0  0  0  0  0  0  0  0  0
   -7.2547    0.8056    0.0582 H   0  0  0  0  0  0  0  0  0  0  0  0
   -5.8411    1.7904    0.4975 H   0  0  0  0  0  0  0  0  0  0  0  0
   -4.5556    1.3503   -1.9410 N   0  0  0  0  0  0  0  0  0  0  0  0
   -3.5099    0.6539   -2.7037 C   0  0  2  0  0  0  0  0  0  0  0  0
   -2.1172    0.8623   -2.0718 C   0  0  0  0  0  0  0  0  0  0  0  0
   -1.9721    1.6753   -1.1694 O   0  0  0  0  0  0  0  0  0  0  0  0
   -3.5425    1.2082   -4.1304 C   0  0  0  0  0  0  0  0  0  0  0  0
   -4.2887    2.2444   -1.5293 H   0  0  0  0  0  0  0  0  0  0  0  0
   -3.7007   -0.4241   -2.7337 H   0  0  0  0  0  0  0  0  0  0  0  0
   -3.3261    2.2820   -4.1289 H   0  0  0  0  0  0  0  0  0  0  0  0
   -2.8029    0.7036   -4.7588 H   0  0  0  0  0  0  0  0  0  0  0  0
   -4.5324    1.0535   -4.5718 H   0  0  0  0  0  0  0  0  0  0  0  0
   -1.0147    0.1576   -2.5233 N   0  0  0  0  0  0  0  0  0  0  0  0
    0.4183    0.4697   -2.2991 C   0  0  2  0  0  0  0  0  0  0  0  0
    0.8637    1.9510   -2.1341 C   0  0  0  0  0  0  0  0  0  0  0  0
    2.0224    2.1914   -1.8190 O   0  0  0  0  0  0  0  0  0  0  0  0
    1.1801   -0.1258   -3.4915 C   0  0  0  0  0  0  0  0  0  0  0  0
    1.0358   -1.9582   -3.4890 S   0  0  0  0  0  0  0  0  0  0  0  0
   -1.2131   -0.5874   -3.1866 H   0  0  0  0  0  0  0  0  0  0  0  0
    0.7349   -0.0376   -1.3817 H   0  0  0  0  0  0  0  0  0  0  0  0
    0.7996    0.2868   -4.4305 H   0  0  0  0  0  0  0  0  0  0  0  0
    2.2421    0.1338   -3.4199 H   0  0  0  0  0  0  0  0  0  0  0  0
    0.0505    3.0126   -2.4833 N   0  0  0  0  0  0  0  0  0  0  0  0
    0.3677    4.4218   -2.2358 C   0  0  2  0  0  0  0  0  0  0  0  0
   -0.9213    5.2359   -1.9870 C   0  0  0  0  0  0  0  0  0  0  0  0
   -2.0001    4.8413   -2.4208 O   0  0  0  0  0  0  0  0  0  0  0  0
    1.1239    4.9765   -3.4459 C   0  0  0  0  0  0  0  0  0  0  0  0
   -0.9475    2.7930   -2.4657 H   0  0  0  0  0  0  0  0  0  0  0  0
    0.9944    4.5086   -1.3420 H   0  0  0  0  0  0  0  0  0  0  0  0
    0.5090    4.8988   -4.3482 H   0  0  0  0  0  0  0  0  0  0  0  0
    1.3809    6.0282   -3.2879 H   0  0  0  0  0  0  0  0  0  0  0  0
    2.0497    4.4150   -3.6053 H   0  0  0  0  0  0  0  0  0  0  0  0
   -0.8713    6.4235   -1.2799 N   0  0  0  0  0  0  0  0  0  0  0  0
   -2.0527    7.2181   -0.9644 C   0  0  0  0  0  0  0  0  0  0  0  0
    0.0260    6.7021   -0.8930 H   0  0  0  0  0  0  0  0  0  0  0  0
   -2.5698    7.5191   -1.8817 H   0  0  0  0  0  0  0  0  0  0  0  0
   -2.7463    6.6436   -0.3413 H   0  0  0  0  0  0  0  0  0  0  0  0
   -1.7646    8.1219   -0.4186 H   0  0  0  0  0  0  0  0  0  0  0  0
  1  2  2  0  0  0  0
  1  3  1  0  0  0  0
  1  7  1  0  0  0  0
  3  4  1  0  0  0  0
  3  5  1  0  0  0  0
  3  6  1  0  0  0  0
  7  8  1  0  0  0  0
  7 13  1  0  0  0  0
  8  9  1  0  0  0  0
  8 11  1  0  0  0  0
  8 14  1  0  0  0  0
  9 10  2  0  0  0  0
  9 17  1  0  0  0  0
 11 12  1  0  0  0  0
 11 15  1  0  0  0  0
 11 16  1  0  0  0  0
 12 44  1  0  0  0  0
 17 18  1  0  0  0  0
 17 19  1  0  0  0  0
 18 20  1  0  0  0  0
 18 21  1  0  0  0  0
 18 22  1  0  0  0  0
 23 24  2  0  0  0  0
 23 25  1  0  0  0  0
 23 29  1  0  0  0  0
 25 26  1  0  0  0  0
 25 27  1  0  0  0  0
 25 28  1  0  0  0  0
 29 30  1  0  0  0  0
 29 34  1  0  0  0  0
 30 31  1  0  0  0  0
 30 33  1  0  0  0  0
 30 35  1  0  0  0  0
 31 32  2  0  0  0  0
 31 39  1  0  0  0  0
 33 36  1  0  0  0  0
 33 37  1  0  0  0  0
 33 38  1  0  0  0  0
 39 40  1  0  0  0  0
 39 45  1  0  0  0  0
 40 41  1  0  0  0  0
 40 43  1  0  0  0  0
 40 46  1  0  0  0  0
 41 42  2  0  0  0  0
 41 49  1  0  0  0  0
 43 44  1  0  0  0  0
 43 47  1  0  0  0  0
 43 48  1  0  0  0  0
 49 50  1  0  0  0  0
 49 54  1  0  0  0  0
 50 51  1  0  0  0  0
 50 53  1  0  0  0  0
 50 55  1  0  0  0  0
 51 52  2  0  0  0  0
 51 59  1  0  0  0  0
 53 56  1  0  0  0  0
 53 57  1  0  0  0  0
 53 58  1  0  0  0  0
 59 60  1  0  0  0  0
 59 61  1  0  0  0  0
 60 62  1  0  0  0  0
 60 63  1  0  0  0  0
 60 64  1  0  0  0  0
M  END
$$$$

  -OEChem-05262216053D

 64 63  0     1  0  0  0  0  0999 V2000
    1.6681   -5.1087   -8.1432 C   0  0  0  0  0  0  0  0  0  0  0  0
    0.5039   -4.9161   -8.4585 O   0  0  0  0  0  0  0  0  0  0  0  0
    2.2487   -6.5095   -8.1733 C   0  0  0  0  0  0  0  0  0  0  0  0
    2.5049   -6.8273   -7.1594 H   0  0  0  0  0  0  0  0  0  0  0  0
    1.5199   -7.2104   -8.5901 H   0  0  0  0  0  0  0  0  0  0  0  0
    3.1491   -6.5277   -8.7926 H   0  0  0  0  0  0  0  0  0  0  0  0
    2.4570   -4.0454   -7.7639 N   0  0  0  0  0  0  0  0  0  0  0  0
    2.0271   -2.6408   -7.7954 C   0  0  2  0  0  0  0  0  0  0  0  0
    3.2151   -1.6801   -8.0189 C   0  0  0  0  0  0  0  0  0  0  0  0
    4.3544   -2.1214   -8.1258 O   0  0  0  0  0  0  0  0  0  0  0  0
    1.2777   -2.3174   -6.4938 C   0  0  0  0  0  0  0  0  0  0  0  0
    2.3891   -2.4249   -5.0330 S   0  0  0  0  0  0  0  0  0  0  0  0
    3.4474   -4.2230   -7.5991 H   0  0  0  0  0  0  0  0  0  0  0  0
    1.3444   -2.4952   -8.6390 H   0  0  0  0  0  0  0  0  0  0  0  0
    0.8509   -1.3128   -6.5507 H   0  0  0  0  0  0  0  0  0  0  0  0
    0.4490   -3.0219   -6.3672 H   0  0  0  0  0  0  0  0  0  0  0  0
    3.0059   -0.3187   -8.1516 N   0  0  0  0  0  0  0  0  0  0  0  0
    4.0866    0.6362   -8.3667 C   0  0  0  0  0  0  0  0  0  0  0  0
    2.0550    0.0261   -8.0663 H   0  0  0  0  0  0  0  0  0  0  0  0
    4.7917    0.6127   -7.5290 H   0  0  0  0  0  0  0  0  0  0  0  0
    4.6281    0.4006   -9.2889 H   0  0  0  0  0  0  0  0  0  0  0  0
    3.6848    1.6504   -8.4518 H   0  0  0  0  0  0  0  0  0  0  0  0
   -5.5966    0.7899   -1.3459 C   0  0  0  0  0  0  0  0  0  0  0  0
   -5.8673   -0.3691   -1.6189 O   0  0  0  0  0  0  0  0  0  0  0  0
   -6.4142    1.5358   -0.3087 C   0  0  0  0  0  0  0  0  0  0  0  0
   -6.8797    2.4146   -0.7616 H   0  0  0  0  0  0  0  0  0  0  0  0
   -7.1979    0.8868    0.0925 H   0  0  0  0  0  0  0  0  0  0  0  0
   -5.7676    1.8564    0.5121 H   0  0  0  0  0  0  0  0  0  0  0  0
   -4.5359    1.4232   -1.9593 N   0  0  0  0  0  0  0  0  0  0  0  0
   -3.4926    0.7100   -2.7116 C   0  0  2  0  0  0  0  0  0  0  0  0
   -2.1402    0.7302   -1.9684 C   0  0  0  0  0  0  0  0  0  0  0  0
   -2.0095    1.3856   -0.9432 O   0  0  0  0  0  0  0  0  0  0  0  0
   -3.3671    1.4023   -4.0718 C   0  0  0  0  0  0  0  0  0  0  0  0
   -4.2606    2.3132   -1.5434 H   0  0  0  0  0  0  0  0  0  0  0  0
   -3.7691   -0.3376   -2.8717 H   0  0  0  0  0  0  0  0  0  0  0  0
   -3.0532    2.4440   -3.9443 H   0  0  0  0  0  0  0  0  0  0  0  0
   -2.6321    0.8910   -4.7003 H   0  0  0  0  0  0  0  0  0  0  0  0
   -4.3308    1.3911   -4.5912 H   0  0  0  0  0  0  0  0  0  0  0  0
   -1.0350    0.0672   -2.4706 N   0  0  0  0  0  0  0  0  0  0  0  0
    0.3923    0.4300   -2.2813 C   0  0  2  0  0  0  0  0  0  0  0  0
    0.7968    1.9272   -2.1010 C   0  0  0  0  0  0  0  0  0  0  0  0
    1.9843    2.2205   -2.0378 O   0  0  0  0  0  0  0  0  0  0  0  0
    1.1366   -0.1409   -3.4998 C   0  0  0  0  0  0  0  0  0  0  0  0
    1.0514   -1.9770   -3.4959 S   0  0  0  0  0  0  0  0  0  0  0  0
   -1.2304   -0.5697   -3.2388 H   0  0  0  0  0  0  0  0  0  0  0  0
    0.7480   -0.0768   -1.3782 H   0  0  0  0  0  0  0  0  0  0  0  0
    0.7172    0.2610   -4.4269 H   0  0  0  0  0  0  0  0  0  0  0  0
    2.1932    0.1467   -3.4601 H   0  0  0  0  0  0  0  0  0  0  0  0
   -0.1126    2.9679   -2.1084 N   0  0  0  0  0  0  0  0  0  0  0  0
    0.1969    4.3756   -1.8417 C   0  0  2  0  0  0  0  0  0  0  0  0
   -1.0489    5.1081   -1.2960 C   0  0  0  0  0  0  0  0  0  0  0  0
   -2.1767    4.7283   -1.6003 O   0  0  0  0  0  0  0  0  0  0  0  0
    0.6771    5.0416   -3.1356 C   0  0  0  0  0  0  0  0  0  0  0  0
   -1.0742    2.6904   -1.8970 H   0  0  0  0  0  0  0  0  0  0  0  0
    0.9848    4.4400   -1.0843 H   0  0  0  0  0  0  0  0  0  0  0  0
   -0.0948    4.9756   -3.9091 H   0  0  0  0  0  0  0  0  0  0  0  0
    0.9059    6.0973   -2.9607 H   0  0  0  0  0  0  0  0  0  0  0  0
    1.5828    4.5499   -3.5037 H   0  0  0  0  0  0  0  0  0  0  0  0
   -0.9061    6.2004   -0.4594 N   0  0  0  0  0  0  0  0  0  0  0  0
   -2.0351    6.8916    0.1521 C   0  0  0  0  0  0  0  0  0  0  0  0
    0.0359    6.4564   -0.1773 H   0  0  0  0  0  0  0  0  0  0  0  0
   -2.7105    7.2790   -0.6182 H   0  0  0  0  0  0  0  0  0  0  0  0
   -2.5942    6.2107    0.8030 H   0  0  0  0  0  0  0  0  0  0  0  0
   -1.6818    7.7340    0.7549 H   0  0  0  0  0  0  0  0  0  0  0  0
  1  2  2  0  0  0  0
  1  3  1  0  0  0  0
  1  7  1  0  0  0  0
  3  4  1  0  0  0  0
  3  5  1  0  0  0  0
  3  6  1  0  0  0  0
  7  8  1  0  0  0  0
  7 13  1  0  0  0  0
  8  9  1  0  0  0  0
  8 11  1  0  0  0  0
  8 14  1  0  0  0  0
  9 10  2  0  0  0  0
  9 17  1  0  0  0  0
 11 12  1  0  0  0  0
 11 15  1  0  0  0  0
 11 16  1  0  0  0  0
 12 44  1  0  0  0  0
 17 18  1  0  0  0  0
 17 19  1  0  0  0  0
 18 20  1  0  0  0  0
 18 21  1  0  0  0  0
 18 22  1  0  0  0  0
 23 24  2  0  0  0  0
 23 25  1  0  0  0  0
 23 29  1  0  0  0  0
 25 26  1  0  0  0  0
 25 27  1  0  0  0  0
 25 28  1  0  0  0  0
 29 30  1  0  0  0  0
 29 34  1  0  0  0  0
 30 31  1  0  0  0  0
 30 33  1  0  0  0  0
 30 35  1  0  0  0  0
 31 32  2  0  0  0  0
 31 39  1  0  0  0  0
 33 36  1  0  0  0  0
 33 37  1  0  0  0  0
 33 38  1  0  0  0  0
 39 40  1  0  0  0  0
 39 45  1  0  0  0  0
 40 41  1  0  0  0  0
 40 43  1  0  0  0  0
 40 46  1  0  0  0  0
 41 42  2  0  0  0  0
 41 49  1  0  0  0  0
 43 44  1  0  0  0  0
 43 47  1  0  0  0  0
 43 48  1  0  0  0  0
 49 50  1  0  0  0  0
 49 54  1  0  0  0  0
 50 51  1  0  0  0  0
 50 53  1  0  0  0  0
 50 55  1  0  0  0  0
 51 52  2  0  0  0  0
 51 59  1  0  0  0  0
 53 56  1  0  0  0  0
 53 57  1  0  0  0  0
 53 58  1  0  0  0  0
 59 60  1  0  0  0  0
 59 61  1  0  0  0  0
 60 62  1  0  0  0  0
 60 63  1  0  0  0  0
 60 64  1  0  0  0  0
M  END
$$$$

  -OEChem-05262216053D

 64 63  0     1  0  0  0  0  0999 V2000
    1.5537   -4.9732   -8.1807 C   0  0  0  0  0  0  0  0  0  0  0  0
    0.3819   -4.7438   -8.4376 O   0  0  0  0  0  0  0  0  0  0  0  0
    2.0770   -6.3972   -8.1972 C   0  0  0  0  0  0  0  0  0  0  0  0
    2.4704   -6.6605   -7.2125 H   0  0  0  0  0  0  0  0  0  0  0  0
    1.2714   -7.0917   -8.4517 H   0  0  0  0  0  0  0  0  0  0  0  0
    2.8738   -6.4951   -8.9386 H   0  0  0  0  0  0  0  0  0  0  0  0
    2.3996   -3.9304   -7.8732 N   0  0  0  0  0  0  0  0  0  0  0  0
    2.0114   -2.5129   -7.8663 C   0  0  2  0  0  0  0  0  0  0  0  0
    3.2257   -1.5850   -8.0927 C   0  0  0  0  0  0  0  0  0  0  0  0
    4.3549   -2.0562   -8.1791 O   0  0  0  0  0  0  0  0  0  0  0  0
    1.2991   -2.1912   -6.5421 C   0  0  0  0  0  0  0  0  0  0  0  0
    2.4219   -2.4046   -5.1013 S   0  0  0  0  0  0  0  0  0  0  0  0
    3.3870   -4.1406   -7.7306 H   0  0  0  0  0  0  0  0  0  0  0  0
    1.3161   -2.3304   -8.6924 H   0  0  0  0  0  0  0  0  0  0  0  0
    0.9267   -1.1633   -6.5601 H   0  0  0  0  0  0  0  0  0  0  0  0
    0.4352   -2.8535   -6.4249 H   0  0  0  0  0  0  0  0  0  0  0  0
    3.0538   -0.2207   -8.2499 N   0  0  0  0  0  0  0  0  0  0  0  0
    4.1629    0.7047   -8.4516 C   0  0  0  0  0  0  0  0  0  0  0  0
    2.1110    0.1500   -8.1836 H   0  0  0  0  0  0  0  0  0  0  0  0
    4.8362    0.6885   -7.5879 H   0  0  0  0  0  0  0  0  0  0  0  0
    4.7321    0.4340   -9.3472 H   0  0  0  0  0  0  0  0  0  0  0  0
    3.7870    1.7246   -8.5780 H   0  0  0  0  0  0  0  0  0  0  0  0
   -5.7268    1.0625   -1.4558 C   0  0  0  0  0  0  0  0  0  0  0  0
   -6.2329    0.1934   -2.1486 O   0  0  0  0  0  0  0  0  0  0  0  0
   -6.5857    1.8889   -0.5177 C   0  0  0  0  0  0  0  0  0  0  0  0
   -6.4461    2.9531   -0.7238 H   0  0  0  0  0  0  0  0  0  0  0  0
   -7.6413    1.6380   -0.6530 H   0  0  0  0  0  0  0  0  0  0  0  0
   -6.3049    1.6864    0.5187 H   0  0  0  0  0  0  0  0  0  0  0  0
   -4.3693    1.2914   -1.5225 N   0  0  0  0  0  0  0  0  0  0  0  0
   -3.4233    0.4593   -2.2788 C   0  0  2  0  0  0  0  0  0  0  0  0
   -2.0184    0.4846   -1.6387 C   0  0  0  0  0  0  0  0  0  0  0  0
   -1.8512    1.0132   -0.5478 O   0  0  0  0  0  0  0  0  0  0  0  0
   -3.3779    0.9831   -3.7198 C   0  0  0  0  0  0  0  0  0  0  0  0
   -3.9725    1.9456   -0.8454 H   0  0  0  0  0  0  0  0  0  0  0  0
   -3.7644   -0.5817   -2.2809 H   0  0  0  0  0  0  0  0  0  0  0  0
   -3.0196    2.0178   -3.7390 H   0  0  0  0  0  0  0  0  0  0  0  0
   -2.7147    0.3704   -4.3371 H   0  0  0  0  0  0  0  0  0  0  0  0
   -4.3783    0.9540   -4.1638 H   0  0  0  0  0  0  0  0  0  0  0  0
   -0.9312   -0.1170   -2.2455 N   0  0  0  0  0  0  0  0  0  0  0  0
    0.4955    0.2835   -2.1456 C   0  0  2  0  0  0  0  0  0  0  0  0
    0.8753    1.7866   -1.9310 C   0  0  0  0  0  0  0  0  0  0  0  0
    2.0195    2.1530   -2.1719 O   0  0  0  0  0  0  0  0  0  0  0  0
    1.1473   -0.2243   -3.4461 C   0  0  0  0  0  0  0  0  0  0  0  0
    1.1084   -2.0602   -3.5168 S   0  0  0  0  0  0  0  0  0  0  0  0
   -1.1648   -0.6896   -3.0523 H   0  0  0  0  0  0  0  0  0  0  0  0
    0.9340   -0.2501   -1.2961 H   0  0  0  0  0  0  0  0  0  0  0  0
    0.6435    0.2040   -4.3176 H   0  0  0  0  0  0  0  0  0  0  0  0
    2.1978    0.0834   -3.4872 H   0  0  0  0  0  0  0  0  0  0  0  0
   -0.0145    2.7657   -1.5323 N   0  0  0  0  0  0  0  0  0  0  0  0
    0.2649    4.1981   -1.3738 C   0  0  2  0  0  0  0  0  0  0  0  0
   -0.8899    4.9085   -0.6331 C   0  0  0  0  0  0  0  0  0  0  0  0
   -2.0231    4.4365   -0.6425 O   0  0  0  0  0  0  0  0  0  0  0  0
    0.4465    4.8475   -2.7524 C   0  0  0  0  0  0  0  0  0  0  0  0
   -0.9029    2.4324   -1.1464 H   0  0  0  0  0  0  0  0  0  0  0  0
    1.1794    4.3236   -0.7848 H   0  0  0  0  0  0  0  0  0  0  0  0
   -0.4512    4.7029   -3.3622 H   0  0  0  0  0  0  0  0  0  0  0  0
    0.6276    5.9215   -2.6481 H   0  0  0  0  0  0  0  0  0  0  0  0
    1.2991    4.4102   -3.2796 H   0  0  0  0  0  0  0  0  0  0  0  0
   -0.6669    6.1101    0.0142 N   0  0  0  0  0  0  0  0  0  0  0  0
   -1.7137    6.8567    0.7018 C   0  0  0  0  0  0  0  0  0  0  0  0
    0.2798    6.4789    0.0111 H   0  0  0  0  0  0  0  0  0  0  0  0
   -2.5097    7.1336    0.0027 H   0  0  0  0  0  0  0  0  0  0  0  0
   -2.1463    6.2559    1.5086 H   0  0  0  0  0  0  0  0  0  0  0  0
   -1.3020    7.7730    1.1360 H   0  0  0  0  0  0  0  0  0  0  0  0
  1  2  2  0  0  0  0
  1  3  1  0  0  0  0
  1  7  1  0  0  0  0
  3  4  1  0  0  0  0
  3  5  1  0  0  0  0
  3  6  1  0  0  0  0
  7  8  1  0  0  0  0
  7 13  1  0  0  0  0
  8  9  1  0  0  0  0
  8 11  1  0  0  0  0
  8 14  1  0  0  0  0
  9 10  2  0  0  0  0
  9 17  1  0  0  0  0
 11 12  1  0  0  0  0
 11 15  1  0  0  0  0
 11 16  1  0  0  0  0
 12 44  1  0  0  0  0
 17 18  1  0  0  0  0
 17 19  1  0  0  0  0
 18 20  1  0  0  0  0
 18 21  1  0  0  0  0
 18 22  1  0  0  0  0
 23 24  2  0  0  0  0
 23 25  1  0  0  0  0
 23 29  1  0  0  0  0
 25 26  1  0  0  0  0
 25 27  1  0  0  0  0
 25 28  1  0  0  0  0
 29 30  1  0  0  0  0
 29 34  1  0  0  0  0
 30 31  1  0  0  0  0
 30 33  1  0  0  0  0
 30 35  1  0  0  0  0
 31 32  2  0  0  0  0
 31 39  1  0  0  0  0
 33 36  1  0  0  0  0
 33 37  1  0  0  0  0
 33 38  1  0  0  0  0
 39 40  1  0  0  0  0
 39 45  1  0  0  0  0
 40 41  1  0  0  0  0
 40 43  1  0  0  0  0
 40 46  1  0  0  0  0
 41 42  2  0  0  0  0
 41 49  1  0  0  0  0
 43 44  1  0  0  0  0
 43 47  1  0  0  0  0
 43 48  1  0  0  0  0
 49 50  1  0  0  0  0
 49 54  1  0  0  0  0
 50 51  1  0  0  0  0
 50 53  1  0  0  0  0
 50 55  1  0  0  0  0
 51 52  2  0  0  0  0
 51 59  1  0  0  0  0
 53 56  1  0  0  0  0
 53 57  1  0  0  0  0
 53 58  1  0  0  0  0
 59 60  1  0  0  0  0
 59 61  1  0  0  0  0
 60 62  1  0  0  0  0
 60 63  1  0  0  0  0
 60 64  1  0  0  0  0
M  END
$$$$

  -OEChem-05262216053D

 64 63  0     1  0  0  0  0  0999 V2000
    1.2813   -5.1049   -7.2067 C   0  0  0  0  0  0  0  0  0  0  0  0
    0.0955   -4.8857   -7.4007 O   0  0  0  0  0  0  0  0  0  0  0  0
    1.7970   -6.5303   -7.1487 C   0  0  0  0  0  0  0  0  0  0  0  0
    2.3044   -6.7048   -6.1968 H   0  0  0  0  0  0  0  0  0  0  0  0
    0.9664   -7.2358   -7.2393 H   0  0  0  0  0  0  0  0  0  0  0  0
    2.5000   -6.7065   -7.9666 H   0  0  0  0  0  0  0  0  0  0  0  0
    2.1536   -4.0500   -7.0512 N   0  0  0  0  0  0  0  0  0  0  0  0
    1.7837   -2.6371   -7.2156 C   0  0  2  0  0  0  0  0  0  0  0  0
    2.9985   -1.7690   -7.6163 C   0  0  0  0  0  0  0  0  0  0  0  0
    4.0837   -2.2978   -7.8341 O   0  0  0  0  0  0  0  0  0  0  0  0
    1.1278   -2.1287   -5.9218 C   0  0  0  0  0  0  0  0  0  0  0  0
    2.3398   -2.0270   -4.5415 S   0  0  0  0  0  0  0  0  0  0  0  0
    3.1498   -4.2620   -7.0048 H   0  0  0  0  0  0  0  0  0  0  0  0
    1.0567   -2.5538   -8.0303 H   0  0  0  0  0  0  0  0  0  0  0  0
    0.6967   -1.1400   -6.0978 H   0  0  0  0  0  0  0  0  0  0  0  0
    0.3088   -2.7962   -5.6346 H   0  0  0  0  0  0  0  0  0  0  0  0
    2.8768   -0.3984   -7.7684 N   0  0  0  0  0  0  0  0  0  0  0  0
    4.0068    0.4713   -8.0733 C   0  0  0  0  0  0  0  0  0  0  0  0
    1.9837    0.0257   -7.5387 H   0  0  0  0  0  0  0  0  0  0  0  0
    4.7826    0.3747   -7.3064 H   0  0  0  0  0  0  0  0  0  0  0  0
    4.4384    0.2128   -9.0460 H   0  0  0  0  0  0  0  0  0  0  0  0
    3.6830    1.5160   -8.1059 H   0  0  0  0  0  0  0  0  0  0  0  0
   -5.5834    1.2461   -1.6887 C   0  0  0  0  0  0  0  0  0  0  0  0
   -5.6915    0.0342   -1.7821 O   0  0  0  0  0  0  0  0  0  0  0  0
   -6.6578    2.0527   -0.9835 C   0  0  0  0  0  0  0  0  0  0  0  0
   -7.4053    1.3828   -0.5487 H   0  0  0  0  0  0  0  0  0  0  0  0
   -7.1525    2.7173   -1.6958 H   0  0  0  0  0  0  0  0  0  0  0  0
   -6.2142    2.6506   -0.1838 H   0  0  0  0  0  0  0  0  0  0  0  0
   -4.4777    1.8792   -2.2179 N   0  0  0  0  0  0  0  0  0  0  0  0
   -3.3171    1.1777   -2.7865 C   0  0  2  0  0  0  0  0  0  0  0  0
   -1.9863    1.9078   -2.4976 C   0  0  0  0  0  0  0  0  0  0  0  0
   -2.0246    3.0253   -2.0057 O   0  0  0  0  0  0  0  0  0  0  0  0
   -3.5380    1.0343   -4.2963 C   0  0  0  0  0  0  0  0  0  0  0  0
   -4.3656    2.8718   -2.0174 H   0  0  0  0  0  0  0  0  0  0  0  0
   -3.2378    0.1798   -2.3414 H   0  0  0  0  0  0  0  0  0  0  0  0
   -3.6014    2.0196   -4.7691 H   0  0  0  0  0  0  0  0  0  0  0  0
   -2.7162    0.4775   -4.7566 H   0  0  0  0  0  0  0  0  0  0  0  0
   -4.4698    0.4937   -4.4934 H   0  0  0  0  0  0  0  0  0  0  0  0
   -0.8033    1.2343   -2.7537 N   0  0  0  0  0  0  0  0  0  0  0  0
    0.6315    1.6148   -2.6769 C   0  0  2  0  0  0  0  0  0  0  0  0
    1.1198    3.0838   -2.9154 C   0  0  0  0  0  0  0  0  0  0  0  0
    1.9281    3.3167   -3.8036 O   0  0  0  0  0  0  0  0  0  0  0  0
    1.3243    0.6558   -3.6626 C   0  0  0  0  0  0  0  0  0  0  0  0
    1.1812   -1.0837   -3.0868 S   0  0  0  0  0  0  0  0  0  0  0  0
   -0.9527    0.2764   -3.0624 H   0  0  0  0  0  0  0  0  0  0  0  0
    0.9814    1.3755   -1.6674 H   0  0  0  0  0  0  0  0  0  0  0  0
    0.8971    0.7712   -4.6629 H   0  0  0  0  0  0  0  0  0  0  0  0
    2.3924    0.8906   -3.7285 H   0  0  0  0  0  0  0  0  0  0  0  0
    0.4301    4.2391   -2.6490 N   0  0  0  0  0  0  0  0  0  0  0  0
    0.6276    4.8398   -1.3170 C   0  0  2  0  0  0  0  0  0  0  0  0
    0.6346    3.8483   -0.1274 C   0  0  0  0  0  0  0  0  0  0  0  0
    1.7055    3.4681    0.3248 O   0  0  0  0  0  0  0  0  0  0  0  0
   -0.4411    5.9214   -1.1262 C   0  0  0  0  0  0  0  0  0  0  0  0
    0.6094    4.8976   -3.4016 H   0  0  0  0  0  0  0  0  0  0  0  0
    1.6077    5.3301   -1.3097 H   0  0  0  0  0  0  0  0  0  0  0  0
   -0.3070    6.4218   -0.1621 H   0  0  0  0  0  0  0  0  0  0  0  0
   -0.3644    6.6719   -1.9188 H   0  0  0  0  0  0  0  0  0  0  0  0
   -1.4452    5.4890   -1.1561 H   0  0  0  0  0  0  0  0  0  0  0  0
   -0.5308    3.2852    0.3507 N   0  0  0  0  0  0  0  0  0  0  0  0
   -0.5484    2.1815    1.3022 C   0  0  0  0  0  0  0  0  0  0  0  0
   -1.3389    3.4036   -0.2650 H   0  0  0  0  0  0  0  0  0  0  0  0
   -1.5773    1.9564    1.5989 H   0  0  0  0  0  0  0  0  0  0  0  0
   -0.1102    1.2835    0.8547 H   0  0  0  0  0  0  0  0  0  0  0  0
    0.0195    2.4393    2.2024 H   0  0  0  0  0  0  0  0  0  0  0  0
  1  2  2  0  0  0  0
  1  3  1  0  0  0  0
  1  7  1  0  0  0  0
  3  4  1  0  0  0  0
  3  5  1  0  0  0  0
  3  6  1  0  0  0  0
  7  8  1  0  0  0  0
  7 13  1  0  0  0  0
  8  9  1  0  0  0  0
  8 11  1  0  0  0  0
  8 14  1  0  0  0  0
  9 10  2  0  0  0  0
  9 17  1  0  0  0  0
 11 12  1  0  0  0  0
 11 15  1  0  0  0  0
 11 16  1  0  0  0  0
 12 44  1  0  0  0  0
 17 18  1  0  0  0  0
 17 19  1  0  0  0  0
 18 20  1  0  0  0  0
 18 21  1  0  0  0  0
 18 22  1  0  0  0  0
 23 24  2  0  0  0  0
 23 25  1  0  0  0  0
 23 29  1  0  0  0  0
 25 26  1  0  0  0  0
 25 27  1  0  0  0  0
 25 28  1  0  0  0  0
 29 30  1  0  0  0  0
 29 34  1  0  0  0  0
 30 31  1  0  0  0  0
 30 33  1  0  0  0  0
 30 35  1  0  0  0  0
 31 32  2  0  0  0  0
 31 39  1  0  0  0  0
 33 36  1  0  0  0  0
 33 37  1  0  0  0  0
 33 38  1  0  0  0  0
 39 40  1  0  0  0  0
 39 45  1  0  0  0  0
 40 41  1  0  0  0  0
 40 43  1  0  0  0  0
 40 46  1  0  0  0  0
 41 42  2  0  0  0  0
 41 49  1  0  0  0  0
 43 44  1  0  0  0  0
 43 47  1  0  0  0  0
 43 48  1  0  0  0  0
 49 50  1  0  0  0  0
 49 54  1  0  0  0  0
 50 51  1  0  0  0  0
 50 53  1  0  0  0  0
 50 55  1  0  0  0  0
 51 52  2  0  0  0  0
 51 59  1  0  0  0  0
 53 56  1  0  0  0  0
 53 57  1  0  0  0  0
 53 58  1  0  0  0  0
 59 60  1  0  0  0  0
 59 61  1  0  0  0  0
 60 62  1  0  0  0  0
 60 63  1  0  0  0  0
 60 64  1  0  0  0  0
M  END
$$$$

  -OEChem-05262216053D

 64 63  0     1  0  0  0  0  0999 V2000
    1.5590   -4.9578   -8.1385 C   0  0  0  0  0  0  0  0  0  0  0  0
    0.4099   -4.7236   -8.4795 O   0  0  0  0  0  0  0  0  0  0  0  0
    2.0821   -6.3812   -8.1273 C   0  0  0  0  0  0  0  0  0  0  0  0
    2.4343   -6.6401   -7.1260 H   0  0  0  0  0  0  0  0  0  0  0  0
    1.2883   -7.0769   -8.4125 H   0  0  0  0  0  0  0  0  0  0  0  0
    2.9094   -6.4804   -8.8339 H   0  0  0  0  0  0  0  0  0  0  0  0
    2.3834   -3.9207   -7.7631 N   0  0  0  0  0  0  0  0  0  0  0  0
    2.0008   -2.5023   -7.7707 C   0  0  2  0  0  0  0  0  0  0  0  0
    3.2322   -1.5787   -7.8954 C   0  0  0  0  0  0  0  0  0  0  0  0
    4.3622   -2.0553   -7.9194 O   0  0  0  0  0  0  0  0  0  0  0  0
    1.1946   -2.1884   -6.4998 C   0  0  0  0  0  0  0  0  0  0  0  0
    2.1902   -2.4767   -4.9806 S   0  0  0  0  0  0  0  0  0  0  0  0
    3.3566   -4.1362   -7.5495 H   0  0  0  0  0  0  0  0  0  0  0  0
    1.3705   -2.3080   -8.6449 H   0  0  0  0  0  0  0  0  0  0  0  0
    0.8587   -1.1482   -6.5203 H   0  0  0  0  0  0  0  0  0  0  0  0
    0.3029   -2.8229   -6.4697 H   0  0  0  0  0  0  0  0  0  0  0  0
    3.0770   -0.2105   -8.0326 N   0  0  0  0  0  0  0  0  0  0  0  0
    4.2004    0.7101   -8.1586 C   0  0  0  0  0  0  0  0  0  0  0  0
    2.1336    0.1646   -8.0217 H   0  0  0  0  0  0  0  0  0  0  0  0
    4.8468    0.6481   -7.2768 H   0  0  0  0  0  0  0  0  0  0  0  0
    4.7931    0.4715   -9.0479 H   0  0  0  0  0  0  0  0  0  0  0  0
    3.8390    1.7387   -8.2503 H   0  0  0  0  0  0  0  0  0  0  0  0
   -5.9578    0.5179   -1.8103 C   0  0  0  0  0  0  0  0  0  0  0  0
   -6.2361   -0.4000   -2.5654 O   0  0  0  0  0  0  0  0  0  0  0  0
   -6.9768    1.0089   -0.7992 C   0  0  0  0  0  0  0  0  0  0  0  0
   -7.2319    2.0517   -1.0044 H   0  0  0  0  0  0  0  0  0  0  0  0
   -7.8867    0.4046   -0.8572 H   0  0  0  0  0  0  0  0  0  0  0  0
   -6.5677    0.9323    0.2114 H   0  0  0  0  0  0  0  0  0  0  0  0
   -4.7126    1.1063   -1.8741 N   0  0  0  0  0  0  0  0  0  0  0  0
   -3.6024    0.6045   -2.6958 C   0  0  2  0  0  0  0  0  0  0  0  0
   -2.2334    0.8718   -2.0340 C   0  0  0  0  0  0  0  0  0  0  0  0
   -2.1762    1.5926   -1.0500 O   0  0  0  0  0  0  0  0  0  0  0  0
   -3.6745    1.2811   -4.0680 C   0  0  0  0  0  0  0  0  0  0  0  0
   -4.4729    1.7688   -1.1362 H   0  0  0  0  0  0  0  0  0  0  0  0
   -3.6979   -0.4794   -2.8226 H   0  0  0  0  0  0  0  0  0  0  0  0
   -3.5714    2.3660   -3.9652 H   0  0  0  0  0  0  0  0  0  0  0  0
   -2.8778    0.9149   -4.7222 H   0  0  0  0  0  0  0  0  0  0  0  0
   -4.6361    1.0664   -4.5451 H   0  0  0  0  0  0  0  0  0  0  0  0
   -1.1064    0.2128   -2.4931 N   0  0  0  0  0  0  0  0  0  0  0  0
    0.3315    0.4363   -2.2010 C   0  0  2  0  0  0  0  0  0  0  0  0
    0.8715    1.8656   -1.8598 C   0  0  0  0  0  0  0  0  0  0  0  0
    1.9055    2.2638   -2.3868 O   0  0  0  0  0  0  0  0  0  0  0  0
    1.0731   -0.1586   -3.4145 C   0  0  0  0  0  0  0  0  0  0  0  0
    0.8085   -1.9758   -3.4999 S   0  0  0  0  0  0  0  0  0  0  0  0
   -1.2932   -0.4732   -3.2208 H   0  0  0  0  0  0  0  0  0  0  0  0
    0.5813   -0.1648   -1.3209 H   0  0  0  0  0  0  0  0  0  0  0  0
    0.7438    0.3256   -4.3390 H   0  0  0  0  0  0  0  0  0  0  0  0
    2.1511    0.0092   -3.3170 H   0  0  0  0  0  0  0  0  0  0  0  0
    0.2610    2.7433   -0.9854 N   0  0  0  0  0  0  0  0  0  0  0  0
    0.7523    4.0829   -0.6317 C   0  0  2  0  0  0  0  0  0  0  0  0
    0.2811    4.5430    0.7645 C   0  0  0  0  0  0  0  0  0  0  0  0
   -0.6938    4.0326    1.3023 O   0  0  0  0  0  0  0  0  0  0  0  0
    0.2723    5.0716   -1.6995 C   0  0  0  0  0  0  0  0  0  0  0  0
   -0.6331    2.4450   -0.5785 H   0  0  0  0  0  0  0  0  0  0  0  0
    1.8469    4.0740   -0.6122 H   0  0  0  0  0  0  0  0  0  0  0  0
   -0.8220    5.1024   -1.7245 H   0  0  0  0  0  0  0  0  0  0  0  0
    0.6457    6.0777   -1.4861 H   0  0  0  0  0  0  0  0  0  0  0  0
    0.6356    4.7724   -2.6877 H   0  0  0  0  0  0  0  0  0  0  0  0
    0.9519    5.5600    1.4199 N   0  0  0  0  0  0  0  0  0  0  0  0
    0.5552    6.0660    2.7287 C   0  0  0  0  0  0  0  0  0  0  0  0
    1.7621    5.9635    0.9591 H   0  0  0  0  0  0  0  0  0  0  0  0
   -0.4504    6.4970    2.6833 H   0  0  0  0  0  0  0  0  0  0  0  0
    0.5585    5.2597    3.4700 H   0  0  0  0  0  0  0  0  0  0  0  0
    1.2500    6.8433    3.0606 H   0  0  0  0  0  0  0  0  0  0  0  0
  1  2  2  0  0  0  0
  1  3  1  0  0  0  0
  1  7  1  0  0  0  0
  3  4  1  0  0  0  0
  3  5  1  0  0  0  0
  3  6  1  0  0  0  0
  7  8  1  0  0  0  0
  7 13  1  0  0  0  0
  8  9  1  0  0  0  0
  8 11  1  0  0  0  0
  8 14  1  0  0  0  0
  9 10  2  0  0  0  0
  9 17  1  0  0  0  0
 11 12  1  0  0  0  0
 11 15  1  0  0  0  0
 11 16  1  0  0  0  0
 12 44  1  0  0  0  0
 17 18  1  0  0  0  0
 17 19  1  0  0  0  0
 18 20  1  0  0  0  0
 18 21  1  0  0  0  0
 18 22  1  0  0  0  0
 23 24  2  0  0  0  0
 23 25  1  0  0  0  0
 23 29  1  0  0  0  0
 25 26  1  0  0  0  0
 25 27  1  0  0  0  0
 25 28  1  0  0  0  0
 29 30  1  0  0  0  0
 29 34  1  0  0  0  0
 30 31  1  0  0  0  0
 30 33  1  0  0  0  0
 30 35  1  0  0  0  0
 31 32  2  0  0  0  0
 31 39  1  0  0  0  0
 33 36  1  0  0  0  0
 33 37  1  0  0  0  0
 33 38  1  0  0  0  0
 39 40  1  0  0  0  0
 39 45  1  0  0  0  0
 40 41  1  0  0  0  0
 40 43  1  0  0  0  0
 40 46  1  0  0  0  0
 41 42  2  0  0  0  0
 41 49  1  0  0  0  0
 43 44  1  0  0  0  0
 43 47  1  0  0  0  0
 43 48  1  0  0  0  0
 49 50  1  0  0  0  0
 49 54  1  0  0  0  0
 50 51  1  0  0  0  0
 50 53  1  0  0  0  0
 50 55  1  0  0  0  0
 51 52  2  0  0  0  0
 51 59  1  0  0  0  0
 53 56  1  0  0  0  0
 53 57  1  0  0  0  0
 53 58  1  0  0  0  0
 59 60  1  0  0  0  0
 59 61  1  0  0  0  0
 60 62  1  0  0  0  0
 60 63  1  0  0  0  0
 60 64  1  0  0  0  0
M  END
$$$$

  -OEChem-05262216053D

 64 63  0     1  0  0  0  0  0999 V2000
    1.5370   -4.9909   -8.1781 C   0  0  0  0  0  0  0  0  0  0  0  0
    0.3875   -4.7479   -8.5116 O   0  0  0  0  0  0  0  0  0  0  0  0
    2.0516   -6.4180   -8.1869 C   0  0  0  0  0  0  0  0  0  0  0  0
    2.3398   -6.7156   -7.1756 H   0  0  0  0  0  0  0  0  0  0  0  0
    1.2732   -7.0971   -8.5460 H   0  0  0  0  0  0  0  0  0  0  0  0
    2.9205   -6.4987   -8.8448 H   0  0  0  0  0  0  0  0  0  0  0  0
    2.3672   -3.9609   -7.7941 N   0  0  0  0  0  0  0  0  0  0  0  0
    1.9882   -2.5409   -7.7832 C   0  0  2  0  0  0  0  0  0  0  0  0
    3.2199   -1.6147   -7.8853 C   0  0  0  0  0  0  0  0  0  0  0  0
    4.3502   -2.0904   -7.9109 O   0  0  0  0  0  0  0  0  0  0  0  0
    1.1782   -2.2428   -6.5111 C   0  0  0  0  0  0  0  0  0  0  0  0
    2.1817   -2.5325   -4.9972 S   0  0  0  0  0  0  0  0  0  0  0  0
    3.3405   -4.1824   -7.5861 H   0  0  0  0  0  0  0  0  0  0  0  0
    1.3624   -2.3334   -8.6574 H   0  0  0  0  0  0  0  0  0  0  0  0
    0.8329   -1.2056   -6.5245 H   0  0  0  0  0  0  0  0  0  0  0  0
    0.2917   -2.8849   -6.4832 H   0  0  0  0  0  0  0  0  0  0  0  0
    3.0644   -0.2431   -7.9870 N   0  0  0  0  0  0  0  0  0  0  0  0
    4.1871    0.6856   -8.0466 C   0  0  0  0  0  0  0  0  0  0  0  0
    2.1214    0.1315   -7.9520 H   0  0  0  0  0  0  0  0  0  0  0  0
    4.7620    0.6506   -7.1150 H   0  0  0  0  0  0  0  0  0  0  0  0
    4.8510    0.4341   -8.8807 H   0  0  0  0  0  0  0  0  0  0  0  0
    3.8253    1.7083   -8.1923 H   0  0  0  0  0  0  0  0  0  0  0  0
   -5.8675    0.6677   -1.7123 C   0  0  0  0  0  0  0  0  0  0  0  0
   -6.1922   -0.2213   -2.4833 O   0  0  0  0  0  0  0  0  0  0  0  0
   -6.8367    1.1489   -0.6493 C   0  0  0  0  0  0  0  0  0  0  0  0
   -7.0939    2.1959   -0.8263 H   0  0  0  0  0  0  0  0  0  0  0  0
   -7.7519    0.5507   -0.6740 H   0  0  0  0  0  0  0  0  0  0  0  0
   -6.3817    1.0549    0.3398 H   0  0  0  0  0  0  0  0  0  0  0  0
   -4.6101    1.2265   -1.7974 N   0  0  0  0  0  0  0  0  0  0  0  0
   -3.5357    0.7175   -2.6601 C   0  0  2  0  0  0  0  0  0  0  0  0
   -2.1424    0.9638   -2.0438 C   0  0  0  0  0  0  0  0  0  0  0  0
   -2.0355    1.7214   -1.0909 O   0  0  0  0  0  0  0  0  0  0  0  0
   -3.6432    1.4057   -4.0238 C   0  0  0  0  0  0  0  0  0  0  0  0
   -4.3371    1.8769   -1.0606 H   0  0  0  0  0  0  0  0  0  0  0  0
   -3.6506   -0.3644   -2.7889 H   0  0  0  0  0  0  0  0  0  0  0  0
   -3.5206    2.4880   -3.9152 H   0  0  0  0  0  0  0  0  0  0  0  0
   -2.8731    1.0338   -4.7060 H   0  0  0  0  0  0  0  0  0  0  0  0
   -4.6228    1.2095   -4.4713 H   0  0  0  0  0  0  0  0  0  0  0  0
   -1.0491    0.2570   -2.5139 N   0  0  0  0  0  0  0  0  0  0  0  0
    0.3948    0.4332   -2.2281 C   0  0  2  0  0  0  0  0  0  0  0  0
    0.9522    1.8528   -1.8963 C   0  0  0  0  0  0  0  0  0  0  0  0
    1.8425    2.3440   -2.5832 O   0  0  0  0  0  0  0  0  0  0  0  0
    1.1338   -0.1808   -3.4307 C   0  0  0  0  0  0  0  0  0  0  0  0
    0.8224   -1.9907   -3.5122 S   0  0  0  0  0  0  0  0  0  0  0  0
   -1.2686   -0.4360   -3.2254 H   0  0  0  0  0  0  0  0  0  0  0  0
    0.6294   -0.1679   -1.3439 H   0  0  0  0  0  0  0  0  0  0  0  0
    0.8238    0.3071   -4.3596 H   0  0  0  0  0  0  0  0  0  0  0  0
    2.2137   -0.0308   -3.3210 H   0  0  0  0  0  0  0  0  0  0  0  0
    0.5109    2.5894   -0.8162 N   0  0  0  0  0  0  0  0  0  0  0  0
    0.9886    3.9246   -0.4356 C   0  0  2  0  0  0  0  0  0  0  0  0
    0.7911    4.2103    1.0689 C   0  0  0  0  0  0  0  0  0  0  0  0
   -0.0050    3.5596    1.7354 O   0  0  0  0  0  0  0  0  0  0  0  0
    0.2367    4.9630   -1.2741 C   0  0  0  0  0  0  0  0  0  0  0  0
   -0.3452    2.2532   -0.3618 H   0  0  0  0  0  0  0  0  0  0  0  0
    2.0610    3.9997   -0.6428 H   0  0  0  0  0  0  0  0  0  0  0  0
   -0.8405    4.8917   -1.0916 H   0  0  0  0  0  0  0  0  0  0  0  0
    0.5678    5.9743   -1.0208 H   0  0  0  0  0  0  0  0  0  0  0  0
    0.4210    4.7973   -2.3400 H   0  0  0  0  0  0  0  0  0  0  0  0
    1.5121    5.2173    1.6854 N   0  0  0  0  0  0  0  0  0  0  0  0
    1.3881    5.5343    3.1033 C   0  0  0  0  0  0  0  0  0  0  0  0
    2.1876    5.7261    1.1231 H   0  0  0  0  0  0  0  0  0  0  0  0
    0.3604    5.8283    3.3413 H   0  0  0  0  0  0  0  0  0  0  0  0
    1.6558    4.6658    3.7144 H   0  0  0  0  0  0  0  0  0  0  0  0
    2.0540    6.3616    3.3672 H   0  0  0  0  0  0  0  0  0  0  0  0
  1  2  2  0  0  0  0
  1  3  1  0  0  0  0
  1  7  1  0  0  0  0
  3  4  1  0  0  0  0
  3  5  1  0  0  0  0
  3  6  1  0  0  0  0
  7  8  1  0  0  0  0
  7 13  1  0  0  0  0
  8  9  1  0  0  0  0
  8 11  1  0  0  0  0
  8 14  1  0  0  0  0
  9 10  2  0  0  0  0
  9 17  1  0  0  0  0
 11 12  1  0  0  0  0
 11 15  1  0  0  0  0
 11 16  1  0  0  0  0
 12 44  1  0  0  0  0
 17 18  1  0  0  0  0
 17 19  1  0  0  0  0
 18 20  1  0  0  0  0
 18 21  1  0  0  0  0
 18 22  1  0  0  0  0
 23 24  2  0  0  0  0
 23 25  1  0  0  0  0
 23 29  1  0  0  0  0
 25 26  1  0  0  0  0
 25 27  1  0  0  0  0
 25 28  1  0  0  0  0
 29 30  1  0  0  0  0
 29 34  1  0  0  0  0
 30 31  1  0  0  0  0
 30 33  1  0  0  0  0
 30 35  1  0  0  0  0
 31 32  2  0  0  0  0
 31 39  1  0  0  0  0
 33 36  1  0  0  0  0
 33 37  1  0  0  0  0
 33 38  1  0  0  0  0
 39 40  1  0  0  0  0
 39 45  1  0  0  0  0
 40 41  1  0  0  0  0
 40 43  1  0  0  0  0
 40 46  1  0  0  0  0
 41 42  2  0  0  0  0
 41 49  1  0  0  0  0
 43 44  1  0  0  0  0
 43 47  1  0  0  0  0
 43 48  1  0  0  0  0
 49 50  1  0  0  0  0
 49 54  1  0  0  0  0
 50 51  1  0  0  0  0
 50 53  1  0  0  0  0
 50 55  1  0  0  0  0
 51 52  2  0  0  0  0
 51 59  1  0  0  0  0
 53 56  1  0  0  0  0
 53 57  1  0  0  0  0
 53 58  1  0  0  0  0
 59 60  1  0  0  0  0
 59 61  1  0  0  0  0
 60 62  1  0  0  0  0
 60 63  1  0  0  0  0
 60 64  1  0  0  0  0
M  END
$$$$

  -OEChem-05262216053D

 64 63  0     1  0  0  0  0  0999 V2000
    1.5446   -4.9970   -8.2035 C   0  0  0  0  0  0  0  0  0  0  0  0
    0.3913   -4.7530   -8.5228 O   0  0  0  0  0  0  0  0  0  0  0  0
    2.0567   -6.4244   -8.2134 C   0  0  0  0  0  0  0  0  0  0  0  0
    2.4215   -6.6956   -7.2197 H   0  0  0  0  0  0  0  0  0  0  0  0
    1.2527   -7.1110   -8.4927 H   0  0  0  0  0  0  0  0  0  0  0  0
    2.8726   -6.5238   -8.9334 H   0  0  0  0  0  0  0  0  0  0  0  0
    2.3805   -3.9687   -7.8292 N   0  0  0  0  0  0  0  0  0  0  0  0
    1.9987   -2.5503   -7.7969 C   0  0  2  0  0  0  0  0  0  0  0  0
    3.2296   -1.6219   -7.8861 C   0  0  0  0  0  0  0  0  0  0  0  0
    4.3595   -2.0972   -7.9337 O   0  0  0  0  0  0  0  0  0  0  0  0
    1.1882   -2.2718   -6.5206 C   0  0  0  0  0  0  0  0  0  0  0  0
    2.1827   -2.5990   -5.0083 S   0  0  0  0  0  0  0  0  0  0  0  0
    3.3561   -4.1905   -7.6327 H   0  0  0  0  0  0  0  0  0  0  0  0
    1.3724   -2.3305   -8.6679 H   0  0  0  0  0  0  0  0  0  0  0  0
    0.8504   -1.2321   -6.5148 H   0  0  0  0  0  0  0  0  0  0  0  0
    0.2970   -2.9074   -6.5083 H   0  0  0  0  0  0  0  0  0  0  0  0
    3.0732   -0.2485   -7.9549 N   0  0  0  0  0  0  0  0  0  0  0  0
    4.1955    0.6805   -8.0107 C   0  0  0  0  0  0  0  0  0  0  0  0
    2.1305    0.1251   -7.9023 H   0  0  0  0  0  0  0  0  0  0  0  0
    4.8092    0.5943   -7.1076 H   0  0  0  0  0  0  0  0  0  0  0  0
    4.8223    0.4731   -8.8845 H   0  0  0  0  0  0  0  0  0  0  0  0
    3.8314    1.7099   -8.0846 H   0  0  0  0  0  0  0  0  0  0  0  0
   -5.7780    0.8025   -1.5864 C   0  0  0  0  0  0  0  0  0  0  0  0
   -6.1391   -0.0878   -2.3394 O   0  0  0  0  0  0  0  0  0  0  0  0
   -6.7135    1.3140   -0.5075 C   0  0  0  0  0  0  0  0  0  0  0  0
   -6.9377    2.3694   -0.6789 H   0  0  0  0  0  0  0  0  0  0  0  0
   -7.6487    0.7473   -0.5210 H   0  0  0  0  0  0  0  0  0  0  0  0
   -6.2486    1.2016    0.4749 H   0  0  0  0  0  0  0  0  0  0  0  0
   -4.5136    1.3376   -1.7134 N   0  0  0  0  0  0  0  0  0  0  0  0
   -3.4800    0.8059   -2.6115 C   0  0  2  0  0  0  0  0  0  0  0  0
   -2.0634    1.0020   -2.0332 C   0  0  0  0  0  0  0  0  0  0  0  0
   -1.8944    1.7749   -1.1000 O   0  0  0  0  0  0  0  0  0  0  0  0
   -3.6053    1.5094   -3.9660 C   0  0  0  0  0  0  0  0  0  0  0  0
   -4.2053    1.9895   -0.9924 H   0  0  0  0  0  0  0  0  0  0  0  0
   -3.6303   -0.2706   -2.7483 H   0  0  0  0  0  0  0  0  0  0  0  0
   -3.4516    2.5873   -3.8525 H   0  0  0  0  0  0  0  0  0  0  0  0
   -2.8632    1.1236   -4.6711 H   0  0  0  0  0  0  0  0  0  0  0  0
   -4.6010    1.3417   -4.3889 H   0  0  0  0  0  0  0  0  0  0  0  0
   -1.0136    0.2373   -2.5111 N   0  0  0  0  0  0  0  0  0  0  0  0
    0.4326    0.3781   -2.2334 C   0  0  2  0  0  0  0  0  0  0  0  0
    0.9904    1.8002   -1.9344 C   0  0  0  0  0  0  0  0  0  0  0  0
    1.7173    2.3687   -2.7436 O   0  0  0  0  0  0  0  0  0  0  0  0
    1.1652   -0.2463   -3.4318 C   0  0  0  0  0  0  0  0  0  0  0  0
    0.8252   -2.0500   -3.5239 S   0  0  0  0  0  0  0  0  0  0  0  0
   -1.2653   -0.4529   -3.2145 H   0  0  0  0  0  0  0  0  0  0  0  0
    0.6648   -0.2186   -1.3457 H   0  0  0  0  0  0  0  0  0  0  0  0
    0.8660    0.2488   -4.3608 H   0  0  0  0  0  0  0  0  0  0  0  0
    2.2456   -0.1076   -3.3143 H   0  0  0  0  0  0  0  0  0  0  0  0
    0.7680    2.4120   -0.7171 N   0  0  0  0  0  0  0  0  0  0  0  0
    1.2708    3.7345   -0.3266 C   0  0  2  0  0  0  0  0  0  0  0  0
    1.3506    3.8951    1.2072 C   0  0  0  0  0  0  0  0  0  0  0  0
    0.7236    3.1497    1.9512 O   0  0  0  0  0  0  0  0  0  0  0  0
    0.3471    4.8019   -0.9234 C   0  0  0  0  0  0  0  0  0  0  0  0
   -0.0087    2.0347   -0.1679 H   0  0  0  0  0  0  0  0  0  0  0  0
    2.2825    3.8690   -0.7226 H   0  0  0  0  0  0  0  0  0  0  0  0
   -0.6731    4.6776   -0.5456 H   0  0  0  0  0  0  0  0  0  0  0  0
    0.6975    5.8043   -0.6602 H   0  0  0  0  0  0  0  0  0  0  0  0
    0.3251    4.7208   -2.0145 H   0  0  0  0  0  0  0  0  0  0  0  0
    2.1353    4.8901    1.7622 N   0  0  0  0  0  0  0  0  0  0  0  0
    2.2789    5.0875    3.1999 C   0  0  0  0  0  0  0  0  0  0  0  0
    2.6674    5.4786    1.1282 H   0  0  0  0  0  0  0  0  0  0  0  0
    1.3021    5.2636    3.6631 H   0  0  0  0  0  0  0  0  0  0  0  0
    2.7358    4.2068    3.6635 H   0  0  0  0  0  0  0  0  0  0  0  0
    2.9161    5.9540    3.4007 H   0  0  0  0  0  0  0  0  0  0  0  0
  1  2  2  0  0  0  0
  1  3  1  0  0  0  0
  1  7  1  0  0  0  0
  3  4  1  0  0  0  0
  3  5  1  0  0  0  0
  3  6  1  0  0  0  0
  7  8  1  0  0  0  0
  7 13  1  0  0  0  0
  8  9  1  0  0  0  0
  8 11  1  0  0  0  0
  8 14  1  0  0  0  0
  9 10  2  0  0  0  0
  9 17  1  0  0  0  0
 11 12  1  0  0  0  0
 11 15  1  0  0  0  0
 11 16  1  0  0  0  0
 12 44  1  0  0  0  0
 17 18  1  0  0  0  0
 17 19  1  0  0  0  0
 18 20  1  0  0  0  0
 18 21  1  0  0  0  0
 18 22  1  0  0  0  0
 23 24  2  0  0  0  0
 23 25  1  0  0  0  0
 23 29  1  0  0  0  0
 25 26  1  0  0  0  0
 25 27  1  0  0  0  0
 25 28  1  0  0  0  0
 29 30  1  0  0  0  0
 29 34  1  0  0  0  0
 30 31  1  0  0  0  0
 30 33  1  0  0  0  0
 30 35  1  0  0  0  0
 31 32  2  0  0  0  0
 31 39  1  0  0  0  0
 33 36  1  0  0  0  0
 33 37  1  0  0  0  0
 33 38  1  0  0  0  0
 39 40  1  0  0  0  0
 39 45  1  0  0  0  0
 40 41  1  0  0  0  0
 40 43  1  0  0  0  0
 40 46  1  0  0  0  0
 41 42  2  0  0  0  0
 41 49  1  0  0  0  0
 43 44  1  0  0  0  0
 43 47  1  0  0  0  0
 43 48  1  0  0  0  0
 49 50  1  0  0  0  0
 49 54  1  0  0  0  0
 50 51  1  0  0  0  0
 50 53  1  0  0  0  0
 50 55  1  0  0  0  0
 51 52  2  0  0  0  0
 51 59  1  0  0  0  0
 53 56  1  0  0  0  0
 53 57  1  0  0  0  0
 53 58  1  0  0  0  0
 59 60  1  0  0  0  0
 59 61  1  0  0  0  0
 60 62  1  0  0  0  0
 60 63  1  0  0  0  0
 60 64  1  0  0  0  0
M  END
$$$$

  -OEChem-05262216053D

 64 63  0     1  0  0  0  0  0999 V2000
    1.5627   -5.0267   -8.2304 C   0  0  0  0  0  0  0  0  0  0  0  0
    0.4044   -4.7897   -8.5366 O   0  0  0  0  0  0  0  0  0  0  0  0
    2.0854   -6.4502   -8.2555 C   0  0  0  0  0  0  0  0  0  0  0  0
    2.4311   -6.7375   -7.2595 H   0  0  0  0  0  0  0  0  0  0  0  0
    1.2925   -7.1368   -8.5647 H   0  0  0  0  0  0  0  0  0  0  0  0
    2.9170   -6.5314   -8.9595 H   0  0  0  0  0  0  0  0  0  0  0  0
    2.3937   -3.9939   -7.8568 N   0  0  0  0  0  0  0  0  0  0  0  0
    2.0002   -2.5790   -7.8104 C   0  0  2  0  0  0  0  0  0  0  0  0
    3.2230   -1.6390   -7.8981 C   0  0  0  0  0  0  0  0  0  0  0  0
    4.3569   -2.1038   -7.9540 O   0  0  0  0  0  0  0  0  0  0  0  0
    1.1942   -2.3188   -6.5277 C   0  0  0  0  0  0  0  0  0  0  0  0
    2.2023   -2.6432   -5.0243 S   0  0  0  0  0  0  0  0  0  0  0  0
    3.3711   -4.2098   -7.6635 H   0  0  0  0  0  0  0  0  0  0  0  0
    1.3669   -2.3584   -8.6762 H   0  0  0  0  0  0  0  0  0  0  0  0
    0.8437   -1.2835   -6.5131 H   0  0  0  0  0  0  0  0  0  0  0  0
    0.3109   -2.9654   -6.5131 H   0  0  0  0  0  0  0  0  0  0  0  0
    3.0559   -0.2663   -7.9554 N   0  0  0  0  0  0  0  0  0  0  0  0
    4.1704    0.6725   -8.0105 C   0  0  0  0  0  0  0  0  0  0  0  0
    2.1107    0.0994   -7.8930 H   0  0  0  0  0  0  0  0  0  0  0  0
    4.7824    0.5940   -7.1059 H   0  0  0  0  0  0  0  0  0  0  0  0
    4.8023    0.4696   -8.8817 H   0  0  0  0  0  0  0  0  0  0  0  0
    3.7972    1.6982   -8.0880 H   0  0  0  0  0  0  0  0  0  0  0  0
   -5.6941    0.9419   -1.5016 C   0  0  0  0  0  0  0  0  0  0  0  0
   -6.0970    0.0580   -2.2408 O   0  0  0  0  0  0  0  0  0  0  0  0
   -6.5860    1.4742   -0.3960 C   0  0  0  0  0  0  0  0  0  0  0  0
   -6.8137    2.5275   -0.5760 H   0  0  0  0  0  0  0  0  0  0  0  0
   -7.5230    0.9108   -0.3638 H   0  0  0  0  0  0  0  0  0  0  0  0
   -6.0837    1.3762    0.5695 H   0  0  0  0  0  0  0  0  0  0  0  0
   -4.4205    1.4456   -1.6628 N   0  0  0  0  0  0  0  0  0  0  0  0
   -3.4193    0.8793   -2.5769 C   0  0  2  0  0  0  0  0  0  0  0  0
   -1.9884    1.0137   -2.0157 C   0  0  0  0  0  0  0  0  0  0  0  0
   -1.7695    1.7795   -1.0859 O   0  0  0  0  0  0  0  0  0  0  0  0
   -3.5318    1.5983   -3.9244 C   0  0  0  0  0  0  0  0  0  0  0  0
   -4.0779    2.0881   -0.9492 H   0  0  0  0  0  0  0  0  0  0  0  0
   -3.6144   -0.1891   -2.7208 H   0  0  0  0  0  0  0  0  0  0  0  0
   -3.3292    2.6679   -3.8054 H   0  0  0  0  0  0  0  0  0  0  0  0
   -2.8167    1.1857   -4.6426 H   0  0  0  0  0  0  0  0  0  0  0  0
   -4.5395    1.4778   -4.3352 H   0  0  0  0  0  0  0  0  0  0  0  0
   -0.9752    0.2085   -2.5055 N   0  0  0  0  0  0  0  0  0  0  0  0
    0.4725    0.3289   -2.2367 C   0  0  2  0  0  0  0  0  0  0  0  0
    1.0213    1.7552   -1.9616 C   0  0  0  0  0  0  0  0  0  0  0  0
    1.5075    2.4221   -2.8703 O   0  0  0  0  0  0  0  0  0  0  0  0
    1.2055   -0.2953   -3.4328 C   0  0  0  0  0  0  0  0  0  0  0  0
    0.8528   -2.0958   -3.5319 S   0  0  0  0  0  0  0  0  0  0  0  0
   -1.2482   -0.4585   -3.2229 H   0  0  0  0  0  0  0  0  0  0  0  0
    0.7050   -0.2635   -1.3463 H   0  0  0  0  0  0  0  0  0  0  0  0
    0.9102    0.2026   -4.3617 H   0  0  0  0  0  0  0  0  0  0  0  0
    2.2855   -0.1583   -3.3122 H   0  0  0  0  0  0  0  0  0  0  0  0
    1.0654    2.2518   -0.6732 N   0  0  0  0  0  0  0  0  0  0  0  0
    1.5533    3.5839   -0.2967 C   0  0  2  0  0  0  0  0  0  0  0  0
    1.9767    3.6416    1.1869 C   0  0  0  0  0  0  0  0  0  0  0  0
    1.5893    2.7911    1.9804 O   0  0  0  0  0  0  0  0  0  0  0  0
    0.4419    4.6026   -0.5724 C   0  0  0  0  0  0  0  0  0  0  0  0
    0.5166    1.7508    0.0261 H   0  0  0  0  0  0  0  0  0  0  0  0
    2.4316    3.8347   -0.9000 H   0  0  0  0  0  0  0  0  0  0  0  0
   -0.4506    4.3630    0.0152 H   0  0  0  0  0  0  0  0  0  0  0  0
    0.7714    5.6124   -0.3111 H   0  0  0  0  0  0  0  0  0  0  0  0
    0.1707    4.5924   -1.6328 H   0  0  0  0  0  0  0  0  0  0  0  0
    2.8070    4.6516    1.6386 N   0  0  0  0  0  0  0  0  0  0  0  0
    3.2696    4.7484    3.0182 C   0  0  0  0  0  0  0  0  0  0  0  0
    3.1369    5.3305    0.9590 H   0  0  0  0  0  0  0  0  0  0  0  0
    2.4187    4.8324    3.7026 H   0  0  0  0  0  0  0  0  0  0  0  0
    3.8536    3.8627    3.2900 H   0  0  0  0  0  0  0  0  0  0  0  0
    3.9025    5.6319    3.1450 H   0  0  0  0  0  0  0  0  0  0  0  0
  1  2  2  0  0  0  0
  1  3  1  0  0  0  0
  1  7  1  0  0  0  0
  3  4  1  0  0  0  0
  3  5  1  0  0  0  0
  3  6  1  0  0  0  0
  7  8  1  0  0  0  0
  7 13  1  0  0  0  0
  8  9  1  0  0  0  0
  8 11  1  0  0  0  0
  8 14  1  0  0  0  0
  9 10  2  0  0  0  0
  9 17  1  0  0  0  0
 11 12  1  0  0  0  0
 11 15  1  0  0  0  0
 11 16  1  0  0  0  0
 12 44  1  0  0  0  0
 17 18  1  0  0  0  0
 17 19  1  0  0  0  0
 18 20  1  0  0  0  0
 18 21  1  0  0  0  0
 18 22  1  0  0  0  0
 23 24  2  0  0  0  0
 23 25  1  0  0  0  0
 23 29  1  0  0  0  0
 25 26  1  0  0  0  0
 25 27  1  0  0  0  0
 25 28  1  0  0  0  0
 29 30  1  0  0  0  0
 29 34  1  0  0  0  0
 30 31  1  0  0  0  0
 30 33  1  0  0  0  0
 30 35  1  0  0  0  0
 31 32  2  0  0  0  0
 31 39  1  0  0  0  0
 33 36  1  0  0  0  0
 33 37  1  0  0  0  0
 33 38  1  0  0  0  0
 39 40  1  0  0  0  0
 39 45  1  0  0  0  0
 40 41  1  0  0  0  0
 40 43  1  0  0  0  0
 40 46  1  0  0  0  0
 41 42  2  0  0  0  0
 41 49  1  0  0  0  0
 43 44  1  0  0  0  0
 43 47  1  0  0  0  0
 43 48  1  0  0  0  0
 49 50  1  0  0  0  0
 49 54  1  0  0  0  0
 50 51  1  0  0  0  0
 50 53  1  0  0  0  0
 50 55  1  0  0  0  0
 51 52  2  0  0  0  0
 51 59  1  0  0  0  0
 53 56  1  0  0  0  0
 53 57  1  0  0  0  0
 53 58  1  0  0  0  0
 59 60  1  0  0  0  0
 59 61  1  0  0  0  0
 60 62  1  0  0  0  0
 60 63  1  0  0  0  0
 60 64  1  0  0  0  0
M  END
$$$$

  -OEChem-05262216053D

 64 63  0     1  0  0  0  0  0999 V2000
    1.5631   -5.0413   -8.2577 C   0  0  0  0  0  0  0  0  0  0  0  0
    0.4025   -4.8074   -8.5572 O   0  0  0  0  0  0  0  0  0  0  0  0
    2.0899   -6.4632   -8.2896 C   0  0  0  0  0  0  0  0  0  0  0  0
    2.4868   -6.7353   -7.3083 H   0  0  0  0  0  0  0  0  0  0  0  0
    1.2846   -7.1562   -8.5483 H   0  0  0  0  0  0  0  0  0  0  0  0
    2.8843   -6.5509   -9.0347 H   0  0  0  0  0  0  0  0  0  0  0  0
    2.3917   -4.0072   -7.8818 N   0  0  0  0  0  0  0  0  0  0  0  0
    1.9913   -2.5943   -7.8158 C   0  0  2  0  0  0  0  0  0  0  0  0
    3.2087   -1.6465   -7.8975 C   0  0  0  0  0  0  0  0  0  0  0  0
    4.3443   -2.1049   -7.9673 O   0  0  0  0  0  0  0  0  0  0  0  0
    1.1908   -2.3524   -6.5254 C   0  0  0  0  0  0  0  0  0  0  0  0
    2.2124   -2.6860   -5.0324 S   0  0  0  0  0  0  0  0  0  0  0  0
    3.3716   -4.2202   -7.6979 H   0  0  0  0  0  0  0  0  0  0  0  0
    1.3521   -2.3652   -8.6748 H   0  0  0  0  0  0  0  0  0  0  0  0
    0.8332   -1.3193   -6.4982 H   0  0  0  0  0  0  0  0  0  0  0  0
    0.3116   -3.0051   -6.5111 H   0  0  0  0  0  0  0  0  0  0  0  0
    3.0340   -0.2738   -7.9295 N   0  0  0  0  0  0  0  0  0  0  0  0
    4.1420    0.6737   -7.9717 C   0  0  0  0  0  0  0  0  0  0  0  0
    2.0863    0.0842   -7.8591 H   0  0  0  0  0  0  0  0  0  0  0  0
    4.7680    0.5722   -7.0787 H   0  0  0  0  0  0  0  0  0  0  0  0
    4.7619    0.5015   -8.8581 H   0  0  0  0  0  0  0  0  0  0  0  0
    3.7614    1.6989   -8.0113 H   0  0  0  0  0  0  0  0  0  0  0  0
   -5.6378    1.0280   -1.4699 C   0  0  0  0  0  0  0  0  0  0  0  0
   -6.0680    0.1702   -2.2243 O   0  0  0  0  0  0  0  0  0  0  0  0
   -6.5160    1.5761   -0.3618 C   0  0  0  0  0  0  0  0  0  0  0  0
   -6.6972    2.6414   -0.5225 H   0  0  0  0  0  0  0  0  0  0  0  0
   -7.4753    1.0515   -0.3489 H   0  0  0  0  0  0  0  0  0  0  0  0
   -6.0269    1.4376    0.6052 H   0  0  0  0  0  0  0  0  0  0  0  0
   -4.3480    1.4912   -1.6195 N   0  0  0  0  0  0  0  0  0  0  0  0
   -3.3662    0.9107   -2.5444 C   0  0  2  0  0  0  0  0  0  0  0  0
   -1.9326    0.9921   -1.9811 C   0  0  0  0  0  0  0  0  0  0  0  0
   -1.6862    1.7443   -1.0452 O   0  0  0  0  0  0  0  0  0  0  0  0
   -3.4564    1.6582   -3.8773 C   0  0  0  0  0  0  0  0  0  0  0  0
   -3.9865    2.1167   -0.9000 H   0  0  0  0  0  0  0  0  0  0  0  0
   -3.5938   -0.1487   -2.7068 H   0  0  0  0  0  0  0  0  0  0  0  0
   -3.2221    2.7183   -3.7364 H   0  0  0  0  0  0  0  0  0  0  0  0
   -2.7526    1.2385   -4.6020 H   0  0  0  0  0  0  0  0  0  0  0  0
   -4.4665    1.5755   -4.2912 H   0  0  0  0  0  0  0  0  0  0  0  0
   -0.9474    0.1549   -2.4757 N   0  0  0  0  0  0  0  0  0  0  0  0
    0.5021    0.2688   -2.2234 C   0  0  2  0  0  0  0  0  0  0  0  0
    1.0367    1.7039   -1.9876 C   0  0  0  0  0  0  0  0  0  0  0  0
    1.2661    2.4429   -2.9405 O   0  0  0  0  0  0  0  0  0  0  0  0
    1.2309   -0.3523   -3.4222 C   0  0  0  0  0  0  0  0  0  0  0  0
    0.8782   -2.1517   -3.5232 S   0  0  0  0  0  0  0  0  0  0  0  0
   -1.2347   -0.4860   -3.2106 H   0  0  0  0  0  0  0  0  0  0  0  0
    0.7454   -0.3134   -1.3293 H   0  0  0  0  0  0  0  0  0  0  0  0
    0.9286    0.1453   -4.3492 H   0  0  0  0  0  0  0  0  0  0  0  0
    2.3109   -0.2108   -3.3071 H   0  0  0  0  0  0  0  0  0  0  0  0
    1.3747    2.1220   -0.7151 N   0  0  0  0  0  0  0  0  0  0  0  0
    1.8821    3.4557   -0.3735 C   0  0  2  0  0  0  0  0  0  0  0  0
    2.6503    3.4465    0.9654 C   0  0  0  0  0  0  0  0  0  0  0  0
    2.5431    2.4997    1.7373 O   0  0  0  0  0  0  0  0  0  0  0  0
    0.6929    4.4206   -0.3010 C   0  0  0  0  0  0  0  0  0  0  0  0
    1.1048    1.5203    0.0622 H   0  0  0  0  0  0  0  0  0  0  0  0
    2.5766    3.7921   -1.1504 H   0  0  0  0  0  0  0  0  0  0  0  0
   -0.0177    4.0933    0.4651 H   0  0  0  0  0  0  0  0  0  0  0  0
    1.0309    5.4316   -0.0558 H   0  0  0  0  0  0  0  0  0  0  0  0
    0.1707    4.4561   -1.2626 H   0  0  0  0  0  0  0  0  0  0  0  0
    3.4764    4.5022    1.3059 N   0  0  0  0  0  0  0  0  0  0  0  0
    4.2493    4.5454    2.5415 C   0  0  0  0  0  0  0  0  0  0  0  0
    3.5639    5.2662    0.6424 H   0  0  0  0  0  0  0  0  0  0  0  0
    3.5887    4.4600    3.4109 H   0  0  0  0  0  0  0  0  0  0  0  0
    4.9741    3.7248    2.5678 H   0  0  0  0  0  0  0  0  0  0  0  0
    4.7944    5.4913    2.6148 H   0  0  0  0  0  0  0  0  0  0  0  0
  1  2  2  0  0  0  0
  1  3  1  0  0  0  0
  1  7  1  0  0  0  0
  3  4  1  0  0  0  0
  3  5  1  0  0  0  0
  3  6  1  0  0  0  0
  7  8  1  0  0  0  0
  7 13  1  0  0  0  0
  8  9  1  0  0  0  0
  8 11  1  0  0  0  0
  8 14  1  0  0  0  0
  9 10  2  0  0  0  0
  9 17  1  0  0  0  0
 11 12  1  0  0  0  0
 11 15  1  0  0  0  0
 11 16  1  0  0  0  0
 12 44  1  0  0  0  0
 17 18  1  0  0  0  0
 17 19  1  0  0  0  0
 18 20  1  0  0  0  0
 18 21  1  0  0  0  0
 18 22  1  0  0  0  0
 23 24  2  0  0  0  0
 23 25  1  0  0  0  0
 23 29  1  0  0  0  0
 25 26  1  0  0  0  0
 25 27  1  0  0  0  0
 25 28  1  0  0  0  0
 29 30  1  0  0  0  0
 29 34  1  0  0  0  0
 30 31  1  0  0  0  0
 30 33  1  0  0  0  0
 30 35  1  0  0  0  0
 31 32  2  0  0  0  0
 31 39  1  0  0  0  0
 33 36  1  0  0  0  0
 33 37  1  0  0  0  0
 33 38  1  0  0  0  0
 39 40  1  0  0  0  0
 39 45  1  0  0  0  0
 40 41  1  0  0  0  0
 40 43  1  0  0  0  0
 40 46  1  0  0  0  0
 41 42  2  0  0  0  0
 41 49  1  0  0  0  0
 43 44  1  0  0  0  0
 43 47  1  0  0  0  0
 43 48  1  0  0  0  0
 49 50  1  0  0  0  0
 49 54  1  0  0  0  0
 50 51  1  0  0  0  0
 50 53  1  0  0  0  0
 50 55  1  0  0  0  0
 51 52  2  0  0  0  0
 51 59  1  0  0  0  0
 53 56  1  0  0  0  0
 53 57  1  0  0  0  0
 53 58  1  0  0  0  0
 59 60  1  0  0  0  0
 59 61  1  0  0  0  0
 60 62  1  0  0  0  0
 60 63  1  0  0  0  0
 60 64  1  0  0  0  0
M  END
$$$$

  -OEChem-05262216053D

 64 63  0     1  0  0  0  0  0999 V2000
    1.5751   -5.0502   -8.2363 C   0  0  0  0  0  0  0  0  0  0  0  0
    0.4123   -4.8236   -8.5328 O   0  0  0  0  0  0  0  0  0  0  0  0
    2.1113   -6.4687   -8.2706 C   0  0  0  0  0  0  0  0  0  0  0  0
    2.5456   -6.7275   -7.3018 H   0  0  0  0  0  0  0  0  0  0  0  0
    1.3032   -7.1710   -8.4925 H   0  0  0  0  0  0  0  0  0  0  0  0
    2.8790   -6.5590   -9.0424 H   0  0  0  0  0  0  0  0  0  0  0  0
    2.3981   -4.0107   -7.8628 N   0  0  0  0  0  0  0  0  0  0  0  0
    1.9877   -2.6015   -7.7926 C   0  0  2  0  0  0  0  0  0  0  0  0
    3.1949   -1.6424   -7.8884 C   0  0  0  0  0  0  0  0  0  0  0  0
    4.3346   -2.0891   -7.9653 O   0  0  0  0  0  0  0  0  0  0  0  0
    1.2018   -2.3691   -6.4920 C   0  0  0  0  0  0  0  0  0  0  0  0
    2.2391   -2.7075   -5.0111 S   0  0  0  0  0  0  0  0  0  0  0  0
    3.3785   -4.2176   -7.6758 H   0  0  0  0  0  0  0  0  0  0  0  0
    1.3361   -2.3786   -8.6441 H   0  0  0  0  0  0  0  0  0  0  0  0
    0.8418   -1.3373   -6.4545 H   0  0  0  0  0  0  0  0  0  0  0  0
    0.3250   -3.0247   -6.4722 H   0  0  0  0  0  0  0  0  0  0  0  0
    3.0057   -0.2717   -7.9247 N   0  0  0  0  0  0  0  0  0  0  0  0
    4.1026    0.6851   -8.0062 C   0  0  0  0  0  0  0  0  0  0  0  0
    2.0547    0.0782   -7.8600 H   0  0  0  0  0  0  0  0  0  0  0  0
    4.7646    0.5844   -7.1397 H   0  0  0  0  0  0  0  0  0  0  0  0
    4.6870    0.5228   -8.9180 H   0  0  0  0  0  0  0  0  0  0  0  0
    3.7113    1.7067   -8.0250 H   0  0  0  0  0  0  0  0  0  0  0  0
   -5.6227    1.0680   -1.4818 C   0  0  0  0  0  0  0  0  0  0  0  0
   -6.0649    0.2422   -2.2646 O   0  0  0  0  0  0  0  0  0  0  0  0
   -6.4966    1.5991   -0.3613 C   0  0  0  0  0  0  0  0  0  0  0  0
   -6.6725    2.6686   -0.5009 H   0  0  0  0  0  0  0  0  0  0  0  0
   -7.4590    1.0794   -0.3573 H   0  0  0  0  0  0  0  0  0  0  0  0
   -6.0063    1.4398    0.6023 H   0  0  0  0  0  0  0  0  0  0  0  0
   -4.3223    1.5077   -1.6069 N   0  0  0  0  0  0  0  0  0  0  0  0
   -3.3429    0.9369   -2.5402 C   0  0  2  0  0  0  0  0  0  0  0  0
   -1.9175    0.9572   -1.9503 C   0  0  0  0  0  0  0  0  0  0  0  0
   -1.6651    1.6720   -0.9862 O   0  0  0  0  0  0  0  0  0  0  0  0
   -3.3935    1.7393   -3.8433 C   0  0  0  0  0  0  0  0  0  0  0  0
   -3.9537    2.0987   -0.8624 H   0  0  0  0  0  0  0  0  0  0  0  0
   -3.5968   -0.1079   -2.7495 H   0  0  0  0  0  0  0  0  0  0  0  0
   -3.1351    2.7872   -3.6584 H   0  0  0  0  0  0  0  0  0  0  0  0
   -2.6897    1.3307   -4.5745 H   0  0  0  0  0  0  0  0  0  0  0  0
   -4.3994    1.6992   -4.2735 H   0  0  0  0  0  0  0  0  0  0  0  0
   -0.9464    0.1024   -2.4434 N   0  0  0  0  0  0  0  0  0  0  0  0
    0.5037    0.2304   -2.2012 C   0  0  2  0  0  0  0  0  0  0  0  0
    1.0214    1.6756   -2.0003 C   0  0  0  0  0  0  0  0  0  0  0  0
    1.0002    2.4681   -2.9377 O   0  0  0  0  0  0  0  0  0  0  0  0
    1.2403   -0.3896   -3.3937 C   0  0  0  0  0  0  0  0  0  0  0  0
    0.9132   -2.1942   -3.4865 S   0  0  0  0  0  0  0  0  0  0  0  0
   -1.2319   -0.5035   -3.2078 H   0  0  0  0  0  0  0  0  0  0  0  0
    0.7553   -0.3353   -1.2986 H   0  0  0  0  0  0  0  0  0  0  0  0
    0.9320    0.0982   -4.3238 H   0  0  0  0  0  0  0  0  0  0  0  0
    2.3182   -0.2335   -3.2783 H   0  0  0  0  0  0  0  0  0  0  0  0
    1.6465    2.0395   -0.8232 N   0  0  0  0  0  0  0  0  0  0  0  0
    2.2072    3.3655   -0.5417 C   0  0  2  0  0  0  0  0  0  0  0  0
    3.2754    3.3041    0.5712 C   0  0  0  0  0  0  0  0  0  0  0  0
    3.4014    2.2928    1.2533 O   0  0  0  0  0  0  0  0  0  0  0  0
    1.0597    4.2976   -0.1379 C   0  0  0  0  0  0  0  0  0  0  0  0
    1.6667    1.3608   -0.0631 H   0  0  0  0  0  0  0  0  0  0  0  0
    2.6917    3.7561   -1.4424 H   0  0  0  0  0  0  0  0  0  0  0  0
    0.5644    3.9246    0.7645 H   0  0  0  0  0  0  0  0  0  0  0  0
    1.4330    5.3067    0.0592 H   0  0  0  0  0  0  0  0  0  0  0  0
    0.3175    4.3558   -0.9406 H   0  0  0  0  0  0  0  0  0  0  0  0
    4.1144    4.3797    0.7991 N   0  0  0  0  0  0  0  0  0  0  0  0
    5.1709    4.3720    1.8045 C   0  0  0  0  0  0  0  0  0  0  0  0
    4.0063    5.1955    0.2038 H   0  0  0  0  0  0  0  0  0  0  0  0
    4.7613    4.1334    2.7920 H   0  0  0  0  0  0  0  0  0  0  0  0
    5.9345    3.6290    1.5512 H   0  0  0  0  0  0  0  0  0  0  0  0
    5.6481    5.3552    1.8597 H   0  0  0  0  0  0  0  0  0  0  0  0
  1  2  2  0  0  0  0
  1  3  1  0  0  0  0
  1  7  1  0  0  0  0
  3  4  1  0  0  0  0
  3  5  1  0  0  0  0
  3  6  1  0  0  0  0
  7  8  1  0  0  0  0
  7 13  1  0  0  0  0
  8  9  1  0  0  0  0
  8 11  1  0  0  0  0
  8 14  1  0  0  0  0
  9 10  2  0  0  0  0
  9 17  1  0  0  0  0
 11 12  1  0  0  0  0
 11 15  1  0  0  0  0
 11 16  1  0  0  0  0
 12 44  1  0  0  0  0
 17 18  1  0  0  0  0
 17 19  1  0  0  0  0
 18 20  1  0  0  0  0
 18 21  1  0  0  0  0
 18 22  1  0  0  0  0
 23 24  2  0  0  0  0
 23 25  1  0  0  0  0
 23 29  1  0  0  0  0
 25 26  1  0  0  0  0
 25 27  1  0  0  0  0
 25 28  1  0  0  0  0
 29 30  1  0  0  0  0
 29 34  1  0  0  0  0
 30 31  1  0  0  0  0
 30 33  1  0  0  0  0
 30 35  1  0  0  0  0
 31 32  2  0  0  0  0
 31 39  1  0  0  0  0
 33 36  1  0  0  0  0
 33 37  1  0  0  0  0
 33 38  1  0  0  0  0
 39 40  1  0  0  0  0
 39 45  1  0  0  0  0
 40 41  1  0  0  0  0
 40 43  1  0  0  0  0
 40 46  1  0  0  0  0
 41 42  2  0  0  0  0
 41 49  1  0  0  0  0
 43 44  1  0  0  0  0
 43 47  1  0  0  0  0
 43 48  1  0  0  0  0
 49 50  1  0  0  0  0
 49 54  1  0  0  0  0
 50 51  1  0  0  0  0
 50 53  1  0  0  0  0
 50 55  1  0  0  0  0
 51 52  2  0  0  0  0
 51 59  1  0  0  0  0
 53 56  1  0  0  0  0
 53 57  1  0  0  0  0
 53 58  1  0  0  0  0
 59 60  1  0  0  0  0
 59 61  1  0  0  0  0
 60 62  1  0  0  0  0
 60 63  1  0  0  0  0
 60 64  1  0  0  0  0
M  END
$$$$

  -OEChem-05262216053D

 64 63  0     1  0  0  0  0  0999 V2000
    1.5949   -5.0614   -8.1916 C   0  0  0  0  0  0  0  0  0  0  0  0
    0.4298   -4.8462   -8.4878 O   0  0  0  0  0  0  0  0  0  0  0  0
    2.1469   -6.4738   -8.2310 C   0  0  0  0  0  0  0  0  0  0  0  0
    2.5496   -6.7437   -7.2517 H   0  0  0  0  0  0  0  0  0  0  0  0
    1.3550   -7.1808   -8.4932 H   0  0  0  0  0  0  0  0  0  0  0  0
    2.9420   -6.5443   -8.9770 H   0  0  0  0  0  0  0  0  0  0  0  0
    2.4079   -4.0127   -7.8222 N   0  0  0  0  0  0  0  0  0  0  0  0
    1.9857   -2.6059   -7.7694 C   0  0  2  0  0  0  0  0  0  0  0  0
    3.1841   -1.6387   -7.8906 C   0  0  0  0  0  0  0  0  0  0  0  0
    4.3285   -2.0766   -7.9467 O   0  0  0  0  0  0  0  0  0  0  0  0
    1.2096   -2.3581   -6.4659 C   0  0  0  0  0  0  0  0  0  0  0  0
    2.2622   -2.6736   -4.9908 S   0  0  0  0  0  0  0  0  0  0  0  0
    3.3909   -4.2094   -7.6377 H   0  0  0  0  0  0  0  0  0  0  0  0
    1.3258   -2.4017   -8.6193 H   0  0  0  0  0  0  0  0  0  0  0  0
    0.8466   -1.3270   -6.4392 H   0  0  0  0  0  0  0  0  0  0  0  0
    0.3355   -3.0163   -6.4310 H   0  0  0  0  0  0  0  0  0  0  0  0
    2.9822   -0.2719   -7.9736 N   0  0  0  0  0  0  0  0  0  0  0  0
    4.0708    0.6916   -8.0840 C   0  0  0  0  0  0  0  0  0  0  0  0
    2.0267    0.0701   -7.9374 H   0  0  0  0  0  0  0  0  0  0  0  0
    4.7332    0.6235   -7.2145 H   0  0  0  0  0  0  0  0  0  0  0  0
    4.6575    0.5054   -8.9897 H   0  0  0  0  0  0  0  0  0  0  0  0
    3.6706    1.7086   -8.1347 H   0  0  0  0  0  0  0  0  0  0  0  0
   -5.6195    1.0618   -1.5042 C   0  0  0  0  0  0  0  0  0  0  0  0
   -6.0552    0.2442   -2.2990 O   0  0  0  0  0  0  0  0  0  0  0  0
   -6.4910    1.5576   -0.3665 C   0  0  0  0  0  0  0  0  0  0  0  0
   -6.7180    2.6171   -0.5063 H   0  0  0  0  0  0  0  0  0  0  0  0
   -7.4279    0.9947   -0.3378 H   0  0  0  0  0  0  0  0  0  0  0  0
   -5.9726    1.4250    0.5862 H   0  0  0  0  0  0  0  0  0  0  0  0
   -4.3267    1.5231   -1.6275 N   0  0  0  0  0  0  0  0  0  0  0  0
   -3.3342    0.9566   -2.5492 C   0  0  2  0  0  0  0  0  0  0  0  0
   -1.9289    0.9284   -1.9146 C   0  0  0  0  0  0  0  0  0  0  0  0
   -1.6953    1.5968   -0.9124 O   0  0  0  0  0  0  0  0  0  0  0  0
   -3.3248    1.7998   -3.8268 C   0  0  0  0  0  0  0  0  0  0  0  0
   -3.9630    2.0977   -0.8678 H   0  0  0  0  0  0  0  0  0  0  0  0
   -3.6023   -0.0756   -2.7995 H   0  0  0  0  0  0  0  0  0  0  0  0
   -3.0412    2.8329   -3.6006 H   0  0  0  0  0  0  0  0  0  0  0  0
   -2.6121    1.3937   -4.5507 H   0  0  0  0  0  0  0  0  0  0  0  0
   -4.3182    1.8029   -4.2864 H   0  0  0  0  0  0  0  0  0  0  0  0
   -0.9561    0.0763   -2.4080 N   0  0  0  0  0  0  0  0  0  0  0  0
    0.4909    0.2308   -2.1653 C   0  0  2  0  0  0  0  0  0  0  0  0
    0.9823    1.6864   -1.9763 C   0  0  0  0  0  0  0  0  0  0  0  0
    0.7576    2.5210   -2.8483 O   0  0  0  0  0  0  0  0  0  0  0  0
    1.2360   -0.3714   -3.3613 C   0  0  0  0  0  0  0  0  0  0  0  0
    0.9388   -2.1808   -3.4576 S   0  0  0  0  0  0  0  0  0  0  0  0
   -1.2275   -0.4868   -3.2089 H   0  0  0  0  0  0  0  0  0  0  0  0
    0.7519   -0.3262   -1.2606 H   0  0  0  0  0  0  0  0  0  0  0  0
    0.9166    0.1145   -4.2889 H   0  0  0  0  0  0  0  0  0  0  0  0
    2.3117   -0.1981   -3.2482 H   0  0  0  0  0  0  0  0  0  0  0  0
    1.8588    2.0042   -0.9563 N   0  0  0  0  0  0  0  0  0  0  0  0
    2.4806    3.3190   -0.7599 C   0  0  2  0  0  0  0  0  0  0  0  0
    3.7910    3.2116    0.0474 C   0  0  0  0  0  0  0  0  0  0  0  0
    4.0718    2.1722    0.6346 O   0  0  0  0  0  0  0  0  0  0  0  0
    1.4796    4.2268   -0.0370 C   0  0  0  0  0  0  0  0  0  0  0  0
    2.0944    1.2775   -0.2812 H   0  0  0  0  0  0  0  0  0  0  0  0
    2.7285    3.7555   -1.7330 H   0  0  0  0  0  0  0  0  0  0  0  0
    1.2332    3.8156    0.9472 H   0  0  0  0  0  0  0  0  0  0  0  0
    1.8968    5.2292    0.0974 H   0  0  0  0  0  0  0  0  0  0  0  0
    0.5550    4.3142   -0.6169 H   0  0  0  0  0  0  0  0  0  0  0  0
    4.6684    4.2788    0.1026 N   0  0  0  0  0  0  0  0  0  0  0  0
    5.9414    4.2313    0.8115 C   0  0  0  0  0  0  0  0  0  0  0  0
    4.4203    5.1201   -0.4097 H   0  0  0  0  0  0  0  0  0  0  0  0
    5.7869    3.9653    1.8626 H   0  0  0  0  0  0  0  0  0  0  0  0
    6.6050    3.4898    0.3545 H   0  0  0  0  0  0  0  0  0  0  0  0
    6.4336    5.2078    0.7724 H   0  0  0  0  0  0  0  0  0  0  0  0
  1  2  2  0  0  0  0
  1  3  1  0  0  0  0
  1  7  1  0  0  0  0
  3  4  1  0  0  0  0
  3  5  1  0  0  0  0
  3  6  1  0  0  0  0
  7  8  1  0  0  0  0
  7 13  1  0  0  0  0
  8  9  1  0  0  0  0
  8 11  1  0  0  0  0
  8 14  1  0  0  0  0
  9 10  2  0  0  0  0
  9 17  1  0  0  0  0
 11 12  1  0  0  0  0
 11 15  1  0  0  0  0
 11 16  1  0  0  0  0
 12 44  1  0  0  0  0
 17 18  1  0  0  0  0
 17 19  1  0  0  0  0
 18 20  1  0  0  0  0
 18 21  1  0  0  0  0
 18 22  1  0  0  0  0
 23 24  2  0  0  0  0
 23 25  1  0  0  0  0
 23 29  1  0  0  0  0
 25 26  1  0  0  0  0
 25 27  1  0  0  0  0
 25 28  1  0  0  0  0
 29 30  1  0  0  0  0
 29 34  1  0  0  0  0
 30 31  1  0  0  0  0
 30 33  1  0  0  0  0
 30 35  1  0  0  0  0
 31 32  2  0  0  0  0
 31 39  1  0  0  0  0
 33 36  1  0  0  0  0
 33 37  1  0  0  0  0
 33 38  1  0  0  0  0
 39 40  1  0  0  0  0
 39 45  1  0  0  0  0
 40 41  1  0  0  0  0
 40 43  1  0  0  0  0
 40 46  1  0  0  0  0
 41 42  2  0  0  0  0
 41 49  1  0  0  0  0
 43 44  1  0  0  0  0
 43 47  1  0  0  0  0
 43 48  1  0  0  0  0
 49 50  1  0  0  0  0
 49 54  1  0  0  0  0
 50 51  1  0  0  0  0
 50 53  1  0  0  0  0
 50 55  1  0  0  0  0
 51 52  2  0  0  0  0
 51 59  1  0  0  0  0
 53 56  1  0  0  0  0
 53 57  1  0  0  0  0
 53 58  1  0  0  0  0
 59 60  1  0  0  0  0
 59 61  1  0  0  0  0
 60 62  1  0  0  0  0
 60 63  1  0  0  0  0
 60 64  1  0  0  0  0
M  END
$$$$

  -OEChem-05262216053D

 64 63  0     1  0  0  0  0  0999 V2000
    1.5982   -5.0429   -8.1432 C   0  0  0  0  0  0  0  0  0  0  0  0
    0.4254   -4.8338   -8.4117 O   0  0  0  0  0  0  0  0  0  0  0  0
    2.1547   -6.4532   -8.1893 C   0  0  0  0  0  0  0  0  0  0  0  0
    2.5860   -6.7159   -7.2203 H   0  0  0  0  0  0  0  0  0  0  0  0
    1.3583   -7.1652   -8.4226 H   0  0  0  0  0  0  0  0  0  0  0  0
    2.9290   -6.5239   -8.9571 H   0  0  0  0  0  0  0  0  0  0  0  0
    2.4167   -3.9894   -7.7999 N   0  0  0  0  0  0  0  0  0  0  0  0
    1.9915   -2.5834   -7.7447 C   0  0  2  0  0  0  0  0  0  0  0  0
    3.1842   -1.6132   -7.8950 C   0  0  0  0  0  0  0  0  0  0  0  0
    4.3286   -2.0476   -7.9740 O   0  0  0  0  0  0  0  0  0  0  0  0
    1.2377   -2.3334   -6.4284 C   0  0  0  0  0  0  0  0  0  0  0  0
    2.3200   -2.6260   -4.9702 S   0  0  0  0  0  0  0  0  0  0  0  0
    3.4050   -4.1822   -7.6401 H   0  0  0  0  0  0  0  0  0  0  0  0
    1.3142   -2.3838   -8.5816 H   0  0  0  0  0  0  0  0  0  0  0  0
    0.8648   -1.3059   -6.4029 H   0  0  0  0  0  0  0  0  0  0  0  0
    0.3708   -3.0000   -6.3719 H   0  0  0  0  0  0  0  0  0  0  0  0
    2.9770   -0.2475   -7.9843 N   0  0  0  0  0  0  0  0  0  0  0  0
    4.0615    0.7159   -8.1336 C   0  0  0  0  0  0  0  0  0  0  0  0
    2.0209    0.0921   -7.9385 H   0  0  0  0  0  0  0  0  0  0  0  0
    4.7470    0.6561   -7.2816 H   0  0  0  0  0  0  0  0  0  0  0  0
    4.6243    0.5213   -9.0527 H   0  0  0  0  0  0  0  0  0  0  0  0
    3.6607    1.7328   -8.1837 H   0  0  0  0  0  0  0  0  0  0  0  0
   -5.6401    1.0579   -1.5418 C   0  0  0  0  0  0  0  0  0  0  0  0
   -6.0710    0.2893   -2.3869 O   0  0  0  0  0  0  0  0  0  0  0  0
   -6.5374    1.5308   -0.4137 C   0  0  0  0  0  0  0  0  0  0  0  0
   -6.7285    2.6017   -0.5142 H   0  0  0  0  0  0  0  0  0  0  0  0
   -7.4913    0.9970   -0.4426 H   0  0  0  0  0  0  0  0  0  0  0  0
   -6.0576    1.3414    0.5497 H   0  0  0  0  0  0  0  0  0  0  0  0
   -4.3298    1.4823   -1.5987 N   0  0  0  0  0  0  0  0  0  0  0  0
   -3.3225    0.9326   -2.5153 C   0  0  2  0  0  0  0  0  0  0  0  0
   -1.9310    0.8690   -1.8526 C   0  0  0  0  0  0  0  0  0  0  0  0
   -1.7168    1.4817   -0.8108 O   0  0  0  0  0  0  0  0  0  0  0  0
   -3.2766    1.8123   -3.7672 C   0  0  0  0  0  0  0  0  0  0  0  0
   -3.9776    2.0154   -0.8040 H   0  0  0  0  0  0  0  0  0  0  0  0
   -3.5972   -0.0884   -2.8012 H   0  0  0  0  0  0  0  0  0  0  0  0
   -2.9861    2.8351   -3.5055 H   0  0  0  0  0  0  0  0  0  0  0  0
   -2.5525    1.4193   -4.4872 H   0  0  0  0  0  0  0  0  0  0  0  0
   -4.2607    1.8411   -4.2460 H   0  0  0  0  0  0  0  0  0  0  0  0
   -0.9485    0.0335   -2.3560 N   0  0  0  0  0  0  0  0  0  0  0  0
    0.4961    0.2324   -2.1263 C   0  0  2  0  0  0  0  0  0  0  0  0
    0.9545    1.7012   -1.9507 C   0  0  0  0  0  0  0  0  0  0  0  0
    0.5456    2.5629   -2.7242 O   0  0  0  0  0  0  0  0  0  0  0  0
    1.2495   -0.3529   -3.3253 C   0  0  0  0  0  0  0  0  0  0  0  0
    1.0086   -2.1711   -3.4145 S   0  0  0  0  0  0  0  0  0  0  0  0
   -1.2056   -0.4865   -3.1898 H   0  0  0  0  0  0  0  0  0  0  0  0
    0.7787   -0.3094   -1.2186 H   0  0  0  0  0  0  0  0  0  0  0  0
    0.9089    0.1201   -4.2517 H   0  0  0  0  0  0  0  0  0  0  0  0
    2.3206   -0.1485   -3.2211 H   0  0  0  0  0  0  0  0  0  0  0  0
    2.0478    1.9956   -1.1576 N   0  0  0  0  0  0  0  0  0  0  0  0
    2.7087    3.3044   -1.0834 C   0  0  2  0  0  0  0  0  0  0  0  0
    4.1755    3.1683   -0.6234 C   0  0  0  0  0  0  0  0  0  0  0  0
    4.5864    2.0988   -0.1861 O   0  0  0  0  0  0  0  0  0  0  0  0
    1.9180    4.1936   -0.1170 C   0  0  0  0  0  0  0  0  0  0  0  0
    2.4721    1.2371   -0.6238 H   0  0  0  0  0  0  0  0  0  0  0  0
    2.7185    3.7673   -2.0758 H   0  0  0  0  0  0  0  0  0  0  0  0
    1.9084    3.7545    0.8858 H   0  0  0  0  0  0  0  0  0  0  0  0
    2.3643    5.1905   -0.0577 H   0  0  0  0  0  0  0  0  0  0  0  0
    0.8831    4.3008   -0.4582 H   0  0  0  0  0  0  0  0  0  0  0  0
    5.0463    4.2380   -0.7226 N   0  0  0  0  0  0  0  0  0  0  0  0
    6.4527    4.1612   -0.3447 C   0  0  0  0  0  0  0  0  0  0  0  0
    4.6867    5.1057   -1.1097 H   0  0  0  0  0  0  0  0  0  0  0  0
    6.5546    3.8298    0.6944 H   0  0  0  0  0  0  0  0  0  0  0  0
    6.9845    3.4561   -0.9923 H   0  0  0  0  0  0  0  0  0  0  0  0
    6.9252    5.1437   -0.4401 H   0  0  0  0  0  0  0  0  0  0  0  0
  1  2  2  0  0  0  0
  1  3  1  0  0  0  0
  1  7  1  0  0  0  0
  3  4  1  0  0  0  0
  3  5  1  0  0  0  0
  3  6  1  0  0  0  0
  7  8  1  0  0  0  0
  7 13  1  0  0  0  0
  8  9  1  0  0  0  0
  8 11  1  0  0  0  0
  8 14  1  0  0  0  0
  9 10  2  0  0  0  0
  9 17  1  0  0  0  0
 11 12  1  0  0  0  0
 11 15  1  0  0  0  0
 11 16  1  0  0  0  0
 12 44  1  0  0  0  0
 17 18  1  0  0  0  0
 17 19  1  0  0  0  0
 18 20  1  0  0  0  0
 18 21  1  0  0  0  0
 18 22  1  0  0  0  0
 23 24  2  0  0  0  0
 23 25  1  0  0  0  0
 23 29  1  0  0  0  0
 25 26  1  0  0  0  0
 25 27  1  0  0  0  0
 25 28  1  0  0  0  0
 29 30  1  0  0  0  0
 29 34  1  0  0  0  0
 30 31  1  0  0  0  0
 30 33  1  0  0  0  0
 30 35  1  0  0  0  0
 31 32  2  0  0  0  0
 31 39  1  0  0  0  0
 33 36  1  0  0  0  0
 33 37  1  0  0  0  0
 33 38  1  0  0  0  0
 39 40  1  0  0  0  0
 39 45  1  0  0  0  0
 40 41  1  0  0  0  0
 40 43  1  0  0  0  0
 40 46  1  0  0  0  0
 41 42  2  0  0  0  0
 41 49  1  0  0  0  0
 43 44  1  0  0  0  0
 43 47  1  0  0  0  0
 43 48  1  0  0  0  0
 49 50  1  0  0  0  0
 49 54  1  0  0  0  0
 50 51  1  0  0  0  0
 50 53  1  0  0  0  0
 50 55  1  0  0  0  0
 51 52  2  0  0  0  0
 51 59  1  0  0  0  0
 53 56  1  0  0  0  0
 53 57  1  0  0  0  0
 53 58  1  0  0  0  0
 59 60  1  0  0  0  0
 59 61  1  0  0  0  0
 60 62  1  0  0  0  0
 60 63  1  0  0  0  0
 60 64  1  0  0  0  0
M  END
$$$$

  -OEChem-05262216053D

 64 63  0     1  0  0  0  0  0999 V2000
    1.6007   -5.0182   -8.1130 C   0  0  0  0  0  0  0  0  0  0  0  0
    0.4284   -4.8088   -8.3839 O   0  0  0  0  0  0  0  0  0  0  0  0
    2.1565   -6.4288   -8.1544 C   0  0  0  0  0  0  0  0  0  0  0  0
    2.5931   -6.6860   -7.1863 H   0  0  0  0  0  0  0  0  0  0  0  0
    1.3595   -7.1424   -8.3817 H   0  0  0  0  0  0  0  0  0  0  0  0
    2.9271   -6.5027   -8.9252 H   0  0  0  0  0  0  0  0  0  0  0  0
    2.4211   -3.9650   -7.7745 N   0  0  0  0  0  0  0  0  0  0  0  0
    2.0007   -2.5572   -7.7329 C   0  0  2  0  0  0  0  0  0  0  0  0
    3.1938   -1.5921   -7.9094 C   0  0  0  0  0  0  0  0  0  0  0  0
    4.3361   -2.0306   -7.9942 O   0  0  0  0  0  0  0  0  0  0  0  0
    1.2640   -2.2908   -6.4103 C   0  0  0  0  0  0  0  0  0  0  0  0
    2.3693   -2.5514   -4.9626 S   0  0  0  0  0  0  0  0  0  0  0  0
    3.4088   -4.1599   -7.6146 H   0  0  0  0  0  0  0  0  0  0  0  0
    1.3141   -2.3664   -8.5644 H   0  0  0  0  0  0  0  0  0  0  0  0
    0.8827   -1.2661   -6.3967 H   0  0  0  0  0  0  0  0  0  0  0  0
    0.4036   -2.9634   -6.3308 H   0  0  0  0  0  0  0  0  0  0  0  0
    2.9899   -0.2269   -8.0156 N   0  0  0  0  0  0  0  0  0  0  0  0
    4.0760    0.7307   -8.1887 C   0  0  0  0  0  0  0  0  0  0  0  0
    2.0353    0.1164   -7.9697 H   0  0  0  0  0  0  0  0  0  0  0  0
    4.7792    0.6684   -7.3515 H   0  0  0  0  0  0  0  0  0  0  0  0
    4.6180    0.5312   -9.1192 H   0  0  0  0  0  0  0  0  0  0  0  0
    3.6805    1.7501   -8.2308 H   0  0  0  0  0  0  0  0  0  0  0  0
   -5.6532    1.0373   -1.5730 C   0  0  0  0  0  0  0  0  0  0  0  0
   -6.0695    0.3038   -2.4557 O   0  0  0  0  0  0  0  0  0  0  0  0
   -6.5815    1.4955   -0.4642 C   0  0  0  0  0  0  0  0  0  0  0  0
   -6.7321    2.5759   -0.5281 H   0  0  0  0  0  0  0  0  0  0  0  0
   -7.5506    0.9966   -0.5548 H   0  0  0  0  0  0  0  0  0  0  0  0
   -6.1498    1.2506    0.5094 H   0  0  0  0  0  0  0  0  0  0  0  0
   -4.3347    1.4393   -1.5747 N   0  0  0  0  0  0  0  0  0  0  0  0
   -3.3096    0.9056   -2.4807 C   0  0  2  0  0  0  0  0  0  0  0  0
   -1.9343    0.8135   -1.7886 C   0  0  0  0  0  0  0  0  0  0  0  0
   -1.7468    1.3716   -0.7116 O   0  0  0  0  0  0  0  0  0  0  0  0
   -3.2243    1.8182   -3.7069 C   0  0  0  0  0  0  0  0  0  0  0  0
   -3.9975    1.9424   -0.7542 H   0  0  0  0  0  0  0  0  0  0  0  0
   -3.5851   -0.1050   -2.8000 H   0  0  0  0  0  0  0  0  0  0  0  0
   -2.9316    2.8306   -3.4101 H   0  0  0  0  0  0  0  0  0  0  0  0
   -2.4854    1.4386   -4.4186 H   0  0  0  0  0  0  0  0  0  0  0  0
   -4.1948    1.8687   -4.2105 H   0  0  0  0  0  0  0  0  0  0  0  0
   -0.9340    0.0071   -2.3047 N   0  0  0  0  0  0  0  0  0  0  0  0
    0.5053    0.2511   -2.0786 C   0  0  2  0  0  0  0  0  0  0  0  0
    0.9342    1.7305   -1.8952 C   0  0  0  0  0  0  0  0  0  0  0  0
    0.3711    2.6188   -2.5288 O   0  0  0  0  0  0  0  0  0  0  0  0
    1.2597   -0.3092   -3.2914 C   0  0  0  0  0  0  0  0  0  0  0  0
    1.0680   -2.1328   -3.3873 S   0  0  0  0  0  0  0  0  0  0  0  0
   -1.1764   -0.4844   -3.1598 H   0  0  0  0  0  0  0  0  0  0  0  0
    0.8091   -0.2879   -1.1755 H   0  0  0  0  0  0  0  0  0  0  0  0
    0.8936    0.1581   -4.2109 H   0  0  0  0  0  0  0  0  0  0  0  0
    2.3266   -0.0784   -3.2047 H   0  0  0  0  0  0  0  0  0  0  0  0
    2.1822    2.0163   -1.3721 N   0  0  0  0  0  0  0  0  0  0  0  0
    2.8464    3.3251   -1.4285 C   0  0  2  0  0  0  0  0  0  0  0  0
    4.3815    3.1734   -1.3801 C   0  0  0  0  0  0  0  0  0  0  0  0
    4.8827    2.0783   -1.1485 O   0  0  0  0  0  0  0  0  0  0  0  0
    2.3422    4.1756   -0.2574 C   0  0  0  0  0  0  0  0  0  0  0  0
    2.7371    1.2399   -1.0121 H   0  0  0  0  0  0  0  0  0  0  0  0
    2.5991    3.8262   -2.3702 H   0  0  0  0  0  0  0  0  0  0  0  0
    2.5941    3.7019    0.6967 H   0  0  0  0  0  0  0  0  0  0  0  0
    2.7923    5.1723   -0.2816 H   0  0  0  0  0  0  0  0  0  0  0  0
    1.2547    4.2895   -0.3114 H   0  0  0  0  0  0  0  0  0  0  0  0
    5.2055    4.2561   -1.6266 N   0  0  0  0  0  0  0  0  0  0  0  0
    6.6612    4.1687   -1.6252 C   0  0  0  0  0  0  0  0  0  0  0  0
    4.7645    5.1482   -1.8316 H   0  0  0  0  0  0  0  0  0  0  0  0
    7.0220    3.7767   -0.6680 H   0  0  0  0  0  0  0  0  0  0  0  0
    7.0051    3.5083   -2.4284 H   0  0  0  0  0  0  0  0  0  0  0  0
    7.0999    5.1593   -1.7785 H   0  0  0  0  0  0  0  0  0  0  0  0
  1  2  2  0  0  0  0
  1  3  1  0  0  0  0
  1  7  1  0  0  0  0
  3  4  1  0  0  0  0
  3  5  1  0  0  0  0
  3  6  1  0  0  0  0
  7  8  1  0  0  0  0
  7 13  1  0  0  0  0
  8  9  1  0  0  0  0
  8 11  1  0  0  0  0
  8 14  1  0  0  0  0
  9 10  2  0  0  0  0
  9 17  1  0  0  0  0
 11 12  1  0  0  0  0
 11 15  1  0  0  0  0
 11 16  1  0  0  0  0
 12 44  1  0  0  0  0
 17 18  1  0  0  0  0
 17 19  1  0  0  0  0
 18 20  1  0  0  0  0
 18 21  1  0  0  0  0
 18 22  1  0  0  0  0
 23 24  2  0  0  0  0
 23 25  1  0  0  0  0
 23 29  1  0  0  0  0
 25 26  1  0  0  0  0
 25 27  1  0  0  0  0
 25 28  1  0  0  0  0
 29 30  1  0  0  0  0
 29 34  1  0  0  0  0
 30 31  1  0  0  0  0
 30 33  1  0  0  0  0
 30 35  1  0  0  0  0
 31 32  2  0  0  0  0
 31 39  1  0  0  0  0
 33 36  1  0  0  0  0
 33 37  1  0  0  0  0
 33 38  1  0  0  0  0
 39 40  1  0  0  0  0
 39 45  1  0  0  0  0
 40 41  1  0  0  0  0
 40 43  1  0  0  0  0
 40 46  1  0  0  0  0
 41 42  2  0  0  0  0
 41 49  1  0  0  0  0
 43 44  1  0  0  0  0
 43 47  1  0  0  0  0
 43 48  1  0  0  0  0
 49 50  1  0  0  0  0
 49 54  1  0  0  0  0
 50 51  1  0  0  0  0
 50 53  1  0  0  0  0
 50 55  1  0  0  0  0
 51 52  2  0  0  0  0
 51 59  1  0  0  0  0
 53 56  1  0  0  0  0
 53 57  1  0  0  0  0
 53 58  1  0  0  0  0
 59 60  1  0  0  0  0
 59 61  1  0  0  0  0
 60 62  1  0  0  0  0
 60 63  1  0  0  0  0
 60 64  1  0  0  0  0
M  END
$$$$

  -OEChem-05262216053D

 64 63  0     1  0  0  0  0  0999 V2000
    1.7681   -3.2514   -9.2377 C   0  0  0  0  0  0  0  0  0  0  0  0
    0.5855   -3.0398   -9.4565 O   0  0  0  0  0  0  0  0  0  0  0  0
    2.3944   -4.5778   -9.6238 C   0  0  0  0  0  0  0  0  0  0  0  0
    2.8273   -5.0557   -8.7415 H   0  0  0  0  0  0  0  0  0  0  0  0
    1.6378   -5.2426  -10.0498 H   0  0  0  0  0  0  0  0  0  0  0  0
    3.1800   -4.4176  -10.3659 H   0  0  0  0  0  0  0  0  0  0  0  0
    2.5368   -2.2748   -8.6445 N   0  0  0  0  0  0  0  0  0  0  0  0
    2.0524   -0.9377   -8.2734 C   0  0  2  0  0  0  0  0  0  0  0  0
    3.2035    0.0910   -8.2148 C   0  0  0  0  0  0  0  0  0  0  0  0
    4.3601   -0.2647   -8.4154 O   0  0  0  0  0  0  0  0  0  0  0  0
    1.3164   -1.0268   -6.9264 C   0  0  0  0  0  0  0  0  0  0  0  0
    2.4516   -1.5556   -5.5787 S   0  0  0  0  0  0  0  0  0  0  0  0
    3.5365   -2.4486   -8.5458 H   0  0  0  0  0  0  0  0  0  0  0  0
    1.3504   -0.5867   -9.0373 H   0  0  0  0  0  0  0  0  0  0  0  0
    0.8803   -0.0564   -6.6738 H   0  0  0  0  0  0  0  0  0  0  0  0
    0.4951   -1.7463   -7.0083 H   0  0  0  0  0  0  0  0  0  0  0  0
    2.9460    1.4289   -7.9705 N   0  0  0  0  0  0  0  0  0  0  0  0
    3.9948    2.4374   -7.8765 C   0  0  0  0  0  0  0  0  0  0  0  0
    1.9817    1.7073   -7.8171 H   0  0  0  0  0  0  0  0  0  0  0  0
    4.6801    2.2008   -7.0555 H   0  0  0  0  0  0  0  0  0  0  0  0
    4.5662    2.4860   -8.8096 H   0  0  0  0  0  0  0  0  0  0  0  0
    3.5571    3.4225   -7.6891 H   0  0  0  0  0  0  0  0  0  0  0  0
   -5.6909    0.9756   -1.8182 C   0  0  0  0  0  0  0  0  0  0  0  0
   -6.0462    0.4044   -2.8372 O   0  0  0  0  0  0  0  0  0  0  0  0
   -6.7091    1.3286   -0.7504 C   0  0  0  0  0  0  0  0  0  0  0  0
   -6.8015    2.4141   -0.6686 H   0  0  0  0  0  0  0  0  0  0  0  0
   -7.6853    0.9086   -1.0082 H   0  0  0  0  0  0  0  0  0  0  0  0
   -6.3960    0.9230    0.2147 H   0  0  0  0  0  0  0  0  0  0  0  0
   -4.3616    1.2861   -1.6298 N   0  0  0  0  0  0  0  0  0  0  0  0
   -3.2732    0.8301   -2.5032 C   0  0  2  0  0  0  0  0  0  0  0  0
   -1.9527    0.6711   -1.7220 C   0  0  0  0  0  0  0  0  0  0  0  0
   -1.8907    1.0067   -0.5437 O   0  0  0  0  0  0  0  0  0  0  0  0
   -3.0988    1.8440   -3.6376 C   0  0  0  0  0  0  0  0  0  0  0  0
   -4.0877    1.6423   -0.7138 H   0  0  0  0  0  0  0  0  0  0  0  0
   -3.5261   -0.1481   -2.9257 H   0  0  0  0  0  0  0  0  0  0  0  0
   -2.8227    2.8235   -3.2333 H   0  0  0  0  0  0  0  0  0  0  0  0
   -2.3148    1.5177   -4.3270 H   0  0  0  0  0  0  0  0  0  0  0  0
   -4.0318    1.9489   -4.2009 H   0  0  0  0  0  0  0  0  0  0  0  0
   -0.8909   -0.0365   -2.2576 N   0  0  0  0  0  0  0  0  0  0  0  0
    0.5362    0.2870   -2.0343 C   0  0  2  0  0  0  0  0  0  0  0  0
    0.9187    1.6821   -1.4583 C   0  0  0  0  0  0  0  0  0  0  0  0
    0.2022    2.6605   -1.6417 O   0  0  0  0  0  0  0  0  0  0  0  0
    1.2162    0.1276   -3.4045 C   0  0  0  0  0  0  0  0  0  0  0  0
    1.1480   -1.6244   -3.9525 S   0  0  0  0  0  0  0  0  0  0  0  0
   -1.0932   -0.4562   -3.1602 H   0  0  0  0  0  0  0  0  0  0  0  0
    0.9422   -0.4523   -1.3366 H   0  0  0  0  0  0  0  0  0  0  0  0
    0.7343    0.7768   -4.1422 H   0  0  0  0  0  0  0  0  0  0  0  0
    2.2693    0.4219   -3.3450 H   0  0  0  0  0  0  0  0  0  0  0  0
    2.2580    1.9644   -1.2472 N   0  0  0  0  0  0  0  0  0  0  0  0
    2.8369    3.3054   -1.0815 C   0  0  2  0  0  0  0  0  0  0  0  0
    4.3224    3.3282   -1.5007 C   0  0  0  0  0  0  0  0  0  0  0  0
    4.8969    2.2808   -1.7786 O   0  0  0  0  0  0  0  0  0  0  0  0
    2.6740    3.7253    0.3832 C   0  0  0  0  0  0  0  0  0  0  0  0
    2.9212    1.1930   -1.3196 H   0  0  0  0  0  0  0  0  0  0  0  0
    2.3102    4.0205   -1.7219 H   0  0  0  0  0  0  0  0  0  0  0  0
    3.2076    3.0329    1.0421 H   0  0  0  0  0  0  0  0  0  0  0  0
    3.0687    4.7331    0.5415 H   0  0  0  0  0  0  0  0  0  0  0  0
    1.6154    3.7244    0.6626 H   0  0  0  0  0  0  0  0  0  0  0  0
    5.0101    4.5240   -1.6006 N   0  0  0  0  0  0  0  0  0  0  0  0
    6.4069    4.6125   -2.0111 C   0  0  0  0  0  0  0  0  0  0  0  0
    4.5078    5.3781   -1.3756 H   0  0  0  0  0  0  0  0  0  0  0  0
    7.0406    4.0131   -1.3489 H   0  0  0  0  0  0  0  0  0  0  0  0
    6.5284    4.2501   -3.0373 H   0  0  0  0  0  0  0  0  0  0  0  0
    6.7499    5.6508   -1.9681 H   0  0  0  0  0  0  0  0  0  0  0  0
  1  2  2  0  0  0  0
  1  3  1  0  0  0  0
  1  7  1  0  0  0  0
  3  4  1  0  0  0  0
  3  5  1  0  0  0  0
  3  6  1  0  0  0  0
  7  8  1  0  0  0  0
  7 13  1  0  0  0  0
  8  9  1  0  0  0  0
  8 11  1  0  0  0  0
  8 14  1  0  0  0  0
  9 10  2  0  0  0  0
  9 17  1  0  0  0  0
 11 12  1  0  0  0  0
 11 15  1  0  0  0  0
 11 16  1  0  0  0  0
 12 44  1  0  0  0  0
 17 18  1  0  0  0  0
 17 19  1  0  0  0  0
 18 20  1  0  0  0  0
 18 21  1  0  0  0  0
 18 22  1  0  0  0  0
 23 24  2  0  0  0  0
 23 25  1  0  0  0  0
 23 29  1  0  0  0  0
 25 26  1  0  0  0  0
 25 27  1  0  0  0  0
 25 28  1  0  0  0  0
 29 30  1  0  0  0  0
 29 34  1  0  0  0  0
 30 31  1  0  0  0  0
 30 33  1  0  0  0  0
 30 35  1  0  0  0  0
 31 32  2  0  0  0  0
 31 39  1  0  0  0  0
 33 36  1  0  0  0  0
 33 37  1  0  0  0  0
 33 38  1  0  0  0  0
 39 40  1  0  0  0  0
 39 45  1  0  0  0  0
 40 41  1  0  0  0  0
 40 43  1  0  0  0  0
 40 46  1  0  0  0  0
 41 42  2  0  0  0  0
 41 49  1  0  0  0  0
 43 44  1  0  0  0  0
 43 47  1  0  0  0  0
 43 48  1  0  0  0  0
 49 50  1  0  0  0  0
 49 54  1  0  0  0  0
 50 51  1  0  0  0  0
 50 53  1  0  0  0  0
 50 55  1  0  0  0  0
 51 52  2  0  0  0  0
 51 59  1  0  0  0  0
 53 56  1  0  0  0  0
 53 57  1  0  0  0  0
 53 58  1  0  0  0  0
 59 60  1  0  0  0  0
 59 61  1  0  0  0  0
 60 62  1  0  0  0  0
 60 63  1  0  0  0  0
 60 64  1  0  0  0  0
M  END
$$$$

  -OEChem-05262216053D

 64 63  0     1  0  0  0  0  0999 V2000
    2.1982   -2.0414   -9.3659 C   0  0  0  0  0  0  0  0  0  0  0  0
    1.2699   -1.2827   -9.5984 O   0  0  0  0  0  0  0  0  0  0  0  0
    2.4032   -3.2795  -10.2178 C   0  0  0  0  0  0  0  0  0  0  0  0
    2.3360   -4.1745   -9.5944 H   0  0  0  0  0  0  0  0  0  0  0  0
    1.6358   -3.3330  -10.9951 H   0  0  0  0  0  0  0  0  0  0  0  0
    3.3862   -3.2477  -10.6938 H   0  0  0  0  0  0  0  0  0  0  0  0
    3.0608   -1.7705   -8.3265 N   0  0  0  0  0  0  0  0  0  0  0  0
    3.0159   -0.5516   -7.5055 C   0  0  2  0  0  0  0  0  0  0  0  0
    4.3994   -0.2188   -6.8990 C   0  0  0  0  0  0  0  0  0  0  0  0
    5.3788   -0.8840   -7.2250 O   0  0  0  0  0  0  0  0  0  0  0  0
    1.9362   -0.7116   -6.4264 C   0  0  0  0  0  0  0  0  0  0  0  0
    2.4032   -1.9717   -5.1678 S   0  0  0  0  0  0  0  0  0  0  0  0
    3.8919   -2.3537   -8.2367 H   0  0  0  0  0  0  0  0  0  0  0  0
    2.7448    0.2966   -8.1427 H   0  0  0  0  0  0  0  0  0  0  0  0
    1.7828    0.2533   -5.9364 H   0  0  0  0  0  0  0  0  0  0  0  0
    0.9879   -0.9986   -6.8915 H   0  0  0  0  0  0  0  0  0  0  0  0
    4.5809    0.8490   -6.0366 N   0  0  0  0  0  0  0  0  0  0  0  0
    5.8701    1.1841   -5.4472 C   0  0  0  0  0  0  0  0  0  0  0  0
    3.7524    1.3354   -5.6842 H   0  0  0  0  0  0  0  0  0  0  0  0
    6.2244    0.3665   -4.8111 H   0  0  0  0  0  0  0  0  0  0  0  0
    6.6128    1.3713   -6.2298 H   0  0  0  0  0  0  0  0  0  0  0  0
    5.7800    2.0870   -4.8357 H   0  0  0  0  0  0  0  0  0  0  0  0
   -5.5796    1.7480   -1.6730 C   0  0  0  0  0  0  0  0  0  0  0  0
   -6.0108    1.2658   -2.7085 O   0  0  0  0  0  0  0  0  0  0  0  0
   -6.5365    2.3177   -0.6431 C   0  0  0  0  0  0  0  0  0  0  0  0
   -6.2679    3.3523   -0.4171 H   0  0  0  0  0  0  0  0  0  0  0  0
   -7.5601    2.2956   -1.0275 H   0  0  0  0  0  0  0  0  0  0  0  0
   -6.4910    1.7269    0.2752 H   0  0  0  0  0  0  0  0  0  0  0  0
   -4.2226    1.7631   -1.4330 N   0  0  0  0  0  0  0  0  0  0  0  0
   -3.2223    1.1001   -2.2787 C   0  0  2  0  0  0  0  0  0  0  0  0
   -1.9727    0.6971   -1.4688 C   0  0  0  0  0  0  0  0  0  0  0  0
   -1.8880    0.9731   -0.2770 O   0  0  0  0  0  0  0  0  0  0  0  0
   -2.8264    2.0524   -3.4126 C   0  0  0  0  0  0  0  0  0  0  0  0
   -3.9112    2.0547   -0.5064 H   0  0  0  0  0  0  0  0  0  0  0  0
   -3.6499    0.1858   -2.7036 H   0  0  0  0  0  0  0  0  0  0  0  0
   -2.3707    2.9608   -3.0045 H   0  0  0  0  0  0  0  0  0  0  0  0
   -2.1072    1.5739   -4.0842 H   0  0  0  0  0  0  0  0  0  0  0  0
   -3.7073    2.3357   -3.9979 H   0  0  0  0  0  0  0  0  0  0  0  0
   -1.0107   -0.1303   -2.0188 N   0  0  0  0  0  0  0  0  0  0  0  0
    0.4511    0.0412   -1.8576 C   0  0  2  0  0  0  0  0  0  0  0  0
    1.0233    1.4010   -1.3350 C   0  0  0  0  0  0  0  0  0  0  0  0
    0.3410    2.4196   -1.3225 O   0  0  0  0  0  0  0  0  0  0  0  0
    1.0123   -0.1775   -3.2738 C   0  0  0  0  0  0  0  0  0  0  0  0
    0.7510   -1.8834   -3.8917 S   0  0  0  0  0  0  0  0  0  0  0  0
   -1.2826   -0.5112   -2.9209 H   0  0  0  0  0  0  0  0  0  0  0  0
    0.8184   -0.7368   -1.1815 H   0  0  0  0  0  0  0  0  0  0  0  0
    0.5652    0.5455   -3.9641 H   0  0  0  0  0  0  0  0  0  0  0  0
    2.0921   -0.0127   -3.2846 H   0  0  0  0  0  0  0  0  0  0  0  0
    2.3845    1.6388   -1.4855 N   0  0  0  0  0  0  0  0  0  0  0  0
    2.9100    2.9435   -1.9162 C   0  0  2  0  0  0  0  0  0  0  0  0
    2.5834    3.2242   -3.4024 C   0  0  0  0  0  0  0  0  0  0  0  0
    2.8154    2.3750   -4.2618 O   0  0  0  0  0  0  0  0  0  0  0  0
    4.4226    2.9441   -1.6877 C   0  0  0  0  0  0  0  0  0  0  0  0
    2.9385    0.8265   -1.7414 H   0  0  0  0  0  0  0  0  0  0  0  0
    2.4728    3.7397   -1.3038 H   0  0  0  0  0  0  0  0  0  0  0  0
    4.9015    2.1497   -2.2685 H   0  0  0  0  0  0  0  0  0  0  0  0
    4.8520    3.9035   -1.9918 H   0  0  0  0  0  0  0  0  0  0  0  0
    4.6460    2.7855   -0.6282 H   0  0  0  0  0  0  0  0  0  0  0  0
    2.0207    4.4286   -3.7781 N   0  0  0  0  0  0  0  0  0  0  0  0
    1.5796    4.7093   -5.1392 C   0  0  0  0  0  0  0  0  0  0  0  0
    1.6774    5.0232   -3.0272 H   0  0  0  0  0  0  0  0  0  0  0  0
    2.4104    4.5966   -5.8439 H   0  0  0  0  0  0  0  0  0  0  0  0
    0.7741    4.0266   -5.4292 H   0  0  0  0  0  0  0  0  0  0  0  0
    1.2068    5.7355   -5.2115 H   0  0  0  0  0  0  0  0  0  0  0  0
  1  2  2  0  0  0  0
  1  3  1  0  0  0  0
  1  7  1  0  0  0  0
  3  4  1  0  0  0  0
  3  5  1  0  0  0  0
  3  6  1  0  0  0  0
  7  8  1  0  0  0  0
  7 13  1  0  0  0  0
  8  9  1  0  0  0  0
  8 11  1  0  0  0  0
  8 14  1  0  0  0  0
  9 10  2  0  0  0  0
  9 17  1  0  0  0  0
 11 12  1  0  0  0  0
 11 15  1  0  0  0  0
 11 16  1  0  0  0  0
 12 44  1  0  0  0  0
 17 18  1  0  0  0  0
 17 19  1  0  0  0  0
 18 20  1  0  0  0  0
 18 21  1  0  0  0  0
 18 22  1  0  0  0  0
 23 24  2  0  0  0  0
 23 25  1  0  0  0  0
 23 29  1  0  0  0  0
 25 26  1  0  0  0  0
 25 27  1  0  0  0  0
 25 28  1  0  0  0  0
 29 30  1  0  0  0  0
 29 34  1  0  0  0  0
 30 31  1  0  0  0  0
 30 33  1  0  0  0  0
 30 35  1  0  0  0  0
 31 32  2  0  0  0  0
 31 39  1  0  0  0  0
 33 36  1  0  0  0  0
 33 37  1  0  0  0  0
 33 38  1  0  0  0  0
 39 40  1  0  0  0  0
 39 45  1  0  0  0  0
 40 41  1  0  0  0  0
 40 43  1  0  0  0  0
 40 46  1  0  0  0  0
 41 42  2  0  0  0  0
 41 49  1  0  0  0  0
 43 44  1  0  0  0  0
 43 47  1  0  0  0  0
 43 48  1  0  0  0  0
 49 50  1  0  0  0  0
 49 54  1  0  0  0  0
 50 51  1  0  0  0  0
 50 53  1  0  0  0  0
 50 55  1  0  0  0  0
 51 52  2  0  0  0  0
 51 59  1  0  0  0  0
 53 56  1  0  0  0  0
 53 57  1  0  0  0  0
 53 58  1  0  0  0  0
 59 60  1  0  0  0  0
 59 61  1  0  0  0  0
 60 62  1  0  0  0  0
 60 63  1  0  0  0  0
 60 64  1  0  0  0  0
M  END
$$$$

  -OEChem-05262216053D

 64 63  0     1  0  0  0  0  0999 V2000
    2.0677   -3.0552   -9.6559 C   0  0  0  0  0  0  0  0  0  0  0  0
    0.9082   -2.8162   -9.9563 O   0  0  0  0  0  0  0  0  0  0  0  0
    2.7747   -4.2668  -10.2311 C   0  0  0  0  0  0  0  0  0  0  0  0
    3.1180   -4.9156   -9.4216 H   0  0  0  0  0  0  0  0  0  0  0  0
    2.0931   -4.8327  -10.8719 H   0  0  0  0  0  0  0  0  0  0  0  0
    3.6350   -3.9483  -10.8248 H   0  0  0  0  0  0  0  0  0  0  0  0
    2.7388   -2.2155   -8.7953 N   0  0  0  0  0  0  0  0  0  0  0  0
    2.1847   -0.9737   -8.2404 C   0  0  2  0  0  0  0  0  0  0  0  0
    3.2961    0.0118   -7.8165 C   0  0  0  0  0  0  0  0  0  0  0  0
    4.4757   -0.3092   -7.9202 O   0  0  0  0  0  0  0  0  0  0  0  0
    1.2718   -1.3103   -7.0509 C   0  0  0  0  0  0  0  0  0  0  0  0
    2.2309   -2.0228   -5.6510 S   0  0  0  0  0  0  0  0  0  0  0  0
    3.7276   -2.3965   -8.6248 H   0  0  0  0  0  0  0  0  0  0  0  0
    1.5916   -0.4726   -9.0129 H   0  0  0  0  0  0  0  0  0  0  0  0
    0.7602   -0.4037   -6.7177 H   0  0  0  0  0  0  0  0  0  0  0  0
    0.5023   -2.0240   -7.3617 H   0  0  0  0  0  0  0  0  0  0  0  0
    2.9764    1.2650   -7.3247 N   0  0  0  0  0  0  0  0  0  0  0  0
    3.9727    2.2050   -6.8241 C   0  0  0  0  0  0  0  0  0  0  0  0
    1.9939    1.5077   -7.2440 H   0  0  0  0  0  0  0  0  0  0  0  0
    4.4877    1.7892   -5.9517 H   0  0  0  0  0  0  0  0  0  0  0  0
    4.7146    2.4280   -7.5979 H   0  0  0  0  0  0  0  0  0  0  0  0
    3.4928    3.1427   -6.5274 H   0  0  0  0  0  0  0  0  0  0  0  0
   -5.3616    1.3882   -1.0141 C   0  0  0  0  0  0  0  0  0  0  0  0
   -5.6874    0.2200   -0.8705 O   0  0  0  0  0  0  0  0  0  0  0  0
   -6.0756    2.4792   -0.2391 C   0  0  0  0  0  0  0  0  0  0  0  0
   -6.5614    3.1715   -0.9311 H   0  0  0  0  0  0  0  0  0  0  0  0
   -6.8355    2.0418    0.4147 H   0  0  0  0  0  0  0  0  0  0  0  0
   -5.3583    3.0303    0.3740 H   0  0  0  0  0  0  0  0  0  0  0  0
   -4.3381    1.7179   -1.8768 N   0  0  0  0  0  0  0  0  0  0  0  0
   -3.4766    0.7395   -2.5510 C   0  0  2  0  0  0  0  0  0  0  0  0
   -2.0291    1.2574   -2.6773 C   0  0  0  0  0  0  0  0  0  0  0  0
   -1.8300    2.4626   -2.7521 O   0  0  0  0  0  0  0  0  0  0  0  0
   -4.0696    0.4501   -3.9329 C   0  0  0  0  0  0  0  0  0  0  0  0
   -4.0190    2.6865   -1.8799 H   0  0  0  0  0  0  0  0  0  0  0  0
   -3.4430   -0.1880   -1.9692 H   0  0  0  0  0  0  0  0  0  0  0  0
   -4.1053    1.3657   -4.5324 H   0  0  0  0  0  0  0  0  0  0  0  0
   -3.4655   -0.2915   -4.4642 H   0  0  0  0  0  0  0  0  0  0  0  0
   -5.0870    0.0585   -3.8326 H   0  0  0  0  0  0  0  0  0  0  0  0
   -1.0021    0.3661   -2.9376 N   0  0  0  0  0  0  0  0  0  0  0  0
    0.4073    0.4529   -2.4845 C   0  0  2  0  0  0  0  0  0  0  0  0
    0.9435    1.8004   -1.9150 C   0  0  0  0  0  0  0  0  0  0  0  0
    0.3684    2.3227   -0.9685 O   0  0  0  0  0  0  0  0  0  0  0  0
    1.2258   -0.0002   -3.7047 C   0  0  0  0  0  0  0  0  0  0  0  0
    0.8760   -1.7636   -4.0896 S   0  0  0  0  0  0  0  0  0  0  0  0
   -1.3324   -0.5871   -3.0637 H   0  0  0  0  0  0  0  0  0  0  0  0
    0.5549   -0.2698   -1.6758 H   0  0  0  0  0  0  0  0  0  0  0  0
    0.9946    0.6343   -4.5661 H   0  0  0  0  0  0  0  0  0  0  0  0
    2.2984    0.0775   -3.5054 H   0  0  0  0  0  0  0  0  0  0  0  0
    2.2764    2.1513   -2.0593 N   0  0  0  0  0  0  0  0  0  0  0  0
    2.8372    3.4315   -1.6046 C   0  0  2  0  0  0  0  0  0  0  0  0
    3.6053    4.1299   -2.7463 C   0  0  0  0  0  0  0  0  0  0  0  0
    3.8675    3.5141   -3.7756 O   0  0  0  0  0  0  0  0  0  0  0  0
    3.7594    3.1494   -0.4162 C   0  0  0  0  0  0  0  0  0  0  0  0
    2.7554    1.7405   -2.8583 H   0  0  0  0  0  0  0  0  0  0  0  0
    2.0391    4.1115   -1.2873 H   0  0  0  0  0  0  0  0  0  0  0  0
    4.5840    2.4946   -0.7160 H   0  0  0  0  0  0  0  0  0  0  0  0
    4.1786    4.0806   -0.0238 H   0  0  0  0  0  0  0  0  0  0  0  0
    3.1985    2.6589    0.3857 H   0  0  0  0  0  0  0  0  0  0  0  0
    3.9930    5.4517   -2.6303 N   0  0  0  0  0  0  0  0  0  0  0  0
    4.7078    6.1711   -3.6775 C   0  0  0  0  0  0  0  0  0  0  0  0
    3.7365    5.9458   -1.7802 H   0  0  0  0  0  0  0  0  0  0  0  0
    5.6698    5.6901   -3.8835 H   0  0  0  0  0  0  0  0  0  0  0  0
    4.1183    6.1916   -4.6001 H   0  0  0  0  0  0  0  0  0  0  0  0
    4.8974    7.2031   -3.3669 H   0  0  0  0  0  0  0  0  0  0  0  0
  1  2  2  0  0  0  0
  1  3  1  0  0  0  0
  1  7  1  0  0  0  0
  3  4  1  0  0  0  0
  3  5  1  0  0  0  0
  3  6  1  0  0  0  0
  7  8  1  0  0  0  0
  7 13  1  0  0  0  0
  8  9  1  0  0  0  0
  8 11  1  0  0  0  0
  8 14  1  0  0  0  0
  9 10  2  0  0  0  0
  9 17  1  0  0  0  0
 11 12  1  0  0  0  0
 11 15  1  0  0  0  0
 11 16  1  0  0  0  0
 12 44  1  0  0  0  0
 17 18  1  0  0  0  0
 17 19  1  0  0  0  0
 18 20  1  0  0  0  0
 18 21  1  0  0  0  0
 18 22  1  0  0  0  0
 23 24  2  0  0  0  0
 23 25  1  0  0  0  0
 23 29  1  0  0  0  0
 25 26  1  0  0  0  0
 25 27  1  0  0  0  0
 25 28  1  0  0  0  0
 29 30  1  0  0  0  0
 29 34  1  0  0  0  0
 30 31  1  0  0  0  0
 30 33  1  0  0  0  0
 30 35  1  0  0  0  0
 31 32  2  0  0  0  0
 31 39  1  0  0  0  0
 33 36  1  0  0  0  0
 33 37  1  0  0  0  0
 33 38  1  0  0  0  0
 39 40  1  0  0  0  0
 39 45  1  0  0  0  0
 40 41  1  0  0  0  0
 40 43  1  0  0  0  0
 40 46  1  0  0  0  0
 41 42  2  0  0  0  0
 41 49  1  0  0  0  0
 43 44  1  0  0  0  0
 43 47  1  0  0  0  0
 43 48  1  0  0  0  0
 49 50  1  0  0  0  0
 49 54  1  0  0  0  0
 50 51  1  0  0  0  0
 50 53  1  0  0  0  0
 50 55  1  0  0  0  0
 51 52  2  0  0  0  0
 51 59  1  0  0  0  0
 53 56  1  0  0  0  0
 53 57  1  0  0  0  0
 53 58  1  0  0  0  0
 59 60  1  0  0  0  0
 59 61  1  0  0  0  0
 60 62  1  0  0  0  0
 60 63  1  0  0  0  0
 60 64  1  0  0  0  0
M  END
$$$$

  -OEChem-05262216053D

 64 63  0     1  0  0  0  0  0999 V2000
    2.1342   -3.0899   -9.6584 C   0  0  0  0  0  0  0  0  0  0  0  0
    0.9767   -2.8890   -9.9919 O   0  0  0  0  0  0  0  0  0  0  0  0
    2.9124   -4.2470  -10.2541 C   0  0  0  0  0  0  0  0  0  0  0  0
    3.2318   -4.9287   -9.4621 H   0  0  0  0  0  0  0  0  0  0  0  0
    2.2862   -4.7967  -10.9625 H   0  0  0  0  0  0  0  0  0  0  0  0
    3.7934   -3.8712  -10.7802 H   0  0  0  0  0  0  0  0  0  0  0  0
    2.7393   -2.2477   -8.7521 N   0  0  0  0  0  0  0  0  0  0  0  0
    2.1232   -1.0272   -8.2152 C   0  0  2  0  0  0  0  0  0  0  0  0
    3.1834    0.0250   -7.8230 C   0  0  0  0  0  0  0  0  0  0  0  0
    4.3772   -0.2523   -7.8800 O   0  0  0  0  0  0  0  0  0  0  0  0
    1.2368   -1.3907   -7.0148 C   0  0  0  0  0  0  0  0  0  0  0  0
    2.2348   -2.0667   -5.6240 S   0  0  0  0  0  0  0  0  0  0  0  0
    3.7317   -2.3846   -8.5618 H   0  0  0  0  0  0  0  0  0  0  0  0
    1.4977   -0.5718   -8.9902 H   0  0  0  0  0  0  0  0  0  0  0  0
    0.6986   -0.5007   -6.6785 H   0  0  0  0  0  0  0  0  0  0  0  0
    0.4893   -2.1315   -7.3172 H   0  0  0  0  0  0  0  0  0  0  0  0
    2.8030    1.2972   -7.4352 N   0  0  0  0  0  0  0  0  0  0  0  0
    3.7531    2.3306   -7.0403 C   0  0  0  0  0  0  0  0  0  0  0  0
    1.8116    1.5157   -7.4195 H   0  0  0  0  0  0  0  0  0  0  0  0
    4.2866    2.0337   -6.1310 H   0  0  0  0  0  0  0  0  0  0  0  0
    4.4845    2.5069   -7.8359 H   0  0  0  0  0  0  0  0  0  0  0  0
    3.2283    3.2704   -6.8429 H   0  0  0  0  0  0  0  0  0  0  0  0
   -5.3726    1.4056   -1.0538 C   0  0  0  0  0  0  0  0  0  0  0  0
   -5.7329    0.2429   -0.9595 O   0  0  0  0  0  0  0  0  0  0  0  0
   -6.0731    2.4871   -0.2538 C   0  0  0  0  0  0  0  0  0  0  0  0
   -6.4845    3.2423   -0.9276 H   0  0  0  0  0  0  0  0  0  0  0  0
   -6.8893    2.0544    0.3315 H   0  0  0  0  0  0  0  0  0  0  0  0
   -5.3639    2.9630    0.4279 H   0  0  0  0  0  0  0  0  0  0  0  0
   -4.3180    1.7356   -1.8781 N   0  0  0  0  0  0  0  0  0  0  0  0
   -3.4574    0.7552   -2.5519 C   0  0  2  0  0  0  0  0  0  0  0  0
   -1.9959    1.2460   -2.6252 C   0  0  0  0  0  0  0  0  0  0  0  0
   -1.7673    2.4483   -2.6042 O   0  0  0  0  0  0  0  0  0  0  0  0
   -4.0199    0.5061   -3.9544 C   0  0  0  0  0  0  0  0  0  0  0  0
   -3.9718    2.6941   -1.8355 H   0  0  0  0  0  0  0  0  0  0  0  0
   -3.4577   -0.1856   -1.9909 H   0  0  0  0  0  0  0  0  0  0  0  0
   -4.0253    1.4351   -4.5333 H   0  0  0  0  0  0  0  0  0  0  0  0
   -3.4152   -0.2333   -4.4876 H   0  0  0  0  0  0  0  0  0  0  0  0
   -5.0459    0.1292   -3.8891 H   0  0  0  0  0  0  0  0  0  0  0  0
   -0.9800    0.3423   -2.8917 N   0  0  0  0  0  0  0  0  0  0  0  0
    0.4331    0.4190   -2.4510 C   0  0  2  0  0  0  0  0  0  0  0  0
    0.9636    1.7729   -1.8976 C   0  0  0  0  0  0  0  0  0  0  0  0
    0.5119    2.1953   -0.8398 O   0  0  0  0  0  0  0  0  0  0  0  0
    1.2565   -0.0495   -3.6615 C   0  0  0  0  0  0  0  0  0  0  0  0
    0.9055   -1.8137   -4.0378 S   0  0  0  0  0  0  0  0  0  0  0  0
   -1.3165   -0.6054   -3.0412 H   0  0  0  0  0  0  0  0  0  0  0  0
    0.5783   -0.2945   -1.6337 H   0  0  0  0  0  0  0  0  0  0  0  0
    1.0356    0.5789   -4.5303 H   0  0  0  0  0  0  0  0  0  0  0  0
    2.3275    0.0271   -3.4491 H   0  0  0  0  0  0  0  0  0  0  0  0
    2.1871    2.2884   -2.2931 N   0  0  0  0  0  0  0  0  0  0  0  0
    2.6778    3.6121   -1.8880 C   0  0  2  0  0  0  0  0  0  0  0  0
    3.1632    4.4122   -3.1144 C   0  0  0  0  0  0  0  0  0  0  0  0
    3.3199    3.8467   -4.1927 O   0  0  0  0  0  0  0  0  0  0  0  0
    3.8139    3.4127   -0.8829 C   0  0  0  0  0  0  0  0  0  0  0  0
    2.5272    1.9688   -3.1988 H   0  0  0  0  0  0  0  0  0  0  0  0
    1.8757    4.1908   -1.4170 H   0  0  0  0  0  0  0  0  0  0  0  0
    4.6395    2.8584   -1.3414 H   0  0  0  0  0  0  0  0  0  0  0  0
    4.1917    4.3780   -0.5333 H   0  0  0  0  0  0  0  0  0  0  0  0
    3.4542    2.8491   -0.0162 H   0  0  0  0  0  0  0  0  0  0  0  0
    3.4210    5.7666   -3.0176 N   0  0  0  0  0  0  0  0  0  0  0  0
    3.8605    6.5789   -4.1455 C   0  0  0  0  0  0  0  0  0  0  0  0
    3.2552    6.2153   -2.1210 H   0  0  0  0  0  0  0  0  0  0  0  0
    4.8195    6.2149   -4.5292 H   0  0  0  0  0  0  0  0  0  0  0  0
    3.1215    6.5442   -4.9530 H   0  0  0  0  0  0  0  0  0  0  0  0
    3.9850    7.6210   -3.8360 H   0  0  0  0  0  0  0  0  0  0  0  0
  1  2  2  0  0  0  0
  1  3  1  0  0  0  0
  1  7  1  0  0  0  0
  3  4  1  0  0  0  0
  3  5  1  0  0  0  0
  3  6  1  0  0  0  0
  7  8  1  0  0  0  0
  7 13  1  0  0  0  0
  8  9  1  0  0  0  0
  8 11  1  0  0  0  0
  8 14  1  0  0  0  0
  9 10  2  0  0  0  0
  9 17  1  0  0  0  0
 11 12  1  0  0  0  0
 11 15  1  0  0  0  0
 11 16  1  0  0  0  0
 12 44  1  0  0  0  0
 17 18  1  0  0  0  0
 17 19  1  0  0  0  0
 18 20  1  0  0  0  0
 18 21  1  0  0  0  0
 18 22  1  0  0  0  0
 23 24  2  0  0  0  0
 23 25  1  0  0  0  0
 23 29  1  0  0  0  0
 25 26  1  0  0  0  0
 25 27  1  0  0  0  0
 25 28  1  0  0  0  0
 29 30  1  0  0  0  0
 29 34  1  0  0  0  0
 30 31  1  0  0  0  0
 30 33  1  0  0  0  0
 30 35  1  0  0  0  0
 31 32  2  0  0  0  0
 31 39  1  0  0  0  0
 33 36  1  0  0  0  0
 33 37  1  0  0  0  0
 33 38  1  0  0  0  0
 39 40  1  0  0  0  0
 39 45  1  0  0  0  0
 40 41  1  0  0  0  0
 40 43  1  0  0  0  0
 40 46  1  0  0  0  0
 41 42  2  0  0  0  0
 41 49  1  0  0  0  0
 43 44  1  0  0  0  0
 43 47  1  0  0  0  0
 43 48  1  0  0  0  0
 49 50  1  0  0  0  0
 49 54  1  0  0  0  0
 50 51  1  0  0  0  0
 50 53  1  0  0  0  0
 50 55  1  0  0  0  0
 51 52  2  0  0  0  0
 51 59  1  0  0  0  0
 53 56  1  0  0  0  0
 53 57  1  0  0  0  0
 53 58  1  0  0  0  0
 59 60  1  0  0  0  0
 59 61  1  0  0  0  0
 60 62  1  0  0  0  0
 60 63  1  0  0  0  0
 60 64  1  0  0  0  0
M  END
$$$$

  -OEChem-05262216053D

 64 63  0     1  0  0  0  0  0999 V2000
    1.9902   -3.1414   -9.5344 C   0  0  0  0  0  0  0  0  0  0  0  0
    0.8129   -2.9698   -9.8101 O   0  0  0  0  0  0  0  0  0  0  0  0
    2.7350   -4.3495  -10.0700 C   0  0  0  0  0  0  0  0  0  0  0  0
    3.1788   -4.9105   -9.2438 H   0  0  0  0  0  0  0  0  0  0  0  0
    2.0495   -5.0062  -10.6129 H   0  0  0  0  0  0  0  0  0  0  0  0
    3.5271   -4.0271  -10.7499 H   0  0  0  0  0  0  0  0  0  0  0  0
    2.6446   -2.2276   -8.7383 N   0  0  0  0  0  0  0  0  0  0  0  0
    2.0396   -1.0007   -8.2027 C   0  0  2  0  0  0  0  0  0  0  0  0
    3.1059    0.0619   -7.8521 C   0  0  0  0  0  0  0  0  0  0  0  0
    4.2986   -0.2148   -7.9290 O   0  0  0  0  0  0  0  0  0  0  0  0
    1.1919   -1.3489   -6.9690 C   0  0  0  0  0  0  0  0  0  0  0  0
    2.2371   -2.0299   -5.6157 S   0  0  0  0  0  0  0  0  0  0  0  0
    3.6422   -2.3609   -8.5756 H   0  0  0  0  0  0  0  0  0  0  0  0
    1.3904   -0.5620   -8.9675 H   0  0  0  0  0  0  0  0  0  0  0  0
    0.6745   -0.4526   -6.6169 H   0  0  0  0  0  0  0  0  0  0  0  0
    0.4257   -2.0834   -7.2375 H   0  0  0  0  0  0  0  0  0  0  0  0
    2.7318    1.3389   -7.4704 N   0  0  0  0  0  0  0  0  0  0  0  0
    3.6832    2.3762   -7.0864 C   0  0  0  0  0  0  0  0  0  0  0  0
    1.7401    1.5509   -7.4219 H   0  0  0  0  0  0  0  0  0  0  0  0
    4.1094    2.1583   -6.1016 H   0  0  0  0  0  0  0  0  0  0  0  0
    4.4971    2.4471   -7.8155 H   0  0  0  0  0  0  0  0  0  0  0  0
    3.1834    3.3487   -7.0411 H   0  0  0  0  0  0  0  0  0  0  0  0
   -5.3996    1.1378   -1.1951 C   0  0  0  0  0  0  0  0  0  0  0  0
   -5.7355   -0.0287   -1.3244 O   0  0  0  0  0  0  0  0  0  0  0  0
   -6.1600    2.0469   -0.2488 C   0  0  0  0  0  0  0  0  0  0  0  0
   -6.6225    2.8640   -0.8079 H   0  0  0  0  0  0  0  0  0  0  0  0
   -6.9432    1.4833    0.2659 H   0  0  0  0  0  0  0  0  0  0  0  0
   -5.4785    2.4624    0.4975 H   0  0  0  0  0  0  0  0  0  0  0  0
   -4.3213    1.6266   -1.9017 N   0  0  0  0  0  0  0  0  0  0  0  0
   -3.4103    0.7941   -2.6972 C   0  0  2  0  0  0  0  0  0  0  0  0
   -1.9479    1.2626   -2.5556 C   0  0  0  0  0  0  0  0  0  0  0  0
   -1.7229    2.4440   -2.3318 O   0  0  0  0  0  0  0  0  0  0  0  0
   -3.8549    0.8591   -4.1606 C   0  0  0  0  0  0  0  0  0  0  0  0
   -3.9995    2.5669   -1.6740 H   0  0  0  0  0  0  0  0  0  0  0  0
   -3.4551   -0.2444   -2.3519 H   0  0  0  0  0  0  0  0  0  0  0  0
   -3.8113    1.8899   -4.5271 H   0  0  0  0  0  0  0  0  0  0  0  0
   -3.2080    0.2377   -4.7872 H   0  0  0  0  0  0  0  0  0  0  0  0
   -4.8828    0.4966   -4.2602 H   0  0  0  0  0  0  0  0  0  0  0  0
   -0.9218    0.3704   -2.8240 N   0  0  0  0  0  0  0  0  0  0  0  0
    0.4985    0.4532   -2.4123 C   0  0  2  0  0  0  0  0  0  0  0  0
    1.0261    1.8159   -1.8851 C   0  0  0  0  0  0  0  0  0  0  0  0
    0.7557    2.1498   -0.7379 O   0  0  0  0  0  0  0  0  0  0  0  0
    1.3081   -0.0202   -3.6281 C   0  0  0  0  0  0  0  0  0  0  0  0
    0.9615   -1.7883   -3.9863 S   0  0  0  0  0  0  0  0  0  0  0  0
   -1.2417   -0.5646   -3.0643 H   0  0  0  0  0  0  0  0  0  0  0  0
    0.6600   -0.2509   -1.5897 H   0  0  0  0  0  0  0  0  0  0  0  0
    1.0714    0.5965   -4.5007 H   0  0  0  0  0  0  0  0  0  0  0  0
    2.3803    0.0727   -3.4256 H   0  0  0  0  0  0  0  0  0  0  0  0
    2.0630    2.4855   -2.5133 N   0  0  0  0  0  0  0  0  0  0  0  0
    2.4935    3.8388   -2.1428 C   0  0  2  0  0  0  0  0  0  0  0  0
    2.6721    4.7174   -3.3988 C   0  0  0  0  0  0  0  0  0  0  0  0
    2.7291    4.1961   -4.5094 O   0  0  0  0  0  0  0  0  0  0  0  0
    3.8047    3.7241   -1.3621 C   0  0  0  0  0  0  0  0  0  0  0  0
    2.2220    2.2381   -3.4884 H   0  0  0  0  0  0  0  0  0  0  0  0
    1.7366    4.3188   -1.5124 H   0  0  0  0  0  0  0  0  0  0  0  0
    4.5802    3.2630   -1.9822 H   0  0  0  0  0  0  0  0  0  0  0  0
    4.1528    4.7111   -1.0434 H   0  0  0  0  0  0  0  0  0  0  0  0
    3.6573    3.1062   -0.4705 H   0  0  0  0  0  0  0  0  0  0  0  0
    2.7565    6.0929   -3.2897 N   0  0  0  0  0  0  0  0  0  0  0  0
    2.8779    6.9833   -4.4379 C   0  0  0  0  0  0  0  0  0  0  0  0
    2.6604    6.4969   -2.3623 H   0  0  0  0  0  0  0  0  0  0  0  0
    3.8007    6.7744   -4.9895 H   0  0  0  0  0  0  0  0  0  0  0  0
    2.0256    6.8564   -5.1139 H   0  0  0  0  0  0  0  0  0  0  0  0
    2.9024    8.0262   -4.1065 H   0  0  0  0  0  0  0  0  0  0  0  0
  1  2  2  0  0  0  0
  1  3  1  0  0  0  0
  1  7  1  0  0  0  0
  3  4  1  0  0  0  0
  3  5  1  0  0  0  0
  3  6  1  0  0  0  0
  7  8  1  0  0  0  0
  7 13  1  0  0  0  0
  8  9  1  0  0  0  0
  8 11  1  0  0  0  0
  8 14  1  0  0  0  0
  9 10  2  0  0  0  0
  9 17  1  0  0  0  0
 11 12  1  0  0  0  0
 11 15  1  0  0  0  0
 11 16  1  0  0  0  0
 12 44  1  0  0  0  0
 17 18  1  0  0  0  0
 17 19  1  0  0  0  0
 18 20  1  0  0  0  0
 18 21  1  0  0  0  0
 18 22  1  0  0  0  0
 23 24  2  0  0  0  0
 23 25  1  0  0  0  0
 23 29  1  0  0  0  0
 25 26  1  0  0  0  0
 25 27  1  0  0  0  0
 25 28  1  0  0  0  0
 29 30  1  0  0  0  0
 29 34  1  0  0  0  0
 30 31  1  0  0  0  0
 30 33  1  0  0  0  0
 30 35  1  0  0  0  0
 31 32  2  0  0  0  0
 31 39  1  0  0  0  0
 33 36  1  0  0  0  0
 33 37  1  0  0  0  0
 33 38  1  0  0  0  0
 39 40  1  0  0  0  0
 39 45  1  0  0  0  0
 40 41  1  0  0  0  0
 40 43  1  0  0  0  0
 40 46  1  0  0  0  0
 41 42  2  0  0  0  0
 41 49  1  0  0  0  0
 43 44  1  0  0  0  0
 43 47  1  0  0  0  0
 43 48  1  0  0  0  0
 49 50  1  0  0  0  0
 49 54  1  0  0  0  0
 50 51  1  0  0  0  0
 50 53  1  0  0  0  0
 50 55  1  0  0  0  0
 51 52  2  0  0  0  0
 51 59  1  0  0  0  0
 53 56  1  0  0  0  0
 53 57  1  0  0  0  0
 53 58  1  0  0  0  0
 59 60  1  0  0  0  0
 59 61  1  0  0  0  0
 60 62  1  0  0  0  0
 60 63  1  0  0  0  0
 60 64  1  0  0  0  0
M  END
$$$$

  -OEChem-05262216053D

 64 63  0     1  0  0  0  0  0999 V2000
    1.9739   -3.0676   -9.5449 C   0  0  0  0  0  0  0  0  0  0  0  0
    0.7867   -2.9351   -9.7991 O   0  0  0  0  0  0  0  0  0  0  0  0
    2.7609   -4.2202  -10.1389 C   0  0  0  0  0  0  0  0  0  0  0  0
    3.2125   -4.8148   -9.3409 H   0  0  0  0  0  0  0  0  0  0  0  0
    2.1013   -4.8641  -10.7274 H   0  0  0  0  0  0  0  0  0  0  0  0
    3.5503   -3.8352  -10.7890 H   0  0  0  0  0  0  0  0  0  0  0  0
    2.6019   -2.1547   -8.7265 N   0  0  0  0  0  0  0  0  0  0  0  0
    1.9560   -0.9670   -8.1514 C   0  0  2  0  0  0  0  0  0  0  0  0
    2.9790    0.1388   -7.8087 C   0  0  0  0  0  0  0  0  0  0  0  0
    4.1817   -0.0963   -7.8644 O   0  0  0  0  0  0  0  0  0  0  0  0
    1.1605   -1.3761   -6.9026 C   0  0  0  0  0  0  0  0  0  0  0  0
    2.2708   -2.0279   -5.5871 S   0  0  0  0  0  0  0  0  0  0  0  0
    3.6059   -2.2535   -8.5792 H   0  0  0  0  0  0  0  0  0  0  0  0
    1.2650   -0.5460   -8.8891 H   0  0  0  0  0  0  0  0  0  0  0  0
    0.6119   -0.5104   -6.5224 H   0  0  0  0  0  0  0  0  0  0  0  0
    0.4238   -2.1421   -7.1656 H   0  0  0  0  0  0  0  0  0  0  0  0
    2.5546    1.4083   -7.4556 N   0  0  0  0  0  0  0  0  0  0  0  0
    3.4651    2.4877   -7.0892 C   0  0  0  0  0  0  0  0  0  0  0  0
    1.5559    1.5935   -7.4468 H   0  0  0  0  0  0  0  0  0  0  0  0
    3.9003    2.3025   -6.1018 H   0  0  0  0  0  0  0  0  0  0  0  0
    4.2755    2.5791   -7.8200 H   0  0  0  0  0  0  0  0  0  0  0  0
    2.9278    3.4403   -7.0586 H   0  0  0  0  0  0  0  0  0  0  0  0
   -5.4217    1.1515   -1.2550 C   0  0  0  0  0  0  0  0  0  0  0  0
   -5.7747   -0.0114   -1.3718 O   0  0  0  0  0  0  0  0  0  0  0  0
   -6.2097    2.1022   -0.3742 C   0  0  0  0  0  0  0  0  0  0  0  0
   -6.6512    2.8949   -0.9828 H   0  0  0  0  0  0  0  0  0  0  0  0
   -7.0110    1.5634    0.1389 H   0  0  0  0  0  0  0  0  0  0  0  0
   -5.5513    2.5496    0.3745 H   0  0  0  0  0  0  0  0  0  0  0  0
   -4.2985    1.6000   -1.9167 N   0  0  0  0  0  0  0  0  0  0  0  0
   -3.3667    0.7303   -2.6462 C   0  0  2  0  0  0  0  0  0  0  0  0
   -1.9051    1.1972   -2.4784 C   0  0  0  0  0  0  0  0  0  0  0  0
   -1.6841    2.3667   -2.1938 O   0  0  0  0  0  0  0  0  0  0  0  0
   -3.7692    0.7326   -4.1235 C   0  0  0  0  0  0  0  0  0  0  0  0
   -3.9672    2.5379   -1.6920 H   0  0  0  0  0  0  0  0  0  0  0  0
   -3.4297   -0.2918   -2.2569 H   0  0  0  0  0  0  0  0  0  0  0  0
   -3.7168    1.7467   -4.5327 H   0  0  0  0  0  0  0  0  0  0  0  0
   -3.1053    0.0862   -4.7052 H   0  0  0  0  0  0  0  0  0  0  0  0
   -4.7940    0.3645   -4.2361 H   0  0  0  0  0  0  0  0  0  0  0  0
   -0.8727    0.3104   -2.7443 N   0  0  0  0  0  0  0  0  0  0  0  0
    0.5503    0.4172   -2.3488 C   0  0  2  0  0  0  0  0  0  0  0  0
    1.0623    1.7948   -1.8522 C   0  0  0  0  0  0  0  0  0  0  0  0
    0.9641    2.0767   -0.6644 O   0  0  0  0  0  0  0  0  0  0  0  0
    1.3626   -0.0490   -3.5646 C   0  0  0  0  0  0  0  0  0  0  0  0
    1.0478   -1.8247   -3.9121 S   0  0  0  0  0  0  0  0  0  0  0  0
   -1.1794   -0.6247   -3.0022 H   0  0  0  0  0  0  0  0  0  0  0  0
    0.7317   -0.2753   -1.5200 H   0  0  0  0  0  0  0  0  0  0  0  0
    1.1083    0.5539   -4.4414 H   0  0  0  0  0  0  0  0  0  0  0  0
    2.4334    0.0742   -3.3680 H   0  0  0  0  0  0  0  0  0  0  0  0
    1.8519    2.5998   -2.6546 N   0  0  0  0  0  0  0  0  0  0  0  0
    2.2036    3.9833   -2.3202 C   0  0  2  0  0  0  0  0  0  0  0  0
    2.0944    4.8843   -3.5682 C   0  0  0  0  0  0  0  0  0  0  0  0
    2.0606    4.3804   -4.6882 O   0  0  0  0  0  0  0  0  0  0  0  0
    3.6275    3.9959   -1.7585 C   0  0  0  0  0  0  0  0  0  0  0  0
    1.8259    2.3924   -3.6513 H   0  0  0  0  0  0  0  0  0  0  0  0
    1.5115    4.3771   -1.5675 H   0  0  0  0  0  0  0  0  0  0  0  0
    4.3361    3.6198   -2.5034 H   0  0  0  0  0  0  0  0  0  0  0  0
    3.9214    5.0116   -1.4777 H   0  0  0  0  0  0  0  0  0  0  0  0
    3.6875    3.3611   -0.8686 H   0  0  0  0  0  0  0  0  0  0  0  0
    2.0237    6.2588   -3.4396 N   0  0  0  0  0  0  0  0  0  0  0  0
    1.8626    7.1627   -4.5720 C   0  0  0  0  0  0  0  0  0  0  0  0
    1.9908    6.6403   -2.4983 H   0  0  0  0  0  0  0  0  0  0  0  0
    2.6882    7.0413   -5.2813 H   0  0  0  0  0  0  0  0  0  0  0  0
    0.9192    6.9628   -5.0910 H   0  0  0  0  0  0  0  0  0  0  0  0
    1.8548    8.2016   -4.2282 H   0  0  0  0  0  0  0  0  0  0  0  0
  1  2  2  0  0  0  0
  1  3  1  0  0  0  0
  1  7  1  0  0  0  0
  3  4  1  0  0  0  0
  3  5  1  0  0  0  0
  3  6  1  0  0  0  0
  7  8  1  0  0  0  0
  7 13  1  0  0  0  0
  8  9  1  0  0  0  0
  8 11  1  0  0  0  0
  8 14  1  0  0  0  0
  9 10  2  0  0  0  0
  9 17  1  0  0  0  0
 11 12  1  0  0  0  0
 11 15  1  0  0  0  0
 11 16  1  0  0  0  0
 12 44  1  0  0  0  0
 17 18  1  0  0  0  0
 17 19  1  0  0  0  0
 18 20  1  0  0  0  0
 18 21  1  0  0  0  0
 18 22  1  0  0  0  0
 23 24  2  0  0  0  0
 23 25  1  0  0  0  0
 23 29  1  0  0  0  0
 25 26  1  0  0  0  0
 25 27  1  0  0  0  0
 25 28  1  0  0  0  0
 29 30  1  0  0  0  0
 29 34  1  0  0  0  0
 30 31  1  0  0  0  0
 30 33  1  0  0  0  0
 30 35  1  0  0  0  0
 31 32  2  0  0  0  0
 31 39  1  0  0  0  0
 33 36  1  0  0  0  0
 33 37  1  0  0  0  0
 33 38  1  0  0  0  0
 39 40  1  0  0  0  0
 39 45  1  0  0  0  0
 40 41  1  0  0  0  0
 40 43  1  0  0  0  0
 40 46  1  0  0  0  0
 41 42  2  0  0  0  0
 41 49  1  0  0  0  0
 43 44  1  0  0  0  0
 43 47  1  0  0  0  0
 43 48  1  0  0  0  0
 49 50  1  0  0  0  0
 49 54  1  0  0  0  0
 50 51  1  0  0  0  0
 50 53  1  0  0  0  0
 50 55  1  0  0  0  0
 51 52  2  0  0  0  0
 51 59  1  0  0  0  0
 53 56  1  0  0  0  0
 53 57  1  0  0  0  0
 53 58  1  0  0  0  0
 59 60  1  0  0  0  0
 59 61  1  0  0  0  0
 60 62  1  0  0  0  0
 60 63  1  0  0  0  0
 60 64  1  0  0  0  0
M  END
$$$$

  -OEChem-05262216053D

 64 63  0     1  0  0  0  0  0999 V2000
    1.9229   -2.9535   -9.5348 C   0  0  0  0  0  0  0  0  0  0  0  0
    0.7240   -2.8870   -9.7584 O   0  0  0  0  0  0  0  0  0  0  0  0
    2.7619   -4.0440  -10.1734 C   0  0  0  0  0  0  0  0  0  0  0  0
    3.2389   -4.6491   -9.3985 H   0  0  0  0  0  0  0  0  0  0  0  0
    2.1324   -4.6924  -10.7893 H   0  0  0  0  0  0  0  0  0  0  0  0
    3.5340   -3.5981  -10.8052 H   0  0  0  0  0  0  0  0  0  0  0  0
    2.5132   -2.0289   -8.7015 N   0  0  0  0  0  0  0  0  0  0  0  0
    1.8074   -0.9086   -8.0651 C   0  0  2  0  0  0  0  0  0  0  0  0
    2.7609    0.2576   -7.7221 C   0  0  0  0  0  0  0  0  0  0  0  0
    3.9744    0.1106   -7.8226 O   0  0  0  0  0  0  0  0  0  0  0  0
    1.0916   -1.4144   -6.8034 C   0  0  0  0  0  0  0  0  0  0  0  0
    2.2939   -2.0409   -5.5572 S   0  0  0  0  0  0  0  0  0  0  0  0
    3.5238   -2.0728   -8.5746 H   0  0  0  0  0  0  0  0  0  0  0  0
    1.0612   -0.5156   -8.7633 H   0  0  0  0  0  0  0  0  0  0  0  0
    0.5038   -0.6015   -6.3696 H   0  0  0  0  0  0  0  0  0  0  0  0
    0.3956   -2.2173   -7.0667 H   0  0  0  0  0  0  0  0  0  0  0  0
    2.2611    1.4850   -7.3217 N   0  0  0  0  0  0  0  0  0  0  0  0
    3.1058    2.6272   -6.9897 C   0  0  0  0  0  0  0  0  0  0  0  0
    1.2529    1.6052   -7.2960 H   0  0  0  0  0  0  0  0  0  0  0  0
    3.6110    2.4640   -6.0324 H   0  0  0  0  0  0  0  0  0  0  0  0
    3.8624    2.7895   -7.7647 H   0  0  0  0  0  0  0  0  0  0  0  0
    2.5000    3.5348   -6.9130 H   0  0  0  0  0  0  0  0  0  0  0  0
   -5.4289    1.1709   -1.3981 C   0  0  0  0  0  0  0  0  0  0  0  0
   -5.8104    0.0161   -1.5037 O   0  0  0  0  0  0  0  0  0  0  0  0
   -6.2542    2.1798   -0.6225 C   0  0  0  0  0  0  0  0  0  0  0  0
   -6.5317    3.0128   -1.2728 H   0  0  0  0  0  0  0  0  0  0  0  0
   -7.1654    1.7095   -0.2430 H   0  0  0  0  0  0  0  0  0  0  0  0
   -5.6765    2.5622    0.2224 H   0  0  0  0  0  0  0  0  0  0  0  0
   -4.2389    1.5584   -1.9758 N   0  0  0  0  0  0  0  0  0  0  0  0
   -3.2765    0.6330   -2.5872 C   0  0  2  0  0  0  0  0  0  0  0  0
   -1.8225    1.1015   -2.3655 C   0  0  0  0  0  0  0  0  0  0  0  0
   -1.6144    2.2572   -2.0205 O   0  0  0  0  0  0  0  0  0  0  0  0
   -3.5900    0.5299   -4.0832 C   0  0  0  0  0  0  0  0  0  0  0  0
   -3.8914    2.4896   -1.7470 H   0  0  0  0  0  0  0  0  0  0  0  0
   -3.3733   -0.3575   -2.1289 H   0  0  0  0  0  0  0  0  0  0  0  0
   -3.4842    1.5074   -4.5646 H   0  0  0  0  0  0  0  0  0  0  0  0
   -2.9117   -0.1758   -4.5716 H   0  0  0  0  0  0  0  0  0  0  0  0
   -4.6160    0.1782   -4.2316 H   0  0  0  0  0  0  0  0  0  0  0  0
   -0.7791    0.2268   -2.6262 N   0  0  0  0  0  0  0  0  0  0  0  0
    0.6492    0.3656   -2.2628 C   0  0  2  0  0  0  0  0  0  0  0  0
    1.1438    1.7641   -1.8164 C   0  0  0  0  0  0  0  0  0  0  0  0
    1.2617    2.0103   -0.6225 O   0  0  0  0  0  0  0  0  0  0  0  0
    1.4478   -0.0953   -3.4882 C   0  0  0  0  0  0  0  0  0  0  0  0
    1.1646   -1.8801   -3.8138 S   0  0  0  0  0  0  0  0  0  0  0  0
   -1.0685   -0.7051   -2.9137 H   0  0  0  0  0  0  0  0  0  0  0  0
    0.8634   -0.3075   -1.4257 H   0  0  0  0  0  0  0  0  0  0  0  0
    1.1621    0.4921   -4.3659 H   0  0  0  0  0  0  0  0  0  0  0  0
    2.5182    0.0603   -3.3139 H   0  0  0  0  0  0  0  0  0  0  0  0
    1.6276    2.6723   -2.7411 N   0  0  0  0  0  0  0  0  0  0  0  0
    1.8837    4.0813   -2.4305 C   0  0  2  0  0  0  0  0  0  0  0  0
    1.4779    4.9803   -3.6174 C   0  0  0  0  0  0  0  0  0  0  0  0
    1.2863    4.4866   -4.7263 O   0  0  0  0  0  0  0  0  0  0  0  0
    3.3703    4.2439   -2.1048 C   0  0  0  0  0  0  0  0  0  0  0  0
    1.3809    2.4854   -3.7113 H   0  0  0  0  0  0  0  0  0  0  0  0
    1.2854    4.3882   -1.5655 H   0  0  0  0  0  0  0  0  0  0  0  0
    3.9845    3.9476   -2.9610 H   0  0  0  0  0  0  0  0  0  0  0  0
    3.5978    5.2842   -1.8543 H   0  0  0  0  0  0  0  0  0  0  0  0
    3.6394    3.6170   -1.2489 H   0  0  0  0  0  0  0  0  0  0  0  0
    1.3223    6.3431   -3.4439 N   0  0  0  0  0  0  0  0  0  0  0  0
    0.8840    7.2419   -4.5047 C   0  0  0  0  0  0  0  0  0  0  0  0
    1.4272    6.7093   -2.5016 H   0  0  0  0  0  0  0  0  0  0  0  0
    1.5441    7.1609   -5.3751 H   0  0  0  0  0  0  0  0  0  0  0  0
   -0.1383    6.9997   -4.8132 H   0  0  0  0  0  0  0  0  0  0  0  0
    0.9045    8.2780   -4.1530 H   0  0  0  0  0  0  0  0  0  0  0  0
  1  2  2  0  0  0  0
  1  3  1  0  0  0  0
  1  7  1  0  0  0  0
  3  4  1  0  0  0  0
  3  5  1  0  0  0  0
  3  6  1  0  0  0  0
  7  8  1  0  0  0  0
  7 13  1  0  0  0  0
  8  9  1  0  0  0  0
  8 11  1  0  0  0  0
  8 14  1  0  0  0  0
  9 10  2  0  0  0  0
  9 17  1  0  0  0  0
 11 12  1  0  0  0  0
 11 15  1  0  0  0  0
 11 16  1  0  0  0  0
 12 44  1  0  0  0  0
 17 18  1  0  0  0  0
 17 19  1  0  0  0  0
 18 20  1  0  0  0  0
 18 21  1  0  0  0  0
 18 22  1  0  0  0  0
 23 24  2  0  0  0  0
 23 25  1  0  0  0  0
 23 29  1  0  0  0  0
 25 26  1  0  0  0  0
 25 27  1  0  0  0  0
 25 28  1  0  0  0  0
 29 30  1  0  0  0  0
 29 34  1  0  0  0  0
 30 31  1  0  0  0  0
 30 33  1  0  0  0  0
 30 35  1  0  0  0  0
 31 32  2  0  0  0  0
 31 39  1  0  0  0  0
 33 36  1  0  0  0  0
 33 37  1  0  0  0  0
 33 38  1  0  0  0  0
 39 40  1  0  0  0  0
 39 45  1  0  0  0  0
 40 41  1  0  0  0  0
 40 43  1  0  0  0  0
 40 46  1  0  0  0  0
 41 42  2  0  0  0  0
 41 49  1  0  0  0  0
 43 44  1  0  0  0  0
 43 47  1  0  0  0  0
 43 48  1  0  0  0  0
 49 50  1  0  0  0  0
 49 54  1  0  0  0  0
 50 51  1  0  0  0  0
 50 53  1  0  0  0  0
 50 55  1  0  0  0  0
 51 52  2  0  0  0  0
 51 59  1  0  0  0  0
 53 56  1  0  0  0  0
 53 57  1  0  0  0  0
 53 58  1  0  0  0  0
 59 60  1  0  0  0  0
 59 61  1  0  0  0  0
 60 62  1  0  0  0  0
 60 63  1  0  0  0  0
 60 64  1  0  0  0  0
M  END
$$$$

  -OEChem-05262216053D

 64 63  0     1  0  0  0  0  0999 V2000
    1.8329   -3.3313   -9.3994 C   0  0  0  0  0  0  0  0  0  0  0  0
    0.6535   -3.1351   -9.6485 O   0  0  0  0  0  0  0  0  0  0  0  0
    2.4927   -4.6373   -9.7997 C   0  0  0  0  0  0  0  0  0  0  0  0
    2.9113   -5.1277   -8.9175 H   0  0  0  0  0  0  0  0  0  0  0  0
    1.7589   -5.3058  -10.2586 H   0  0  0  0  0  0  0  0  0  0  0  0
    3.2941   -4.4469  -10.5176 H   0  0  0  0  0  0  0  0  0  0  0  0
    2.5617   -2.3622   -8.7453 N   0  0  0  0  0  0  0  0  0  0  0  0
    2.0272   -1.0615   -8.3179 C   0  0  2  0  0  0  0  0  0  0  0  0
    3.1363    0.0020   -8.1578 C   0  0  0  0  0  0  0  0  0  0  0  0
    4.3155   -0.3091   -8.2872 O   0  0  0  0  0  0  0  0  0  0  0  0
    1.2514   -1.2402   -7.0035 C   0  0  0  0  0  0  0  0  0  0  0  0
    2.3501   -1.8440   -5.6566 S   0  0  0  0  0  0  0  0  0  0  0  0
    3.5557   -2.5297   -8.5935 H   0  0  0  0  0  0  0  0  0  0  0  0
    1.3412   -0.6906   -9.0865 H   0  0  0  0  0  0  0  0  0  0  0  0
    0.8029   -0.2879   -6.7080 H   0  0  0  0  0  0  0  0  0  0  0  0
    0.4362   -1.9559   -7.1517 H   0  0  0  0  0  0  0  0  0  0  0  0
    2.8130    1.3229   -7.8979 N   0  0  0  0  0  0  0  0  0  0  0  0
    3.8104    2.3776   -7.7611 C   0  0  0  0  0  0  0  0  0  0  0  0
    1.8294    1.5707   -7.8456 H   0  0  0  0  0  0  0  0  0  0  0  0
    4.5132    2.1382   -6.9557 H   0  0  0  0  0  0  0  0  0  0  0  0
    4.3706    2.4984   -8.6944 H   0  0  0  0  0  0  0  0  0  0  0  0
    3.3254    3.3295   -7.5234 H   0  0  0  0  0  0  0  0  0  0  0  0
   -5.4195    0.9649   -1.3982 C   0  0  0  0  0  0  0  0  0  0  0  0
   -5.7285   -0.1516   -1.7828 O   0  0  0  0  0  0  0  0  0  0  0  0
   -6.2559    1.6622   -0.3421 C   0  0  0  0  0  0  0  0  0  0  0  0
   -6.6146    2.6217   -0.7222 H   0  0  0  0  0  0  0  0  0  0  0  0
   -7.1183    1.0442   -0.0765 H   0  0  0  0  0  0  0  0  0  0  0  0
   -5.6557    1.8336    0.5548 H   0  0  0  0  0  0  0  0  0  0  0  0
   -4.3008    1.5876   -1.9113 N   0  0  0  0  0  0  0  0  0  0  0  0
   -3.3140    0.9310   -2.7799 C   0  0  2  0  0  0  0  0  0  0  0  0
   -1.8695    1.2599   -2.3497 C   0  0  0  0  0  0  0  0  0  0  0  0
   -1.6551    2.3023   -1.7451 O   0  0  0  0  0  0  0  0  0  0  0  0
   -3.5612    1.3987   -4.2160 C   0  0  0  0  0  0  0  0  0  0  0  0
   -4.0042    2.4519   -1.4596 H   0  0  0  0  0  0  0  0  0  0  0  0
   -3.4310   -0.1569   -2.7310 H   0  0  0  0  0  0  0  0  0  0  0  0
   -3.4320    2.4834   -4.2919 H   0  0  0  0  0  0  0  0  0  0  0  0
   -2.8613    0.9151   -4.9041 H   0  0  0  0  0  0  0  0  0  0  0  0
   -4.5801    1.1459   -4.5258 H   0  0  0  0  0  0  0  0  0  0  0  0
   -0.8432    0.3872   -2.6825 N   0  0  0  0  0  0  0  0  0  0  0  0
    0.5923    0.4735   -2.3301 C   0  0  2  0  0  0  0  0  0  0  0  0
    1.1151    1.8283   -1.7998 C   0  0  0  0  0  0  0  0  0  0  0  0
    1.4789    1.9323   -0.6353 O   0  0  0  0  0  0  0  0  0  0  0  0
    1.3907    0.0808   -3.5791 C   0  0  0  0  0  0  0  0  0  0  0  0
    1.0798   -1.6764   -4.0133 S   0  0  0  0  0  0  0  0  0  0  0  0
   -1.1374   -0.4706   -3.1443 H   0  0  0  0  0  0  0  0  0  0  0  0
    0.7951   -0.2551   -1.5384 H   0  0  0  0  0  0  0  0  0  0  0  0
    1.1213    0.7247   -4.4214 H   0  0  0  0  0  0  0  0  0  0  0  0
    2.4617    0.2101   -3.3869 H   0  0  0  0  0  0  0  0  0  0  0  0
    1.3074    2.8842   -2.6716 N   0  0  0  0  0  0  0  0  0  0  0  0
    1.4256    4.2711   -2.2141 C   0  0  2  0  0  0  0  0  0  0  0  0
    0.5575    5.1965   -3.0911 C   0  0  0  0  0  0  0  0  0  0  0  0
    0.2240    4.8405   -4.2189 O   0  0  0  0  0  0  0  0  0  0  0  0
    2.8975    4.6845   -2.2765 C   0  0  0  0  0  0  0  0  0  0  0  0
    0.8498    2.7801   -3.5759 H   0  0  0  0  0  0  0  0  0  0  0  0
    1.0656    4.3614   -1.1830 H   0  0  0  0  0  0  0  0  0  0  0  0
    3.2708    4.6162   -3.3030 H   0  0  0  0  0  0  0  0  0  0  0  0
    3.0215    5.7139   -1.9270 H   0  0  0  0  0  0  0  0  0  0  0  0
    3.5005    4.0285   -1.6408 H   0  0  0  0  0  0  0  0  0  0  0  0
    0.1598    6.4337   -2.6201 N   0  0  0  0  0  0  0  0  0  0  0  0
   -0.7032    7.3364   -3.3711 C   0  0  0  0  0  0  0  0  0  0  0  0
    0.3964    6.6659   -1.6596 H   0  0  0  0  0  0  0  0  0  0  0  0
   -0.2467    7.5911   -4.3334 H   0  0  0  0  0  0  0  0  0  0  0  0
   -1.6777    6.8716   -3.5540 H   0  0  0  0  0  0  0  0  0  0  0  0
   -0.8613    8.2619   -2.8088 H   0  0  0  0  0  0  0  0  0  0  0  0
  1  2  2  0  0  0  0
  1  3  1  0  0  0  0
  1  7  1  0  0  0  0
  3  4  1  0  0  0  0
  3  5  1  0  0  0  0
  3  6  1  0  0  0  0
  7  8  1  0  0  0  0
  7 13  1  0  0  0  0
  8  9  1  0  0  0  0
  8 11  1  0  0  0  0
  8 14  1  0  0  0  0
  9 10  2  0  0  0  0
  9 17  1  0  0  0  0
 11 12  1  0  0  0  0
 11 15  1  0  0  0  0
 11 16  1  0  0  0  0
 12 44  1  0  0  0  0
 17 18  1  0  0  0  0
 17 19  1  0  0  0  0
 18 20  1  0  0  0  0
 18 21  1  0  0  0  0
 18 22  1  0  0  0  0
 23 24  2  0  0  0  0
 23 25  1  0  0  0  0
 23 29  1  0  0  0  0
 25 26  1  0  0  0  0
 25 27  1  0  0  0  0
 25 28  1  0  0  0  0
 29 30  1  0  0  0  0
 29 34  1  0  0  0  0
 30 31  1  0  0  0  0
 30 33  1  0  0  0  0
 30 35  1  0  0  0  0
 31 32  2  0  0  0  0
 31 39  1  0  0  0  0
 33 36  1  0  0  0  0
 33 37  1  0  0  0  0
 33 38  1  0  0  0  0
 39 40  1  0  0  0  0
 39 45  1  0  0  0  0
 40 41  1  0  0  0  0
 40 43  1  0  0  0  0
 40 46  1  0  0  0  0
 41 42  2  0  0  0  0
 41 49  1  0  0  0  0
 43 44  1  0  0  0  0
 43 47  1  0  0  0  0
 43 48  1  0  0  0  0
 49 50  1  0  0  0  0
 49 54  1  0  0  0  0
 50 51  1  0  0  0  0
 50 53  1  0  0  0  0
 50 55  1  0  0  0  0
 51 52  2  0  0  0  0
 51 59  1  0  0  0  0
 53 56  1  0  0  0  0
 53 57  1  0  0  0  0
 53 58  1  0  0  0  0
 59 60  1  0  0  0  0
 59 61  1  0  0  0  0
 60 62  1  0  0  0  0
 60 63  1  0  0  0  0
 60 64  1  0  0  0  0
M  END
$$$$

  -OEChem-05262216053D

 64 63  0     1  0  0  0  0  0999 V2000
    1.8628   -3.3918   -9.4075 C   0  0  0  0  0  0  0  0  0  0  0  0
    0.6988   -3.1756   -9.7073 O   0  0  0  0  0  0  0  0  0  0  0  0
    2.5236   -4.7008   -9.7948 C   0  0  0  0  0  0  0  0  0  0  0  0
    2.7803   -5.2667   -8.8959 H   0  0  0  0  0  0  0  0  0  0  0  0
    1.8438   -5.3003  -10.4070 H   0  0  0  0  0  0  0  0  0  0  0  0
    3.4340   -4.5056  -10.3670 H   0  0  0  0  0  0  0  0  0  0  0  0
    2.5763   -2.4390   -8.7151 N   0  0  0  0  0  0  0  0  0  0  0  0
    2.0540   -1.1191   -8.3357 C   0  0  2  0  0  0  0  0  0  0  0  0
    3.1792   -0.0703   -8.1976 C   0  0  0  0  0  0  0  0  0  0  0  0
    4.3552   -0.4077   -8.2838 O   0  0  0  0  0  0  0  0  0  0  0  0
    1.2560   -1.2487   -7.0285 C   0  0  0  0  0  0  0  0  0  0  0  0
    2.3201   -1.8312   -5.6450 S   0  0  0  0  0  0  0  0  0  0  0  0
    3.5653   -2.6145   -8.5407 H   0  0  0  0  0  0  0  0  0  0  0  0
    1.3842   -0.7593   -9.1240 H   0  0  0  0  0  0  0  0  0  0  0  0
    0.8169   -0.2826   -6.7658 H   0  0  0  0  0  0  0  0  0  0  0  0
    0.4335   -1.9570   -7.1721 H   0  0  0  0  0  0  0  0  0  0  0  0
    2.8745    1.2682   -8.0209 N   0  0  0  0  0  0  0  0  0  0  0  0
    3.8887    2.3124   -7.9322 C   0  0  0  0  0  0  0  0  0  0  0  0
    1.8943    1.5342   -8.0128 H   0  0  0  0  0  0  0  0  0  0  0  0
    4.5616    2.1224   -7.0893 H   0  0  0  0  0  0  0  0  0  0  0  0
    4.4805    2.3531   -8.8527 H   0  0  0  0  0  0  0  0  0  0  0  0
    3.4151    3.2872   -7.7830 H   0  0  0  0  0  0  0  0  0  0  0  0
   -5.4205    0.9250   -1.4201 C   0  0  0  0  0  0  0  0  0  0  0  0
   -5.6951   -0.1708   -1.8826 O   0  0  0  0  0  0  0  0  0  0  0  0
   -6.2645    1.5089   -0.3031 C   0  0  0  0  0  0  0  0  0  0  0  0
   -6.6546    2.4847   -0.6008 H   0  0  0  0  0  0  0  0  0  0  0  0
   -7.1057    0.8461   -0.0813 H   0  0  0  0  0  0  0  0  0  0  0  0
   -5.6591    1.6257    0.5992 H   0  0  0  0  0  0  0  0  0  0  0  0
   -4.3319    1.6263   -1.8952 N   0  0  0  0  0  0  0  0  0  0  0  0
   -3.3116    1.0592   -2.7882 C   0  0  2  0  0  0  0  0  0  0  0  0
   -1.8893    1.2644   -2.2278 C   0  0  0  0  0  0  0  0  0  0  0  0
   -1.6796    2.1991   -1.4656 O   0  0  0  0  0  0  0  0  0  0  0  0
   -3.4449    1.7419   -4.1514 C   0  0  0  0  0  0  0  0  0  0  0  0
   -4.0581    2.4541   -1.3678 H   0  0  0  0  0  0  0  0  0  0  0  0
   -3.4662   -0.0179   -2.9114 H   0  0  0  0  0  0  0  0  0  0  0  0
   -3.2567    2.8173   -4.0617 H   0  0  0  0  0  0  0  0  0  0  0  0
   -2.7275    1.3218   -4.8626 H   0  0  0  0  0  0  0  0  0  0  0  0
   -4.4537    1.5958   -4.5504 H   0  0  0  0  0  0  0  0  0  0  0  0
   -0.8734    0.3942   -2.5969 N   0  0  0  0  0  0  0  0  0  0  0  0
    0.5767    0.4926   -2.3098 C   0  0  2  0  0  0  0  0  0  0  0  0
    1.1138    1.8570   -1.8204 C   0  0  0  0  0  0  0  0  0  0  0  0
    1.7460    1.9384   -0.7753 O   0  0  0  0  0  0  0  0  0  0  0  0
    1.3229    0.1147   -3.5946 C   0  0  0  0  0  0  0  0  0  0  0  0
    1.0138   -1.6428   -4.0295 S   0  0  0  0  0  0  0  0  0  0  0  0
   -1.1643   -0.3998   -3.1629 H   0  0  0  0  0  0  0  0  0  0  0  0
    0.8246   -0.2312   -1.5256 H   0  0  0  0  0  0  0  0  0  0  0  0
    1.0154    0.7635   -4.4201 H   0  0  0  0  0  0  0  0  0  0  0  0
    2.3994    0.2520   -3.4444 H   0  0  0  0  0  0  0  0  0  0  0  0
    0.9693    2.9713   -2.6259 N   0  0  0  0  0  0  0  0  0  0  0  0
    1.0160    4.3363   -2.0963 C   0  0  2  0  0  0  0  0  0  0  0  0
   -0.1342    5.1725   -2.6965 C   0  0  0  0  0  0  0  0  0  0  0  0
   -0.6826    4.8095   -3.7350 O   0  0  0  0  0  0  0  0  0  0  0  0
    2.3761    4.9496   -2.4357 C   0  0  0  0  0  0  0  0  0  0  0  0
    0.3072    2.8501   -3.3911 H   0  0  0  0  0  0  0  0  0  0  0  0
    0.8829    4.3242   -1.0088 H   0  0  0  0  0  0  0  0  0  0  0  0
    2.5233    4.9803   -3.5199 H   0  0  0  0  0  0  0  0  0  0  0  0
    2.4457    5.9691   -2.0447 H   0  0  0  0  0  0  0  0  0  0  0  0
    3.1788    4.3529   -1.9910 H   0  0  0  0  0  0  0  0  0  0  0  0
   -0.5535    6.3355   -2.0779 N   0  0  0  0  0  0  0  0  0  0  0  0
   -1.6826    7.1266   -2.5506 C   0  0  0  0  0  0  0  0  0  0  0  0
   -0.1332    6.5648   -1.1817 H   0  0  0  0  0  0  0  0  0  0  0  0
   -1.5308    7.4277   -3.5926 H   0  0  0  0  0  0  0  0  0  0  0  0
   -2.6104    6.5490   -2.4821 H   0  0  0  0  0  0  0  0  0  0  0  0
   -1.7914    8.0307   -1.9440 H   0  0  0  0  0  0  0  0  0  0  0  0
  1  2  2  0  0  0  0
  1  3  1  0  0  0  0
  1  7  1  0  0  0  0
  3  4  1  0  0  0  0
  3  5  1  0  0  0  0
  3  6  1  0  0  0  0
  7  8  1  0  0  0  0
  7 13  1  0  0  0  0
  8  9  1  0  0  0  0
  8 11  1  0  0  0  0
  8 14  1  0  0  0  0
  9 10  2  0  0  0  0
  9 17  1  0  0  0  0
 11 12  1  0  0  0  0
 11 15  1  0  0  0  0
 11 16  1  0  0  0  0
 12 44  1  0  0  0  0
 17 18  1  0  0  0  0
 17 19  1  0  0  0  0
 18 20  1  0  0  0  0
 18 21  1  0  0  0  0
 18 22  1  0  0  0  0
 23 24  2  0  0  0  0
 23 25  1  0  0  0  0
 23 29  1  0  0  0  0
 25 26  1  0  0  0  0
 25 27  1  0  0  0  0
 25 28  1  0  0  0  0
 29 30  1  0  0  0  0
 29 34  1  0  0  0  0
 30 31  1  0  0  0  0
 30 33  1  0  0  0  0
 30 35  1  0  0  0  0
 31 32  2  0  0  0  0
 31 39  1  0  0  0  0
 33 36  1  0  0  0  0
 33 37  1  0  0  0  0
 33 38  1  0  0  0  0
 39 40  1  0  0  0  0
 39 45  1  0  0  0  0
 40 41  1  0  0  0  0
 40 43  1  0  0  0  0
 40 46  1  0  0  0  0
 41 42  2  0  0  0  0
 41 49  1  0  0  0  0
 43 44  1  0  0  0  0
 43 47  1  0  0  0  0
 43 48  1  0  0  0  0
 49 50  1  0  0  0  0
 49 54  1  0  0  0  0
 50 51  1  0  0  0  0
 50 53  1  0  0  0  0
 50 55  1  0  0  0  0
 51 52  2  0  0  0  0
 51 59  1  0  0  0  0
 53 56  1  0  0  0  0
 53 57  1  0  0  0  0
 53 58  1  0  0  0  0
 59 60  1  0  0  0  0
 59 61  1  0  0  0  0
 60 62  1  0  0  0  0
 60 63  1  0  0  0  0
 60 64  1  0  0  0  0
M  END
$$$$

  -OEChem-05262216053D

 64 63  0     1  0  0  0  0  0999 V2000
    1.8585   -3.4168   -9.3698 C   0  0  0  0  0  0  0  0  0  0  0  0
    0.6835   -3.2183   -9.6378 O   0  0  0  0  0  0  0  0  0  0  0  0
    2.5276   -4.7172   -9.7731 C   0  0  0  0  0  0  0  0  0  0  0  0
    2.8378   -5.2687   -8.8821 H   0  0  0  0  0  0  0  0  0  0  0  0
    1.8324   -5.3358  -10.3476 H   0  0  0  0  0  0  0  0  0  0  0  0
    3.4060   -4.5097  -10.3892 H   0  0  0  0  0  0  0  0  0  0  0  0
    2.5793   -2.4473   -8.7082 N   0  0  0  0  0  0  0  0  0  0  0  0
    2.0564   -1.1223   -8.3476 C   0  0  2  0  0  0  0  0  0  0  0  0
    3.1815   -0.0681   -8.2476 C   0  0  0  0  0  0  0  0  0  0  0  0
    4.3544   -0.4014   -8.3817 O   0  0  0  0  0  0  0  0  0  0  0  0
    1.2767   -1.2300   -7.0282 C   0  0  0  0  0  0  0  0  0  0  0  0
    2.3743   -1.7396   -5.6429 S   0  0  0  0  0  0  0  0  0  0  0  0
    3.5766   -2.6058   -8.5671 H   0  0  0  0  0  0  0  0  0  0  0  0
    1.3738   -0.7823   -9.1337 H   0  0  0  0  0  0  0  0  0  0  0  0
    0.8157   -0.2674   -6.7921 H   0  0  0  0  0  0  0  0  0  0  0  0
    0.4716   -1.9637   -7.1385 H   0  0  0  0  0  0  0  0  0  0  0  0
    2.8825    1.2689   -8.0485 N   0  0  0  0  0  0  0  0  0  0  0  0
    3.9011    2.3092   -7.9601 C   0  0  0  0  0  0  0  0  0  0  0  0
    1.9041    1.5327   -7.9819 H   0  0  0  0  0  0  0  0  0  0  0  0
    4.5896    2.1020   -7.1337 H   0  0  0  0  0  0  0  0  0  0  0  0
    4.4747    2.3645   -8.8915 H   0  0  0  0  0  0  0  0  0  0  0  0
    3.4341    3.2829   -7.7839 H   0  0  0  0  0  0  0  0  0  0  0  0
   -5.4919    0.8243   -1.4346 C   0  0  0  0  0  0  0  0  0  0  0  0
   -5.7403   -0.2958   -1.8519 O   0  0  0  0  0  0  0  0  0  0  0  0
   -6.3601    1.4399   -0.3531 C   0  0  0  0  0  0  0  0  0  0  0  0
   -6.7622    2.3964   -0.6951 H   0  0  0  0  0  0  0  0  0  0  0  0
   -7.1931    0.7731   -0.1140 H   0  0  0  0  0  0  0  0  0  0  0  0
   -5.7683    1.6025    0.5510 H   0  0  0  0  0  0  0  0  0  0  0  0
   -4.4119    1.5263   -1.9282 N   0  0  0  0  0  0  0  0  0  0  0  0
   -3.3622    0.9353   -2.7713 C   0  0  2  0  0  0  0  0  0  0  0  0
   -1.9614    1.1334   -2.1568 C   0  0  0  0  0  0  0  0  0  0  0  0
   -1.7968    1.9951   -1.3037 O   0  0  0  0  0  0  0  0  0  0  0  0
   -3.4362    1.6033   -4.1463 C   0  0  0  0  0  0  0  0  0  0  0  0
   -4.1550    2.3724   -1.4211 H   0  0  0  0  0  0  0  0  0  0  0  0
   -3.5217   -0.1416   -2.8886 H   0  0  0  0  0  0  0  0  0  0  0  0
   -3.2562    2.6806   -4.0607 H   0  0  0  0  0  0  0  0  0  0  0  0
   -2.6874    1.1779   -4.8211 H   0  0  0  0  0  0  0  0  0  0  0  0
   -4.4264    1.4494   -4.5873 H   0  0  0  0  0  0  0  0  0  0  0  0
   -0.9044    0.3275   -2.5525 N   0  0  0  0  0  0  0  0  0  0  0  0
    0.5460    0.5316   -2.3188 C   0  0  2  0  0  0  0  0  0  0  0  0
    1.0367    1.9286   -1.8692 C   0  0  0  0  0  0  0  0  0  0  0  0
    1.9298    2.0275   -1.0381 O   0  0  0  0  0  0  0  0  0  0  0  0
    1.2726    0.1895   -3.6238 C   0  0  0  0  0  0  0  0  0  0  0  0
    1.0705   -1.5921   -4.0219 S   0  0  0  0  0  0  0  0  0  0  0  0
   -1.1502   -0.4339   -3.1815 H   0  0  0  0  0  0  0  0  0  0  0  0
    0.8645   -0.1654   -1.5363 H   0  0  0  0  0  0  0  0  0  0  0  0
    0.8928    0.8053   -4.4446 H   0  0  0  0  0  0  0  0  0  0  0  0
    2.3420    0.4029   -3.5129 H   0  0  0  0  0  0  0  0  0  0  0  0
    0.5611    3.0658   -2.4950 N   0  0  0  0  0  0  0  0  0  0  0  0
    0.6764    4.4049   -1.9153 C   0  0  2  0  0  0  0  0  0  0  0  0
   -0.6143    5.2078   -2.1849 C   0  0  0  0  0  0  0  0  0  0  0  0
   -1.3555    4.8928   -3.1132 O   0  0  0  0  0  0  0  0  0  0  0  0
    1.8954    5.1038   -2.5213 C   0  0  0  0  0  0  0  0  0  0  0  0
   -0.2909    2.9209   -3.0356 H   0  0  0  0  0  0  0  0  0  0  0  0
    0.8007    4.3307   -0.8294 H   0  0  0  0  0  0  0  0  0  0  0  0
    1.7868    5.1895   -3.6070 H   0  0  0  0  0  0  0  0  0  0  0  0
    2.0096    6.1072   -2.1008 H   0  0  0  0  0  0  0  0  0  0  0  0
    2.8042    4.5329   -2.3052 H   0  0  0  0  0  0  0  0  0  0  0  0
   -0.9501    6.2837   -1.3843 N   0  0  0  0  0  0  0  0  0  0  0  0
   -2.1959    7.0268   -1.5295 C   0  0  0  0  0  0  0  0  0  0  0  0
   -0.3600    6.4672   -0.5778 H   0  0  0  0  0  0  0  0  0  0  0  0
   -2.2933    7.4195   -2.5473 H   0  0  0  0  0  0  0  0  0  0  0  0
   -3.0535    6.3797   -1.3173 H   0  0  0  0  0  0  0  0  0  0  0  0
   -2.2158    7.8705   -0.8328 H   0  0  0  0  0  0  0  0  0  0  0  0
  1  2  2  0  0  0  0
  1  3  1  0  0  0  0
  1  7  1  0  0  0  0
  3  4  1  0  0  0  0
  3  5  1  0  0  0  0
  3  6  1  0  0  0  0
  7  8  1  0  0  0  0
  7 13  1  0  0  0  0
  8  9  1  0  0  0  0
  8 11  1  0  0  0  0
  8 14  1  0  0  0  0
  9 10  2  0  0  0  0
  9 17  1  0  0  0  0
 11 12  1  0  0  0  0
 11 15  1  0  0  0  0
 11 16  1  0  0  0  0
 12 44  1  0  0  0  0
 17 18  1  0  0  0  0
 17 19  1  0  0  0  0
 18 20  1  0  0  0  0
 18 21  1  0  0  0  0
 18 22  1  0  0  0  0
 23 24  2  0  0  0  0
 23 25  1  0  0  0  0
 23 29  1  0  0  0  0
 25 26  1  0  0  0  0
 25 27  1  0  0  0  0
 25 28  1  0  0  0  0
 29 30  1  0  0  0  0
 29 34  1  0  0  0  0
 30 31  1  0  0  0  0
 30 33  1  0  0  0  0
 30 35  1  0  0  0  0
 31 32  2  0  0  0  0
 31 39  1  0  0  0  0
 33 36  1  0  0  0  0
 33 37  1  0  0  0  0
 33 38  1  0  0  0  0
 39 40  1  0  0  0  0
 39 45  1  0  0  0  0
 40 41  1  0  0  0  0
 40 43  1  0  0  0  0
 40 46  1  0  0  0  0
 41 42  2  0  0  0  0
 41 49  1  0  0  0  0
 43 44  1  0  0  0  0
 43 47  1  0  0  0  0
 43 48  1  0  0  0  0
 49 50  1  0  0  0  0
 49 54  1  0  0  0  0
 50 51  1  0  0  0  0
 50 53  1  0  0  0  0
 50 55  1  0  0  0  0
 51 52  2  0  0  0  0
 51 59  1  0  0  0  0
 53 56  1  0  0  0  0
 53 57  1  0  0  0  0
 53 58  1  0  0  0  0
 59 60  1  0  0  0  0
 59 61  1  0  0  0  0
 60 62  1  0  0  0  0
 60 63  1  0  0  0  0
 60 64  1  0  0  0  0
M  END
$$$$

  -OEChem-05262216053D

 64 63  0     1  0  0  0  0  0999 V2000
    1.6863   -3.2306   -9.1594 C   0  0  0  0  0  0  0  0  0  0  0  0
    0.4924   -3.0344   -9.3264 O   0  0  0  0  0  0  0  0  0  0  0  0
    2.2978   -4.5750   -9.5047 C   0  0  0  0  0  0  0  0  0  0  0  0
    2.7645   -5.0106   -8.6177 H   0  0  0  0  0  0  0  0  0  0  0  0
    1.5254   -5.2585   -9.8680 H   0  0  0  0  0  0  0  0  0  0  0  0
    3.0543   -4.4521  -10.2835 H   0  0  0  0  0  0  0  0  0  0  0  0
    2.4767   -2.2237   -8.6507 N   0  0  0  0  0  0  0  0  0  0  0  0
    1.9948   -0.8824   -8.2926 C   0  0  2  0  0  0  0  0  0  0  0  0
    3.1333    0.1620   -8.2962 C   0  0  0  0  0  0  0  0  0  0  0  0
    4.2924   -0.1883   -8.4901 O   0  0  0  0  0  0  0  0  0  0  0  0
    1.3044   -0.9455   -6.9209 C   0  0  0  0  0  0  0  0  0  0  0  0
    2.4783   -1.4533   -5.5991 S   0  0  0  0  0  0  0  0  0  0  0  0
    3.4787   -2.3939   -8.5707 H   0  0  0  0  0  0  0  0  0  0  0  0
    1.2644   -0.5564   -9.0404 H   0  0  0  0  0  0  0  0  0  0  0  0
    0.8808    0.0315   -6.6736 H   0  0  0  0  0  0  0  0  0  0  0  0
    0.4779   -1.6625   -6.9611 H   0  0  0  0  0  0  0  0  0  0  0  0
    2.8579    1.5083   -8.1283 N   0  0  0  0  0  0  0  0  0  0  0  0
    3.8873    2.5416   -8.1362 C   0  0  0  0  0  0  0  0  0  0  0  0
    1.8888    1.7828   -8.0005 H   0  0  0  0  0  0  0  0  0  0  0  0
    4.6079    2.3703   -7.3296 H   0  0  0  0  0  0  0  0  0  0  0  0
    4.4222    2.5444   -9.0920 H   0  0  0  0  0  0  0  0  0  0  0  0
    3.4352    3.5276   -7.9915 H   0  0  0  0  0  0  0  0  0  0  0  0
   -5.8024    0.3852   -1.7679 C   0  0  0  0  0  0  0  0  0  0  0  0
   -6.0259   -0.7248   -2.2249 O   0  0  0  0  0  0  0  0  0  0  0  0
   -6.8380    1.0738   -0.8993 C   0  0  0  0  0  0  0  0  0  0  0  0
   -7.2282    1.9558   -1.4133 H   0  0  0  0  0  0  0  0  0  0  0  0
   -7.6661    0.3913   -0.6878 H   0  0  0  0  0  0  0  0  0  0  0  0
   -6.3861    1.3813    0.0469 H   0  0  0  0  0  0  0  0  0  0  0  0
   -4.6009    1.0085   -2.0305 N   0  0  0  0  0  0  0  0  0  0  0  0
   -3.4645    0.3566   -2.6949 C   0  0  2  0  0  0  0  0  0  0  0  0
   -2.1132    0.8403   -2.1265 C   0  0  0  0  0  0  0  0  0  0  0  0
   -2.0904    1.7548   -1.3164 O   0  0  0  0  0  0  0  0  0  0  0  0
   -3.5586    0.6440   -4.1966 C   0  0  0  0  0  0  0  0  0  0  0  0
   -4.4011    1.8683   -1.5189 H   0  0  0  0  0  0  0  0  0  0  0  0
   -3.5126   -0.7258   -2.5325 H   0  0  0  0  0  0  0  0  0  0  0  0
   -3.4911    1.7203   -4.3857 H   0  0  0  0  0  0  0  0  0  0  0  0
   -2.7516    0.1414   -4.7379 H   0  0  0  0  0  0  0  0  0  0  0  0
   -4.5130    0.2802   -4.5912 H   0  0  0  0  0  0  0  0  0  0  0  0
   -0.9443    0.1908   -2.4837 N   0  0  0  0  0  0  0  0  0  0  0  0
    0.4690    0.5368   -2.1938 C   0  0  2  0  0  0  0  0  0  0  0  0
    0.8803    1.9458   -1.6864 C   0  0  0  0  0  0  0  0  0  0  0  0
    1.9641    2.0653   -1.1280 O   0  0  0  0  0  0  0  0  0  0  0  0
    1.2330    0.2978   -3.5020 C   0  0  0  0  0  0  0  0  0  0  0  0
    1.2059   -1.4842   -3.9479 S   0  0  0  0  0  0  0  0  0  0  0  0
   -1.0770   -0.6124   -3.0944 H   0  0  0  0  0  0  0  0  0  0  0  0
    0.8315   -0.1611   -1.4319 H   0  0  0  0  0  0  0  0  0  0  0  0
    0.8008    0.8990   -4.3077 H   0  0  0  0  0  0  0  0  0  0  0  0
    2.2784    0.6041   -3.3817 H   0  0  0  0  0  0  0  0  0  0  0  0
    0.1875    3.0950   -2.0183 N   0  0  0  0  0  0  0  0  0  0  0  0
    0.5512    4.4412   -1.5600 C   0  0  2  0  0  0  0  0  0  0  0  0
   -0.6829    5.3634   -1.4708 C   0  0  0  0  0  0  0  0  0  0  0  0
   -1.6654    5.1590   -2.1760 O   0  0  0  0  0  0  0  0  0  0  0  0
    1.5773    5.0316   -2.5329 C   0  0  0  0  0  0  0  0  0  0  0  0
   -0.8065    2.9488   -2.2159 H   0  0  0  0  0  0  0  0  0  0  0  0
    0.9915    4.3801   -0.5592 H   0  0  0  0  0  0  0  0  0  0  0  0
    1.1529    5.0987   -3.5399 H   0  0  0  0  0  0  0  0  0  0  0  0
    1.8767    6.0343   -2.2130 H   0  0  0  0  0  0  0  0  0  0  0  0
    2.4716    4.4019   -2.5724 H   0  0  0  0  0  0  0  0  0  0  0  0
   -0.6794    6.4502   -0.6154 N   0  0  0  0  0  0  0  0  0  0  0  0
   -1.8118    7.3567   -0.4702 C   0  0  0  0  0  0  0  0  0  0  0  0
    0.1339    6.5780   -0.0203 H   0  0  0  0  0  0  0  0  0  0  0  0
   -2.0465    7.8329   -1.4281 H   0  0  0  0  0  0  0  0  0  0  0  0
   -2.6954    6.8122   -0.1211 H   0  0  0  0  0  0  0  0  0  0  0  0
   -1.5794    8.1406    0.2569 H   0  0  0  0  0  0  0  0  0  0  0  0
  1  2  2  0  0  0  0
  1  3  1  0  0  0  0
  1  7  1  0  0  0  0
  3  4  1  0  0  0  0
  3  5  1  0  0  0  0
  3  6  1  0  0  0  0
  7  8  1  0  0  0  0
  7 13  1  0  0  0  0
  8  9  1  0  0  0  0
  8 11  1  0  0  0  0
  8 14  1  0  0  0  0
  9 10  2  0  0  0  0
  9 17  1  0  0  0  0
 11 12  1  0  0  0  0
 11 15  1  0  0  0  0
 11 16  1  0  0  0  0
 12 44  1  0  0  0  0
 17 18  1  0  0  0  0
 17 19  1  0  0  0  0
 18 20  1  0  0  0  0
 18 21  1  0  0  0  0
 18 22  1  0  0  0  0
 23 24  2  0  0  0  0
 23 25  1  0  0  0  0
 23 29  1  0  0  0  0
 25 26  1  0  0  0  0
 25 27  1  0  0  0  0
 25 28  1  0  0  0  0
 29 30  1  0  0  0  0
 29 34  1  0  0  0  0
 30 31  1  0  0  0  0
 30 33  1  0  0  0  0
 30 35  1  0  0  0  0
 31 32  2  0  0  0  0
 31 39  1  0  0  0  0
 33 36  1  0  0  0  0
 33 37  1  0  0  0  0
 33 38  1  0  0  0  0
 39 40  1  0  0  0  0
 39 45  1  0  0  0  0
 40 41  1  0  0  0  0
 40 43  1  0  0  0  0
 40 46  1  0  0  0  0
 41 42  2  0  0  0  0
 41 49  1  0  0  0  0
 43 44  1  0  0  0  0
 43 47  1  0  0  0  0
 43 48  1  0  0  0  0
 49 50  1  0  0  0  0
 49 54  1  0  0  0  0
 50 51  1  0  0  0  0
 50 53  1  0  0  0  0
 50 55  1  0  0  0  0
 51 52  2  0  0  0  0
 51 59  1  0  0  0  0
 53 56  1  0  0  0  0
 53 57  1  0  0  0  0
 53 58  1  0  0  0  0
 59 60  1  0  0  0  0
 59 61  1  0  0  0  0
 60 62  1  0  0  0  0
 60 63  1  0  0  0  0
 60 64  1  0  0  0  0
M  END
$$$$

  -OEChem-05262216053D

 64 63  0     1  0  0  0  0  0999 V2000
    1.6617   -3.2350   -9.2175 C   0  0  0  0  0  0  0  0  0  0  0  0
    0.4630   -3.0458   -9.3551 O   0  0  0  0  0  0  0  0  0  0  0  0
    2.2822   -4.5535   -9.6383 C   0  0  0  0  0  0  0  0  0  0  0  0
    2.7029   -5.0616   -8.7671 H   0  0  0  0  0  0  0  0  0  0  0  0
    1.5251   -5.1988  -10.0925 H   0  0  0  0  0  0  0  0  0  0  0  0
    3.0767   -4.3764  -10.3673 H   0  0  0  0  0  0  0  0  0  0  0  0
    2.4513   -2.2398   -8.6849 N   0  0  0  0  0  0  0  0  0  0  0  0
    1.9712   -0.8967   -8.3300 C   0  0  2  0  0  0  0  0  0  0  0  0
    3.1026    0.1536   -8.3878 C   0  0  0  0  0  0  0  0  0  0  0  0
    4.2507   -0.1890   -8.6501 O   0  0  0  0  0  0  0  0  0  0  0  0
    1.3226   -0.9435   -6.9375 C   0  0  0  0  0  0  0  0  0  0  0  0
    2.5505   -1.3681   -5.6355 S   0  0  0  0  0  0  0  0  0  0  0  0
    3.4590   -2.3931   -8.6581 H   0  0  0  0  0  0  0  0  0  0  0  0
    1.2154   -0.5860   -9.0590 H   0  0  0  0  0  0  0  0  0  0  0  0
    0.8711    0.0250   -6.7066 H   0  0  0  0  0  0  0  0  0  0  0  0
    0.5221   -1.6903   -6.9346 H   0  0  0  0  0  0  0  0  0  0  0  0
    2.8296    1.4968   -8.1950 N   0  0  0  0  0  0  0  0  0  0  0  0
    3.8534    2.5342   -8.2394 C   0  0  0  0  0  0  0  0  0  0  0  0
    1.8701    1.7626   -7.9967 H   0  0  0  0  0  0  0  0  0  0  0  0
    4.6074    2.3620   -7.4638 H   0  0  0  0  0  0  0  0  0  0  0  0
    4.3485    2.5432   -9.2162 H   0  0  0  0  0  0  0  0  0  0  0  0
    3.4037    3.5178   -8.0721 H   0  0  0  0  0  0  0  0  0  0  0  0
   -5.7558    0.7366   -1.9629 C   0  0  0  0  0  0  0  0  0  0  0  0
   -6.1259   -0.2921   -2.5063 O   0  0  0  0  0  0  0  0  0  0  0  0
   -6.7481    1.6046   -1.2126 C   0  0  0  0  0  0  0  0  0  0  0  0
   -6.7333    2.6207   -1.6142 H   0  0  0  0  0  0  0  0  0  0  0  0
   -7.7580    1.1985   -1.3163 H   0  0  0  0  0  0  0  0  0  0  0  0
   -6.4868    1.6362   -0.1522 H   0  0  0  0  0  0  0  0  0  0  0  0
   -4.4292    1.1060   -2.0189 N   0  0  0  0  0  0  0  0  0  0  0  0
   -3.3555    0.2552   -2.5519 C   0  0  2  0  0  0  0  0  0  0  0  0
   -2.0095    0.5557   -1.8564 C   0  0  0  0  0  0  0  0  0  0  0  0
   -1.9918    1.2599   -0.8577 O   0  0  0  0  0  0  0  0  0  0  0  0
   -3.2625    0.4923   -4.0646 C   0  0  0  0  0  0  0  0  0  0  0  0
   -4.1448    1.8933   -1.4340 H   0  0  0  0  0  0  0  0  0  0  0  0
   -3.5907   -0.7987   -2.3646 H   0  0  0  0  0  0  0  0  0  0  0  0
   -2.9852    1.5306   -4.2720 H   0  0  0  0  0  0  0  0  0  0  0  0
   -2.5174   -0.1683   -4.5172 H   0  0  0  0  0  0  0  0  0  0  0  0
   -4.2279    0.2896   -4.5393 H   0  0  0  0  0  0  0  0  0  0  0  0
   -0.8275   -0.0008   -2.3126 N   0  0  0  0  0  0  0  0  0  0  0  0
    0.5700    0.4637   -2.1178 C   0  0  2  0  0  0  0  0  0  0  0  0
    0.9024    1.9026   -1.6205 C   0  0  0  0  0  0  0  0  0  0  0  0
    2.0650    2.1652   -1.3375 O   0  0  0  0  0  0  0  0  0  0  0  0
    1.2418    0.2938   -3.4890 C   0  0  0  0  0  0  0  0  0  0  0  0
    1.3240   -1.4825   -3.9516 S   0  0  0  0  0  0  0  0  0  0  0  0
   -0.9490   -0.6858   -3.0551 H   0  0  0  0  0  0  0  0  0  0  0  0
    1.0456   -0.2075   -1.3951 H   0  0  0  0  0  0  0  0  0  0  0  0
    0.6994    0.8617   -4.2509 H   0  0  0  0  0  0  0  0  0  0  0  0
    2.2660    0.6817   -3.4523 H   0  0  0  0  0  0  0  0  0  0  0  0
   -0.0090    2.9409   -1.6094 N   0  0  0  0  0  0  0  0  0  0  0  0
    0.2550    4.2988   -1.1222 C   0  0  2  0  0  0  0  0  0  0  0  0
   -1.0544    5.0055   -0.7076 C   0  0  0  0  0  0  0  0  0  0  0  0
   -2.1307    4.6582   -1.1851 O   0  0  0  0  0  0  0  0  0  0  0  0
    0.9525    5.0994   -2.2273 C   0  0  0  0  0  0  0  0  0  0  0  0
   -0.9901    2.6493   -1.5874 H   0  0  0  0  0  0  0  0  0  0  0  0
    0.9033    4.2493   -0.2412 H   0  0  0  0  0  0  0  0  0  0  0  0
    0.3209    5.1455   -3.1202 H   0  0  0  0  0  0  0  0  0  0  0  0
    1.1554    6.1203   -1.8904 H   0  0  0  0  0  0  0  0  0  0  0  0
    1.9042    4.6314   -2.4972 H   0  0  0  0  0  0  0  0  0  0  0  0
   -1.0241    6.0541    0.1936 N   0  0  0  0  0  0  0  0  0  0  0  0
   -2.2215    6.7461    0.6548 C   0  0  0  0  0  0  0  0  0  0  0  0
   -0.1271    6.2946    0.6054 H   0  0  0  0  0  0  0  0  0  0  0  0
   -2.7566    7.1915   -0.1905 H   0  0  0  0  0  0  0  0  0  0  0  0
   -2.8919    6.0493    1.1688 H   0  0  0  0  0  0  0  0  0  0  0  0
   -1.9519    7.5454    1.3519 H   0  0  0  0  0  0  0  0  0  0  0  0
  1  2  2  0  0  0  0
  1  3  1  0  0  0  0
  1  7  1  0  0  0  0
  3  4  1  0  0  0  0
  3  5  1  0  0  0  0
  3  6  1  0  0  0  0
  7  8  1  0  0  0  0
  7 13  1  0  0  0  0
  8  9  1  0  0  0  0
  8 11  1  0  0  0  0
  8 14  1  0  0  0  0
  9 10  2  0  0  0  0
  9 17  1  0  0  0  0
 11 12  1  0  0  0  0
 11 15  1  0  0  0  0
 11 16  1  0  0  0  0
 12 44  1  0  0  0  0
 17 18  1  0  0  0  0
 17 19  1  0  0  0  0
 18 20  1  0  0  0  0
 18 21  1  0  0  0  0
 18 22  1  0  0  0  0
 23 24  2  0  0  0  0
 23 25  1  0  0  0  0
 23 29  1  0  0  0  0
 25 26  1  0  0  0  0
 25 27  1  0  0  0  0
 25 28  1  0  0  0  0
 29 30  1  0  0  0  0
 29 34  1  0  0  0  0
 30 31  1  0  0  0  0
 30 33  1  0  0  0  0
 30 35  1  0  0  0  0
 31 32  2  0  0  0  0
 31 39  1  0  0  0  0
 33 36  1  0  0  0  0
 33 37  1  0  0  0  0
 33 38  1  0  0  0  0
 39 40  1  0  0  0  0
 39 45  1  0  0  0  0
 40 41  1  0  0  0  0
 40 43  1  0  0  0  0
 40 46  1  0  0  0  0
 41 42  2  0  0  0  0
 41 49  1  0  0  0  0
 43 44  1  0  0  0  0
 43 47  1  0  0  0  0
 43 48  1  0  0  0  0
 49 50  1  0  0  0  0
 49 54  1  0  0  0  0
 50 51  1  0  0  0  0
 50 53  1  0  0  0  0
 50 55  1  0  0  0  0
 51 52  2  0  0  0  0
 51 59  1  0  0  0  0
 53 56  1  0  0  0  0
 53 57  1  0  0  0  0
 53 58  1  0  0  0  0
 59 60  1  0  0  0  0
 59 61  1  0  0  0  0
 60 62  1  0  0  0  0
 60 63  1  0  0  0  0
 60 64  1  0  0  0  0
M  END
$$$$

  -OEChem-05262216053D

 64 63  0     1  0  0  0  0  0999 V2000
    1.6559   -3.2279   -9.2478 C   0  0  0  0  0  0  0  0  0  0  0  0
    0.4512   -3.0535   -9.3481 O   0  0  0  0  0  0  0  0  0  0  0  0
    2.2789   -4.5421   -9.6772 C   0  0  0  0  0  0  0  0  0  0  0  0
    2.7328   -5.0370   -8.8151 H   0  0  0  0  0  0  0  0  0  0  0  0
    1.5157   -5.2004  -10.1016 H   0  0  0  0  0  0  0  0  0  0  0  0
    3.0481   -4.3618  -10.4322 H   0  0  0  0  0  0  0  0  0  0  0  0
    2.4505   -2.2206   -8.7469 N   0  0  0  0  0  0  0  0  0  0  0  0
    1.9655   -0.8846   -8.3743 C   0  0  2  0  0  0  0  0  0  0  0  0
    3.0848    0.1771   -8.4561 C   0  0  0  0  0  0  0  0  0  0  0  0
    4.2276   -0.1524   -8.7562 O   0  0  0  0  0  0  0  0  0  0  0  0
    1.3490   -0.9471   -6.9677 C   0  0  0  0  0  0  0  0  0  0  0  0
    2.6114   -1.3618   -5.6966 S   0  0  0  0  0  0  0  0  0  0  0  0
    3.4601   -2.3636   -8.7462 H   0  0  0  0  0  0  0  0  0  0  0  0
    1.1901   -0.5786   -9.0842 H   0  0  0  0  0  0  0  0  0  0  0  0
    0.8889    0.0134   -6.7206 H   0  0  0  0  0  0  0  0  0  0  0  0
    0.5596   -1.7053   -6.9518 H   0  0  0  0  0  0  0  0  0  0  0  0
    2.8043    1.5167   -8.2504 N   0  0  0  0  0  0  0  0  0  0  0  0
    3.8124    2.5666   -8.3407 C   0  0  0  0  0  0  0  0  0  0  0  0
    1.8472    1.7725   -8.0289 H   0  0  0  0  0  0  0  0  0  0  0  0
    4.6241    2.3811   -7.6292 H   0  0  0  0  0  0  0  0  0  0  0  0
    4.2322    2.6084   -9.3513 H   0  0  0  0  0  0  0  0  0  0  0  0
    3.3681    3.5397   -8.1103 H   0  0  0  0  0  0  0  0  0  0  0  0
   -5.2870    1.6148   -1.7853 C   0  0  0  0  0  0  0  0  0  0  0  0
   -5.9932    0.7617   -2.3012 O   0  0  0  0  0  0  0  0  0  0  0  0
   -5.9137    2.8103   -1.0933 C   0  0  0  0  0  0  0  0  0  0  0  0
   -5.5424    3.7357   -1.5401 H   0  0  0  0  0  0  0  0  0  0  0  0
   -7.0020    2.7788   -1.1948 H   0  0  0  0  0  0  0  0  0  0  0  0
   -5.6555    2.8004   -0.0315 H   0  0  0  0  0  0  0  0  0  0  0  0
   -3.9155    1.4939   -1.8267 N   0  0  0  0  0  0  0  0  0  0  0  0
   -3.2071    0.2878   -2.2884 C   0  0  2  0  0  0  0  0  0  0  0  0
   -1.8678    0.1139   -1.5386 C   0  0  0  0  0  0  0  0  0  0  0  0
   -1.7774    0.4685   -0.3716 O   0  0  0  0  0  0  0  0  0  0  0  0
   -3.0188    0.4015   -3.8075 C   0  0  0  0  0  0  0  0  0  0  0  0
   -3.3928    2.1834   -1.2747 H   0  0  0  0  0  0  0  0  0  0  0  0
   -3.8097   -0.6012   -2.0711 H   0  0  0  0  0  0  0  0  0  0  0  0
   -2.3862    1.2605   -4.0524 H   0  0  0  0  0  0  0  0  0  0  0  0
   -2.5597   -0.5055   -4.2113 H   0  0  0  0  0  0  0  0  0  0  0  0
   -3.9885    0.5353   -4.2979 H   0  0  0  0  0  0  0  0  0  0  0  0
   -0.7194   -0.3596   -2.1480 N   0  0  0  0  0  0  0  0  0  0  0  0
    0.6441    0.2330   -2.0666 C   0  0  2  0  0  0  0  0  0  0  0  0
    0.8624    1.6912   -1.5457 C   0  0  0  0  0  0  0  0  0  0  0  0
    1.9833    2.1813   -1.5940 O   0  0  0  0  0  0  0  0  0  0  0  0
    1.2074    0.1466   -3.4958 C   0  0  0  0  0  0  0  0  0  0  0  0
    1.4142   -1.6062   -4.0054 S   0  0  0  0  0  0  0  0  0  0  0  0
   -0.9025   -0.8420   -3.0243 H   0  0  0  0  0  0  0  0  0  0  0  0
    1.2437   -0.4014   -1.4051 H   0  0  0  0  0  0  0  0  0  0  0  0
    0.5543    0.6750   -4.1964 H   0  0  0  0  0  0  0  0  0  0  0  0
    2.1933    0.6223   -3.5391 H   0  0  0  0  0  0  0  0  0  0  0  0
   -0.1678    2.5137   -1.1375 N   0  0  0  0  0  0  0  0  0  0  0  0
   -0.1049    3.9278   -0.7596 C   0  0  2  0  0  0  0  0  0  0  0  0
   -1.4711    4.3727   -0.1881 C   0  0  0  0  0  0  0  0  0  0  0  0
   -2.5042    3.7911   -0.5195 O   0  0  0  0  0  0  0  0  0  0  0  0
    0.2319    4.7909   -1.9833 C   0  0  0  0  0  0  0  0  0  0  0  0
   -1.0299    2.0279   -0.8813 H   0  0  0  0  0  0  0  0  0  0  0  0
    0.6605    4.0641    0.0112 H   0  0  0  0  0  0  0  0  0  0  0  0
   -0.5045    4.6290   -2.7768 H   0  0  0  0  0  0  0  0  0  0  0  0
    0.2280    5.8519   -1.7158 H   0  0  0  0  0  0  0  0  0  0  0  0
    1.2235    4.5435   -2.3734 H   0  0  0  0  0  0  0  0  0  0  0  0
   -1.5500    5.4435    0.6829 N   0  0  0  0  0  0  0  0  0  0  0  0
   -2.7988    5.9013    1.2800 C   0  0  0  0  0  0  0  0  0  0  0  0
   -0.6791    5.8802    0.9719 H   0  0  0  0  0  0  0  0  0  0  0  0
   -3.5194    6.1743    0.5019 H   0  0  0  0  0  0  0  0  0  0  0  0
   -3.2352    5.1157    1.9057 H   0  0  0  0  0  0  0  0  0  0  0  0
   -2.6178    6.7812    1.9048 H   0  0  0  0  0  0  0  0  0  0  0  0
  1  2  2  0  0  0  0
  1  3  1  0  0  0  0
  1  7  1  0  0  0  0
  3  4  1  0  0  0  0
  3  5  1  0  0  0  0
  3  6  1  0  0  0  0
  7  8  1  0  0  0  0
  7 13  1  0  0  0  0
  8  9  1  0  0  0  0
  8 11  1  0  0  0  0
  8 14  1  0  0  0  0
  9 10  2  0  0  0  0
  9 17  1  0  0  0  0
 11 12  1  0  0  0  0
 11 15  1  0  0  0  0
 11 16  1  0  0  0  0
 12 44  1  0  0  0  0
 17 18  1  0  0  0  0
 17 19  1  0  0  0  0
 18 20  1  0  0  0  0
 18 21  1  0  0  0  0
 18 22  1  0  0  0  0
 23 24  2  0  0  0  0
 23 25  1  0  0  0  0
 23 29  1  0  0  0  0
 25 26  1  0  0  0  0
 25 27  1  0  0  0  0
 25 28  1  0  0  0  0
 29 30  1  0  0  0  0
 29 34  1  0  0  0  0
 30 31  1  0  0  0  0
 30 33  1  0  0  0  0
 30 35  1  0  0  0  0
 31 32  2  0  0  0  0
 31 39  1  0  0  0  0
 33 36  1  0  0  0  0
 33 37  1  0  0  0  0
 33 38  1  0  0  0  0
 39 40  1  0  0  0  0
 39 45  1  0  0  0  0
 40 41  1  0  0  0  0
 40 43  1  0  0  0  0
 40 46  1  0  0  0  0
 41 42  2  0  0  0  0
 41 49  1  0  0  0  0
 43 44  1  0  0  0  0
 43 47  1  0  0  0  0
 43 48  1  0  0  0  0
 49 50  1  0  0  0  0
 49 54  1  0  0  0  0
 50 51  1  0  0  0  0
 50 53  1  0  0  0  0
 50 55  1  0  0  0  0
 51 52  2  0  0  0  0
 51 59  1  0  0  0  0
 53 56  1  0  0  0  0
 53 57  1  0  0  0  0
 53 58  1  0  0  0  0
 59 60  1  0  0  0  0
 59 61  1  0  0  0  0
 60 62  1  0  0  0  0
 60 63  1  0  0  0  0
 60 64  1  0  0  0  0
M  END
$$$$

  -OEChem-05262216053D

 64 63  0     1  0  0  0  0  0999 V2000
    1.7458   -3.2693   -9.2911 C   0  0  0  0  0  0  0  0  0  0  0  0
    0.5810   -3.0277   -9.5685 O   0  0  0  0  0  0  0  0  0  0  0  0
    2.3526   -4.6160   -9.6355 C   0  0  0  0  0  0  0  0  0  0  0  0
    2.7393   -5.0929   -8.7315 H   0  0  0  0  0  0  0  0  0  0  0  0
    1.5964   -5.2679  -10.0816 H   0  0  0  0  0  0  0  0  0  0  0  0
    3.1704   -4.4848  -10.3482 H   0  0  0  0  0  0  0  0  0  0  0  0
    2.5134   -2.3077   -8.6723 N   0  0  0  0  0  0  0  0  0  0  0  0
    2.0515   -0.9516   -8.3453 C   0  0  2  0  0  0  0  0  0  0  0  0
    3.2278    0.0400   -8.2081 C   0  0  0  0  0  0  0  0  0  0  0  0
    4.3833   -0.3491   -8.3418 O   0  0  0  0  0  0  0  0  0  0  0  0
    1.2094   -0.9958   -7.0599 C   0  0  0  0  0  0  0  0  0  0  0  0
    2.1947   -1.5942   -5.6269 S   0  0  0  0  0  0  0  0  0  0  0  0
    3.4997   -2.5120   -8.5141 H   0  0  0  0  0  0  0  0  0  0  0  0
    1.4237   -0.5840   -9.1634 H   0  0  0  0  0  0  0  0  0  0  0  0
    0.8167    0.0001   -6.8380 H   0  0  0  0  0  0  0  0  0  0  0  0
    0.3530   -1.6615   -7.2082 H   0  0  0  0  0  0  0  0  0  0  0  0
    2.9930    1.3849   -7.9803 N   0  0  0  0  0  0  0  0  0  0  0  0
    4.0591    2.3665   -7.8187 C   0  0  0  0  0  0  0  0  0  0  0  0
    2.0292    1.6876   -7.8794 H   0  0  0  0  0  0  0  0  0  0  0  0
    4.7045    2.0957   -6.9762 H   0  0  0  0  0  0  0  0  0  0  0  0
    4.6692    2.4243   -8.7263 H   0  0  0  0  0  0  0  0  0  0  0  0
    3.6354    3.3565   -7.6240 H   0  0  0  0  0  0  0  0  0  0  0  0
   -5.6436    0.3895   -1.5145 C   0  0  0  0  0  0  0  0  0  0  0  0
   -5.5218   -0.8228   -1.4380 O   0  0  0  0  0  0  0  0  0  0  0  0
   -6.5552    1.1243   -0.5499 C   0  0  0  0  0  0  0  0  0  0  0  0
   -7.3064    1.6911   -1.1050 H   0  0  0  0  0  0  0  0  0  0  0  0
   -7.0644    0.4118    0.1050 H   0  0  0  0  0  0  0  0  0  0  0  0
   -5.9699    1.8128    0.0652 H   0  0  0  0  0  0  0  0  0  0  0  0
   -4.9363    1.1025   -2.4603 N   0  0  0  0  0  0  0  0  0  0  0  0
   -3.8024    0.5448   -3.2139 C   0  0  2  0  0  0  0  0  0  0  0  0
   -2.4632    1.1465   -2.7360 C   0  0  0  0  0  0  0  0  0  0  0  0
   -2.4725    2.2662   -2.2546 O   0  0  0  0  0  0  0  0  0  0  0  0
   -4.0339    0.8485   -4.6952 C   0  0  0  0  0  0  0  0  0  0  0  0
   -4.9211    2.1112   -2.3173 H   0  0  0  0  0  0  0  0  0  0  0  0
   -3.7471   -0.5419   -3.0867 H   0  0  0  0  0  0  0  0  0  0  0  0
   -4.0887    1.9294   -4.8617 H   0  0  0  0  0  0  0  0  0  0  0  0
   -3.2196    0.4420   -5.3029 H   0  0  0  0  0  0  0  0  0  0  0  0
   -4.9730    0.3956   -5.0283 H   0  0  0  0  0  0  0  0  0  0  0  0
   -1.2884    0.4363   -2.9234 N   0  0  0  0  0  0  0  0  0  0  0  0
    0.0921    0.6022   -2.3902 C   0  0  2  0  0  0  0  0  0  0  0  0
    0.6438    1.8858   -1.6837 C   0  0  0  0  0  0  0  0  0  0  0  0
    1.8527    1.9597   -1.4918 O   0  0  0  0  0  0  0  0  0  0  0  0
    0.9774    0.2804   -3.6112 C   0  0  0  0  0  0  0  0  0  0  0  0
    0.7682   -1.4774   -4.1101 S   0  0  0  0  0  0  0  0  0  0  0  0
   -1.4403   -0.4628   -3.3760 H   0  0  0  0  0  0  0  0  0  0  0  0
    0.2351   -0.1810   -1.6388 H   0  0  0  0  0  0  0  0  0  0  0  0
    0.7277    0.9466   -4.4422 H   0  0  0  0  0  0  0  0  0  0  0  0
    2.0362    0.4305   -3.3766 H   0  0  0  0  0  0  0  0  0  0  0  0
   -0.1072    2.9318   -1.1866 N   0  0  0  0  0  0  0  0  0  0  0  0
    0.3927    4.0234   -0.3380 C   0  0  2  0  0  0  0  0  0  0  0  0
   -0.5856    4.3869    0.8009 C   0  0  0  0  0  0  0  0  0  0  0  0
   -1.7465    3.9950    0.7895 O   0  0  0  0  0  0  0  0  0  0  0  0
    0.6475    5.2337   -1.2398 C   0  0  0  0  0  0  0  0  0  0  0  0
   -1.1242    2.8466   -1.2783 H   0  0  0  0  0  0  0  0  0  0  0  0
    1.3329    3.7284    0.1395 H   0  0  0  0  0  0  0  0  0  0  0  0
   -0.2784    5.5403   -1.7373 H   0  0  0  0  0  0  0  0  0  0  0  0
    1.0266    6.0773   -0.6554 H   0  0  0  0  0  0  0  0  0  0  0  0
    1.3889    4.9831   -2.0051 H   0  0  0  0  0  0  0  0  0  0  0  0
   -0.1541    5.1635    1.8616 N   0  0  0  0  0  0  0  0  0  0  0  0
   -1.0079    5.5302    2.9850 C   0  0  0  0  0  0  0  0  0  0  0  0
    0.8200    5.4505    1.8685 H   0  0  0  0  0  0  0  0  0  0  0  0
   -1.8796    6.0939    2.6357 H   0  0  0  0  0  0  0  0  0  0  0  0
   -1.3548    4.6343    3.5108 H   0  0  0  0  0  0  0  0  0  0  0  0
   -0.4549    6.1546    3.6932 H   0  0  0  0  0  0  0  0  0  0  0  0
  1  2  2  0  0  0  0
  1  3  1  0  0  0  0
  1  7  1  0  0  0  0
  3  4  1  0  0  0  0
  3  5  1  0  0  0  0
  3  6  1  0  0  0  0
  7  8  1  0  0  0  0
  7 13  1  0  0  0  0
  8  9  1  0  0  0  0
  8 11  1  0  0  0  0
  8 14  1  0  0  0  0
  9 10  2  0  0  0  0
  9 17  1  0  0  0  0
 11 12  1  0  0  0  0
 11 15  1  0  0  0  0
 11 16  1  0  0  0  0
 12 44  1  0  0  0  0
 17 18  1  0  0  0  0
 17 19  1  0  0  0  0
 18 20  1  0  0  0  0
 18 21  1  0  0  0  0
 18 22  1  0  0  0  0
 23 24  2  0  0  0  0
 23 25  1  0  0  0  0
 23 29  1  0  0  0  0
 25 26  1  0  0  0  0
 25 27  1  0  0  0  0
 25 28  1  0  0  0  0
 29 30  1  0  0  0  0
 29 34  1  0  0  0  0
 30 31  1  0  0  0  0
 30 33  1  0  0  0  0
 30 35  1  0  0  0  0
 31 32  2  0  0  0  0
 31 39  1  0  0  0  0
 33 36  1  0  0  0  0
 33 37  1  0  0  0  0
 33 38  1  0  0  0  0
 39 40  1  0  0  0  0
 39 45  1  0  0  0  0
 40 41  1  0  0  0  0
 40 43  1  0  0  0  0
 40 46  1  0  0  0  0
 41 42  2  0  0  0  0
 41 49  1  0  0  0  0
 43 44  1  0  0  0  0
 43 47  1  0  0  0  0
 43 48  1  0  0  0  0
 49 50  1  0  0  0  0
 49 54  1  0  0  0  0
 50 51  1  0  0  0  0
 50 53  1  0  0  0  0
 50 55  1  0  0  0  0
 51 52  2  0  0  0  0
 51 59  1  0  0  0  0
 53 56  1  0  0  0  0
 53 57  1  0  0  0  0
 53 58  1  0  0  0  0
 59 60  1  0  0  0  0
 59 61  1  0  0  0  0
 60 62  1  0  0  0  0
 60 63  1  0  0  0  0
 60 64  1  0  0  0  0
M  END
$$$$

  -OEChem-05262216053D

 64 63  0     1  0  0  0  0  0999 V2000
    1.6399   -3.1123   -9.3616 C   0  0  0  0  0  0  0  0  0  0  0  0
    0.4958   -2.7810   -9.6324 O   0  0  0  0  0  0  0  0  0  0  0  0
    2.1644   -4.4701   -9.7883 C   0  0  0  0  0  0  0  0  0  0  0  0
    2.4786   -5.0409   -8.9110 H   0  0  0  0  0  0  0  0  0  0  0  0
    1.3829   -5.0290  -10.3106 H   0  0  0  0  0  0  0  0  0  0  0  0
    3.0181   -4.3471  -10.4594 H   0  0  0  0  0  0  0  0  0  0  0  0
    2.4547   -2.2439   -8.6691 N   0  0  0  0  0  0  0  0  0  0  0  0
    2.0628   -0.8930   -8.2433 C   0  0  2  0  0  0  0  0  0  0  0  0
    3.2848    0.0291   -8.0402 C   0  0  0  0  0  0  0  0  0  0  0  0
    4.4217   -0.4124   -8.1705 O   0  0  0  0  0  0  0  0  0  0  0  0
    1.2202   -0.9890   -6.9610 C   0  0  0  0  0  0  0  0  0  0  0  0
    2.1796   -1.7246   -5.5745 S   0  0  0  0  0  0  0  0  0  0  0  0
    3.4249   -2.5162   -8.5146 H   0  0  0  0  0  0  0  0  0  0  0  0
    1.4538   -0.4365   -9.0303 H   0  0  0  0  0  0  0  0  0  0  0  0
    0.8704    0.0058   -6.6719 H   0  0  0  0  0  0  0  0  0  0  0  0
    0.3361   -1.6060   -7.1511 H   0  0  0  0  0  0  0  0  0  0  0  0
    3.1116    1.3750   -7.7681 N   0  0  0  0  0  0  0  0  0  0  0  0
    4.2212    2.3013   -7.5773 C   0  0  0  0  0  0  0  0  0  0  0  0
    2.1618    1.7241   -7.6849 H   0  0  0  0  0  0  0  0  0  0  0  0
    4.8461    1.9828   -6.7362 H   0  0  0  0  0  0  0  0  0  0  0  0
    4.8412    2.3491   -8.4789 H   0  0  0  0  0  0  0  0  0  0  0  0
    3.8432    3.3061   -7.3650 H   0  0  0  0  0  0  0  0  0  0  0  0
   -5.2114    0.4488   -1.4332 C   0  0  0  0  0  0  0  0  0  0  0  0
   -4.8272   -0.7022   -1.2963 O   0  0  0  0  0  0  0  0  0  0  0  0
   -6.0925    1.0912   -0.3787 C   0  0  0  0  0  0  0  0  0  0  0  0
   -7.0223    1.4431   -0.8319 H   0  0  0  0  0  0  0  0  0  0  0  0
   -6.3345    0.3668    0.4038 H   0  0  0  0  0  0  0  0  0  0  0  0
   -5.5717    1.9385    0.0749 H   0  0  0  0  0  0  0  0  0  0  0  0
   -4.8056    1.1838   -2.5283 N   0  0  0  0  0  0  0  0  0  0  0  0
   -3.7047    0.7470   -3.3990 C   0  0  2  0  0  0  0  0  0  0  0  0
   -2.3431    1.2378   -2.8631 C   0  0  0  0  0  0  0  0  0  0  0  0
   -2.2717    2.3742   -2.4257 O   0  0  0  0  0  0  0  0  0  0  0  0
   -3.9675    1.2972   -4.8029 C   0  0  0  0  0  0  0  0  0  0  0  0
   -4.9584    2.1870   -2.4558 H   0  0  0  0  0  0  0  0  0  0  0  0
   -3.6802   -0.3463   -3.4613 H   0  0  0  0  0  0  0  0  0  0  0  0
   -3.9963    2.3917   -4.7881 H   0  0  0  0  0  0  0  0  0  0  0  0
   -3.1791    0.9794   -5.4919 H   0  0  0  0  0  0  0  0  0  0  0  0
   -4.9263    0.9279   -5.1806 H   0  0  0  0  0  0  0  0  0  0  0  0
   -1.2268    0.4257   -2.9762 N   0  0  0  0  0  0  0  0  0  0  0  0
    0.1059    0.4599   -2.3142 C   0  0  2  0  0  0  0  0  0  0  0  0
    0.6592    1.6934   -1.5255 C   0  0  0  0  0  0  0  0  0  0  0  0
    1.8714    1.8291   -1.3968 O   0  0  0  0  0  0  0  0  0  0  0  0
    1.0703    0.0977   -3.4612 C   0  0  0  0  0  0  0  0  0  0  0  0
    0.7680   -1.6209   -4.0425 S   0  0  0  0  0  0  0  0  0  0  0  0
   -1.4370   -0.4709   -3.4097 H   0  0  0  0  0  0  0  0  0  0  0  0
    0.1193   -0.3469   -1.5745 H   0  0  0  0  0  0  0  0  0  0  0  0
    0.9533    0.8090   -4.2843 H   0  0  0  0  0  0  0  0  0  0  0  0
    2.1117    0.1475   -3.1278 H   0  0  0  0  0  0  0  0  0  0  0  0
   -0.1267    2.6014   -0.8457 N   0  0  0  0  0  0  0  0  0  0  0  0
    0.3517    3.7034   -0.0018 C   0  0  2  0  0  0  0  0  0  0  0  0
   -0.5841    3.9707    1.1964 C   0  0  0  0  0  0  0  0  0  0  0  0
   -1.7597    3.6235    1.1723 O   0  0  0  0  0  0  0  0  0  0  0  0
    0.4700    4.9539   -0.8767 C   0  0  0  0  0  0  0  0  0  0  0  0
   -1.1348    2.5515   -1.0205 H   0  0  0  0  0  0  0  0  0  0  0  0
    1.3364    3.4566    0.4078 H   0  0  0  0  0  0  0  0  0  0  0  0
   -0.5074    5.2255   -1.2889 H   0  0  0  0  0  0  0  0  0  0  0  0
    0.8491    5.7975   -0.2921 H   0  0  0  0  0  0  0  0  0  0  0  0
    1.1592    4.7709   -1.7068 H   0  0  0  0  0  0  0  0  0  0  0  0
   -0.1005    4.6196    2.3180 N   0  0  0  0  0  0  0  0  0  0  0  0
   -0.9066    4.8750    3.5051 C   0  0  0  0  0  0  0  0  0  0  0  0
    0.8873    4.8543    2.3341 H   0  0  0  0  0  0  0  0  0  0  0  0
   -1.7903    5.4691    3.2483 H   0  0  0  0  0  0  0  0  0  0  0  0
   -1.2343    3.9320    3.9555 H   0  0  0  0  0  0  0  0  0  0  0  0
   -0.3219    5.4285    4.2460 H   0  0  0  0  0  0  0  0  0  0  0  0
  1  2  2  0  0  0  0
  1  3  1  0  0  0  0
  1  7  1  0  0  0  0
  3  4  1  0  0  0  0
  3  5  1  0  0  0  0
  3  6  1  0  0  0  0
  7  8  1  0  0  0  0
  7 13  1  0  0  0  0
  8  9  1  0  0  0  0
  8 11  1  0  0  0  0
  8 14  1  0  0  0  0
  9 10  2  0  0  0  0
  9 17  1  0  0  0  0
 11 12  1  0  0  0  0
 11 15  1  0  0  0  0
 11 16  1  0  0  0  0
 12 44  1  0  0  0  0
 17 18  1  0  0  0  0
 17 19  1  0  0  0  0
 18 20  1  0  0  0  0
 18 21  1  0  0  0  0
 18 22  1  0  0  0  0
 23 24  2  0  0  0  0
 23 25  1  0  0  0  0
 23 29  1  0  0  0  0
 25 26  1  0  0  0  0
 25 27  1  0  0  0  0
 25 28  1  0  0  0  0
 29 30  1  0  0  0  0
 29 34  1  0  0  0  0
 30 31  1  0  0  0  0
 30 33  1  0  0  0  0
 30 35  1  0  0  0  0
 31 32  2  0  0  0  0
 31 39  1  0  0  0  0
 33 36  1  0  0  0  0
 33 37  1  0  0  0  0
 33 38  1  0  0  0  0
 39 40  1  0  0  0  0
 39 45  1  0  0  0  0
 40 41  1  0  0  0  0
 40 43  1  0  0  0  0
 40 46  1  0  0  0  0
 41 42  2  0  0  0  0
 41 49  1  0  0  0  0
 43 44  1  0  0  0  0
 43 47  1  0  0  0  0
 43 48  1  0  0  0  0
 49 50  1  0  0  0  0
 49 54  1  0  0  0  0
 50 51  1  0  0  0  0
 50 53  1  0  0  0  0
 50 55  1  0  0  0  0
 51 52  2  0  0  0  0
 51 59  1  0  0  0  0
 53 56  1  0  0  0  0
 53 57  1  0  0  0  0
 53 58  1  0  0  0  0
 59 60  1  0  0  0  0
 59 61  1  0  0  0  0
 60 62  1  0  0  0  0
 60 63  1  0  0  0  0
 60 64  1  0  0  0  0
M  END
$$$$

  -OEChem-05262216053D

 64 63  0     1  0  0  0  0  0999 V2000
    1.7660   -3.2414   -9.3164 C   0  0  0  0  0  0  0  0  0  0  0  0
    0.6032   -2.9886   -9.5916 O   0  0  0  0  0  0  0  0  0  0  0  0
    2.3578   -4.5954   -9.6604 C   0  0  0  0  0  0  0  0  0  0  0  0
    2.7102   -5.0896   -8.7517 H   0  0  0  0  0  0  0  0  0  0  0  0
    1.6027   -5.2279  -10.1354 H   0  0  0  0  0  0  0  0  0  0  0  0
    3.1974   -4.4717  -10.3485 H   0  0  0  0  0  0  0  0  0  0  0  0
    2.5424   -2.2884   -8.6948 N   0  0  0  0  0  0  0  0  0  0  0  0
    2.0875   -0.9359   -8.3422 C   0  0  2  0  0  0  0  0  0  0  0  0
    3.2694    0.0460   -8.1820 C   0  0  0  0  0  0  0  0  0  0  0  0
    4.4241   -0.3561   -8.2786 O   0  0  0  0  0  0  0  0  0  0  0  0
    1.2450   -1.0002   -7.0576 C   0  0  0  0  0  0  0  0  0  0  0  0
    2.2193   -1.6567   -5.6426 S   0  0  0  0  0  0  0  0  0  0  0  0
    3.5236   -2.5066   -8.5240 H   0  0  0  0  0  0  0  0  0  0  0  0
    1.4630   -0.5493   -9.1545 H   0  0  0  0  0  0  0  0  0  0  0  0
    0.8700   -0.0039   -6.8083 H   0  0  0  0  0  0  0  0  0  0  0  0
    0.3772   -1.6470   -7.2232 H   0  0  0  0  0  0  0  0  0  0  0  0
    3.0426    1.3962   -7.9776 N   0  0  0  0  0  0  0  0  0  0  0  0
    4.1146    2.3710   -7.8128 C   0  0  0  0  0  0  0  0  0  0  0  0
    2.0796    1.7124   -7.9187 H   0  0  0  0  0  0  0  0  0  0  0  0
    4.7461    2.1059   -6.9583 H   0  0  0  0  0  0  0  0  0  0  0  0
    4.7379    2.4123   -8.7121 H   0  0  0  0  0  0  0  0  0  0  0  0
    3.6971    3.3669   -7.6362 H   0  0  0  0  0  0  0  0  0  0  0  0
   -5.6683    0.4722   -1.5815 C   0  0  0  0  0  0  0  0  0  0  0  0
   -5.7396   -0.7170   -1.8474 O   0  0  0  0  0  0  0  0  0  0  0  0
   -6.5861    1.0738   -0.5340 C   0  0  0  0  0  0  0  0  0  0  0  0
   -7.2448    1.8129   -0.9958 H   0  0  0  0  0  0  0  0  0  0  0  0
   -7.1987    0.2927   -0.0753 H   0  0  0  0  0  0  0  0  0  0  0  0
   -5.9943    1.5595    0.2459 H   0  0  0  0  0  0  0  0  0  0  0  0
   -4.7459    1.2743   -2.2213 N   0  0  0  0  0  0  0  0  0  0  0  0
   -3.6434    0.7605   -3.0483 C   0  0  2  0  0  0  0  0  0  0  0  0
   -2.2699    1.1925   -2.4922 C   0  0  0  0  0  0  0  0  0  0  0  0
   -2.2072    2.2035   -1.8113 O   0  0  0  0  0  0  0  0  0  0  0  0
   -3.8417    1.2875   -4.4708 C   0  0  0  0  0  0  0  0  0  0  0  0
   -4.6126    2.2023   -1.8216 H   0  0  0  0  0  0  0  0  0  0  0  0
   -3.6578   -0.3341   -3.0735 H   0  0  0  0  0  0  0  0  0  0  0  0
   -3.8214    2.3822   -4.4810 H   0  0  0  0  0  0  0  0  0  0  0  0
   -3.0518    0.9176   -5.1315 H   0  0  0  0  0  0  0  0  0  0  0  0
   -4.8067    0.9531   -4.8650 H   0  0  0  0  0  0  0  0  0  0  0  0
   -1.1478    0.4356   -2.7888 N   0  0  0  0  0  0  0  0  0  0  0  0
    0.2552    0.5049   -2.3019 C   0  0  2  0  0  0  0  0  0  0  0  0
    0.8233    1.7452   -1.5379 C   0  0  0  0  0  0  0  0  0  0  0  0
    1.9691    2.1288   -1.7492 O   0  0  0  0  0  0  0  0  0  0  0  0
    1.1070    0.1916   -3.5484 C   0  0  0  0  0  0  0  0  0  0  0  0
    0.8047   -1.5314   -4.1151 S   0  0  0  0  0  0  0  0  0  0  0  0
   -1.3496   -0.3821   -3.3603 H   0  0  0  0  0  0  0  0  0  0  0  0
    0.3830   -0.3141   -1.5875 H   0  0  0  0  0  0  0  0  0  0  0  0
    0.8849    0.9058   -4.3469 H   0  0  0  0  0  0  0  0  0  0  0  0
    2.1743    0.2749   -3.3156 H   0  0  0  0  0  0  0  0  0  0  0  0
    0.1390    2.3768   -0.5193 N   0  0  0  0  0  0  0  0  0  0  0  0
    0.6360    3.5056    0.2769 C   0  0  2  0  0  0  0  0  0  0  0  0
   -0.0462    3.5901    1.6598 C   0  0  0  0  0  0  0  0  0  0  0  0
   -1.1209    3.0386    1.8694 O   0  0  0  0  0  0  0  0  0  0  0  0
    0.3923    4.7958   -0.5128 C   0  0  0  0  0  0  0  0  0  0  0  0
   -0.8671    2.1891   -0.4754 H   0  0  0  0  0  0  0  0  0  0  0  0
    1.7101    3.3841    0.4508 H   0  0  0  0  0  0  0  0  0  0  0  0
   -0.6766    4.9214   -0.7139 H   0  0  0  0  0  0  0  0  0  0  0  0
    0.7472    5.6647    0.0494 H   0  0  0  0  0  0  0  0  0  0  0  0
    0.9243    4.7642   -1.4687 H   0  0  0  0  0  0  0  0  0  0  0  0
    0.5508    4.3018    2.6851 N   0  0  0  0  0  0  0  0  0  0  0  0
   -0.0251    4.4187    4.0195 C   0  0  0  0  0  0  0  0  0  0  0  0
    1.4519    4.7312    2.4974 H   0  0  0  0  0  0  0  0  0  0  0  0
   -1.0207    4.8721    3.9689 H   0  0  0  0  0  0  0  0  0  0  0  0
   -0.1111    3.4324    4.4873 H   0  0  0  0  0  0  0  0  0  0  0  0
    0.6087    5.0479    4.6517 H   0  0  0  0  0  0  0  0  0  0  0  0
  1  2  2  0  0  0  0
  1  3  1  0  0  0  0
  1  7  1  0  0  0  0
  3  4  1  0  0  0  0
  3  5  1  0  0  0  0
  3  6  1  0  0  0  0
  7  8  1  0  0  0  0
  7 13  1  0  0  0  0
  8  9  1  0  0  0  0
  8 11  1  0  0  0  0
  8 14  1  0  0  0  0
  9 10  2  0  0  0  0
  9 17  1  0  0  0  0
 11 12  1  0  0  0  0
 11 15  1  0  0  0  0
 11 16  1  0  0  0  0
 12 44  1  0  0  0  0
 17 18  1  0  0  0  0
 17 19  1  0  0  0  0
 18 20  1  0  0  0  0
 18 21  1  0  0  0  0
 18 22  1  0  0  0  0
 23 24  2  0  0  0  0
 23 25  1  0  0  0  0
 23 29  1  0  0  0  0
 25 26  1  0  0  0  0
 25 27  1  0  0  0  0
 25 28  1  0  0  0  0
 29 30  1  0  0  0  0
 29 34  1  0  0  0  0
 30 31  1  0  0  0  0
 30 33  1  0  0  0  0
 30 35  1  0  0  0  0
 31 32  2  0  0  0  0
 31 39  1  0  0  0  0
 33 36  1  0  0  0  0
 33 37  1  0  0  0  0
 33 38  1  0  0  0  0
 39 40  1  0  0  0  0
 39 45  1  0  0  0  0
 40 41  1  0  0  0  0
 40 43  1  0  0  0  0
 40 46  1  0  0  0  0
 41 42  2  0  0  0  0
 41 49  1  0  0  0  0
 43 44  1  0  0  0  0
 43 47  1  0  0  0  0
 43 48  1  0  0  0  0
 49 50  1  0  0  0  0
 49 54  1  0  0  0  0
 50 51  1  0  0  0  0
 50 53  1  0  0  0  0
 50 55  1  0  0  0  0
 51 52  2  0  0  0  0
 51 59  1  0  0  0  0
 53 56  1  0  0  0  0
 53 57  1  0  0  0  0
 53 58  1  0  0  0  0
 59 60  1  0  0  0  0
 59 61  1  0  0  0  0
 60 62  1  0  0  0  0
 60 63  1  0  0  0  0
 60 64  1  0  0  0  0
M  END
$$$$

  -OEChem-05262216053D

 64 63  0     1  0  0  0  0  0999 V2000
    1.5471   -3.0637   -9.4716 C   0  0  0  0  0  0  0  0  0  0  0  0
    0.3885   -2.7249   -9.6578 O   0  0  0  0  0  0  0  0  0  0  0  0
    2.0428   -4.4054   -9.9759 C   0  0  0  0  0  0  0  0  0  0  0  0
    2.4273   -4.9977   -9.1420 H   0  0  0  0  0  0  0  0  0  0  0  0
    1.2252   -4.9548  -10.4509 H   0  0  0  0  0  0  0  0  0  0  0  0
    2.8409   -4.2578  -10.7072 H   0  0  0  0  0  0  0  0  0  0  0  0
    2.4048   -2.2207   -8.8003 N   0  0  0  0  0  0  0  0  0  0  0  0
    2.0499   -0.8774   -8.3218 C   0  0  2  0  0  0  0  0  0  0  0  0
    3.3001    0.0111   -8.1320 C   0  0  0  0  0  0  0  0  0  0  0  0
    4.4132   -0.4288   -8.4007 O   0  0  0  0  0  0  0  0  0  0  0  0
    1.2511   -0.9980   -7.0136 C   0  0  0  0  0  0  0  0  0  0  0  0
    2.2808   -1.6954   -5.6586 S   0  0  0  0  0  0  0  0  0  0  0  0
    3.3864   -2.4892   -8.7369 H   0  0  0  0  0  0  0  0  0  0  0  0
    1.4223   -0.3882   -9.0741 H   0  0  0  0  0  0  0  0  0  0  0  0
    0.8807   -0.0135   -6.7162 H   0  0  0  0  0  0  0  0  0  0  0  0
    0.3796   -1.6414   -7.1720 H   0  0  0  0  0  0  0  0  0  0  0  0
    3.1836    1.3148   -7.6816 N   0  0  0  0  0  0  0  0  0  0  0  0
    4.3347    2.1603   -7.3860 C   0  0  0  0  0  0  0  0  0  0  0  0
    2.2589    1.6428   -7.4207 H   0  0  0  0  0  0  0  0  0  0  0  0
    4.9194    1.7364   -6.5627 H   0  0  0  0  0  0  0  0  0  0  0  0
    4.9811    2.2529   -8.2651 H   0  0  0  0  0  0  0  0  0  0  0  0
    4.0038    3.1622   -7.0960 H   0  0  0  0  0  0  0  0  0  0  0  0
   -5.8297    0.5505   -1.8073 C   0  0  0  0  0  0  0  0  0  0  0  0
   -6.1066   -0.4101   -2.5077 O   0  0  0  0  0  0  0  0  0  0  0  0
   -6.8376    1.0745   -0.8017 C   0  0  0  0  0  0  0  0  0  0  0  0
   -7.0105    2.1412   -0.9643 H   0  0  0  0  0  0  0  0  0  0  0  0
   -7.7879    0.5436   -0.9101 H   0  0  0  0  0  0  0  0  0  0  0  0
   -6.4635    0.9231    0.2139 H   0  0  0  0  0  0  0  0  0  0  0  0
   -4.5919    1.1473   -1.9207 N   0  0  0  0  0  0  0  0  0  0  0  0
   -3.4929    0.6206   -2.7416 C   0  0  2  0  0  0  0  0  0  0  0  0
   -2.1116    0.9847   -2.1561 C   0  0  0  0  0  0  0  0  0  0  0  0
   -2.0366    1.8623   -1.3098 O   0  0  0  0  0  0  0  0  0  0  0  0
   -3.6327    1.1765   -4.1625 C   0  0  0  0  0  0  0  0  0  0  0  0
   -4.3549    1.8710   -1.2423 H   0  0  0  0  0  0  0  0  0  0  0  0
   -3.5553   -0.4726   -2.7761 H   0  0  0  0  0  0  0  0  0  0  0  0
   -3.5665    2.2692   -4.1541 H   0  0  0  0  0  0  0  0  0  0  0  0
   -2.8427    0.7831   -4.8094 H   0  0  0  0  0  0  0  0  0  0  0  0
   -4.5994    0.8898   -4.5892 H   0  0  0  0  0  0  0  0  0  0  0  0
   -0.9956    0.2729   -2.5641 N   0  0  0  0  0  0  0  0  0  0  0  0
    0.4417    0.4372   -2.2346 C   0  0  2  0  0  0  0  0  0  0  0  0
    0.9589    1.7510   -1.5717 C   0  0  0  0  0  0  0  0  0  0  0  0
    1.8721    2.3919   -2.0834 O   0  0  0  0  0  0  0  0  0  0  0  0
    1.1874    0.1577   -3.5513 C   0  0  0  0  0  0  0  0  0  0  0  0
    0.9431   -1.5916   -4.0628 S   0  0  0  0  0  0  0  0  0  0  0  0
   -1.1970   -0.4690   -3.2309 H   0  0  0  0  0  0  0  0  0  0  0  0
    0.7072   -0.3485   -1.5197 H   0  0  0  0  0  0  0  0  0  0  0  0
    0.8468    0.8428   -4.3334 H   0  0  0  0  0  0  0  0  0  0  0  0
    2.2628    0.3166   -3.4143 H   0  0  0  0  0  0  0  0  0  0  0  0
    0.4880    2.1756   -0.3451 N   0  0  0  0  0  0  0  0  0  0  0  0
    0.9053    3.4042    0.3422 C   0  0  2  0  0  0  0  0  0  0  0  0
    0.6215    3.3475    1.8590 C   0  0  0  0  0  0  0  0  0  0  0  0
   -0.1989    2.5605    2.3176 O   0  0  0  0  0  0  0  0  0  0  0  0
    0.1595    4.5867   -0.2859 C   0  0  0  0  0  0  0  0  0  0  0  0
   -0.4160    1.7851   -0.0667 H   0  0  0  0  0  0  0  0  0  0  0  0
    1.9833    3.5454    0.2138 H   0  0  0  0  0  0  0  0  0  0  0  0
   -0.9216    4.4555   -0.1731 H   0  0  0  0  0  0  0  0  0  0  0  0
    0.4497    5.5252    0.1955 H   0  0  0  0  0  0  0  0  0  0  0  0
    0.3901    4.6614   -1.3532 H   0  0  0  0  0  0  0  0  0  0  0  0
    1.2834    4.2030    2.7214 N   0  0  0  0  0  0  0  0  0  0  0  0
    1.0526    4.2250    4.1608 C   0  0  0  0  0  0  0  0  0  0  0  0
    1.9573    4.8482    2.3204 H   0  0  0  0  0  0  0  0  0  0  0  0
    0.0223    4.5261    4.3782 H   0  0  0  0  0  0  0  0  0  0  0  0
    1.2296    3.2345    4.5934 H   0  0  0  0  0  0  0  0  0  0  0  0
    1.7302    4.9368    4.6422 H   0  0  0  0  0  0  0  0  0  0  0  0
  1  2  2  0  0  0  0
  1  3  1  0  0  0  0
  1  7  1  0  0  0  0
  3  4  1  0  0  0  0
  3  5  1  0  0  0  0
  3  6  1  0  0  0  0
  7  8  1  0  0  0  0
  7 13  1  0  0  0  0
  8  9  1  0  0  0  0
  8 11  1  0  0  0  0
  8 14  1  0  0  0  0
  9 10  2  0  0  0  0
  9 17  1  0  0  0  0
 11 12  1  0  0  0  0
 11 15  1  0  0  0  0
 11 16  1  0  0  0  0
 12 44  1  0  0  0  0
 17 18  1  0  0  0  0
 17 19  1  0  0  0  0
 18 20  1  0  0  0  0
 18 21  1  0  0  0  0
 18 22  1  0  0  0  0
 23 24  2  0  0  0  0
 23 25  1  0  0  0  0
 23 29  1  0  0  0  0
 25 26  1  0  0  0  0
 25 27  1  0  0  0  0
 25 28  1  0  0  0  0
 29 30  1  0  0  0  0
 29 34  1  0  0  0  0
 30 31  1  0  0  0  0
 30 33  1  0  0  0  0
 30 35  1  0  0  0  0
 31 32  2  0  0  0  0
 31 39  1  0  0  0  0
 33 36  1  0  0  0  0
 33 37  1  0  0  0  0
 33 38  1  0  0  0  0
 39 40  1  0  0  0  0
 39 45  1  0  0  0  0
 40 41  1  0  0  0  0
 40 43  1  0  0  0  0
 40 46  1  0  0  0  0
 41 42  2  0  0  0  0
 41 49  1  0  0  0  0
 43 44  1  0  0  0  0
 43 47  1  0  0  0  0
 43 48  1  0  0  0  0
 49 50  1  0  0  0  0
 49 54  1  0  0  0  0
 50 51  1  0  0  0  0
 50 53  1  0  0  0  0
 50 55  1  0  0  0  0
 51 52  2  0  0  0  0
 51 59  1  0  0  0  0
 53 56  1  0  0  0  0
 53 57  1  0  0  0  0
 53 58  1  0  0  0  0
 59 60  1  0  0  0  0
 59 61  1  0  0  0  0
 60 62  1  0  0  0  0
 60 63  1  0  0  0  0
 60 64  1  0  0  0  0
M  END
$$$$

  -OEChem-05262216053D

 64 63  0     1  0  0  0  0  0999 V2000
    1.6503   -3.1655   -9.4437 C   0  0  0  0  0  0  0  0  0  0  0  0
    0.4803   -2.8821   -9.6488 O   0  0  0  0  0  0  0  0  0  0  0  0
    2.2001   -4.5101   -9.8802 C   0  0  0  0  0  0  0  0  0  0  0  0
    2.6482   -5.0250   -9.0267 H   0  0  0  0  0  0  0  0  0  0  0  0
    1.3962   -5.1320  -10.2840 H   0  0  0  0  0  0  0  0  0  0  0  0
    2.9602   -4.3692  -10.6523 H   0  0  0  0  0  0  0  0  0  0  0  0
    2.4721   -2.2571   -8.8138 N   0  0  0  0  0  0  0  0  0  0  0  0
    2.0585   -0.9181   -8.3700 C   0  0  2  0  0  0  0  0  0  0  0  0
    3.2702    0.0232   -8.1838 C   0  0  0  0  0  0  0  0  0  0  0  0
    4.4055   -0.3818   -8.4114 O   0  0  0  0  0  0  0  0  0  0  0  0
    1.2506   -1.0395   -7.0673 C   0  0  0  0  0  0  0  0  0  0  0  0
    2.2777   -1.7315   -5.7080 S   0  0  0  0  0  0  0  0  0  0  0  0
    3.4595   -2.4918   -8.7172 H   0  0  0  0  0  0  0  0  0  0  0  0
    1.4219   -0.4701   -9.1402 H   0  0  0  0  0  0  0  0  0  0  0  0
    0.8719   -0.0573   -6.7723 H   0  0  0  0  0  0  0  0  0  0  0  0
    0.3843   -1.6886   -7.2304 H   0  0  0  0  0  0  0  0  0  0  0  0
    3.0935    1.3345   -7.7772 N   0  0  0  0  0  0  0  0  0  0  0  0
    4.2037    2.2345   -7.4869 C   0  0  0  0  0  0  0  0  0  0  0  0
    2.1502    1.6372   -7.5552 H   0  0  0  0  0  0  0  0  0  0  0  0
    4.8070    1.8440   -6.6604 H   0  0  0  0  0  0  0  0  0  0  0  0
    4.8451    2.3515   -8.3669 H   0  0  0  0  0  0  0  0  0  0  0  0
    3.8257    3.2214   -7.2027 H   0  0  0  0  0  0  0  0  0  0  0  0
   -5.7511    0.7361   -1.6568 C   0  0  0  0  0  0  0  0  0  0  0  0
   -6.0854   -0.2152   -2.3444 O   0  0  0  0  0  0  0  0  0  0  0  0
   -6.7058    1.3027   -0.6241 C   0  0  0  0  0  0  0  0  0  0  0  0
   -6.8988    2.3574   -0.8334 H   0  0  0  0  0  0  0  0  0  0  0  0
   -7.6536    0.7576   -0.6484 H   0  0  0  0  0  0  0  0  0  0  0  0
   -6.2717    1.2107    0.3739 H   0  0  0  0  0  0  0  0  0  0  0  0
   -4.4989    1.2912   -1.8125 N   0  0  0  0  0  0  0  0  0  0  0  0
   -3.4498    0.7366   -2.6777 C   0  0  2  0  0  0  0  0  0  0  0  0
   -2.0380    1.0133   -2.1183 C   0  0  0  0  0  0  0  0  0  0  0  0
   -1.8942    1.8607   -1.2485 O   0  0  0  0  0  0  0  0  0  0  0  0
   -3.6023    1.3472   -4.0744 C   0  0  0  0  0  0  0  0  0  0  0  0
   -4.2140    2.0040   -1.1416 H   0  0  0  0  0  0  0  0  0  0  0  0
   -3.5672   -0.3506   -2.7441 H   0  0  0  0  0  0  0  0  0  0  0  0
   -3.4899    2.4355   -4.0311 H   0  0  0  0  0  0  0  0  0  0  0  0
   -2.8462    0.9453   -4.7554 H   0  0  0  0  0  0  0  0  0  0  0  0
   -4.5911    1.1150   -4.4834 H   0  0  0  0  0  0  0  0  0  0  0  0
   -0.9681    0.2570   -2.5682 N   0  0  0  0  0  0  0  0  0  0  0  0
    0.4773    0.3992   -2.2775 C   0  0  2  0  0  0  0  0  0  0  0  0
    0.9928    1.7217   -1.6417 C   0  0  0  0  0  0  0  0  0  0  0  0
    1.7054    2.4927   -2.2778 O   0  0  0  0  0  0  0  0  0  0  0  0
    1.2022    0.1197   -3.6032 C   0  0  0  0  0  0  0  0  0  0  0  0
    0.9337   -1.6238   -4.1190 S   0  0  0  0  0  0  0  0  0  0  0  0
   -1.2077   -0.4576   -3.2520 H   0  0  0  0  0  0  0  0  0  0  0  0
    0.7557   -0.3840   -1.5652 H   0  0  0  0  0  0  0  0  0  0  0  0
    0.8529    0.8088   -4.3784 H   0  0  0  0  0  0  0  0  0  0  0  0
    2.2789    0.2786   -3.4772 H   0  0  0  0  0  0  0  0  0  0  0  0
    0.7682    1.9841   -0.3043 N   0  0  0  0  0  0  0  0  0  0  0  0
    1.2104    3.1887    0.4076 C   0  0  2  0  0  0  0  0  0  0  0  0
    1.2321    2.9740    1.9362 C   0  0  0  0  0  0  0  0  0  0  0  0
    0.6300    2.0349    2.4454 O   0  0  0  0  0  0  0  0  0  0  0  0
    0.2656    4.3430    0.0545 C   0  0  0  0  0  0  0  0  0  0  0  0
    0.0309    1.4375    0.1418 H   0  0  0  0  0  0  0  0  0  0  0  0
    2.2282    3.4422    0.0940 H   0  0  0  0  0  0  0  0  0  0  0  0
   -0.7596    4.1000    0.3524 H   0  0  0  0  0  0  0  0  0  0  0  0
    0.5700    5.2605    0.5664 H   0  0  0  0  0  0  0  0  0  0  0  0
    0.2769    4.5307   -1.0235 H   0  0  0  0  0  0  0  0  0  0  0  0
    1.9271    3.8470    2.7537 N   0  0  0  0  0  0  0  0  0  0  0  0
    1.9689    3.7193    4.2055 C   0  0  0  0  0  0  0  0  0  0  0  0
    2.4116    4.6227    2.3120 H   0  0  0  0  0  0  0  0  0  0  0  0
    0.9664    3.8407    4.6288 H   0  0  0  0  0  0  0  0  0  0  0  0
    2.3556    2.7359    4.4934 H   0  0  0  0  0  0  0  0  0  0  0  0
    2.6213    4.4854    4.6352 H   0  0  0  0  0  0  0  0  0  0  0  0
  1  2  2  0  0  0  0
  1  3  1  0  0  0  0
  1  7  1  0  0  0  0
  3  4  1  0  0  0  0
  3  5  1  0  0  0  0
  3  6  1  0  0  0  0
  7  8  1  0  0  0  0
  7 13  1  0  0  0  0
  8  9  1  0  0  0  0
  8 11  1  0  0  0  0
  8 14  1  0  0  0  0
  9 10  2  0  0  0  0
  9 17  1  0  0  0  0
 11 12  1  0  0  0  0
 11 15  1  0  0  0  0
 11 16  1  0  0  0  0
 12 44  1  0  0  0  0
 17 18  1  0  0  0  0
 17 19  1  0  0  0  0
 18 20  1  0  0  0  0
 18 21  1  0  0  0  0
 18 22  1  0  0  0  0
 23 24  2  0  0  0  0
 23 25  1  0  0  0  0
 23 29  1  0  0  0  0
 25 26  1  0  0  0  0
 25 27  1  0  0  0  0
 25 28  1  0  0  0  0
 29 30  1  0  0  0  0
 29 34  1  0  0  0  0
 30 31  1  0  0  0  0
 30 33  1  0  0  0  0
 30 35  1  0  0  0  0
 31 32  2  0  0  0  0
 31 39  1  0  0  0  0
 33 36  1  0  0  0  0
 33 37  1  0  0  0  0
 33 38  1  0  0  0  0
 39 40  1  0  0  0  0
 39 45  1  0  0  0  0
 40 41  1  0  0  0  0
 40 43  1  0  0  0  0
 40 46  1  0  0  0  0
 41 42  2  0  0  0  0
 41 49  1  0  0  0  0
 43 44  1  0  0  0  0
 43 47  1  0  0  0  0
 43 48  1  0  0  0  0
 49 50  1  0  0  0  0
 49 54  1  0  0  0  0
 50 51  1  0  0  0  0
 50 53  1  0  0  0  0
 50 55  1  0  0  0  0
 51 52  2  0  0  0  0
 51 59  1  0  0  0  0
 53 56  1  0  0  0  0
 53 57  1  0  0  0  0
 53 58  1  0  0  0  0
 59 60  1  0  0  0  0
 59 61  1  0  0  0  0
 60 62  1  0  0  0  0
 60 63  1  0  0  0  0
 60 64  1  0  0  0  0
M  END
$$$$

  -OEChem-05262216053D

 64 63  0     1  0  0  0  0  0999 V2000
    1.7026   -3.2208   -9.4467 C   0  0  0  0  0  0  0  0  0  0  0  0
    0.5285   -2.9655   -9.6648 O   0  0  0  0  0  0  0  0  0  0  0  0
    2.2867   -4.5569   -9.8631 C   0  0  0  0  0  0  0  0  0  0  0  0
    2.7151   -5.0627   -8.9943 H   0  0  0  0  0  0  0  0  0  0  0  0
    1.5067   -5.1926  -10.2915 H   0  0  0  0  0  0  0  0  0  0  0  0
    3.0691   -4.4051  -10.6105 H   0  0  0  0  0  0  0  0  0  0  0  0
    2.4997   -2.2895   -8.8194 N   0  0  0  0  0  0  0  0  0  0  0  0
    2.0519   -0.9598   -8.3834 C   0  0  2  0  0  0  0  0  0  0  0  0
    3.2380    0.0128   -8.2018 C   0  0  0  0  0  0  0  0  0  0  0  0
    4.3861   -0.3704   -8.4018 O   0  0  0  0  0  0  0  0  0  0  0  0
    1.2516   -1.0958   -7.0782 C   0  0  0  0  0  0  0  0  0  0  0  0
    2.3000   -1.7606   -5.7211 S   0  0  0  0  0  0  0  0  0  0  0  0
    3.4903   -2.5039   -8.7094 H   0  0  0  0  0  0  0  0  0  0  0  0
    1.4034   -0.5323   -9.1551 H   0  0  0  0  0  0  0  0  0  0  0  0
    0.8525   -0.1213   -6.7845 H   0  0  0  0  0  0  0  0  0  0  0  0
    0.3998   -1.7650   -7.2364 H   0  0  0  0  0  0  0  0  0  0  0  0
    3.0235    1.3293   -7.8320 N   0  0  0  0  0  0  0  0  0  0  0  0
    4.1084    2.2653   -7.5626 C   0  0  0  0  0  0  0  0  0  0  0  0
    2.0690    1.6206   -7.6440 H   0  0  0  0  0  0  0  0  0  0  0  0
    4.7206    1.9099   -6.7267 H   0  0  0  0  0  0  0  0  0  0  0  0
    4.7469    2.3762   -8.4455 H   0  0  0  0  0  0  0  0  0  0  0  0
    3.7058    3.2492   -7.3023 H   0  0  0  0  0  0  0  0  0  0  0  0
   -5.6920    0.8562   -1.5916 C   0  0  0  0  0  0  0  0  0  0  0  0
   -6.0562   -0.0832   -2.2806 O   0  0  0  0  0  0  0  0  0  0  0  0
   -6.6229    1.4381   -0.5443 C   0  0  0  0  0  0  0  0  0  0  0  0
   -6.8115    2.4929   -0.7579 H   0  0  0  0  0  0  0  0  0  0  0  0
   -7.5761    0.9020   -0.5482 H   0  0  0  0  0  0  0  0  0  0  0  0
   -6.1726    1.3490    0.4472 H   0  0  0  0  0  0  0  0  0  0  0  0
   -4.4308    1.3865   -1.7632 N   0  0  0  0  0  0  0  0  0  0  0  0
   -3.4030    0.8126   -2.6426 C   0  0  2  0  0  0  0  0  0  0  0  0
   -1.9837    0.9980   -2.0654 C   0  0  0  0  0  0  0  0  0  0  0  0
   -1.8061    1.7964   -1.1548 O   0  0  0  0  0  0  0  0  0  0  0  0
   -3.5136    1.4842   -4.0143 C   0  0  0  0  0  0  0  0  0  0  0  0
   -4.1183    2.0796   -1.0839 H   0  0  0  0  0  0  0  0  0  0  0  0
   -3.5717   -0.2640   -2.7541 H   0  0  0  0  0  0  0  0  0  0  0  0
   -3.3517    2.5635   -3.9267 H   0  0  0  0  0  0  0  0  0  0  0  0
   -2.7703    1.0752   -4.7049 H   0  0  0  0  0  0  0  0  0  0  0  0
   -4.5082    1.3141   -4.4388 H   0  0  0  0  0  0  0  0  0  0  0  0
   -0.9441    0.2125   -2.5376 N   0  0  0  0  0  0  0  0  0  0  0  0
    0.5044    0.3554   -2.2726 C   0  0  2  0  0  0  0  0  0  0  0  0
    0.9990    1.6962   -1.6678 C   0  0  0  0  0  0  0  0  0  0  0  0
    1.4588    2.5793   -2.3861 O   0  0  0  0  0  0  0  0  0  0  0  0
    1.2273    0.0812   -3.5992 C   0  0  0  0  0  0  0  0  0  0  0  0
    0.9686   -1.6622   -4.1195 S   0  0  0  0  0  0  0  0  0  0  0  0
   -1.1997   -0.4573   -3.2593 H   0  0  0  0  0  0  0  0  0  0  0  0
    0.7985   -0.4200   -1.5582 H   0  0  0  0  0  0  0  0  0  0  0  0
    0.8686    0.7662   -4.3737 H   0  0  0  0  0  0  0  0  0  0  0  0
    2.3020    0.2549   -3.4742 H   0  0  0  0  0  0  0  0  0  0  0  0
    1.0591    1.8496   -0.2961 N   0  0  0  0  0  0  0  0  0  0  0  0
    1.5088    3.0594    0.4013 C   0  0  2  0  0  0  0  0  0  0  0  0
    1.9097    2.7568    1.8610 C   0  0  0  0  0  0  0  0  0  0  0  0
    1.5715    1.7055    2.3942 O   0  0  0  0  0  0  0  0  0  0  0  0
    0.3752    4.0914    0.3671 C   0  0  0  0  0  0  0  0  0  0  0  0
    0.5835    1.1474    0.2691 H   0  0  0  0  0  0  0  0  0  0  0  0
    2.3886    3.4668   -0.1072 H   0  0  0  0  0  0  0  0  0  0  0  0
   -0.5178    3.6920    0.8592 H   0  0  0  0  0  0  0  0  0  0  0  0
    0.6741    5.0114    0.8778 H   0  0  0  0  0  0  0  0  0  0  0  0
    0.1161    4.3408   -0.6667 H   0  0  0  0  0  0  0  0  0  0  0  0
    2.6567    3.6684    2.5849 N   0  0  0  0  0  0  0  0  0  0  0  0
    3.0577    3.4539    3.9704 C   0  0  0  0  0  0  0  0  0  0  0  0
    2.9205    4.5338    2.1234 H   0  0  0  0  0  0  0  0  0  0  0  0
    2.1769    3.3801    4.6170 H   0  0  0  0  0  0  0  0  0  0  0  0
    3.6407    2.5314    4.0627 H   0  0  0  0  0  0  0  0  0  0  0  0
    3.6742    4.2878    4.3196 H   0  0  0  0  0  0  0  0  0  0  0  0
  1  2  2  0  0  0  0
  1  3  1  0  0  0  0
  1  7  1  0  0  0  0
  3  4  1  0  0  0  0
  3  5  1  0  0  0  0
  3  6  1  0  0  0  0
  7  8  1  0  0  0  0
  7 13  1  0  0  0  0
  8  9  1  0  0  0  0
  8 11  1  0  0  0  0
  8 14  1  0  0  0  0
  9 10  2  0  0  0  0
  9 17  1  0  0  0  0
 11 12  1  0  0  0  0
 11 15  1  0  0  0  0
 11 16  1  0  0  0  0
 12 44  1  0  0  0  0
 17 18  1  0  0  0  0
 17 19  1  0  0  0  0
 18 20  1  0  0  0  0
 18 21  1  0  0  0  0
 18 22  1  0  0  0  0
 23 24  2  0  0  0  0
 23 25  1  0  0  0  0
 23 29  1  0  0  0  0
 25 26  1  0  0  0  0
 25 27  1  0  0  0  0
 25 28  1  0  0  0  0
 29 30  1  0  0  0  0
 29 34  1  0  0  0  0
 30 31  1  0  0  0  0
 30 33  1  0  0  0  0
 30 35  1  0  0  0  0
 31 32  2  0  0  0  0
 31 39  1  0  0  0  0
 33 36  1  0  0  0  0
 33 37  1  0  0  0  0
 33 38  1  0  0  0  0
 39 40  1  0  0  0  0
 39 45  1  0  0  0  0
 40 41  1  0  0  0  0
 40 43  1  0  0  0  0
 40 46  1  0  0  0  0
 41 42  2  0  0  0  0
 41 49  1  0  0  0  0
 43 44  1  0  0  0  0
 43 47  1  0  0  0  0
 43 48  1  0  0  0  0
 49 50  1  0  0  0  0
 49 54  1  0  0  0  0
 50 51  1  0  0  0  0
 50 53  1  0  0  0  0
 50 55  1  0  0  0  0
 51 52  2  0  0  0  0
 51 59  1  0  0  0  0
 53 56  1  0  0  0  0
 53 57  1  0  0  0  0
 53 58  1  0  0  0  0
 59 60  1  0  0  0  0
 59 61  1  0  0  0  0
 60 62  1  0  0  0  0
 60 63  1  0  0  0  0
 60 64  1  0  0  0  0
M  END
$$$$

  -OEChem-05262216053D

 64 63  0     1  0  0  0  0  0999 V2000
    1.7569   -3.2715   -9.4025 C   0  0  0  0  0  0  0  0  0  0  0  0
    0.5827   -3.0338   -9.6390 O   0  0  0  0  0  0  0  0  0  0  0  0
    2.3587   -4.6102   -9.7836 C   0  0  0  0  0  0  0  0  0  0  0  0
    2.8167   -5.0760   -8.9076 H   0  0  0  0  0  0  0  0  0  0  0  0
    1.5817   -5.2759  -10.1693 H   0  0  0  0  0  0  0  0  0  0  0  0
    3.1207   -4.4710  -10.5544 H   0  0  0  0  0  0  0  0  0  0  0  0
    2.5343   -2.3182   -8.7829 N   0  0  0  0  0  0  0  0  0  0  0  0
    2.0592   -0.9909   -8.3682 C   0  0  2  0  0  0  0  0  0  0  0  0
    3.2246    0.0082   -8.1935 C   0  0  0  0  0  0  0  0  0  0  0  0
    4.3832   -0.3593   -8.3588 O   0  0  0  0  0  0  0  0  0  0  0  0
    1.2504   -1.1241   -7.0677 C   0  0  0  0  0  0  0  0  0  0  0  0
    2.2869   -1.7868   -5.7001 S   0  0  0  0  0  0  0  0  0  0  0  0
    3.5252   -2.5183   -8.6500 H   0  0  0  0  0  0  0  0  0  0  0  0
    1.4075   -0.5867   -9.1498 H   0  0  0  0  0  0  0  0  0  0  0  0
    0.8484   -0.1488   -6.7804 H   0  0  0  0  0  0  0  0  0  0  0  0
    0.4006   -1.7950   -7.2306 H   0  0  0  0  0  0  0  0  0  0  0  0
    2.9772    1.3340   -7.8826 N   0  0  0  0  0  0  0  0  0  0  0  0
    4.0332    2.3182   -7.6769 C   0  0  0  0  0  0  0  0  0  0  0  0
    2.0116    1.6168   -7.7465 H   0  0  0  0  0  0  0  0  0  0  0  0
    4.6877    2.0120   -6.8539 H   0  0  0  0  0  0  0  0  0  0  0  0
    4.6359    2.4301   -8.5843 H   0  0  0  0  0  0  0  0  0  0  0  0
    3.5997    3.2920   -7.4288 H   0  0  0  0  0  0  0  0  0  0  0  0
   -5.6645    0.9254   -1.5898 C   0  0  0  0  0  0  0  0  0  0  0  0
   -6.0485    0.0271   -2.3217 O   0  0  0  0  0  0  0  0  0  0  0  0
   -6.5580    1.4312   -0.4734 C   0  0  0  0  0  0  0  0  0  0  0  0
   -6.8438    2.4681   -0.6652 H   0  0  0  0  0  0  0  0  0  0  0  0
   -7.4634    0.8213   -0.4087 H   0  0  0  0  0  0  0  0  0  0  0  0
   -6.0290    1.3761    0.4810 H   0  0  0  0  0  0  0  0  0  0  0  0
   -4.4083    1.4668   -1.7622 N   0  0  0  0  0  0  0  0  0  0  0  0
   -3.3881    0.9078   -2.6594 C   0  0  2  0  0  0  0  0  0  0  0  0
   -1.9742    1.0125   -2.0505 C   0  0  0  0  0  0  0  0  0  0  0  0
   -1.7824    1.7554   -1.0954 O   0  0  0  0  0  0  0  0  0  0  0  0
   -3.4545    1.6595   -3.9910 C   0  0  0  0  0  0  0  0  0  0  0  0
   -4.0781    2.1114   -1.0444 H   0  0  0  0  0  0  0  0  0  0  0  0
   -3.5888   -0.1547   -2.8352 H   0  0  0  0  0  0  0  0  0  0  0  0
   -3.2404    2.7226   -3.8410 H   0  0  0  0  0  0  0  0  0  0  0  0
   -2.7262    1.2537   -4.6995 H   0  0  0  0  0  0  0  0  0  0  0  0
   -4.4529    1.5629   -4.4292 H   0  0  0  0  0  0  0  0  0  0  0  0
   -0.9614    0.1930   -2.5219 N   0  0  0  0  0  0  0  0  0  0  0  0
    0.4875    0.3190   -2.2596 C   0  0  2  0  0  0  0  0  0  0  0  0
    0.9875    1.6654   -1.6769 C   0  0  0  0  0  0  0  0  0  0  0  0
    1.2152    2.6161   -2.4197 O   0  0  0  0  0  0  0  0  0  0  0  0
    1.2111    0.0423   -3.5835 C   0  0  0  0  0  0  0  0  0  0  0  0
    0.9391   -1.6956   -4.1128 S   0  0  0  0  0  0  0  0  0  0  0  0
   -1.2254   -0.4375   -3.2752 H   0  0  0  0  0  0  0  0  0  0  0  0
    0.7733   -0.4549   -1.5408 H   0  0  0  0  0  0  0  0  0  0  0  0
    0.8618    0.7341   -4.3568 H   0  0  0  0  0  0  0  0  0  0  0  0
    2.2865    0.2050   -3.4534 H   0  0  0  0  0  0  0  0  0  0  0  0
    1.3410    1.7554   -0.3442 N   0  0  0  0  0  0  0  0  0  0  0  0
    1.8431    2.9665    0.3137 C   0  0  2  0  0  0  0  0  0  0  0  0
    2.5916    2.6325    1.6219 C   0  0  0  0  0  0  0  0  0  0  0  0
    2.5074    1.5138    2.1179 O   0  0  0  0  0  0  0  0  0  0  0  0
    0.6555    3.8938    0.5995 C   0  0  0  0  0  0  0  0  0  0  0  0
    1.1262    0.9619    0.2580 H   0  0  0  0  0  0  0  0  0  0  0  0
    2.5492    3.4752   -0.3506 H   0  0  0  0  0  0  0  0  0  0  0  0
   -0.0643    3.3999    1.2604 H   0  0  0  0  0  0  0  0  0  0  0  0
    0.9935    4.8175    1.0780 H   0  0  0  0  0  0  0  0  0  0  0  0
    0.1435    4.1574   -0.3315 H   0  0  0  0  0  0  0  0  0  0  0  0
    3.3763    3.5880    2.2415 N   0  0  0  0  0  0  0  0  0  0  0  0
    4.1357    3.3332    3.4597 C   0  0  0  0  0  0  0  0  0  0  0  0
    3.4495    4.4980    1.7964 H   0  0  0  0  0  0  0  0  0  0  0  0
    3.4798    2.9505    4.2490 H   0  0  0  0  0  0  0  0  0  0  0  0
    4.9259    2.5988    3.2717 H   0  0  0  0  0  0  0  0  0  0  0  0
    4.5990    4.2579    3.8165 H   0  0  0  0  0  0  0  0  0  0  0  0
  1  2  2  0  0  0  0
  1  3  1  0  0  0  0
  1  7  1  0  0  0  0
  3  4  1  0  0  0  0
  3  5  1  0  0  0  0
  3  6  1  0  0  0  0
  7  8  1  0  0  0  0
  7 13  1  0  0  0  0
  8  9  1  0  0  0  0
  8 11  1  0  0  0  0
  8 14  1  0  0  0  0
  9 10  2  0  0  0  0
  9 17  1  0  0  0  0
 11 12  1  0  0  0  0
 11 15  1  0  0  0  0
 11 16  1  0  0  0  0
 12 44  1  0  0  0  0
 17 18  1  0  0  0  0
 17 19  1  0  0  0  0
 18 20  1  0  0  0  0
 18 21  1  0  0  0  0
 18 22  1  0  0  0  0
 23 24  2  0  0  0  0
 23 25  1  0  0  0  0
 23 29  1  0  0  0  0
 25 26  1  0  0  0  0
 25 27  1  0  0  0  0
 25 28  1  0  0  0  0
 29 30  1  0  0  0  0
 29 34  1  0  0  0  0
 30 31  1  0  0  0  0
 30 33  1  0  0  0  0
 30 35  1  0  0  0  0
 31 32  2  0  0  0  0
 31 39  1  0  0  0  0
 33 36  1  0  0  0  0
 33 37  1  0  0  0  0
 33 38  1  0  0  0  0
 39 40  1  0  0  0  0
 39 45  1  0  0  0  0
 40 41  1  0  0  0  0
 40 43  1  0  0  0  0
 40 46  1  0  0  0  0
 41 42  2  0  0  0  0
 41 49  1  0  0  0  0
 43 44  1  0  0  0  0
 43 47  1  0  0  0  0
 43 48  1  0  0  0  0
 49 50  1  0  0  0  0
 49 54  1  0  0  0  0
 50 51  1  0  0  0  0
 50 53  1  0  0  0  0
 50 55  1  0  0  0  0
 51 52  2  0  0  0  0
 51 59  1  0  0  0  0
 53 56  1  0  0  0  0
 53 57  1  0  0  0  0
 53 58  1  0  0  0  0
 59 60  1  0  0  0  0
 59 61  1  0  0  0  0
 60 62  1  0  0  0  0
 60 63  1  0  0  0  0
 60 64  1  0  0  0  0
M  END
$$$$

  -OEChem-05262216053D

 64 63  0     1  0  0  0  0  0999 V2000
    1.7467   -3.2772   -9.4251 C   0  0  0  0  0  0  0  0  0  0  0  0
    0.5727   -3.0436   -9.6670 O   0  0  0  0  0  0  0  0  0  0  0  0
    2.3589   -4.6094   -9.8147 C   0  0  0  0  0  0  0  0  0  0  0  0
    2.7793   -5.0989   -8.9327 H   0  0  0  0  0  0  0  0  0  0  0  0
    1.5956   -5.2618  -10.2475 H   0  0  0  0  0  0  0  0  0  0  0  0
    3.1516   -4.4561  -10.5511 H   0  0  0  0  0  0  0  0  0  0  0  0
    2.5129   -2.3276   -8.7864 N   0  0  0  0  0  0  0  0  0  0  0  0
    2.0274   -1.0075   -8.3606 C   0  0  2  0  0  0  0  0  0  0  0  0
    3.1829    0.0053   -8.1988 C   0  0  0  0  0  0  0  0  0  0  0  0
    4.3439   -0.3500   -8.3736 O   0  0  0  0  0  0  0  0  0  0  0  0
    1.2410   -1.1582   -7.0483 C   0  0  0  0  0  0  0  0  0  0  0  0
    2.3168   -1.7818   -5.6925 S   0  0  0  0  0  0  0  0  0  0  0  0
    3.5036   -2.5243   -8.6482 H   0  0  0  0  0  0  0  0  0  0  0  0
    1.3579   -0.6082   -9.1297 H   0  0  0  0  0  0  0  0  0  0  0  0
    0.8141   -0.1944   -6.7582 H   0  0  0  0  0  0  0  0  0  0  0  0
    0.4093   -1.8548   -7.1971 H   0  0  0  0  0  0  0  0  0  0  0  0
    2.9256    1.3273   -7.8793 N   0  0  0  0  0  0  0  0  0  0  0  0
    3.9760    2.3158   -7.6646 C   0  0  0  0  0  0  0  0  0  0  0  0
    1.9593    1.5996   -7.7268 H   0  0  0  0  0  0  0  0  0  0  0  0
    4.6192    2.0161   -6.8303 H   0  0  0  0  0  0  0  0  0  0  0  0
    4.5919    2.4239   -8.5637 H   0  0  0  0  0  0  0  0  0  0  0  0
    3.5363    3.2899   -7.4293 H   0  0  0  0  0  0  0  0  0  0  0  0
   -5.6694    0.9636   -1.6399 C   0  0  0  0  0  0  0  0  0  0  0  0
   -6.0612    0.1277   -2.4389 O   0  0  0  0  0  0  0  0  0  0  0  0
   -6.6021    1.4789   -0.5602 C   0  0  0  0  0  0  0  0  0  0  0  0
   -6.7543    2.5542   -0.6806 H   0  0  0  0  0  0  0  0  0  0  0  0
   -7.5707    0.9755   -0.6279 H   0  0  0  0  0  0  0  0  0  0  0  0
   -6.1731    1.2861    0.4261 H   0  0  0  0  0  0  0  0  0  0  0  0
   -4.3730    1.4279   -1.7087 N   0  0  0  0  0  0  0  0  0  0  0  0
   -3.3446    0.8752   -2.5999 C   0  0  2  0  0  0  0  0  0  0  0  0
   -1.9382    0.9424   -1.9678 C   0  0  0  0  0  0  0  0  0  0  0  0
   -1.7536    1.6287   -0.9692 O   0  0  0  0  0  0  0  0  0  0  0  0
   -3.3749    1.6548   -3.9178 C   0  0  0  0  0  0  0  0  0  0  0  0
   -4.0479    2.0262   -0.9498 H   0  0  0  0  0  0  0  0  0  0  0  0
   -3.5613   -0.1793   -2.8007 H   0  0  0  0  0  0  0  0  0  0  0  0
   -3.1500    2.7120   -3.7424 H   0  0  0  0  0  0  0  0  0  0  0  0
   -2.6376    1.2534   -4.6197 H   0  0  0  0  0  0  0  0  0  0  0  0
   -4.3651    1.5804   -4.3792 H   0  0  0  0  0  0  0  0  0  0  0  0
   -0.9245    0.1339   -2.4569 N   0  0  0  0  0  0  0  0  0  0  0  0
    0.5254    0.3017   -2.2269 C   0  0  2  0  0  0  0  0  0  0  0  0
    0.9963    1.6698   -1.6746 C   0  0  0  0  0  0  0  0  0  0  0  0
    0.9638    2.6652   -2.3925 O   0  0  0  0  0  0  0  0  0  0  0  0
    1.2329    0.0426   -3.5626 C   0  0  0  0  0  0  0  0  0  0  0  0
    0.9997   -1.7051   -4.0787 S   0  0  0  0  0  0  0  0  0  0  0  0
   -1.1846   -0.4651   -3.2362 H   0  0  0  0  0  0  0  0  0  0  0  0
    0.8458   -0.4575   -1.5071 H   0  0  0  0  0  0  0  0  0  0  0  0
    0.8498    0.7206   -4.3322 H   0  0  0  0  0  0  0  0  0  0  0  0
    2.3051    0.2373   -3.4527 H   0  0  0  0  0  0  0  0  0  0  0  0
    1.6587    1.7406   -0.4639 N   0  0  0  0  0  0  0  0  0  0  0  0
    2.1929    2.9691    0.1346 C   0  0  2  0  0  0  0  0  0  0  0  0
    3.2547    2.6554    1.2100 C   0  0  0  0  0  0  0  0  0  0  0  0
    3.3878    1.5116    1.6327 O   0  0  0  0  0  0  0  0  0  0  0  0
    1.0301    3.7589    0.7478 C   0  0  0  0  0  0  0  0  0  0  0  0
    1.7207    0.8925    0.0979 H   0  0  0  0  0  0  0  0  0  0  0  0
    2.6755    3.5736   -0.6404 H   0  0  0  0  0  0  0  0  0  0  0  0
    0.5306    3.1643    1.5195 H   0  0  0  0  0  0  0  0  0  0  0  0
    1.3900    4.6872    1.2008 H   0  0  0  0  0  0  0  0  0  0  0  0
    0.2943    4.0152   -0.0212 H   0  0  0  0  0  0  0  0  0  0  0  0
    4.0739    3.6565    1.6992 N   0  0  0  0  0  0  0  0  0  0  0  0
    5.0971    3.4294    2.7125 C   0  0  0  0  0  0  0  0  0  0  0  0
    3.9400    4.5954    1.3353 H   0  0  0  0  0  0  0  0  0  0  0  0
    4.6422    3.0767    3.6441 H   0  0  0  0  0  0  0  0  0  0  0  0
    5.8190    2.6817    2.3676 H   0  0  0  0  0  0  0  0  0  0  0  0
    5.6366    4.3582    2.9205 H   0  0  0  0  0  0  0  0  0  0  0  0
  1  2  2  0  0  0  0
  1  3  1  0  0  0  0
  1  7  1  0  0  0  0
  3  4  1  0  0  0  0
  3  5  1  0  0  0  0
  3  6  1  0  0  0  0
  7  8  1  0  0  0  0
  7 13  1  0  0  0  0
  8  9  1  0  0  0  0
  8 11  1  0  0  0  0
  8 14  1  0  0  0  0
  9 10  2  0  0  0  0
  9 17  1  0  0  0  0
 11 12  1  0  0  0  0
 11 15  1  0  0  0  0
 11 16  1  0  0  0  0
 12 44  1  0  0  0  0
 17 18  1  0  0  0  0
 17 19  1  0  0  0  0
 18 20  1  0  0  0  0
 18 21  1  0  0  0  0
 18 22  1  0  0  0  0
 23 24  2  0  0  0  0
 23 25  1  0  0  0  0
 23 29  1  0  0  0  0
 25 26  1  0  0  0  0
 25 27  1  0  0  0  0
 25 28  1  0  0  0  0
 29 30  1  0  0  0  0
 29 34  1  0  0  0  0
 30 31  1  0  0  0  0
 30 33  1  0  0  0  0
 30 35  1  0  0  0  0
 31 32  2  0  0  0  0
 31 39  1  0  0  0  0
 33 36  1  0  0  0  0
 33 37  1  0  0  0  0
 33 38  1  0  0  0  0
 39 40  1  0  0  0  0
 39 45  1  0  0  0  0
 40 41  1  0  0  0  0
 40 43  1  0  0  0  0
 40 46  1  0  0  0  0
 41 42  2  0  0  0  0
 41 49  1  0  0  0  0
 43 44  1  0  0  0  0
 43 47  1  0  0  0  0
 43 48  1  0  0  0  0
 49 50  1  0  0  0  0
 49 54  1  0  0  0  0
 50 51  1  0  0  0  0
 50 53  1  0  0  0  0
 50 55  1  0  0  0  0
 51 52  2  0  0  0  0
 51 59  1  0  0  0  0
 53 56  1  0  0  0  0
 53 57  1  0  0  0  0
 53 58  1  0  0  0  0
 59 60  1  0  0  0  0
 59 61  1  0  0  0  0
 60 62  1  0  0  0  0
 60 63  1  0  0  0  0
 60 64  1  0  0  0  0
M  END
$$$$

  -OEChem-05262216053D

 64 63  0     1  0  0  0  0  0999 V2000
    1.7564   -3.2874   -9.3576 C   0  0  0  0  0  0  0  0  0  0  0  0
    0.5764   -3.0686   -9.5842 O   0  0  0  0  0  0  0  0  0  0  0  0
    2.3767   -4.6164   -9.7453 C   0  0  0  0  0  0  0  0  0  0  0  0
    2.8531   -5.0738   -8.8748 H   0  0  0  0  0  0  0  0  0  0  0  0
    1.6072   -5.2956  -10.1218 H   0  0  0  0  0  0  0  0  0  0  0  0
    3.1264   -4.4650  -10.5252 H   0  0  0  0  0  0  0  0  0  0  0  0
    2.5220   -2.3212   -8.7425 N   0  0  0  0  0  0  0  0  0  0  0  0
    2.0276   -1.0022   -8.3219 C   0  0  2  0  0  0  0  0  0  0  0  0
    3.1735    0.0241   -8.1774 C   0  0  0  0  0  0  0  0  0  0  0  0
    4.3375   -0.3204   -8.3534 O   0  0  0  0  0  0  0  0  0  0  0  0
    1.2515   -1.1494   -7.0027 C   0  0  0  0  0  0  0  0  0  0  0  0
    2.3425   -1.7571   -5.6517 S   0  0  0  0  0  0  0  0  0  0  0  0
    3.5174   -2.5043   -8.6197 H   0  0  0  0  0  0  0  0  0  0  0  0
    1.3494   -0.6156   -9.0899 H   0  0  0  0  0  0  0  0  0  0  0  0
    0.8196   -0.1865   -6.7166 H   0  0  0  0  0  0  0  0  0  0  0  0
    0.4236   -1.8526   -7.1407 H   0  0  0  0  0  0  0  0  0  0  0  0
    2.9024    1.3493   -7.8833 N   0  0  0  0  0  0  0  0  0  0  0  0
    3.9396    2.3613   -7.7225 C   0  0  0  0  0  0  0  0  0  0  0  0
    1.9322    1.6172   -7.7487 H   0  0  0  0  0  0  0  0  0  0  0  0
    4.6171    2.0897   -6.9061 H   0  0  0  0  0  0  0  0  0  0  0  0
    4.5217    2.4642   -8.6444 H   0  0  0  0  0  0  0  0  0  0  0  0
    3.4890    3.3306   -7.4888 H   0  0  0  0  0  0  0  0  0  0  0  0
   -5.6805    0.9490   -1.6837 C   0  0  0  0  0  0  0  0  0  0  0  0
   -6.0651    0.1637   -2.5355 O   0  0  0  0  0  0  0  0  0  0  0  0
   -6.6293    1.4163   -0.5964 C   0  0  0  0  0  0  0  0  0  0  0  0
   -6.7924    2.4933   -0.6813 H   0  0  0  0  0  0  0  0  0  0  0  0
   -7.5912    0.9050   -0.6907 H   0  0  0  0  0  0  0  0  0  0  0  0
   -6.2085    1.1942    0.3871 H   0  0  0  0  0  0  0  0  0  0  0  0
   -4.3785    1.4012   -1.7025 N   0  0  0  0  0  0  0  0  0  0  0  0
   -3.3356    0.8806   -2.5962 C   0  0  2  0  0  0  0  0  0  0  0  0
   -1.9479    0.8937   -1.9215 C   0  0  0  0  0  0  0  0  0  0  0  0
   -1.7844    1.5202   -0.8802 O   0  0  0  0  0  0  0  0  0  0  0  0
   -3.3161    1.7349   -3.8665 C   0  0  0  0  0  0  0  0  0  0  0  0
   -4.0616    1.9524   -0.9052 H   0  0  0  0  0  0  0  0  0  0  0  0
   -3.5613   -0.1580   -2.8620 H   0  0  0  0  0  0  0  0  0  0  0  0
   -3.0785    2.7758   -3.6233 H   0  0  0  0  0  0  0  0  0  0  0  0
   -2.5655    1.3614   -4.5693 H   0  0  0  0  0  0  0  0  0  0  0  0
   -4.2938    1.7058   -4.3579 H   0  0  0  0  0  0  0  0  0  0  0  0
   -0.9322    0.0868   -2.4083 N   0  0  0  0  0  0  0  0  0  0  0  0
    0.5145    0.2861   -2.1838 C   0  0  2  0  0  0  0  0  0  0  0  0
    0.9622    1.6710   -1.6546 C   0  0  0  0  0  0  0  0  0  0  0  0
    0.7304    2.6784   -2.3172 O   0  0  0  0  0  0  0  0  0  0  0  0
    1.2258    0.0360   -3.5186 C   0  0  0  0  0  0  0  0  0  0  0  0
    1.0325   -1.7172   -4.0308 S   0  0  0  0  0  0  0  0  0  0  0  0
   -1.1788   -0.4676   -3.2236 H   0  0  0  0  0  0  0  0  0  0  0  0
    0.8502   -0.4581   -1.4558 H   0  0  0  0  0  0  0  0  0  0  0  0
    0.8274    0.7024   -4.2903 H   0  0  0  0  0  0  0  0  0  0  0  0
    2.2940    0.2540   -3.4110 H   0  0  0  0  0  0  0  0  0  0  0  0
    1.8801    1.7568   -0.6248 N   0  0  0  0  0  0  0  0  0  0  0  0
    2.4890    3.0005   -0.1378 C   0  0  2  0  0  0  0  0  0  0  0  0
    3.7829    2.7203    0.6557 C   0  0  0  0  0  0  0  0  0  0  0  0
    4.0750    1.5723    0.9738 O   0  0  0  0  0  0  0  0  0  0  0  0
    1.4696    3.7337    0.7425 C   0  0  0  0  0  0  0  0  0  0  0  0
    2.1514    0.8965   -0.1497 H   0  0  0  0  0  0  0  0  0  0  0  0
    2.7550    3.6340   -0.9903 H   0  0  0  0  0  0  0  0  0  0  0  0
    1.1962    3.1168    1.6045 H   0  0  0  0  0  0  0  0  0  0  0  0
    1.8827    4.6790    1.1066 H   0  0  0  0  0  0  0  0  0  0  0  0
    0.5610    3.9542    0.1727 H   0  0  0  0  0  0  0  0  0  0  0  0
    4.6346    3.7542    1.0000 N   0  0  0  0  0  0  0  0  0  0  0  0
    5.8841    3.5532    1.7240 C   0  0  0  0  0  0  0  0  0  0  0  0
    4.3737    4.6946    0.7179 H   0  0  0  0  0  0  0  0  0  0  0  0
    5.6987    3.0457    2.6765 H   0  0  0  0  0  0  0  0  0  0  0  0
    6.5763    2.9468    1.1305 H   0  0  0  0  0  0  0  0  0  0  0  0
    6.3595    4.5160    1.9342 H   0  0  0  0  0  0  0  0  0  0  0  0
  1  2  2  0  0  0  0
  1  3  1  0  0  0  0
  1  7  1  0  0  0  0
  3  4  1  0  0  0  0
  3  5  1  0  0  0  0
  3  6  1  0  0  0  0
  7  8  1  0  0  0  0
  7 13  1  0  0  0  0
  8  9  1  0  0  0  0
  8 11  1  0  0  0  0
  8 14  1  0  0  0  0
  9 10  2  0  0  0  0
  9 17  1  0  0  0  0
 11 12  1  0  0  0  0
 11 15  1  0  0  0  0
 11 16  1  0  0  0  0
 12 44  1  0  0  0  0
 17 18  1  0  0  0  0
 17 19  1  0  0  0  0
 18 20  1  0  0  0  0
 18 21  1  0  0  0  0
 18 22  1  0  0  0  0
 23 24  2  0  0  0  0
 23 25  1  0  0  0  0
 23 29  1  0  0  0  0
 25 26  1  0  0  0  0
 25 27  1  0  0  0  0
 25 28  1  0  0  0  0
 29 30  1  0  0  0  0
 29 34  1  0  0  0  0
 30 31  1  0  0  0  0
 30 33  1  0  0  0  0
 30 35  1  0  0  0  0
 31 32  2  0  0  0  0
 31 39  1  0  0  0  0
 33 36  1  0  0  0  0
 33 37  1  0  0  0  0
 33 38  1  0  0  0  0
 39 40  1  0  0  0  0
 39 45  1  0  0  0  0
 40 41  1  0  0  0  0
 40 43  1  0  0  0  0
 40 46  1  0  0  0  0
 41 42  2  0  0  0  0
 41 49  1  0  0  0  0
 43 44  1  0  0  0  0
 43 47  1  0  0  0  0
 43 48  1  0  0  0  0
 49 50  1  0  0  0  0
 49 54  1  0  0  0  0
 50 51  1  0  0  0  0
 50 53  1  0  0  0  0
 50 55  1  0  0  0  0
 51 52  2  0  0  0  0
 51 59  1  0  0  0  0
 53 56  1  0  0  0  0
 53 57  1  0  0  0  0
 53 58  1  0  0  0  0
 59 60  1  0  0  0  0
 59 61  1  0  0  0  0
 60 62  1  0  0  0  0
 60 63  1  0  0  0  0
 60 64  1  0  0  0  0
M  END
$$$$

  -OEChem-05262216053D

 64 63  0     1  0  0  0  0  0999 V2000
    1.7698   -3.2839   -9.3018 C   0  0  0  0  0  0  0  0  0  0  0  0
    0.5871   -3.0762   -9.5244 O   0  0  0  0  0  0  0  0  0  0  0  0
    2.4049   -4.6022   -9.7005 C   0  0  0  0  0  0  0  0  0  0  0  0
    2.8283   -5.0926   -8.8204 H   0  0  0  0  0  0  0  0  0  0  0  0
    1.6551   -5.2623  -10.1448 H   0  0  0  0  0  0  0  0  0  0  0  0
    3.1989   -4.4290  -10.4308 H   0  0  0  0  0  0  0  0  0  0  0  0
    2.5284   -2.3128   -8.6869 N   0  0  0  0  0  0  0  0  0  0  0  0
    2.0293   -0.9894   -8.2886 C   0  0  2  0  0  0  0  0  0  0  0  0
    3.1683    0.0491   -8.1880 C   0  0  0  0  0  0  0  0  0  0  0  0
    4.3343   -0.2923   -8.3577 O   0  0  0  0  0  0  0  0  0  0  0  0
    1.2748   -1.1143   -6.9551 C   0  0  0  0  0  0  0  0  0  0  0  0
    2.3903   -1.6772   -5.6053 S   0  0  0  0  0  0  0  0  0  0  0  0
    3.5263   -2.4860   -8.5714 H   0  0  0  0  0  0  0  0  0  0  0  0
    1.3359   -0.6258   -9.0542 H   0  0  0  0  0  0  0  0  0  0  0  0
    0.8362   -0.1501   -6.6849 H   0  0  0  0  0  0  0  0  0  0  0  0
    0.4539   -1.8304   -7.0657 H   0  0  0  0  0  0  0  0  0  0  0  0
    2.8869    1.3819   -7.9423 N   0  0  0  0  0  0  0  0  0  0  0  0
    3.9172    2.4067   -7.8178 C   0  0  0  0  0  0  0  0  0  0  0  0
    1.9139    1.6470   -7.8226 H   0  0  0  0  0  0  0  0  0  0  0  0
    4.5998    2.1651   -6.9963 H   0  0  0  0  0  0  0  0  0  0  0  0
    4.4963    2.4861   -8.7440 H   0  0  0  0  0  0  0  0  0  0  0  0
    3.4601    3.3794   -7.6120 H   0  0  0  0  0  0  0  0  0  0  0  0
   -5.7011    0.9466   -1.7297 C   0  0  0  0  0  0  0  0  0  0  0  0
   -6.0748    0.1922   -2.6141 O   0  0  0  0  0  0  0  0  0  0  0  0
   -6.6742    1.4081   -0.6613 C   0  0  0  0  0  0  0  0  0  0  0  0
   -6.7902    2.4935   -0.7060 H   0  0  0  0  0  0  0  0  0  0  0  0
   -7.6514    0.9425   -0.8157 H   0  0  0  0  0  0  0  0  0  0  0  0
   -6.3033    1.1280    0.3276 H   0  0  0  0  0  0  0  0  0  0  0  0
   -4.3892    1.3685   -1.6923 N   0  0  0  0  0  0  0  0  0  0  0  0
   -3.3267    0.8474   -2.5625 C   0  0  2  0  0  0  0  0  0  0  0  0
   -1.9619    0.8143   -1.8428 C   0  0  0  0  0  0  0  0  0  0  0  0
   -1.8282    1.3683   -0.7567 O   0  0  0  0  0  0  0  0  0  0  0  0
   -3.2448    1.7311   -3.8100 C   0  0  0  0  0  0  0  0  0  0  0  0
   -4.0875    1.8873   -0.8678 H   0  0  0  0  0  0  0  0  0  0  0  0
   -3.5642   -0.1797   -2.8604 H   0  0  0  0  0  0  0  0  0  0  0  0
   -2.9936    2.7601   -3.5331 H   0  0  0  0  0  0  0  0  0  0  0  0
   -2.4782    1.3586   -4.4959 H   0  0  0  0  0  0  0  0  0  0  0  0
   -4.2057    1.7353   -4.3341 H   0  0  0  0  0  0  0  0  0  0  0  0
   -0.9300    0.0363   -2.3412 N   0  0  0  0  0  0  0  0  0  0  0  0
    0.5103    0.2880   -2.1229 C   0  0  2  0  0  0  0  0  0  0  0  0
    0.9272    1.6840   -1.5957 C   0  0  0  0  0  0  0  0  0  0  0  0
    0.5083    2.6961   -2.1506 O   0  0  0  0  0  0  0  0  0  0  0  0
    1.2145    0.0710   -3.4669 C   0  0  0  0  0  0  0  0  0  0  0  0
    1.0778   -1.6851   -3.9858 S   0  0  0  0  0  0  0  0  0  0  0  0
   -1.1601   -0.4827   -3.1842 H   0  0  0  0  0  0  0  0  0  0  0  0
    0.8756   -0.4472   -1.3995 H   0  0  0  0  0  0  0  0  0  0  0  0
    0.7819    0.7264   -4.2297 H   0  0  0  0  0  0  0  0  0  0  0  0
    2.2754    0.3264   -3.3735 H   0  0  0  0  0  0  0  0  0  0  0  0
    2.0572    1.8041   -0.8074 N   0  0  0  0  0  0  0  0  0  0  0  0
    2.7005    3.0708   -0.4361 C   0  0  2  0  0  0  0  0  0  0  0  0
    4.1720    2.8566   -0.0210 C   0  0  0  0  0  0  0  0  0  0  0  0
    4.6068    1.7215    0.1426 O   0  0  0  0  0  0  0  0  0  0  0  0
    1.9042    3.7025    0.7116 C   0  0  0  0  0  0  0  0  0  0  0  0
    2.5091    0.9497   -0.4824 H   0  0  0  0  0  0  0  0  0  0  0  0
    2.6983    3.7490   -1.2958 H   0  0  0  0  0  0  0  0  0  0  0  0
    1.8998    3.0408    1.5838 H   0  0  0  0  0  0  0  0  0  0  0  0
    2.3425    4.6613    1.0030 H   0  0  0  0  0  0  0  0  0  0  0  0
    0.8681    3.8786    0.4048 H   0  0  0  0  0  0  0  0  0  0  0  0
    5.0178    3.9366    0.1546 N   0  0  0  0  0  0  0  0  0  0  0  0
    6.4132    3.8035    0.5566 C   0  0  0  0  0  0  0  0  0  0  0  0
    4.6311    4.8658    0.0168 H   0  0  0  0  0  0  0  0  0  0  0  0
    6.4845    3.3333    1.5431 H   0  0  0  0  0  0  0  0  0  0  0  0
    6.9639    3.1920   -0.1659 H   0  0  0  0  0  0  0  0  0  0  0  0
    6.8882    4.7880    0.6078 H   0  0  0  0  0  0  0  0  0  0  0  0
  1  2  2  0  0  0  0
  1  3  1  0  0  0  0
  1  7  1  0  0  0  0
  3  4  1  0  0  0  0
  3  5  1  0  0  0  0
  3  6  1  0  0  0  0
  7  8  1  0  0  0  0
  7 13  1  0  0  0  0
  8  9  1  0  0  0  0
  8 11  1  0  0  0  0
  8 14  1  0  0  0  0
  9 10  2  0  0  0  0
  9 17  1  0  0  0  0
 11 12  1  0  0  0  0
 11 15  1  0  0  0  0
 11 16  1  0  0  0  0
 12 44  1  0  0  0  0
 17 18  1  0  0  0  0
 17 19  1  0  0  0  0
 18 20  1  0  0  0  0
 18 21  1  0  0  0  0
 18 22  1  0  0  0  0
 23 24  2  0  0  0  0
 23 25  1  0  0  0  0
 23 29  1  0  0  0  0
 25 26  1  0  0  0  0
 25 27  1  0  0  0  0
 25 28  1  0  0  0  0
 29 30  1  0  0  0  0
 29 34  1  0  0  0  0
 30 31  1  0  0  0  0
 30 33  1  0  0  0  0
 30 35  1  0  0  0  0
 31 32  2  0  0  0  0
 31 39  1  0  0  0  0
 33 36  1  0  0  0  0
 33 37  1  0  0  0  0
 33 38  1  0  0  0  0
 39 40  1  0  0  0  0
 39 45  1  0  0  0  0
 40 41  1  0  0  0  0
 40 43  1  0  0  0  0
 40 46  1  0  0  0  0
 41 42  2  0  0  0  0
 41 49  1  0  0  0  0
 43 44  1  0  0  0  0
 43 47  1  0  0  0  0
 43 48  1  0  0  0  0
 49 50  1  0  0  0  0
 49 54  1  0  0  0  0
 50 51  1  0  0  0  0
 50 53  1  0  0  0  0
 50 55  1  0  0  0  0
 51 52  2  0  0  0  0
 51 59  1  0  0  0  0
 53 56  1  0  0  0  0
 53 57  1  0  0  0  0
 53 58  1  0  0  0  0
 59 60  1  0  0  0  0
 59 61  1  0  0  0  0
 60 62  1  0  0  0  0
 60 63  1  0  0  0  0
 60 64  1  0  0  0  0
M  END
$$$$

  -OEChem-05262216053D

 64 63  0     1  0  0  0  0  0999 V2000
    1.7704   -3.2545   -9.2561 C   0  0  0  0  0  0  0  0  0  0  0  0
    0.5891   -3.0415   -9.4807 O   0  0  0  0  0  0  0  0  0  0  0  0
    2.3947   -4.5843   -9.6322 C   0  0  0  0  0  0  0  0  0  0  0  0
    2.8467   -5.0454   -8.7506 H   0  0  0  0  0  0  0  0  0  0  0  0
    1.6321   -5.2593  -10.0306 H   0  0  0  0  0  0  0  0  0  0  0  0
    3.1650   -4.4333  -10.3922 H   0  0  0  0  0  0  0  0  0  0  0  0
    2.5361   -2.2801   -8.6551 N   0  0  0  0  0  0  0  0  0  0  0  0
    2.0424   -0.9517   -8.2668 C   0  0  2  0  0  0  0  0  0  0  0  0
    3.1823    0.0879   -8.1881 C   0  0  0  0  0  0  0  0  0  0  0  0
    4.3466   -0.2565   -8.3619 O   0  0  0  0  0  0  0  0  0  0  0  0
    1.3000   -1.0634   -6.9252 C   0  0  0  0  0  0  0  0  0  0  0  0
    2.4280   -1.6092   -5.5784 S   0  0  0  0  0  0  0  0  0  0  0  0
    3.5325   -2.4594   -8.5349 H   0  0  0  0  0  0  0  0  0  0  0  0
    1.3419   -0.5963   -9.0299 H   0  0  0  0  0  0  0  0  0  0  0  0
    0.8611   -0.0972   -6.6623 H   0  0  0  0  0  0  0  0  0  0  0  0
    0.4805   -1.7831   -7.0220 H   0  0  0  0  0  0  0  0  0  0  0  0
    2.9043    1.4243   -7.9589 N   0  0  0  0  0  0  0  0  0  0  0  0
    3.9358    2.4514   -7.8729 C   0  0  0  0  0  0  0  0  0  0  0  0
    1.9325    1.6941   -7.8413 H   0  0  0  0  0  0  0  0  0  0  0  0
    4.6430    2.2182   -7.0696 H   0  0  0  0  0  0  0  0  0  0  0  0
    4.4860    2.5229   -8.8170 H   0  0  0  0  0  0  0  0  0  0  0  0
    3.4833    3.4251   -7.6620 H   0  0  0  0  0  0  0  0  0  0  0  0
   -5.7038    0.9330   -1.7845 C   0  0  0  0  0  0  0  0  0  0  0  0
   -6.0600    0.2533   -2.7341 O   0  0  0  0  0  0  0  0  0  0  0  0
   -6.7081    1.3493   -0.7267 C   0  0  0  0  0  0  0  0  0  0  0  0
   -6.8003    2.4379   -0.7093 H   0  0  0  0  0  0  0  0  0  0  0  0
   -7.6876    0.9151   -0.9455 H   0  0  0  0  0  0  0  0  0  0  0  0
   -6.3808    1.0022    0.2565 H   0  0  0  0  0  0  0  0  0  0  0  0
   -4.3844    1.3134   -1.6654 N   0  0  0  0  0  0  0  0  0  0  0  0
   -3.3015    0.8237   -2.5273 C   0  0  2  0  0  0  0  0  0  0  0  0
   -1.9633    0.7291   -1.7649 C   0  0  0  0  0  0  0  0  0  0  0  0
   -1.8664    1.1835   -0.6297 O   0  0  0  0  0  0  0  0  0  0  0  0
   -3.1639    1.7739   -3.7202 C   0  0  0  0  0  0  0  0  0  0  0  0
   -4.1029    1.7644   -0.7951 H   0  0  0  0  0  0  0  0  0  0  0  0
   -3.5446   -0.1807   -2.8904 H   0  0  0  0  0  0  0  0  0  0  0  0
   -2.9016    2.7804   -3.3778 H   0  0  0  0  0  0  0  0  0  0  0  0
   -2.3839    1.4240   -4.4026 H   0  0  0  0  0  0  0  0  0  0  0  0
   -4.1068    1.8281   -4.2736 H   0  0  0  0  0  0  0  0  0  0  0  0
   -0.9152   -0.0153   -2.2785 N   0  0  0  0  0  0  0  0  0  0  0  0
    0.5175    0.2805   -2.0611 C   0  0  2  0  0  0  0  0  0  0  0  0
    0.9072    1.6823   -1.5206 C   0  0  0  0  0  0  0  0  0  0  0  0
    0.3231    2.6835   -1.9244 O   0  0  0  0  0  0  0  0  0  0  0  0
    1.2119    0.0977   -3.4177 C   0  0  0  0  0  0  0  0  0  0  0  0
    1.1212   -1.6571   -3.9539 S   0  0  0  0  0  0  0  0  0  0  0  0
   -1.1285   -0.4836   -3.1546 H   0  0  0  0  0  0  0  0  0  0  0  0
    0.9088   -0.4509   -1.3471 H   0  0  0  0  0  0  0  0  0  0  0  0
    0.7502    0.7480   -4.1676 H   0  0  0  0  0  0  0  0  0  0  0  0
    2.2675    0.3808   -3.3388 H   0  0  0  0  0  0  0  0  0  0  0  0
    2.1804    1.8732   -1.0124 N   0  0  0  0  0  0  0  0  0  0  0  0
    2.8180    3.1766   -0.7809 C   0  0  2  0  0  0  0  0  0  0  0  0
    4.3562    3.0510   -0.7560 C   0  0  0  0  0  0  0  0  0  0  0  0
    4.8823    1.9434   -0.7802 O   0  0  0  0  0  0  0  0  0  0  0  0
    2.2984    3.7458    0.5442 C   0  0  0  0  0  0  0  0  0  0  0  0
    2.7648    1.0501   -0.8661 H   0  0  0  0  0  0  0  0  0  0  0  0
    2.5607    3.8619   -1.5954 H   0  0  0  0  0  0  0  0  0  0  0  0
    2.5656    3.0844    1.3745 H   0  0  0  0  0  0  0  0  0  0  0  0
    2.7253    4.7348    0.7339 H   0  0  0  0  0  0  0  0  0  0  0  0
    1.2083    3.8437    0.5155 H   0  0  0  0  0  0  0  0  0  0  0  0
    5.1554    4.1793   -0.7345 N   0  0  0  0  0  0  0  0  0  0  0  0
    6.6126    4.1274   -0.7229 C   0  0  0  0  0  0  0  0  0  0  0  0
    4.6946    5.0843   -0.7120 H   0  0  0  0  0  0  0  0  0  0  0  0
    6.9702    3.5871    0.1601 H   0  0  0  0  0  0  0  0  0  0  0  0
    6.9862    3.6219   -1.6198 H   0  0  0  0  0  0  0  0  0  0  0  0
    7.0273    5.1398   -0.6997 H   0  0  0  0  0  0  0  0  0  0  0  0
  1  2  2  0  0  0  0
  1  3  1  0  0  0  0
  1  7  1  0  0  0  0
  3  4  1  0  0  0  0
  3  5  1  0  0  0  0
  3  6  1  0  0  0  0
  7  8  1  0  0  0  0
  7 13  1  0  0  0  0
  8  9  1  0  0  0  0
  8 11  1  0  0  0  0
  8 14  1  0  0  0  0
  9 10  2  0  0  0  0
  9 17  1  0  0  0  0
 11 12  1  0  0  0  0
 11 15  1  0  0  0  0
 11 16  1  0  0  0  0
 12 44  1  0  0  0  0
 17 18  1  0  0  0  0
 17 19  1  0  0  0  0
 18 20  1  0  0  0  0
 18 21  1  0  0  0  0
 18 22  1  0  0  0  0
 23 24  2  0  0  0  0
 23 25  1  0  0  0  0
 23 29  1  0  0  0  0
 25 26  1  0  0  0  0
 25 27  1  0  0  0  0
 25 28  1  0  0  0  0
 29 30  1  0  0  0  0
 29 34  1  0  0  0  0
 30 31  1  0  0  0  0
 30 33  1  0  0  0  0
 30 35  1  0  0  0  0
 31 32  2  0  0  0  0
 31 39  1  0  0  0  0
 33 36  1  0  0  0  0
 33 37  1  0  0  0  0
 33 38  1  0  0  0  0
 39 40  1  0  0  0  0
 39 45  1  0  0  0  0
 40 41  1  0  0  0  0
 40 43  1  0  0  0  0
 40 46  1  0  0  0  0
 41 42  2  0  0  0  0
 41 49  1  0  0  0  0
 43 44  1  0  0  0  0
 43 47  1  0  0  0  0
 43 48  1  0  0  0  0
 49 50  1  0  0  0  0
 49 54  1  0  0  0  0
 50 51  1  0  0  0  0
 50 53  1  0  0  0  0
 50 55  1  0  0  0  0
 51 52  2  0  0  0  0
 51 59  1  0  0  0  0
 53 56  1  0  0  0  0
 53 57  1  0  0  0  0
 53 58  1  0  0  0  0
 59 60  1  0  0  0  0
 59 61  1  0  0  0  0
 60 62  1  0  0  0  0
 60 63  1  0  0  0  0
 60 64  1  0  0  0  0
M  END
$$$$

  -OEChem-05262216053D

 64 63  0     1  0  0  0  0  0999 V2000
    1.8997   -1.2032  -10.1463 C   0  0  0  0  0  0  0  0  0  0  0  0
    0.6871   -1.0773  -10.2203 O   0  0  0  0  0  0  0  0  0  0  0  0
    2.6100   -2.2633  -10.9657 C   0  0  0  0  0  0  0  0  0  0  0  0
    3.2337   -2.8824  -10.3161 H   0  0  0  0  0  0  0  0  0  0  0  0
    1.8800   -2.9045  -11.4675 H   0  0  0  0  0  0  0  0  0  0  0  0
    3.2412   -1.7879  -11.7200 H   0  0  0  0  0  0  0  0  0  0  0  0
    2.6251   -0.3746   -9.3194 N   0  0  0  0  0  0  0  0  0  0  0  0
    2.0543    0.7124   -8.5122 C   0  0  2  0  0  0  0  0  0  0  0  0
    3.1202    1.7660   -8.1343 C   0  0  0  0  0  0  0  0  0  0  0  0
    4.2836    1.6218   -8.4965 O   0  0  0  0  0  0  0  0  0  0  0  0
    1.3962    0.1218   -7.2553 C   0  0  0  0  0  0  0  0  0  0  0  0
    2.6350   -0.6972   -6.1686 S   0  0  0  0  0  0  0  0  0  0  0  0
    3.6413   -0.4536   -9.3343 H   0  0  0  0  0  0  0  0  0  0  0  0
    1.2895    1.2285   -9.1020 H   0  0  0  0  0  0  0  0  0  0  0  0
    0.8921    0.9153   -6.6970 H   0  0  0  0  0  0  0  0  0  0  0  0
    0.6332   -0.6075   -7.5457 H   0  0  0  0  0  0  0  0  0  0  0  0
    2.7779    2.8942   -7.4088 N   0  0  0  0  0  0  0  0  0  0  0  0
    3.7523    3.8869   -6.9713 C   0  0  0  0  0  0  0  0  0  0  0  0
    1.8129    2.9892   -7.1058 H   0  0  0  0  0  0  0  0  0  0  0  0
    4.5006    3.4263   -6.3175 H   0  0  0  0  0  0  0  0  0  0  0  0
    4.2615    4.3309   -7.8331 H   0  0  0  0  0  0  0  0  0  0  0  0
    3.2542    4.6875   -6.4160 H   0  0  0  0  0  0  0  0  0  0  0  0
   -5.0173    1.4741   -1.0707 C   0  0  0  0  0  0  0  0  0  0  0  0
   -5.2703    0.3220   -0.7538 O   0  0  0  0  0  0  0  0  0  0  0  0
   -5.6359    2.6265   -0.3030 C   0  0  0  0  0  0  0  0  0  0  0  0
   -6.2621    3.2236   -0.9699 H   0  0  0  0  0  0  0  0  0  0  0  0
   -6.2534    2.2467    0.5157 H   0  0  0  0  0  0  0  0  0  0  0  0
   -4.8492    3.2603    0.1134 H   0  0  0  0  0  0  0  0  0  0  0  0
   -4.1630    1.7325   -2.1217 N   0  0  0  0  0  0  0  0  0  0  0  0
   -3.3329    0.7126   -2.7735 C   0  0  2  0  0  0  0  0  0  0  0  0
   -1.8916    1.2219   -2.9671 C   0  0  0  0  0  0  0  0  0  0  0  0
   -1.6909    2.4073   -3.2051 O   0  0  0  0  0  0  0  0  0  0  0  0
   -3.9737    0.3614   -4.1180 C   0  0  0  0  0  0  0  0  0  0  0  0
   -3.8665    2.7003   -2.2457 H   0  0  0  0  0  0  0  0  0  0  0  0
   -3.2812   -0.1881   -2.1525 H   0  0  0  0  0  0  0  0  0  0  0  0
   -4.0250    1.2468   -4.7601 H   0  0  0  0  0  0  0  0  0  0  0  0
   -3.3916   -0.4092   -4.6323 H   0  0  0  0  0  0  0  0  0  0  0  0
   -4.9890   -0.0174   -3.9639 H   0  0  0  0  0  0  0  0  0  0  0  0
   -0.8442    0.3339   -3.1250 N   0  0  0  0  0  0  0  0  0  0  0  0
    0.4878    0.4498   -2.4834 C   0  0  2  0  0  0  0  0  0  0  0  0
    0.8239    1.6328   -1.5274 C   0  0  0  0  0  0  0  0  0  0  0  0
   -0.0411    2.2445   -0.9149 O   0  0  0  0  0  0  0  0  0  0  0  0
    1.4769    0.4564   -3.6582 C   0  0  0  0  0  0  0  0  0  0  0  0
    1.4258   -1.1582   -4.5366 S   0  0  0  0  0  0  0  0  0  0  0  0
   -1.1618   -0.6261   -3.2231 H   0  0  0  0  0  0  0  0  0  0  0  0
    0.6534   -0.4511   -1.8850 H   0  0  0  0  0  0  0  0  0  0  0  0
    1.2195    1.2692   -4.3448 H   0  0  0  0  0  0  0  0  0  0  0  0
    2.5020    0.6259   -3.3150 H   0  0  0  0  0  0  0  0  0  0  0  0
    2.0889    1.6839   -0.9658 N   0  0  0  0  0  0  0  0  0  0  0  0
    2.5481    2.7424   -0.0543 C   0  0  2  0  0  0  0  0  0  0  0  0
    3.9076    3.3128   -0.5078 C   0  0  0  0  0  0  0  0  0  0  0  0
    4.5644    2.7237   -1.3601 O   0  0  0  0  0  0  0  0  0  0  0  0
    2.6473    2.1446    1.3510 C   0  0  0  0  0  0  0  0  0  0  0  0
    2.8279    1.1977   -1.4722 H   0  0  0  0  0  0  0  0  0  0  0  0
    1.8374    3.5757   -0.0407 H   0  0  0  0  0  0  0  0  0  0  0  0
    3.3658    1.3189    1.3666 H   0  0  0  0  0  0  0  0  0  0  0  0
    2.9718    2.9029    2.0698 H   0  0  0  0  0  0  0  0  0  0  0  0
    1.6714    1.7634    1.6683 H   0  0  0  0  0  0  0  0  0  0  0  0
    4.3902    4.4916    0.0297 N   0  0  0  0  0  0  0  0  0  0  0  0
    5.6663    5.0832   -0.3542 C   0  0  0  0  0  0  0  0  0  0  0  0
    3.8208    4.9589    0.7297 H   0  0  0  0  0  0  0  0  0  0  0  0
    6.4944    4.4254   -0.0696 H   0  0  0  0  0  0  0  0  0  0  0  0
    5.7038    5.2493   -1.4364 H   0  0  0  0  0  0  0  0  0  0  0  0
    5.8012    6.0466    0.1469 H   0  0  0  0  0  0  0  0  0  0  0  0
  1  2  2  0  0  0  0
  1  3  1  0  0  0  0
  1  7  1  0  0  0  0
  3  4  1  0  0  0  0
  3  5  1  0  0  0  0
  3  6  1  0  0  0  0
  7  8  1  0  0  0  0
  7 13  1  0  0  0  0
  8  9  1  0  0  0  0
  8 11  1  0  0  0  0
  8 14  1  0  0  0  0
  9 10  2  0  0  0  0
  9 17  1  0  0  0  0
 11 12  1  0  0  0  0
 11 15  1  0  0  0  0
 11 16  1  0  0  0  0
 12 44  1  0  0  0  0
 17 18  1  0  0  0  0
 17 19  1  0  0  0  0
 18 20  1  0  0  0  0
 18 21  1  0  0  0  0
 18 22  1  0  0  0  0
 23 24  2  0  0  0  0
 23 25  1  0  0  0  0
 23 29  1  0  0  0  0
 25 26  1  0  0  0  0
 25 27  1  0  0  0  0
 25 28  1  0  0  0  0
 29 30  1  0  0  0  0
 29 34  1  0  0  0  0
 30 31  1  0  0  0  0
 30 33  1  0  0  0  0
 30 35  1  0  0  0  0
 31 32  2  0  0  0  0
 31 39  1  0  0  0  0
 33 36  1  0  0  0  0
 33 37  1  0  0  0  0
 33 38  1  0  0  0  0
 39 40  1  0  0  0  0
 39 45  1  0  0  0  0
 40 41  1  0  0  0  0
 40 43  1  0  0  0  0
 40 46  1  0  0  0  0
 41 42  2  0  0  0  0
 41 49  1  0  0  0  0
 43 44  1  0  0  0  0
 43 47  1  0  0  0  0
 43 48  1  0  0  0  0
 49 50  1  0  0  0  0
 49 54  1  0  0  0  0
 50 51  1  0  0  0  0
 50 53  1  0  0  0  0
 50 55  1  0  0  0  0
 51 52  2  0  0  0  0
 51 59  1  0  0  0  0
 53 56  1  0  0  0  0
 53 57  1  0  0  0  0
 53 58  1  0  0  0  0
 59 60  1  0  0  0  0
 59 61  1  0  0  0  0
 60 62  1  0  0  0  0
 60 63  1  0  0  0  0
 60 64  1  0  0  0  0
M  END
$$$$

  -OEChem-05262216053D

 64 63  0     1  0  0  0  0  0999 V2000
    2.2680   -0.7306  -10.3545 C   0  0  0  0  0  0  0  0  0  0  0  0
    1.0764   -0.6055  -10.5910 O   0  0  0  0  0  0  0  0  0  0  0  0
    3.1684   -1.4648  -11.3304 C   0  0  0  0  0  0  0  0  0  0  0  0
    3.6929   -2.2752  -10.8178 H   0  0  0  0  0  0  0  0  0  0  0  0
    2.5754   -1.8897  -12.1452 H   0  0  0  0  0  0  0  0  0  0  0  0
    3.9032   -0.7744  -11.7518 H   0  0  0  0  0  0  0  0  0  0  0  0
    2.7969   -0.1915   -9.2024 N   0  0  0  0  0  0  0  0  0  0  0  0
    2.0453    0.6332   -8.2460 C   0  0  2  0  0  0  0  0  0  0  0  0
    2.9746    1.5895   -7.4638 C   0  0  0  0  0  0  0  0  0  0  0  0
    4.1809    1.5896   -7.6881 O   0  0  0  0  0  0  0  0  0  0  0  0
    1.2643   -0.2810   -7.2879 C   0  0  0  0  0  0  0  0  0  0  0  0
    2.4015   -1.2224   -6.1863 S   0  0  0  0  0  0  0  0  0  0  0  0
    3.8095   -0.2187   -9.0866 H   0  0  0  0  0  0  0  0  0  0  0  0
    1.3348    1.2591   -8.7962 H   0  0  0  0  0  0  0  0  0  0  0  0
    0.5880    0.3251   -6.6795 H   0  0  0  0  0  0  0  0  0  0  0  0
    0.6469   -0.9816   -7.8595 H   0  0  0  0  0  0  0  0  0  0  0  0
    2.4657    2.4575   -6.5129 N   0  0  0  0  0  0  0  0  0  0  0  0
    3.3061    3.3171   -5.6867 C   0  0  0  0  0  0  0  0  0  0  0  0
    1.4629    2.4533   -6.3514 H   0  0  0  0  0  0  0  0  0  0  0  0
    4.0687    2.7248   -5.1698 H   0  0  0  0  0  0  0  0  0  0  0  0
    3.8050    4.0732   -6.3015 H   0  0  0  0  0  0  0  0  0  0  0  0
    2.7001    3.8288   -4.9326 H   0  0  0  0  0  0  0  0  0  0  0  0
   -5.0840    1.8314   -1.1014 C   0  0  0  0  0  0  0  0  0  0  0  0
   -5.4898    0.7383   -0.7385 O   0  0  0  0  0  0  0  0  0  0  0  0
   -5.6534    3.0967   -0.4869 C   0  0  0  0  0  0  0  0  0  0  0  0
   -6.1904    3.6719   -1.2448 H   0  0  0  0  0  0  0  0  0  0  0  0
   -6.3460    2.8442    0.3209 H   0  0  0  0  0  0  0  0  0  0  0  0
   -4.8459    3.7099   -0.0790 H   0  0  0  0  0  0  0  0  0  0  0  0
   -4.1000    1.9165   -2.0635 N   0  0  0  0  0  0  0  0  0  0  0  0
   -3.3399    0.7665   -2.5696 C   0  0  2  0  0  0  0  0  0  0  0  0
   -1.8750    1.1511   -2.8605 C   0  0  0  0  0  0  0  0  0  0  0  0
   -1.5878    2.3099   -3.1427 O   0  0  0  0  0  0  0  0  0  0  0  0
   -4.0279    0.2499   -3.8365 C   0  0  0  0  0  0  0  0  0  0  0  0
   -3.7029    2.8383   -2.2434 H   0  0  0  0  0  0  0  0  0  0  0  0
   -3.3239   -0.0281   -1.8156 H   0  0  0  0  0  0  0  0  0  0  0  0
   -4.0372    1.0251   -4.6095 H   0  0  0  0  0  0  0  0  0  0  0  0
   -3.5047   -0.6274   -4.2281 H   0  0  0  0  0  0  0  0  0  0  0  0
   -5.0616   -0.0353   -3.6160 H   0  0  0  0  0  0  0  0  0  0  0  0
   -0.9039    0.1818   -3.0359 N   0  0  0  0  0  0  0  0  0  0  0  0
    0.4747    0.2522   -2.4929 C   0  0  2  0  0  0  0  0  0  0  0  0
    0.8881    1.4943   -1.6476 C   0  0  0  0  0  0  0  0  0  0  0  0
    0.0994    1.9763   -0.8430 O   0  0  0  0  0  0  0  0  0  0  0  0
    1.3746    0.1369   -3.7333 C   0  0  0  0  0  0  0  0  0  0  0  0
    1.1771   -1.5123   -4.5235 S   0  0  0  0  0  0  0  0  0  0  0  0
   -1.2893   -0.7583   -3.0443 H   0  0  0  0  0  0  0  0  0  0  0  0
    0.6436   -0.6131   -1.8443 H   0  0  0  0  0  0  0  0  0  0  0  0
    1.1210    0.9307   -4.4421 H   0  0  0  0  0  0  0  0  0  0  0  0
    2.4296    0.2520   -3.4694 H   0  0  0  0  0  0  0  0  0  0  0  0
    2.2246    1.7546   -1.3928 N   0  0  0  0  0  0  0  0  0  0  0  0
    2.6966    2.9393   -0.6588 C   0  0  2  0  0  0  0  0  0  0  0  0
    3.6916    3.7579   -1.5067 C   0  0  0  0  0  0  0  0  0  0  0  0
    4.1951    3.2594   -2.5079 O   0  0  0  0  0  0  0  0  0  0  0  0
    3.3490    2.4598    0.6391 C   0  0  0  0  0  0  0  0  0  0  0  0
    2.8856    1.3817   -2.0722 H   0  0  0  0  0  0  0  0  0  0  0  0
    1.8621    3.6045   -0.4125 H   0  0  0  0  0  0  0  0  0  0  0  0
    4.1988    1.8043    0.4226 H   0  0  0  0  0  0  0  0  0  0  0  0
    3.7057    3.3103    1.2279 H   0  0  0  0  0  0  0  0  0  0  0  0
    2.6230    1.9035    1.2407 H   0  0  0  0  0  0  0  0  0  0  0  0
    4.0093    5.0589   -1.1632 N   0  0  0  0  0  0  0  0  0  0  0  0
    4.9236    5.8908   -1.9369 C   0  0  0  0  0  0  0  0  0  0  0  0
    3.5584    5.4545   -0.3429 H   0  0  0  0  0  0  0  0  0  0  0  0
    5.9252    5.4481   -1.9516 H   0  0  0  0  0  0  0  0  0  0  0  0
    4.5691    5.9942   -2.9681 H   0  0  0  0  0  0  0  0  0  0  0  0
    4.9937    6.8894   -1.4944 H   0  0  0  0  0  0  0  0  0  0  0  0
  1  2  2  0  0  0  0
  1  3  1  0  0  0  0
  1  7  1  0  0  0  0
  3  4  1  0  0  0  0
  3  5  1  0  0  0  0
  3  6  1  0  0  0  0
  7  8  1  0  0  0  0
  7 13  1  0  0  0  0
  8  9  1  0  0  0  0
  8 11  1  0  0  0  0
  8 14  1  0  0  0  0
  9 10  2  0  0  0  0
  9 17  1  0  0  0  0
 11 12  1  0  0  0  0
 11 15  1  0  0  0  0
 11 16  1  0  0  0  0
 12 44  1  0  0  0  0
 17 18  1  0  0  0  0
 17 19  1  0  0  0  0
 18 20  1  0  0  0  0
 18 21  1  0  0  0  0
 18 22  1  0  0  0  0
 23 24  2  0  0  0  0
 23 25  1  0  0  0  0
 23 29  1  0  0  0  0
 25 26  1  0  0  0  0
 25 27  1  0  0  0  0
 25 28  1  0  0  0  0
 29 30  1  0  0  0  0
 29 34  1  0  0  0  0
 30 31  1  0  0  0  0
 30 33  1  0  0  0  0
 30 35  1  0  0  0  0
 31 32  2  0  0  0  0
 31 39  1  0  0  0  0
 33 36  1  0  0  0  0
 33 37  1  0  0  0  0
 33 38  1  0  0  0  0
 39 40  1  0  0  0  0
 39 45  1  0  0  0  0
 40 41  1  0  0  0  0
 40 43  1  0  0  0  0
 40 46  1  0  0  0  0
 41 42  2  0  0  0  0
 41 49  1  0  0  0  0
 43 44  1  0  0  0  0
 43 47  1  0  0  0  0
 43 48  1  0  0  0  0
 49 50  1  0  0  0  0
 49 54  1  0  0  0  0
 50 51  1  0  0  0  0
 50 53  1  0  0  0  0
 50 55  1  0  0  0  0
 51 52  2  0  0  0  0
 51 59  1  0  0  0  0
 53 56  1  0  0  0  0
 53 57  1  0  0  0  0
 53 58  1  0  0  0  0
 59 60  1  0  0  0  0
 59 61  1  0  0  0  0
 60 62  1  0  0  0  0
 60 63  1  0  0  0  0
 60 64  1  0  0  0  0
M  END
$$$$

  -OEChem-05262216053D

 64 63  0     1  0  0  0  0  0999 V2000
    2.1795   -0.9632  -10.3463 C   0  0  0  0  0  0  0  0  0  0  0  0
    0.9981   -0.7456  -10.5665 O   0  0  0  0  0  0  0  0  0  0  0  0
    2.9685   -1.8869  -11.2539 C   0  0  0  0  0  0  0  0  0  0  0  0
    3.4370   -2.6785  -10.6640 H   0  0  0  0  0  0  0  0  0  0  0  0
    2.3057   -2.3444  -11.9936 H   0  0  0  0  0  0  0  0  0  0  0  0
    3.7445   -1.3223  -11.7761 H   0  0  0  0  0  0  0  0  0  0  0  0
    2.7972   -0.3598   -9.2732 N   0  0  0  0  0  0  0  0  0  0  0  0
    2.1527    0.6163   -8.3840 C   0  0  2  0  0  0  0  0  0  0  0  0
    3.1849    1.5524   -7.7151 C   0  0  0  0  0  0  0  0  0  0  0  0
    4.3828    1.3997   -7.9323 O   0  0  0  0  0  0  0  0  0  0  0  0
    1.3205   -0.1292   -7.3292 C   0  0  0  0  0  0  0  0  0  0  0  0
    2.3990   -1.0829   -6.1820 S   0  0  0  0  0  0  0  0  0  0  0  0
    3.8039   -0.4845   -9.1685 H   0  0  0  0  0  0  0  0  0  0  0  0
    1.4848    1.2505   -8.9763 H   0  0  0  0  0  0  0  0  0  0  0  0
    0.7279    0.5915   -6.7597 H   0  0  0  0  0  0  0  0  0  0  0  0
    0.6188   -0.8115   -7.8201 H   0  0  0  0  0  0  0  0  0  0  0  0
    2.7746    2.5767   -6.8794 N   0  0  0  0  0  0  0  0  0  0  0  0
    3.7023    3.4470   -6.1650 C   0  0  0  0  0  0  0  0  0  0  0  0
    1.7790    2.6823   -6.7097 H   0  0  0  0  0  0  0  0  0  0  0  0
    4.2831    2.8720   -5.4362 H   0  0  0  0  0  0  0  0  0  0  0  0
    4.3935    3.9309   -6.8631 H   0  0  0  0  0  0  0  0  0  0  0  0
    3.1532    4.2280   -5.6302 H   0  0  0  0  0  0  0  0  0  0  0  0
   -5.1722    1.4607   -0.9892 C   0  0  0  0  0  0  0  0  0  0  0  0
   -5.5048    0.2972   -0.8262 O   0  0  0  0  0  0  0  0  0  0  0  0
   -5.7915    2.5529   -0.1383 C   0  0  0  0  0  0  0  0  0  0  0  0
   -6.3659    3.2358   -0.7686 H   0  0  0  0  0  0  0  0  0  0  0  0
   -6.4600    2.1143    0.6077 H   0  0  0  0  0  0  0  0  0  0  0  0
   -5.0079    3.1143    0.3765 H   0  0  0  0  0  0  0  0  0  0  0  0
   -4.2339    1.7846   -1.9463 N   0  0  0  0  0  0  0  0  0  0  0  0
   -3.4243    0.7971   -2.6709 C   0  0  2  0  0  0  0  0  0  0  0  0
   -1.9533    1.2466   -2.7689 C   0  0  0  0  0  0  0  0  0  0  0  0
   -1.6879    2.4415   -2.8374 O   0  0  0  0  0  0  0  0  0  0  0  0
   -4.0272    0.6114   -4.0656 C   0  0  0  0  0  0  0  0  0  0  0  0
   -3.8914    2.7449   -1.9531 H   0  0  0  0  0  0  0  0  0  0  0  0
   -3.4375   -0.1619   -2.1421 H   0  0  0  0  0  0  0  0  0  0  0  0
   -4.0128    1.5565   -4.6183 H   0  0  0  0  0  0  0  0  0  0  0  0
   -3.4605   -0.1332   -4.6329 H   0  0  0  0  0  0  0  0  0  0  0  0
   -5.0638    0.2690   -3.9860 H   0  0  0  0  0  0  0  0  0  0  0  0
   -0.9555    0.3165   -3.0041 N   0  0  0  0  0  0  0  0  0  0  0  0
    0.4398    0.3924   -2.5103 C   0  0  2  0  0  0  0  0  0  0  0  0
    0.8381    1.6185   -1.6376 C   0  0  0  0  0  0  0  0  0  0  0  0
    0.1548    1.8947   -0.6578 O   0  0  0  0  0  0  0  0  0  0  0  0
    1.3106    0.2991   -3.7726 C   0  0  0  0  0  0  0  0  0  0  0  0
    1.1042   -1.3442   -4.5704 S   0  0  0  0  0  0  0  0  0  0  0  0
   -1.3090   -0.6302   -3.1117 H   0  0  0  0  0  0  0  0  0  0  0  0
    0.6374   -0.4818   -1.8820 H   0  0  0  0  0  0  0  0  0  0  0  0
    1.0415    1.1000   -4.4685 H   0  0  0  0  0  0  0  0  0  0  0  0
    2.3699    0.4095   -3.5241 H   0  0  0  0  0  0  0  0  0  0  0  0
    2.1300    2.1184   -1.6425 N   0  0  0  0  0  0  0  0  0  0  0  0
    2.5417    3.3132   -0.8926 C   0  0  2  0  0  0  0  0  0  0  0  0
    3.3104    4.2981   -1.7983 C   0  0  0  0  0  0  0  0  0  0  0  0
    3.6923    3.9397   -2.9081 O   0  0  0  0  0  0  0  0  0  0  0  0
    3.4103    2.8582    0.2820 C   0  0  0  0  0  0  0  0  0  0  0  0
    2.6743    1.9341   -2.4835 H   0  0  0  0  0  0  0  0  0  0  0  0
    1.6657    3.8450   -0.5067 H   0  0  0  0  0  0  0  0  0  0  0  0
    4.3036    2.3398   -0.0809 H   0  0  0  0  0  0  0  0  0  0  0  0
    3.7252    3.7160    0.8838 H   0  0  0  0  0  0  0  0  0  0  0  0
    2.8464    2.1738    0.9244 H   0  0  0  0  0  0  0  0  0  0  0  0
    3.5707    5.5889   -1.3768 N   0  0  0  0  0  0  0  0  0  0  0  0
    4.2913    6.5665   -2.1841 C   0  0  0  0  0  0  0  0  0  0  0  0
    3.2294    5.8644   -0.4602 H   0  0  0  0  0  0  0  0  0  0  0  0
    5.3132    6.2246   -2.3793 H   0  0  0  0  0  0  0  0  0  0  0  0
    3.7837    6.7247   -3.1416 H   0  0  0  0  0  0  0  0  0  0  0  0
    4.3433    7.5253   -1.6593 H   0  0  0  0  0  0  0  0  0  0  0  0
  1  2  2  0  0  0  0
  1  3  1  0  0  0  0
  1  7  1  0  0  0  0
  3  4  1  0  0  0  0
  3  5  1  0  0  0  0
  3  6  1  0  0  0  0
  7  8  1  0  0  0  0
  7 13  1  0  0  0  0
  8  9  1  0  0  0  0
  8 11  1  0  0  0  0
  8 14  1  0  0  0  0
  9 10  2  0  0  0  0
  9 17  1  0  0  0  0
 11 12  1  0  0  0  0
 11 15  1  0  0  0  0
 11 16  1  0  0  0  0
 12 44  1  0  0  0  0
 17 18  1  0  0  0  0
 17 19  1  0  0  0  0
 18 20  1  0  0  0  0
 18 21  1  0  0  0  0
 18 22  1  0  0  0  0
 23 24  2  0  0  0  0
 23 25  1  0  0  0  0
 23 29  1  0  0  0  0
 25 26  1  0  0  0  0
 25 27  1  0  0  0  0
 25 28  1  0  0  0  0
 29 30  1  0  0  0  0
 29 34  1  0  0  0  0
 30 31  1  0  0  0  0
 30 33  1  0  0  0  0
 30 35  1  0  0  0  0
 31 32  2  0  0  0  0
 31 39  1  0  0  0  0
 33 36  1  0  0  0  0
 33 37  1  0  0  0  0
 33 38  1  0  0  0  0
 39 40  1  0  0  0  0
 39 45  1  0  0  0  0
 40 41  1  0  0  0  0
 40 43  1  0  0  0  0
 40 46  1  0  0  0  0
 41 42  2  0  0  0  0
 41 49  1  0  0  0  0
 43 44  1  0  0  0  0
 43 47  1  0  0  0  0
 43 48  1  0  0  0  0
 49 50  1  0  0  0  0
 49 54  1  0  0  0  0
 50 51  1  0  0  0  0
 50 53  1  0  0  0  0
 50 55  1  0  0  0  0
 51 52  2  0  0  0  0
 51 59  1  0  0  0  0
 53 56  1  0  0  0  0
 53 57  1  0  0  0  0
 53 58  1  0  0  0  0
 59 60  1  0  0  0  0
 59 61  1  0  0  0  0
 60 62  1  0  0  0  0
 60 63  1  0  0  0  0
 60 64  1  0  0  0  0
M  END
$$$$

  -OEChem-05262216053D

 64 63  0     1  0  0  0  0  0999 V2000
    2.1694   -1.0495  -10.3002 C   0  0  0  0  0  0  0  0  0  0  0  0
    0.9864   -0.8590  -10.5367 O   0  0  0  0  0  0  0  0  0  0  0  0
    2.9778   -2.0055  -11.1570 C   0  0  0  0  0  0  0  0  0  0  0  0
    3.3838   -2.8078  -10.5363 H   0  0  0  0  0  0  0  0  0  0  0  0
    2.3444   -2.4459  -11.9323 H   0  0  0  0  0  0  0  0  0  0  0  0
    3.8023   -1.4723  -11.6367 H   0  0  0  0  0  0  0  0  0  0  0  0
    2.7702   -0.3904   -9.2506 N   0  0  0  0  0  0  0  0  0  0  0  0
    2.1054    0.6086   -8.4027 C   0  0  2  0  0  0  0  0  0  0  0  0
    3.1167    1.5946   -7.7764 C   0  0  0  0  0  0  0  0  0  0  0  0
    4.3204    1.4350   -7.9527 O   0  0  0  0  0  0  0  0  0  0  0  0
    1.2936   -0.1090   -7.3136 C   0  0  0  0  0  0  0  0  0  0  0  0
    2.3921   -1.0434   -6.1702 S   0  0  0  0  0  0  0  0  0  0  0  0
    3.7755   -0.5051   -9.1261 H   0  0  0  0  0  0  0  0  0  0  0  0
    1.4229    1.2030   -9.0193 H   0  0  0  0  0  0  0  0  0  0  0  0
    0.7161    0.6253   -6.7456 H   0  0  0  0  0  0  0  0  0  0  0  0
    0.5803   -0.7994   -7.7754 H   0  0  0  0  0  0  0  0  0  0  0  0
    2.6808    2.6819   -7.0398 N   0  0  0  0  0  0  0  0  0  0  0  0
    3.5858    3.6380   -6.4118 C   0  0  0  0  0  0  0  0  0  0  0  0
    1.6810    2.7994   -6.9071 H   0  0  0  0  0  0  0  0  0  0  0  0
    4.1535    3.1573   -5.6082 H   0  0  0  0  0  0  0  0  0  0  0  0
    4.2899    4.0435   -7.1462 H   0  0  0  0  0  0  0  0  0  0  0  0
    3.0192    4.4716   -5.9856 H   0  0  0  0  0  0  0  0  0  0  0  0
   -5.2761    1.3346   -1.0961 C   0  0  0  0  0  0  0  0  0  0  0  0
   -5.6494    0.1724   -1.1220 O   0  0  0  0  0  0  0  0  0  0  0  0
   -5.9451    2.3267   -0.1650 C   0  0  0  0  0  0  0  0  0  0  0  0
   -6.4126    3.1255   -0.7455 H   0  0  0  0  0  0  0  0  0  0  0  0
   -6.7139    1.8246    0.4288 H   0  0  0  0  0  0  0  0  0  0  0  0
   -5.2044    2.7605    0.5112 H   0  0  0  0  0  0  0  0  0  0  0  0
   -4.2388    1.7453   -1.9060 N   0  0  0  0  0  0  0  0  0  0  0  0
   -3.4000    0.8353   -2.6953 C   0  0  2  0  0  0  0  0  0  0  0  0
   -1.9221    1.2755   -2.6710 C   0  0  0  0  0  0  0  0  0  0  0  0
   -1.6519    2.4669   -2.5760 O   0  0  0  0  0  0  0  0  0  0  0  0
   -3.9391    0.8114   -4.1278 C   0  0  0  0  0  0  0  0  0  0  0  0
   -3.8790    2.6884   -1.7625 H   0  0  0  0  0  0  0  0  0  0  0  0
   -3.4477   -0.1759   -2.2771 H   0  0  0  0  0  0  0  0  0  0  0  0
   -3.8931    1.8113   -4.5716 H   0  0  0  0  0  0  0  0  0  0  0  0
   -3.3526    0.1265   -4.7475 H   0  0  0  0  0  0  0  0  0  0  0  0
   -4.9812    0.4758   -4.1328 H   0  0  0  0  0  0  0  0  0  0  0  0
   -0.9223    0.3533   -2.9329 N   0  0  0  0  0  0  0  0  0  0  0  0
    0.4822    0.4082   -2.4641 C   0  0  2  0  0  0  0  0  0  0  0  0
    0.8978    1.6161   -1.5778 C   0  0  0  0  0  0  0  0  0  0  0  0
    0.3434    1.7693   -0.4954 O   0  0  0  0  0  0  0  0  0  0  0  0
    1.3396    0.3180   -3.7360 C   0  0  0  0  0  0  0  0  0  0  0  0
    1.1099   -1.3137   -4.5506 S   0  0  0  0  0  0  0  0  0  0  0  0
   -1.2697   -0.5821   -3.1267 H   0  0  0  0  0  0  0  0  0  0  0  0
    0.6792   -0.4741   -1.8479 H   0  0  0  0  0  0  0  0  0  0  0  0
    1.0742    1.1281   -4.4224 H   0  0  0  0  0  0  0  0  0  0  0  0
    2.4023    0.4141   -3.4914 H   0  0  0  0  0  0  0  0  0  0  0  0
    2.0743    2.3139   -1.7933 N   0  0  0  0  0  0  0  0  0  0  0  0
    2.4165    3.5546   -1.0862 C   0  0  2  0  0  0  0  0  0  0  0  0
    2.8815    4.6393   -2.0800 C   0  0  0  0  0  0  0  0  0  0  0  0
    3.1531    4.3353   -3.2380 O   0  0  0  0  0  0  0  0  0  0  0  0
    3.5146    3.2396   -0.0674 C   0  0  0  0  0  0  0  0  0  0  0  0
    2.4731    2.2316   -2.7272 H   0  0  0  0  0  0  0  0  0  0  0  0
    1.5400    3.9495   -0.5610 H   0  0  0  0  0  0  0  0  0  0  0  0
    4.4091    2.8607   -0.5719 H   0  0  0  0  0  0  0  0  0  0  0  0
    3.7865    4.1374    0.4958 H   0  0  0  0  0  0  0  0  0  0  0  0
    3.1655    2.4808    0.6402 H   0  0  0  0  0  0  0  0  0  0  0  0
    2.9959    5.9579   -1.6817 N   0  0  0  0  0  0  0  0  0  0  0  0
    3.4344    7.0266   -2.5706 C   0  0  0  0  0  0  0  0  0  0  0  0
    2.7422    6.1852   -0.7244 H   0  0  0  0  0  0  0  0  0  0  0  0
    4.4594    6.8441   -2.9098 H   0  0  0  0  0  0  0  0  0  0  0  0
    2.7792    7.0915   -3.4458 H   0  0  0  0  0  0  0  0  0  0  0  0
    3.4086    7.9878   -2.0486 H   0  0  0  0  0  0  0  0  0  0  0  0
  1  2  2  0  0  0  0
  1  3  1  0  0  0  0
  1  7  1  0  0  0  0
  3  4  1  0  0  0  0
  3  5  1  0  0  0  0
  3  6  1  0  0  0  0
  7  8  1  0  0  0  0
  7 13  1  0  0  0  0
  8  9  1  0  0  0  0
  8 11  1  0  0  0  0
  8 14  1  0  0  0  0
  9 10  2  0  0  0  0
  9 17  1  0  0  0  0
 11 12  1  0  0  0  0
 11 15  1  0  0  0  0
 11 16  1  0  0  0  0
 12 44  1  0  0  0  0
 17 18  1  0  0  0  0
 17 19  1  0  0  0  0
 18 20  1  0  0  0  0
 18 21  1  0  0  0  0
 18 22  1  0  0  0  0
 23 24  2  0  0  0  0
 23 25  1  0  0  0  0
 23 29  1  0  0  0  0
 25 26  1  0  0  0  0
 25 27  1  0  0  0  0
 25 28  1  0  0  0  0
 29 30  1  0  0  0  0
 29 34  1  0  0  0  0
 30 31  1  0  0  0  0
 30 33  1  0  0  0  0
 30 35  1  0  0  0  0
 31 32  2  0  0  0  0
 31 39  1  0  0  0  0
 33 36  1  0  0  0  0
 33 37  1  0  0  0  0
 33 38  1  0  0  0  0
 39 40  1  0  0  0  0
 39 45  1  0  0  0  0
 40 41  1  0  0  0  0
 40 43  1  0  0  0  0
 40 46  1  0  0  0  0
 41 42  2  0  0  0  0
 41 49  1  0  0  0  0
 43 44  1  0  0  0  0
 43 47  1  0  0  0  0
 43 48  1  0  0  0  0
 49 50  1  0  0  0  0
 49 54  1  0  0  0  0
 50 51  1  0  0  0  0
 50 53  1  0  0  0  0
 50 55  1  0  0  0  0
 51 52  2  0  0  0  0
 51 59  1  0  0  0  0
 53 56  1  0  0  0  0
 53 57  1  0  0  0  0
 53 58  1  0  0  0  0
 59 60  1  0  0  0  0
 59 61  1  0  0  0  0
 60 62  1  0  0  0  0
 60 63  1  0  0  0  0
 60 64  1  0  0  0  0
M  END
$$$$

  -OEChem-05262216053D

 64 63  0     1  0  0  0  0  0999 V2000
    2.0936   -1.0861  -10.2493 C   0  0  0  0  0  0  0  0  0  0  0  0
    0.9046   -0.9076  -10.4646 O   0  0  0  0  0  0  0  0  0  0  0  0
    2.8866   -2.0603  -11.0994 C   0  0  0  0  0  0  0  0  0  0  0  0
    3.3937   -2.7870  -10.4602 H   0  0  0  0  0  0  0  0  0  0  0  0
    2.2190   -2.5966  -11.7795 H   0  0  0  0  0  0  0  0  0  0  0  0
    3.6318   -1.5196  -11.6882 H   0  0  0  0  0  0  0  0  0  0  0  0
    2.7156   -0.3894   -9.2368 N   0  0  0  0  0  0  0  0  0  0  0  0
    2.0595    0.6218   -8.3963 C   0  0  2  0  0  0  0  0  0  0  0  0
    3.0694    1.6286   -7.8021 C   0  0  0  0  0  0  0  0  0  0  0  0
    4.2744    1.4533   -7.9514 O   0  0  0  0  0  0  0  0  0  0  0  0
    1.2709   -0.0785   -7.2796 C   0  0  0  0  0  0  0  0  0  0  0  0
    2.3913   -1.0045   -6.1504 S   0  0  0  0  0  0  0  0  0  0  0  0
    3.7214   -0.5082   -9.1194 H   0  0  0  0  0  0  0  0  0  0  0  0
    1.3625    1.1985   -9.0127 H   0  0  0  0  0  0  0  0  0  0  0  0
    0.7102    0.6658   -6.7077 H   0  0  0  0  0  0  0  0  0  0  0  0
    0.5447   -0.7714   -7.7165 H   0  0  0  0  0  0  0  0  0  0  0  0
    2.6271    2.7463   -7.1156 N   0  0  0  0  0  0  0  0  0  0  0  0
    3.5225    3.7112   -6.4869 C   0  0  0  0  0  0  0  0  0  0  0  0
    1.6256    2.8699   -7.0011 H   0  0  0  0  0  0  0  0  0  0  0  0
    3.9883    3.2769   -5.5961 H   0  0  0  0  0  0  0  0  0  0  0  0
    4.3104    4.0209   -7.1816 H   0  0  0  0  0  0  0  0  0  0  0  0
    2.9645    4.6035   -6.1868 H   0  0  0  0  0  0  0  0  0  0  0  0
   -5.3104    1.1911   -1.1737 C   0  0  0  0  0  0  0  0  0  0  0  0
   -5.6440    0.0230   -1.2937 O   0  0  0  0  0  0  0  0  0  0  0  0
   -6.0522    2.0963   -0.2087 C   0  0  0  0  0  0  0  0  0  0  0  0
   -6.5610    2.8911   -0.7592 H   0  0  0  0  0  0  0  0  0  0  0  0
   -6.7966    1.5215    0.3496 H   0  0  0  0  0  0  0  0  0  0  0  0
   -5.3498    2.5440    0.4986 H   0  0  0  0  0  0  0  0  0  0  0  0
   -4.2583    1.6881   -1.9143 N   0  0  0  0  0  0  0  0  0  0  0  0
   -3.3697    0.8629   -2.7430 C   0  0  2  0  0  0  0  0  0  0  0  0
   -1.8956    1.2889   -2.5897 C   0  0  0  0  0  0  0  0  0  0  0  0
   -1.6346    2.4642   -2.3637 O   0  0  0  0  0  0  0  0  0  0  0  0
   -3.8203    0.9942   -4.2002 C   0  0  0  0  0  0  0  0  0  0  0  0
   -3.9324    2.6275   -1.6894 H   0  0  0  0  0  0  0  0  0  0  0  0
   -3.4393   -0.1870   -2.4390 H   0  0  0  0  0  0  0  0  0  0  0  0
   -3.7595    2.0372   -4.5275 H   0  0  0  0  0  0  0  0  0  0  0  0
   -3.1878    0.3870   -4.8547 H   0  0  0  0  0  0  0  0  0  0  0  0
   -4.8555    0.6544   -4.3073 H   0  0  0  0  0  0  0  0  0  0  0  0
   -0.8891    0.3752   -2.8614 N   0  0  0  0  0  0  0  0  0  0  0  0
    0.5229    0.4298   -2.4184 C   0  0  2  0  0  0  0  0  0  0  0  0
    0.9468    1.6392   -1.5425 C   0  0  0  0  0  0  0  0  0  0  0  0
    0.5516    1.6978   -0.3839 O   0  0  0  0  0  0  0  0  0  0  0  0
    1.3688    0.3426   -3.6966 C   0  0  0  0  0  0  0  0  0  0  0  0
    1.1347   -1.2872   -4.5119 S   0  0  0  0  0  0  0  0  0  0  0  0
   -1.2241   -0.5475   -3.1263 H   0  0  0  0  0  0  0  0  0  0  0  0
    0.7287   -0.4530   -1.8047 H   0  0  0  0  0  0  0  0  0  0  0  0
    1.0943    1.1516   -4.3809 H   0  0  0  0  0  0  0  0  0  0  0  0
    2.4320    0.4461   -3.4550 H   0  0  0  0  0  0  0  0  0  0  0  0
    1.9344    2.5225   -1.9431 N   0  0  0  0  0  0  0  0  0  0  0  0
    2.2076    3.7902   -1.2576 C   0  0  2  0  0  0  0  0  0  0  0  0
    2.3935    4.9320   -2.2786 C   0  0  0  0  0  0  0  0  0  0  0  0
    2.6166    4.6708   -3.4580 O   0  0  0  0  0  0  0  0  0  0  0  0
    3.4647    3.6122   -0.4036 C   0  0  0  0  0  0  0  0  0  0  0  0
    2.1617    2.5147   -2.9362 H   0  0  0  0  0  0  0  0  0  0  0  0
    1.3645    4.0622   -0.6125 H   0  0  0  0  0  0  0  0  0  0  0  0
    4.3211    3.3500   -1.0333 H   0  0  0  0  0  0  0  0  0  0  0  0
    3.6976    4.5349    0.1362 H   0  0  0  0  0  0  0  0  0  0  0  0
    3.3121    2.8126    0.3284 H   0  0  0  0  0  0  0  0  0  0  0  0
    2.2995    6.2534   -1.8827 N   0  0  0  0  0  0  0  0  0  0  0  0
    2.4111    7.3741   -2.8087 C   0  0  0  0  0  0  0  0  0  0  0  0
    2.0581    6.4375   -0.9127 H   0  0  0  0  0  0  0  0  0  0  0  0
    3.4002    7.3851   -3.2792 H   0  0  0  0  0  0  0  0  0  0  0  0
    1.6490    7.3004   -3.5919 H   0  0  0  0  0  0  0  0  0  0  0  0
    2.2699    8.3206   -2.2775 H   0  0  0  0  0  0  0  0  0  0  0  0
  1  2  2  0  0  0  0
  1  3  1  0  0  0  0
  1  7  1  0  0  0  0
  3  4  1  0  0  0  0
  3  5  1  0  0  0  0
  3  6  1  0  0  0  0
  7  8  1  0  0  0  0
  7 13  1  0  0  0  0
  8  9  1  0  0  0  0
  8 11  1  0  0  0  0
  8 14  1  0  0  0  0
  9 10  2  0  0  0  0
  9 17  1  0  0  0  0
 11 12  1  0  0  0  0
 11 15  1  0  0  0  0
 11 16  1  0  0  0  0
 12 44  1  0  0  0  0
 17 18  1  0  0  0  0
 17 19  1  0  0  0  0
 18 20  1  0  0  0  0
 18 21  1  0  0  0  0
 18 22  1  0  0  0  0
 23 24  2  0  0  0  0
 23 25  1  0  0  0  0
 23 29  1  0  0  0  0
 25 26  1  0  0  0  0
 25 27  1  0  0  0  0
 25 28  1  0  0  0  0
 29 30  1  0  0  0  0
 29 34  1  0  0  0  0
 30 31  1  0  0  0  0
 30 33  1  0  0  0  0
 30 35  1  0  0  0  0
 31 32  2  0  0  0  0
 31 39  1  0  0  0  0
 33 36  1  0  0  0  0
 33 37  1  0  0  0  0
 33 38  1  0  0  0  0
 39 40  1  0  0  0  0
 39 45  1  0  0  0  0
 40 41  1  0  0  0  0
 40 43  1  0  0  0  0
 40 46  1  0  0  0  0
 41 42  2  0  0  0  0
 41 49  1  0  0  0  0
 43 44  1  0  0  0  0
 43 47  1  0  0  0  0
 43 48  1  0  0  0  0
 49 50  1  0  0  0  0
 49 54  1  0  0  0  0
 50 51  1  0  0  0  0
 50 53  1  0  0  0  0
 50 55  1  0  0  0  0
 51 52  2  0  0  0  0
 51 59  1  0  0  0  0
 53 56  1  0  0  0  0
 53 57  1  0  0  0  0
 53 58  1  0  0  0  0
 59 60  1  0  0  0  0
 59 61  1  0  0  0  0
 60 62  1  0  0  0  0
 60 63  1  0  0  0  0
 60 64  1  0  0  0  0
M  END
$$$$

  -OEChem-05262216053D

 64 63  0     1  0  0  0  0  0999 V2000
    2.0436   -1.0203  -10.2126 C   0  0  0  0  0  0  0  0  0  0  0  0
    0.8428   -0.8992  -10.3997 O   0  0  0  0  0  0  0  0  0  0  0  0
    2.8639   -1.9487  -11.0871 C   0  0  0  0  0  0  0  0  0  0  0  0
    3.3536   -2.7061  -10.4702 H   0  0  0  0  0  0  0  0  0  0  0  0
    2.2188   -2.4496  -11.8142 H   0  0  0  0  0  0  0  0  0  0  0  0
    3.6247   -1.3784  -11.6253 H   0  0  0  0  0  0  0  0  0  0  0  0
    2.6538   -0.3011   -9.2088 N   0  0  0  0  0  0  0  0  0  0  0  0
    1.9693    0.6689   -8.3434 C   0  0  2  0  0  0  0  0  0  0  0  0
    2.9504    1.7025   -7.7465 C   0  0  0  0  0  0  0  0  0  0  0  0
    4.1588    1.5693   -7.9105 O   0  0  0  0  0  0  0  0  0  0  0  0
    1.2247   -0.0800   -7.2270 C   0  0  0  0  0  0  0  0  0  0  0  0
    2.3938   -0.9934   -6.1367 S   0  0  0  0  0  0  0  0  0  0  0  0
    3.6667   -0.3710   -9.1151 H   0  0  0  0  0  0  0  0  0  0  0  0
    1.2421    1.2277   -8.9420 H   0  0  0  0  0  0  0  0  0  0  0  0
    0.6510    0.6343   -6.6305 H   0  0  0  0  0  0  0  0  0  0  0  0
    0.5128   -0.7876   -7.6640 H   0  0  0  0  0  0  0  0  0  0  0  0
    2.4801    2.7988   -7.0443 N   0  0  0  0  0  0  0  0  0  0  0  0
    3.3493    3.7960   -6.4295 C   0  0  0  0  0  0  0  0  0  0  0  0
    1.4759    2.8980   -6.9300 H   0  0  0  0  0  0  0  0  0  0  0  0
    3.8156    3.3913   -5.5253 H   0  0  0  0  0  0  0  0  0  0  0  0
    4.1366    4.1080   -7.1238 H   0  0  0  0  0  0  0  0  0  0  0  0
    2.7698    4.6828   -6.1559 H   0  0  0  0  0  0  0  0  0  0  0  0
   -5.3508    1.2033   -1.2714 C   0  0  0  0  0  0  0  0  0  0  0  0
   -5.7225    0.0506   -1.4250 O   0  0  0  0  0  0  0  0  0  0  0  0
   -6.1118    2.1303   -0.3431 C   0  0  0  0  0  0  0  0  0  0  0  0
   -6.5079    2.9776   -0.9072 H   0  0  0  0  0  0  0  0  0  0  0  0
   -6.9449    1.5965    0.1221 H   0  0  0  0  0  0  0  0  0  0  0  0
   -5.4480    2.5004    0.4422 H   0  0  0  0  0  0  0  0  0  0  0  0
   -4.2324    1.6618   -1.9351 N   0  0  0  0  0  0  0  0  0  0  0  0
   -3.3198    0.8048   -2.7025 C   0  0  2  0  0  0  0  0  0  0  0  0
   -1.8492    1.2281   -2.5089 C   0  0  0  0  0  0  0  0  0  0  0  0
   -1.5963    2.3897   -2.2136 O   0  0  0  0  0  0  0  0  0  0  0  0
   -3.7130    0.8858   -4.1799 C   0  0  0  0  0  0  0  0  0  0  0  0
   -3.8864    2.5872   -1.6836 H   0  0  0  0  0  0  0  0  0  0  0  0
   -3.4086   -0.2326   -2.3624 H   0  0  0  0  0  0  0  0  0  0  0  0
   -3.6220    1.9145   -4.5437 H   0  0  0  0  0  0  0  0  0  0  0  0
   -3.0667    0.2425   -4.7851 H   0  0  0  0  0  0  0  0  0  0  0  0
   -4.7494    0.5590   -4.3144 H   0  0  0  0  0  0  0  0  0  0  0  0
   -0.8367    0.3209   -2.7813 N   0  0  0  0  0  0  0  0  0  0  0  0
    0.5822    0.3897   -2.3638 C   0  0  2  0  0  0  0  0  0  0  0  0
    1.0143    1.6129   -1.5143 C   0  0  0  0  0  0  0  0  0  0  0  0
    0.8046    1.6050   -0.3074 O   0  0  0  0  0  0  0  0  0  0  0  0
    1.4117    0.3074   -3.6522 C   0  0  0  0  0  0  0  0  0  0  0  0
    1.1898   -1.3233   -4.4676 S   0  0  0  0  0  0  0  0  0  0  0  0
   -1.1597   -0.5961   -3.0793 H   0  0  0  0  0  0  0  0  0  0  0  0
    0.8064   -0.4858   -1.7456 H   0  0  0  0  0  0  0  0  0  0  0  0
    1.1196    1.1094   -4.3375 H   0  0  0  0  0  0  0  0  0  0  0  0
    2.4753    0.4305   -3.4203 H   0  0  0  0  0  0  0  0  0  0  0  0
    1.7513    2.6492   -2.0597 N   0  0  0  0  0  0  0  0  0  0  0  0
    1.9192    3.9486   -1.4028 C   0  0  2  0  0  0  0  0  0  0  0  0
    1.7737    5.0925   -2.4282 C   0  0  0  0  0  0  0  0  0  0  0  0
    1.8574    4.8552   -3.6308 O   0  0  0  0  0  0  0  0  0  0  0  0
    3.2985    3.9794   -0.7402 C   0  0  0  0  0  0  0  0  0  0  0  0
    1.7800    2.6797   -3.0776 H   0  0  0  0  0  0  0  0  0  0  0  0
    1.1451    4.0892   -0.6405 H   0  0  0  0  0  0  0  0  0  0  0  0
    4.0862    3.8486   -1.4895 H   0  0  0  0  0  0  0  0  0  0  0  0
    3.4583    4.9331   -0.2282 H   0  0  0  0  0  0  0  0  0  0  0  0
    3.3810    3.1739   -0.0032 H   0  0  0  0  0  0  0  0  0  0  0  0
    1.5504    6.3900   -2.0070 N   0  0  0  0  0  0  0  0  0  0  0  0
    1.3589    7.5074   -2.9233 C   0  0  0  0  0  0  0  0  0  0  0  0
    1.4237    6.5437   -1.0106 H   0  0  0  0  0  0  0  0  0  0  0  0
    2.2301    7.6219   -3.5769 H   0  0  0  0  0  0  0  0  0  0  0  0
    0.4713    7.3456   -3.5438 H   0  0  0  0  0  0  0  0  0  0  0  0
    1.2246    8.4374   -2.3625 H   0  0  0  0  0  0  0  0  0  0  0  0
  1  2  2  0  0  0  0
  1  3  1  0  0  0  0
  1  7  1  0  0  0  0
  3  4  1  0  0  0  0
  3  5  1  0  0  0  0
  3  6  1  0  0  0  0
  7  8  1  0  0  0  0
  7 13  1  0  0  0  0
  8  9  1  0  0  0  0
  8 11  1  0  0  0  0
  8 14  1  0  0  0  0
  9 10  2  0  0  0  0
  9 17  1  0  0  0  0
 11 12  1  0  0  0  0
 11 15  1  0  0  0  0
 11 16  1  0  0  0  0
 12 44  1  0  0  0  0
 17 18  1  0  0  0  0
 17 19  1  0  0  0  0
 18 20  1  0  0  0  0
 18 21  1  0  0  0  0
 18 22  1  0  0  0  0
 23 24  2  0  0  0  0
 23 25  1  0  0  0  0
 23 29  1  0  0  0  0
 25 26  1  0  0  0  0
 25 27  1  0  0  0  0
 25 28  1  0  0  0  0
 29 30  1  0  0  0  0
 29 34  1  0  0  0  0
 30 31  1  0  0  0  0
 30 33  1  0  0  0  0
 30 35  1  0  0  0  0
 31 32  2  0  0  0  0
 31 39  1  0  0  0  0
 33 36  1  0  0  0  0
 33 37  1  0  0  0  0
 33 38  1  0  0  0  0
 39 40  1  0  0  0  0
 39 45  1  0  0  0  0
 40 41  1  0  0  0  0
 40 43  1  0  0  0  0
 40 46  1  0  0  0  0
 41 42  2  0  0  0  0
 41 49  1  0  0  0  0
 43 44  1  0  0  0  0
 43 47  1  0  0  0  0
 43 48  1  0  0  0  0
 49 50  1  0  0  0  0
 49 54  1  0  0  0  0
 50 51  1  0  0  0  0
 50 53  1  0  0  0  0
 50 55  1  0  0  0  0
 51 52  2  0  0  0  0
 51 59  1  0  0  0  0
 53 56  1  0  0  0  0
 53 57  1  0  0  0  0
 53 58  1  0  0  0  0
 59 60  1  0  0  0  0
 59 61  1  0  0  0  0
 60 62  1  0  0  0  0
 60 63  1  0  0  0  0
 60 64  1  0  0  0  0
M  END
$$$$

  -OEChem-05262216053D

 64 63  0     1  0  0  0  0  0999 V2000
    1.9352   -0.9086  -10.1646 C   0  0  0  0  0  0  0  0  0  0  0  0
    0.7241   -0.8484  -10.3108 O   0  0  0  0  0  0  0  0  0  0  0  0
    2.7778   -1.7427  -11.1099 C   0  0  0  0  0  0  0  0  0  0  0  0
    3.3493   -2.4834  -10.5455 H   0  0  0  0  0  0  0  0  0  0  0  0
    2.1358   -2.2633  -11.8259 H   0  0  0  0  0  0  0  0  0  0  0  0
    3.4691   -1.0993  -11.6590 H   0  0  0  0  0  0  0  0  0  0  0  0
    2.5343   -0.2033   -9.1442 N   0  0  0  0  0  0  0  0  0  0  0  0
    1.8212    0.6891   -8.2200 C   0  0  2  0  0  0  0  0  0  0  0  0
    2.7529    1.7633   -7.6153 C   0  0  0  0  0  0  0  0  0  0  0  0
    3.9626    1.7109   -7.8122 O   0  0  0  0  0  0  0  0  0  0  0  0
    1.1608   -0.1464   -7.1125 C   0  0  0  0  0  0  0  0  0  0  0  0
    2.4173   -1.0113   -6.0811 S   0  0  0  0  0  0  0  0  0  0  0  0
    3.5519   -0.2172   -9.0827 H   0  0  0  0  0  0  0  0  0  0  0  0
    1.0407    1.2214   -8.7739 H   0  0  0  0  0  0  0  0  0  0  0  0
    0.5538    0.5065   -6.4799 H   0  0  0  0  0  0  0  0  0  0  0  0
    0.4887   -0.8869   -7.5573 H   0  0  0  0  0  0  0  0  0  0  0  0
    2.2338    2.8113   -6.8745 N   0  0  0  0  0  0  0  0  0  0  0  0
    3.0523    3.8647   -6.2844 C   0  0  0  0  0  0  0  0  0  0  0  0
    1.2262    2.8585   -6.7536 H   0  0  0  0  0  0  0  0  0  0  0  0
    3.5722    3.4934   -5.3957 H   0  0  0  0  0  0  0  0  0  0  0  0
    3.7959    4.2285   -7.0012 H   0  0  0  0  0  0  0  0  0  0  0  0
    2.4232    4.7106   -5.9929 H   0  0  0  0  0  0  0  0  0  0  0  0
   -5.3843    1.1996   -1.4402 C   0  0  0  0  0  0  0  0  0  0  0  0
   -5.7644    0.0470   -1.5703 O   0  0  0  0  0  0  0  0  0  0  0  0
   -6.2082    2.1870   -0.6354 C   0  0  0  0  0  0  0  0  0  0  0  0
   -6.5747    2.9855   -1.2851 H   0  0  0  0  0  0  0  0  0  0  0  0
   -7.0644    1.6807   -0.1807 H   0  0  0  0  0  0  0  0  0  0  0  0
   -5.5961    2.6233    0.1576 H   0  0  0  0  0  0  0  0  0  0  0  0
   -4.1990    1.6029   -2.0175 N   0  0  0  0  0  0  0  0  0  0  0  0
   -3.2438    0.6944   -2.6651 C   0  0  2  0  0  0  0  0  0  0  0  0
   -1.7859    1.1495   -2.4429 C   0  0  0  0  0  0  0  0  0  0  0  0
   -1.5651    2.3050   -2.1032 O   0  0  0  0  0  0  0  0  0  0  0  0
   -3.5764    0.6353   -4.1591 C   0  0  0  0  0  0  0  0  0  0  0  0
   -3.8573    2.5344   -1.7829 H   0  0  0  0  0  0  0  0  0  0  0  0
   -3.3386   -0.3089   -2.2355 H   0  0  0  0  0  0  0  0  0  0  0  0
   -3.4869    1.6285   -4.6112 H   0  0  0  0  0  0  0  0  0  0  0  0
   -2.8994   -0.0489   -4.6797 H   0  0  0  0  0  0  0  0  0  0  0  0
   -4.6014    0.2782   -4.3029 H   0  0  0  0  0  0  0  0  0  0  0  0
   -0.7509    0.2599   -2.6881 N   0  0  0  0  0  0  0  0  0  0  0  0
    0.6708    0.3708   -2.2889 C   0  0  2  0  0  0  0  0  0  0  0  0
    1.0931    1.6289   -1.4904 C   0  0  0  0  0  0  0  0  0  0  0  0
    1.1129    1.5885   -0.2667 O   0  0  0  0  0  0  0  0  0  0  0  0
    1.4963    0.2769   -3.5775 C   0  0  0  0  0  0  0  0  0  0  0  0
    1.3100   -1.3769   -4.3535 S   0  0  0  0  0  0  0  0  0  0  0  0
   -1.0476   -0.6610   -3.0012 H   0  0  0  0  0  0  0  0  0  0  0  0
    0.9189   -0.4821   -1.6481 H   0  0  0  0  0  0  0  0  0  0  0  0
    1.1834    1.0539   -4.2808 H   0  0  0  0  0  0  0  0  0  0  0  0
    2.5565    0.4358   -3.3514 H   0  0  0  0  0  0  0  0  0  0  0  0
    1.5265    2.7702   -2.1412 N   0  0  0  0  0  0  0  0  0  0  0  0
    1.6382    4.0765   -1.4882 C   0  0  2  0  0  0  0  0  0  0  0  0
    1.2040    5.1987   -2.4536 C   0  0  0  0  0  0  0  0  0  0  0  0
    1.1444    4.9859   -3.6624 O   0  0  0  0  0  0  0  0  0  0  0  0
    3.0874    4.2747   -1.0375 C   0  0  0  0  0  0  0  0  0  0  0  0
    1.3148    2.8106   -3.1369 H   0  0  0  0  0  0  0  0  0  0  0  0
    0.9756    4.1168   -0.6166 H   0  0  0  0  0  0  0  0  0  0  0  0
    3.7627    4.2510   -1.8988 H   0  0  0  0  0  0  0  0  0  0  0  0
    3.2041    5.2361   -0.5282 H   0  0  0  0  0  0  0  0  0  0  0  0
    3.3780    3.4792   -0.3438 H   0  0  0  0  0  0  0  0  0  0  0  0
    0.8842    6.4526   -1.9678 N   0  0  0  0  0  0  0  0  0  0  0  0
    0.4192    7.5436   -2.8145 C   0  0  0  0  0  0  0  0  0  0  0  0
    0.8905    6.5800   -0.9597 H   0  0  0  0  0  0  0  0  0  0  0  0
    1.1517    7.7594   -3.5994 H   0  0  0  0  0  0  0  0  0  0  0  0
   -0.5351    7.2834   -3.2844 H   0  0  0  0  0  0  0  0  0  0  0  0
    0.2767    8.4499   -2.2182 H   0  0  0  0  0  0  0  0  0  0  0  0
  1  2  2  0  0  0  0
  1  3  1  0  0  0  0
  1  7  1  0  0  0  0
  3  4  1  0  0  0  0
  3  5  1  0  0  0  0
  3  6  1  0  0  0  0
  7  8  1  0  0  0  0
  7 13  1  0  0  0  0
  8  9  1  0  0  0  0
  8 11  1  0  0  0  0
  8 14  1  0  0  0  0
  9 10  2  0  0  0  0
  9 17  1  0  0  0  0
 11 12  1  0  0  0  0
 11 15  1  0  0  0  0
 11 16  1  0  0  0  0
 12 44  1  0  0  0  0
 17 18  1  0  0  0  0
 17 19  1  0  0  0  0
 18 20  1  0  0  0  0
 18 21  1  0  0  0  0
 18 22  1  0  0  0  0
 23 24  2  0  0  0  0
 23 25  1  0  0  0  0
 23 29  1  0  0  0  0
 25 26  1  0  0  0  0
 25 27  1  0  0  0  0
 25 28  1  0  0  0  0
 29 30  1  0  0  0  0
 29 34  1  0  0  0  0
 30 31  1  0  0  0  0
 30 33  1  0  0  0  0
 30 35  1  0  0  0  0
 31 32  2  0  0  0  0
 31 39  1  0  0  0  0
 33 36  1  0  0  0  0
 33 37  1  0  0  0  0
 33 38  1  0  0  0  0
 39 40  1  0  0  0  0
 39 45  1  0  0  0  0
 40 41  1  0  0  0  0
 40 43  1  0  0  0  0
 40 46  1  0  0  0  0
 41 42  2  0  0  0  0
 41 49  1  0  0  0  0
 43 44  1  0  0  0  0
 43 47  1  0  0  0  0
 43 48  1  0  0  0  0
 49 50  1  0  0  0  0
 49 54  1  0  0  0  0
 50 51  1  0  0  0  0
 50 53  1  0  0  0  0
 50 55  1  0  0  0  0
 51 52  2  0  0  0  0
 51 59  1  0  0  0  0
 53 56  1  0  0  0  0
 53 57  1  0  0  0  0
 53 58  1  0  0  0  0
 59 60  1  0  0  0  0
 59 61  1  0  0  0  0
 60 62  1  0  0  0  0
 60 63  1  0  0  0  0
 60 64  1  0  0  0  0
M  END
$$$$

  -OEChem-05262216053D

 64 63  0     1  0  0  0  0  0999 V2000
    1.7899   -0.7822  -10.0348 C   0  0  0  0  0  0  0  0  0  0  0  0
    0.5819   -0.8669  -10.1927 O   0  0  0  0  0  0  0  0  0  0  0  0
    2.7392   -1.4389  -11.0184 C   0  0  0  0  0  0  0  0  0  0  0  0
    3.3220   -2.2128  -10.5135 H   0  0  0  0  0  0  0  0  0  0  0  0
    2.1763   -1.8982  -11.8355 H   0  0  0  0  0  0  0  0  0  0  0  0
    3.4202   -0.6930  -11.4350 H   0  0  0  0  0  0  0  0  0  0  0  0
    2.2883   -0.0790   -8.9607 N   0  0  0  0  0  0  0  0  0  0  0  0
    1.4634    0.6496   -7.9882 C   0  0  2  0  0  0  0  0  0  0  0  0
    2.2310    1.8267   -7.3479 C   0  0  0  0  0  0  0  0  0  0  0  0
    3.4408    1.9369   -7.5172 O   0  0  0  0  0  0  0  0  0  0  0  0
    0.9700   -0.3286   -6.9119 C   0  0  0  0  0  0  0  0  0  0  0  0
    2.3799   -1.0568   -5.9758 S   0  0  0  0  0  0  0  0  0  0  0  0
    3.2991    0.0303   -8.8846 H   0  0  0  0  0  0  0  0  0  0  0  0
    0.5973    1.0777   -8.5034 H   0  0  0  0  0  0  0  0  0  0  0  0
    0.3021    0.1960   -6.2236 H   0  0  0  0  0  0  0  0  0  0  0  0
    0.3927   -1.1332   -7.3786 H   0  0  0  0  0  0  0  0  0  0  0  0
    1.5612    2.7808   -6.6010 N   0  0  0  0  0  0  0  0  0  0  0  0
    2.2146    3.9322   -5.9870 C   0  0  0  0  0  0  0  0  0  0  0  0
    0.5520    2.6992   -6.5187 H   0  0  0  0  0  0  0  0  0  0  0  0
    2.6631    3.6505   -5.0292 H   0  0  0  0  0  0  0  0  0  0  0  0
    2.9981    4.3354   -6.6377 H   0  0  0  0  0  0  0  0  0  0  0  0
    1.4847    4.7276   -5.8109 H   0  0  0  0  0  0  0  0  0  0  0  0
   -5.4317    1.0844   -1.9237 C   0  0  0  0  0  0  0  0  0  0  0  0
   -5.7908   -0.0713   -2.0830 O   0  0  0  0  0  0  0  0  0  0  0  0
   -6.4032    2.1160   -1.3827 C   0  0  0  0  0  0  0  0  0  0  0  0
   -6.5192    2.9326   -2.0996 H   0  0  0  0  0  0  0  0  0  0  0  0
   -7.3813    1.6583   -1.2098 H   0  0  0  0  0  0  0  0  0  0  0  0
   -6.0307    2.5190   -0.4381 H   0  0  0  0  0  0  0  0  0  0  0  0
   -4.1406    1.4520   -2.2377 N   0  0  0  0  0  0  0  0  0  0  0  0
   -3.0932    0.5150   -2.6636 C   0  0  2  0  0  0  0  0  0  0  0  0
   -1.6821    1.0089   -2.2758 C   0  0  0  0  0  0  0  0  0  0  0  0
   -1.5377    2.1466   -1.8502 O   0  0  0  0  0  0  0  0  0  0  0  0
   -3.2018    0.3297   -4.1818 C   0  0  0  0  0  0  0  0  0  0  0  0
   -3.8415    2.3918   -1.9791 H   0  0  0  0  0  0  0  0  0  0  0  0
   -3.2453   -0.4512   -2.1703 H   0  0  0  0  0  0  0  0  0  0  0  0
   -3.0421    1.2831   -4.6951 H   0  0  0  0  0  0  0  0  0  0  0  0
   -2.4590   -0.3893   -4.5400 H   0  0  0  0  0  0  0  0  0  0  0  0
   -4.1952   -0.0460   -4.4477 H   0  0  0  0  0  0  0  0  0  0  0  0
   -0.5959    0.1726   -2.4790 N   0  0  0  0  0  0  0  0  0  0  0  0
    0.8276    0.3736   -2.1235 C   0  0  2  0  0  0  0  0  0  0  0  0
    1.2364    1.6892   -1.4167 C   0  0  0  0  0  0  0  0  0  0  0  0
    1.6113    1.6596   -0.2517 O   0  0  0  0  0  0  0  0  0  0  0  0
    1.6097    0.2645   -3.4372 C   0  0  0  0  0  0  0  0  0  0  0  0
    1.4791   -1.4300   -4.1341 S   0  0  0  0  0  0  0  0  0  0  0  0
   -0.8302   -0.7467   -2.8466 H   0  0  0  0  0  0  0  0  0  0  0  0
    1.1349   -0.4359   -1.4529 H   0  0  0  0  0  0  0  0  0  0  0  0
    1.2312    0.9934   -4.1596 H   0  0  0  0  0  0  0  0  0  0  0  0
    2.6674    0.4898   -3.2618 H   0  0  0  0  0  0  0  0  0  0  0  0
    1.3140    2.8737   -2.1264 N   0  0  0  0  0  0  0  0  0  0  0  0
    1.4972    4.1854   -1.4994 C   0  0  2  0  0  0  0  0  0  0  0  0
    0.7659    5.2802   -2.3045 C   0  0  0  0  0  0  0  0  0  0  0  0
    0.3672    5.0509   -3.4434 O   0  0  0  0  0  0  0  0  0  0  0  0
    2.9964    4.4879   -1.4140 C   0  0  0  0  0  0  0  0  0  0  0  0
    0.7783    2.8874   -2.9938 H   0  0  0  0  0  0  0  0  0  0  0  0
    1.0683    4.1767   -0.4914 H   0  0  0  0  0  0  0  0  0  0  0  0
    3.4447    4.4886   -2.4127 H   0  0  0  0  0  0  0  0  0  0  0  0
    3.1656    5.4660   -0.9543 H   0  0  0  0  0  0  0  0  0  0  0  0
    3.5021    3.7313   -0.8061 H   0  0  0  0  0  0  0  0  0  0  0  0
    0.5689    6.5357   -1.7605 N   0  0  0  0  0  0  0  0  0  0  0  0
   -0.1358    7.6066   -2.4541 C   0  0  0  0  0  0  0  0  0  0  0  0
    0.8727    6.6850   -0.8025 H   0  0  0  0  0  0  0  0  0  0  0  0
    0.3217    7.7985   -3.4306 H   0  0  0  0  0  0  0  0  0  0  0  0
   -1.1868    7.3381   -2.6033 H   0  0  0  0  0  0  0  0  0  0  0  0
   -0.0929    8.5293   -1.8677 H   0  0  0  0  0  0  0  0  0  0  0  0
  1  2  2  0  0  0  0
  1  3  1  0  0  0  0
  1  7  1  0  0  0  0
  3  4  1  0  0  0  0
  3  5  1  0  0  0  0
  3  6  1  0  0  0  0
  7  8  1  0  0  0  0
  7 13  1  0  0  0  0
  8  9  1  0  0  0  0
  8 11  1  0  0  0  0
  8 14  1  0  0  0  0
  9 10  2  0  0  0  0
  9 17  1  0  0  0  0
 11 12  1  0  0  0  0
 11 15  1  0  0  0  0
 11 16  1  0  0  0  0
 12 44  1  0  0  0  0
 17 18  1  0  0  0  0
 17 19  1  0  0  0  0
 18 20  1  0  0  0  0
 18 21  1  0  0  0  0
 18 22  1  0  0  0  0
 23 24  2  0  0  0  0
 23 25  1  0  0  0  0
 23 29  1  0  0  0  0
 25 26  1  0  0  0  0
 25 27  1  0  0  0  0
 25 28  1  0  0  0  0
 29 30  1  0  0  0  0
 29 34  1  0  0  0  0
 30 31  1  0  0  0  0
 30 33  1  0  0  0  0
 30 35  1  0  0  0  0
 31 32  2  0  0  0  0
 31 39  1  0  0  0  0
 33 36  1  0  0  0  0
 33 37  1  0  0  0  0
 33 38  1  0  0  0  0
 39 40  1  0  0  0  0
 39 45  1  0  0  0  0
 40 41  1  0  0  0  0
 40 43  1  0  0  0  0
 40 46  1  0  0  0  0
 41 42  2  0  0  0  0
 41 49  1  0  0  0  0
 43 44  1  0  0  0  0
 43 47  1  0  0  0  0
 43 48  1  0  0  0  0
 49 50  1  0  0  0  0
 49 54  1  0  0  0  0
 50 51  1  0  0  0  0
 50 53  1  0  0  0  0
 50 55  1  0  0  0  0
 51 52  2  0  0  0  0
 51 59  1  0  0  0  0
 53 56  1  0  0  0  0
 53 57  1  0  0  0  0
 53 58  1  0  0  0  0
 59 60  1  0  0  0  0
 59 61  1  0  0  0  0
 60 62  1  0  0  0  0
 60 63  1  0  0  0  0
 60 64  1  0  0  0  0
M  END
$$$$

  -OEChem-05262216053D

 64 63  0     1  0  0  0  0  0999 V2000
    1.7737   -1.2355   -9.9611 C   0  0  0  0  0  0  0  0  0  0  0  0
    0.5595   -1.1438  -10.0572 O   0  0  0  0  0  0  0  0  0  0  0  0
    2.5269   -2.2975  -10.7396 C   0  0  0  0  0  0  0  0  0  0  0  0
    3.0444   -2.9675  -10.0486 H   0  0  0  0  0  0  0  0  0  0  0  0
    1.8325   -2.8850  -11.3468 H   0  0  0  0  0  0  0  0  0  0  0  0
    3.2611   -1.8286  -11.3992 H   0  0  0  0  0  0  0  0  0  0  0  0
    2.4596   -0.3704   -9.1375 N   0  0  0  0  0  0  0  0  0  0  0  0
    1.8407    0.7165   -8.3667 C   0  0  2  0  0  0  0  0  0  0  0  0
    2.8525    1.8351   -8.0329 C   0  0  0  0  0  0  0  0  0  0  0  0
    4.0321    1.7149   -8.3471 O   0  0  0  0  0  0  0  0  0  0  0  0
    1.2171    0.1380   -7.0863 C   0  0  0  0  0  0  0  0  0  0  0  0
    2.4989   -0.5941   -5.9878 S   0  0  0  0  0  0  0  0  0  0  0  0
    3.4778   -0.4222   -9.1296 H   0  0  0  0  0  0  0  0  0  0  0  0
    1.0492    1.1739   -8.9698 H   0  0  0  0  0  0  0  0  0  0  0  0
    0.6857    0.9267   -6.5475 H   0  0  0  0  0  0  0  0  0  0  0  0
    0.4837   -0.6315   -7.3491 H   0  0  0  0  0  0  0  0  0  0  0  0
    2.4384    3.0003   -7.4112 N   0  0  0  0  0  0  0  0  0  0  0  0
    3.3446    4.0934   -7.0797 C   0  0  0  0  0  0  0  0  0  0  0  0
    1.4520    3.0980   -7.1902 H   0  0  0  0  0  0  0  0  0  0  0  0
    4.1407    3.7429   -6.4141 H   0  0  0  0  0  0  0  0  0  0  0  0
    3.7994    4.5033   -7.9880 H   0  0  0  0  0  0  0  0  0  0  0  0
    2.7999    4.8959   -6.5727 H   0  0  0  0  0  0  0  0  0  0  0  0
   -5.6661    0.6428   -1.8562 C   0  0  0  0  0  0  0  0  0  0  0  0
   -5.9056   -0.5073   -2.1882 O   0  0  0  0  0  0  0  0  0  0  0  0
   -6.6976    1.4427   -1.0832 C   0  0  0  0  0  0  0  0  0  0  0  0
   -6.9894    2.3269   -1.6551 H   0  0  0  0  0  0  0  0  0  0  0  0
   -7.5866    0.8327   -0.8990 H   0  0  0  0  0  0  0  0  0  0  0  0
   -6.2820    1.7585   -0.1232 H   0  0  0  0  0  0  0  0  0  0  0  0
   -4.4514    1.2120   -2.1747 N   0  0  0  0  0  0  0  0  0  0  0  0
   -3.3270    0.4770   -2.7683 C   0  0  2  0  0  0  0  0  0  0  0  0
   -1.9659    0.9970   -2.2592 C   0  0  0  0  0  0  0  0  0  0  0  0
   -1.9182    2.0471   -1.6352 O   0  0  0  0  0  0  0  0  0  0  0  0
   -3.4205    0.6069   -4.2921 C   0  0  0  0  0  0  0  0  0  0  0  0
   -4.2409    2.1233   -1.7687 H   0  0  0  0  0  0  0  0  0  0  0  0
   -3.3917   -0.5812   -2.4923 H   0  0  0  0  0  0  0  0  0  0  0  0
   -3.3439    1.6569   -4.5928 H   0  0  0  0  0  0  0  0  0  0  0  0
   -2.6177    0.0442   -4.7784 H   0  0  0  0  0  0  0  0  0  0  0  0
   -4.3786    0.2124   -4.6458 H   0  0  0  0  0  0  0  0  0  0  0  0
   -0.8188    0.2694   -2.5291 N   0  0  0  0  0  0  0  0  0  0  0  0
    0.5909    0.5401   -2.1617 C   0  0  2  0  0  0  0  0  0  0  0  0
    0.9581    1.8066   -1.3490 C   0  0  0  0  0  0  0  0  0  0  0  0
    1.6735    1.6912   -0.3620 O   0  0  0  0  0  0  0  0  0  0  0  0
    1.3736    0.5929   -3.4780 C   0  0  0  0  0  0  0  0  0  0  0  0
    1.3559   -1.0480   -4.3042 S   0  0  0  0  0  0  0  0  0  0  0  0
   -0.9752   -0.5893   -3.0519 H   0  0  0  0  0  0  0  0  0  0  0  0
    0.9514   -0.3059   -1.5656 H   0  0  0  0  0  0  0  0  0  0  0  0
    0.9458    1.3524   -4.1396 H   0  0  0  0  0  0  0  0  0  0  0  0
    2.4141    0.8717   -3.2783 H   0  0  0  0  0  0  0  0  0  0  0  0
    0.6841    3.0718   -1.8354 N   0  0  0  0  0  0  0  0  0  0  0  0
    0.9884    4.3088   -1.1093 C   0  0  2  0  0  0  0  0  0  0  0  0
    0.0009    5.4343   -1.4804 C   0  0  0  0  0  0  0  0  0  0  0  0
   -0.5882    5.4154   -2.5566 O   0  0  0  0  0  0  0  0  0  0  0  0
    2.4239    4.7313   -1.4375 C   0  0  0  0  0  0  0  0  0  0  0  0
   -0.1258    3.1183   -2.4569 H   0  0  0  0  0  0  0  0  0  0  0  0
    0.8975    4.1326   -0.0323 H   0  0  0  0  0  0  0  0  0  0  0  0
    2.5323    4.9139   -2.5114 H   0  0  0  0  0  0  0  0  0  0  0  0
    2.6862    5.6468   -0.8990 H   0  0  0  0  0  0  0  0  0  0  0  0
    3.1291    3.9468   -1.1449 H   0  0  0  0  0  0  0  0  0  0  0  0
   -0.2179    6.4825   -0.6055 N   0  0  0  0  0  0  0  0  0  0  0  0
   -1.1773    7.5495   -0.8606 C   0  0  0  0  0  0  0  0  0  0  0  0
    0.2502    6.4466    0.2955 H   0  0  0  0  0  0  0  0  0  0  0  0
   -0.9228    8.0821   -1.7829 H   0  0  0  0  0  0  0  0  0  0  0  0
   -2.1881    7.1395   -0.9573 H   0  0  0  0  0  0  0  0  0  0  0  0
   -1.1724    8.2677   -0.0351 H   0  0  0  0  0  0  0  0  0  0  0  0
  1  2  2  0  0  0  0
  1  3  1  0  0  0  0
  1  7  1  0  0  0  0
  3  4  1  0  0  0  0
  3  5  1  0  0  0  0
  3  6  1  0  0  0  0
  7  8  1  0  0  0  0
  7 13  1  0  0  0  0
  8  9  1  0  0  0  0
  8 11  1  0  0  0  0
  8 14  1  0  0  0  0
  9 10  2  0  0  0  0
  9 17  1  0  0  0  0
 11 12  1  0  0  0  0
 11 15  1  0  0  0  0
 11 16  1  0  0  0  0
 12 44  1  0  0  0  0
 17 18  1  0  0  0  0
 17 19  1  0  0  0  0
 18 20  1  0  0  0  0
 18 21  1  0  0  0  0
 18 22  1  0  0  0  0
 23 24  2  0  0  0  0
 23 25  1  0  0  0  0
 23 29  1  0  0  0  0
 25 26  1  0  0  0  0
 25 27  1  0  0  0  0
 25 28  1  0  0  0  0
 29 30  1  0  0  0  0
 29 34  1  0  0  0  0
 30 31  1  0  0  0  0
 30 33  1  0  0  0  0
 30 35  1  0  0  0  0
 31 32  2  0  0  0  0
 31 39  1  0  0  0  0
 33 36  1  0  0  0  0
 33 37  1  0  0  0  0
 33 38  1  0  0  0  0
 39 40  1  0  0  0  0
 39 45  1  0  0  0  0
 40 41  1  0  0  0  0
 40 43  1  0  0  0  0
 40 46  1  0  0  0  0
 41 42  2  0  0  0  0
 41 49  1  0  0  0  0
 43 44  1  0  0  0  0
 43 47  1  0  0  0  0
 43 48  1  0  0  0  0
 49 50  1  0  0  0  0
 49 54  1  0  0  0  0
 50 51  1  0  0  0  0
 50 53  1  0  0  0  0
 50 55  1  0  0  0  0
 51 52  2  0  0  0  0
 51 59  1  0  0  0  0
 53 56  1  0  0  0  0
 53 57  1  0  0  0  0
 53 58  1  0  0  0  0
 59 60  1  0  0  0  0
 59 61  1  0  0  0  0
 60 62  1  0  0  0  0
 60 63  1  0  0  0  0
 60 64  1  0  0  0  0
M  END
$$$$

  -OEChem-05262216053D

 64 63  0     1  0  0  0  0  0999 V2000
    1.7360   -1.2526   -9.8594 C   0  0  0  0  0  0  0  0  0  0  0  0
    0.5250   -1.1270   -9.9583 O   0  0  0  0  0  0  0  0  0  0  0  0
    2.4514   -2.3808  -10.5772 C   0  0  0  0  0  0  0  0  0  0  0  0
    2.8881   -3.0666   -9.8474 H   0  0  0  0  0  0  0  0  0  0  0  0
    1.7476   -2.9340  -11.2049 H   0  0  0  0  0  0  0  0  0  0  0  0
    3.2461   -1.9781  -11.2096 H   0  0  0  0  0  0  0  0  0  0  0  0
    2.4528   -0.3647   -9.0883 N   0  0  0  0  0  0  0  0  0  0  0  0
    1.8720    0.7821   -8.3771 C   0  0  2  0  0  0  0  0  0  0  0  0
    2.9179    1.8888   -8.1190 C   0  0  0  0  0  0  0  0  0  0  0  0
    4.0944    1.7071   -8.4144 O   0  0  0  0  0  0  0  0  0  0  0  0
    1.2439    0.2939   -7.0622 C   0  0  0  0  0  0  0  0  0  0  0  0
    2.5076   -0.4370   -5.9426 S   0  0  0  0  0  0  0  0  0  0  0  0
    3.4682   -0.4554   -9.0711 H   0  0  0  0  0  0  0  0  0  0  0  0
    1.0876    1.2264   -8.9988 H   0  0  0  0  0  0  0  0  0  0  0  0
    0.7493    1.1276   -6.5565 H   0  0  0  0  0  0  0  0  0  0  0  0
    0.4797   -0.4591   -7.2809 H   0  0  0  0  0  0  0  0  0  0  0  0
    2.5387    3.1129   -7.5957 N   0  0  0  0  0  0  0  0  0  0  0  0
    3.4805    4.1970   -7.3418 C   0  0  0  0  0  0  0  0  0  0  0  0
    1.5556    3.2569   -7.3846 H   0  0  0  0  0  0  0  0  0  0  0  0
    4.2325    3.8862   -6.6090 H   0  0  0  0  0  0  0  0  0  0  0  0
    3.9894    4.4879   -8.2669 H   0  0  0  0  0  0  0  0  0  0  0  0
    2.9548    5.0719   -6.9478 H   0  0  0  0  0  0  0  0  0  0  0  0
   -5.7719    0.3721   -2.0245 C   0  0  0  0  0  0  0  0  0  0  0  0
   -5.9455   -0.7665   -2.4292 O   0  0  0  0  0  0  0  0  0  0  0  0
   -6.8576    1.0718   -1.2297 C   0  0  0  0  0  0  0  0  0  0  0  0
   -7.1958    1.9615   -1.7661 H   0  0  0  0  0  0  0  0  0  0  0  0
   -7.7094    0.4015   -1.0846 H   0  0  0  0  0  0  0  0  0  0  0  0
   -6.4717    1.3680   -0.2513 H   0  0  0  0  0  0  0  0  0  0  0  0
   -4.5826    1.0206   -2.2816 N   0  0  0  0  0  0  0  0  0  0  0  0
   -3.4048    0.3774   -2.8791 C   0  0  2  0  0  0  0  0  0  0  0  0
   -2.0903    0.8898   -2.2533 C   0  0  0  0  0  0  0  0  0  0  0  0
   -2.1177    1.8667   -1.5208 O   0  0  0  0  0  0  0  0  0  0  0  0
   -3.4268    0.6495   -4.3859 C   0  0  0  0  0  0  0  0  0  0  0  0
   -4.4277    1.9108   -1.8088 H   0  0  0  0  0  0  0  0  0  0  0  0
   -3.4445   -0.7041   -2.7077 H   0  0  0  0  0  0  0  0  0  0  0  0
   -3.3734    1.7255   -4.5806 H   0  0  0  0  0  0  0  0  0  0  0  0
   -2.5809    0.1620   -4.8798 H   0  0  0  0  0  0  0  0  0  0  0  0
   -4.3513    0.2615   -4.8257 H   0  0  0  0  0  0  0  0  0  0  0  0
   -0.9059    0.2224   -2.5167 N   0  0  0  0  0  0  0  0  0  0  0  0
    0.4916    0.5313   -2.1246 C   0  0  2  0  0  0  0  0  0  0  0  0
    0.8602    1.7780   -1.2771 C   0  0  0  0  0  0  0  0  0  0  0  0
    1.7768    1.6810   -0.4709 O   0  0  0  0  0  0  0  0  0  0  0  0
    1.2768    0.6492   -3.4361 C   0  0  0  0  0  0  0  0  0  0  0  0
    1.3204   -0.9649   -4.3119 S   0  0  0  0  0  0  0  0  0  0  0  0
   -1.0106   -0.5886   -3.1227 H   0  0  0  0  0  0  0  0  0  0  0  0
    0.8697   -0.3255   -1.5561 H   0  0  0  0  0  0  0  0  0  0  0  0
    0.8277    1.4150   -4.0763 H   0  0  0  0  0  0  0  0  0  0  0  0
    2.3077    0.9547   -3.2241 H   0  0  0  0  0  0  0  0  0  0  0  0
    0.3401    3.0322   -1.5353 N   0  0  0  0  0  0  0  0  0  0  0  0
    0.6793    4.2457   -0.7830 C   0  0  2  0  0  0  0  0  0  0  0  0
   -0.4394    5.3046   -0.8832 C   0  0  0  0  0  0  0  0  0  0  0  0
   -1.1923    5.3272   -1.8511 O   0  0  0  0  0  0  0  0  0  0  0  0
    1.9905    4.8217   -1.3303 C   0  0  0  0  0  0  0  0  0  0  0  0
   -0.5834    3.0265   -1.9786 H   0  0  0  0  0  0  0  0  0  0  0  0
    0.8059    3.9932    0.2750 H   0  0  0  0  0  0  0  0  0  0  0  0
    1.8846    5.0699   -2.3912 H   0  0  0  0  0  0  0  0  0  0  0  0
    2.2671    5.7293   -0.7857 H   0  0  0  0  0  0  0  0  0  0  0  0
    2.8026    4.0963   -1.2218 H   0  0  0  0  0  0  0  0  0  0  0  0
   -0.5815    6.2637    0.1034 N   0  0  0  0  0  0  0  0  0  0  0  0
   -1.6116    7.2952    0.0757 C   0  0  0  0  0  0  0  0  0  0  0  0
    0.0372    6.2065    0.9070 H   0  0  0  0  0  0  0  0  0  0  0  0
   -1.5003    7.9244   -0.8136 H   0  0  0  0  0  0  0  0  0  0  0  0
   -2.6083    6.8419    0.0636 H   0  0  0  0  0  0  0  0  0  0  0  0
   -1.5328    7.9325    0.9617 H   0  0  0  0  0  0  0  0  0  0  0  0
  1  2  2  0  0  0  0
  1  3  1  0  0  0  0
  1  7  1  0  0  0  0
  3  4  1  0  0  0  0
  3  5  1  0  0  0  0
  3  6  1  0  0  0  0
  7  8  1  0  0  0  0
  7 13  1  0  0  0  0
  8  9  1  0  0  0  0
  8 11  1  0  0  0  0
  8 14  1  0  0  0  0
  9 10  2  0  0  0  0
  9 17  1  0  0  0  0
 11 12  1  0  0  0  0
 11 15  1  0  0  0  0
 11 16  1  0  0  0  0
 12 44  1  0  0  0  0
 17 18  1  0  0  0  0
 17 19  1  0  0  0  0
 18 20  1  0  0  0  0
 18 21  1  0  0  0  0
 18 22  1  0  0  0  0
 23 24  2  0  0  0  0
 23 25  1  0  0  0  0
 23 29  1  0  0  0  0
 25 26  1  0  0  0  0
 25 27  1  0  0  0  0
 25 28  1  0  0  0  0
 29 30  1  0  0  0  0
 29 34  1  0  0  0  0
 30 31  1  0  0  0  0
 30 33  1  0  0  0  0
 30 35  1  0  0  0  0
 31 32  2  0  0  0  0
 31 39  1  0  0  0  0
 33 36  1  0  0  0  0
 33 37  1  0  0  0  0
 33 38  1  0  0  0  0
 39 40  1  0  0  0  0
 39 45  1  0  0  0  0
 40 41  1  0  0  0  0
 40 43  1  0  0  0  0
 40 46  1  0  0  0  0
 41 42  2  0  0  0  0
 41 49  1  0  0  0  0
 43 44  1  0  0  0  0
 43 47  1  0  0  0  0
 43 48  1  0  0  0  0
 49 50  1  0  0  0  0
 49 54  1  0  0  0  0
 50 51  1  0  0  0  0
 50 53  1  0  0  0  0
 50 55  1  0  0  0  0
 51 52  2  0  0  0  0
 51 59  1  0  0  0  0
 53 56  1  0  0  0  0
 53 57  1  0  0  0  0
 53 58  1  0  0  0  0
 59 60  1  0  0  0  0
 59 61  1  0  0  0  0
 60 62  1  0  0  0  0
 60 63  1  0  0  0  0
 60 64  1  0  0  0  0
M  END
$$$$

  -OEChem-05262216053D

 64 63  0     1  0  0  0  0  0999 V2000
    1.7705   -1.3315   -9.8496 C   0  0  0  0  0  0  0  0  0  0  0  0
    0.5638   -1.1829   -9.9679 O   0  0  0  0  0  0  0  0  0  0  0  0
    2.4701   -2.4949  -10.5258 C   0  0  0  0  0  0  0  0  0  0  0  0
    2.9673   -3.1165   -9.7768 H   0  0  0  0  0  0  0  0  0  0  0  0
    1.7445   -3.1073  -11.0679 H   0  0  0  0  0  0  0  0  0  0  0  0
    3.2144   -2.1220  -11.2333 H   0  0  0  0  0  0  0  0  0  0  0  0
    2.4982   -0.4337   -9.1001 N   0  0  0  0  0  0  0  0  0  0  0  0
    1.9350    0.7521   -8.4401 C   0  0  2  0  0  0  0  0  0  0  0  0
    3.0056    1.8368   -8.1895 C   0  0  0  0  0  0  0  0  0  0  0  0
    4.1756    1.6318   -8.4951 O   0  0  0  0  0  0  0  0  0  0  0  0
    1.2603    0.3271   -7.1260 C   0  0  0  0  0  0  0  0  0  0  0  0
    2.4805   -0.3739   -5.9409 S   0  0  0  0  0  0  0  0  0  0  0  0
    3.5122   -0.5388   -9.0791 H   0  0  0  0  0  0  0  0  0  0  0  0
    1.1811    1.1972   -9.0978 H   0  0  0  0  0  0  0  0  0  0  0  0
    0.7638    1.1871   -6.6693 H   0  0  0  0  0  0  0  0  0  0  0  0
    0.4913   -0.4229   -7.3369 H   0  0  0  0  0  0  0  0  0  0  0  0
    2.6550    3.0663   -7.6592 N   0  0  0  0  0  0  0  0  0  0  0  0
    3.6213    4.1265   -7.3990 C   0  0  0  0  0  0  0  0  0  0  0  0
    1.6798    3.2225   -7.4234 H   0  0  0  0  0  0  0  0  0  0  0  0
    4.3639    3.7954   -6.6651 H   0  0  0  0  0  0  0  0  0  0  0  0
    4.1391    4.4082   -8.3221 H   0  0  0  0  0  0  0  0  0  0  0  0
    3.1154    5.0126   -7.0033 H   0  0  0  0  0  0  0  0  0  0  0  0
   -5.8868    0.2591   -2.2146 C   0  0  0  0  0  0  0  0  0  0  0  0
   -6.0214   -0.8602   -2.6833 O   0  0  0  0  0  0  0  0  0  0  0  0
   -7.0309    0.9128   -1.4634 C   0  0  0  0  0  0  0  0  0  0  0  0
   -7.3178    1.8429   -1.9601 H   0  0  0  0  0  0  0  0  0  0  0  0
   -7.8963    0.2444   -1.4391 H   0  0  0  0  0  0  0  0  0  0  0  0
   -6.7260    1.1333   -0.4373 H   0  0  0  0  0  0  0  0  0  0  0  0
   -4.6912    0.9293   -2.3651 N   0  0  0  0  0  0  0  0  0  0  0  0
   -3.4762    0.3344   -2.9385 C   0  0  2  0  0  0  0  0  0  0  0  0
   -2.1947    0.8871   -2.2756 C   0  0  0  0  0  0  0  0  0  0  0  0
   -2.2809    1.8242   -1.4988 O   0  0  0  0  0  0  0  0  0  0  0  0
   -3.4745    0.6133   -4.4452 C   0  0  0  0  0  0  0  0  0  0  0  0
   -4.5759    1.8004   -1.8468 H   0  0  0  0  0  0  0  0  0  0  0  0
   -3.4832   -0.7487   -2.7739 H   0  0  0  0  0  0  0  0  0  0  0  0
   -3.4482    1.6910   -4.6350 H   0  0  0  0  0  0  0  0  0  0  0  0
   -2.6046    0.1528   -4.9228 H   0  0  0  0  0  0  0  0  0  0  0  0
   -4.3776    0.2003   -4.9071 H   0  0  0  0  0  0  0  0  0  0  0  0
   -0.9788    0.2789   -2.5367 N   0  0  0  0  0  0  0  0  0  0  0  0
    0.4120    0.6312   -2.1516 C   0  0  2  0  0  0  0  0  0  0  0  0
    0.7981    1.8749   -1.3006 C   0  0  0  0  0  0  0  0  0  0  0  0
    1.8701    1.8387   -0.7083 O   0  0  0  0  0  0  0  0  0  0  0  0
    1.1702    0.7588   -3.4802 C   0  0  0  0  0  0  0  0  0  0  0  0
    1.2408   -0.8652   -4.3375 S   0  0  0  0  0  0  0  0  0  0  0  0
   -1.0492   -0.5174   -3.1667 H   0  0  0  0  0  0  0  0  0  0  0  0
    0.8127   -0.2197   -1.5904 H   0  0  0  0  0  0  0  0  0  0  0  0
    0.6892    1.5054   -4.1196 H   0  0  0  0  0  0  0  0  0  0  0  0
    2.1970    1.0935   -3.2927 H   0  0  0  0  0  0  0  0  0  0  0  0
    0.1026    3.0686   -1.2852 N   0  0  0  0  0  0  0  0  0  0  0  0
    0.4807    4.2460   -0.4931 C   0  0  2  0  0  0  0  0  0  0  0  0
   -0.7394    5.1217   -0.1403 C   0  0  0  0  0  0  0  0  0  0  0  0
   -1.6630    5.2559   -0.9347 O   0  0  0  0  0  0  0  0  0  0  0  0
    1.4985    5.0674   -1.2912 C   0  0  0  0  0  0  0  0  0  0  0  0
   -0.8746    3.0154   -1.5904 H   0  0  0  0  0  0  0  0  0  0  0  0
    0.9358    3.9210    0.4483 H   0  0  0  0  0  0  0  0  0  0  0  0
    1.0604    5.3995   -2.2379 H   0  0  0  0  0  0  0  0  0  0  0  0
    1.8088    5.9488   -0.7222 H   0  0  0  0  0  0  0  0  0  0  0  0
    2.3873    4.4676   -1.5098 H   0  0  0  0  0  0  0  0  0  0  0  0
   -0.7805    5.7995    1.0645 N   0  0  0  0  0  0  0  0  0  0  0  0
   -1.9049    6.6298    1.4778 C   0  0  0  0  0  0  0  0  0  0  0  0
   -0.0185    5.6423    1.7175 H   0  0  0  0  0  0  0  0  0  0  0  0
   -2.0653    7.4426    0.7615 H   0  0  0  0  0  0  0  0  0  0  0  0
   -2.8197    6.0312    1.5430 H   0  0  0  0  0  0  0  0  0  0  0  0
   -1.7083    7.0699    2.4601 H   0  0  0  0  0  0  0  0  0  0  0  0
  1  2  2  0  0  0  0
  1  3  1  0  0  0  0
  1  7  1  0  0  0  0
  3  4  1  0  0  0  0
  3  5  1  0  0  0  0
  3  6  1  0  0  0  0
  7  8  1  0  0  0  0
  7 13  1  0  0  0  0
  8  9  1  0  0  0  0
  8 11  1  0  0  0  0
  8 14  1  0  0  0  0
  9 10  2  0  0  0  0
  9 17  1  0  0  0  0
 11 12  1  0  0  0  0
 11 15  1  0  0  0  0
 11 16  1  0  0  0  0
 12 44  1  0  0  0  0
 17 18  1  0  0  0  0
 17 19  1  0  0  0  0
 18 20  1  0  0  0  0
 18 21  1  0  0  0  0
 18 22  1  0  0  0  0
 23 24  2  0  0  0  0
 23 25  1  0  0  0  0
 23 29  1  0  0  0  0
 25 26  1  0  0  0  0
 25 27  1  0  0  0  0
 25 28  1  0  0  0  0
 29 30  1  0  0  0  0
 29 34  1  0  0  0  0
 30 31  1  0  0  0  0
 30 33  1  0  0  0  0
 30 35  1  0  0  0  0
 31 32  2  0  0  0  0
 31 39  1  0  0  0  0
 33 36  1  0  0  0  0
 33 37  1  0  0  0  0
 33 38  1  0  0  0  0
 39 40  1  0  0  0  0
 39 45  1  0  0  0  0
 40 41  1  0  0  0  0
 40 43  1  0  0  0  0
 40 46  1  0  0  0  0
 41 42  2  0  0  0  0
 41 49  1  0  0  0  0
 43 44  1  0  0  0  0
 43 47  1  0  0  0  0
 43 48  1  0  0  0  0
 49 50  1  0  0  0  0
 49 54  1  0  0  0  0
 50 51  1  0  0  0  0
 50 53  1  0  0  0  0
 50 55  1  0  0  0  0
 51 52  2  0  0  0  0
 51 59  1  0  0  0  0
 53 56  1  0  0  0  0
 53 57  1  0  0  0  0
 53 58  1  0  0  0  0
 59 60  1  0  0  0  0
 59 61  1  0  0  0  0
 60 62  1  0  0  0  0
 60 63  1  0  0  0  0
 60 64  1  0  0  0  0
M  END
$$$$

  -OEChem-05262216053D

 64 63  0     1  0  0  0  0  0999 V2000
    1.7766   -1.3403   -9.9555 C   0  0  0  0  0  0  0  0  0  0  0  0
    0.5661   -1.2202  -10.0644 O   0  0  0  0  0  0  0  0  0  0  0  0
    2.5005   -2.4775  -10.6510 C   0  0  0  0  0  0  0  0  0  0  0  0
    2.9708   -3.1279   -9.9094 H   0  0  0  0  0  0  0  0  0  0  0  0
    1.7953   -3.0685  -11.2420 H   0  0  0  0  0  0  0  0  0  0  0  0
    3.2702   -2.0791  -11.3165 H   0  0  0  0  0  0  0  0  0  0  0  0
    2.4851   -0.4364   -9.1953 N   0  0  0  0  0  0  0  0  0  0  0  0
    1.8986    0.7295   -8.5200 C   0  0  2  0  0  0  0  0  0  0  0  0
    2.9449    1.8434   -8.2901 C   0  0  0  0  0  0  0  0  0  0  0  0
    4.1175    1.6618   -8.6011 O   0  0  0  0  0  0  0  0  0  0  0  0
    1.2635    0.2749   -7.1951 C   0  0  0  0  0  0  0  0  0  0  0  0
    2.5346   -0.3597   -6.0269 S   0  0  0  0  0  0  0  0  0  0  0  0
    3.5012   -0.5188   -9.1776 H   0  0  0  0  0  0  0  0  0  0  0  0
    1.1173    1.1547   -9.1587 H   0  0  0  0  0  0  0  0  0  0  0  0
    0.7302    1.1094   -6.7319 H   0  0  0  0  0  0  0  0  0  0  0  0
    0.5315   -0.5147   -7.3943 H   0  0  0  0  0  0  0  0  0  0  0  0
    2.5719    3.0703   -7.7689 N   0  0  0  0  0  0  0  0  0  0  0  0
    3.5199    4.1475   -7.5071 C   0  0  0  0  0  0  0  0  0  0  0  0
    1.5954    3.2065   -7.5273 H   0  0  0  0  0  0  0  0  0  0  0  0
    4.2625    3.8322   -6.7665 H   0  0  0  0  0  0  0  0  0  0  0  0
    4.0400    4.4346   -8.4271 H   0  0  0  0  0  0  0  0  0  0  0  0
    2.9968    5.0265   -7.1187 H   0  0  0  0  0  0  0  0  0  0  0  0
   -5.2380    1.8324   -2.1735 C   0  0  0  0  0  0  0  0  0  0  0  0
   -5.9306    1.1152   -2.8791 O   0  0  0  0  0  0  0  0  0  0  0  0
   -5.8613    2.9759   -1.3961 C   0  0  0  0  0  0  0  0  0  0  0  0
   -6.9486    2.9635   -1.5094 H   0  0  0  0  0  0  0  0  0  0  0  0
   -5.6146    2.8814   -0.3357 H   0  0  0  0  0  0  0  0  0  0  0  0
   -5.4759    3.9292   -1.7656 H   0  0  0  0  0  0  0  0  0  0  0  0
   -3.8827    1.6083   -2.0799 N   0  0  0  0  0  0  0  0  0  0  0  0
   -3.2040    0.4143   -2.6136 C   0  0  2  0  0  0  0  0  0  0  0  0
   -1.9660    0.0654   -1.7586 C   0  0  0  0  0  0  0  0  0  0  0  0
   -1.9922    0.2768   -0.5552 O   0  0  0  0  0  0  0  0  0  0  0  0
   -2.8466    0.6827   -4.0816 C   0  0  0  0  0  0  0  0  0  0  0  0
   -3.3968    2.1626   -1.3660 H   0  0  0  0  0  0  0  0  0  0  0  0
   -3.8785   -0.4479   -2.5649 H   0  0  0  0  0  0  0  0  0  0  0  0
   -2.1580    1.5296   -4.1596 H   0  0  0  0  0  0  0  0  0  0  0  0
   -2.3818   -0.1971   -4.5367 H   0  0  0  0  0  0  0  0  0  0  0  0
   -3.7512    0.9188   -4.6516 H   0  0  0  0  0  0  0  0  0  0  0  0
   -0.7748   -0.3938   -2.2929 N   0  0  0  0  0  0  0  0  0  0  0  0
    0.5735    0.2106   -2.1022 C   0  0  2  0  0  0  0  0  0  0  0  0
    0.7910    1.4951   -1.2426 C   0  0  0  0  0  0  0  0  0  0  0  0
    1.9330    1.8718   -1.0146 O   0  0  0  0  0  0  0  0  0  0  0  0
    1.1018    0.5110   -3.5141 C   0  0  0  0  0  0  0  0  0  0  0  0
    1.3496   -1.0478   -4.4538 S   0  0  0  0  0  0  0  0  0  0  0  0
   -0.8948   -0.8011   -3.2171 H   0  0  0  0  0  0  0  0  0  0  0  0
    1.2094   -0.5509   -1.6376 H   0  0  0  0  0  0  0  0  0  0  0  0
    0.4153    1.1737   -4.0490 H   0  0  0  0  0  0  0  0  0  0  0  0
    2.0687    1.0219   -3.4456 H   0  0  0  0  0  0  0  0  0  0  0  0
   -0.2450    2.3231   -0.8613 N   0  0  0  0  0  0  0  0  0  0  0  0
   -0.1638    3.5911   -0.1341 C   0  0  2  0  0  0  0  0  0  0  0  0
   -1.5771    4.0073    0.3358 C   0  0  0  0  0  0  0  0  0  0  0  0
   -2.5776    3.5795   -0.2401 O   0  0  0  0  0  0  0  0  0  0  0  0
    0.4151    4.6845   -1.0413 C   0  0  0  0  0  0  0  0  0  0  0  0
   -1.1613    1.8716   -0.8408 H   0  0  0  0  0  0  0  0  0  0  0  0
    0.4744    3.4646    0.7465 H   0  0  0  0  0  0  0  0  0  0  0  0
   -0.1958    4.7957   -1.9426 H   0  0  0  0  0  0  0  0  0  0  0  0
    0.4374    5.6434   -0.5154 H   0  0  0  0  0  0  0  0  0  0  0  0
    1.4374    4.4381   -1.3428 H   0  0  0  0  0  0  0  0  0  0  0  0
   -1.7325    4.8813    1.3951 N   0  0  0  0  0  0  0  0  0  0  0  0
   -3.0331    5.3013    1.9023 C   0  0  0  0  0  0  0  0  0  0  0  0
   -0.8927    5.1986    1.8713 H   0  0  0  0  0  0  0  0  0  0  0  0
   -3.5975    5.8228    1.1222 H   0  0  0  0  0  0  0  0  0  0  0  0
   -3.6126    4.4348    2.2380 H   0  0  0  0  0  0  0  0  0  0  0  0
   -2.9067    5.9813    2.7502 H   0  0  0  0  0  0  0  0  0  0  0  0
  1  2  2  0  0  0  0
  1  3  1  0  0  0  0
  1  7  1  0  0  0  0
  3  4  1  0  0  0  0
  3  5  1  0  0  0  0
  3  6  1  0  0  0  0
  7  8  1  0  0  0  0
  7 13  1  0  0  0  0
  8  9  1  0  0  0  0
  8 11  1  0  0  0  0
  8 14  1  0  0  0  0
  9 10  2  0  0  0  0
  9 17  1  0  0  0  0
 11 12  1  0  0  0  0
 11 15  1  0  0  0  0
 11 16  1  0  0  0  0
 12 44  1  0  0  0  0
 17 18  1  0  0  0  0
 17 19  1  0  0  0  0
 18 20  1  0  0  0  0
 18 21  1  0  0  0  0
 18 22  1  0  0  0  0
 23 24  2  0  0  0  0
 23 25  1  0  0  0  0
 23 29  1  0  0  0  0
 25 26  1  0  0  0  0
 25 27  1  0  0  0  0
 25 28  1  0  0  0  0
 29 30  1  0  0  0  0
 29 34  1  0  0  0  0
 30 31  1  0  0  0  0
 30 33  1  0  0  0  0
 30 35  1  0  0  0  0
 31 32  2  0  0  0  0
 31 39  1  0  0  0  0
 33 36  1  0  0  0  0
 33 37  1  0  0  0  0
 33 38  1  0  0  0  0
 39 40  1  0  0  0  0
 39 45  1  0  0  0  0
 40 41  1  0  0  0  0
 40 43  1  0  0  0  0
 40 46  1  0  0  0  0
 41 42  2  0  0  0  0
 41 49  1  0  0  0  0
 43 44  1  0  0  0  0
 43 47  1  0  0  0  0
 43 48  1  0  0  0  0
 49 50  1  0  0  0  0
 49 54  1  0  0  0  0
 50 51  1  0  0  0  0
 50 53  1  0  0  0  0
 50 55  1  0  0  0  0
 51 52  2  0  0  0  0
 51 59  1  0  0  0  0
 53 56  1  0  0  0  0
 53 57  1  0  0  0  0
 53 58  1  0  0  0  0
 59 60  1  0  0  0  0
 59 61  1  0  0  0  0
 60 62  1  0  0  0  0
 60 63  1  0  0  0  0
 60 64  1  0  0  0  0
M  END
$$$$

  -OEChem-05262216053D

 64 63  0     1  0  0  0  0  0999 V2000
    1.5075   -1.1676   -9.6603 C   0  0  0  0  0  0  0  0  0  0  0  0
    0.2921   -1.2137   -9.7704 O   0  0  0  0  0  0  0  0  0  0  0  0
    2.3924   -1.8935  -10.6556 C   0  0  0  0  0  0  0  0  0  0  0  0
    3.0425   -2.5983  -10.1313 H   0  0  0  0  0  0  0  0  0  0  0  0
    1.7789   -2.4467  -11.3723 H   0  0  0  0  0  0  0  0  0  0  0  0
    3.0096   -1.1746  -11.1999 H   0  0  0  0  0  0  0  0  0  0  0  0
    2.0762   -0.4496   -8.6320 N   0  0  0  0  0  0  0  0  0  0  0  0
    1.3240    0.3202   -7.6317 C   0  0  2  0  0  0  0  0  0  0  0  0
    2.1790    1.4495   -7.0103 C   0  0  0  0  0  0  0  0  0  0  0  0
    3.3566    1.5715   -7.3356 O   0  0  0  0  0  0  0  0  0  0  0  0
    0.7985   -0.6389   -6.5549 C   0  0  0  0  0  0  0  0  0  0  0  0
    2.1671   -1.4407   -5.6182 S   0  0  0  0  0  0  0  0  0  0  0  0
    3.0921   -0.3729   -8.6048 H   0  0  0  0  0  0  0  0  0  0  0  0
    0.4700    0.8029   -8.1184 H   0  0  0  0  0  0  0  0  0  0  0  0
    0.1633   -0.0809   -5.8662 H   0  0  0  0  0  0  0  0  0  0  0  0
    0.1766   -1.4125   -7.0161 H   0  0  0  0  0  0  0  0  0  0  0  0
    1.6391    2.3628   -6.1199 N   0  0  0  0  0  0  0  0  0  0  0  0
    2.4166    3.4246   -5.4952 C   0  0  0  0  0  0  0  0  0  0  0  0
    0.6680    2.2442   -5.8238 H   0  0  0  0  0  0  0  0  0  0  0  0
    3.2426    3.0032   -4.9130 H   0  0  0  0  0  0  0  0  0  0  0  0
    2.8261    4.0980   -6.2554 H   0  0  0  0  0  0  0  0  0  0  0  0
    1.7816    4.0085   -4.8215 H   0  0  0  0  0  0  0  0  0  0  0  0
   -3.5391    0.3592   -1.9286 C   0  0  0  0  0  0  0  0  0  0  0  0
   -3.2485   -0.6246   -2.5942 O   0  0  0  0  0  0  0  0  0  0  0  0
   -3.8371    0.2278   -0.4480 C   0  0  0  0  0  0  0  0  0  0  0  0
   -3.8882   -0.8269   -0.1641 H   0  0  0  0  0  0  0  0  0  0  0  0
   -3.0509    0.7143    0.1347 H   0  0  0  0  0  0  0  0  0  0  0  0
   -4.7948    0.7015   -0.2194 H   0  0  0  0  0  0  0  0  0  0  0  0
   -3.4741    1.6043   -2.5151 N   0  0  0  0  0  0  0  0  0  0  0  0
   -3.0347    1.8287   -3.8999 C   0  0  2  0  0  0  0  0  0  0  0  0
   -1.4965    1.7443   -4.0175 C   0  0  0  0  0  0  0  0  0  0  0  0
   -0.8230    2.6582   -4.4788 O   0  0  0  0  0  0  0  0  0  0  0  0
   -3.5911    3.1888   -4.3358 C   0  0  0  0  0  0  0  0  0  0  0  0
   -3.4338    2.3962   -1.8637 H   0  0  0  0  0  0  0  0  0  0  0  0
   -3.4612    1.0620   -4.5562 H   0  0  0  0  0  0  0  0  0  0  0  0
   -3.1797    3.9915   -3.7152 H   0  0  0  0  0  0  0  0  0  0  0  0
   -3.3328    3.3892   -5.3803 H   0  0  0  0  0  0  0  0  0  0  0  0
   -4.6811    3.2004   -4.2422 H   0  0  0  0  0  0  0  0  0  0  0  0
   -0.8229    0.6258   -3.5773 N   0  0  0  0  0  0  0  0  0  0  0  0
    0.1830    0.5773   -2.4848 C   0  0  2  0  0  0  0  0  0  0  0  0
    0.5901    1.8497   -1.6855 C   0  0  0  0  0  0  0  0  0  0  0  0
    1.1942    1.6833   -0.6332 O   0  0  0  0  0  0  0  0  0  0  0  0
    1.4636    0.0585   -3.1540 C   0  0  0  0  0  0  0  0  0  0  0  0
    1.2431   -1.6642   -3.7583 S   0  0  0  0  0  0  0  0  0  0  0  0
   -1.4859   -0.1520   -3.4876 H   0  0  0  0  0  0  0  0  0  0  0  0
   -0.1566   -0.1493   -1.7389 H   0  0  0  0  0  0  0  0  0  0  0  0
    1.7405    0.7194   -3.9795 H   0  0  0  0  0  0  0  0  0  0  0  0
    2.2941    0.0633   -2.4399 H   0  0  0  0  0  0  0  0  0  0  0  0
    0.0757    3.1135   -1.9063 N   0  0  0  0  0  0  0  0  0  0  0  0
   -0.1223    4.1112   -0.8498 C   0  0  2  0  0  0  0  0  0  0  0  0
   -1.4082    3.8354   -0.0381 C   0  0  0  0  0  0  0  0  0  0  0  0
   -2.4342    3.4542   -0.5985 O   0  0  0  0  0  0  0  0  0  0  0  0
   -0.1917    5.4857   -1.5176 C   0  0  0  0  0  0  0  0  0  0  0  0
   -0.4360    3.2392   -2.7804 H   0  0  0  0  0  0  0  0  0  0  0  0
    0.7318    4.1043   -0.1642 H   0  0  0  0  0  0  0  0  0  0  0  0
   -1.0342    5.5319   -2.2156 H   0  0  0  0  0  0  0  0  0  0  0  0
   -0.3206    6.2696   -0.7648 H   0  0  0  0  0  0  0  0  0  0  0  0
    0.7311    5.6854   -2.0717 H   0  0  0  0  0  0  0  0  0  0  0  0
   -1.4214    4.0176    1.3318 N   0  0  0  0  0  0  0  0  0  0  0  0
   -2.5664    3.6916    2.1737 C   0  0  0  0  0  0  0  0  0  0  0  0
   -0.5340    4.2328    1.7788 H   0  0  0  0  0  0  0  0  0  0  0  0
   -3.4551    4.2397    1.8431 H   0  0  0  0  0  0  0  0  0  0  0  0
   -2.7776    2.6178    2.1340 H   0  0  0  0  0  0  0  0  0  0  0  0
   -2.3612    3.9653    3.2134 H   0  0  0  0  0  0  0  0  0  0  0  0
  1  2  2  0  0  0  0
  1  3  1  0  0  0  0
  1  7  1  0  0  0  0
  3  4  1  0  0  0  0
  3  5  1  0  0  0  0
  3  6  1  0  0  0  0
  7  8  1  0  0  0  0
  7 13  1  0  0  0  0
  8  9  1  0  0  0  0
  8 11  1  0  0  0  0
  8 14  1  0  0  0  0
  9 10  2  0  0  0  0
  9 17  1  0  0  0  0
 11 12  1  0  0  0  0
 11 15  1  0  0  0  0
 11 16  1  0  0  0  0
 12 44  1  0  0  0  0
 17 18  1  0  0  0  0
 17 19  1  0  0  0  0
 18 20  1  0  0  0  0
 18 21  1  0  0  0  0
 18 22  1  0  0  0  0
 23 24  2  0  0  0  0
 23 25  1  0  0  0  0
 23 29  1  0  0  0  0
 25 26  1  0  0  0  0
 25 27  1  0  0  0  0
 25 28  1  0  0  0  0
 29 30  1  0  0  0  0
 29 34  1  0  0  0  0
 30 31  1  0  0  0  0
 30 33  1  0  0  0  0
 30 35  1  0  0  0  0
 31 32  2  0  0  0  0
 31 39  1  0  0  0  0
 33 36  1  0  0  0  0
 33 37  1  0  0  0  0
 33 38  1  0  0  0  0
 39 40  1  0  0  0  0
 39 45  1  0  0  0  0
 40 41  1  0  0  0  0
 40 43  1  0  0  0  0
 40 46  1  0  0  0  0
 41 42  2  0  0  0  0
 41 49  1  0  0  0  0
 43 44  1  0  0  0  0
 43 47  1  0  0  0  0
 43 48  1  0  0  0  0
 49 50  1  0  0  0  0
 49 54  1  0  0  0  0
 50 51  1  0  0  0  0
 50 53  1  0  0  0  0
 50 55  1  0  0  0  0
 51 52  2  0  0  0  0
 51 59  1  0  0  0  0
 53 56  1  0  0  0  0
 53 57  1  0  0  0  0
 53 58  1  0  0  0  0
 59 60  1  0  0  0  0
 59 61  1  0  0  0  0
 60 62  1  0  0  0  0
 60 63  1  0  0  0  0
 60 64  1  0  0  0  0
M  END
$$$$

  -OEChem-05262216053D

 64 63  0     1  0  0  0  0  0999 V2000
    1.4175   -0.9343   -9.7306 C   0  0  0  0  0  0  0  0  0  0  0  0
    0.1989   -0.9362   -9.8130 O   0  0  0  0  0  0  0  0  0  0  0  0
    2.2565   -1.6136  -10.7956 C   0  0  0  0  0  0  0  0  0  0  0  0
    2.8440   -2.4184  -10.3471 H   0  0  0  0  0  0  0  0  0  0  0  0
    1.6117   -2.0370  -11.5705 H   0  0  0  0  0  0  0  0  0  0  0  0
    2.9334   -0.8902  -11.2563 H   0  0  0  0  0  0  0  0  0  0  0  0
    2.0318   -0.3146   -8.6651 N   0  0  0  0  0  0  0  0  0  0  0  0
    1.3265    0.4030   -7.5943 C   0  0  2  0  0  0  0  0  0  0  0  0
    2.2253    1.4670   -6.9211 C   0  0  0  0  0  0  0  0  0  0  0  0
    3.3980    1.5793   -7.2666 O   0  0  0  0  0  0  0  0  0  0  0  0
    0.8025   -0.6154   -6.5724 C   0  0  0  0  0  0  0  0  0  0  0  0
    2.1684   -1.5046   -5.7132 S   0  0  0  0  0  0  0  0  0  0  0  0
    3.0500   -0.2705   -8.6573 H   0  0  0  0  0  0  0  0  0  0  0  0
    0.4730    0.9376   -8.0241 H   0  0  0  0  0  0  0  0  0  0  0  0
    0.1914   -0.0903   -5.8384 H   0  0  0  0  0  0  0  0  0  0  0  0
    0.1562   -1.3450   -7.0704 H   0  0  0  0  0  0  0  0  0  0  0  0
    1.7309    2.3331   -5.9598 N   0  0  0  0  0  0  0  0  0  0  0  0
    2.5553    3.3174   -5.2708 C   0  0  0  0  0  0  0  0  0  0  0  0
    0.7638    2.2219   -5.6498 H   0  0  0  0  0  0  0  0  0  0  0  0
    3.3672    2.8246   -4.7259 H   0  0  0  0  0  0  0  0  0  0  0  0
    2.9870    4.0251   -5.9861 H   0  0  0  0  0  0  0  0  0  0  0  0
    1.9485    3.8785   -4.5532 H   0  0  0  0  0  0  0  0  0  0  0  0
   -3.4760    0.1518   -1.9372 C   0  0  0  0  0  0  0  0  0  0  0  0
   -3.1603   -0.7932   -2.6464 O   0  0  0  0  0  0  0  0  0  0  0  0
   -3.8235   -0.0639   -0.4777 C   0  0  0  0  0  0  0  0  0  0  0  0
   -4.7747    0.4218   -0.2460 H   0  0  0  0  0  0  0  0  0  0  0  0
   -3.9119   -1.1331   -0.2653 H   0  0  0  0  0  0  0  0  0  0  0  0
   -3.0429    0.3615    0.1583 H   0  0  0  0  0  0  0  0  0  0  0  0
   -3.3980    1.4277   -2.4520 N   0  0  0  0  0  0  0  0  0  0  0  0
   -2.9223    1.7271   -3.8110 C   0  0  2  0  0  0  0  0  0  0  0  0
   -1.3810    1.6496   -3.8913 C   0  0  0  0  0  0  0  0  0  0  0  0
   -0.6955    2.6054   -4.2320 O   0  0  0  0  0  0  0  0  0  0  0  0
   -3.4706    3.1072   -4.1906 C   0  0  0  0  0  0  0  0  0  0  0  0
   -3.3932    2.1839   -1.7586 H   0  0  0  0  0  0  0  0  0  0  0  0
   -3.3292    0.9953   -4.5178 H   0  0  0  0  0  0  0  0  0  0  0  0
   -3.0937    3.8740   -3.5058 H   0  0  0  0  0  0  0  0  0  0  0  0
   -3.1678    3.3708   -5.2090 H   0  0  0  0  0  0  0  0  0  0  0  0
   -4.5639    3.1059   -4.1457 H   0  0  0  0  0  0  0  0  0  0  0  0
   -0.7241    0.5012   -3.5070 N   0  0  0  0  0  0  0  0  0  0  0  0
    0.2960    0.3788   -2.4337 C   0  0  2  0  0  0  0  0  0  0  0  0
    0.7370    1.6128   -1.5898 C   0  0  0  0  0  0  0  0  0  0  0  0
    1.5364    1.4287   -0.6811 O   0  0  0  0  0  0  0  0  0  0  0  0
    1.5496   -0.1337   -3.1594 C   0  0  0  0  0  0  0  0  0  0  0  0
    1.2792   -1.8171   -3.8475 S   0  0  0  0  0  0  0  0  0  0  0  0
   -1.3925   -0.2763   -3.4648 H   0  0  0  0  0  0  0  0  0  0  0  0
   -0.0450   -0.3730   -1.7146 H   0  0  0  0  0  0  0  0  0  0  0  0
    1.8254    0.5642   -3.9534 H   0  0  0  0  0  0  0  0  0  0  0  0
    2.3966   -0.1882   -2.4674 H   0  0  0  0  0  0  0  0  0  0  0  0
    0.0315    2.8009   -1.5606 N   0  0  0  0  0  0  0  0  0  0  0  0
   -0.1022    3.6961   -0.4059 C   0  0  2  0  0  0  0  0  0  0  0  0
   -1.4730    3.5294    0.2873 C   0  0  0  0  0  0  0  0  0  0  0  0
   -2.4533    3.1358   -0.3430 O   0  0  0  0  0  0  0  0  0  0  0  0
    0.0688    5.1282   -0.9146 C   0  0  0  0  0  0  0  0  0  0  0  0
   -0.5868    2.9651   -2.3542 H   0  0  0  0  0  0  0  0  0  0  0  0
    0.6808    3.4939    0.3325 H   0  0  0  0  0  0  0  0  0  0  0  0
   -0.7061    5.3692   -1.6496 H   0  0  0  0  0  0  0  0  0  0  0  0
   -0.0028    5.8397   -0.0863 H   0  0  0  0  0  0  0  0  0  0  0  0
    1.0478    5.2470   -1.3896 H   0  0  0  0  0  0  0  0  0  0  0  0
   -1.6206    3.8407    1.6258 N   0  0  0  0  0  0  0  0  0  0  0  0
   -2.8768    3.6951    2.3515 C   0  0  0  0  0  0  0  0  0  0  0  0
   -0.7874    4.1175    2.1384 H   0  0  0  0  0  0  0  0  0  0  0  0
   -3.6585    4.3099    1.8930 H   0  0  0  0  0  0  0  0  0  0  0  0
   -3.2021    2.6495    2.3480 H   0  0  0  0  0  0  0  0  0  0  0  0
   -2.7529    4.0153    3.3905 H   0  0  0  0  0  0  0  0  0  0  0  0
  1  2  2  0  0  0  0
  1  3  1  0  0  0  0
  1  7  1  0  0  0  0
  3  4  1  0  0  0  0
  3  5  1  0  0  0  0
  3  6  1  0  0  0  0
  7  8  1  0  0  0  0
  7 13  1  0  0  0  0
  8  9  1  0  0  0  0
  8 11  1  0  0  0  0
  8 14  1  0  0  0  0
  9 10  2  0  0  0  0
  9 17  1  0  0  0  0
 11 12  1  0  0  0  0
 11 15  1  0  0  0  0
 11 16  1  0  0  0  0
 12 44  1  0  0  0  0
 17 18  1  0  0  0  0
 17 19  1  0  0  0  0
 18 20  1  0  0  0  0
 18 21  1  0  0  0  0
 18 22  1  0  0  0  0
 23 24  2  0  0  0  0
 23 25  1  0  0  0  0
 23 29  1  0  0  0  0
 25 26  1  0  0  0  0
 25 27  1  0  0  0  0
 25 28  1  0  0  0  0
 29 30  1  0  0  0  0
 29 34  1  0  0  0  0
 30 31  1  0  0  0  0
 30 33  1  0  0  0  0
 30 35  1  0  0  0  0
 31 32  2  0  0  0  0
 31 39  1  0  0  0  0
 33 36  1  0  0  0  0
 33 37  1  0  0  0  0
 33 38  1  0  0  0  0
 39 40  1  0  0  0  0
 39 45  1  0  0  0  0
 40 41  1  0  0  0  0
 40 43  1  0  0  0  0
 40 46  1  0  0  0  0
 41 42  2  0  0  0  0
 41 49  1  0  0  0  0
 43 44  1  0  0  0  0
 43 47  1  0  0  0  0
 43 48  1  0  0  0  0
 49 50  1  0  0  0  0
 49 54  1  0  0  0  0
 50 51  1  0  0  0  0
 50 53  1  0  0  0  0
 50 55  1  0  0  0  0
 51 52  2  0  0  0  0
 51 59  1  0  0  0  0
 53 56  1  0  0  0  0
 53 57  1  0  0  0  0
 53 58  1  0  0  0  0
 59 60  1  0  0  0  0
 59 61  1  0  0  0  0
 60 62  1  0  0  0  0
 60 63  1  0  0  0  0
 60 64  1  0  0  0  0
M  END
$$$$

  -OEChem-05262216053D

 64 63  0     1  0  0  0  0  0999 V2000
    1.3815   -0.6950   -9.8660 C   0  0  0  0  0  0  0  0  0  0  0  0
    0.1625   -0.6886   -9.9433 O   0  0  0  0  0  0  0  0  0  0  0  0
    2.2153   -1.2739  -10.9928 C   0  0  0  0  0  0  0  0  0  0  0  0
    2.8115   -2.1108  -10.6212 H   0  0  0  0  0  0  0  0  0  0  0  0
    1.5665   -1.6331  -11.7963 H   0  0  0  0  0  0  0  0  0  0  0  0
    2.8834   -0.5081  -11.3941 H   0  0  0  0  0  0  0  0  0  0  0  0
    2.0010   -0.1732   -8.7522 N   0  0  0  0  0  0  0  0  0  0  0  0
    1.3016    0.4596   -7.6253 C   0  0  2  0  0  0  0  0  0  0  0  0
    2.1988    1.4816   -6.8884 C   0  0  0  0  0  0  0  0  0  0  0  0
    3.3673    1.6258   -7.2366 O   0  0  0  0  0  0  0  0  0  0  0  0
    0.8009   -0.6368   -6.6744 C   0  0  0  0  0  0  0  0  0  0  0  0
    2.1888   -1.5710   -5.9030 S   0  0  0  0  0  0  0  0  0  0  0  0
    3.0190   -0.1230   -8.7490 H   0  0  0  0  0  0  0  0  0  0  0  0
    0.4386    1.0161   -8.0058 H   0  0  0  0  0  0  0  0  0  0  0  0
    0.1943   -0.1747   -5.8952 H   0  0  0  0  0  0  0  0  0  0  0  0
    0.1562   -1.3356   -7.2168 H   0  0  0  0  0  0  0  0  0  0  0  0
    1.7081    2.2745   -5.8641 N   0  0  0  0  0  0  0  0  0  0  0  0
    2.5414    3.1930   -5.0994 C   0  0  0  0  0  0  0  0  0  0  0  0
    0.7502    2.1250   -5.5424 H   0  0  0  0  0  0  0  0  0  0  0  0
    3.3588    2.6526   -4.6106 H   0  0  0  0  0  0  0  0  0  0  0  0
    2.9662    3.9616   -5.7534 H   0  0  0  0  0  0  0  0  0  0  0  0
    1.9439    3.6872   -4.3267 H   0  0  0  0  0  0  0  0  0  0  0  0
   -3.2902   -0.0188   -1.6296 C   0  0  0  0  0  0  0  0  0  0  0  0
   -2.9935   -0.9719   -2.3358 O   0  0  0  0  0  0  0  0  0  0  0  0
   -3.5742   -0.2097   -0.1525 C   0  0  0  0  0  0  0  0  0  0  0  0
   -3.6199   -1.2749    0.0896 H   0  0  0  0  0  0  0  0  0  0  0  0
   -2.7832    0.2553    0.4411 H   0  0  0  0  0  0  0  0  0  0  0  0
   -4.5304    0.2516    0.1061 H   0  0  0  0  0  0  0  0  0  0  0  0
   -3.2532    1.2479   -2.1717 N   0  0  0  0  0  0  0  0  0  0  0  0
   -2.8778    1.5315   -3.5656 C   0  0  2  0  0  0  0  0  0  0  0  0
   -1.3464    1.4517   -3.7585 C   0  0  0  0  0  0  0  0  0  0  0  0
   -0.6743    2.4357   -4.0348 O   0  0  0  0  0  0  0  0  0  0  0  0
   -3.4528    2.9086   -3.9170 C   0  0  0  0  0  0  0  0  0  0  0  0
   -3.3145    2.0267   -1.5066 H   0  0  0  0  0  0  0  0  0  0  0  0
   -3.3357    0.7940   -4.2340 H   0  0  0  0  0  0  0  0  0  0  0  0
   -3.0392    3.6794   -3.2580 H   0  0  0  0  0  0  0  0  0  0  0  0
   -3.2105    3.1701   -4.9520 H   0  0  0  0  0  0  0  0  0  0  0  0
   -4.5419    2.9053   -3.8080 H   0  0  0  0  0  0  0  0  0  0  0  0
   -0.6673    0.2791   -3.5052 N   0  0  0  0  0  0  0  0  0  0  0  0
    0.3846    0.0941   -2.4713 C   0  0  2  0  0  0  0  0  0  0  0  0
    0.7902    1.2915   -1.5585 C   0  0  0  0  0  0  0  0  0  0  0  0
    1.8254    1.2503   -0.9059 O   0  0  0  0  0  0  0  0  0  0  0  0
    1.6245   -0.3634   -3.2571 C   0  0  0  0  0  0  0  0  0  0  0  0
    1.3428   -2.0017   -4.0417 S   0  0  0  0  0  0  0  0  0  0  0  0
   -1.3313   -0.5018   -3.4825 H   0  0  0  0  0  0  0  0  0  0  0  0
    0.0705   -0.7057   -1.7934 H   0  0  0  0  0  0  0  0  0  0  0  0
    1.8785    0.3854   -4.0101 H   0  0  0  0  0  0  0  0  0  0  0  0
    2.4892   -0.4600   -2.5928 H   0  0  0  0  0  0  0  0  0  0  0  0
   -0.1197    2.2771   -1.2261 N   0  0  0  0  0  0  0  0  0  0  0  0
   -0.0431    3.2004   -0.0917 C   0  0  2  0  0  0  0  0  0  0  0  0
   -1.4385    3.4113    0.5372 C   0  0  0  0  0  0  0  0  0  0  0  0
   -2.4551    3.0651   -0.0644 O   0  0  0  0  0  0  0  0  0  0  0  0
    0.5400    4.5224   -0.5958 C   0  0  0  0  0  0  0  0  0  0  0  0
   -0.9509    2.3369   -1.8085 H   0  0  0  0  0  0  0  0  0  0  0  0
    0.6117    2.7900    0.6843 H   0  0  0  0  0  0  0  0  0  0  0  0
   -0.0967    4.9500   -1.3772 H   0  0  0  0  0  0  0  0  0  0  0  0
    0.6224    5.2439    0.2224 H   0  0  0  0  0  0  0  0  0  0  0  0
    1.5388    4.3582   -1.0132 H   0  0  0  0  0  0  0  0  0  0  0  0
   -1.5590    3.9539    1.8022 N   0  0  0  0  0  0  0  0  0  0  0  0
   -2.8358    4.1317    2.4830 C   0  0  0  0  0  0  0  0  0  0  0  0
   -0.7033    4.2082    2.2887 H   0  0  0  0  0  0  0  0  0  0  0  0
   -3.4907    4.7920    1.9050 H   0  0  0  0  0  0  0  0  0  0  0  0
   -3.3367    3.1672    2.6176 H   0  0  0  0  0  0  0  0  0  0  0  0
   -2.6786    4.5790    3.4692 H   0  0  0  0  0  0  0  0  0  0  0  0
  1  2  2  0  0  0  0
  1  3  1  0  0  0  0
  1  7  1  0  0  0  0
  3  4  1  0  0  0  0
  3  5  1  0  0  0  0
  3  6  1  0  0  0  0
  7  8  1  0  0  0  0
  7 13  1  0  0  0  0
  8  9  1  0  0  0  0
  8 11  1  0  0  0  0
  8 14  1  0  0  0  0
  9 10  2  0  0  0  0
  9 17  1  0  0  0  0
 11 12  1  0  0  0  0
 11 15  1  0  0  0  0
 11 16  1  0  0  0  0
 12 44  1  0  0  0  0
 17 18  1  0  0  0  0
 17 19  1  0  0  0  0
 18 20  1  0  0  0  0
 18 21  1  0  0  0  0
 18 22  1  0  0  0  0
 23 24  2  0  0  0  0
 23 25  1  0  0  0  0
 23 29  1  0  0  0  0
 25 26  1  0  0  0  0
 25 27  1  0  0  0  0
 25 28  1  0  0  0  0
 29 30  1  0  0  0  0
 29 34  1  0  0  0  0
 30 31  1  0  0  0  0
 30 33  1  0  0  0  0
 30 35  1  0  0  0  0
 31 32  2  0  0  0  0
 31 39  1  0  0  0  0
 33 36  1  0  0  0  0
 33 37  1  0  0  0  0
 33 38  1  0  0  0  0
 39 40  1  0  0  0  0
 39 45  1  0  0  0  0
 40 41  1  0  0  0  0
 40 43  1  0  0  0  0
 40 46  1  0  0  0  0
 41 42  2  0  0  0  0
 41 49  1  0  0  0  0
 43 44  1  0  0  0  0
 43 47  1  0  0  0  0
 43 48  1  0  0  0  0
 49 50  1  0  0  0  0
 49 54  1  0  0  0  0
 50 51  1  0  0  0  0
 50 53  1  0  0  0  0
 50 55  1  0  0  0  0
 51 52  2  0  0  0  0
 51 59  1  0  0  0  0
 53 56  1  0  0  0  0
 53 57  1  0  0  0  0
 53 58  1  0  0  0  0
 59 60  1  0  0  0  0
 59 61  1  0  0  0  0
 60 62  1  0  0  0  0
 60 63  1  0  0  0  0
 60 64  1  0  0  0  0
M  END
$$$$

  -OEChem-05262216053D

 64 63  0     1  0  0  0  0  0999 V2000
    1.9027   -1.2594  -10.0661 C   0  0  0  0  0  0  0  0  0  0  0  0
    0.7210   -1.0210  -10.2620 O   0  0  0  0  0  0  0  0  0  0  0  0
    2.5704   -2.4389  -10.7467 C   0  0  0  0  0  0  0  0  0  0  0  0
    2.9809   -3.1181   -9.9954 H   0  0  0  0  0  0  0  0  0  0  0  0
    1.8434   -2.9843  -11.3549 H   0  0  0  0  0  0  0  0  0  0  0  0
    3.3795   -2.0890  -11.3924 H   0  0  0  0  0  0  0  0  0  0  0  0
    2.6308   -0.4514   -9.2217 N   0  0  0  0  0  0  0  0  0  0  0  0
    2.0985    0.7282   -8.5253 C   0  0  2  0  0  0  0  0  0  0  0  0
    3.2205    1.7103   -8.1231 C   0  0  0  0  0  0  0  0  0  0  0  0
    4.3918    1.4431   -8.3706 O   0  0  0  0  0  0  0  0  0  0  0  0
    1.2910    0.2752   -7.2980 C   0  0  0  0  0  0  0  0  0  0  0  0
    2.3388   -0.6581   -6.1092 S   0  0  0  0  0  0  0  0  0  0  0  0
    3.6309   -0.6295   -9.1329 H   0  0  0  0  0  0  0  0  0  0  0  0
    1.4321    1.2710   -9.2036 H   0  0  0  0  0  0  0  0  0  0  0  0
    0.8572    1.1439   -6.7954 H   0  0  0  0  0  0  0  0  0  0  0  0
    0.4632   -0.3635   -7.6221 H   0  0  0  0  0  0  0  0  0  0  0  0
    2.9183    2.9244   -7.5315 N   0  0  0  0  0  0  0  0  0  0  0  0
    3.9332    3.8921   -7.1319 C   0  0  0  0  0  0  0  0  0  0  0  0
    1.9435    3.1254   -7.3307 H   0  0  0  0  0  0  0  0  0  0  0  0
    4.5995    3.4598   -6.3780 H   0  0  0  0  0  0  0  0  0  0  0  0
    4.5312    4.1990   -7.9965 H   0  0  0  0  0  0  0  0  0  0  0  0
    3.4608    4.7823   -6.7057 H   0  0  0  0  0  0  0  0  0  0  0  0
   -5.4356    0.5886   -1.4380 C   0  0  0  0  0  0  0  0  0  0  0  0
   -5.4391   -0.6188   -1.6181 O   0  0  0  0  0  0  0  0  0  0  0  0
   -6.2793    1.1934   -0.3317 C   0  0  0  0  0  0  0  0  0  0  0  0
   -6.9867    1.9127   -0.7512 H   0  0  0  0  0  0  0  0  0  0  0  0
   -6.8395    0.4103    0.1871 H   0  0  0  0  0  0  0  0  0  0  0  0
   -5.6364    1.7025    0.3910 H   0  0  0  0  0  0  0  0  0  0  0  0
   -4.6477    1.4074   -2.2213 N   0  0  0  0  0  0  0  0  0  0  0  0
   -3.5801    0.9065   -3.1005 C   0  0  2  0  0  0  0  0  0  0  0  0
   -2.1841    1.2652   -2.5503 C   0  0  0  0  0  0  0  0  0  0  0  0
   -2.0484    2.2981   -1.9120 O   0  0  0  0  0  0  0  0  0  0  0  0
   -3.7825    1.5196   -4.4876 C   0  0  0  0  0  0  0  0  0  0  0  0
   -4.5432    2.3638   -1.8871 H   0  0  0  0  0  0  0  0  0  0  0  0
   -3.6332   -0.1835   -3.1932 H   0  0  0  0  0  0  0  0  0  0  0  0
   -3.7232    2.6119   -4.4380 H   0  0  0  0  0  0  0  0  0  0  0  0
   -3.0154    1.1604   -5.1808 H   0  0  0  0  0  0  0  0  0  0  0  0
   -4.7641    1.2405   -4.8833 H   0  0  0  0  0  0  0  0  0  0  0  0
   -1.1023    0.4530   -2.8478 N   0  0  0  0  0  0  0  0  0  0  0  0
    0.2933    0.4665   -2.3394 C   0  0  2  0  0  0  0  0  0  0  0  0
    0.7637    1.5161   -1.2854 C   0  0  0  0  0  0  0  0  0  0  0  0
    1.9000    1.9755   -1.3276 O   0  0  0  0  0  0  0  0  0  0  0  0
    1.1681    0.5235   -3.6050 C   0  0  0  0  0  0  0  0  0  0  0  0
    0.9567   -1.0149   -4.5900 S   0  0  0  0  0  0  0  0  0  0  0  0
   -1.3341   -0.3489   -3.4304 H   0  0  0  0  0  0  0  0  0  0  0  0
    0.4686   -0.4944   -1.8461 H   0  0  0  0  0  0  0  0  0  0  0  0
    0.9112    1.4039   -4.2017 H   0  0  0  0  0  0  0  0  0  0  0  0
    2.2268    0.6013   -3.3364 H   0  0  0  0  0  0  0  0  0  0  0  0
    0.0007    1.8150   -0.1732 N   0  0  0  0  0  0  0  0  0  0  0  0
    0.3922    2.7333    0.9027 C   0  0  2  0  0  0  0  0  0  0  0  0
   -0.4044    2.4689    2.1980 C   0  0  0  0  0  0  0  0  0  0  0  0
   -1.5119    1.9433    2.1567 O   0  0  0  0  0  0  0  0  0  0  0  0
    0.1606    4.1732    0.4316 C   0  0  0  0  0  0  0  0  0  0  0  0
   -0.9983    1.6192   -0.2617 H   0  0  0  0  0  0  0  0  0  0  0  0
    1.4537    2.5927    1.1309 H   0  0  0  0  0  0  0  0  0  0  0  0
   -0.8955    4.3283    0.1869 H   0  0  0  0  0  0  0  0  0  0  0  0
    0.4463    4.8832    1.2135 H   0  0  0  0  0  0  0  0  0  0  0  0
    0.7580    4.3854   -0.4605 H   0  0  0  0  0  0  0  0  0  0  0  0
    0.1211    2.8356    3.4240 N   0  0  0  0  0  0  0  0  0  0  0  0
   -0.5592    2.5942    4.6905 C   0  0  0  0  0  0  0  0  0  0  0  0
    1.0496    3.2473    3.4346 H   0  0  0  0  0  0  0  0  0  0  0  0
   -1.5212    3.1171    4.7133 H   0  0  0  0  0  0  0  0  0  0  0  0
   -0.7358    1.5227    4.8330 H   0  0  0  0  0  0  0  0  0  0  0  0
    0.0508    2.9568    5.5235 H   0  0  0  0  0  0  0  0  0  0  0  0
  1  2  2  0  0  0  0
  1  3  1  0  0  0  0
  1  7  1  0  0  0  0
  3  4  1  0  0  0  0
  3  5  1  0  0  0  0
  3  6  1  0  0  0  0
  7  8  1  0  0  0  0
  7 13  1  0  0  0  0
  8  9  1  0  0  0  0
  8 11  1  0  0  0  0
  8 14  1  0  0  0  0
  9 10  2  0  0  0  0
  9 17  1  0  0  0  0
 11 12  1  0  0  0  0
 11 15  1  0  0  0  0
 11 16  1  0  0  0  0
 12 44  1  0  0  0  0
 17 18  1  0  0  0  0
 17 19  1  0  0  0  0
 18 20  1  0  0  0  0
 18 21  1  0  0  0  0
 18 22  1  0  0  0  0
 23 24  2  0  0  0  0
 23 25  1  0  0  0  0
 23 29  1  0  0  0  0
 25 26  1  0  0  0  0
 25 27  1  0  0  0  0
 25 28  1  0  0  0  0
 29 30  1  0  0  0  0
 29 34  1  0  0  0  0
 30 31  1  0  0  0  0
 30 33  1  0  0  0  0
 30 35  1  0  0  0  0
 31 32  2  0  0  0  0
 31 39  1  0  0  0  0
 33 36  1  0  0  0  0
 33 37  1  0  0  0  0
 33 38  1  0  0  0  0
 39 40  1  0  0  0  0
 39 45  1  0  0  0  0
 40 41  1  0  0  0  0
 40 43  1  0  0  0  0
 40 46  1  0  0  0  0
 41 42  2  0  0  0  0
 41 49  1  0  0  0  0
 43 44  1  0  0  0  0
 43 47  1  0  0  0  0
 43 48  1  0  0  0  0
 49 50  1  0  0  0  0
 49 54  1  0  0  0  0
 50 51  1  0  0  0  0
 50 53  1  0  0  0  0
 50 55  1  0  0  0  0
 51 52  2  0  0  0  0
 51 59  1  0  0  0  0
 53 56  1  0  0  0  0
 53 57  1  0  0  0  0
 53 58  1  0  0  0  0
 59 60  1  0  0  0  0
 59 61  1  0  0  0  0
 60 62  1  0  0  0  0
 60 63  1  0  0  0  0
 60 64  1  0  0  0  0
M  END
$$$$

  -OEChem-05262216053D

 64 63  0     1  0  0  0  0  0999 V2000
    1.8715   -1.2491  -10.0845 C   0  0  0  0  0  0  0  0  0  0  0  0
    0.6879   -1.0082  -10.2659 O   0  0  0  0  0  0  0  0  0  0  0  0
    2.5290   -2.4295  -10.7735 C   0  0  0  0  0  0  0  0  0  0  0  0
    2.9727   -3.0956  -10.0293 H   0  0  0  0  0  0  0  0  0  0  0  0
    1.7880   -2.9895  -11.3503 H   0  0  0  0  0  0  0  0  0  0  0  0
    3.3117   -2.0783  -11.4502 H   0  0  0  0  0  0  0  0  0  0  0  0
    2.6114   -0.4424   -9.2491 N   0  0  0  0  0  0  0  0  0  0  0  0
    2.0878    0.7311   -8.5354 C   0  0  2  0  0  0  0  0  0  0  0  0
    3.2172    1.6996   -8.1192 C   0  0  0  0  0  0  0  0  0  0  0  0
    4.3861    1.4290   -8.3747 O   0  0  0  0  0  0  0  0  0  0  0  0
    1.2807    0.2665   -7.3120 C   0  0  0  0  0  0  0  0  0  0  0  0
    2.3305   -0.6854   -6.1397 S   0  0  0  0  0  0  0  0  0  0  0  0
    3.6110   -0.6261   -9.1672 H   0  0  0  0  0  0  0  0  0  0  0  0
    1.4237    1.2865   -9.2056 H   0  0  0  0  0  0  0  0  0  0  0  0
    0.8532    1.1309   -6.7967 H   0  0  0  0  0  0  0  0  0  0  0  0
    0.4483   -0.3639   -7.6409 H   0  0  0  0  0  0  0  0  0  0  0  0
    2.9254    2.9000   -7.4951 N   0  0  0  0  0  0  0  0  0  0  0  0
    3.9498    3.8390   -7.0542 C   0  0  0  0  0  0  0  0  0  0  0  0
    1.9538    3.0983   -7.2775 H   0  0  0  0  0  0  0  0  0  0  0  0
    4.6039    3.3710   -6.3108 H   0  0  0  0  0  0  0  0  0  0  0  0
    4.5589    4.1687   -7.9026 H   0  0  0  0  0  0  0  0  0  0  0  0
    3.4860    4.7199   -6.6002 H   0  0  0  0  0  0  0  0  0  0  0  0
   -5.5511    0.6885   -1.5155 C   0  0  0  0  0  0  0  0  0  0  0  0
   -5.7126   -0.4701   -1.8637 O   0  0  0  0  0  0  0  0  0  0  0  0
   -6.4131    1.2756   -0.4145 C   0  0  0  0  0  0  0  0  0  0  0  0
   -7.0542    2.0609   -0.8216 H   0  0  0  0  0  0  0  0  0  0  0  0
   -7.0427    0.4971    0.0249 H   0  0  0  0  0  0  0  0  0  0  0  0
   -5.7812    1.6997    0.3697 H   0  0  0  0  0  0  0  0  0  0  0  0
   -4.5747    1.4632   -2.1068 N   0  0  0  0  0  0  0  0  0  0  0  0
   -3.5147    0.9246   -2.9716 C   0  0  2  0  0  0  0  0  0  0  0  0
   -2.1130    1.2182   -2.3975 C   0  0  0  0  0  0  0  0  0  0  0  0
   -1.9650    2.1801   -1.6581 O   0  0  0  0  0  0  0  0  0  0  0  0
   -3.6692    1.5554   -4.3571 C   0  0  0  0  0  0  0  0  0  0  0  0
   -4.3723    2.3504   -1.6489 H   0  0  0  0  0  0  0  0  0  0  0  0
   -3.6102   -0.1622   -3.0679 H   0  0  0  0  0  0  0  0  0  0  0  0
   -3.5588    2.6432   -4.2985 H   0  0  0  0  0  0  0  0  0  0  0  0
   -2.9116    1.1644   -5.0431 H   0  0  0  0  0  0  0  0  0  0  0  0
   -4.6578    1.3269   -4.7676 H   0  0  0  0  0  0  0  0  0  0  0  0
   -1.0465    0.4120   -2.7605 N   0  0  0  0  0  0  0  0  0  0  0  0
    0.3735    0.4532   -2.3344 C   0  0  2  0  0  0  0  0  0  0  0  0
    0.8479    1.5339   -1.3188 C   0  0  0  0  0  0  0  0  0  0  0  0
    1.8125    2.2526   -1.5602 O   0  0  0  0  0  0  0  0  0  0  0  0
    1.1916    0.5172   -3.6349 C   0  0  0  0  0  0  0  0  0  0  0  0
    0.9662   -1.0301   -4.6019 S   0  0  0  0  0  0  0  0  0  0  0  0
   -1.2852   -0.3421   -3.4009 H   0  0  0  0  0  0  0  0  0  0  0  0
    0.5972   -0.4975   -1.8402 H   0  0  0  0  0  0  0  0  0  0  0  0
    0.8951    1.3894   -4.2255 H   0  0  0  0  0  0  0  0  0  0  0  0
    2.2578    0.6178   -3.4045 H   0  0  0  0  0  0  0  0  0  0  0  0
    0.2915    1.5959   -0.0552 N   0  0  0  0  0  0  0  0  0  0  0  0
    0.6838    2.5407    0.9968 C   0  0  2  0  0  0  0  0  0  0  0  0
    0.2800    2.0371    2.3979 C   0  0  0  0  0  0  0  0  0  0  0  0
   -0.5924    1.1852    2.5294 O   0  0  0  0  0  0  0  0  0  0  0  0
    0.0214    3.8938    0.7142 C   0  0  0  0  0  0  0  0  0  0  0  0
   -0.5933    1.1068    0.0759 H   0  0  0  0  0  0  0  0  0  0  0  0
    1.7721    2.6612    0.9903 H   0  0  0  0  0  0  0  0  0  0  0  0
   -1.0689    3.7924    0.7125 H   0  0  0  0  0  0  0  0  0  0  0  0
    0.3033    4.6262    1.4764 H   0  0  0  0  0  0  0  0  0  0  0  0
    0.3346    4.2756   -0.2625 H   0  0  0  0  0  0  0  0  0  0  0  0
    0.9008    2.5466    3.5238 N   0  0  0  0  0  0  0  0  0  0  0  0
    0.5814    2.1162    4.8792 C   0  0  0  0  0  0  0  0  0  0  0  0
    1.6317    3.2382    3.3856 H   0  0  0  0  0  0  0  0  0  0  0  0
   -0.4736    2.3063    5.1027 H   0  0  0  0  0  0  0  0  0  0  0  0
    0.7798    1.0458    4.9977 H   0  0  0  0  0  0  0  0  0  0  0  0
    1.1921    2.6636    5.6034 H   0  0  0  0  0  0  0  0  0  0  0  0
  1  2  2  0  0  0  0
  1  3  1  0  0  0  0
  1  7  1  0  0  0  0
  3  4  1  0  0  0  0
  3  5  1  0  0  0  0
  3  6  1  0  0  0  0
  7  8  1  0  0  0  0
  7 13  1  0  0  0  0
  8  9  1  0  0  0  0
  8 11  1  0  0  0  0
  8 14  1  0  0  0  0
  9 10  2  0  0  0  0
  9 17  1  0  0  0  0
 11 12  1  0  0  0  0
 11 15  1  0  0  0  0
 11 16  1  0  0  0  0
 12 44  1  0  0  0  0
 17 18  1  0  0  0  0
 17 19  1  0  0  0  0
 18 20  1  0  0  0  0
 18 21  1  0  0  0  0
 18 22  1  0  0  0  0
 23 24  2  0  0  0  0
 23 25  1  0  0  0  0
 23 29  1  0  0  0  0
 25 26  1  0  0  0  0
 25 27  1  0  0  0  0
 25 28  1  0  0  0  0
 29 30  1  0  0  0  0
 29 34  1  0  0  0  0
 30 31  1  0  0  0  0
 30 33  1  0  0  0  0
 30 35  1  0  0  0  0
 31 32  2  0  0  0  0
 31 39  1  0  0  0  0
 33 36  1  0  0  0  0
 33 37  1  0  0  0  0
 33 38  1  0  0  0  0
 39 40  1  0  0  0  0
 39 45  1  0  0  0  0
 40 41  1  0  0  0  0
 40 43  1  0  0  0  0
 40 46  1  0  0  0  0
 41 42  2  0  0  0  0
 41 49  1  0  0  0  0
 43 44  1  0  0  0  0
 43 47  1  0  0  0  0
 43 48  1  0  0  0  0
 49 50  1  0  0  0  0
 49 54  1  0  0  0  0
 50 51  1  0  0  0  0
 50 53  1  0  0  0  0
 50 55  1  0  0  0  0
 51 52  2  0  0  0  0
 51 59  1  0  0  0  0
 53 56  1  0  0  0  0
 53 57  1  0  0  0  0
 53 58  1  0  0  0  0
 59 60  1  0  0  0  0
 59 61  1  0  0  0  0
 60 62  1  0  0  0  0
 60 63  1  0  0  0  0
 60 64  1  0  0  0  0
M  END
$$$$

  -OEChem-05262216053D

 64 63  0     1  0  0  0  0  0999 V2000
    1.8591   -1.2488  -10.0908 C   0  0  0  0  0  0  0  0  0  0  0  0
    0.6754   -1.0051  -10.2680 O   0  0  0  0  0  0  0  0  0  0  0  0
    2.5111   -2.4290  -10.7858 C   0  0  0  0  0  0  0  0  0  0  0  0
    2.9705   -3.0895  -10.0464 H   0  0  0  0  0  0  0  0  0  0  0  0
    1.7624   -2.9956  -11.3462 H   0  0  0  0  0  0  0  0  0  0  0  0
    3.2802   -2.0778  -11.4779 H   0  0  0  0  0  0  0  0  0  0  0  0
    2.6015   -0.4496   -9.2497 N   0  0  0  0  0  0  0  0  0  0  0  0
    2.0785    0.7167   -8.5243 C   0  0  2  0  0  0  0  0  0  0  0  0
    3.2054    1.6869   -8.1051 C   0  0  0  0  0  0  0  0  0  0  0  0
    4.3733    1.4311   -8.3792 O   0  0  0  0  0  0  0  0  0  0  0  0
    1.2770    0.2377   -7.3023 C   0  0  0  0  0  0  0  0  0  0  0  0
    2.3335   -0.7203   -6.1411 S   0  0  0  0  0  0  0  0  0  0  0  0
    3.6005   -0.6361   -9.1683 H   0  0  0  0  0  0  0  0  0  0  0  0
    1.4102    1.2763   -9.1872 H   0  0  0  0  0  0  0  0  0  0  0  0
    0.8474    1.0963   -6.7791 H   0  0  0  0  0  0  0  0  0  0  0  0
    0.4456   -0.3933   -7.6337 H   0  0  0  0  0  0  0  0  0  0  0  0
    2.9097    2.8741   -7.4579 N   0  0  0  0  0  0  0  0  0  0  0  0
    3.9280    3.8184   -7.0139 C   0  0  0  0  0  0  0  0  0  0  0  0
    1.9391    3.0556   -7.2213 H   0  0  0  0  0  0  0  0  0  0  0  0
    4.5900    3.3499   -6.2780 H   0  0  0  0  0  0  0  0  0  0  0  0
    4.5295    4.1619   -7.8621 H   0  0  0  0  0  0  0  0  0  0  0  0
    3.4573    4.6908   -6.5504 H   0  0  0  0  0  0  0  0  0  0  0  0
   -5.5862    0.7625   -1.5475 C   0  0  0  0  0  0  0  0  0  0  0  0
   -5.8178   -0.3502   -1.9923 O   0  0  0  0  0  0  0  0  0  0  0  0
   -6.4649    1.3396   -0.4537 C   0  0  0  0  0  0  0  0  0  0  0  0
   -7.0219    2.1977   -0.8366 H   0  0  0  0  0  0  0  0  0  0  0  0
   -7.1751    0.5852   -0.1037 H   0  0  0  0  0  0  0  0  0  0  0  0
   -5.8499    1.6606    0.3903 H   0  0  0  0  0  0  0  0  0  0  0  0
   -4.5173    1.4928   -2.0239 N   0  0  0  0  0  0  0  0  0  0  0  0
   -3.4662    0.9434   -2.8926 C   0  0  2  0  0  0  0  0  0  0  0  0
   -2.0603    1.1794   -2.3017 C   0  0  0  0  0  0  0  0  0  0  0  0
   -1.8993    2.0866   -1.4974 O   0  0  0  0  0  0  0  0  0  0  0  0
   -3.5925    1.6115   -4.2639 C   0  0  0  0  0  0  0  0  0  0  0  0
   -4.2717    2.3292   -1.4961 H   0  0  0  0  0  0  0  0  0  0  0  0
   -3.5933   -0.1376   -3.0118 H   0  0  0  0  0  0  0  0  0  0  0  0
   -3.4510    2.6939   -4.1777 H   0  0  0  0  0  0  0  0  0  0  0  0
   -2.8434    1.2158   -4.9566 H   0  0  0  0  0  0  0  0  0  0  0  0
   -4.5851    1.4218   -4.6845 H   0  0  0  0  0  0  0  0  0  0  0  0
   -1.0113    0.3629   -2.6951 N   0  0  0  0  0  0  0  0  0  0  0  0
    0.4214    0.4289   -2.3235 C   0  0  2  0  0  0  0  0  0  0  0  0
    0.8909    1.5496   -1.3555 C   0  0  0  0  0  0  0  0  0  0  0  0
    1.6270    2.4557   -1.7352 O   0  0  0  0  0  0  0  0  0  0  0  0
    1.2035    0.4915   -3.6435 C   0  0  0  0  0  0  0  0  0  0  0  0
    0.9802   -1.0654   -4.5938 S   0  0  0  0  0  0  0  0  0  0  0  0
   -1.2579   -0.3570   -3.3708 H   0  0  0  0  0  0  0  0  0  0  0  0
    0.6811   -0.5073   -1.8201 H   0  0  0  0  0  0  0  0  0  0  0  0
    0.8757    1.3517   -4.2350 H   0  0  0  0  0  0  0  0  0  0  0  0
    2.2717    0.6185   -3.4367 H   0  0  0  0  0  0  0  0  0  0  0  0
    0.6029    1.4507   -0.0073 N   0  0  0  0  0  0  0  0  0  0  0  0
    1.0187    2.4122    1.0199 C   0  0  2  0  0  0  0  0  0  0  0  0
    1.0325    1.7713    2.4234 C   0  0  0  0  0  0  0  0  0  0  0  0
    0.4657    0.7023    2.6250 O   0  0  0  0  0  0  0  0  0  0  0  0
    0.0571    3.6050    0.9875 C   0  0  0  0  0  0  0  0  0  0  0  0
   -0.0536    0.7259    0.2792 H   0  0  0  0  0  0  0  0  0  0  0  0
    2.0346    2.7596    0.8054 H   0  0  0  0  0  0  0  0  0  0  0  0
   -0.9662    3.2758    1.1965 H   0  0  0  0  0  0  0  0  0  0  0  0
    0.3440    4.3522    1.7332 H   0  0  0  0  0  0  0  0  0  0  0  0
    0.0723    4.0795    0.0011 H   0  0  0  0  0  0  0  0  0  0  0  0
    1.6947    2.3897    3.4683 N   0  0  0  0  0  0  0  0  0  0  0  0
    1.7731    1.8242    4.8099 C   0  0  0  0  0  0  0  0  0  0  0  0
    2.1729    3.2644    3.2724 H   0  0  0  0  0  0  0  0  0  0  0  0
    0.7692    1.6704    5.2203 H   0  0  0  0  0  0  0  0  0  0  0  0
    2.2963    0.8620    4.7894 H   0  0  0  0  0  0  0  0  0  0  0  0
    2.3182    2.5011    5.4753 H   0  0  0  0  0  0  0  0  0  0  0  0
  1  2  2  0  0  0  0
  1  3  1  0  0  0  0
  1  7  1  0  0  0  0
  3  4  1  0  0  0  0
  3  5  1  0  0  0  0
  3  6  1  0  0  0  0
  7  8  1  0  0  0  0
  7 13  1  0  0  0  0
  8  9  1  0  0  0  0
  8 11  1  0  0  0  0
  8 14  1  0  0  0  0
  9 10  2  0  0  0  0
  9 17  1  0  0  0  0
 11 12  1  0  0  0  0
 11 15  1  0  0  0  0
 11 16  1  0  0  0  0
 12 44  1  0  0  0  0
 17 18  1  0  0  0  0
 17 19  1  0  0  0  0
 18 20  1  0  0  0  0
 18 21  1  0  0  0  0
 18 22  1  0  0  0  0
 23 24  2  0  0  0  0
 23 25  1  0  0  0  0
 23 29  1  0  0  0  0
 25 26  1  0  0  0  0
 25 27  1  0  0  0  0
 25 28  1  0  0  0  0
 29 30  1  0  0  0  0
 29 34  1  0  0  0  0
 30 31  1  0  0  0  0
 30 33  1  0  0  0  0
 30 35  1  0  0  0  0
 31 32  2  0  0  0  0
 31 39  1  0  0  0  0
 33 36  1  0  0  0  0
 33 37  1  0  0  0  0
 33 38  1  0  0  0  0
 39 40  1  0  0  0  0
 39 45  1  0  0  0  0
 40 41  1  0  0  0  0
 40 43  1  0  0  0  0
 40 46  1  0  0  0  0
 41 42  2  0  0  0  0
 41 49  1  0  0  0  0
 43 44  1  0  0  0  0
 43 47  1  0  0  0  0
 43 48  1  0  0  0  0
 49 50  1  0  0  0  0
 49 54  1  0  0  0  0
 50 51  1  0  0  0  0
 50 53  1  0  0  0  0
 50 55  1  0  0  0  0
 51 52  2  0  0  0  0
 51 59  1  0  0  0  0
 53 56  1  0  0  0  0
 53 57  1  0  0  0  0
 53 58  1  0  0  0  0
 59 60  1  0  0  0  0
 59 61  1  0  0  0  0
 60 62  1  0  0  0  0
 60 63  1  0  0  0  0
 60 64  1  0  0  0  0
M  END
$$$$

  -OEChem-05262216053D

 64 63  0     1  0  0  0  0  0999 V2000
    1.6680   -1.0720  -10.1997 C   0  0  0  0  0  0  0  0  0  0  0  0
    0.4801   -0.8032  -10.2919 O   0  0  0  0  0  0  0  0  0  0  0  0
    2.2765   -2.1582  -11.0666 C   0  0  0  0  0  0  0  0  0  0  0  0
    2.7392   -2.9223  -10.4368 H   0  0  0  0  0  0  0  0  0  0  0  0
    1.5029   -2.6288  -11.6801 H   0  0  0  0  0  0  0  0  0  0  0  0
    3.0353   -1.7285  -11.7250 H   0  0  0  0  0  0  0  0  0  0  0  0
    2.4559   -0.3809   -9.3059 N   0  0  0  0  0  0  0  0  0  0  0  0
    1.9861    0.7275   -8.4632 C   0  0  2  0  0  0  0  0  0  0  0  0
    3.1501    1.6396   -8.0149 C   0  0  0  0  0  0  0  0  0  0  0  0
    4.2938    1.4093   -8.3944 O   0  0  0  0  0  0  0  0  0  0  0  0
    1.2257    0.1606   -7.2531 C   0  0  0  0  0  0  0  0  0  0  0  0
    2.3403   -0.8048   -6.1539 S   0  0  0  0  0  0  0  0  0  0  0  0
    3.4589   -0.5633   -9.3133 H   0  0  0  0  0  0  0  0  0  0  0  0
    1.3024    1.3515   -9.0482 H   0  0  0  0  0  0  0  0  0  0  0  0
    0.7763    0.9792   -6.6848 H   0  0  0  0  0  0  0  0  0  0  0  0
    0.4114   -0.4849   -7.5978 H   0  0  0  0  0  0  0  0  0  0  0  0
    2.9190    2.7394   -7.2071 N   0  0  0  0  0  0  0  0  0  0  0  0
    3.9861    3.5920   -6.6972 C   0  0  0  0  0  0  0  0  0  0  0  0
    1.9713    2.8945   -6.8773 H   0  0  0  0  0  0  0  0  0  0  0  0
    4.6745    3.0124   -6.0726 H   0  0  0  0  0  0  0  0  0  0  0  0
    4.5498    4.0368   -7.5239 H   0  0  0  0  0  0  0  0  0  0  0  0
    3.5671    4.4018   -6.0920 H   0  0  0  0  0  0  0  0  0  0  0  0
   -5.6685    0.8593   -1.7578 C   0  0  0  0  0  0  0  0  0  0  0  0
   -6.0187   -0.0883   -2.4430 O   0  0  0  0  0  0  0  0  0  0  0  0
   -6.6255    1.4588   -0.7445 C   0  0  0  0  0  0  0  0  0  0  0  0
   -6.7434    2.5287   -0.9301 H   0  0  0  0  0  0  0  0  0  0  0  0
   -7.6051    0.9781   -0.8210 H   0  0  0  0  0  0  0  0  0  0  0  0
   -6.2384    1.3120    0.2666 H   0  0  0  0  0  0  0  0  0  0  0  0
   -4.3960    1.3727   -1.8964 N   0  0  0  0  0  0  0  0  0  0  0  0
   -3.3461    0.7609   -2.7222 C   0  0  2  0  0  0  0  0  0  0  0  0
   -1.9398    0.9824   -2.1252 C   0  0  0  0  0  0  0  0  0  0  0  0
   -1.7898    1.8154   -1.2411 O   0  0  0  0  0  0  0  0  0  0  0  0
   -3.4301    1.3556   -4.1310 C   0  0  0  0  0  0  0  0  0  0  0  0
   -4.0968    2.0784   -1.2237 H   0  0  0  0  0  0  0  0  0  0  0  0
   -3.5077   -0.3211   -2.7790 H   0  0  0  0  0  0  0  0  0  0  0  0
   -3.2667    2.4377   -4.1005 H   0  0  0  0  0  0  0  0  0  0  0  0
   -2.6760    0.9068   -4.7845 H   0  0  0  0  0  0  0  0  0  0  0  0
   -4.4174    1.1645   -4.5636 H   0  0  0  0  0  0  0  0  0  0  0  0
   -0.8880    0.1876   -2.5550 N   0  0  0  0  0  0  0  0  0  0  0  0
    0.5573    0.3292   -2.2688 C   0  0  2  0  0  0  0  0  0  0  0  0
    1.0087    1.5128   -1.3730 C   0  0  0  0  0  0  0  0  0  0  0  0
    1.4604    2.5412   -1.8689 O   0  0  0  0  0  0  0  0  0  0  0  0
    1.2633    0.4040   -3.6300 C   0  0  0  0  0  0  0  0  0  0  0  0
    1.0680   -1.1777   -4.5451 S   0  0  0  0  0  0  0  0  0  0  0  0
   -1.1282   -0.4842   -3.2805 H   0  0  0  0  0  0  0  0  0  0  0  0
    0.8947   -0.5774   -1.7571 H   0  0  0  0  0  0  0  0  0  0  0  0
    0.8612    1.2361   -4.2163 H   0  0  0  0  0  0  0  0  0  0  0  0
    2.3326    0.5894   -3.4796 H   0  0  0  0  0  0  0  0  0  0  0  0
    1.0811    1.3464   -0.0028 N   0  0  0  0  0  0  0  0  0  0  0  0
    1.4828    2.3877    0.9500 C   0  0  2  0  0  0  0  0  0  0  0  0
    1.8274    1.7898    2.3307 C   0  0  0  0  0  0  0  0  0  0  0  0
    1.4817    0.6482    2.6163 O   0  0  0  0  0  0  0  0  0  0  0  0
    0.3386    3.4001    1.0869 C   0  0  0  0  0  0  0  0  0  0  0  0
    0.6664    0.5031    0.3911 H   0  0  0  0  0  0  0  0  0  0  0  0
    2.3765    2.8967    0.5749 H   0  0  0  0  0  0  0  0  0  0  0  0
   -0.5694    2.9028    1.4426 H   0  0  0  0  0  0  0  0  0  0  0  0
    0.6047    4.1905    1.7944 H   0  0  0  0  0  0  0  0  0  0  0  0
    0.1200    3.8655    0.1206 H   0  0  0  0  0  0  0  0  0  0  0  0
    2.5321    2.5339    3.2595 N   0  0  0  0  0  0  0  0  0  0  0  0
    2.8824    2.0364    4.5847 C   0  0  0  0  0  0  0  0  0  0  0  0
    2.8068    3.4762    2.9977 H   0  0  0  0  0  0  0  0  0  0  0  0
    1.9784    1.7985    5.1552 H   0  0  0  0  0  0  0  0  0  0  0  0
    3.4965    1.1330    4.5058 H   0  0  0  0  0  0  0  0  0  0  0  0
    3.4502    2.7923    5.1359 H   0  0  0  0  0  0  0  0  0  0  0  0
  1  2  2  0  0  0  0
  1  3  1  0  0  0  0
  1  7  1  0  0  0  0
  3  4  1  0  0  0  0
  3  5  1  0  0  0  0
  3  6  1  0  0  0  0
  7  8  1  0  0  0  0
  7 13  1  0  0  0  0
  8  9  1  0  0  0  0
  8 11  1  0  0  0  0
  8 14  1  0  0  0  0
  9 10  2  0  0  0  0
  9 17  1  0  0  0  0
 11 12  1  0  0  0  0
 11 15  1  0  0  0  0
 11 16  1  0  0  0  0
 12 44  1  0  0  0  0
 17 18  1  0  0  0  0
 17 19  1  0  0  0  0
 18 20  1  0  0  0  0
 18 21  1  0  0  0  0
 18 22  1  0  0  0  0
 23 24  2  0  0  0  0
 23 25  1  0  0  0  0
 23 29  1  0  0  0  0
 25 26  1  0  0  0  0
 25 27  1  0  0  0  0
 25 28  1  0  0  0  0
 29 30  1  0  0  0  0
 29 34  1  0  0  0  0
 30 31  1  0  0  0  0
 30 33  1  0  0  0  0
 30 35  1  0  0  0  0
 31 32  2  0  0  0  0
 31 39  1  0  0  0  0
 33 36  1  0  0  0  0
 33 37  1  0  0  0  0
 33 38  1  0  0  0  0
 39 40  1  0  0  0  0
 39 45  1  0  0  0  0
 40 41  1  0  0  0  0
 40 43  1  0  0  0  0
 40 46  1  0  0  0  0
 41 42  2  0  0  0  0
 41 49  1  0  0  0  0
 43 44  1  0  0  0  0
 43 47  1  0  0  0  0
 43 48  1  0  0  0  0
 49 50  1  0  0  0  0
 49 54  1  0  0  0  0
 50 51  1  0  0  0  0
 50 53  1  0  0  0  0
 50 55  1  0  0  0  0
 51 52  2  0  0  0  0
 51 59  1  0  0  0  0
 53 56  1  0  0  0  0
 53 57  1  0  0  0  0
 53 58  1  0  0  0  0
 59 60  1  0  0  0  0
 59 61  1  0  0  0  0
 60 62  1  0  0  0  0
 60 63  1  0  0  0  0
 60 64  1  0  0  0  0
M  END
$$$$

  -OEChem-05262216053D

 64 63  0     1  0  0  0  0  0999 V2000
    1.7280   -1.1737  -10.1439 C   0  0  0  0  0  0  0  0  0  0  0  0
    0.5351   -0.9406  -10.2641 O   0  0  0  0  0  0  0  0  0  0  0  0
    2.3789   -2.2741  -10.9603 C   0  0  0  0  0  0  0  0  0  0  0  0
    2.8207   -3.0196  -10.2944 H   0  0  0  0  0  0  0  0  0  0  0  0
    1.6346   -2.7645  -11.5940 H   0  0  0  0  0  0  0  0  0  0  0  0
    3.1617   -1.8541  -11.5964 H   0  0  0  0  0  0  0  0  0  0  0  0
    2.4833   -0.4321   -9.2624 N   0  0  0  0  0  0  0  0  0  0  0  0
    1.9729    0.6902   -8.4620 C   0  0  2  0  0  0  0  0  0  0  0  0
    3.1059    1.6504   -8.0331 C   0  0  0  0  0  0  0  0  0  0  0  0
    4.2627    1.4307   -8.3776 O   0  0  0  0  0  0  0  0  0  0  0  0
    1.2180    0.1426   -7.2405 C   0  0  0  0  0  0  0  0  0  0  0  0
    2.3435   -0.7827   -6.1186 S   0  0  0  0  0  0  0  0  0  0  0  0
    3.4902   -0.5920   -9.2448 H   0  0  0  0  0  0  0  0  0  0  0  0
    1.2767    1.2744   -9.0731 H   0  0  0  0  0  0  0  0  0  0  0  0
    0.7556    0.9679   -6.6927 H   0  0  0  0  0  0  0  0  0  0  0  0
    0.4138   -0.5219   -7.5721 H   0  0  0  0  0  0  0  0  0  0  0  0
    2.8314    2.7828   -7.2858 N   0  0  0  0  0  0  0  0  0  0  0  0
    3.8638    3.6972   -6.8115 C   0  0  0  0  0  0  0  0  0  0  0  0
    1.8737    2.9291   -6.9817 H   0  0  0  0  0  0  0  0  0  0  0  0
    4.5498    3.1810   -6.1316 H   0  0  0  0  0  0  0  0  0  0  0  0
    4.4378    4.0999   -7.6529 H   0  0  0  0  0  0  0  0  0  0  0  0
    3.4086    4.5345   -6.2735 H   0  0  0  0  0  0  0  0  0  0  0  0
   -5.6921    0.9034   -1.8096 C   0  0  0  0  0  0  0  0  0  0  0  0
   -6.0498    0.0093   -2.5597 O   0  0  0  0  0  0  0  0  0  0  0  0
   -6.6580    1.4750   -0.7890 C   0  0  0  0  0  0  0  0  0  0  0  0
   -6.7624    2.5526   -0.9365 H   0  0  0  0  0  0  0  0  0  0  0  0
   -7.6409    1.0077   -0.8963 H   0  0  0  0  0  0  0  0  0  0  0  0
   -6.2869    1.2860    0.2209 H   0  0  0  0  0  0  0  0  0  0  0  0
   -4.4039    1.3896   -1.8829 N   0  0  0  0  0  0  0  0  0  0  0  0
   -3.3452    0.8109   -2.7206 C   0  0  2  0  0  0  0  0  0  0  0  0
   -1.9515    0.9690   -2.0754 C   0  0  0  0  0  0  0  0  0  0  0  0
   -1.8124    1.7312   -1.1274 O   0  0  0  0  0  0  0  0  0  0  0  0
   -3.3820    1.4979   -4.0893 C   0  0  0  0  0  0  0  0  0  0  0  0
   -4.1084    2.0471   -1.1619 H   0  0  0  0  0  0  0  0  0  0  0  0
   -3.5249   -0.2619   -2.8500 H   0  0  0  0  0  0  0  0  0  0  0  0
   -3.1954    2.5714   -3.9828 H   0  0  0  0  0  0  0  0  0  0  0  0
   -2.6221    1.0759   -4.7539 H   0  0  0  0  0  0  0  0  0  0  0  0
   -4.3626    1.3598   -4.5562 H   0  0  0  0  0  0  0  0  0  0  0  0
   -0.9044    0.1738   -2.5149 N   0  0  0  0  0  0  0  0  0  0  0  0
    0.5409    0.3365   -2.2437 C   0  0  2  0  0  0  0  0  0  0  0  0
    0.9869    1.5346   -1.3656 C   0  0  0  0  0  0  0  0  0  0  0  0
    1.2044    2.6310   -1.8741 O   0  0  0  0  0  0  0  0  0  0  0  0
    1.2388    0.4201   -3.6076 C   0  0  0  0  0  0  0  0  0  0  0  0
    1.0619   -1.1650   -4.5197 S   0  0  0  0  0  0  0  0  0  0  0  0
   -1.1388   -0.4558   -3.2786 H   0  0  0  0  0  0  0  0  0  0  0  0
    0.8932   -0.5637   -1.7314 H   0  0  0  0  0  0  0  0  0  0  0  0
    0.8217    1.2447   -4.1944 H   0  0  0  0  0  0  0  0  0  0  0  0
    2.3054    0.6233   -3.4617 H   0  0  0  0  0  0  0  0  0  0  0  0
    1.3746    1.3227   -0.0557 N   0  0  0  0  0  0  0  0  0  0  0  0
    1.8543    2.3646    0.8601 C   0  0  2  0  0  0  0  0  0  0  0  0
    2.5783    1.7539    2.0786 C   0  0  0  0  0  0  0  0  0  0  0  0
    2.4631    0.5590    2.3309 O   0  0  0  0  0  0  0  0  0  0  0  0
    0.6564    3.2030    1.3239 C   0  0  0  0  0  0  0  0  0  0  0  0
    1.2104    0.4007    0.3465 H   0  0  0  0  0  0  0  0  0  0  0  0
    2.5684    3.0081    0.3360 H   0  0  0  0  0  0  0  0  0  0  0  0
   -0.0696    2.5728    1.8476 H   0  0  0  0  0  0  0  0  0  0  0  0
    0.9809    3.9987    2.0009 H   0  0  0  0  0  0  0  0  0  0  0  0
    0.1561    3.6654    0.4669 H   0  0  0  0  0  0  0  0  0  0  0  0
    3.3691    2.5434    2.8935 N   0  0  0  0  0  0  0  0  0  0  0  0
    4.0737    2.0314    4.0630 C   0  0  0  0  0  0  0  0  0  0  0  0
    3.4459    3.5300    2.6642 H   0  0  0  0  0  0  0  0  0  0  0  0
    3.3606    1.6771    4.8147 H   0  0  0  0  0  0  0  0  0  0  0  0
    4.7314    1.2017    3.7827 H   0  0  0  0  0  0  0  0  0  0  0  0
    4.6866    2.8193    4.5113 H   0  0  0  0  0  0  0  0  0  0  0  0
  1  2  2  0  0  0  0
  1  3  1  0  0  0  0
  1  7  1  0  0  0  0
  3  4  1  0  0  0  0
  3  5  1  0  0  0  0
  3  6  1  0  0  0  0
  7  8  1  0  0  0  0
  7 13  1  0  0  0  0
  8  9  1  0  0  0  0
  8 11  1  0  0  0  0
  8 14  1  0  0  0  0
  9 10  2  0  0  0  0
  9 17  1  0  0  0  0
 11 12  1  0  0  0  0
 11 15  1  0  0  0  0
 11 16  1  0  0  0  0
 12 44  1  0  0  0  0
 17 18  1  0  0  0  0
 17 19  1  0  0  0  0
 18 20  1  0  0  0  0
 18 21  1  0  0  0  0
 18 22  1  0  0  0  0
 23 24  2  0  0  0  0
 23 25  1  0  0  0  0
 23 29  1  0  0  0  0
 25 26  1  0  0  0  0
 25 27  1  0  0  0  0
 25 28  1  0  0  0  0
 29 30  1  0  0  0  0
 29 34  1  0  0  0  0
 30 31  1  0  0  0  0
 30 33  1  0  0  0  0
 30 35  1  0  0  0  0
 31 32  2  0  0  0  0
 31 39  1  0  0  0  0
 33 36  1  0  0  0  0
 33 37  1  0  0  0  0
 33 38  1  0  0  0  0
 39 40  1  0  0  0  0
 39 45  1  0  0  0  0
 40 41  1  0  0  0  0
 40 43  1  0  0  0  0
 40 46  1  0  0  0  0
 41 42  2  0  0  0  0
 41 49  1  0  0  0  0
 43 44  1  0  0  0  0
 43 47  1  0  0  0  0
 43 48  1  0  0  0  0
 49 50  1  0  0  0  0
 49 54  1  0  0  0  0
 50 51  1  0  0  0  0
 50 53  1  0  0  0  0
 50 55  1  0  0  0  0
 51 52  2  0  0  0  0
 51 59  1  0  0  0  0
 53 56  1  0  0  0  0
 53 57  1  0  0  0  0
 53 58  1  0  0  0  0
 59 60  1  0  0  0  0
 59 61  1  0  0  0  0
 60 62  1  0  0  0  0
 60 63  1  0  0  0  0
 60 64  1  0  0  0  0
M  END
$$$$

  -OEChem-05262216053D

 64 63  0     1  0  0  0  0  0999 V2000
    1.7772   -1.2628  -10.0619 C   0  0  0  0  0  0  0  0  0  0  0  0
    0.5815   -1.0566  -10.1999 O   0  0  0  0  0  0  0  0  0  0  0  0
    2.4513   -2.3920  -10.8177 C   0  0  0  0  0  0  0  0  0  0  0  0
    2.9134   -3.0884  -10.1138 H   0  0  0  0  0  0  0  0  0  0  0  0
    1.7156   -2.9347  -11.4176 H   0  0  0  0  0  0  0  0  0  0  0  0
    3.2207   -1.9906  -11.4816 H   0  0  0  0  0  0  0  0  0  0  0  0
    2.5135   -0.4632   -9.2160 N   0  0  0  0  0  0  0  0  0  0  0  0
    1.9737    0.6748   -8.4587 C   0  0  2  0  0  0  0  0  0  0  0  0
    3.0831    1.6699   -8.0511 C   0  0  0  0  0  0  0  0  0  0  0  0
    4.2534    1.4434   -8.3416 O   0  0  0  0  0  0  0  0  0  0  0  0
    1.2221    0.1541   -7.2229 C   0  0  0  0  0  0  0  0  0  0  0  0
    2.3521   -0.7377   -6.0781 S   0  0  0  0  0  0  0  0  0  0  0  0
    3.5209   -0.6135   -9.1698 H   0  0  0  0  0  0  0  0  0  0  0  0
    1.2704    1.2234   -9.0941 H   0  0  0  0  0  0  0  0  0  0  0  0
    0.7559    0.9901   -6.6946 H   0  0  0  0  0  0  0  0  0  0  0  0
    0.4216   -0.5229   -7.5379 H   0  0  0  0  0  0  0  0  0  0  0  0
    2.7712    2.8376   -7.3767 N   0  0  0  0  0  0  0  0  0  0  0  0
    3.7783    3.7811   -6.9066 C   0  0  0  0  0  0  0  0  0  0  0  0
    1.7995    2.9958   -7.1272 H   0  0  0  0  0  0  0  0  0  0  0  0
    4.4451    3.3000   -6.1831 H   0  0  0  0  0  0  0  0  0  0  0  0
    4.3770    4.1546   -7.7442 H   0  0  0  0  0  0  0  0  0  0  0  0
    3.2975    4.6343   -6.4187 H   0  0  0  0  0  0  0  0  0  0  0  0
   -5.7069    0.8837   -1.8507 C   0  0  0  0  0  0  0  0  0  0  0  0
   -6.0421    0.0256   -2.6519 O   0  0  0  0  0  0  0  0  0  0  0  0
   -6.6874    1.3705   -0.8007 C   0  0  0  0  0  0  0  0  0  0  0  0
   -6.8734    2.4391   -0.9311 H   0  0  0  0  0  0  0  0  0  0  0  0
   -7.6352    0.8331   -0.8930 H   0  0  0  0  0  0  0  0  0  0  0  0
   -6.2807    1.1978    0.1987 H   0  0  0  0  0  0  0  0  0  0  0  0
   -4.4296    1.4010   -1.8891 N   0  0  0  0  0  0  0  0  0  0  0  0
   -3.3511    0.8712   -2.7337 C   0  0  2  0  0  0  0  0  0  0  0  0
   -1.9762    0.9825   -2.0424 C   0  0  0  0  0  0  0  0  0  0  0  0
   -1.8624    1.6748   -1.0382 O   0  0  0  0  0  0  0  0  0  0  0  0
   -3.3487    1.6415   -4.0571 C   0  0  0  0  0  0  0  0  0  0  0  0
   -4.1487    2.0127   -1.1226 H   0  0  0  0  0  0  0  0  0  0  0  0
   -3.5284   -0.1912   -2.9341 H   0  0  0  0  0  0  0  0  0  0  0  0
   -3.1673    2.7063   -3.8780 H   0  0  0  0  0  0  0  0  0  0  0  0
   -2.5691    1.2611   -4.7237 H   0  0  0  0  0  0  0  0  0  0  0  0
   -4.3147    1.5317   -4.5601 H   0  0  0  0  0  0  0  0  0  0  0  0
   -0.9267    0.1923   -2.4843 N   0  0  0  0  0  0  0  0  0  0  0  0
    0.5157    0.3785   -2.2174 C   0  0  2  0  0  0  0  0  0  0  0  0
    0.9483    1.5884   -1.3515 C   0  0  0  0  0  0  0  0  0  0  0  0
    0.9519    2.7183   -1.8320 O   0  0  0  0  0  0  0  0  0  0  0  0
    1.2158    0.4710   -3.5785 C   0  0  0  0  0  0  0  0  0  0  0  0
    1.0646   -1.1202   -4.4847 S   0  0  0  0  0  0  0  0  0  0  0  0
   -1.1486   -0.4025   -3.2791 H   0  0  0  0  0  0  0  0  0  0  0  0
    0.8780   -0.5155   -1.7011 H   0  0  0  0  0  0  0  0  0  0  0  0
    0.7868    1.2869   -4.1687 H   0  0  0  0  0  0  0  0  0  0  0  0
    2.2787    0.6914   -3.4307 H   0  0  0  0  0  0  0  0  0  0  0  0
    1.6279    1.3757   -0.1673 N   0  0  0  0  0  0  0  0  0  0  0  0
    2.2031    2.4261    0.6807 C   0  0  2  0  0  0  0  0  0  0  0  0
    3.2491    1.8431    1.6553 C   0  0  0  0  0  0  0  0  0  0  0  0
    3.3343    0.6296    1.8143 O   0  0  0  0  0  0  0  0  0  0  0  0
    1.0678    3.1030    1.4590 C   0  0  0  0  0  0  0  0  0  0  0  0
    1.6919    0.4207    0.1829 H   0  0  0  0  0  0  0  0  0  0  0  0
    2.7080    3.1686    0.0538 H   0  0  0  0  0  0  0  0  0  0  0  0
    0.5443    2.3719    2.0840 H   0  0  0  0  0  0  0  0  0  0  0  0
    1.4604    3.8958    2.1028 H   0  0  0  0  0  0  0  0  0  0  0  0
    0.3437    3.5487    0.7691 H   0  0  0  0  0  0  0  0  0  0  0  0
    4.1012    2.6767    2.3563 N   0  0  0  0  0  0  0  0  0  0  0  0
    5.0941    2.1888    3.3063 C   0  0  0  0  0  0  0  0  0  0  0  0
    4.0048    3.6778    2.2136 H   0  0  0  0  0  0  0  0  0  0  0  0
    4.6056    1.6660    4.1353 H   0  0  0  0  0  0  0  0  0  0  0  0
    5.7889    1.4988    2.8160 H   0  0  0  0  0  0  0  0  0  0  0  0
    5.6702    3.0244    3.7150 H   0  0  0  0  0  0  0  0  0  0  0  0
  1  2  2  0  0  0  0
  1  3  1  0  0  0  0
  1  7  1  0  0  0  0
  3  4  1  0  0  0  0
  3  5  1  0  0  0  0
  3  6  1  0  0  0  0
  7  8  1  0  0  0  0
  7 13  1  0  0  0  0
  8  9  1  0  0  0  0
  8 11  1  0  0  0  0
  8 14  1  0  0  0  0
  9 10  2  0  0  0  0
  9 17  1  0  0  0  0
 11 12  1  0  0  0  0
 11 15  1  0  0  0  0
 11 16  1  0  0  0  0
 12 44  1  0  0  0  0
 17 18  1  0  0  0  0
 17 19  1  0  0  0  0
 18 20  1  0  0  0  0
 18 21  1  0  0  0  0
 18 22  1  0  0  0  0
 23 24  2  0  0  0  0
 23 25  1  0  0  0  0
 23 29  1  0  0  0  0
 25 26  1  0  0  0  0
 25 27  1  0  0  0  0
 25 28  1  0  0  0  0
 29 30  1  0  0  0  0
 29 34  1  0  0  0  0
 30 31  1  0  0  0  0
 30 33  1  0  0  0  0
 30 35  1  0  0  0  0
 31 32  2  0  0  0  0
 31 39  1  0  0  0  0
 33 36  1  0  0  0  0
 33 37  1  0  0  0  0
 33 38  1  0  0  0  0
 39 40  1  0  0  0  0
 39 45  1  0  0  0  0
 40 41  1  0  0  0  0
 40 43  1  0  0  0  0
 40 46  1  0  0  0  0
 41 42  2  0  0  0  0
 41 49  1  0  0  0  0
 43 44  1  0  0  0  0
 43 47  1  0  0  0  0
 43 48  1  0  0  0  0
 49 50  1  0  0  0  0
 49 54  1  0  0  0  0
 50 51  1  0  0  0  0
 50 53  1  0  0  0  0
 50 55  1  0  0  0  0
 51 52  2  0  0  0  0
 51 59  1  0  0  0  0
 53 56  1  0  0  0  0
 53 57  1  0  0  0  0
 53 58  1  0  0  0  0
 59 60  1  0  0  0  0
 59 61  1  0  0  0  0
 60 62  1  0  0  0  0
 60 63  1  0  0  0  0
 60 64  1  0  0  0  0
M  END
$$$$

  -OEChem-05262216053D

 64 63  0     1  0  0  0  0  0999 V2000
    1.7905   -1.2846   -9.9948 C   0  0  0  0  0  0  0  0  0  0  0  0
    0.5955   -1.0833  -10.1468 O   0  0  0  0  0  0  0  0  0  0  0  0
    2.4759   -2.4211  -10.7289 C   0  0  0  0  0  0  0  0  0  0  0  0
    2.9450   -3.0987  -10.0114 H   0  0  0  0  0  0  0  0  0  0  0  0
    1.7466   -2.9840  -11.3181 H   0  0  0  0  0  0  0  0  0  0  0  0
    3.2420   -2.0237  -11.3992 H   0  0  0  0  0  0  0  0  0  0  0  0
    2.5174   -0.4737   -9.1514 N   0  0  0  0  0  0  0  0  0  0  0  0
    1.9674    0.6719   -8.4134 C   0  0  2  0  0  0  0  0  0  0  0  0
    3.0640    1.6888   -8.0267 C   0  0  0  0  0  0  0  0  0  0  0  0
    4.2387    1.4656   -8.3007 O   0  0  0  0  0  0  0  0  0  0  0  0
    1.2243    0.1640   -7.1672 C   0  0  0  0  0  0  0  0  0  0  0  0
    2.3675   -0.6968   -6.0118 S   0  0  0  0  0  0  0  0  0  0  0  0
    3.5252   -0.6190   -9.0983 H   0  0  0  0  0  0  0  0  0  0  0  0
    1.2567    1.2003   -9.0574 H   0  0  0  0  0  0  0  0  0  0  0  0
    0.7500    1.0030   -6.6510 H   0  0  0  0  0  0  0  0  0  0  0  0
    0.4307   -0.5269   -7.4692 H   0  0  0  0  0  0  0  0  0  0  0  0
    2.7344    2.8763   -7.3966 N   0  0  0  0  0  0  0  0  0  0  0  0
    3.7260    3.8577   -6.9729 C   0  0  0  0  0  0  0  0  0  0  0  0
    1.7572    3.0408   -7.1748 H   0  0  0  0  0  0  0  0  0  0  0  0
    4.4115    3.4182   -6.2405 H   0  0  0  0  0  0  0  0  0  0  0  0
    4.3068    4.2119   -7.8313 H   0  0  0  0  0  0  0  0  0  0  0  0
    3.2329    4.7188   -6.5112 H   0  0  0  0  0  0  0  0  0  0  0  0
   -5.7288    0.8508   -1.9247 C   0  0  0  0  0  0  0  0  0  0  0  0
   -6.0348    0.0222   -2.7675 O   0  0  0  0  0  0  0  0  0  0  0  0
   -6.7501    1.3058   -0.8995 C   0  0  0  0  0  0  0  0  0  0  0  0
   -6.9108    2.3834   -0.9849 H   0  0  0  0  0  0  0  0  0  0  0  0
   -7.7026    0.7940   -1.0638 H   0  0  0  0  0  0  0  0  0  0  0  0
   -6.3951    1.0755    0.1081 H   0  0  0  0  0  0  0  0  0  0  0  0
   -4.4518    1.3692   -1.8988 N   0  0  0  0  0  0  0  0  0  0  0  0
   -3.3436    0.8757   -2.7268 C   0  0  2  0  0  0  0  0  0  0  0  0
   -1.9993    0.9136   -1.9698 C   0  0  0  0  0  0  0  0  0  0  0  0
   -1.9223    1.5126   -0.9040 O   0  0  0  0  0  0  0  0  0  0  0  0
   -3.2686    1.7352   -3.9918 C   0  0  0  0  0  0  0  0  0  0  0  0
   -4.1979    1.9426   -1.0947 H   0  0  0  0  0  0  0  0  0  0  0  0
   -3.5275   -0.1663   -3.0096 H   0  0  0  0  0  0  0  0  0  0  0  0
   -3.0794    2.7819   -3.7316 H   0  0  0  0  0  0  0  0  0  0  0  0
   -2.4641    1.3878   -4.6473 H   0  0  0  0  0  0  0  0  0  0  0  0
   -4.2125    1.6783   -4.5435 H   0  0  0  0  0  0  0  0  0  0  0  0
   -0.9406    0.1385   -2.4151 N   0  0  0  0  0  0  0  0  0  0  0  0
    0.4976    0.3648   -2.1533 C   0  0  2  0  0  0  0  0  0  0  0  0
    0.9124    1.5902   -1.3008 C   0  0  0  0  0  0  0  0  0  0  0  0
    0.7079    2.7246   -1.7234 O   0  0  0  0  0  0  0  0  0  0  0  0
    1.1886    0.4797   -3.5171 C   0  0  0  0  0  0  0  0  0  0  0  0
    1.0786   -1.1121   -4.4272 S   0  0  0  0  0  0  0  0  0  0  0  0
   -1.1443   -0.4037   -3.2510 H   0  0  0  0  0  0  0  0  0  0  0  0
    0.8839   -0.5176   -1.6348 H   0  0  0  0  0  0  0  0  0  0  0  0
    0.7349    1.2853   -4.1035 H   0  0  0  0  0  0  0  0  0  0  0  0
    2.2456    0.7289   -3.3735 H   0  0  0  0  0  0  0  0  0  0  0  0
    1.8556    1.4365   -0.3017 N   0  0  0  0  0  0  0  0  0  0  0  0
    2.5004    2.5325    0.4320 C   0  0  2  0  0  0  0  0  0  0  0  0
    3.8030    2.0600    1.1125 C   0  0  0  0  0  0  0  0  0  0  0  0
    4.0796    0.8655    1.1498 O   0  0  0  0  0  0  0  0  0  0  0  0
    1.5130    3.0702    1.4750 C   0  0  0  0  0  0  0  0  0  0  0  0
    2.1366    0.4899   -0.0481 H   0  0  0  0  0  0  0  0  0  0  0  0
    2.7642    3.3348   -0.2649 H   0  0  0  0  0  0  0  0  0  0  0  0
    1.2379    2.2815    2.1827 H   0  0  0  0  0  0  0  0  0  0  0  0
    1.9544    3.9016    2.0324 H   0  0  0  0  0  0  0  0  0  0  0  0
    0.6016    3.4312    0.9872 H   0  0  0  0  0  0  0  0  0  0  0  0
    4.6761    2.9738    1.6741 N   0  0  0  0  0  0  0  0  0  0  0  0
    5.9134    2.5912    2.3442 C   0  0  0  0  0  0  0  0  0  0  0  0
    4.4192    3.9559    1.6371 H   0  0  0  0  0  0  0  0  0  0  0  0
    5.6980    1.9690    3.2192 H   0  0  0  0  0  0  0  0  0  0  0  0
    6.5617    2.0293    1.6634 H   0  0  0  0  0  0  0  0  0  0  0  0
    6.4545    3.4819    2.6776 H   0  0  0  0  0  0  0  0  0  0  0  0
  1  2  2  0  0  0  0
  1  3  1  0  0  0  0
  1  7  1  0  0  0  0
  3  4  1  0  0  0  0
  3  5  1  0  0  0  0
  3  6  1  0  0  0  0
  7  8  1  0  0  0  0
  7 13  1  0  0  0  0
  8  9  1  0  0  0  0
  8 11  1  0  0  0  0
  8 14  1  0  0  0  0
  9 10  2  0  0  0  0
  9 17  1  0  0  0  0
 11 12  1  0  0  0  0
 11 15  1  0  0  0  0
 11 16  1  0  0  0  0
 12 44  1  0  0  0  0
 17 18  1  0  0  0  0
 17 19  1  0  0  0  0
 18 20  1  0  0  0  0
 18 21  1  0  0  0  0
 18 22  1  0  0  0  0
 23 24  2  0  0  0  0
 23 25  1  0  0  0  0
 23 29  1  0  0  0  0
 25 26  1  0  0  0  0
 25 27  1  0  0  0  0
 25 28  1  0  0  0  0
 29 30  1  0  0  0  0
 29 34  1  0  0  0  0
 30 31  1  0  0  0  0
 30 33  1  0  0  0  0
 30 35  1  0  0  0  0
 31 32  2  0  0  0  0
 31 39  1  0  0  0  0
 33 36  1  0  0  0  0
 33 37  1  0  0  0  0
 33 38  1  0  0  0  0
 39 40  1  0  0  0  0
 39 45  1  0  0  0  0
 40 41  1  0  0  0  0
 40 43  1  0  0  0  0
 40 46  1  0  0  0  0
 41 42  2  0  0  0  0
 41 49  1  0  0  0  0
 43 44  1  0  0  0  0
 43 47  1  0  0  0  0
 43 48  1  0  0  0  0
 49 50  1  0  0  0  0
 49 54  1  0  0  0  0
 50 51  1  0  0  0  0
 50 53  1  0  0  0  0
 50 55  1  0  0  0  0
 51 52  2  0  0  0  0
 51 59  1  0  0  0  0
 53 56  1  0  0  0  0
 53 57  1  0  0  0  0
 53 58  1  0  0  0  0
 59 60  1  0  0  0  0
 59 61  1  0  0  0  0
 60 62  1  0  0  0  0
 60 63  1  0  0  0  0
 60 64  1  0  0  0  0
M  END
$$$$

  -OEChem-05262216053D

 64 63  0     1  0  0  0  0  0999 V2000
    1.8323   -1.2822   -9.9455 C   0  0  0  0  0  0  0  0  0  0  0  0
    0.6456   -1.0645  -10.1356 O   0  0  0  0  0  0  0  0  0  0  0  0
    2.5172   -2.4502  -10.6299 C   0  0  0  0  0  0  0  0  0  0  0  0
    2.9706   -3.1056   -9.8820 H   0  0  0  0  0  0  0  0  0  0  0  0
    1.7902   -3.0266  -11.2088 H   0  0  0  0  0  0  0  0  0  0  0  0
    3.2958   -2.0850  -11.3041 H   0  0  0  0  0  0  0  0  0  0  0  0
    2.5479   -0.4653   -9.0984 N   0  0  0  0  0  0  0  0  0  0  0  0
    1.9916    0.6935   -8.3867 C   0  0  2  0  0  0  0  0  0  0  0  0
    3.0839    1.7194   -8.0140 C   0  0  0  0  0  0  0  0  0  0  0  0
    4.2662    1.4701   -8.2250 O   0  0  0  0  0  0  0  0  0  0  0  0
    1.2460    0.2051   -7.1347 C   0  0  0  0  0  0  0  0  0  0  0  0
    2.3835   -0.6541   -5.9721 S   0  0  0  0  0  0  0  0  0  0  0  0
    3.5490   -0.6329   -9.0021 H   0  0  0  0  0  0  0  0  0  0  0  0
    1.2820    1.2079   -9.0434 H   0  0  0  0  0  0  0  0  0  0  0  0
    0.7803    1.0531   -6.6256 H   0  0  0  0  0  0  0  0  0  0  0  0
    0.4467   -0.4821   -7.4305 H   0  0  0  0  0  0  0  0  0  0  0  0
    2.7423    2.9449   -7.4695 N   0  0  0  0  0  0  0  0  0  0  0  0
    3.7261    3.9506   -7.0863 C   0  0  0  0  0  0  0  0  0  0  0  0
    1.7565    3.1438   -7.3281 H   0  0  0  0  0  0  0  0  0  0  0  0
    4.4220    3.5429   -6.3451 H   0  0  0  0  0  0  0  0  0  0  0  0
    4.2967    4.2821   -7.9602 H   0  0  0  0  0  0  0  0  0  0  0  0
    3.2272    4.8211   -6.6489 H   0  0  0  0  0  0  0  0  0  0  0  0
   -5.7343    0.8823   -1.9577 C   0  0  0  0  0  0  0  0  0  0  0  0
   -6.0529    0.1462   -2.8781 O   0  0  0  0  0  0  0  0  0  0  0  0
   -6.7467    1.2449   -0.8878 C   0  0  0  0  0  0  0  0  0  0  0  0
   -6.9744    2.3125   -0.9362 H   0  0  0  0  0  0  0  0  0  0  0  0
   -7.6703    0.6785   -1.0362 H   0  0  0  0  0  0  0  0  0  0  0  0
   -6.3446    1.0087    0.1004 H   0  0  0  0  0  0  0  0  0  0  0  0
   -4.4462    1.3660   -1.8748 N   0  0  0  0  0  0  0  0  0  0  0  0
   -3.3324    0.8861   -2.7035 C   0  0  2  0  0  0  0  0  0  0  0  0
   -2.0158    0.8247   -1.9005 C   0  0  0  0  0  0  0  0  0  0  0  0
   -1.9741    1.2927   -0.7686 O   0  0  0  0  0  0  0  0  0  0  0  0
   -3.1842    1.8232   -3.9048 C   0  0  0  0  0  0  0  0  0  0  0  0
   -4.1885    1.8452   -1.0119 H   0  0  0  0  0  0  0  0  0  0  0  0
   -3.5442   -0.1276   -3.0608 H   0  0  0  0  0  0  0  0  0  0  0  0
   -2.9491    2.8389   -3.5698 H   0  0  0  0  0  0  0  0  0  0  0  0
   -2.3828    1.4784   -4.5649 H   0  0  0  0  0  0  0  0  0  0  0  0
   -4.1159    1.8512   -4.4791 H   0  0  0  0  0  0  0  0  0  0  0  0
   -0.9529    0.0678   -2.3641 N   0  0  0  0  0  0  0  0  0  0  0  0
    0.4805    0.3309   -2.1076 C   0  0  2  0  0  0  0  0  0  0  0  0
    0.8766    1.5619   -1.2526 C   0  0  0  0  0  0  0  0  0  0  0  0
    0.4752    2.6777   -1.5702 O   0  0  0  0  0  0  0  0  0  0  0  0
    1.1566    0.4810   -3.4754 C   0  0  0  0  0  0  0  0  0  0  0  0
    1.0842   -1.1019   -4.4042 S   0  0  0  0  0  0  0  0  0  0  0  0
   -1.1432   -0.4131   -3.2395 H   0  0  0  0  0  0  0  0  0  0  0  0
    0.8922   -0.5449   -1.5969 H   0  0  0  0  0  0  0  0  0  0  0  0
    0.6776    1.2812   -4.0487 H   0  0  0  0  0  0  0  0  0  0  0  0
    2.2076    0.7565   -3.3368 H   0  0  0  0  0  0  0  0  0  0  0  0
    2.0288    1.5096   -0.4886 N   0  0  0  0  0  0  0  0  0  0  0  0
    2.6740    2.6629    0.1523 C   0  0  2  0  0  0  0  0  0  0  0  0
    4.1440    2.3586    0.5106 C   0  0  0  0  0  0  0  0  0  0  0  0
    4.5718    1.2113    0.4378 O   0  0  0  0  0  0  0  0  0  0  0  0
    1.8799    3.0345    1.4108 C   0  0  0  0  0  0  0  0  0  0  0  0
    2.4840    0.6054   -0.3656 H   0  0  0  0  0  0  0  0  0  0  0  0
    2.6747    3.5124   -0.5386 H   0  0  0  0  0  0  0  0  0  0  0  0
    1.8671    2.1975    2.1162 H   0  0  0  0  0  0  0  0  0  0  0  0
    2.3260    3.9017    1.9066 H   0  0  0  0  0  0  0  0  0  0  0  0
    0.8462    3.2841    1.1502 H   0  0  0  0  0  0  0  0  0  0  0  0
    4.9964    3.3773    0.8957 N   0  0  0  0  0  0  0  0  0  0  0  0
    6.3989    3.1637    1.2325 C   0  0  0  0  0  0  0  0  0  0  0  0
    4.6174    4.3191    0.9373 H   0  0  0  0  0  0  0  0  0  0  0  0
    6.4905    2.4583    2.0651 H   0  0  0  0  0  0  0  0  0  0  0  0
    6.9435    2.7641    0.3706 H   0  0  0  0  0  0  0  0  0  0  0  0
    6.8647    4.1085    1.5281 H   0  0  0  0  0  0  0  0  0  0  0  0
  1  2  2  0  0  0  0
  1  3  1  0  0  0  0
  1  7  1  0  0  0  0
  3  4  1  0  0  0  0
  3  5  1  0  0  0  0
  3  6  1  0  0  0  0
  7  8  1  0  0  0  0
  7 13  1  0  0  0  0
  8  9  1  0  0  0  0
  8 11  1  0  0  0  0
  8 14  1  0  0  0  0
  9 10  2  0  0  0  0
  9 17  1  0  0  0  0
 11 12  1  0  0  0  0
 11 15  1  0  0  0  0
 11 16  1  0  0  0  0
 12 44  1  0  0  0  0
 17 18  1  0  0  0  0
 17 19  1  0  0  0  0
 18 20  1  0  0  0  0
 18 21  1  0  0  0  0
 18 22  1  0  0  0  0
 23 24  2  0  0  0  0
 23 25  1  0  0  0  0
 23 29  1  0  0  0  0
 25 26  1  0  0  0  0
 25 27  1  0  0  0  0
 25 28  1  0  0  0  0
 29 30  1  0  0  0  0
 29 34  1  0  0  0  0
 30 31  1  0  0  0  0
 30 33  1  0  0  0  0
 30 35  1  0  0  0  0
 31 32  2  0  0  0  0
 31 39  1  0  0  0  0
 33 36  1  0  0  0  0
 33 37  1  0  0  0  0
 33 38  1  0  0  0  0
 39 40  1  0  0  0  0
 39 45  1  0  0  0  0
 40 41  1  0  0  0  0
 40 43  1  0  0  0  0
 40 46  1  0  0  0  0
 41 42  2  0  0  0  0
 41 49  1  0  0  0  0
 43 44  1  0  0  0  0
 43 47  1  0  0  0  0
 43 48  1  0  0  0  0
 49 50  1  0  0  0  0
 49 54  1  0  0  0  0
 50 51  1  0  0  0  0
 50 53  1  0  0  0  0
 50 55  1  0  0  0  0
 51 52  2  0  0  0  0
 51 59  1  0  0  0  0
 53 56  1  0  0  0  0
 53 57  1  0  0  0  0
 53 58  1  0  0  0  0
 59 60  1  0  0  0  0
 59 61  1  0  0  0  0
 60 62  1  0  0  0  0
 60 63  1  0  0  0  0
 60 64  1  0  0  0  0
M  END
$$$$

  -OEChem-05262216053D

 64 63  0     1  0  0  0  0  0999 V2000
    1.8078   -1.2777   -9.8597 C   0  0  0  0  0  0  0  0  0  0  0  0
    0.6117   -1.0815  -10.0097 O   0  0  0  0  0  0  0  0  0  0  0  0
    2.4882   -2.4318  -10.5713 C   0  0  0  0  0  0  0  0  0  0  0  0
    2.9509   -3.1000   -9.8408 H   0  0  0  0  0  0  0  0  0  0  0  0
    1.7565   -2.9995  -11.1531 H   0  0  0  0  0  0  0  0  0  0  0  0
    3.2582   -2.0526  -11.2476 H   0  0  0  0  0  0  0  0  0  0  0  0
    2.5377   -0.4414   -9.0439 N   0  0  0  0  0  0  0  0  0  0  0  0
    1.9865    0.7241   -8.3380 C   0  0  2  0  0  0  0  0  0  0  0  0
    3.0769    1.7648   -8.0009 C   0  0  0  0  0  0  0  0  0  0  0  0
    4.2552    1.5281   -8.2462 O   0  0  0  0  0  0  0  0  0  0  0  0
    1.2630    0.2512   -7.0668 C   0  0  0  0  0  0  0  0  0  0  0  0
    2.4239   -0.5710   -5.9012 S   0  0  0  0  0  0  0  0  0  0  0  0
    3.5451   -0.5871   -8.9850 H   0  0  0  0  0  0  0  0  0  0  0  0
    1.2622    1.2240   -8.9895 H   0  0  0  0  0  0  0  0  0  0  0  0
    0.7915    1.1028   -6.5688 H   0  0  0  0  0  0  0  0  0  0  0  0
    0.4693   -0.4520   -7.3390 H   0  0  0  0  0  0  0  0  0  0  0  0
    2.7367    2.9917   -7.4577 N   0  0  0  0  0  0  0  0  0  0  0  0
    3.7196    4.0119   -7.1115 C   0  0  0  0  0  0  0  0  0  0  0  0
    1.7532    3.1799   -7.2876 H   0  0  0  0  0  0  0  0  0  0  0  0
    4.4283    3.6260   -6.3709 H   0  0  0  0  0  0  0  0  0  0  0  0
    4.2760    4.3266   -8.0008 H   0  0  0  0  0  0  0  0  0  0  0  0
    3.2215    4.8892   -6.6875 H   0  0  0  0  0  0  0  0  0  0  0  0
   -5.7309    0.8853   -2.0742 C   0  0  0  0  0  0  0  0  0  0  0  0
   -6.0140    0.2554   -3.0812 O   0  0  0  0  0  0  0  0  0  0  0  0
   -6.8053    1.2193   -1.0568 C   0  0  0  0  0  0  0  0  0  0  0  0
   -6.9230    2.3029   -0.9811 H   0  0  0  0  0  0  0  0  0  0  0  0
   -7.7600    0.7806   -1.3596 H   0  0  0  0  0  0  0  0  0  0  0  0
   -6.5290    0.8201   -0.0778 H   0  0  0  0  0  0  0  0  0  0  0  0
   -4.4300    1.2826   -1.8530 N   0  0  0  0  0  0  0  0  0  0  0  0
   -3.2845    0.8436   -2.6600 C   0  0  2  0  0  0  0  0  0  0  0  0
   -2.0112    0.6935   -1.8021 C   0  0  0  0  0  0  0  0  0  0  0  0
   -2.0247    1.0327   -0.6244 O   0  0  0  0  0  0  0  0  0  0  0  0
   -3.0557    1.8670   -3.7756 C   0  0  0  0  0  0  0  0  0  0  0  0
   -4.2120    1.6735   -0.9362 H   0  0  0  0  0  0  0  0  0  0  0  0
   -3.4968   -0.1348   -3.1042 H   0  0  0  0  0  0  0  0  0  0  0  0
   -2.8314    2.8507   -3.3498 H   0  0  0  0  0  0  0  0  0  0  0  0
   -2.2187    1.5633   -4.4116 H   0  0  0  0  0  0  0  0  0  0  0  0
   -3.9514    1.9517   -4.3995 H   0  0  0  0  0  0  0  0  0  0  0  0
   -0.9251   -0.0194   -2.2793 N   0  0  0  0  0  0  0  0  0  0  0  0
    0.4969    0.3011   -2.0210 C   0  0  2  0  0  0  0  0  0  0  0  0
    0.8646    1.5363   -1.1557 C   0  0  0  0  0  0  0  0  0  0  0  0
    0.2792    2.6020   -1.3180 O   0  0  0  0  0  0  0  0  0  0  0  0
    1.1481    0.4957   -3.3972 C   0  0  0  0  0  0  0  0  0  0  0  0
    1.1315   -1.0772   -4.3452 S   0  0  0  0  0  0  0  0  0  0  0  0
   -1.0935   -0.4499   -3.1847 H   0  0  0  0  0  0  0  0  0  0  0  0
    0.9464   -0.5645   -1.5247 H   0  0  0  0  0  0  0  0  0  0  0  0
    0.6262    1.2812   -3.9531 H   0  0  0  0  0  0  0  0  0  0  0  0
    2.1894    0.8129   -3.2764 H   0  0  0  0  0  0  0  0  0  0  0  0
    2.1551    1.6307   -0.6636 N   0  0  0  0  0  0  0  0  0  0  0  0
    2.7857    2.8542   -0.1500 C   0  0  2  0  0  0  0  0  0  0  0  0
    4.3248    2.7488   -0.1915 C   0  0  0  0  0  0  0  0  0  0  0  0
    4.8607    1.6769   -0.4527 O   0  0  0  0  0  0  0  0  0  0  0  0
    2.2988    3.0914    1.2843 C   0  0  0  0  0  0  0  0  0  0  0  0
    2.7521    0.8060   -0.7269 H   0  0  0  0  0  0  0  0  0  0  0  0
    2.4997    3.7069   -0.7747 H   0  0  0  0  0  0  0  0  0  0  0  0
    2.5788    2.2507    1.9273 H   0  0  0  0  0  0  0  0  0  0  0  0
    2.7375    4.0059    1.6943 H   0  0  0  0  0  0  0  0  0  0  0  0
    1.2091    3.1963    1.3047 H   0  0  0  0  0  0  0  0  0  0  0  0
    5.1123    3.8613    0.0417 N   0  0  0  0  0  0  0  0  0  0  0  0
    6.5697    3.8293    0.0181 C   0  0  0  0  0  0  0  0  0  0  0  0
    4.6418    4.7364    0.2536 H   0  0  0  0  0  0  0  0  0  0  0  0
    6.9497    3.1231    0.7638 H   0  0  0  0  0  0  0  0  0  0  0  0
    6.9306    3.5266   -0.9705 H   0  0  0  0  0  0  0  0  0  0  0  0
    6.9730    4.8209    0.2446 H   0  0  0  0  0  0  0  0  0  0  0  0
  1  2  2  0  0  0  0
  1  3  1  0  0  0  0
  1  7  1  0  0  0  0
  3  4  1  0  0  0  0
  3  5  1  0  0  0  0
  3  6  1  0  0  0  0
  7  8  1  0  0  0  0
  7 13  1  0  0  0  0
  8  9  1  0  0  0  0
  8 11  1  0  0  0  0
  8 14  1  0  0  0  0
  9 10  2  0  0  0  0
  9 17  1  0  0  0  0
 11 12  1  0  0  0  0
 11 15  1  0  0  0  0
 11 16  1  0  0  0  0
 12 44  1  0  0  0  0
 17 18  1  0  0  0  0
 17 19  1  0  0  0  0
 18 20  1  0  0  0  0
 18 21  1  0  0  0  0
 18 22  1  0  0  0  0
 23 24  2  0  0  0  0
 23 25  1  0  0  0  0
 23 29  1  0  0  0  0
 25 26  1  0  0  0  0
 25 27  1  0  0  0  0
 25 28  1  0  0  0  0
 29 30  1  0  0  0  0
 29 34  1  0  0  0  0
 30 31  1  0  0  0  0
 30 33  1  0  0  0  0
 30 35  1  0  0  0  0
 31 32  2  0  0  0  0
 31 39  1  0  0  0  0
 33 36  1  0  0  0  0
 33 37  1  0  0  0  0
 33 38  1  0  0  0  0
 39 40  1  0  0  0  0
 39 45  1  0  0  0  0
 40 41  1  0  0  0  0
 40 43  1  0  0  0  0
 40 46  1  0  0  0  0
 41 42  2  0  0  0  0
 41 49  1  0  0  0  0
 43 44  1  0  0  0  0
 43 47  1  0  0  0  0
 43 48  1  0  0  0  0
 49 50  1  0  0  0  0
 49 54  1  0  0  0  0
 50 51  1  0  0  0  0
 50 53  1  0  0  0  0
 50 55  1  0  0  0  0
 51 52  2  0  0  0  0
 51 59  1  0  0  0  0
 53 56  1  0  0  0  0
 53 57  1  0  0  0  0
 53 58  1  0  0  0  0
 59 60  1  0  0  0  0
 59 61  1  0  0  0  0
 60 62  1  0  0  0  0
 60 63  1  0  0  0  0
 60 64  1  0  0  0  0
M  END
$$$$

  -OEChem-05262216053D

 64 63  0     1  0  0  0  0  0999 V2000
    1.6189    0.5440  -10.1167 C   0  0  0  0  0  0  0  0  0  0  0  0
    0.4099    0.3759  -10.1618 O   0  0  0  0  0  0  0  0  0  0  0  0
    2.4896    0.1444  -11.2928 C   0  0  0  0  0  0  0  0  0  0  0  0
    3.2423   -0.5790  -10.9698 H   0  0  0  0  0  0  0  0  0  0  0  0
    1.8785   -0.3096  -12.0777 H   0  0  0  0  0  0  0  0  0  0  0  0
    2.9909    1.0254  -11.7006 H   0  0  0  0  0  0  0  0  0  0  0  0
    2.1947    1.1071   -8.9994 N   0  0  0  0  0  0  0  0  0  0  0  0
    1.4504    1.6135   -7.8373 C   0  0  2  0  0  0  0  0  0  0  0  0
    2.2348    2.7214   -7.0954 C   0  0  0  0  0  0  0  0  0  0  0  0
    3.3495    3.0496   -7.4933 O   0  0  0  0  0  0  0  0  0  0  0  0
    1.1161    0.4406   -6.9050 C   0  0  0  0  0  0  0  0  0  0  0  0
    2.6299   -0.3079   -6.1680 S   0  0  0  0  0  0  0  0  0  0  0  0
    3.1912    1.3189   -9.0324 H   0  0  0  0  0  0  0  0  0  0  0  0
    0.5135    2.0660   -8.1789 H   0  0  0  0  0  0  0  0  0  0  0  0
    0.4628    0.8005   -6.1081 H   0  0  0  0  0  0  0  0  0  0  0  0
    0.5641   -0.3285   -7.4545 H   0  0  0  0  0  0  0  0  0  0  0  0
    1.6945    3.3898   -6.0110 N   0  0  0  0  0  0  0  0  0  0  0  0
    2.4114    4.4097   -5.2585 C   0  0  0  0  0  0  0  0  0  0  0  0
    0.7823    3.0866   -5.6567 H   0  0  0  0  0  0  0  0  0  0  0  0
    3.3347    3.9977   -4.8377 H   0  0  0  0  0  0  0  0  0  0  0  0
    2.6629    5.2574   -5.9043 H   0  0  0  0  0  0  0  0  0  0  0  0
    1.7882    4.7749   -4.4360 H   0  0  0  0  0  0  0  0  0  0  0  0
   -3.2386    0.5598   -1.7700 C   0  0  0  0  0  0  0  0  0  0  0  0
   -2.9530   -0.4617   -2.3793 O   0  0  0  0  0  0  0  0  0  0  0  0
   -3.4353    0.5246   -0.2673 C   0  0  0  0  0  0  0  0  0  0  0  0
   -4.4023    0.9623   -0.0077 H   0  0  0  0  0  0  0  0  0  0  0  0
   -3.4076   -0.5075    0.0933 H   0  0  0  0  0  0  0  0  0  0  0  0
   -2.6413    1.0930    0.2239 H   0  0  0  0  0  0  0  0  0  0  0  0
   -3.2760    1.7643   -2.4409 N   0  0  0  0  0  0  0  0  0  0  0  0
   -2.8605    1.9119   -3.8430 C   0  0  2  0  0  0  0  0  0  0  0  0
   -1.3215    1.8542   -3.9699 C   0  0  0  0  0  0  0  0  0  0  0  0
   -0.6590    2.7808   -4.4258 O   0  0  0  0  0  0  0  0  0  0  0  0
   -3.4495    3.2268   -4.3674 C   0  0  0  0  0  0  0  0  0  0  0  0
   -3.2454    2.5961   -1.8554 H   0  0  0  0  0  0  0  0  0  0  0  0
   -3.2756    1.0946   -4.4426 H   0  0  0  0  0  0  0  0  0  0  0  0
   -3.0468    4.0788   -3.8100 H   0  0  0  0  0  0  0  0  0  0  0  0
   -3.2021    3.3584   -5.4257 H   0  0  0  0  0  0  0  0  0  0  0  0
   -4.5390    3.2244   -4.2651 H   0  0  0  0  0  0  0  0  0  0  0  0
   -0.6357    0.6997   -3.6506 N   0  0  0  0  0  0  0  0  0  0  0  0
    0.4572    0.6643   -2.6503 C   0  0  2  0  0  0  0  0  0  0  0  0
    0.6127    1.8643   -1.6693 C   0  0  0  0  0  0  0  0  0  0  0  0
   -0.3196    2.6215   -1.4138 O   0  0  0  0  0  0  0  0  0  0  0  0
    1.7526    0.5553   -3.4714 C   0  0  0  0  0  0  0  0  0  0  0  0
    1.8190   -1.0363   -4.3876 S   0  0  0  0  0  0  0  0  0  0  0  0
   -1.3042   -0.0616   -3.4998 H   0  0  0  0  0  0  0  0  0  0  0  0
    0.3412   -0.2325   -2.0340 H   0  0  0  0  0  0  0  0  0  0  0  0
    1.8107    1.3961   -4.1678 H   0  0  0  0  0  0  0  0  0  0  0  0
    2.6351    0.6074   -2.8276 H   0  0  0  0  0  0  0  0  0  0  0  0
    1.6353    1.8362   -0.7372 N   0  0  0  0  0  0  0  0  0  0  0  0
    1.9221    2.9187    0.2146 C   0  0  2  0  0  0  0  0  0  0  0  0
    3.4385    3.1972    0.2879 C   0  0  0  0  0  0  0  0  0  0  0  0
    4.2277    2.3997   -0.2072 O   0  0  0  0  0  0  0  0  0  0  0  0
    1.3773    2.5093    1.5852 C   0  0  0  0  0  0  0  0  0  0  0  0
    2.4244    1.2244   -0.9474 H   0  0  0  0  0  0  0  0  0  0  0  0
    1.4354    3.8460   -0.1060 H   0  0  0  0  0  0  0  0  0  0  0  0
    1.8577    1.5873    1.9284 H   0  0  0  0  0  0  0  0  0  0  0  0
    1.5630    3.2951    2.3236 H   0  0  0  0  0  0  0  0  0  0  0  0
    0.2978    2.3391    1.5263 H   0  0  0  0  0  0  0  0  0  0  0  0
    3.9201    4.3458    0.8886 N   0  0  0  0  0  0  0  0  0  0  0  0
    5.3381    4.6832    0.9415 C   0  0  0  0  0  0  0  0  0  0  0  0
    3.2433    5.0064    1.2595 H   0  0  0  0  0  0  0  0  0  0  0  0
    5.9038    3.8901    1.4422 H   0  0  0  0  0  0  0  0  0  0  0  0
    5.7376    4.8161   -0.0695 H   0  0  0  0  0  0  0  0  0  0  0  0
    5.4855    5.6144    1.4972 H   0  0  0  0  0  0  0  0  0  0  0  0
  1  2  2  0  0  0  0
  1  3  1  0  0  0  0
  1  7  1  0  0  0  0
  3  4  1  0  0  0  0
  3  5  1  0  0  0  0
  3  6  1  0  0  0  0
  7  8  1  0  0  0  0
  7 13  1  0  0  0  0
  8  9  1  0  0  0  0
  8 11  1  0  0  0  0
  8 14  1  0  0  0  0
  9 10  2  0  0  0  0
  9 17  1  0  0  0  0
 11 12  1  0  0  0  0
 11 15  1  0  0  0  0
 11 16  1  0  0  0  0
 12 44  1  0  0  0  0
 17 18  1  0  0  0  0
 17 19  1  0  0  0  0
 18 20  1  0  0  0  0
 18 21  1  0  0  0  0
 18 22  1  0  0  0  0
 23 24  2  0  0  0  0
 23 25  1  0  0  0  0
 23 29  1  0  0  0  0
 25 26  1  0  0  0  0
 25 27  1  0  0  0  0
 25 28  1  0  0  0  0
 29 30  1  0  0  0  0
 29 34  1  0  0  0  0
 30 31  1  0  0  0  0
 30 33  1  0  0  0  0
 30 35  1  0  0  0  0
 31 32  2  0  0  0  0
 31 39  1  0  0  0  0
 33 36  1  0  0  0  0
 33 37  1  0  0  0  0
 33 38  1  0  0  0  0
 39 40  1  0  0  0  0
 39 45  1  0  0  0  0
 40 41  1  0  0  0  0
 40 43  1  0  0  0  0
 40 46  1  0  0  0  0
 41 42  2  0  0  0  0
 41 49  1  0  0  0  0
 43 44  1  0  0  0  0
 43 47  1  0  0  0  0
 43 48  1  0  0  0  0
 49 50  1  0  0  0  0
 49 54  1  0  0  0  0
 50 51  1  0  0  0  0
 50 53  1  0  0  0  0
 50 55  1  0  0  0  0
 51 52  2  0  0  0  0
 51 59  1  0  0  0  0
 53 56  1  0  0  0  0
 53 57  1  0  0  0  0
 53 58  1  0  0  0  0
 59 60  1  0  0  0  0
 59 61  1  0  0  0  0
 60 62  1  0  0  0  0
 60 63  1  0  0  0  0
 60 64  1  0  0  0  0
M  END
$$$$

  -OEChem-05262216053D

 64 63  0     1  0  0  0  0  0999 V2000
    1.0531    1.4804   -9.7470 C   0  0  0  0  0  0  0  0  0  0  0  0
   -0.1395    1.2339   -9.6499 O   0  0  0  0  0  0  0  0  0  0  0  0
    1.7325    1.4476  -11.1027 C   0  0  0  0  0  0  0  0  0  0  0  0
    2.5729    0.7493  -11.0823 H   0  0  0  0  0  0  0  0  0  0  0  0
    1.0240    1.1245  -11.8706 H   0  0  0  0  0  0  0  0  0  0  0  0
    2.1012    2.4440  -11.3587 H   0  0  0  0  0  0  0  0  0  0  0  0
    1.7792    1.8020   -8.6220 N   0  0  0  0  0  0  0  0  0  0  0  0
    1.2034    1.9770   -7.2821 C   0  0  2  0  0  0  0  0  0  0  0  0
    2.0545    2.9365   -6.4175 C   0  0  0  0  0  0  0  0  0  0  0  0
    3.1108    3.3769   -6.8627 O   0  0  0  0  0  0  0  0  0  0  0  0
    1.0457    0.5995   -6.6209 C   0  0  0  0  0  0  0  0  0  0  0  0
    2.6692   -0.1855   -6.2365 S   0  0  0  0  0  0  0  0  0  0  0  0
    2.7472    2.0980   -8.7456 H   0  0  0  0  0  0  0  0  0  0  0  0
    0.2128    2.4344   -7.3746 H   0  0  0  0  0  0  0  0  0  0  0  0
    0.4742    0.7206   -5.7007 H   0  0  0  0  0  0  0  0  0  0  0  0
    0.4711   -0.0638   -7.2747 H   0  0  0  0  0  0  0  0  0  0  0  0
    1.6360    3.3474   -5.1637 N   0  0  0  0  0  0  0  0  0  0  0  0
    2.4628    4.1517   -4.2732 C   0  0  0  0  0  0  0  0  0  0  0  0
    0.7772    2.9435   -4.7805 H   0  0  0  0  0  0  0  0  0  0  0  0
    3.4132    3.6466   -4.0715 H   0  0  0  0  0  0  0  0  0  0  0  0
    2.6698    5.1296   -4.7194 H   0  0  0  0  0  0  0  0  0  0  0  0
    1.9464    4.3074   -3.3209 H   0  0  0  0  0  0  0  0  0  0  0  0
   -4.4225    2.1021   -2.2114 C   0  0  0  0  0  0  0  0  0  0  0  0
   -4.9275    1.0127   -1.9910 O   0  0  0  0  0  0  0  0  0  0  0  0
   -4.9833    3.3447   -1.5468 C   0  0  0  0  0  0  0  0  0  0  0  0
   -5.3235    4.0515   -2.3072 H   0  0  0  0  0  0  0  0  0  0  0  0
   -5.8300    3.0803   -0.9072 H   0  0  0  0  0  0  0  0  0  0  0  0
   -4.2139    3.8201   -0.9336 H   0  0  0  0  0  0  0  0  0  0  0  0
   -3.3469    2.2092   -3.0686 N   0  0  0  0  0  0  0  0  0  0  0  0
   -2.6003    1.0595   -3.5960 C   0  0  2  0  0  0  0  0  0  0  0  0
   -1.0897    1.2175   -3.3445 C   0  0  0  0  0  0  0  0  0  0  0  0
   -0.5530    2.3108   -3.5038 O   0  0  0  0  0  0  0  0  0  0  0  0
   -2.8916    0.9487   -5.0948 C   0  0  0  0  0  0  0  0  0  0  0  0
   -2.8807    3.1142   -3.1033 H   0  0  0  0  0  0  0  0  0  0  0  0
   -2.9196    0.1355   -3.1025 H   0  0  0  0  0  0  0  0  0  0  0  0
   -2.5704    1.8551   -5.6182 H   0  0  0  0  0  0  0  0  0  0  0  0
   -2.3640    0.0923   -5.5257 H   0  0  0  0  0  0  0  0  0  0  0  0
   -3.9651    0.8124   -5.2603 H   0  0  0  0  0  0  0  0  0  0  0  0
   -0.2689    0.1099   -3.2400 N   0  0  0  0  0  0  0  0  0  0  0  0
    0.9362    0.0193   -2.3793 C   0  0  2  0  0  0  0  0  0  0  0  0
    1.0982    1.0986   -1.2664 C   0  0  0  0  0  0  0  0  0  0  0  0
    0.1135    1.5815   -0.7189 O   0  0  0  0  0  0  0  0  0  0  0  0
    2.1153    0.1482   -3.3588 C   0  0  0  0  0  0  0  0  0  0  0  0
    2.1667   -1.2731   -4.5218 S   0  0  0  0  0  0  0  0  0  0  0  0
   -0.7757   -0.7658   -3.3353 H   0  0  0  0  0  0  0  0  0  0  0  0
    0.9671   -0.9569   -1.8857 H   0  0  0  0  0  0  0  0  0  0  0  0
    2.0339    1.0895   -3.9058 H   0  0  0  0  0  0  0  0  0  0  0  0
    3.0706    0.1674   -2.8277 H   0  0  0  0  0  0  0  0  0  0  0  0
    2.3154    1.2839   -0.6317 N   0  0  0  0  0  0  0  0  0  0  0  0
    2.5979    2.4525    0.2161 C   0  0  2  0  0  0  0  0  0  0  0  0
    3.4904    3.4636   -0.5327 C   0  0  0  0  0  0  0  0  0  0  0  0
    4.1879    3.0824   -1.4665 O   0  0  0  0  0  0  0  0  0  0  0  0
    3.2903    1.9552    1.4858 C   0  0  0  0  0  0  0  0  0  0  0  0
    3.1219    0.9278   -1.1407 H   0  0  0  0  0  0  0  0  0  0  0  0
    1.6753    2.9677    0.5029 H   0  0  0  0  0  0  0  0  0  0  0  0
    4.2323    1.4549    1.2388 H   0  0  0  0  0  0  0  0  0  0  0  0
    3.5063    2.7919    2.1571 H   0  0  0  0  0  0  0  0  0  0  0  0
    2.6456    1.2454    2.0139 H   0  0  0  0  0  0  0  0  0  0  0  0
    3.5119    4.7969   -0.1693 N   0  0  0  0  0  0  0  0  0  0  0  0
    4.3057    5.8012   -0.8677 C   0  0  0  0  0  0  0  0  0  0  0  0
    2.8945    5.0924    0.5816 H   0  0  0  0  0  0  0  0  0  0  0  0
    5.3680    5.5354   -0.8442 H   0  0  0  0  0  0  0  0  0  0  0  0
    3.9866    5.8844   -1.9120 H   0  0  0  0  0  0  0  0  0  0  0  0
    4.1848    6.7784   -0.3904 H   0  0  0  0  0  0  0  0  0  0  0  0
  1  2  2  0  0  0  0
  1  3  1  0  0  0  0
  1  7  1  0  0  0  0
  3  4  1  0  0  0  0
  3  5  1  0  0  0  0
  3  6  1  0  0  0  0
  7  8  1  0  0  0  0
  7 13  1  0  0  0  0
  8  9  1  0  0  0  0
  8 11  1  0  0  0  0
  8 14  1  0  0  0  0
  9 10  2  0  0  0  0
  9 17  1  0  0  0  0
 11 12  1  0  0  0  0
 11 15  1  0  0  0  0
 11 16  1  0  0  0  0
 12 44  1  0  0  0  0
 17 18  1  0  0  0  0
 17 19  1  0  0  0  0
 18 20  1  0  0  0  0
 18 21  1  0  0  0  0
 18 22  1  0  0  0  0
 23 24  2  0  0  0  0
 23 25  1  0  0  0  0
 23 29  1  0  0  0  0
 25 26  1  0  0  0  0
 25 27  1  0  0  0  0
 25 28  1  0  0  0  0
 29 30  1  0  0  0  0
 29 34  1  0  0  0  0
 30 31  1  0  0  0  0
 30 33  1  0  0  0  0
 30 35  1  0  0  0  0
 31 32  2  0  0  0  0
 31 39  1  0  0  0  0
 33 36  1  0  0  0  0
 33 37  1  0  0  0  0
 33 38  1  0  0  0  0
 39 40  1  0  0  0  0
 39 45  1  0  0  0  0
 40 41  1  0  0  0  0
 40 43  1  0  0  0  0
 40 46  1  0  0  0  0
 41 42  2  0  0  0  0
 41 49  1  0  0  0  0
 43 44  1  0  0  0  0
 43 47  1  0  0  0  0
 43 48  1  0  0  0  0
 49 50  1  0  0  0  0
 49 54  1  0  0  0  0
 50 51  1  0  0  0  0
 50 53  1  0  0  0  0
 50 55  1  0  0  0  0
 51 52  2  0  0  0  0
 51 59  1  0  0  0  0
 53 56  1  0  0  0  0
 53 57  1  0  0  0  0
 53 58  1  0  0  0  0
 59 60  1  0  0  0  0
 59 61  1  0  0  0  0
 60 62  1  0  0  0  0
 60 63  1  0  0  0  0
 60 64  1  0  0  0  0
M  END
$$$$

  -OEChem-05262216053D

 64 63  0     1  0  0  0  0  0999 V2000
    2.1022    1.1859  -10.4294 C   0  0  0  0  0  0  0  0  0  0  0  0
    0.8937    1.2943  -10.5687 O   0  0  0  0  0  0  0  0  0  0  0  0
    2.9544    0.6404  -11.5600 C   0  0  0  0  0  0  0  0  0  0  0  0
    3.5186   -0.2304  -11.2167 H   0  0  0  0  0  0  0  0  0  0  0  0
    2.3198    0.3400  -12.3986 H   0  0  0  0  0  0  0  0  0  0  0  0
    3.6530    1.4075  -11.9031 H   0  0  0  0  0  0  0  0  0  0  0  0
    2.6909    1.5715   -9.2450 N   0  0  0  0  0  0  0  0  0  0  0  0
    1.9779    2.2031   -8.1253 C   0  0  2  0  0  0  0  0  0  0  0  0
    2.9254    3.0541   -7.2485 C   0  0  0  0  0  0  0  0  0  0  0  0
    4.1175    3.1281   -7.5293 O   0  0  0  0  0  0  0  0  0  0  0  0
    1.2829    1.1168   -7.2900 C   0  0  0  0  0  0  0  0  0  0  0  0
    2.5098    0.0391   -6.4404 S   0  0  0  0  0  0  0  0  0  0  0  0
    3.7088    1.5537   -9.1903 H   0  0  0  0  0  0  0  0  0  0  0  0
    1.2168    2.8821   -8.5242 H   0  0  0  0  0  0  0  0  0  0  0  0
    0.6358    1.5893   -6.5464 H   0  0  0  0  0  0  0  0  0  0  0  0
    0.6442    0.5019   -7.9325 H   0  0  0  0  0  0  0  0  0  0  0  0
    2.4469    3.7479   -6.1504 N   0  0  0  0  0  0  0  0  0  0  0  0
    3.3096    4.4818   -5.2308 C   0  0  0  0  0  0  0  0  0  0  0  0
    1.4627    3.6510   -5.9199 H   0  0  0  0  0  0  0  0  0  0  0  0
    3.9918    3.7969   -4.7166 H   0  0  0  0  0  0  0  0  0  0  0  0
    3.9018    5.2295   -5.7683 H   0  0  0  0  0  0  0  0  0  0  0  0
    2.7071    4.9991   -4.4781 H   0  0  0  0  0  0  0  0  0  0  0  0
   -5.0883    1.4612   -1.0728 C   0  0  0  0  0  0  0  0  0  0  0  0
   -5.4716    0.3028   -1.0274 O   0  0  0  0  0  0  0  0  0  0  0  0
   -5.6801    2.4933   -0.1326 C   0  0  0  0  0  0  0  0  0  0  0  0
   -6.1714    3.2813   -0.7078 H   0  0  0  0  0  0  0  0  0  0  0  0
   -6.4171    2.0244    0.5252 H   0  0  0  0  0  0  0  0  0  0  0  0
   -4.8905    2.9353    0.4801 H   0  0  0  0  0  0  0  0  0  0  0  0
   -4.1108    1.8333   -1.9716 N   0  0  0  0  0  0  0  0  0  0  0  0
   -3.3200    0.8824   -2.7623 C   0  0  2  0  0  0  0  0  0  0  0  0
   -1.8304    1.2772   -2.7824 C   0  0  0  0  0  0  0  0  0  0  0  0
   -1.5065    2.4601   -2.7353 O   0  0  0  0  0  0  0  0  0  0  0  0
   -3.8924    0.8443   -4.1813 C   0  0  0  0  0  0  0  0  0  0  0  0
   -3.7285    2.7733   -1.8758 H   0  0  0  0  0  0  0  0  0  0  0  0
   -3.3853   -0.1185   -2.3220 H   0  0  0  0  0  0  0  0  0  0  0  0
   -3.8281    1.8329   -4.6471 H   0  0  0  0  0  0  0  0  0  0  0  0
   -3.3399    0.1304   -4.7994 H   0  0  0  0  0  0  0  0  0  0  0  0
   -4.9429    0.5379   -4.1558 H   0  0  0  0  0  0  0  0  0  0  0  0
   -0.8608    0.3186   -3.0188 N   0  0  0  0  0  0  0  0  0  0  0  0
    0.5277    0.3684   -2.5071 C   0  0  2  0  0  0  0  0  0  0  0  0
    0.8143    1.3758   -1.3567 C   0  0  0  0  0  0  0  0  0  0  0  0
    0.0530    1.4159   -0.3963 O   0  0  0  0  0  0  0  0  0  0  0  0
    1.4047    0.6558   -3.7348 C   0  0  0  0  0  0  0  0  0  0  0  0
    1.3195   -0.7465   -4.9211 S   0  0  0  0  0  0  0  0  0  0  0  0
   -1.2347   -0.6155   -3.1586 H   0  0  0  0  0  0  0  0  0  0  0  0
    0.7930   -0.6153   -2.1075 H   0  0  0  0  0  0  0  0  0  0  0  0
    1.0746    1.5832   -4.2133 H   0  0  0  0  0  0  0  0  0  0  0  0
    2.4526    0.7795   -3.4465 H   0  0  0  0  0  0  0  0  0  0  0  0
    2.0548    1.9710   -1.2020 N   0  0  0  0  0  0  0  0  0  0  0  0
    2.3370    3.0134   -0.2064 C   0  0  2  0  0  0  0  0  0  0  0  0
    3.0804    4.2028   -0.8487 C   0  0  0  0  0  0  0  0  0  0  0  0
    3.5549    4.0929   -1.9750 O   0  0  0  0  0  0  0  0  0  0  0  0
    3.1707    2.3873    0.9126 C   0  0  0  0  0  0  0  0  0  0  0  0
    2.6451    1.9989   -2.0318 H   0  0  0  0  0  0  0  0  0  0  0  0
    1.4045    3.4038    0.2150 H   0  0  0  0  0  0  0  0  0  0  0  0
    4.1135    1.9973    0.5155 H   0  0  0  0  0  0  0  0  0  0  0  0
    3.3965    3.1288    1.6849 H   0  0  0  0  0  0  0  0  0  0  0  0
    2.6187    1.5629    1.3754 H   0  0  0  0  0  0  0  0  0  0  0  0
    3.2123    5.4008   -0.1715 N   0  0  0  0  0  0  0  0  0  0  0  0
    3.8968    6.5626   -0.7262 C   0  0  0  0  0  0  0  0  0  0  0  0
    2.7945    5.4699    0.7522 H   0  0  0  0  0  0  0  0  0  0  0  0
    4.9420    6.3217   -0.9481 H   0  0  0  0  0  0  0  0  0  0  0  0
    3.4073    6.8928   -1.6487 H   0  0  0  0  0  0  0  0  0  0  0  0
    3.8777    7.3899   -0.0100 H   0  0  0  0  0  0  0  0  0  0  0  0
  1  2  2  0  0  0  0
  1  3  1  0  0  0  0
  1  7  1  0  0  0  0
  3  4  1  0  0  0  0
  3  5  1  0  0  0  0
  3  6  1  0  0  0  0
  7  8  1  0  0  0  0
  7 13  1  0  0  0  0
  8  9  1  0  0  0  0
  8 11  1  0  0  0  0
  8 14  1  0  0  0  0
  9 10  2  0  0  0  0
  9 17  1  0  0  0  0
 11 12  1  0  0  0  0
 11 15  1  0  0  0  0
 11 16  1  0  0  0  0
 12 44  1  0  0  0  0
 17 18  1  0  0  0  0
 17 19  1  0  0  0  0
 18 20  1  0  0  0  0
 18 21  1  0  0  0  0
 18 22  1  0  0  0  0
 23 24  2  0  0  0  0
 23 25  1  0  0  0  0
 23 29  1  0  0  0  0
 25 26  1  0  0  0  0
 25 27  1  0  0  0  0
 25 28  1  0  0  0  0
 29 30  1  0  0  0  0
 29 34  1  0  0  0  0
 30 31  1  0  0  0  0
 30 33  1  0  0  0  0
 30 35  1  0  0  0  0
 31 32  2  0  0  0  0
 31 39  1  0  0  0  0
 33 36  1  0  0  0  0
 33 37  1  0  0  0  0
 33 38  1  0  0  0  0
 39 40  1  0  0  0  0
 39 45  1  0  0  0  0
 40 41  1  0  0  0  0
 40 43  1  0  0  0  0
 40 46  1  0  0  0  0
 41 42  2  0  0  0  0
 41 49  1  0  0  0  0
 43 44  1  0  0  0  0
 43 47  1  0  0  0  0
 43 48  1  0  0  0  0
 49 50  1  0  0  0  0
 49 54  1  0  0  0  0
 50 51  1  0  0  0  0
 50 53  1  0  0  0  0
 50 55  1  0  0  0  0
 51 52  2  0  0  0  0
 51 59  1  0  0  0  0
 53 56  1  0  0  0  0
 53 57  1  0  0  0  0
 53 58  1  0  0  0  0
 59 60  1  0  0  0  0
 59 61  1  0  0  0  0
 60 62  1  0  0  0  0
 60 63  1  0  0  0  0
 60 64  1  0  0  0  0
M  END
$$$$

  -OEChem-05262216053D

 64 63  0     1  0  0  0  0  0999 V2000
    2.0708    1.0516  -10.4159 C   0  0  0  0  0  0  0  0  0  0  0  0
    0.8616    1.1582  -10.5498 O   0  0  0  0  0  0  0  0  0  0  0  0
    2.9065    0.4075  -11.5056 C   0  0  0  0  0  0  0  0  0  0  0  0
    3.5046   -0.4053  -11.0862 H   0  0  0  0  0  0  0  0  0  0  0  0
    2.2584    0.0007  -12.2869 H   0  0  0  0  0  0  0  0  0  0  0  0
    3.5734    1.1496  -11.9511 H   0  0  0  0  0  0  0  0  0  0  0  0
    2.6770    1.5296   -9.2753 N   0  0  0  0  0  0  0  0  0  0  0  0
    1.9798    2.2338   -8.1898 C   0  0  2  0  0  0  0  0  0  0  0  0
    2.9441    3.1200   -7.3695 C   0  0  0  0  0  0  0  0  0  0  0  0
    4.1408    3.1361   -7.6395 O   0  0  0  0  0  0  0  0  0  0  0  0
    1.2795    1.2092   -7.2840 C   0  0  0  0  0  0  0  0  0  0  0  0
    2.4994    0.1265   -6.4317 S   0  0  0  0  0  0  0  0  0  0  0  0
    3.6950    1.5014   -9.2270 H   0  0  0  0  0  0  0  0  0  0  0  0
    1.2242    2.8979   -8.6225 H   0  0  0  0  0  0  0  0  0  0  0  0
    0.6761    1.7341   -6.5386 H   0  0  0  0  0  0  0  0  0  0  0  0
    0.5985    0.5903   -7.8772 H   0  0  0  0  0  0  0  0  0  0  0  0
    2.4746    3.9110   -6.3350 N   0  0  0  0  0  0  0  0  0  0  0  0
    3.3491    4.6881   -5.4633 C   0  0  0  0  0  0  0  0  0  0  0  0
    1.4852    3.8638   -6.1111 H   0  0  0  0  0  0  0  0  0  0  0  0
    3.9605    4.0233   -4.8439 H   0  0  0  0  0  0  0  0  0  0  0  0
    4.0131    5.3296   -6.0522 H   0  0  0  0  0  0  0  0  0  0  0  0
    2.7546    5.3272   -4.8033 H   0  0  0  0  0  0  0  0  0  0  0  0
   -5.1845    1.2882   -1.1311 C   0  0  0  0  0  0  0  0  0  0  0  0
   -5.5663    0.1361   -1.2644 O   0  0  0  0  0  0  0  0  0  0  0  0
   -5.8462    2.1927   -0.1084 C   0  0  0  0  0  0  0  0  0  0  0  0
   -6.3345    3.0303   -0.6117 H   0  0  0  0  0  0  0  0  0  0  0  0
   -6.5974    1.6349    0.4576 H   0  0  0  0  0  0  0  0  0  0  0  0
   -5.0988    2.5798    0.5882 H   0  0  0  0  0  0  0  0  0  0  0  0
   -4.1495    1.7676   -1.9067 N   0  0  0  0  0  0  0  0  0  0  0  0
   -3.3209    0.9288   -2.7817 C   0  0  2  0  0  0  0  0  0  0  0  0
   -1.8321    1.3130   -2.6813 C   0  0  0  0  0  0  0  0  0  0  0  0
   -1.5202    2.4846   -2.4963 O   0  0  0  0  0  0  0  0  0  0  0  0
   -3.8225    1.0908   -4.2187 C   0  0  0  0  0  0  0  0  0  0  0  0
   -3.7829    2.6903   -1.6763 H   0  0  0  0  0  0  0  0  0  0  0  0
   -3.4082   -0.1225   -2.4874 H   0  0  0  0  0  0  0  0  0  0  0  0
   -3.7417    2.1353   -4.5371 H   0  0  0  0  0  0  0  0  0  0  0  0
   -3.2345    0.4708   -4.9026 H   0  0  0  0  0  0  0  0  0  0  0  0
   -4.8712    0.7850   -4.2894 H   0  0  0  0  0  0  0  0  0  0  0  0
   -0.8537    0.3727   -2.9588 N   0  0  0  0  0  0  0  0  0  0  0  0
    0.5475    0.4151   -2.4828 C   0  0  2  0  0  0  0  0  0  0  0  0
    0.8462    1.3988   -1.3173 C   0  0  0  0  0  0  0  0  0  0  0  0
    0.2147    1.2832   -0.2727 O   0  0  0  0  0  0  0  0  0  0  0  0
    1.4052    0.7184   -3.7199 C   0  0  0  0  0  0  0  0  0  0  0  0
    1.2983   -0.6654   -4.9251 S   0  0  0  0  0  0  0  0  0  0  0  0
   -1.2135   -0.5516   -3.1806 H   0  0  0  0  0  0  0  0  0  0  0  0
    0.8215   -0.5743   -2.1035 H   0  0  0  0  0  0  0  0  0  0  0  0
    1.0721    1.6535   -4.1811 H   0  0  0  0  0  0  0  0  0  0  0  0
    2.4568    0.8325   -3.4391 H   0  0  0  0  0  0  0  0  0  0  0  0
    1.9490    2.2355   -1.3198 N   0  0  0  0  0  0  0  0  0  0  0  0
    2.1584    3.2997   -0.3304 C   0  0  2  0  0  0  0  0  0  0  0  0
    2.6316    4.6003   -1.0128 C   0  0  0  0  0  0  0  0  0  0  0  0
    3.0214    4.5766   -2.1767 O   0  0  0  0  0  0  0  0  0  0  0  0
    3.1879    2.8109    0.6910 C   0  0  0  0  0  0  0  0  0  0  0  0
    2.3861    2.3979   -2.2257 H   0  0  0  0  0  0  0  0  0  0  0  0
    1.2190    3.5276    0.1851 H   0  0  0  0  0  0  0  0  0  0  0  0
    4.1438    2.6010    0.2007 H   0  0  0  0  0  0  0  0  0  0  0  0
    3.3511    3.5670    1.4646 H   0  0  0  0  0  0  0  0  0  0  0  0
    2.8340    1.8943    1.1738 H   0  0  0  0  0  0  0  0  0  0  0  0
    2.6080    5.8027   -0.3303 N   0  0  0  0  0  0  0  0  0  0  0  0
    3.0063    7.0703   -0.9298 C   0  0  0  0  0  0  0  0  0  0  0  0
    2.2485    5.7986    0.6202 H   0  0  0  0  0  0  0  0  0  0  0  0
    4.0592    7.0384   -1.2290 H   0  0  0  0  0  0  0  0  0  0  0  0
    2.3942    7.2856   -1.8119 H   0  0  0  0  0  0  0  0  0  0  0  0
    2.8763    7.8860   -0.2124 H   0  0  0  0  0  0  0  0  0  0  0  0
  1  2  2  0  0  0  0
  1  3  1  0  0  0  0
  1  7  1  0  0  0  0
  3  4  1  0  0  0  0
  3  5  1  0  0  0  0
  3  6  1  0  0  0  0
  7  8  1  0  0  0  0
  7 13  1  0  0  0  0
  8  9  1  0  0  0  0
  8 11  1  0  0  0  0
  8 14  1  0  0  0  0
  9 10  2  0  0  0  0
  9 17  1  0  0  0  0
 11 12  1  0  0  0  0
 11 15  1  0  0  0  0
 11 16  1  0  0  0  0
 12 44  1  0  0  0  0
 17 18  1  0  0  0  0
 17 19  1  0  0  0  0
 18 20  1  0  0  0  0
 18 21  1  0  0  0  0
 18 22  1  0  0  0  0
 23 24  2  0  0  0  0
 23 25  1  0  0  0  0
 23 29  1  0  0  0  0
 25 26  1  0  0  0  0
 25 27  1  0  0  0  0
 25 28  1  0  0  0  0
 29 30  1  0  0  0  0
 29 34  1  0  0  0  0
 30 31  1  0  0  0  0
 30 33  1  0  0  0  0
 30 35  1  0  0  0  0
 31 32  2  0  0  0  0
 31 39  1  0  0  0  0
 33 36  1  0  0  0  0
 33 37  1  0  0  0  0
 33 38  1  0  0  0  0
 39 40  1  0  0  0  0
 39 45  1  0  0  0  0
 40 41  1  0  0  0  0
 40 43  1  0  0  0  0
 40 46  1  0  0  0  0
 41 42  2  0  0  0  0
 41 49  1  0  0  0  0
 43 44  1  0  0  0  0
 43 47  1  0  0  0  0
 43 48  1  0  0  0  0
 49 50  1  0  0  0  0
 49 54  1  0  0  0  0
 50 51  1  0  0  0  0
 50 53  1  0  0  0  0
 50 55  1  0  0  0  0
 51 52  2  0  0  0  0
 51 59  1  0  0  0  0
 53 56  1  0  0  0  0
 53 57  1  0  0  0  0
 53 58  1  0  0  0  0
 59 60  1  0  0  0  0
 59 61  1  0  0  0  0
 60 62  1  0  0  0  0
 60 63  1  0  0  0  0
 60 64  1  0  0  0  0
M  END
$$$$

  -OEChem-05262216053D

 64 63  0     1  0  0  0  0  0999 V2000
    2.0446    1.0803  -10.3806 C   0  0  0  0  0  0  0  0  0  0  0  0
    0.8382    1.2038  -10.5257 O   0  0  0  0  0  0  0  0  0  0  0  0
    2.8835    0.4281  -11.4628 C   0  0  0  0  0  0  0  0  0  0  0  0
    3.4658   -0.3943  -11.0401 H   0  0  0  0  0  0  0  0  0  0  0  0
    2.2391    0.0322  -12.2526 H   0  0  0  0  0  0  0  0  0  0  0  0
    3.5656    1.1631  -11.8966 H   0  0  0  0  0  0  0  0  0  0  0  0
    2.6456    1.5460   -9.2322 N   0  0  0  0  0  0  0  0  0  0  0  0
    1.9457    2.2515   -8.1501 C   0  0  2  0  0  0  0  0  0  0  0  0
    2.9017    3.1517   -7.3361 C   0  0  0  0  0  0  0  0  0  0  0  0
    4.1065    3.1361   -7.5672 O   0  0  0  0  0  0  0  0  0  0  0  0
    1.2526    1.2267   -7.2399 C   0  0  0  0  0  0  0  0  0  0  0  0
    2.4779    0.1329   -6.4093 S   0  0  0  0  0  0  0  0  0  0  0  0
    3.6616    1.4925   -9.1669 H   0  0  0  0  0  0  0  0  0  0  0  0
    1.1854    2.9076   -8.5865 H   0  0  0  0  0  0  0  0  0  0  0  0
    0.6614    1.7516   -6.4849 H   0  0  0  0  0  0  0  0  0  0  0  0
    0.5617    0.6149   -7.8290 H   0  0  0  0  0  0  0  0  0  0  0  0
    2.4094    4.0083   -6.3670 N   0  0  0  0  0  0  0  0  0  0  0  0
    3.2571    4.8641   -5.5444 C   0  0  0  0  0  0  0  0  0  0  0  0
    1.4115    3.9922   -6.1791 H   0  0  0  0  0  0  0  0  0  0  0  0
    3.8189    4.2656   -4.8200 H   0  0  0  0  0  0  0  0  0  0  0  0
    3.9658    5.4216   -6.1658 H   0  0  0  0  0  0  0  0  0  0  0  0
    2.6436    5.5861   -4.9971 H   0  0  0  0  0  0  0  0  0  0  0  0
   -5.2551    1.2490   -1.2057 C   0  0  0  0  0  0  0  0  0  0  0  0
   -5.6454    0.1080   -1.3959 O   0  0  0  0  0  0  0  0  0  0  0  0
   -5.9600    2.1339   -0.1951 C   0  0  0  0  0  0  0  0  0  0  0  0
   -6.4026    2.9960   -0.6996 H   0  0  0  0  0  0  0  0  0  0  0  0
   -6.7530    1.5733    0.3078 H   0  0  0  0  0  0  0  0  0  0  0  0
   -5.2475    2.4843    0.5557 H   0  0  0  0  0  0  0  0  0  0  0  0
   -4.1664    1.7313   -1.9017 N   0  0  0  0  0  0  0  0  0  0  0  0
   -3.3022    0.9049   -2.7545 C   0  0  2  0  0  0  0  0  0  0  0  0
   -1.8167    1.2819   -2.5885 C   0  0  0  0  0  0  0  0  0  0  0  0
   -1.5141    2.4400   -2.3215 O   0  0  0  0  0  0  0  0  0  0  0  0
   -3.7434    1.0901   -4.2084 C   0  0  0  0  0  0  0  0  0  0  0  0
   -3.8033    2.6433   -1.6277 H   0  0  0  0  0  0  0  0  0  0  0  0
   -3.4033   -0.1504   -2.4792 H   0  0  0  0  0  0  0  0  0  0  0  0
   -3.6425    2.1383   -4.5074 H   0  0  0  0  0  0  0  0  0  0  0  0
   -3.1317    0.4762   -4.8765 H   0  0  0  0  0  0  0  0  0  0  0  0
   -4.7902    0.7923   -4.3268 H   0  0  0  0  0  0  0  0  0  0  0  0
   -0.8332    0.3506   -2.8802 N   0  0  0  0  0  0  0  0  0  0  0  0
    0.5770    0.3949   -2.4340 C   0  0  2  0  0  0  0  0  0  0  0  0
    0.8950    1.3787   -1.2762 C   0  0  0  0  0  0  0  0  0  0  0  0
    0.4237    1.1556   -0.1671 O   0  0  0  0  0  0  0  0  0  0  0  0
    1.4154    0.7036   -3.6819 C   0  0  0  0  0  0  0  0  0  0  0  0
    1.2964   -0.6724   -4.8941 S   0  0  0  0  0  0  0  0  0  0  0  0
   -1.1817   -0.5629   -3.1583 H   0  0  0  0  0  0  0  0  0  0  0  0
    0.8603   -0.5943   -2.0609 H   0  0  0  0  0  0  0  0  0  0  0  0
    1.0743    1.6389   -4.1371 H   0  0  0  0  0  0  0  0  0  0  0  0
    2.4692    0.8219   -3.4093 H   0  0  0  0  0  0  0  0  0  0  0  0
    1.7974    2.4186   -1.4184 N   0  0  0  0  0  0  0  0  0  0  0  0
    1.9212    3.5173   -0.4542 C   0  0  2  0  0  0  0  0  0  0  0  0
    2.0894    4.8681   -1.1811 C   0  0  0  0  0  0  0  0  0  0  0  0
    2.3982    4.8922   -2.3692 O   0  0  0  0  0  0  0  0  0  0  0  0
    3.1231    3.2313    0.4484 C   0  0  0  0  0  0  0  0  0  0  0  0
    2.0568    2.6557   -2.3747 H   0  0  0  0  0  0  0  0  0  0  0  0
    1.0149    3.5859    0.1574 H   0  0  0  0  0  0  0  0  0  0  0  0
    4.0407    3.1690   -0.1455 H   0  0  0  0  0  0  0  0  0  0  0  0
    3.2421    4.0237    1.1933 H   0  0  0  0  0  0  0  0  0  0  0  0
    2.9821    2.2814    0.9740 H   0  0  0  0  0  0  0  0  0  0  0  0
    1.8897    6.0595   -0.5084 N   0  0  0  0  0  0  0  0  0  0  0  0
    1.9971    7.3662   -1.1458 C   0  0  0  0  0  0  0  0  0  0  0  0
    1.5942    6.0078    0.4624 H   0  0  0  0  0  0  0  0  0  0  0  0
    3.0125    7.5270   -1.5226 H   0  0  0  0  0  0  0  0  0  0  0  0
    1.2941    7.4439   -1.9818 H   0  0  0  0  0  0  0  0  0  0  0  0
    1.7668    8.1578   -0.4266 H   0  0  0  0  0  0  0  0  0  0  0  0
  1  2  2  0  0  0  0
  1  3  1  0  0  0  0
  1  7  1  0  0  0  0
  3  4  1  0  0  0  0
  3  5  1  0  0  0  0
  3  6  1  0  0  0  0
  7  8  1  0  0  0  0
  7 13  1  0  0  0  0
  8  9  1  0  0  0  0
  8 11  1  0  0  0  0
  8 14  1  0  0  0  0
  9 10  2  0  0  0  0
  9 17  1  0  0  0  0
 11 12  1  0  0  0  0
 11 15  1  0  0  0  0
 11 16  1  0  0  0  0
 12 44  1  0  0  0  0
 17 18  1  0  0  0  0
 17 19  1  0  0  0  0
 18 20  1  0  0  0  0
 18 21  1  0  0  0  0
 18 22  1  0  0  0  0
 23 24  2  0  0  0  0
 23 25  1  0  0  0  0
 23 29  1  0  0  0  0
 25 26  1  0  0  0  0
 25 27  1  0  0  0  0
 25 28  1  0  0  0  0
 29 30  1  0  0  0  0
 29 34  1  0  0  0  0
 30 31  1  0  0  0  0
 30 33  1  0  0  0  0
 30 35  1  0  0  0  0
 31 32  2  0  0  0  0
 31 39  1  0  0  0  0
 33 36  1  0  0  0  0
 33 37  1  0  0  0  0
 33 38  1  0  0  0  0
 39 40  1  0  0  0  0
 39 45  1  0  0  0  0
 40 41  1  0  0  0  0
 40 43  1  0  0  0  0
 40 46  1  0  0  0  0
 41 42  2  0  0  0  0
 41 49  1  0  0  0  0
 43 44  1  0  0  0  0
 43 47  1  0  0  0  0
 43 48  1  0  0  0  0
 49 50  1  0  0  0  0
 49 54  1  0  0  0  0
 50 51  1  0  0  0  0
 50 53  1  0  0  0  0
 50 55  1  0  0  0  0
 51 52  2  0  0  0  0
 51 59  1  0  0  0  0
 53 56  1  0  0  0  0
 53 57  1  0  0  0  0
 53 58  1  0  0  0  0
 59 60  1  0  0  0  0
 59 61  1  0  0  0  0
 60 62  1  0  0  0  0
 60 63  1  0  0  0  0
 60 64  1  0  0  0  0
M  END
$$$$

  -OEChem-05262216053D

 64 63  0     1  0  0  0  0  0999 V2000
    1.9790    1.1338  -10.3337 C   0  0  0  0  0  0  0  0  0  0  0  0
    0.7682    1.2190  -10.4696 O   0  0  0  0  0  0  0  0  0  0  0  0
    2.8305    0.5084  -11.4220 C   0  0  0  0  0  0  0  0  0  0  0  0
    3.3950   -0.3344  -11.0157 H   0  0  0  0  0  0  0  0  0  0  0  0
    2.1961    0.1473  -12.2362 H   0  0  0  0  0  0  0  0  0  0  0  0
    3.5291    1.2487  -11.8193 H   0  0  0  0  0  0  0  0  0  0  0  0
    2.5730    1.6141   -9.1876 N   0  0  0  0  0  0  0  0  0  0  0  0
    1.8592    2.2869   -8.0937 C   0  0  2  0  0  0  0  0  0  0  0  0
    2.7950    3.2044   -7.2753 C   0  0  0  0  0  0  0  0  0  0  0  0
    4.0001    3.2156   -7.5053 O   0  0  0  0  0  0  0  0  0  0  0  0
    1.2003    1.2312   -7.1926 C   0  0  0  0  0  0  0  0  0  0  0  0
    2.4615    0.1588   -6.3877 S   0  0  0  0  0  0  0  0  0  0  0  0
    3.5905    1.5902   -9.1292 H   0  0  0  0  0  0  0  0  0  0  0  0
    1.0784    2.9263   -8.5184 H   0  0  0  0  0  0  0  0  0  0  0  0
    0.6002    1.7290   -6.4262 H   0  0  0  0  0  0  0  0  0  0  0  0
    0.5223    0.6083   -7.7852 H   0  0  0  0  0  0  0  0  0  0  0  0
    2.2843    4.0451   -6.3018 N   0  0  0  0  0  0  0  0  0  0  0  0
    3.1105    4.9192   -5.4765 C   0  0  0  0  0  0  0  0  0  0  0  0
    1.2847    4.0183   -6.1238 H   0  0  0  0  0  0  0  0  0  0  0  0
    3.6441    4.3376   -4.7177 H   0  0  0  0  0  0  0  0  0  0  0  0
    3.8427    5.4575   -6.0878 H   0  0  0  0  0  0  0  0  0  0  0  0
    2.4836    5.6597   -4.9707 H   0  0  0  0  0  0  0  0  0  0  0  0
   -5.2997    1.2433   -1.2991 C   0  0  0  0  0  0  0  0  0  0  0  0
   -5.6912    0.1022   -1.4852 O   0  0  0  0  0  0  0  0  0  0  0  0
   -6.0507    2.1591   -0.3512 C   0  0  0  0  0  0  0  0  0  0  0  0
   -6.4332    3.0262   -0.8947 H   0  0  0  0  0  0  0  0  0  0  0  0
   -6.8924    1.6262    0.1003 H   0  0  0  0  0  0  0  0  0  0  0  0
   -5.3835    2.5003    0.4440 H   0  0  0  0  0  0  0  0  0  0  0  0
   -4.1670    1.6978   -1.9411 N   0  0  0  0  0  0  0  0  0  0  0  0
   -3.2652    0.8446   -2.7258 C   0  0  2  0  0  0  0  0  0  0  0  0
   -1.7874    1.2337   -2.5153 C   0  0  0  0  0  0  0  0  0  0  0  0
   -1.5059    2.3808   -2.1872 O   0  0  0  0  0  0  0  0  0  0  0  0
   -3.6508    0.9700   -4.2022 C   0  0  0  0  0  0  0  0  0  0  0  0
   -3.8135    2.6155   -1.6733 H   0  0  0  0  0  0  0  0  0  0  0  0
   -3.3741   -0.1995   -2.4126 H   0  0  0  0  0  0  0  0  0  0  0  0
   -3.5397    2.0051   -4.5409 H   0  0  0  0  0  0  0  0  0  0  0  0
   -3.0153    0.3304   -4.8220 H   0  0  0  0  0  0  0  0  0  0  0  0
   -4.6922    0.6656   -4.3473 H   0  0  0  0  0  0  0  0  0  0  0  0
   -0.7892    0.3181   -2.8081 N   0  0  0  0  0  0  0  0  0  0  0  0
    0.6286    0.3801   -2.3887 C   0  0  2  0  0  0  0  0  0  0  0  0
    0.9682    1.3747   -1.2487 C   0  0  0  0  0  0  0  0  0  0  0  0
    0.6974    1.0689   -0.0939 O   0  0  0  0  0  0  0  0  0  0  0  0
    1.4431    0.6963   -3.6494 C   0  0  0  0  0  0  0  0  0  0  0  0
    1.3230   -0.6810   -4.8586 S   0  0  0  0  0  0  0  0  0  0  0  0
   -1.1207   -0.5899   -3.1233 H   0  0  0  0  0  0  0  0  0  0  0  0
    0.9291   -0.6054   -2.0181 H   0  0  0  0  0  0  0  0  0  0  0  0
    1.0807    1.6237   -4.1036 H   0  0  0  0  0  0  0  0  0  0  0  0
    2.4979    0.8357   -3.3897 H   0  0  0  0  0  0  0  0  0  0  0  0
    1.6107    2.5746   -1.4981 N   0  0  0  0  0  0  0  0  0  0  0  0
    1.6496    3.6835   -0.5404 C   0  0  2  0  0  0  0  0  0  0  0  0
    1.4932    5.0332   -1.2722 C   0  0  0  0  0  0  0  0  0  0  0  0
    1.6723    5.1010   -2.4855 O   0  0  0  0  0  0  0  0  0  0  0  0
    2.9755    3.6249    0.2230 C   0  0  0  0  0  0  0  0  0  0  0  0
    1.6458    2.8574   -2.4764 H   0  0  0  0  0  0  0  0  0  0  0  0
    0.8182    3.5961    0.1672 H   0  0  0  0  0  0  0  0  0  0  0  0
    3.8203    3.7129   -0.4679 H   0  0  0  0  0  0  0  0  0  0  0  0
    3.0356    4.4378    0.9530 H   0  0  0  0  0  0  0  0  0  0  0  0
    3.0607    2.6738    0.7584 H   0  0  0  0  0  0  0  0  0  0  0  0
    1.1516    6.1768   -0.5743 N   0  0  0  0  0  0  0  0  0  0  0  0
    0.9581    7.4742   -1.2106 C   0  0  0  0  0  0  0  0  0  0  0  0
    0.9645    6.0824    0.4199 H   0  0  0  0  0  0  0  0  0  0  0  0
    1.8752    7.7928   -1.7173 H   0  0  0  0  0  0  0  0  0  0  0  0
    0.1482    7.4233   -1.9460 H   0  0  0  0  0  0  0  0  0  0  0  0
    0.6983    8.2290   -0.4620 H   0  0  0  0  0  0  0  0  0  0  0  0
  1  2  2  0  0  0  0
  1  3  1  0  0  0  0
  1  7  1  0  0  0  0
  3  4  1  0  0  0  0
  3  5  1  0  0  0  0
  3  6  1  0  0  0  0
  7  8  1  0  0  0  0
  7 13  1  0  0  0  0
  8  9  1  0  0  0  0
  8 11  1  0  0  0  0
  8 14  1  0  0  0  0
  9 10  2  0  0  0  0
  9 17  1  0  0  0  0
 11 12  1  0  0  0  0
 11 15  1  0  0  0  0
 11 16  1  0  0  0  0
 12 44  1  0  0  0  0
 17 18  1  0  0  0  0
 17 19  1  0  0  0  0
 18 20  1  0  0  0  0
 18 21  1  0  0  0  0
 18 22  1  0  0  0  0
 23 24  2  0  0  0  0
 23 25  1  0  0  0  0
 23 29  1  0  0  0  0
 25 26  1  0  0  0  0
 25 27  1  0  0  0  0
 25 28  1  0  0  0  0
 29 30  1  0  0  0  0
 29 34  1  0  0  0  0
 30 31  1  0  0  0  0
 30 33  1  0  0  0  0
 30 35  1  0  0  0  0
 31 32  2  0  0  0  0
 31 39  1  0  0  0  0
 33 36  1  0  0  0  0
 33 37  1  0  0  0  0
 33 38  1  0  0  0  0
 39 40  1  0  0  0  0
 39 45  1  0  0  0  0
 40 41  1  0  0  0  0
 40 43  1  0  0  0  0
 40 46  1  0  0  0  0
 41 42  2  0  0  0  0
 41 49  1  0  0  0  0
 43 44  1  0  0  0  0
 43 47  1  0  0  0  0
 43 48  1  0  0  0  0
 49 50  1  0  0  0  0
 49 54  1  0  0  0  0
 50 51  1  0  0  0  0
 50 53  1  0  0  0  0
 50 55  1  0  0  0  0
 51 52  2  0  0  0  0
 51 59  1  0  0  0  0
 53 56  1  0  0  0  0
 53 57  1  0  0  0  0
 53 58  1  0  0  0  0
 59 60  1  0  0  0  0
 59 61  1  0  0  0  0
 60 62  1  0  0  0  0
 60 63  1  0  0  0  0
 60 64  1  0  0  0  0
M  END
$$$$

  -OEChem-05262216053D

 64 63  0     1  0  0  0  0  0999 V2000
    1.9197    1.1831  -10.2747 C   0  0  0  0  0  0  0  0  0  0  0  0
    0.7090    1.2224  -10.4304 O   0  0  0  0  0  0  0  0  0  0  0  0
    2.8148    0.6378  -11.3710 C   0  0  0  0  0  0  0  0  0  0  0  0
    3.2958   -0.2840  -11.0345 H   0  0  0  0  0  0  0  0  0  0  0  0
    2.2241    0.4230  -12.2661 H   0  0  0  0  0  0  0  0  0  0  0  0
    3.5847    1.3707  -11.6248 H   0  0  0  0  0  0  0  0  0  0  0  0
    2.4705    1.6429   -9.0992 N   0  0  0  0  0  0  0  0  0  0  0  0
    1.7043    2.2493   -8.0020 C   0  0  2  0  0  0  0  0  0  0  0  0
    2.5666    3.2117   -7.1550 C   0  0  0  0  0  0  0  0  0  0  0  0
    3.7781    3.2733   -7.3369 O   0  0  0  0  0  0  0  0  0  0  0  0
    1.1077    1.1362   -7.1282 C   0  0  0  0  0  0  0  0  0  0  0  0
    2.4277    0.1261   -6.3355 S   0  0  0  0  0  0  0  0  0  0  0  0
    3.4867    1.6537   -9.0172 H   0  0  0  0  0  0  0  0  0  0  0  0
    0.8871    2.8439   -8.4235 H   0  0  0  0  0  0  0  0  0  0  0  0
    0.4737    1.5820   -6.3572 H   0  0  0  0  0  0  0  0  0  0  0  0
    0.4730    0.4854   -7.7388 H   0  0  0  0  0  0  0  0  0  0  0  0
    1.9832    4.0357   -6.2079 N   0  0  0  0  0  0  0  0  0  0  0  0
    2.7364    4.9615   -5.3683 C   0  0  0  0  0  0  0  0  0  0  0  0
    0.9755    3.9894   -6.0903 H   0  0  0  0  0  0  0  0  0  0  0  0
    3.2626    4.4172   -4.5773 H   0  0  0  0  0  0  0  0  0  0  0  0
    3.4694    5.5178   -5.9625 H   0  0  0  0  0  0  0  0  0  0  0  0
    2.0594    5.6847   -4.9029 H   0  0  0  0  0  0  0  0  0  0  0  0
   -5.3910    1.1817   -1.5067 C   0  0  0  0  0  0  0  0  0  0  0  0
   -5.7708    0.0397   -1.7104 O   0  0  0  0  0  0  0  0  0  0  0  0
   -6.2316    2.1265   -0.6690 C   0  0  0  0  0  0  0  0  0  0  0  0
   -6.5519    2.9766   -1.2758 H   0  0  0  0  0  0  0  0  0  0  0  0
   -7.1177    1.6084   -0.2920 H   0  0  0  0  0  0  0  0  0  0  0  0
   -5.6494    2.4916    0.1806 H   0  0  0  0  0  0  0  0  0  0  0  0
   -4.1925    1.6132   -2.0345 N   0  0  0  0  0  0  0  0  0  0  0  0
   -3.2295    0.7428   -2.7220 C   0  0  2  0  0  0  0  0  0  0  0  0
   -1.7741    1.1653   -2.4315 C   0  0  0  0  0  0  0  0  0  0  0  0
   -1.5443    2.3031   -2.0410 O   0  0  0  0  0  0  0  0  0  0  0  0
   -3.5183    0.7986   -4.2252 C   0  0  0  0  0  0  0  0  0  0  0  0
   -3.8554    2.5306   -1.7445 H   0  0  0  0  0  0  0  0  0  0  0  0
   -3.3450   -0.2888   -2.3717 H   0  0  0  0  0  0  0  0  0  0  0  0
   -3.4086    1.8216   -4.5986 H   0  0  0  0  0  0  0  0  0  0  0  0
   -2.8294    0.1505   -4.7753 H   0  0  0  0  0  0  0  0  0  0  0  0
   -4.5406    0.4625   -4.4258 H   0  0  0  0  0  0  0  0  0  0  0  0
   -0.7404    0.2806   -2.6929 N   0  0  0  0  0  0  0  0  0  0  0  0
    0.6828    0.3969   -2.3028 C   0  0  2  0  0  0  0  0  0  0  0  0
    1.0416    1.4396   -1.2141 C   0  0  0  0  0  0  0  0  0  0  0  0
    1.0635    1.0937   -0.0396 O   0  0  0  0  0  0  0  0  0  0  0  0
    1.4652    0.6967   -3.5873 C   0  0  0  0  0  0  0  0  0  0  0  0
    1.3667   -0.7189   -4.7539 S   0  0  0  0  0  0  0  0  0  0  0  0
   -1.0294   -0.6226   -3.0601 H   0  0  0  0  0  0  0  0  0  0  0  0
    1.0152   -0.5682   -1.9062 H   0  0  0  0  0  0  0  0  0  0  0  0
    1.0679    1.5977   -4.0644 H   0  0  0  0  0  0  0  0  0  0  0  0
    2.5187    0.8798   -3.3489 H   0  0  0  0  0  0  0  0  0  0  0  0
    1.3705    2.7417   -1.5471 N   0  0  0  0  0  0  0  0  0  0  0  0
    1.4334    3.8371   -0.5757 C   0  0  2  0  0  0  0  0  0  0  0  0
    0.9948    5.1660   -1.2263 C   0  0  0  0  0  0  0  0  0  0  0  0
    0.9921    5.2865   -2.4488 O   0  0  0  0  0  0  0  0  0  0  0  0
    2.8642    3.9415   -0.0390 C   0  0  0  0  0  0  0  0  0  0  0  0
    1.1153    3.0241   -2.4928 H   0  0  0  0  0  0  0  0  0  0  0  0
    0.7465    3.6345    0.2534 H   0  0  0  0  0  0  0  0  0  0  0  0
    3.5654    4.1448   -0.8549 H   0  0  0  0  0  0  0  0  0  0  0  0
    2.9401    4.7483    0.6962 H   0  0  0  0  0  0  0  0  0  0  0  0
    3.1572    3.0048    0.4462 H   0  0  0  0  0  0  0  0  0  0  0  0
    0.6001    6.2318   -0.4392 N   0  0  0  0  0  0  0  0  0  0  0  0
    0.1120    7.4920   -0.9850 C   0  0  0  0  0  0  0  0  0  0  0  0
    0.5624    6.0830    0.5651 H   0  0  0  0  0  0  0  0  0  0  0  0
    0.8646    7.9448   -1.6393 H   0  0  0  0  0  0  0  0  0  0  0  0
   -0.8049    7.3299   -1.5613 H   0  0  0  0  0  0  0  0  0  0  0  0
   -0.1078    8.1938   -0.1750 H   0  0  0  0  0  0  0  0  0  0  0  0
  1  2  2  0  0  0  0
  1  3  1  0  0  0  0
  1  7  1  0  0  0  0
  3  4  1  0  0  0  0
  3  5  1  0  0  0  0
  3  6  1  0  0  0  0
  7  8  1  0  0  0  0
  7 13  1  0  0  0  0
  8  9  1  0  0  0  0
  8 11  1  0  0  0  0
  8 14  1  0  0  0  0
  9 10  2  0  0  0  0
  9 17  1  0  0  0  0
 11 12  1  0  0  0  0
 11 15  1  0  0  0  0
 11 16  1  0  0  0  0
 12 44  1  0  0  0  0
 17 18  1  0  0  0  0
 17 19  1  0  0  0  0
 18 20  1  0  0  0  0
 18 21  1  0  0  0  0
 18 22  1  0  0  0  0
 23 24  2  0  0  0  0
 23 25  1  0  0  0  0
 23 29  1  0  0  0  0
 25 26  1  0  0  0  0
 25 27  1  0  0  0  0
 25 28  1  0  0  0  0
 29 30  1  0  0  0  0
 29 34  1  0  0  0  0
 30 31  1  0  0  0  0
 30 33  1  0  0  0  0
 30 35  1  0  0  0  0
 31 32  2  0  0  0  0
 31 39  1  0  0  0  0
 33 36  1  0  0  0  0
 33 37  1  0  0  0  0
 33 38  1  0  0  0  0
 39 40  1  0  0  0  0
 39 45  1  0  0  0  0
 40 41  1  0  0  0  0
 40 43  1  0  0  0  0
 40 46  1  0  0  0  0
 41 42  2  0  0  0  0
 41 49  1  0  0  0  0
 43 44  1  0  0  0  0
 43 47  1  0  0  0  0
 43 48  1  0  0  0  0
 49 50  1  0  0  0  0
 49 54  1  0  0  0  0
 50 51  1  0  0  0  0
 50 53  1  0  0  0  0
 50 55  1  0  0  0  0
 51 52  2  0  0  0  0
 51 59  1  0  0  0  0
 53 56  1  0  0  0  0
 53 57  1  0  0  0  0
 53 58  1  0  0  0  0
 59 60  1  0  0  0  0
 59 61  1  0  0  0  0
 60 62  1  0  0  0  0
 60 63  1  0  0  0  0
 60 64  1  0  0  0  0
M  END
$$$$

  -OEChem-05262216053D

 64 63  0     1  0  0  0  0  0999 V2000
    1.9231    1.2605  -10.1079 C   0  0  0  0  0  0  0  0  0  0  0  0
    0.7319    1.1147  -10.3351 O   0  0  0  0  0  0  0  0  0  0  0  0
    2.9541    0.8911  -11.1568 C   0  0  0  0  0  0  0  0  0  0  0  0
    3.6462    0.1485  -10.7526 H   0  0  0  0  0  0  0  0  0  0  0  0
    2.4608    0.4707  -12.0376 H   0  0  0  0  0  0  0  0  0  0  0  0
    3.5163    1.7790  -11.4562 H   0  0  0  0  0  0  0  0  0  0  0  0
    2.3285    1.7609   -8.8905 N   0  0  0  0  0  0  0  0  0  0  0  0
    1.4196    2.1522   -7.8053 C   0  0  2  0  0  0  0  0  0  0  0  0
    2.0709    3.1683   -6.8418 C   0  0  0  0  0  0  0  0  0  0  0  0
    3.2731    3.4011   -6.9134 O   0  0  0  0  0  0  0  0  0  0  0  0
    0.9717    0.8964   -7.0433 C   0  0  0  0  0  0  0  0  0  0  0  0
    2.4035    0.0406   -6.2637 S   0  0  0  0  0  0  0  0  0  0  0  0
    3.3257    1.9076   -8.7370 H   0  0  0  0  0  0  0  0  0  0  0  0
    0.5384    2.6386   -8.2360 H   0  0  0  0  0  0  0  0  0  0  0  0
    0.2482    1.1777   -6.2734 H   0  0  0  0  0  0  0  0  0  0  0  0
    0.4696    0.2055   -7.7280 H   0  0  0  0  0  0  0  0  0  0  0  0
    1.3032    3.8391   -5.9052 N   0  0  0  0  0  0  0  0  0  0  0  0
    1.8428    4.8129   -4.9615 C   0  0  0  0  0  0  0  0  0  0  0  0
    0.3050    3.6519   -5.8855 H   0  0  0  0  0  0  0  0  0  0  0  0
    2.2542    4.3060   -4.0827 H   0  0  0  0  0  0  0  0  0  0  0  0
    2.6334    5.4148   -5.4224 H   0  0  0  0  0  0  0  0  0  0  0  0
    1.0521    5.4950   -4.6352 H   0  0  0  0  0  0  0  0  0  0  0  0
   -5.4879    1.1261   -1.9386 C   0  0  0  0  0  0  0  0  0  0  0  0
   -5.8403   -0.0326   -2.0897 O   0  0  0  0  0  0  0  0  0  0  0  0
   -6.4165    2.1249   -1.2744 C   0  0  0  0  0  0  0  0  0  0  0  0
   -6.6613    2.9293   -1.9722 H   0  0  0  0  0  0  0  0  0  0  0  0
   -7.3422    1.6308   -0.9664 H   0  0  0  0  0  0  0  0  0  0  0  0
   -5.9354    2.5518   -0.3912 H   0  0  0  0  0  0  0  0  0  0  0  0
   -4.2357    1.5228   -2.3580 N   0  0  0  0  0  0  0  0  0  0  0  0
   -3.2018    0.6062   -2.8569 C   0  0  2  0  0  0  0  0  0  0  0  0
   -1.7846    1.0861   -2.4792 C   0  0  0  0  0  0  0  0  0  0  0  0
   -1.6174    2.2428   -2.1196 O   0  0  0  0  0  0  0  0  0  0  0  0
   -3.3455    0.4984   -4.3783 C   0  0  0  0  0  0  0  0  0  0  0  0
   -3.9342    2.4650   -2.1106 H   0  0  0  0  0  0  0  0  0  0  0  0
   -3.3399   -0.3849   -2.4107 H   0  0  0  0  0  0  0  0  0  0  0  0
   -3.1954    1.4762   -4.8471 H   0  0  0  0  0  0  0  0  0  0  0  0
   -2.6108   -0.2018   -4.7876 H   0  0  0  0  0  0  0  0  0  0  0  0
   -4.3458    0.1373   -4.6383 H   0  0  0  0  0  0  0  0  0  0  0  0
   -0.7042    0.2372   -2.6471 N   0  0  0  0  0  0  0  0  0  0  0  0
    0.7040    0.4250   -2.2281 C   0  0  2  0  0  0  0  0  0  0  0  0
    1.0443    1.5337   -1.1996 C   0  0  0  0  0  0  0  0  0  0  0  0
    1.4472    1.2059   -0.0911 O   0  0  0  0  0  0  0  0  0  0  0  0
    1.5043    0.6846   -3.5082 C   0  0  0  0  0  0  0  0  0  0  0  0
    1.4786   -0.7972   -4.5951 S   0  0  0  0  0  0  0  0  0  0  0  0
   -0.9365   -0.6832   -3.0130 H   0  0  0  0  0  0  0  0  0  0  0  0
    1.0532   -0.5106   -1.7788 H   0  0  0  0  0  0  0  0  0  0  0  0
    1.0904    1.5471   -4.0388 H   0  0  0  0  0  0  0  0  0  0  0  0
    2.5453    0.9164   -3.2573 H   0  0  0  0  0  0  0  0  0  0  0  0
    1.0627    2.8711   -1.5522 N   0  0  0  0  0  0  0  0  0  0  0  0
    1.3350    3.9595   -0.6068 C   0  0  2  0  0  0  0  0  0  0  0  0
    0.5871    5.2501   -1.0015 C   0  0  0  0  0  0  0  0  0  0  0  0
    0.1741    5.4055   -2.1460 O   0  0  0  0  0  0  0  0  0  0  0  0
    2.8457    4.2079   -0.5757 C   0  0  0  0  0  0  0  0  0  0  0  0
    0.4305    3.1096   -2.3196 H   0  0  0  0  0  0  0  0  0  0  0  0
    0.9913    3.6748    0.3934 H   0  0  0  0  0  0  0  0  0  0  0  0
    3.2061    4.4894   -1.5703 H   0  0  0  0  0  0  0  0  0  0  0  0
    3.0891    5.0122    0.1248 H   0  0  0  0  0  0  0  0  0  0  0  0
    3.3724    3.3029   -0.2572 H   0  0  0  0  0  0  0  0  0  0  0  0
    0.3989    6.2591   -0.0747 N   0  0  0  0  0  0  0  0  0  0  0  0
   -0.2902    7.5070   -0.3782 C   0  0  0  0  0  0  0  0  0  0  0  0
    0.7414    6.1021    0.8687 H   0  0  0  0  0  0  0  0  0  0  0  0
    0.2450    8.0613   -1.1565 H   0  0  0  0  0  0  0  0  0  0  0  0
   -1.3095    7.3064   -0.7247 H   0  0  0  0  0  0  0  0  0  0  0  0
   -0.3469    8.1346    0.5164 H   0  0  0  0  0  0  0  0  0  0  0  0
  1  2  2  0  0  0  0
  1  3  1  0  0  0  0
  1  7  1  0  0  0  0
  3  4  1  0  0  0  0
  3  5  1  0  0  0  0
  3  6  1  0  0  0  0
  7  8  1  0  0  0  0
  7 13  1  0  0  0  0
  8  9  1  0  0  0  0
  8 11  1  0  0  0  0
  8 14  1  0  0  0  0
  9 10  2  0  0  0  0
  9 17  1  0  0  0  0
 11 12  1  0  0  0  0
 11 15  1  0  0  0  0
 11 16  1  0  0  0  0
 12 44  1  0  0  0  0
 17 18  1  0  0  0  0
 17 19  1  0  0  0  0
 18 20  1  0  0  0  0
 18 21  1  0  0  0  0
 18 22  1  0  0  0  0
 23 24  2  0  0  0  0
 23 25  1  0  0  0  0
 23 29  1  0  0  0  0
 25 26  1  0  0  0  0
 25 27  1  0  0  0  0
 25 28  1  0  0  0  0
 29 30  1  0  0  0  0
 29 34  1  0  0  0  0
 30 31  1  0  0  0  0
 30 33  1  0  0  0  0
 30 35  1  0  0  0  0
 31 32  2  0  0  0  0
 31 39  1  0  0  0  0
 33 36  1  0  0  0  0
 33 37  1  0  0  0  0
 33 38  1  0  0  0  0
 39 40  1  0  0  0  0
 39 45  1  0  0  0  0
 40 41  1  0  0  0  0
 40 43  1  0  0  0  0
 40 46  1  0  0  0  0
 41 42  2  0  0  0  0
 41 49  1  0  0  0  0
 43 44  1  0  0  0  0
 43 47  1  0  0  0  0
 43 48  1  0  0  0  0
 49 50  1  0  0  0  0
 49 54  1  0  0  0  0
 50 51  1  0  0  0  0
 50 53  1  0  0  0  0
 50 55  1  0  0  0  0
 51 52  2  0  0  0  0
 51 59  1  0  0  0  0
 53 56  1  0  0  0  0
 53 57  1  0  0  0  0
 53 58  1  0  0  0  0
 59 60  1  0  0  0  0
 59 61  1  0  0  0  0
 60 62  1  0  0  0  0
 60 63  1  0  0  0  0
 60 64  1  0  0  0  0
M  END
$$$$

  -OEChem-05262216053D

 64 63  0     1  0  0  0  0  0999 V2000
    1.8647    0.7635  -10.1720 C   0  0  0  0  0  0  0  0  0  0  0  0
    0.6498    0.8533  -10.2614 O   0  0  0  0  0  0  0  0  0  0  0  0
    2.6444   -0.0753  -11.1667 C   0  0  0  0  0  0  0  0  0  0  0  0
    3.2152   -0.8440  -10.6403 H   0  0  0  0  0  0  0  0  0  0  0  0
    1.9600   -0.5626  -11.8666 H   0  0  0  0  0  0  0  0  0  0  0  0
    3.3333    0.5582  -11.7304 H   0  0  0  0  0  0  0  0  0  0  0  0
    2.5249    1.4311   -9.1639 N   0  0  0  0  0  0  0  0  0  0  0  0
    1.8738    2.2998   -8.1733 C   0  0  2  0  0  0  0  0  0  0  0  0
    2.8592    3.3141   -7.5523 C   0  0  0  0  0  0  0  0  0  0  0  0
    4.0456    3.2926   -7.8627 O   0  0  0  0  0  0  0  0  0  0  0  0
    1.2256    1.4313   -7.0842 C   0  0  0  0  0  0  0  0  0  0  0  0
    2.4889    0.4803   -6.1443 S   0  0  0  0  0  0  0  0  0  0  0  0
    3.5433    1.3869   -9.1451 H   0  0  0  0  0  0  0  0  0  0  0  0
    1.0927    2.8822   -8.6729 H   0  0  0  0  0  0  0  0  0  0  0  0
    0.6621    2.0655   -6.3950 H   0  0  0  0  0  0  0  0  0  0  0  0
    0.5169    0.7339   -7.5422 H   0  0  0  0  0  0  0  0  0  0  0  0
    2.4134    4.2783   -6.6649 N   0  0  0  0  0  0  0  0  0  0  0  0
    3.2954    5.2547   -6.0376 C   0  0  0  0  0  0  0  0  0  0  0  0
    1.4252    4.2900   -6.4306 H   0  0  0  0  0  0  0  0  0  0  0  0
    4.0904    4.7490   -5.4798 H   0  0  0  0  0  0  0  0  0  0  0  0
    3.7519    5.9008   -6.7946 H   0  0  0  0  0  0  0  0  0  0  0  0
    2.7317    5.8830   -5.3413 H   0  0  0  0  0  0  0  0  0  0  0  0
   -5.4260    0.6357   -1.6074 C   0  0  0  0  0  0  0  0  0  0  0  0
   -5.3354   -0.5763   -1.4963 O   0  0  0  0  0  0  0  0  0  0  0  0
   -6.4012    1.4049   -0.7368 C   0  0  0  0  0  0  0  0  0  0  0  0
   -7.0724    1.9983   -1.3618 H   0  0  0  0  0  0  0  0  0  0  0  0
   -6.9988    0.7119   -0.1380 H   0  0  0  0  0  0  0  0  0  0  0  0
   -5.8549    2.0714   -0.0651 H   0  0  0  0  0  0  0  0  0  0  0  0
   -4.6275    1.3146   -2.5050 N   0  0  0  0  0  0  0  0  0  0  0  0
   -3.4719    0.7054   -3.1806 C   0  0  2  0  0  0  0  0  0  0  0  0
   -2.1331    1.1720   -2.5710 C   0  0  0  0  0  0  0  0  0  0  0  0
   -2.0702    2.2669   -2.0334 O   0  0  0  0  0  0  0  0  0  0  0  0
   -3.5420    1.0874   -4.6610 C   0  0  0  0  0  0  0  0  0  0  0  0
   -4.6053    2.3263   -2.3952 H   0  0  0  0  0  0  0  0  0  0  0  0
   -3.5122   -0.3863   -3.1042 H   0  0  0  0  0  0  0  0  0  0  0  0
   -3.4876    2.1745   -4.7796 H   0  0  0  0  0  0  0  0  0  0  0  0
   -2.7122    0.6354   -5.2135 H   0  0  0  0  0  0  0  0  0  0  0  0
   -4.4813    0.7344   -5.0987 H   0  0  0  0  0  0  0  0  0  0  0  0
   -1.0000    0.3974   -2.7479 N   0  0  0  0  0  0  0  0  0  0  0  0
    0.3848    0.5914   -2.2539 C   0  0  2  0  0  0  0  0  0  0  0  0
    0.7058    1.6025   -1.1212 C   0  0  0  0  0  0  0  0  0  0  0  0
    1.3730    1.2134   -0.1709 O   0  0  0  0  0  0  0  0  0  0  0  0
    1.2238    0.9868   -3.4734 C   0  0  0  0  0  0  0  0  0  0  0  0
    1.2897   -0.3955   -4.6825 S   0  0  0  0  0  0  0  0  0  0  0  0
   -1.1613   -0.4691   -3.2562 H   0  0  0  0  0  0  0  0  0  0  0  0
    0.7378   -0.3766   -1.8823 H   0  0  0  0  0  0  0  0  0  0  0  0
    0.8038    1.8813   -3.9430 H   0  0  0  0  0  0  0  0  0  0  0  0
    2.2462    1.2232   -3.1586 H   0  0  0  0  0  0  0  0  0  0  0  0
    0.4424    2.9555   -1.2287 N   0  0  0  0  0  0  0  0  0  0  0  0
    0.7298    3.9332   -0.1719 C   0  0  2  0  0  0  0  0  0  0  0  0
   -0.2939    5.0864   -0.1649 C   0  0  0  0  0  0  0  0  0  0  0  0
   -0.7683    5.5056   -1.2145 O   0  0  0  0  0  0  0  0  0  0  0  0
    2.1441    4.4820   -0.3832 C   0  0  0  0  0  0  0  0  0  0  0  0
   -0.3398    3.1837   -1.8507 H   0  0  0  0  0  0  0  0  0  0  0  0
    0.6752    3.4429    0.8052 H   0  0  0  0  0  0  0  0  0  0  0  0
    2.2192    4.9811   -1.3546 H   0  0  0  0  0  0  0  0  0  0  0  0
    2.3949    5.2037    0.4001 H   0  0  0  0  0  0  0  0  0  0  0  0
    2.8763    3.6691   -0.3510 H   0  0  0  0  0  0  0  0  0  0  0  0
   -0.6622    5.6795    1.0288 N   0  0  0  0  0  0  0  0  0  0  0  0
   -1.6484    6.7487    1.1197 C   0  0  0  0  0  0  0  0  0  0  0  0
   -0.2770    5.2905    1.8844 H   0  0  0  0  0  0  0  0  0  0  0  0
   -1.3095    7.6296    0.5648 H   0  0  0  0  0  0  0  0  0  0  0  0
   -2.6088    6.4207    0.7083 H   0  0  0  0  0  0  0  0  0  0  0  0
   -1.8006    7.0355    2.1646 H   0  0  0  0  0  0  0  0  0  0  0  0
  1  2  2  0  0  0  0
  1  3  1  0  0  0  0
  1  7  1  0  0  0  0
  3  4  1  0  0  0  0
  3  5  1  0  0  0  0
  3  6  1  0  0  0  0
  7  8  1  0  0  0  0
  7 13  1  0  0  0  0
  8  9  1  0  0  0  0
  8 11  1  0  0  0  0
  8 14  1  0  0  0  0
  9 10  2  0  0  0  0
  9 17  1  0  0  0  0
 11 12  1  0  0  0  0
 11 15  1  0  0  0  0
 11 16  1  0  0  0  0
 12 44  1  0  0  0  0
 17 18  1  0  0  0  0
 17 19  1  0  0  0  0
 18 20  1  0  0  0  0
 18 21  1  0  0  0  0
 18 22  1  0  0  0  0
 23 24  2  0  0  0  0
 23 25  1  0  0  0  0
 23 29  1  0  0  0  0
 25 26  1  0  0  0  0
 25 27  1  0  0  0  0
 25 28  1  0  0  0  0
 29 30  1  0  0  0  0
 29 34  1  0  0  0  0
 30 31  1  0  0  0  0
 30 33  1  0  0  0  0
 30 35  1  0  0  0  0
 31 32  2  0  0  0  0
 31 39  1  0  0  0  0
 33 36  1  0  0  0  0
 33 37  1  0  0  0  0
 33 38  1  0  0  0  0
 39 40  1  0  0  0  0
 39 45  1  0  0  0  0
 40 41  1  0  0  0  0
 40 43  1  0  0  0  0
 40 46  1  0  0  0  0
 41 42  2  0  0  0  0
 41 49  1  0  0  0  0
 43 44  1  0  0  0  0
 43 47  1  0  0  0  0
 43 48  1  0  0  0  0
 49 50  1  0  0  0  0
 49 54  1  0  0  0  0
 50 51  1  0  0  0  0
 50 53  1  0  0  0  0
 50 55  1  0  0  0  0
 51 52  2  0  0  0  0
 51 59  1  0  0  0  0
 53 56  1  0  0  0  0
 53 57  1  0  0  0  0
 53 58  1  0  0  0  0
 59 60  1  0  0  0  0
 59 61  1  0  0  0  0
 60 62  1  0  0  0  0
 60 63  1  0  0  0  0
 60 64  1  0  0  0  0
M  END
$$$$

  -OEChem-05262216053D

 64 63  0     1  0  0  0  0  0999 V2000
    1.8413    0.7127  -10.1064 C   0  0  0  0  0  0  0  0  0  0  0  0
    0.6257    0.8006  -10.1894 O   0  0  0  0  0  0  0  0  0  0  0  0
    2.6130   -0.1649  -11.0738 C   0  0  0  0  0  0  0  0  0  0  0  0
    3.1672   -0.9282  -10.5223 H   0  0  0  0  0  0  0  0  0  0  0  0
    1.9253   -0.6595  -11.7653 H   0  0  0  0  0  0  0  0  0  0  0  0
    3.3162    0.4414  -11.6495 H   0  0  0  0  0  0  0  0  0  0  0  0
    2.5101    1.4093   -9.1239 N   0  0  0  0  0  0  0  0  0  0  0  0
    1.8690    2.3060   -8.1517 C   0  0  2  0  0  0  0  0  0  0  0  0
    2.8616    3.3429   -7.5802 C   0  0  0  0  0  0  0  0  0  0  0  0
    4.0414    3.3168   -7.9149 O   0  0  0  0  0  0  0  0  0  0  0  0
    1.2384    1.4669   -7.0286 C   0  0  0  0  0  0  0  0  0  0  0  0
    2.5159    0.5471   -6.0764 S   0  0  0  0  0  0  0  0  0  0  0  0
    3.5290    1.3723   -9.1191 H   0  0  0  0  0  0  0  0  0  0  0  0
    1.0779    2.8697   -8.6570 H   0  0  0  0  0  0  0  0  0  0  0  0
    0.6804    2.1179   -6.3504 H   0  0  0  0  0  0  0  0  0  0  0  0
    0.5267    0.7538   -7.4573 H   0  0  0  0  0  0  0  0  0  0  0  0
    2.4301    4.3350   -6.7165 N   0  0  0  0  0  0  0  0  0  0  0  0
    3.3249    5.3246   -6.1272 C   0  0  0  0  0  0  0  0  0  0  0  0
    1.4457    4.3545   -6.4675 H   0  0  0  0  0  0  0  0  0  0  0  0
    4.1046    4.8319   -5.5366 H   0  0  0  0  0  0  0  0  0  0  0  0
    3.8020    5.9257   -6.9084 H   0  0  0  0  0  0  0  0  0  0  0  0
    2.7661    5.9962   -5.4683 H   0  0  0  0  0  0  0  0  0  0  0  0
   -5.3946    0.5537   -1.7272 C   0  0  0  0  0  0  0  0  0  0  0  0
   -5.1468   -0.6214   -1.5067 O   0  0  0  0  0  0  0  0  0  0  0  0
   -6.4326    1.2793   -0.8921 C   0  0  0  0  0  0  0  0  0  0  0  0
   -7.1891    1.7263   -1.5413 H   0  0  0  0  0  0  0  0  0  0  0  0
   -6.9237    0.5802   -0.2092 H   0  0  0  0  0  0  0  0  0  0  0  0
   -5.9536    2.0670   -0.3056 H   0  0  0  0  0  0  0  0  0  0  0  0
   -4.7135    1.2335   -2.7167 N   0  0  0  0  0  0  0  0  0  0  0  0
   -3.5207    0.6904   -3.3845 C   0  0  2  0  0  0  0  0  0  0  0  0
   -2.2124    1.2039   -2.7457 C   0  0  0  0  0  0  0  0  0  0  0  0
   -2.1811    2.3319   -2.2828 O   0  0  0  0  0  0  0  0  0  0  0  0
   -3.5836    1.0901   -4.8609 C   0  0  0  0  0  0  0  0  0  0  0  0
   -4.8031    2.2469   -2.6926 H   0  0  0  0  0  0  0  0  0  0  0  0
   -3.5192   -0.4031   -3.3275 H   0  0  0  0  0  0  0  0  0  0  0  0
   -3.5773    2.1801   -4.9654 H   0  0  0  0  0  0  0  0  0  0  0  0
   -2.7241    0.6840   -5.4036 H   0  0  0  0  0  0  0  0  0  0  0  0
   -4.4973    0.7001   -5.3205 H   0  0  0  0  0  0  0  0  0  0  0  0
   -1.0643    0.4375   -2.8376 N   0  0  0  0  0  0  0  0  0  0  0  0
    0.2879    0.6183   -2.2513 C   0  0  2  0  0  0  0  0  0  0  0  0
    0.5927    1.6076   -1.0912 C   0  0  0  0  0  0  0  0  0  0  0  0
    1.4151    1.2503   -0.2565 O   0  0  0  0  0  0  0  0  0  0  0  0
    1.1954    1.0142   -3.4213 C   0  0  0  0  0  0  0  0  0  0  0  0
    1.3205   -0.3642   -4.6311 S   0  0  0  0  0  0  0  0  0  0  0  0
   -1.2068   -0.4542   -3.3054 H   0  0  0  0  0  0  0  0  0  0  0  0
    0.6062   -0.3595   -1.8736 H   0  0  0  0  0  0  0  0  0  0  0  0
    0.8048    1.9128   -3.9085 H   0  0  0  0  0  0  0  0  0  0  0  0
    2.2019    1.2446   -3.0537 H   0  0  0  0  0  0  0  0  0  0  0  0
    0.1339    2.9091   -1.0163 N   0  0  0  0  0  0  0  0  0  0  0  0
    0.4426    3.8391    0.0786 C   0  0  2  0  0  0  0  0  0  0  0  0
   -0.7345    4.7843    0.3953 C   0  0  0  0  0  0  0  0  0  0  0  0
   -1.3838    5.2996   -0.5064 O   0  0  0  0  0  0  0  0  0  0  0  0
    1.6821    4.6483   -0.3133 C   0  0  0  0  0  0  0  0  0  0  0  0
   -0.6824    3.1275   -1.5982 H   0  0  0  0  0  0  0  0  0  0  0  0
    0.6590    3.2751    0.9918 H   0  0  0  0  0  0  0  0  0  0  0  0
    1.4895    5.2241   -1.2240 H   0  0  0  0  0  0  0  0  0  0  0  0
    1.9536    5.3429    0.4874 H   0  0  0  0  0  0  0  0  0  0  0  0
    2.5303    3.9808   -0.4951 H   0  0  0  0  0  0  0  0  0  0  0  0
   -1.0393    5.0956    1.7080 N   0  0  0  0  0  0  0  0  0  0  0  0
   -2.1431    5.9686    2.0888 C   0  0  0  0  0  0  0  0  0  0  0  0
   -0.5076    4.6282    2.4367 H   0  0  0  0  0  0  0  0  0  0  0  0
   -2.0101    6.9657    1.6564 H   0  0  0  0  0  0  0  0  0  0  0  0
   -3.0961    5.5573    1.7395 H   0  0  0  0  0  0  0  0  0  0  0  0
   -2.1876    6.0680    3.1776 H   0  0  0  0  0  0  0  0  0  0  0  0
  1  2  2  0  0  0  0
  1  3  1  0  0  0  0
  1  7  1  0  0  0  0
  3  4  1  0  0  0  0
  3  5  1  0  0  0  0
  3  6  1  0  0  0  0
  7  8  1  0  0  0  0
  7 13  1  0  0  0  0
  8  9  1  0  0  0  0
  8 11  1  0  0  0  0
  8 14  1  0  0  0  0
  9 10  2  0  0  0  0
  9 17  1  0  0  0  0
 11 12  1  0  0  0  0
 11 15  1  0  0  0  0
 11 16  1  0  0  0  0
 12 44  1  0  0  0  0
 17 18  1  0  0  0  0
 17 19  1  0  0  0  0
 18 20  1  0  0  0  0
 18 21  1  0  0  0  0
 18 22  1  0  0  0  0
 23 24  2  0  0  0  0
 23 25  1  0  0  0  0
 23 29  1  0  0  0  0
 25 26  1  0  0  0  0
 25 27  1  0  0  0  0
 25 28  1  0  0  0  0
 29 30  1  0  0  0  0
 29 34  1  0  0  0  0
 30 31  1  0  0  0  0
 30 33  1  0  0  0  0
 30 35  1  0  0  0  0
 31 32  2  0  0  0  0
 31 39  1  0  0  0  0
 33 36  1  0  0  0  0
 33 37  1  0  0  0  0
 33 38  1  0  0  0  0
 39 40  1  0  0  0  0
 39 45  1  0  0  0  0
 40 41  1  0  0  0  0
 40 43  1  0  0  0  0
 40 46  1  0  0  0  0
 41 42  2  0  0  0  0
 41 49  1  0  0  0  0
 43 44  1  0  0  0  0
 43 47  1  0  0  0  0
 43 48  1  0  0  0  0
 49 50  1  0  0  0  0
 49 54  1  0  0  0  0
 50 51  1  0  0  0  0
 50 53  1  0  0  0  0
 50 55  1  0  0  0  0
 51 52  2  0  0  0  0
 51 59  1  0  0  0  0
 53 56  1  0  0  0  0
 53 57  1  0  0  0  0
 53 58  1  0  0  0  0
 59 60  1  0  0  0  0
 59 61  1  0  0  0  0
 60 62  1  0  0  0  0
 60 63  1  0  0  0  0
 60 64  1  0  0  0  0
M  END
$$$$

  -OEChem-05262216053D

 64 63  0     1  0  0  0  0  0999 V2000
    1.8089    0.5109   -9.7876 C   0  0  0  0  0  0  0  0  0  0  0  0
    0.5998    0.4517   -9.9496 O   0  0  0  0  0  0  0  0  0  0  0  0
    2.7489    0.0544  -10.8869 C   0  0  0  0  0  0  0  0  0  0  0  0
    3.4047   -0.7354  -10.5128 H   0  0  0  0  0  0  0  0  0  0  0  0
    2.1765   -0.3342  -11.7335 H   0  0  0  0  0  0  0  0  0  0  0  0
    3.3589    0.8941  -11.2282 H   0  0  0  0  0  0  0  0  0  0  0  0
    2.3201    1.0042   -8.6076 N   0  0  0  0  0  0  0  0  0  0  0  0
    1.5089    1.5568   -7.5139 C   0  0  2  0  0  0  0  0  0  0  0  0
    2.2936    2.5988   -6.6840 C   0  0  0  0  0  0  0  0  0  0  0  0
    3.4655    2.8424   -6.9573 O   0  0  0  0  0  0  0  0  0  0  0  0
    1.0018    0.4067   -6.6333 C   0  0  0  0  0  0  0  0  0  0  0  0
    2.3814   -0.4629   -5.7767 S   0  0  0  0  0  0  0  0  0  0  0  0
    3.3298    1.1258   -8.5388 H   0  0  0  0  0  0  0  0  0  0  0  0
    0.6454    2.0797   -7.9376 H   0  0  0  0  0  0  0  0  0  0  0  0
    0.3086    0.8080   -5.8915 H   0  0  0  0  0  0  0  0  0  0  0  0
    0.4455   -0.3127   -7.2425 H   0  0  0  0  0  0  0  0  0  0  0  0
    1.6908    3.3045   -5.6572 N   0  0  0  0  0  0  0  0  0  0  0  0
    2.3960    4.2732   -4.8291 C   0  0  0  0  0  0  0  0  0  0  0  0
    0.7248    3.0725   -5.4125 H   0  0  0  0  0  0  0  0  0  0  0  0
    3.2355    3.7965   -4.3122 H   0  0  0  0  0  0  0  0  0  0  0  0
    2.7787    5.0957   -5.4424 H   0  0  0  0  0  0  0  0  0  0  0  0
    1.7178    4.6886   -4.0775 H   0  0  0  0  0  0  0  0  0  0  0  0
   -3.7588    0.7778   -1.8763 C   0  0  0  0  0  0  0  0  0  0  0  0
   -3.5126   -0.2483   -2.4954 O   0  0  0  0  0  0  0  0  0  0  0  0
   -4.0477    0.7297   -0.3884 C   0  0  0  0  0  0  0  0  0  0  0  0
   -4.9601    1.2883   -0.1668 H   0  0  0  0  0  0  0  0  0  0  0  0
   -4.1800   -0.3055   -0.0624 H   0  0  0  0  0  0  0  0  0  0  0  0
   -3.2162    1.1725    0.1660 H   0  0  0  0  0  0  0  0  0  0  0  0
   -3.6373    1.9917   -2.5173 N   0  0  0  0  0  0  0  0  0  0  0  0
   -3.1162    2.1357   -3.8834 C   0  0  2  0  0  0  0  0  0  0  0  0
   -1.5796    1.9779   -3.8970 C   0  0  0  0  0  0  0  0  0  0  0  0
   -0.8279    2.8807   -4.2522 O   0  0  0  0  0  0  0  0  0  0  0  0
   -3.5809    3.4990   -4.4083 C   0  0  0  0  0  0  0  0  0  0  0  0
   -3.5588    2.8056   -1.8973 H   0  0  0  0  0  0  0  0  0  0  0  0
   -3.5399    1.3614   -4.5327 H   0  0  0  0  0  0  0  0  0  0  0  0
   -3.1825    4.3076   -3.7865 H   0  0  0  0  0  0  0  0  0  0  0  0
   -3.2367    3.6483   -5.4366 H   0  0  0  0  0  0  0  0  0  0  0  0
   -4.6736    3.5579   -4.3977 H   0  0  0  0  0  0  0  0  0  0  0  0
   -1.0029    0.7872   -3.5077 N   0  0  0  0  0  0  0  0  0  0  0  0
    0.0053    0.6205   -2.4308 C   0  0  2  0  0  0  0  0  0  0  0  0
    0.2444    1.7561   -1.3972 C   0  0  0  0  0  0  0  0  0  0  0  0
    0.4770    1.4333   -0.2393 O   0  0  0  0  0  0  0  0  0  0  0  0
    1.3496    0.4077   -3.1365 C   0  0  0  0  0  0  0  0  0  0  0  0
    1.3560   -1.1593   -4.0965 S   0  0  0  0  0  0  0  0  0  0  0  0
   -1.7272    0.0643   -3.4441 H   0  0  0  0  0  0  0  0  0  0  0  0
   -0.2495   -0.2771   -1.8564 H   0  0  0  0  0  0  0  0  0  0  0  0
    1.5546    1.2561   -3.7953 H   0  0  0  0  0  0  0  0  0  0  0  0
    2.1585    0.3611   -2.3995 H   0  0  0  0  0  0  0  0  0  0  0  0
    0.0806    3.1042   -1.6539 N   0  0  0  0  0  0  0  0  0  0  0  0
   -0.1020    4.1089   -0.5997 C   0  0  2  0  0  0  0  0  0  0  0  0
   -1.5369    4.1111   -0.0249 C   0  0  0  0  0  0  0  0  0  0  0  0
   -2.5078    3.9046   -0.7490 O   0  0  0  0  0  0  0  0  0  0  0  0
    0.2367    5.4740   -1.1999 C   0  0  0  0  0  0  0  0  0  0  0  0
   -0.2297    3.3403   -2.5986 H   0  0  0  0  0  0  0  0  0  0  0  0
    0.5966    3.9119    0.2202 H   0  0  0  0  0  0  0  0  0  0  0  0
   -0.4359    5.7052   -2.0327 H   0  0  0  0  0  0  0  0  0  0  0  0
    0.1371    6.2588   -0.4436 H   0  0  0  0  0  0  0  0  0  0  0  0
    1.2668    5.4801   -1.5705 H   0  0  0  0  0  0  0  0  0  0  0  0
   -1.7513    4.3667    1.3163 N   0  0  0  0  0  0  0  0  0  0  0  0
   -3.0709    4.3462    1.9359 C   0  0  0  0  0  0  0  0  0  0  0  0
   -0.9317    4.4438    1.9129 H   0  0  0  0  0  0  0  0  0  0  0  0
   -3.7402    5.0549    1.4371 H   0  0  0  0  0  0  0  0  0  0  0  0
   -3.5085    3.3446    1.8744 H   0  0  0  0  0  0  0  0  0  0  0  0
   -2.9970    4.6279    2.9905 H   0  0  0  0  0  0  0  0  0  0  0  0
  1  2  2  0  0  0  0
  1  3  1  0  0  0  0
  1  7  1  0  0  0  0
  3  4  1  0  0  0  0
  3  5  1  0  0  0  0
  3  6  1  0  0  0  0
  7  8  1  0  0  0  0
  7 13  1  0  0  0  0
  8  9  1  0  0  0  0
  8 11  1  0  0  0  0
  8 14  1  0  0  0  0
  9 10  2  0  0  0  0
  9 17  1  0  0  0  0
 11 12  1  0  0  0  0
 11 15  1  0  0  0  0
 11 16  1  0  0  0  0
 12 44  1  0  0  0  0
 17 18  1  0  0  0  0
 17 19  1  0  0  0  0
 18 20  1  0  0  0  0
 18 21  1  0  0  0  0
 18 22  1  0  0  0  0
 23 24  2  0  0  0  0
 23 25  1  0  0  0  0
 23 29  1  0  0  0  0
 25 26  1  0  0  0  0
 25 27  1  0  0  0  0
 25 28  1  0  0  0  0
 29 30  1  0  0  0  0
 29 34  1  0  0  0  0
 30 31  1  0  0  0  0
 30 33  1  0  0  0  0
 30 35  1  0  0  0  0
 31 32  2  0  0  0  0
 31 39  1  0  0  0  0
 33 36  1  0  0  0  0
 33 37  1  0  0  0  0
 33 38  1  0  0  0  0
 39 40  1  0  0  0  0
 39 45  1  0  0  0  0
 40 41  1  0  0  0  0
 40 43  1  0  0  0  0
 40 46  1  0  0  0  0
 41 42  2  0  0  0  0
 41 49  1  0  0  0  0
 43 44  1  0  0  0  0
 43 47  1  0  0  0  0
 43 48  1  0  0  0  0
 49 50  1  0  0  0  0
 49 54  1  0  0  0  0
 50 51  1  0  0  0  0
 50 53  1  0  0  0  0
 50 55  1  0  0  0  0
 51 52  2  0  0  0  0
 51 59  1  0  0  0  0
 53 56  1  0  0  0  0
 53 57  1  0  0  0  0
 53 58  1  0  0  0  0
 59 60  1  0  0  0  0
 59 61  1  0  0  0  0
 60 62  1  0  0  0  0
 60 63  1  0  0  0  0
 60 64  1  0  0  0  0
M  END
$$$$

  -OEChem-05262216053D

 64 63  0     1  0  0  0  0  0999 V2000
    1.6065    0.8185   -9.8662 C   0  0  0  0  0  0  0  0  0  0  0  0
    0.3918    0.7805   -9.9863 O   0  0  0  0  0  0  0  0  0  0  0  0
    2.5015    0.4302  -11.0273 C   0  0  0  0  0  0  0  0  0  0  0  0
    3.0418    1.3080  -11.3903 H   0  0  0  0  0  0  0  0  0  0  0  0
    3.2221   -0.3260  -10.7064 H   0  0  0  0  0  0  0  0  0  0  0  0
    1.9018    0.0204  -11.8447 H   0  0  0  0  0  0  0  0  0  0  0  0
    2.1665    1.2336   -8.6786 N   0  0  0  0  0  0  0  0  0  0  0  0
    1.4049    1.7257   -7.5225 C   0  0  2  0  0  0  0  0  0  0  0  0
    2.2484    2.6815   -6.6474 C   0  0  0  0  0  0  0  0  0  0  0  0
    3.4245    2.8920   -6.9300 O   0  0  0  0  0  0  0  0  0  0  0  0
    0.8914    0.5295   -6.7081 C   0  0  0  0  0  0  0  0  0  0  0  0
    2.2677   -0.4311   -5.9485 S   0  0  0  0  0  0  0  0  0  0  0  0
    3.1794    1.3401   -8.6401 H   0  0  0  0  0  0  0  0  0  0  0  0
    0.5444    2.3016   -7.8786 H   0  0  0  0  0  0  0  0  0  0  0  0
    0.2287    0.8962   -5.9221 H   0  0  0  0  0  0  0  0  0  0  0  0
    0.3005   -0.1326   -7.3487 H   0  0  0  0  0  0  0  0  0  0  0  0
    1.6975    3.3416   -5.5628 N   0  0  0  0  0  0  0  0  0  0  0  0
    2.4678    4.1990   -4.6722 C   0  0  0  0  0  0  0  0  0  0  0  0
    0.7285    3.1322   -5.3103 H   0  0  0  0  0  0  0  0  0  0  0  0
    3.2709    3.6297   -4.1923 H   0  0  0  0  0  0  0  0  0  0  0  0
    2.9084    5.0332   -5.2282 H   0  0  0  0  0  0  0  0  0  0  0  0
    1.8186    4.6077   -3.8916 H   0  0  0  0  0  0  0  0  0  0  0  0
   -3.7735    0.6336   -1.9481 C   0  0  0  0  0  0  0  0  0  0  0  0
   -3.5162   -0.3220   -2.6668 O   0  0  0  0  0  0  0  0  0  0  0  0
   -4.1029    0.4239   -0.4833 C   0  0  0  0  0  0  0  0  0  0  0  0
   -4.9065    1.0990   -0.1793 H   0  0  0  0  0  0  0  0  0  0  0  0
   -4.4255   -0.6069   -0.3134 H   0  0  0  0  0  0  0  0  0  0  0  0
   -3.2193    0.6269    0.1266 H   0  0  0  0  0  0  0  0  0  0  0  0
   -3.6232    1.9077   -2.4519 N   0  0  0  0  0  0  0  0  0  0  0  0
   -3.1032    2.1910   -3.7978 C   0  0  2  0  0  0  0  0  0  0  0  0
   -1.5677    2.0264   -3.8417 C   0  0  0  0  0  0  0  0  0  0  0  0
   -0.8181    2.9542   -4.1285 O   0  0  0  0  0  0  0  0  0  0  0  0
   -3.5647    3.6019   -4.1797 C   0  0  0  0  0  0  0  0  0  0  0  0
   -3.5694    2.6523   -1.7480 H   0  0  0  0  0  0  0  0  0  0  0  0
   -3.5346    1.4891   -4.5199 H   0  0  0  0  0  0  0  0  0  0  0  0
   -3.1652    4.3420   -3.4784 H   0  0  0  0  0  0  0  0  0  0  0  0
   -3.2209    3.8555   -5.1875 H   0  0  0  0  0  0  0  0  0  0  0  0
   -4.6573    3.6599   -4.1641 H   0  0  0  0  0  0  0  0  0  0  0  0
   -0.9948    0.8172   -3.5076 N   0  0  0  0  0  0  0  0  0  0  0  0
    0.0470    0.5851   -2.4740 C   0  0  2  0  0  0  0  0  0  0  0  0
    0.3554    1.6684   -1.4013 C   0  0  0  0  0  0  0  0  0  0  0  0
    0.8122    1.2944   -0.3288 O   0  0  0  0  0  0  0  0  0  0  0  0
    1.3571    0.3663   -3.2406 C   0  0  0  0  0  0  0  0  0  0  0  0
    1.2837   -1.1627   -4.2583 S   0  0  0  0  0  0  0  0  0  0  0  0
   -1.7186    0.0906   -3.4784 H   0  0  0  0  0  0  0  0  0  0  0  0
   -0.2100   -0.3280   -1.9266 H   0  0  0  0  0  0  0  0  0  0  0  0
    1.5598    1.2336   -3.8734 H   0  0  0  0  0  0  0  0  0  0  0  0
    2.1937    0.2704   -2.5400 H   0  0  0  0  0  0  0  0  0  0  0  0
   -0.0497    2.9873   -1.4775 N   0  0  0  0  0  0  0  0  0  0  0  0
   -0.2489    3.8546   -0.3126 C   0  0  2  0  0  0  0  0  0  0  0  0
   -1.5954    3.5696    0.3887 C   0  0  0  0  0  0  0  0  0  0  0  0
   -2.6312    3.4688   -0.2656 O   0  0  0  0  0  0  0  0  0  0  0  0
   -0.1909    5.3039   -0.7992 C   0  0  0  0  0  0  0  0  0  0  0  0
   -0.4533    3.2803   -2.3682 H   0  0  0  0  0  0  0  0  0  0  0  0
    0.5605    3.7014    0.4088 H   0  0  0  0  0  0  0  0  0  0  0  0
   -0.9774    5.4932   -1.5373 H   0  0  0  0  0  0  0  0  0  0  0  0
   -0.3287    5.9930    0.0399 H   0  0  0  0  0  0  0  0  0  0  0  0
    0.7788    5.5113   -1.2624 H   0  0  0  0  0  0  0  0  0  0  0  0
   -1.6497    3.4284    1.7624 N   0  0  0  0  0  0  0  0  0  0  0  0
   -2.8685    3.0930    2.4890 C   0  0  0  0  0  0  0  0  0  0  0  0
   -0.7621    3.3908    2.2576 H   0  0  0  0  0  0  0  0  0  0  0  0
   -3.6587    3.8192    2.2713 H   0  0  0  0  0  0  0  0  0  0  0  0
   -3.2193    2.0943    2.2098 H   0  0  0  0  0  0  0  0  0  0  0  0
   -2.6804    3.1050    3.5670 H   0  0  0  0  0  0  0  0  0  0  0  0
  1  2  2  0  0  0  0
  1  3  1  0  0  0  0
  1  7  1  0  0  0  0
  3  4  1  0  0  0  0
  3  5  1  0  0  0  0
  3  6  1  0  0  0  0
  7  8  1  0  0  0  0
  7 13  1  0  0  0  0
  8  9  1  0  0  0  0
  8 11  1  0  0  0  0
  8 14  1  0  0  0  0
  9 10  2  0  0  0  0
  9 17  1  0  0  0  0
 11 12  1  0  0  0  0
 11 15  1  0  0  0  0
 11 16  1  0  0  0  0
 12 44  1  0  0  0  0
 17 18  1  0  0  0  0
 17 19  1  0  0  0  0
 18 20  1  0  0  0  0
 18 21  1  0  0  0  0
 18 22  1  0  0  0  0
 23 24  2  0  0  0  0
 23 25  1  0  0  0  0
 23 29  1  0  0  0  0
 25 26  1  0  0  0  0
 25 27  1  0  0  0  0
 25 28  1  0  0  0  0
 29 30  1  0  0  0  0
 29 34  1  0  0  0  0
 30 31  1  0  0  0  0
 30 33  1  0  0  0  0
 30 35  1  0  0  0  0
 31 32  2  0  0  0  0
 31 39  1  0  0  0  0
 33 36  1  0  0  0  0
 33 37  1  0  0  0  0
 33 38  1  0  0  0  0
 39 40  1  0  0  0  0
 39 45  1  0  0  0  0
 40 41  1  0  0  0  0
 40 43  1  0  0  0  0
 40 46  1  0  0  0  0
 41 42  2  0  0  0  0
 41 49  1  0  0  0  0
 43 44  1  0  0  0  0
 43 47  1  0  0  0  0
 43 48  1  0  0  0  0
 49 50  1  0  0  0  0
 49 54  1  0  0  0  0
 50 51  1  0  0  0  0
 50 53  1  0  0  0  0
 50 55  1  0  0  0  0
 51 52  2  0  0  0  0
 51 59  1  0  0  0  0
 53 56  1  0  0  0  0
 53 57  1  0  0  0  0
 53 58  1  0  0  0  0
 59 60  1  0  0  0  0
 59 61  1  0  0  0  0
 60 62  1  0  0  0  0
 60 63  1  0  0  0  0
 60 64  1  0  0  0  0
M  END
$$$$

  -OEChem-05262216053D

 64 63  0     1  0  0  0  0  0999 V2000
    1.4850    1.0801   -9.8936 C   0  0  0  0  0  0  0  0  0  0  0  0
    0.2674    1.0582   -9.9880 O   0  0  0  0  0  0  0  0  0  0  0  0
    2.3494    0.7156  -11.0852 C   0  0  0  0  0  0  0  0  0  0  0  0
    3.0155   -0.1105  -10.8235 H   0  0  0  0  0  0  0  0  0  0  0  0
    1.7209    0.4086  -11.9259 H   0  0  0  0  0  0  0  0  0  0  0  0
    2.9496    1.5771  -11.3883 H   0  0  0  0  0  0  0  0  0  0  0  0
    2.0744    1.4419   -8.7029 N   0  0  0  0  0  0  0  0  0  0  0  0
    1.3404    1.8627   -7.5016 C   0  0  2  0  0  0  0  0  0  0  0  0
    2.1999    2.7671   -6.5878 C   0  0  0  0  0  0  0  0  0  0  0  0
    3.3593    3.0241   -6.8991 O   0  0  0  0  0  0  0  0  0  0  0  0
    0.8467    0.6165   -6.7532 C   0  0  0  0  0  0  0  0  0  0  0  0
    2.2422   -0.4045   -6.1172 S   0  0  0  0  0  0  0  0  0  0  0  0
    3.0894    1.5314   -8.6781 H   0  0  0  0  0  0  0  0  0  0  0  0
    0.4714    2.4569   -7.8030 H   0  0  0  0  0  0  0  0  0  0  0  0
    0.2166    0.9314   -5.9196 H   0  0  0  0  0  0  0  0  0  0  0  0
    0.2270    0.0048   -7.4162 H   0  0  0  0  0  0  0  0  0  0  0  0
    1.6776    3.3382   -5.4402 N   0  0  0  0  0  0  0  0  0  0  0  0
    2.4562    4.1670   -4.5303 C   0  0  0  0  0  0  0  0  0  0  0  0
    0.7258    3.0885   -5.1622 H   0  0  0  0  0  0  0  0  0  0  0  0
    3.3231    3.6146   -4.1530 H   0  0  0  0  0  0  0  0  0  0  0  0
    2.8052    5.0716   -5.0387 H   0  0  0  0  0  0  0  0  0  0  0  0
    1.8389    4.4654   -3.6774 H   0  0  0  0  0  0  0  0  0  0  0  0
   -3.7520    0.2982   -2.0590 C   0  0  0  0  0  0  0  0  0  0  0  0
   -3.4458   -0.5740   -2.8598 O   0  0  0  0  0  0  0  0  0  0  0  0
   -4.1931   -0.0664   -0.6555 C   0  0  0  0  0  0  0  0  0  0  0  0
   -5.1310    0.4410   -0.4176 H   0  0  0  0  0  0  0  0  0  0  0  0
   -4.3455   -1.1465   -0.5758 H   0  0  0  0  0  0  0  0  0  0  0  0
   -3.4310    0.2396    0.0654 H   0  0  0  0  0  0  0  0  0  0  0  0
   -3.5847    1.6193   -2.4137 N   0  0  0  0  0  0  0  0  0  0  0  0
   -3.0199    2.0486   -3.7017 C   0  0  2  0  0  0  0  0  0  0  0  0
   -1.4819    1.9019   -3.7082 C   0  0  0  0  0  0  0  0  0  0  0  0
   -0.7372    2.8642   -3.8543 O   0  0  0  0  0  0  0  0  0  0  0  0
   -3.4841    3.4894   -3.9436 C   0  0  0  0  0  0  0  0  0  0  0  0
   -3.5689    2.2850   -1.6334 H   0  0  0  0  0  0  0  0  0  0  0  0
   -3.4171    1.4248   -4.5102 H   0  0  0  0  0  0  0  0  0  0  0  0
   -3.1174    4.1503   -3.1512 H   0  0  0  0  0  0  0  0  0  0  0  0
   -3.1081    3.8550   -4.9046 H   0  0  0  0  0  0  0  0  0  0  0  0
   -4.5770    3.5386   -3.9600 H   0  0  0  0  0  0  0  0  0  0  0  0
   -0.9070    0.6708   -3.4722 N   0  0  0  0  0  0  0  0  0  0  0  0
    0.1663    0.3539   -2.4936 C   0  0  2  0  0  0  0  0  0  0  0  0
    0.5278    1.3527   -1.3555 C   0  0  0  0  0  0  0  0  0  0  0  0
    1.2229    0.9408   -0.4360 O   0  0  0  0  0  0  0  0  0  0  0  0
    1.4422    0.1832   -3.3303 C   0  0  0  0  0  0  0  0  0  0  0  0
    1.3123   -1.2634   -4.4566 S   0  0  0  0  0  0  0  0  0  0  0  0
   -1.6214   -0.0646   -3.5122 H   0  0  0  0  0  0  0  0  0  0  0  0
   -0.0796   -0.5944   -2.0045 H   0  0  0  0  0  0  0  0  0  0  0  0
    1.6287    1.0956   -3.9024 H   0  0  0  0  0  0  0  0  0  0  0  0
    2.3072    0.0263   -2.6769 H   0  0  0  0  0  0  0  0  0  0  0  0
   -0.0968    2.5717   -1.1740 N   0  0  0  0  0  0  0  0  0  0  0  0
   -0.2322    3.2925    0.0965 C   0  0  2  0  0  0  0  0  0  0  0  0
   -1.6615    3.1777    0.6718 C   0  0  0  0  0  0  0  0  0  0  0  0
   -2.6267    2.9862   -0.0664 O   0  0  0  0  0  0  0  0  0  0  0  0
    0.1263    4.7561   -0.1677 C   0  0  0  0  0  0  0  0  0  0  0  0
   -0.6292    2.9179   -1.9718 H   0  0  0  0  0  0  0  0  0  0  0  0
    0.4652    2.8940    0.8408 H   0  0  0  0  0  0  0  0  0  0  0  0
   -0.5580    5.1929   -0.9028 H   0  0  0  0  0  0  0  0  0  0  0  0
    0.0636    5.3389    0.7566 H   0  0  0  0  0  0  0  0  0  0  0  0
    1.1477    4.8304   -0.5548 H   0  0  0  0  0  0  0  0  0  0  0  0
   -1.8742    3.3056    2.0316 N   0  0  0  0  0  0  0  0  0  0  0  0
   -3.1874    3.2007    2.6559 C   0  0  0  0  0  0  0  0  0  0  0  0
   -1.0578    3.4246    2.6255 H   0  0  0  0  0  0  0  0  0  0  0  0
   -3.8556    3.9810    2.2770 H   0  0  0  0  0  0  0  0  0  0  0  0
   -3.6338    2.2222    2.4504 H   0  0  0  0  0  0  0  0  0  0  0  0
   -3.1003    3.3185    3.7404 H   0  0  0  0  0  0  0  0  0  0  0  0
  1  2  2  0  0  0  0
  1  3  1  0  0  0  0
  1  7  1  0  0  0  0
  3  4  1  0  0  0  0
  3  5  1  0  0  0  0
  3  6  1  0  0  0  0
  7  8  1  0  0  0  0
  7 13  1  0  0  0  0
  8  9  1  0  0  0  0
  8 11  1  0  0  0  0
  8 14  1  0  0  0  0
  9 10  2  0  0  0  0
  9 17  1  0  0  0  0
 11 12  1  0  0  0  0
 11 15  1  0  0  0  0
 11 16  1  0  0  0  0
 12 44  1  0  0  0  0
 17 18  1  0  0  0  0
 17 19  1  0  0  0  0
 18 20  1  0  0  0  0
 18 21  1  0  0  0  0
 18 22  1  0  0  0  0
 23 24  2  0  0  0  0
 23 25  1  0  0  0  0
 23 29  1  0  0  0  0
 25 26  1  0  0  0  0
 25 27  1  0  0  0  0
 25 28  1  0  0  0  0
 29 30  1  0  0  0  0
 29 34  1  0  0  0  0
 30 31  1  0  0  0  0
 30 33  1  0  0  0  0
 30 35  1  0  0  0  0
 31 32  2  0  0  0  0
 31 39  1  0  0  0  0
 33 36  1  0  0  0  0
 33 37  1  0  0  0  0
 33 38  1  0  0  0  0
 39 40  1  0  0  0  0
 39 45  1  0  0  0  0
 40 41  1  0  0  0  0
 40 43  1  0  0  0  0
 40 46  1  0  0  0  0
 41 42  2  0  0  0  0
 41 49  1  0  0  0  0
 43 44  1  0  0  0  0
 43 47  1  0  0  0  0
 43 48  1  0  0  0  0
 49 50  1  0  0  0  0
 49 54  1  0  0  0  0
 50 51  1  0  0  0  0
 50 53  1  0  0  0  0
 50 55  1  0  0  0  0
 51 52  2  0  0  0  0
 51 59  1  0  0  0  0
 53 56  1  0  0  0  0
 53 57  1  0  0  0  0
 53 58  1  0  0  0  0
 59 60  1  0  0  0  0
 59 61  1  0  0  0  0
 60 62  1  0  0  0  0
 60 63  1  0  0  0  0
 60 64  1  0  0  0  0
M  END
$$$$

  -OEChem-05262216053D

 64 63  0     1  0  0  0  0  0999 V2000
    1.3020    1.1629   -9.8882 C   0  0  0  0  0  0  0  0  0  0  0  0
    0.0830    1.0870   -9.9088 O   0  0  0  0  0  0  0  0  0  0  0  0
    2.1079    0.8431  -11.1327 C   0  0  0  0  0  0  0  0  0  0  0  0
    2.8043    0.0271  -10.9249 H   0  0  0  0  0  0  0  0  0  0  0  0
    1.4419    0.5397  -11.9451 H   0  0  0  0  0  0  0  0  0  0  0  0
    2.6722    1.7235  -11.4491 H   0  0  0  0  0  0  0  0  0  0  0  0
    1.9463    1.5394   -8.7307 N   0  0  0  0  0  0  0  0  0  0  0  0
    1.2687    1.9035   -7.4786 C   0  0  2  0  0  0  0  0  0  0  0  0
    2.1396    2.8277   -6.5957 C   0  0  0  0  0  0  0  0  0  0  0  0
    3.2585    3.1573   -6.9790 O   0  0  0  0  0  0  0  0  0  0  0  0
    0.8794    0.6209   -6.7318 C   0  0  0  0  0  0  0  0  0  0  0  0
    2.3561   -0.3368   -6.1906 S   0  0  0  0  0  0  0  0  0  0  0  0
    2.9562    1.6739   -8.7656 H   0  0  0  0  0  0  0  0  0  0  0  0
    0.3571    2.4625   -7.7147 H   0  0  0  0  0  0  0  0  0  0  0  0
    0.2820    0.8899   -5.8601 H   0  0  0  0  0  0  0  0  0  0  0  0
    0.2550   -0.0106   -7.3716 H   0  0  0  0  0  0  0  0  0  0  0  0
    1.6711    3.3355   -5.3954 N   0  0  0  0  0  0  0  0  0  0  0  0
    2.4709    4.1806   -4.5189 C   0  0  0  0  0  0  0  0  0  0  0  0
    0.7592    3.0232   -5.0546 H   0  0  0  0  0  0  0  0  0  0  0  0
    3.3744    3.6525   -4.1967 H   0  0  0  0  0  0  0  0  0  0  0  0
    2.7634    5.1015   -5.0342 H   0  0  0  0  0  0  0  0  0  0  0  0
    1.8920    4.4509   -3.6302 H   0  0  0  0  0  0  0  0  0  0  0  0
   -3.5373    0.0169   -1.9270 C   0  0  0  0  0  0  0  0  0  0  0  0
   -3.1944   -0.8360   -2.7338 O   0  0  0  0  0  0  0  0  0  0  0  0
   -3.9565   -0.3747   -0.5238 C   0  0  0  0  0  0  0  0  0  0  0  0
   -4.0572   -1.4610   -0.4504 H   0  0  0  0  0  0  0  0  0  0  0  0
   -3.2071   -0.0382    0.1971 H   0  0  0  0  0  0  0  0  0  0  0  0
   -4.9167    0.0861   -0.2793 H   0  0  0  0  0  0  0  0  0  0  0  0
   -3.4331    1.3463   -2.2759 N   0  0  0  0  0  0  0  0  0  0  0  0
   -2.9061    1.8103   -3.5682 C   0  0  2  0  0  0  0  0  0  0  0  0
   -1.3639    1.7115   -3.6043 C   0  0  0  0  0  0  0  0  0  0  0  0
   -0.6519    2.7072   -3.6471 O   0  0  0  0  0  0  0  0  0  0  0  0
   -3.4189    3.2396   -3.7821 C   0  0  0  0  0  0  0  0  0  0  0  0
   -3.4918    2.0172   -1.5018 H   0  0  0  0  0  0  0  0  0  0  0  0
   -3.2996    1.1861   -4.3782 H   0  0  0  0  0  0  0  0  0  0  0  0
   -3.0641    3.9011   -2.9847 H   0  0  0  0  0  0  0  0  0  0  0  0
   -3.0662    3.6313   -4.7416 H   0  0  0  0  0  0  0  0  0  0  0  0
   -4.5131    3.2540   -3.7850 H   0  0  0  0  0  0  0  0  0  0  0  0
   -0.7425    0.4881   -3.4617 N   0  0  0  0  0  0  0  0  0  0  0  0
    0.3439    0.1637   -2.4996 C   0  0  2  0  0  0  0  0  0  0  0  0
    0.6342    1.1198   -1.3045 C   0  0  0  0  0  0  0  0  0  0  0  0
    1.5426    0.8470   -0.5306 O   0  0  0  0  0  0  0  0  0  0  0  0
    1.6245    0.0815   -3.3453 C   0  0  0  0  0  0  0  0  0  0  0  0
    1.5382   -1.3152   -4.5380 S   0  0  0  0  0  0  0  0  0  0  0  0
   -1.4300   -0.2698   -3.5365 H   0  0  0  0  0  0  0  0  0  0  0  0
    0.1369   -0.8169   -2.0596 H   0  0  0  0  0  0  0  0  0  0  0  0
    1.7747    1.0267   -3.8737 H   0  0  0  0  0  0  0  0  0  0  0  0
    2.4994   -0.0749   -2.7057 H   0  0  0  0  0  0  0  0  0  0  0  0
   -0.2517    2.1039   -0.9089 N   0  0  0  0  0  0  0  0  0  0  0  0
   -0.2963    2.7727    0.3947 C   0  0  2  0  0  0  0  0  0  0  0  0
   -1.7528    2.9701    0.8739 C   0  0  0  0  0  0  0  0  0  0  0  0
   -2.6975    2.7991    0.1043 O   0  0  0  0  0  0  0  0  0  0  0  0
    0.4277    4.1146    0.2585 C   0  0  0  0  0  0  0  0  0  0  0  0
   -0.9285    2.4040   -1.6077 H   0  0  0  0  0  0  0  0  0  0  0  0
    0.2151    2.1630    1.1471 H   0  0  0  0  0  0  0  0  0  0  0  0
   -0.0651    4.7415   -0.4920 H   0  0  0  0  0  0  0  0  0  0  0  0
    0.4329    4.6499    1.2127 H   0  0  0  0  0  0  0  0  0  0  0  0
    1.4655    3.9526   -0.0511 H   0  0  0  0  0  0  0  0  0  0  0  0
   -2.0150    3.3104    2.1878 N   0  0  0  0  0  0  0  0  0  0  0  0
   -3.3607    3.4929    2.7202 C   0  0  0  0  0  0  0  0  0  0  0  0
   -1.2200    3.4311    2.8100 H   0  0  0  0  0  0  0  0  0  0  0  0
   -3.8779    4.2978    2.1876 H   0  0  0  0  0  0  0  0  0  0  0  0
   -3.9428    2.5710    2.6180 H   0  0  0  0  0  0  0  0  0  0  0  0
   -3.3150    3.7553    3.7815 H   0  0  0  0  0  0  0  0  0  0  0  0
  1  2  2  0  0  0  0
  1  3  1  0  0  0  0
  1  7  1  0  0  0  0
  3  4  1  0  0  0  0
  3  5  1  0  0  0  0
  3  6  1  0  0  0  0
  7  8  1  0  0  0  0
  7 13  1  0  0  0  0
  8  9  1  0  0  0  0
  8 11  1  0  0  0  0
  8 14  1  0  0  0  0
  9 10  2  0  0  0  0
  9 17  1  0  0  0  0
 11 12  1  0  0  0  0
 11 15  1  0  0  0  0
 11 16  1  0  0  0  0
 12 44  1  0  0  0  0
 17 18  1  0  0  0  0
 17 19  1  0  0  0  0
 18 20  1  0  0  0  0
 18 21  1  0  0  0  0
 18 22  1  0  0  0  0
 23 24  2  0  0  0  0
 23 25  1  0  0  0  0
 23 29  1  0  0  0  0
 25 26  1  0  0  0  0
 25 27  1  0  0  0  0
 25 28  1  0  0  0  0
 29 30  1  0  0  0  0
 29 34  1  0  0  0  0
 30 31  1  0  0  0  0
 30 33  1  0  0  0  0
 30 35  1  0  0  0  0
 31 32  2  0  0  0  0
 31 39  1  0  0  0  0
 33 36  1  0  0  0  0
 33 37  1  0  0  0  0
 33 38  1  0  0  0  0
 39 40  1  0  0  0  0
 39 45  1  0  0  0  0
 40 41  1  0  0  0  0
 40 43  1  0  0  0  0
 40 46  1  0  0  0  0
 41 42  2  0  0  0  0
 41 49  1  0  0  0  0
 43 44  1  0  0  0  0
 43 47  1  0  0  0  0
 43 48  1  0  0  0  0
 49 50  1  0  0  0  0
 49 54  1  0  0  0  0
 50 51  1  0  0  0  0
 50 53  1  0  0  0  0
 50 55  1  0  0  0  0
 51 52  2  0  0  0  0
 51 59  1  0  0  0  0
 53 56  1  0  0  0  0
 53 57  1  0  0  0  0
 53 58  1  0  0  0  0
 59 60  1  0  0  0  0
 59 61  1  0  0  0  0
 60 62  1  0  0  0  0
 60 63  1  0  0  0  0
 60 64  1  0  0  0  0
M  END
$$$$

  -OEChem-05262216053D

 64 63  0     1  0  0  0  0  0999 V2000
    1.2451    1.5219   -9.8501 C   0  0  0  0  0  0  0  0  0  0  0  0
    0.0251    1.4632   -9.8502 O   0  0  0  0  0  0  0  0  0  0  0  0
    2.0179    1.3360  -11.1416 C   0  0  0  0  0  0  0  0  0  0  0  0
    2.6402    0.4404  -11.0761 H   0  0  0  0  0  0  0  0  0  0  0  0
    1.3272    1.2252  -11.9819 H   0  0  0  0  0  0  0  0  0  0  0  0
    2.6569    2.2033  -11.3226 H   0  0  0  0  0  0  0  0  0  0  0  0
    1.9209    1.7569   -8.6733 N   0  0  0  0  0  0  0  0  0  0  0  0
    1.2794    1.9980   -7.3734 C   0  0  2  0  0  0  0  0  0  0  0  0
    2.1861    2.8177   -6.4255 C   0  0  0  0  0  0  0  0  0  0  0  0
    3.3151    3.1358   -6.7888 O   0  0  0  0  0  0  0  0  0  0  0  0
    0.8904    0.6492   -6.7525 C   0  0  0  0  0  0  0  0  0  0  0  0
    2.3665   -0.3667   -6.3239 S   0  0  0  0  0  0  0  0  0  0  0  0
    2.9324    1.8753   -8.7164 H   0  0  0  0  0  0  0  0  0  0  0  0
    0.3702    2.5886   -7.5255 H   0  0  0  0  0  0  0  0  0  0  0  0
    0.3031    0.8341   -5.8523 H   0  0  0  0  0  0  0  0  0  0  0  0
    0.2553    0.0881   -7.4448 H   0  0  0  0  0  0  0  0  0  0  0  0
    1.7421    3.2405   -5.1842 N   0  0  0  0  0  0  0  0  0  0  0  0
    2.5926    3.9340   -4.2260 C   0  0  0  0  0  0  0  0  0  0  0  0
    0.8218    2.9286   -4.8643 H   0  0  0  0  0  0  0  0  0  0  0  0
    3.4778    3.3332   -3.9926 H   0  0  0  0  0  0  0  0  0  0  0  0
    2.9159    4.8998   -4.6278 H   0  0  0  0  0  0  0  0  0  0  0  0
    2.0422    4.1113   -3.2967 H   0  0  0  0  0  0  0  0  0  0  0  0
   -3.3866   -0.2745   -1.7346 C   0  0  0  0  0  0  0  0  0  0  0  0
   -3.0351   -1.0950   -2.5696 O   0  0  0  0  0  0  0  0  0  0  0  0
   -3.7952   -0.7156   -0.3431 C   0  0  0  0  0  0  0  0  0  0  0  0
   -3.8562   -1.8063   -0.2948 H   0  0  0  0  0  0  0  0  0  0  0  0
   -3.0608   -0.3694    0.3881 H   0  0  0  0  0  0  0  0  0  0  0  0
   -4.7718   -0.2959   -0.0906 H   0  0  0  0  0  0  0  0  0  0  0  0
   -3.2915    1.0665   -2.0415 N   0  0  0  0  0  0  0  0  0  0  0  0
   -2.8491    1.5853   -3.3461 C   0  0  2  0  0  0  0  0  0  0  0  0
   -1.3125    1.4991   -3.4983 C   0  0  0  0  0  0  0  0  0  0  0  0
   -0.6089    2.4989   -3.5705 O   0  0  0  0  0  0  0  0  0  0  0  0
   -3.3779    3.0192   -3.4669 C   0  0  0  0  0  0  0  0  0  0  0  0
   -3.4373    1.7252   -1.2681 H   0  0  0  0  0  0  0  0  0  0  0  0
   -3.2961    0.9926   -4.1520 H   0  0  0  0  0  0  0  0  0  0  0  0
   -2.9640    3.6513   -2.6741 H   0  0  0  0  0  0  0  0  0  0  0  0
   -3.0971    3.4472   -4.4345 H   0  0  0  0  0  0  0  0  0  0  0  0
   -4.4695    3.0305   -3.3884 H   0  0  0  0  0  0  0  0  0  0  0  0
   -0.6739    0.2752   -3.4582 N   0  0  0  0  0  0  0  0  0  0  0  0
    0.4576   -0.0669   -2.5569 C   0  0  2  0  0  0  0  0  0  0  0  0
    0.7213    0.8785   -1.3464 C   0  0  0  0  0  0  0  0  0  0  0  0
    1.8215    0.9521   -0.8136 O   0  0  0  0  0  0  0  0  0  0  0  0
    1.7060   -0.0895   -3.4533 C   0  0  0  0  0  0  0  0  0  0  0  0
    1.5988   -1.4350   -4.7008 S   0  0  0  0  0  0  0  0  0  0  0  0
   -1.3572   -0.4866   -3.5241 H   0  0  0  0  0  0  0  0  0  0  0  0
    0.2927   -1.0656   -2.1414 H   0  0  0  0  0  0  0  0  0  0  0  0
    1.8242    0.8806   -3.9404 H   0  0  0  0  0  0  0  0  0  0  0  0
    2.6059   -0.2630   -2.8546 H   0  0  0  0  0  0  0  0  0  0  0  0
   -0.3233    1.5653   -0.7545 N   0  0  0  0  0  0  0  0  0  0  0  0
   -0.2269    2.5034    0.3664 C   0  0  2  0  0  0  0  0  0  0  0  0
   -1.6098    2.7148    1.0210 C   0  0  0  0  0  0  0  0  0  0  0  0
   -2.6381    2.4474    0.3999 O   0  0  0  0  0  0  0  0  0  0  0  0
    0.3225    3.8359   -0.1556 C   0  0  0  0  0  0  0  0  0  0  0  0
   -1.2211    1.5173   -1.2296 H   0  0  0  0  0  0  0  0  0  0  0  0
    0.4518    2.0996    1.1252 H   0  0  0  0  0  0  0  0  0  0  0  0
   -0.3318    4.2408   -0.9347 H   0  0  0  0  0  0  0  0  0  0  0  0
    0.3944    4.5666    0.6554 H   0  0  0  0  0  0  0  0  0  0  0  0
    1.3212    3.6972   -0.5817 H   0  0  0  0  0  0  0  0  0  0  0  0
   -1.7084    3.1803    2.3186 N   0  0  0  0  0  0  0  0  0  0  0  0
   -2.9780    3.3790    3.0083 C   0  0  0  0  0  0  0  0  0  0  0  0
   -0.8438    3.3859    2.8124 H   0  0  0  0  0  0  0  0  0  0  0  0
   -3.5665    4.1573    2.5114 H   0  0  0  0  0  0  0  0  0  0  0  0
   -3.5594    2.4509    3.0202 H   0  0  0  0  0  0  0  0  0  0  0  0
   -2.8016    3.6864    4.0437 H   0  0  0  0  0  0  0  0  0  0  0  0
  1  2  2  0  0  0  0
  1  3  1  0  0  0  0
  1  7  1  0  0  0  0
  3  4  1  0  0  0  0
  3  5  1  0  0  0  0
  3  6  1  0  0  0  0
  7  8  1  0  0  0  0
  7 13  1  0  0  0  0
  8  9  1  0  0  0  0
  8 11  1  0  0  0  0
  8 14  1  0  0  0  0
  9 10  2  0  0  0  0
  9 17  1  0  0  0  0
 11 12  1  0  0  0  0
 11 15  1  0  0  0  0
 11 16  1  0  0  0  0
 12 44  1  0  0  0  0
 17 18  1  0  0  0  0
 17 19  1  0  0  0  0
 18 20  1  0  0  0  0
 18 21  1  0  0  0  0
 18 22  1  0  0  0  0
 23 24  2  0  0  0  0
 23 25  1  0  0  0  0
 23 29  1  0  0  0  0
 25 26  1  0  0  0  0
 25 27  1  0  0  0  0
 25 28  1  0  0  0  0
 29 30  1  0  0  0  0
 29 34  1  0  0  0  0
 30 31  1  0  0  0  0
 30 33  1  0  0  0  0
 30 35  1  0  0  0  0
 31 32  2  0  0  0  0
 31 39  1  0  0  0  0
 33 36  1  0  0  0  0
 33 37  1  0  0  0  0
 33 38  1  0  0  0  0
 39 40  1  0  0  0  0
 39 45  1  0  0  0  0
 40 41  1  0  0  0  0
 40 43  1  0  0  0  0
 40 46  1  0  0  0  0
 41 42  2  0  0  0  0
 41 49  1  0  0  0  0
 43 44  1  0  0  0  0
 43 47  1  0  0  0  0
 43 48  1  0  0  0  0
 49 50  1  0  0  0  0
 49 54  1  0  0  0  0
 50 51  1  0  0  0  0
 50 53  1  0  0  0  0
 50 55  1  0  0  0  0
 51 52  2  0  0  0  0
 51 59  1  0  0  0  0
 53 56  1  0  0  0  0
 53 57  1  0  0  0  0
 53 58  1  0  0  0  0
 59 60  1  0  0  0  0
 59 61  1  0  0  0  0
 60 62  1  0  0  0  0
 60 63  1  0  0  0  0
 60 64  1  0  0  0  0
M  END
$$$$

  -OEChem-05262216053D

 64 63  0     1  0  0  0  0  0999 V2000
    0.9707    1.6979   -9.8622 C   0  0  0  0  0  0  0  0  0  0  0  0
   -0.2485    1.7151   -9.7876 O   0  0  0  0  0  0  0  0  0  0  0  0
    1.6528    1.5584  -11.2098 C   0  0  0  0  0  0  0  0  0  0  0  0
    2.3010    0.6785  -11.2090 H   0  0  0  0  0  0  0  0  0  0  0  0
    0.9062    1.4462  -12.0008 H   0  0  0  0  0  0  0  0  0  0  0  0
    2.2553    2.4464  -11.4159 H   0  0  0  0  0  0  0  0  0  0  0  0
    1.7309    1.8134   -8.7201 N   0  0  0  0  0  0  0  0  0  0  0  0
    1.1896    2.0262   -7.3708 C   0  0  2  0  0  0  0  0  0  0  0  0
    2.2127    2.7329   -6.4496 C   0  0  0  0  0  0  0  0  0  0  0  0
    3.3313    3.0028   -6.8789 O   0  0  0  0  0  0  0  0  0  0  0  0
    0.7463    0.6734   -6.7933 C   0  0  0  0  0  0  0  0  0  0  0  0
    2.1696   -0.4663   -6.5221 S   0  0  0  0  0  0  0  0  0  0  0  0
    2.7427    1.8816   -8.8238 H   0  0  0  0  0  0  0  0  0  0  0  0
    0.3161    2.6836   -7.4336 H   0  0  0  0  0  0  0  0  0  0  0  0
    0.2342    0.8475   -5.8462 H   0  0  0  0  0  0  0  0  0  0  0  0
    0.0276    0.1972   -7.4677 H   0  0  0  0  0  0  0  0  0  0  0  0
    1.8886    3.1071   -5.1568 N   0  0  0  0  0  0  0  0  0  0  0  0
    2.8558    3.6632   -4.2198 C   0  0  0  0  0  0  0  0  0  0  0  0
    0.9732    2.8387   -4.7874 H   0  0  0  0  0  0  0  0  0  0  0  0
    3.7180    2.9960   -4.1151 H   0  0  0  0  0  0  0  0  0  0  0  0
    3.2044    4.6424   -4.5635 H   0  0  0  0  0  0  0  0  0  0  0  0
    2.3945    3.7844   -3.2348 H   0  0  0  0  0  0  0  0  0  0  0  0
   -3.3320   -0.3159   -1.7293 C   0  0  0  0  0  0  0  0  0  0  0  0
   -3.0502   -1.0465   -2.6673 O   0  0  0  0  0  0  0  0  0  0  0  0
   -3.8013   -0.8999   -0.4115 C   0  0  0  0  0  0  0  0  0  0  0  0
   -3.9326   -1.9816   -0.5036 H   0  0  0  0  0  0  0  0  0  0  0  0
   -3.0661   -0.6984    0.3713 H   0  0  0  0  0  0  0  0  0  0  0  0
   -4.7560   -0.4521   -0.1252 H   0  0  0  0  0  0  0  0  0  0  0  0
   -3.1101    1.0387   -1.8570 N   0  0  0  0  0  0  0  0  0  0  0  0
   -2.6740    1.6934   -3.1024 C   0  0  2  0  0  0  0  0  0  0  0  0
   -1.1563    1.5202   -3.3446 C   0  0  0  0  0  0  0  0  0  0  0  0
   -0.3958    2.4766   -3.4258 O   0  0  0  0  0  0  0  0  0  0  0  0
   -3.0968    3.1638   -3.0084 C   0  0  0  0  0  0  0  0  0  0  0  0
   -3.2018    1.6021   -1.0047 H   0  0  0  0  0  0  0  0  0  0  0  0
   -3.1956    1.2470   -3.9564 H   0  0  0  0  0  0  0  0  0  0  0  0
   -2.6043    3.6532   -2.1618 H   0  0  0  0  0  0  0  0  0  0  0  0
   -2.8246    3.6982   -3.9242 H   0  0  0  0  0  0  0  0  0  0  0  0
   -4.1801    3.2407   -2.8743 H   0  0  0  0  0  0  0  0  0  0  0  0
   -0.6070    0.2535   -3.4066 N   0  0  0  0  0  0  0  0  0  0  0  0
    0.5706   -0.1926   -2.6206 C   0  0  2  0  0  0  0  0  0  0  0  0
    0.9528    0.7275   -1.4267 C   0  0  0  0  0  0  0  0  0  0  0  0
    2.1131    0.9772   -1.1236 O   0  0  0  0  0  0  0  0  0  0  0  0
    1.7448   -0.2659   -3.6082 C   0  0  0  0  0  0  0  0  0  0  0  0
    1.4582   -1.5549   -4.8855 S   0  0  0  0  0  0  0  0  0  0  0  0
   -1.3405   -0.4613   -3.4705 H   0  0  0  0  0  0  0  0  0  0  0  0
    0.3795   -1.1885   -2.2098 H   0  0  0  0  0  0  0  0  0  0  0  0
    1.8930    0.7108   -4.0721 H   0  0  0  0  0  0  0  0  0  0  0  0
    2.6702   -0.5175   -3.0803 H   0  0  0  0  0  0  0  0  0  0  0  0
   -0.0566    1.1861   -0.5992 N   0  0  0  0  0  0  0  0  0  0  0  0
    0.0889    2.1899    0.4598 C   0  0  2  0  0  0  0  0  0  0  0  0
   -1.2269    2.3262    1.2557 C   0  0  0  0  0  0  0  0  0  0  0  0
   -2.2956    1.9914    0.7451 O   0  0  0  0  0  0  0  0  0  0  0  0
    0.4494    3.5479   -0.1597 C   0  0  0  0  0  0  0  0  0  0  0  0
   -1.0068    0.9936   -0.9086 H   0  0  0  0  0  0  0  0  0  0  0  0
    0.8820    1.8783    1.1475 H   0  0  0  0  0  0  0  0  0  0  0  0
   -0.3177    3.8573   -0.8768 H   0  0  0  0  0  0  0  0  0  0  0  0
    0.5308    4.3150    0.6162 H   0  0  0  0  0  0  0  0  0  0  0  0
    1.4081    3.4930   -0.6842 H   0  0  0  0  0  0  0  0  0  0  0  0
   -1.2191    2.8279    2.5430 N   0  0  0  0  0  0  0  0  0  0  0  0
   -2.4204    2.9854    3.3539 C   0  0  0  0  0  0  0  0  0  0  0  0
   -0.3222    3.1004    2.9365 H   0  0  0  0  0  0  0  0  0  0  0  0
   -3.1076    3.6989    2.8872 H   0  0  0  0  0  0  0  0  0  0  0  0
   -2.9339    2.0253    3.4710 H   0  0  0  0  0  0  0  0  0  0  0  0
   -2.1578    3.3579    4.3488 H   0  0  0  0  0  0  0  0  0  0  0  0
  1  2  2  0  0  0  0
  1  3  1  0  0  0  0
  1  7  1  0  0  0  0
  3  4  1  0  0  0  0
  3  5  1  0  0  0  0
  3  6  1  0  0  0  0
  7  8  1  0  0  0  0
  7 13  1  0  0  0  0
  8  9  1  0  0  0  0
  8 11  1  0  0  0  0
  8 14  1  0  0  0  0
  9 10  2  0  0  0  0
  9 17  1  0  0  0  0
 11 12  1  0  0  0  0
 11 15  1  0  0  0  0
 11 16  1  0  0  0  0
 12 44  1  0  0  0  0
 17 18  1  0  0  0  0
 17 19  1  0  0  0  0
 18 20  1  0  0  0  0
 18 21  1  0  0  0  0
 18 22  1  0  0  0  0
 23 24  2  0  0  0  0
 23 25  1  0  0  0  0
 23 29  1  0  0  0  0
 25 26  1  0  0  0  0
 25 27  1  0  0  0  0
 25 28  1  0  0  0  0
 29 30  1  0  0  0  0
 29 34  1  0  0  0  0
 30 31  1  0  0  0  0
 30 33  1  0  0  0  0
 30 35  1  0  0  0  0
 31 32  2  0  0  0  0
 31 39  1  0  0  0  0
 33 36  1  0  0  0  0
 33 37  1  0  0  0  0
 33 38  1  0  0  0  0
 39 40  1  0  0  0  0
 39 45  1  0  0  0  0
 40 41  1  0  0  0  0
 40 43  1  0  0  0  0
 40 46  1  0  0  0  0
 41 42  2  0  0  0  0
 41 49  1  0  0  0  0
 43 44  1  0  0  0  0
 43 47  1  0  0  0  0
 43 48  1  0  0  0  0
 49 50  1  0  0  0  0
 49 54  1  0  0  0  0
 50 51  1  0  0  0  0
 50 53  1  0  0  0  0
 50 55  1  0  0  0  0
 51 52  2  0  0  0  0
 51 59  1  0  0  0  0
 53 56  1  0  0  0  0
 53 57  1  0  0  0  0
 53 58  1  0  0  0  0
 59 60  1  0  0  0  0
 59 61  1  0  0  0  0
 60 62  1  0  0  0  0
 60 63  1  0  0  0  0
 60 64  1  0  0  0  0
M  END
$$$$

  -OEChem-05262216053D

 64 63  0     1  0  0  0  0  0999 V2000
    1.8879    0.8464  -10.2852 C   0  0  0  0  0  0  0  0  0  0  0  0
    0.6860    1.0343  -10.3963 O   0  0  0  0  0  0  0  0  0  0  0  0
    2.6162   -0.0562  -11.2633 C   0  0  0  0  0  0  0  0  0  0  0  0
    3.0748   -0.8914  -10.7279 H   0  0  0  0  0  0  0  0  0  0  0  0
    1.9158   -0.4538  -12.0031 H   0  0  0  0  0  0  0  0  0  0  0  0
    3.3956    0.5070  -11.7824 H   0  0  0  0  0  0  0  0  0  0  0  0
    2.5826    1.4572   -9.2647 N   0  0  0  0  0  0  0  0  0  0  0  0
    1.9912    2.3695   -8.2752 C   0  0  2  0  0  0  0  0  0  0  0  0
    3.0528    3.2932   -7.6372 C   0  0  0  0  0  0  0  0  0  0  0  0
    4.2313    3.1950   -7.9631 O   0  0  0  0  0  0  0  0  0  0  0  0
    1.2518    1.5518   -7.2035 C   0  0  0  0  0  0  0  0  0  0  0  0
    2.3939    0.4239   -6.3052 S   0  0  0  0  0  0  0  0  0  0  0  0
    3.5949    1.3379   -9.2369 H   0  0  0  0  0  0  0  0  0  0  0  0
    1.2686    3.0192   -8.7798 H   0  0  0  0  0  0  0  0  0  0  0  0
    0.7710    2.2250   -6.4884 H   0  0  0  0  0  0  0  0  0  0  0  0
    0.4630    0.9581   -7.6770 H   0  0  0  0  0  0  0  0  0  0  0  0
    2.6846    4.2721   -6.7306 N   0  0  0  0  0  0  0  0  0  0  0  0
    3.6420    5.1541   -6.0738 C   0  0  0  0  0  0  0  0  0  0  0  0
    1.7076    4.3225   -6.4585 H   0  0  0  0  0  0  0  0  0  0  0  0
    4.3444    4.5734   -5.4666 H   0  0  0  0  0  0  0  0  0  0  0  0
    4.2078    5.7281   -6.8153 H   0  0  0  0  0  0  0  0  0  0  0  0
    3.1198    5.8585   -5.4192 H   0  0  0  0  0  0  0  0  0  0  0  0
   -5.4694    0.8051   -1.4816 C   0  0  0  0  0  0  0  0  0  0  0  0
   -5.6347   -0.3605   -1.8036 O   0  0  0  0  0  0  0  0  0  0  0  0
   -6.3116    1.4125   -0.3754 C   0  0  0  0  0  0  0  0  0  0  0  0
   -6.8906    2.2531   -0.7649 H   0  0  0  0  0  0  0  0  0  0  0  0
   -7.0014    0.6653    0.0271 H   0  0  0  0  0  0  0  0  0  0  0  0
   -5.6663    1.7658    0.4324 H   0  0  0  0  0  0  0  0  0  0  0  0
   -4.5023    1.5678   -2.1037 N   0  0  0  0  0  0  0  0  0  0  0  0
   -3.4566    1.0122   -2.9760 C   0  0  2  0  0  0  0  0  0  0  0  0
   -2.0464    1.2460   -2.3949 C   0  0  0  0  0  0  0  0  0  0  0  0
   -1.8561    2.2096   -1.6656 O   0  0  0  0  0  0  0  0  0  0  0  0
   -3.5855    1.6781   -4.3479 C   0  0  0  0  0  0  0  0  0  0  0  0
   -4.2960    2.4662   -1.6702 H   0  0  0  0  0  0  0  0  0  0  0  0
   -3.5883   -0.0680   -3.0984 H   0  0  0  0  0  0  0  0  0  0  0  0
   -3.4387    2.7600   -4.2648 H   0  0  0  0  0  0  0  0  0  0  0  0
   -2.8384    1.2767   -5.0398 H   0  0  0  0  0  0  0  0  0  0  0  0
   -4.5796    1.4918   -4.7672 H   0  0  0  0  0  0  0  0  0  0  0  0
   -1.0078    0.4061   -2.7655 N   0  0  0  0  0  0  0  0  0  0  0  0
    0.4124    0.4366   -2.3439 C   0  0  2  0  0  0  0  0  0  0  0  0
    0.7900    1.2889   -1.1009 C   0  0  0  0  0  0  0  0  0  0  0  0
    1.6916    2.1201   -1.1371 O   0  0  0  0  0  0  0  0  0  0  0  0
    1.2135    0.8708   -3.5815 C   0  0  0  0  0  0  0  0  0  0  0  0
    1.0853   -0.3986   -4.9049 S   0  0  0  0  0  0  0  0  0  0  0  0
   -1.2598   -0.3248   -3.4269 H   0  0  0  0  0  0  0  0  0  0  0  0
    0.7112   -0.5832   -2.0839 H   0  0  0  0  0  0  0  0  0  0  0  0
    0.8515    1.8389   -3.9412 H   0  0  0  0  0  0  0  0  0  0  0  0
    2.2713    0.9855   -3.3220 H   0  0  0  0  0  0  0  0  0  0  0  0
    0.2119    0.9954    0.1198 N   0  0  0  0  0  0  0  0  0  0  0  0
    0.5116    1.6703    1.3872 C   0  0  2  0  0  0  0  0  0  0  0  0
    0.1942    0.7663    2.5969 C   0  0  0  0  0  0  0  0  0  0  0  0
   -0.5507   -0.2001    2.4700 O   0  0  0  0  0  0  0  0  0  0  0  0
   -0.3112    2.9610    1.4555 C   0  0  0  0  0  0  0  0  0  0  0  0
   -0.5538    0.3240    0.1249 H   0  0  0  0  0  0  0  0  0  0  0  0
    1.5777    1.9170    1.4281 H   0  0  0  0  0  0  0  0  0  0  0  0
   -1.3817    2.7347    1.4136 H   0  0  0  0  0  0  0  0  0  0  0  0
   -0.1039    3.5009    2.3841 H   0  0  0  0  0  0  0  0  0  0  0  0
   -0.0634    3.6146    0.6130 H   0  0  0  0  0  0  0  0  0  0  0  0
    0.7497    1.0327    3.8352 N   0  0  0  0  0  0  0  0  0  0  0  0
    0.5156    0.2043    5.0122 C   0  0  0  0  0  0  0  0  0  0  0  0
    1.3844    1.8228    3.9066 H   0  0  0  0  0  0  0  0  0  0  0  0
   -0.5532    0.1640    5.2466 H   0  0  0  0  0  0  0  0  0  0  0  0
    0.8775   -0.8151    4.8417 H   0  0  0  0  0  0  0  0  0  0  0  0
    1.0426    0.6176    5.8773 H   0  0  0  0  0  0  0  0  0  0  0  0
  1  2  2  0  0  0  0
  1  3  1  0  0  0  0
  1  7  1  0  0  0  0
  3  4  1  0  0  0  0
  3  5  1  0  0  0  0
  3  6  1  0  0  0  0
  7  8  1  0  0  0  0
  7 13  1  0  0  0  0
  8  9  1  0  0  0  0
  8 11  1  0  0  0  0
  8 14  1  0  0  0  0
  9 10  2  0  0  0  0
  9 17  1  0  0  0  0
 11 12  1  0  0  0  0
 11 15  1  0  0  0  0
 11 16  1  0  0  0  0
 12 44  1  0  0  0  0
 17 18  1  0  0  0  0
 17 19  1  0  0  0  0
 18 20  1  0  0  0  0
 18 21  1  0  0  0  0
 18 22  1  0  0  0  0
 23 24  2  0  0  0  0
 23 25  1  0  0  0  0
 23 29  1  0  0  0  0
 25 26  1  0  0  0  0
 25 27  1  0  0  0  0
 25 28  1  0  0  0  0
 29 30  1  0  0  0  0
 29 34  1  0  0  0  0
 30 31  1  0  0  0  0
 30 33  1  0  0  0  0
 30 35  1  0  0  0  0
 31 32  2  0  0  0  0
 31 39  1  0  0  0  0
 33 36  1  0  0  0  0
 33 37  1  0  0  0  0
 33 38  1  0  0  0  0
 39 40  1  0  0  0  0
 39 45  1  0  0  0  0
 40 41  1  0  0  0  0
 40 43  1  0  0  0  0
 40 46  1  0  0  0  0
 41 42  2  0  0  0  0
 41 49  1  0  0  0  0
 43 44  1  0  0  0  0
 43 47  1  0  0  0  0
 43 48  1  0  0  0  0
 49 50  1  0  0  0  0
 49 54  1  0  0  0  0
 50 51  1  0  0  0  0
 50 53  1  0  0  0  0
 50 55  1  0  0  0  0
 51 52  2  0  0  0  0
 51 59  1  0  0  0  0
 53 56  1  0  0  0  0
 53 57  1  0  0  0  0
 53 58  1  0  0  0  0
 59 60  1  0  0  0  0
 59 61  1  0  0  0  0
 60 62  1  0  0  0  0
 60 63  1  0  0  0  0
 60 64  1  0  0  0  0
M  END
$$$$

  -OEChem-05262216053D

 64 63  0     1  0  0  0  0  0999 V2000
    1.8728    0.8358  -10.2735 C   0  0  0  0  0  0  0  0  0  0  0  0
    0.6714    1.0243  -10.3876 O   0  0  0  0  0  0  0  0  0  0  0  0
    2.6019   -0.0690  -11.2486 C   0  0  0  0  0  0  0  0  0  0  0  0
    3.0767   -0.8924  -10.7096 H   0  0  0  0  0  0  0  0  0  0  0  0
    1.8991   -0.4842  -11.9761 H   0  0  0  0  0  0  0  0  0  0  0  0
    3.3683    0.4982  -11.7820 H   0  0  0  0  0  0  0  0  0  0  0  0
    2.5667    1.4496   -9.2542 N   0  0  0  0  0  0  0  0  0  0  0  0
    1.9735    2.3594   -8.2638 C   0  0  2  0  0  0  0  0  0  0  0  0
    3.0371    3.2715   -7.6134 C   0  0  0  0  0  0  0  0  0  0  0  0
    4.2193    3.1545   -7.9190 O   0  0  0  0  0  0  0  0  0  0  0  0
    1.2273    1.5393   -7.1989 C   0  0  0  0  0  0  0  0  0  0  0  0
    2.3666    0.4074   -6.3031 S   0  0  0  0  0  0  0  0  0  0  0  0
    3.5782    1.3250   -9.2203 H   0  0  0  0  0  0  0  0  0  0  0  0
    1.2580    3.0163   -8.7690 H   0  0  0  0  0  0  0  0  0  0  0  0
    0.7459    2.2104   -6.4824 H   0  0  0  0  0  0  0  0  0  0  0  0
    0.4389    0.9489   -7.6767 H   0  0  0  0  0  0  0  0  0  0  0  0
    2.6695    4.2562   -6.7130 N   0  0  0  0  0  0  0  0  0  0  0  0
    3.6314    5.1232   -6.0424 C   0  0  0  0  0  0  0  0  0  0  0  0
    1.6883    4.3282   -6.4615 H   0  0  0  0  0  0  0  0  0  0  0  0
    4.3336    4.5293   -5.4477 H   0  0  0  0  0  0  0  0  0  0  0  0
    4.1975    5.7082   -6.7752 H   0  0  0  0  0  0  0  0  0  0  0  0
    3.1133    5.8170   -5.3732 H   0  0  0  0  0  0  0  0  0  0  0  0
   -5.4948    0.8166   -1.5104 C   0  0  0  0  0  0  0  0  0  0  0  0
   -5.6567   -0.3476   -1.8396 O   0  0  0  0  0  0  0  0  0  0  0  0
   -6.3739    1.4284   -0.4361 C   0  0  0  0  0  0  0  0  0  0  0  0
   -6.9411    2.2655   -0.8498 H   0  0  0  0  0  0  0  0  0  0  0  0
   -7.0755    0.6818   -0.0534 H   0  0  0  0  0  0  0  0  0  0  0  0
   -5.7573    1.7885    0.3908 H   0  0  0  0  0  0  0  0  0  0  0  0
   -4.5080    1.5778   -2.1023 N   0  0  0  0  0  0  0  0  0  0  0  0
   -3.4463    1.0211   -2.9541 C   0  0  2  0  0  0  0  0  0  0  0  0
   -2.0494    1.2150   -2.3283 C   0  0  0  0  0  0  0  0  0  0  0  0
   -1.8777    2.1186   -1.5217 O   0  0  0  0  0  0  0  0  0  0  0  0
   -3.5230    1.7187   -4.3135 C   0  0  0  0  0  0  0  0  0  0  0  0
   -4.2991    2.4651   -1.6476 H   0  0  0  0  0  0  0  0  0  0  0  0
   -3.5930   -0.0537   -3.1038 H   0  0  0  0  0  0  0  0  0  0  0  0
   -3.3613    2.7957   -4.2012 H   0  0  0  0  0  0  0  0  0  0  0  0
   -2.7623    1.3204   -4.9918 H   0  0  0  0  0  0  0  0  0  0  0  0
   -4.5069    1.5579   -4.7655 H   0  0  0  0  0  0  0  0  0  0  0  0
   -1.0105    0.3844   -2.7192 N   0  0  0  0  0  0  0  0  0  0  0  0
    0.4175    0.4423   -2.3335 C   0  0  2  0  0  0  0  0  0  0  0  0
    0.8015    1.3174   -1.1111 C   0  0  0  0  0  0  0  0  0  0  0  0
    1.5001    2.3194   -1.2311 O   0  0  0  0  0  0  0  0  0  0  0  0
    1.1920    0.8806   -3.5851 C   0  0  0  0  0  0  0  0  0  0  0  0
    1.0593   -0.4010   -4.8960 S   0  0  0  0  0  0  0  0  0  0  0  0
   -1.2513   -0.2997   -3.4322 H   0  0  0  0  0  0  0  0  0  0  0  0
    0.7395   -0.5706   -2.0731 H   0  0  0  0  0  0  0  0  0  0  0  0
    0.8098    1.8410   -3.9459 H   0  0  0  0  0  0  0  0  0  0  0  0
    2.2509    1.0153   -3.3381 H   0  0  0  0  0  0  0  0  0  0  0  0
    0.5137    0.8592    0.1608 N   0  0  0  0  0  0  0  0  0  0  0  0
    0.8892    1.5353    1.4074 C   0  0  2  0  0  0  0  0  0  0  0  0
    0.9659    0.5445    2.5876 C   0  0  0  0  0  0  0  0  0  0  0  0
    0.4575   -0.5681    2.4969 O   0  0  0  0  0  0  0  0  0  0  0  0
   -0.1434    2.6301    1.6957 C   0  0  0  0  0  0  0  0  0  0  0  0
   -0.0467    0.0125    0.2453 H   0  0  0  0  0  0  0  0  0  0  0  0
    1.8783    1.9908    1.2927 H   0  0  0  0  0  0  0  0  0  0  0  0
   -1.1375    2.1911    1.8270 H   0  0  0  0  0  0  0  0  0  0  0  0
    0.1198    3.1788    2.6045 H   0  0  0  0  0  0  0  0  0  0  0  0
   -0.1869    3.3413    0.8648 H   0  0  0  0  0  0  0  0  0  0  0  0
    1.6157    0.8986    3.7557 N   0  0  0  0  0  0  0  0  0  0  0  0
    1.7502    0.0060    4.9003 C   0  0  0  0  0  0  0  0  0  0  0  0
    2.0561    1.8133    3.7895 H   0  0  0  0  0  0  0  0  0  0  0  0
    0.7670   -0.3403    5.2357 H   0  0  0  0  0  0  0  0  0  0  0  0
    2.3592   -0.8650    4.6371 H   0  0  0  0  0  0  0  0  0  0  0  0
    2.2325    0.5284    5.7318 H   0  0  0  0  0  0  0  0  0  0  0  0
  1  2  2  0  0  0  0
  1  3  1  0  0  0  0
  1  7  1  0  0  0  0
  3  4  1  0  0  0  0
  3  5  1  0  0  0  0
  3  6  1  0  0  0  0
  7  8  1  0  0  0  0
  7 13  1  0  0  0  0
  8  9  1  0  0  0  0
  8 11  1  0  0  0  0
  8 14  1  0  0  0  0
  9 10  2  0  0  0  0
  9 17  1  0  0  0  0
 11 12  1  0  0  0  0
 11 15  1  0  0  0  0
 11 16  1  0  0  0  0
 12 44  1  0  0  0  0
 17 18  1  0  0  0  0
 17 19  1  0  0  0  0
 18 20  1  0  0  0  0
 18 21  1  0  0  0  0
 18 22  1  0  0  0  0
 23 24  2  0  0  0  0
 23 25  1  0  0  0  0
 23 29  1  0  0  0  0
 25 26  1  0  0  0  0
 25 27  1  0  0  0  0
 25 28  1  0  0  0  0
 29 30  1  0  0  0  0
 29 34  1  0  0  0  0
 30 31  1  0  0  0  0
 30 33  1  0  0  0  0
 30 35  1  0  0  0  0
 31 32  2  0  0  0  0
 31 39  1  0  0  0  0
 33 36  1  0  0  0  0
 33 37  1  0  0  0  0
 33 38  1  0  0  0  0
 39 40  1  0  0  0  0
 39 45  1  0  0  0  0
 40 41  1  0  0  0  0
 40 43  1  0  0  0  0
 40 46  1  0  0  0  0
 41 42  2  0  0  0  0
 41 49  1  0  0  0  0
 43 44  1  0  0  0  0
 43 47  1  0  0  0  0
 43 48  1  0  0  0  0
 49 50  1  0  0  0  0
 49 54  1  0  0  0  0
 50 51  1  0  0  0  0
 50 53  1  0  0  0  0
 50 55  1  0  0  0  0
 51 52  2  0  0  0  0
 51 59  1  0  0  0  0
 53 56  1  0  0  0  0
 53 57  1  0  0  0  0
 53 58  1  0  0  0  0
 59 60  1  0  0  0  0
 59 61  1  0  0  0  0
 60 62  1  0  0  0  0
 60 63  1  0  0  0  0
 60 64  1  0  0  0  0
M  END
$$$$

  -OEChem-05262216053D

 64 63  0     1  0  0  0  0  0999 V2000
    1.4501    1.2092  -10.3123 C   0  0  0  0  0  0  0  0  0  0  0  0
    0.2468    1.4126  -10.2640 O   0  0  0  0  0  0  0  0  0  0  0  0
    2.0615    0.5277  -11.5217 C   0  0  0  0  0  0  0  0  0  0  0  0
    2.6444   -0.3410  -11.2061 H   0  0  0  0  0  0  0  0  0  0  0  0
    1.2745    0.1940  -12.2039 H   0  0  0  0  0  0  0  0  0  0  0  0
    2.7159    1.2241  -12.0513 H   0  0  0  0  0  0  0  0  0  0  0  0
    2.2517    1.6037   -9.2635 N   0  0  0  0  0  0  0  0  0  0  0  0
    1.7757    2.3389   -8.0830 C   0  0  2  0  0  0  0  0  0  0  0  0
    2.9143    3.1302   -7.3984 C   0  0  0  0  0  0  0  0  0  0  0  0
    4.0322    3.1553   -7.9030 O   0  0  0  0  0  0  0  0  0  0  0  0
    1.1144    1.3557   -7.1042 C   0  0  0  0  0  0  0  0  0  0  0  0
    2.3500    0.2044   -6.3729 S   0  0  0  0  0  0  0  0  0  0  0  0
    3.2610    1.5153   -9.3766 H   0  0  0  0  0  0  0  0  0  0  0  0
    1.0276    3.0729   -8.4003 H   0  0  0  0  0  0  0  0  0  0  0  0
    0.6216    1.9163   -6.3059 H   0  0  0  0  0  0  0  0  0  0  0  0
    0.3413    0.7777   -7.6210 H   0  0  0  0  0  0  0  0  0  0  0  0
    2.6907    3.8304   -6.2249 N   0  0  0  0  0  0  0  0  0  0  0  0
    3.7478    4.5162   -5.4906 C   0  0  0  0  0  0  0  0  0  0  0  0
    1.7750    3.7499   -5.7937 H   0  0  0  0  0  0  0  0  0  0  0  0
    4.5322    3.8098   -5.1985 H   0  0  0  0  0  0  0  0  0  0  0  0
    4.1943    5.3048   -6.1055 H   0  0  0  0  0  0  0  0  0  0  0  0
    3.3417    4.9747   -4.5835 H   0  0  0  0  0  0  0  0  0  0  0  0
   -5.5465    0.8746   -1.9239 C   0  0  0  0  0  0  0  0  0  0  0  0
   -5.8727   -0.1210   -2.5506 O   0  0  0  0  0  0  0  0  0  0  0  0
   -6.4978    1.4808   -0.9102 C   0  0  0  0  0  0  0  0  0  0  0  0
   -6.7430    2.5067   -1.1955 H   0  0  0  0  0  0  0  0  0  0  0  0
   -7.4210    0.8963   -0.8639 H   0  0  0  0  0  0  0  0  0  0  0  0
   -6.0339    1.4848    0.0792 H   0  0  0  0  0  0  0  0  0  0  0  0
   -4.3021    1.4353   -2.1206 N   0  0  0  0  0  0  0  0  0  0  0  0
   -3.2386    0.8159   -2.9220 C   0  0  2  0  0  0  0  0  0  0  0  0
   -1.8443    1.0528   -2.3042 C   0  0  0  0  0  0  0  0  0  0  0  0
   -1.6949    1.9553   -1.4921 O   0  0  0  0  0  0  0  0  0  0  0  0
   -3.3041    1.3894   -4.3399 C   0  0  0  0  0  0  0  0  0  0  0  0
   -4.0200    2.1815   -1.4855 H   0  0  0  0  0  0  0  0  0  0  0  0
   -3.3949   -0.2674   -2.9664 H   0  0  0  0  0  0  0  0  0  0  0  0
   -3.1466    2.4726   -4.3225 H   0  0  0  0  0  0  0  0  0  0  0  0
   -2.5376    0.9345   -4.9748 H   0  0  0  0  0  0  0  0  0  0  0  0
   -4.2842    1.1863   -4.7839 H   0  0  0  0  0  0  0  0  0  0  0  0
   -0.8021    0.2065   -2.6483 N   0  0  0  0  0  0  0  0  0  0  0  0
    0.6323    0.3108   -2.2984 C   0  0  2  0  0  0  0  0  0  0  0  0
    1.0271    1.2874   -1.1582 C   0  0  0  0  0  0  0  0  0  0  0  0
    1.5255    2.3822   -1.4054 O   0  0  0  0  0  0  0  0  0  0  0  0
    1.3579    0.6977   -3.5940 C   0  0  0  0  0  0  0  0  0  0  0  0
    1.2205   -0.6452   -4.8410 S   0  0  0  0  0  0  0  0  0  0  0  0
   -1.0337   -0.4874   -3.3554 H   0  0  0  0  0  0  0  0  0  0  0  0
    0.9856   -0.6761   -1.9839 H   0  0  0  0  0  0  0  0  0  0  0  0
    0.9406    1.6293   -3.9871 H   0  0  0  0  0  0  0  0  0  0  0  0
    2.4193    0.8719   -3.3867 H   0  0  0  0  0  0  0  0  0  0  0  0
    1.0643    0.8289    0.1451 N   0  0  0  0  0  0  0  0  0  0  0  0
    1.4683    1.6275    1.3088 C   0  0  2  0  0  0  0  0  0  0  0  0
    1.7467    0.7309    2.5332 C   0  0  0  0  0  0  0  0  0  0  0  0
    1.3695   -0.4364    2.5439 O   0  0  0  0  0  0  0  0  0  0  0  0
    0.3568    2.6340    1.6356 C   0  0  0  0  0  0  0  0  0  0  0  0
    0.6679   -0.0903    0.3366 H   0  0  0  0  0  0  0  0  0  0  0  0
    2.3910    2.1686    1.0747 H   0  0  0  0  0  0  0  0  0  0  0  0
   -0.5789    2.1113    1.8583 H   0  0  0  0  0  0  0  0  0  0  0  0
    0.6305    3.2441    2.5016 H   0  0  0  0  0  0  0  0  0  0  0  0
    0.1838    3.3041    0.7874 H   0  0  0  0  0  0  0  0  0  0  0  0
    2.4261    1.2327    3.6280 N   0  0  0  0  0  0  0  0  0  0  0  0
    2.7137    0.4456    4.8210 C   0  0  0  0  0  0  0  0  0  0  0  0
    2.7266    2.2024    3.5921 H   0  0  0  0  0  0  0  0  0  0  0  0
    1.7832    0.1245    5.3010 H   0  0  0  0  0  0  0  0  0  0  0  0
    3.3015   -0.4417    4.5630 H   0  0  0  0  0  0  0  0  0  0  0  0
    3.2863    1.0413    5.5386 H   0  0  0  0  0  0  0  0  0  0  0  0
  1  2  2  0  0  0  0
  1  3  1  0  0  0  0
  1  7  1  0  0  0  0
  3  4  1  0  0  0  0
  3  5  1  0  0  0  0
  3  6  1  0  0  0  0
  7  8  1  0  0  0  0
  7 13  1  0  0  0  0
  8  9  1  0  0  0  0
  8 11  1  0  0  0  0
  8 14  1  0  0  0  0
  9 10  2  0  0  0  0
  9 17  1  0  0  0  0
 11 12  1  0  0  0  0
 11 15  1  0  0  0  0
 11 16  1  0  0  0  0
 12 44  1  0  0  0  0
 17 18  1  0  0  0  0
 17 19  1  0  0  0  0
 18 20  1  0  0  0  0
 18 21  1  0  0  0  0
 18 22  1  0  0  0  0
 23 24  2  0  0  0  0
 23 25  1  0  0  0  0
 23 29  1  0  0  0  0
 25 26  1  0  0  0  0
 25 27  1  0  0  0  0
 25 28  1  0  0  0  0
 29 30  1  0  0  0  0
 29 34  1  0  0  0  0
 30 31  1  0  0  0  0
 30 33  1  0  0  0  0
 30 35  1  0  0  0  0
 31 32  2  0  0  0  0
 31 39  1  0  0  0  0
 33 36  1  0  0  0  0
 33 37  1  0  0  0  0
 33 38  1  0  0  0  0
 39 40  1  0  0  0  0
 39 45  1  0  0  0  0
 40 41  1  0  0  0  0
 40 43  1  0  0  0  0
 40 46  1  0  0  0  0
 41 42  2  0  0  0  0
 41 49  1  0  0  0  0
 43 44  1  0  0  0  0
 43 47  1  0  0  0  0
 43 48  1  0  0  0  0
 49 50  1  0  0  0  0
 49 54  1  0  0  0  0
 50 51  1  0  0  0  0
 50 53  1  0  0  0  0
 50 55  1  0  0  0  0
 51 52  2  0  0  0  0
 51 59  1  0  0  0  0
 53 56  1  0  0  0  0
 53 57  1  0  0  0  0
 53 58  1  0  0  0  0
 59 60  1  0  0  0  0
 59 61  1  0  0  0  0
 60 62  1  0  0  0  0
 60 63  1  0  0  0  0
 60 64  1  0  0  0  0
M  END
$$$$

  -OEChem-05262216053D

 64 63  0     1  0  0  0  0  0999 V2000
    1.8074    0.8309  -10.2162 C   0  0  0  0  0  0  0  0  0  0  0  0
    0.6070    1.0299  -10.3233 O   0  0  0  0  0  0  0  0  0  0  0  0
    2.5256   -0.0722  -11.2014 C   0  0  0  0  0  0  0  0  0  0  0  0
    3.0346   -0.8781  -10.6667 H   0  0  0  0  0  0  0  0  0  0  0  0
    1.8089   -0.5119  -11.9008 H   0  0  0  0  0  0  0  0  0  0  0  0
    3.2633    0.5030  -11.7663 H   0  0  0  0  0  0  0  0  0  0  0  0
    2.5099    1.4296   -9.1939 N   0  0  0  0  0  0  0  0  0  0  0  0
    1.9245    2.3299   -8.1905 C   0  0  2  0  0  0  0  0  0  0  0  0
    2.9907    3.2398   -7.5392 C   0  0  0  0  0  0  0  0  0  0  0  0
    4.1693    3.1410   -7.8651 O   0  0  0  0  0  0  0  0  0  0  0  0
    1.1863    1.4960   -7.1309 C   0  0  0  0  0  0  0  0  0  0  0  0
    2.3372    0.3671   -6.2457 S   0  0  0  0  0  0  0  0  0  0  0  0
    3.5208    1.3004   -9.1675 H   0  0  0  0  0  0  0  0  0  0  0  0
    1.2033    2.9899   -8.6838 H   0  0  0  0  0  0  0  0  0  0  0  0
    0.7000    2.1585   -6.4098 H   0  0  0  0  0  0  0  0  0  0  0  0
    0.4020    0.9029   -7.6120 H   0  0  0  0  0  0  0  0  0  0  0  0
    2.6276    4.2033   -6.6140 N   0  0  0  0  0  0  0  0  0  0  0  0
    3.5876    5.0732   -5.9447 C   0  0  0  0  0  0  0  0  0  0  0  0
    1.6506    4.2553   -6.3420 H   0  0  0  0  0  0  0  0  0  0  0  0
    4.2986    4.4811   -5.3589 H   0  0  0  0  0  0  0  0  0  0  0  0
    4.1431    5.6687   -6.6772 H   0  0  0  0  0  0  0  0  0  0  0  0
    3.0678    5.7578   -5.2673 H   0  0  0  0  0  0  0  0  0  0  0  0
   -5.5903    0.7930   -1.7029 C   0  0  0  0  0  0  0  0  0  0  0  0
   -5.7920   -0.3154   -2.1731 O   0  0  0  0  0  0  0  0  0  0  0  0
   -6.5186    1.3425   -0.6365 C   0  0  0  0  0  0  0  0  0  0  0  0
   -7.0501    2.2163   -1.0213 H   0  0  0  0  0  0  0  0  0  0  0  0
   -7.2505    0.5831   -0.3473 H   0  0  0  0  0  0  0  0  0  0  0  0
   -5.9446    1.6320    0.2474 H   0  0  0  0  0  0  0  0  0  0  0  0
   -4.5166    1.5469   -2.1293 N   0  0  0  0  0  0  0  0  0  0  0  0
   -3.4210    1.0176   -2.9548 C   0  0  2  0  0  0  0  0  0  0  0  0
   -2.0543    1.1682   -2.2542 C   0  0  0  0  0  0  0  0  0  0  0  0
   -1.9312    1.9973   -1.3636 O   0  0  0  0  0  0  0  0  0  0  0  0
   -3.4247    1.7732   -4.2859 C   0  0  0  0  0  0  0  0  0  0  0  0
   -4.2945    2.3652   -1.5639 H   0  0  0  0  0  0  0  0  0  0  0  0
   -3.5708   -0.0485   -3.1552 H   0  0  0  0  0  0  0  0  0  0  0  0
   -3.2559    2.8425   -4.1214 H   0  0  0  0  0  0  0  0  0  0  0  0
   -2.6372    1.3935   -4.9442 H   0  0  0  0  0  0  0  0  0  0  0  0
   -4.3882    1.6464   -4.7902 H   0  0  0  0  0  0  0  0  0  0  0  0
   -1.0079    0.3382   -2.6251 N   0  0  0  0  0  0  0  0  0  0  0  0
    0.4241    0.4422   -2.2664 C   0  0  2  0  0  0  0  0  0  0  0  0
    0.8241    1.3801   -1.0970 C   0  0  0  0  0  0  0  0  0  0  0  0
    1.1203    2.5532   -1.3055 O   0  0  0  0  0  0  0  0  0  0  0  0
    1.1679    0.8676   -3.5390 C   0  0  0  0  0  0  0  0  0  0  0  0
    1.0528   -0.4444   -4.8196 S   0  0  0  0  0  0  0  0  0  0  0  0
   -1.2260   -0.3090   -3.3789 H   0  0  0  0  0  0  0  0  0  0  0  0
    0.7746   -0.5556   -1.9854 H   0  0  0  0  0  0  0  0  0  0  0  0
    0.7546    1.8073   -3.9187 H   0  0  0  0  0  0  0  0  0  0  0  0
    2.2249    1.0396   -3.3077 H   0  0  0  0  0  0  0  0  0  0  0  0
    1.1709    0.8300    0.1230 N   0  0  0  0  0  0  0  0  0  0  0  0
    1.7529    1.5684    1.2499 C   0  0  2  0  0  0  0  0  0  0  0  0
    2.5032    0.6228    2.2119 C   0  0  0  0  0  0  0  0  0  0  0  0
    2.3994   -0.5933    2.0875 O   0  0  0  0  0  0  0  0  0  0  0  0
    0.6258    2.3054    1.9830 C   0  0  0  0  0  0  0  0  0  0  0  0
    1.0260   -0.1700    0.2558 H   0  0  0  0  0  0  0  0  0  0  0  0
    2.4785    2.2977    0.8746 H   0  0  0  0  0  0  0  0  0  0  0  0
   -0.1072    1.5926    2.3739 H   0  0  0  0  0  0  0  0  0  0  0  0
    1.0253    2.8886    2.8176 H   0  0  0  0  0  0  0  0  0  0  0  0
    0.1115    2.9903    1.3009 H   0  0  0  0  0  0  0  0  0  0  0  0
    3.3137    1.1334    3.2092 N   0  0  0  0  0  0  0  0  0  0  0  0
    4.0827    0.2960    4.1220 C   0  0  0  0  0  0  0  0  0  0  0  0
    3.4016    2.1434    3.2742 H   0  0  0  0  0  0  0  0  0  0  0  0
    3.4302   -0.4244    4.6267 H   0  0  0  0  0  0  0  0  0  0  0  0
    4.8570   -0.2528    3.5762 H   0  0  0  0  0  0  0  0  0  0  0  0
    4.5672    0.9130    4.8847 H   0  0  0  0  0  0  0  0  0  0  0  0
  1  2  2  0  0  0  0
  1  3  1  0  0  0  0
  1  7  1  0  0  0  0
  3  4  1  0  0  0  0
  3  5  1  0  0  0  0
  3  6  1  0  0  0  0
  7  8  1  0  0  0  0
  7 13  1  0  0  0  0
  8  9  1  0  0  0  0
  8 11  1  0  0  0  0
  8 14  1  0  0  0  0
  9 10  2  0  0  0  0
  9 17  1  0  0  0  0
 11 12  1  0  0  0  0
 11 15  1  0  0  0  0
 11 16  1  0  0  0  0
 12 44  1  0  0  0  0
 17 18  1  0  0  0  0
 17 19  1  0  0  0  0
 18 20  1  0  0  0  0
 18 21  1  0  0  0  0
 18 22  1  0  0  0  0
 23 24  2  0  0  0  0
 23 25  1  0  0  0  0
 23 29  1  0  0  0  0
 25 26  1  0  0  0  0
 25 27  1  0  0  0  0
 25 28  1  0  0  0  0
 29 30  1  0  0  0  0
 29 34  1  0  0  0  0
 30 31  1  0  0  0  0
 30 33  1  0  0  0  0
 30 35  1  0  0  0  0
 31 32  2  0  0  0  0
 31 39  1  0  0  0  0
 33 36  1  0  0  0  0
 33 37  1  0  0  0  0
 33 38  1  0  0  0  0
 39 40  1  0  0  0  0
 39 45  1  0  0  0  0
 40 41  1  0  0  0  0
 40 43  1  0  0  0  0
 40 46  1  0  0  0  0
 41 42  2  0  0  0  0
 41 49  1  0  0  0  0
 43 44  1  0  0  0  0
 43 47  1  0  0  0  0
 43 48  1  0  0  0  0
 49 50  1  0  0  0  0
 49 54  1  0  0  0  0
 50 51  1  0  0  0  0
 50 53  1  0  0  0  0
 50 55  1  0  0  0  0
 51 52  2  0  0  0  0
 51 59  1  0  0  0  0
 53 56  1  0  0  0  0
 53 57  1  0  0  0  0
 53 58  1  0  0  0  0
 59 60  1  0  0  0  0
 59 61  1  0  0  0  0
 60 62  1  0  0  0  0
 60 63  1  0  0  0  0
 60 64  1  0  0  0  0
M  END
$$$$

  -OEChem-05262216053D

 64 63  0     1  0  0  0  0  0999 V2000
    1.7162    0.8387  -10.1706 C   0  0  0  0  0  0  0  0  0  0  0  0
    0.5071    0.9977  -10.2377 O   0  0  0  0  0  0  0  0  0  0  0  0
    2.4378   -0.0008  -11.2076 C   0  0  0  0  0  0  0  0  0  0  0  0
    2.9399   -0.8415  -10.7225 H   0  0  0  0  0  0  0  0  0  0  0  0
    1.7242   -0.3901  -11.9389 H   0  0  0  0  0  0  0  0  0  0  0  0
    3.1814    0.6068  -11.7290 H   0  0  0  0  0  0  0  0  0  0  0  0
    2.4266    1.4295   -9.1491 N   0  0  0  0  0  0  0  0  0  0  0  0
    1.8449    2.3067   -8.1236 C   0  0  2  0  0  0  0  0  0  0  0  0
    2.9096    3.2289   -7.4880 C   0  0  0  0  0  0  0  0  0  0  0  0
    4.0765    3.1724   -7.8627 O   0  0  0  0  0  0  0  0  0  0  0  0
    1.1472    1.4481   -7.0565 C   0  0  0  0  0  0  0  0  0  0  0  0
    2.3460    0.3644   -6.1786 S   0  0  0  0  0  0  0  0  0  0  0  0
    3.4420    1.3382   -9.1574 H   0  0  0  0  0  0  0  0  0  0  0  0
    1.1002    2.9571   -8.5941 H   0  0  0  0  0  0  0  0  0  0  0  0
    0.6442    2.0945   -6.3323 H   0  0  0  0  0  0  0  0  0  0  0  0
    0.3799    0.8265   -7.5291 H   0  0  0  0  0  0  0  0  0  0  0  0
    2.5612    4.1469   -6.5128 N   0  0  0  0  0  0  0  0  0  0  0  0
    3.5338    4.9907   -5.8291 C   0  0  0  0  0  0  0  0  0  0  0  0
    1.5974    4.1560   -6.1931 H   0  0  0  0  0  0  0  0  0  0  0  0
    4.2432    4.3759   -5.2654 H   0  0  0  0  0  0  0  0  0  0  0  0
    4.0900    5.5998   -6.5497 H   0  0  0  0  0  0  0  0  0  0  0  0
    3.0261    5.6625   -5.1304 H   0  0  0  0  0  0  0  0  0  0  0  0
   -5.6745    0.8153   -1.9478 C   0  0  0  0  0  0  0  0  0  0  0  0
   -5.9155   -0.2054   -2.5725 O   0  0  0  0  0  0  0  0  0  0  0  0
   -6.6626    1.3249   -0.9165 C   0  0  0  0  0  0  0  0  0  0  0  0
   -6.9902    2.3330   -1.1808 H   0  0  0  0  0  0  0  0  0  0  0  0
   -7.5366    0.6693   -0.8758 H   0  0  0  0  0  0  0  0  0  0  0  0
   -6.1931    1.3479    0.0698 H   0  0  0  0  0  0  0  0  0  0  0  0
   -4.4971    1.5000   -2.1633 N   0  0  0  0  0  0  0  0  0  0  0  0
   -3.3710    0.9714   -2.9461 C   0  0  2  0  0  0  0  0  0  0  0  0
   -2.0350    1.1043   -2.1851 C   0  0  0  0  0  0  0  0  0  0  0  0
   -1.9667    1.8653   -1.2302 O   0  0  0  0  0  0  0  0  0  0  0  0
   -3.3108    1.7371   -4.2697 C   0  0  0  0  0  0  0  0  0  0  0  0
   -4.2702    2.2328   -1.4914 H   0  0  0  0  0  0  0  0  0  0  0  0
   -3.5204   -0.0930   -3.1564 H   0  0  0  0  0  0  0  0  0  0  0  0
   -3.1498    2.8046   -4.0879 H   0  0  0  0  0  0  0  0  0  0  0  0
   -2.4940    1.3619   -4.8938 H   0  0  0  0  0  0  0  0  0  0  0  0
   -4.2501    1.6150   -4.8185 H   0  0  0  0  0  0  0  0  0  0  0  0
   -0.9691    0.2929   -2.5400 N   0  0  0  0  0  0  0  0  0  0  0  0
    0.4594    0.4477   -2.1868 C   0  0  2  0  0  0  0  0  0  0  0  0
    0.8501    1.4230   -1.0459 C   0  0  0  0  0  0  0  0  0  0  0  0
    0.9350    2.6288   -1.2612 O   0  0  0  0  0  0  0  0  0  0  0  0
    1.1847    0.8722   -3.4694 C   0  0  0  0  0  0  0  0  0  0  0  0
    1.1057   -0.4667   -4.7248 S   0  0  0  0  0  0  0  0  0  0  0  0
   -1.1550   -0.3209   -3.3296 H   0  0  0  0  0  0  0  0  0  0  0  0
    0.8361   -0.5345   -1.8872 H   0  0  0  0  0  0  0  0  0  0  0  0
    0.7406    1.7912   -3.8651 H   0  0  0  0  0  0  0  0  0  0  0  0
    2.2361    1.0823   -3.2453 H   0  0  0  0  0  0  0  0  0  0  0  0
    1.5101    0.9264    0.0628 N   0  0  0  0  0  0  0  0  0  0  0  0
    2.1758    1.7369    1.0894 C   0  0  2  0  0  0  0  0  0  0  0  0
    3.2075    0.9014    1.8753 C   0  0  0  0  0  0  0  0  0  0  0  0
    3.2279   -0.3196    1.7591 O   0  0  0  0  0  0  0  0  0  0  0  0
    1.1131    2.3037    2.0378 C   0  0  0  0  0  0  0  0  0  0  0  0
    1.5684   -0.0855    0.1718 H   0  0  0  0  0  0  0  0  0  0  0  0
    2.7133    2.5626    0.6118 H   0  0  0  0  0  0  0  0  0  0  0  0
    0.5633    1.4923    2.5257 H   0  0  0  0  0  0  0  0  0  0  0  0
    1.5779    2.9240    2.8099 H   0  0  0  0  0  0  0  0  0  0  0  0
    0.3994    2.9223    1.4842 H   0  0  0  0  0  0  0  0  0  0  0  0
    4.1243    1.5176    2.7067 N   0  0  0  0  0  0  0  0  0  0  0  0
    5.1132    0.7845    3.4881 C   0  0  0  0  0  0  0  0  0  0  0  0
    4.0826    2.5295    2.7871 H   0  0  0  0  0  0  0  0  0  0  0  0
    4.6179    0.1359    4.2185 H   0  0  0  0  0  0  0  0  0  0  0  0
    5.7383    0.1659    2.8354 H   0  0  0  0  0  0  0  0  0  0  0  0
    5.7630    1.4809    4.0266 H   0  0  0  0  0  0  0  0  0  0  0  0
  1  2  2  0  0  0  0
  1  3  1  0  0  0  0
  1  7  1  0  0  0  0
  3  4  1  0  0  0  0
  3  5  1  0  0  0  0
  3  6  1  0  0  0  0
  7  8  1  0  0  0  0
  7 13  1  0  0  0  0
  8  9  1  0  0  0  0
  8 11  1  0  0  0  0
  8 14  1  0  0  0  0
  9 10  2  0  0  0  0
  9 17  1  0  0  0  0
 11 12  1  0  0  0  0
 11 15  1  0  0  0  0
 11 16  1  0  0  0  0
 12 44  1  0  0  0  0
 17 18  1  0  0  0  0
 17 19  1  0  0  0  0
 18 20  1  0  0  0  0
 18 21  1  0  0  0  0
 18 22  1  0  0  0  0
 23 24  2  0  0  0  0
 23 25  1  0  0  0  0
 23 29  1  0  0  0  0
 25 26  1  0  0  0  0
 25 27  1  0  0  0  0
 25 28  1  0  0  0  0
 29 30  1  0  0  0  0
 29 34  1  0  0  0  0
 30 31  1  0  0  0  0
 30 33  1  0  0  0  0
 30 35  1  0  0  0  0
 31 32  2  0  0  0  0
 31 39  1  0  0  0  0
 33 36  1  0  0  0  0
 33 37  1  0  0  0  0
 33 38  1  0  0  0  0
 39 40  1  0  0  0  0
 39 45  1  0  0  0  0
 40 41  1  0  0  0  0
 40 43  1  0  0  0  0
 40 46  1  0  0  0  0
 41 42  2  0  0  0  0
 41 49  1  0  0  0  0
 43 44  1  0  0  0  0
 43 47  1  0  0  0  0
 43 48  1  0  0  0  0
 49 50  1  0  0  0  0
 49 54  1  0  0  0  0
 50 51  1  0  0  0  0
 50 53  1  0  0  0  0
 50 55  1  0  0  0  0
 51 52  2  0  0  0  0
 51 59  1  0  0  0  0
 53 56  1  0  0  0  0
 53 57  1  0  0  0  0
 53 58  1  0  0  0  0
 59 60  1  0  0  0  0
 59 61  1  0  0  0  0
 60 62  1  0  0  0  0
 60 63  1  0  0  0  0
 60 64  1  0  0  0  0
M  END
$$$$

  -OEChem-05262216053D

 64 63  0     1  0  0  0  0  0999 V2000
    1.5449    0.9111  -10.0866 C   0  0  0  0  0  0  0  0  0  0  0  0
    0.3326    1.0526  -10.1275 O   0  0  0  0  0  0  0  0  0  0  0  0
    2.2691    0.1837  -11.2035 C   0  0  0  0  0  0  0  0  0  0  0  0
    2.7972   -0.6849  -10.8025 H   0  0  0  0  0  0  0  0  0  0  0  0
    1.5539   -0.1556  -11.9579 H   0  0  0  0  0  0  0  0  0  0  0  0
    2.9906    0.8527  -11.6785 H   0  0  0  0  0  0  0  0  0  0  0  0
    2.2565    1.4280   -9.0265 N   0  0  0  0  0  0  0  0  0  0  0  0
    1.6720    2.2333   -7.9451 C   0  0  2  0  0  0  0  0  0  0  0  0
    2.7144    3.1742   -7.3006 C   0  0  0  0  0  0  0  0  0  0  0  0
    3.8740    3.1760   -7.7009 O   0  0  0  0  0  0  0  0  0  0  0  0
    1.0423    1.2998   -6.8996 C   0  0  0  0  0  0  0  0  0  0  0  0
    2.3139    0.2520   -6.0821 S   0  0  0  0  0  0  0  0  0  0  0  0
    3.2740    1.3768   -9.0655 H   0  0  0  0  0  0  0  0  0  0  0  0
    0.8868    2.8726   -8.3620 H   0  0  0  0  0  0  0  0  0  0  0  0
    0.5219    1.8940   -6.1439 H   0  0  0  0  0  0  0  0  0  0  0  0
    0.2986    0.6563   -7.3807 H   0  0  0  0  0  0  0  0  0  0  0  0
    2.3491    4.0524   -6.2950 N   0  0  0  0  0  0  0  0  0  0  0  0
    3.2884    4.9586   -5.6452 C   0  0  0  0  0  0  0  0  0  0  0  0
    1.3845    4.0378   -5.9776 H   0  0  0  0  0  0  0  0  0  0  0  0
    4.1036    4.3959   -5.1782 H   0  0  0  0  0  0  0  0  0  0  0  0
    3.7138    5.6576   -6.3732 H   0  0  0  0  0  0  0  0  0  0  0  0
    2.7793    5.5367   -4.8679 H   0  0  0  0  0  0  0  0  0  0  0  0
   -5.6962    1.0654   -2.4129 C   0  0  0  0  0  0  0  0  0  0  0  0
   -5.9726    0.2374   -3.2664 O   0  0  0  0  0  0  0  0  0  0  0  0
   -6.7900    1.6526   -1.5415 C   0  0  0  0  0  0  0  0  0  0  0  0
   -6.7713    2.7432   -1.6040 H   0  0  0  0  0  0  0  0  0  0  0  0
   -7.7687    1.2976   -1.8763 H   0  0  0  0  0  0  0  0  0  0  0  0
   -6.6412    1.3509   -0.5018 H   0  0  0  0  0  0  0  0  0  0  0  0
   -4.3868    1.4578   -2.2329 N   0  0  0  0  0  0  0  0  0  0  0  0
   -3.2393    0.8259   -2.8971 C   0  0  2  0  0  0  0  0  0  0  0  0
   -1.9712    0.8605   -2.0176 C   0  0  0  0  0  0  0  0  0  0  0  0
   -1.9821    1.4881   -0.9676 O   0  0  0  0  0  0  0  0  0  0  0  0
   -2.9854    1.5488   -4.2237 C   0  0  0  0  0  0  0  0  0  0  0  0
   -4.1796    2.0409   -1.4220 H   0  0  0  0  0  0  0  0  0  0  0  0
   -3.4672   -0.2266   -3.0976 H   0  0  0  0  0  0  0  0  0  0  0  0
   -2.7376    2.5999   -4.0435 H   0  0  0  0  0  0  0  0  0  0  0  0
   -2.1573    1.0816   -4.7650 H   0  0  0  0  0  0  0  0  0  0  0  0
   -3.8777    1.5040   -4.8564 H   0  0  0  0  0  0  0  0  0  0  0  0
   -0.8871    0.0704   -2.3627 N   0  0  0  0  0  0  0  0  0  0  0  0
    0.5383    0.3001   -2.0384 C   0  0  2  0  0  0  0  0  0  0  0  0
    0.9173    1.3363   -0.9482 C   0  0  0  0  0  0  0  0  0  0  0  0
    0.7448    2.5344   -1.1529 O   0  0  0  0  0  0  0  0  0  0  0  0
    1.2107    0.7317   -3.3472 C   0  0  0  0  0  0  0  0  0  0  0  0
    1.1717   -0.6307   -4.5784 S   0  0  0  0  0  0  0  0  0  0  0  0
   -1.0408   -0.4800   -3.2038 H   0  0  0  0  0  0  0  0  0  0  0  0
    0.9653   -0.6546   -1.7174 H   0  0  0  0  0  0  0  0  0  0  0  0
    0.7112    1.6193   -3.7477 H   0  0  0  0  0  0  0  0  0  0  0  0
    2.2553    0.9993   -3.1551 H   0  0  0  0  0  0  0  0  0  0  0  0
    1.8698    0.9977   -0.0035 N   0  0  0  0  0  0  0  0  0  0  0  0
    2.5546    1.9430    0.8879 C   0  0  2  0  0  0  0  0  0  0  0  0
    3.8678    1.3457    1.4371 C   0  0  0  0  0  0  0  0  0  0  0  0
    4.1167    0.1553    1.2760 O   0  0  0  0  0  0  0  0  0  0  0  0
    1.6070    2.3064    2.0371 C   0  0  0  0  0  0  0  0  0  0  0  0
    2.1614    0.0226    0.0570 H   0  0  0  0  0  0  0  0  0  0  0  0
    2.8133    2.8497    0.3310 H   0  0  0  0  0  0  0  0  0  0  0  0
    1.3407    1.4125    2.6100 H   0  0  0  0  0  0  0  0  0  0  0  0
    2.0779    3.0267    2.7123 H   0  0  0  0  0  0  0  0  0  0  0  0
    0.6873    2.7541    1.6465 H   0  0  0  0  0  0  0  0  0  0  0  0
    4.7810    2.1446    2.1007 N   0  0  0  0  0  0  0  0  0  0  0  0
    6.0408    1.6447    2.6385 C   0  0  0  0  0  0  0  0  0  0  0  0
    4.5547    3.1289    2.2102 H   0  0  0  0  0  0  0  0  0  0  0  0
    5.8572    0.8542    3.3739 H   0  0  0  0  0  0  0  0  0  0  0  0
    6.6676    1.2411    1.8361 H   0  0  0  0  0  0  0  0  0  0  0  0
    6.5891    2.4534    3.1310 H   0  0  0  0  0  0  0  0  0  0  0  0
  1  2  2  0  0  0  0
  1  3  1  0  0  0  0
  1  7  1  0  0  0  0
  3  4  1  0  0  0  0
  3  5  1  0  0  0  0
  3  6  1  0  0  0  0
  7  8  1  0  0  0  0
  7 13  1  0  0  0  0
  8  9  1  0  0  0  0
  8 11  1  0  0  0  0
  8 14  1  0  0  0  0
  9 10  2  0  0  0  0
  9 17  1  0  0  0  0
 11 12  1  0  0  0  0
 11 15  1  0  0  0  0
 11 16  1  0  0  0  0
 12 44  1  0  0  0  0
 17 18  1  0  0  0  0
 17 19  1  0  0  0  0
 18 20  1  0  0  0  0
 18 21  1  0  0  0  0
 18 22  1  0  0  0  0
 23 24  2  0  0  0  0
 23 25  1  0  0  0  0
 23 29  1  0  0  0  0
 25 26  1  0  0  0  0
 25 27  1  0  0  0  0
 25 28  1  0  0  0  0
 29 30  1  0  0  0  0
 29 34  1  0  0  0  0
 30 31  1  0  0  0  0
 30 33  1  0  0  0  0
 30 35  1  0  0  0  0
 31 32  2  0  0  0  0
 31 39  1  0  0  0  0
 33 36  1  0  0  0  0
 33 37  1  0  0  0  0
 33 38  1  0  0  0  0
 39 40  1  0  0  0  0
 39 45  1  0  0  0  0
 40 41  1  0  0  0  0
 40 43  1  0  0  0  0
 40 46  1  0  0  0  0
 41 42  2  0  0  0  0
 41 49  1  0  0  0  0
 43 44  1  0  0  0  0
 43 47  1  0  0  0  0
 43 48  1  0  0  0  0
 49 50  1  0  0  0  0
 49 54  1  0  0  0  0
 50 51  1  0  0  0  0
 50 53  1  0  0  0  0
 50 55  1  0  0  0  0
 51 52  2  0  0  0  0
 51 59  1  0  0  0  0
 53 56  1  0  0  0  0
 53 57  1  0  0  0  0
 53 58  1  0  0  0  0
 59 60  1  0  0  0  0
 59 61  1  0  0  0  0
 60 62  1  0  0  0  0
 60 63  1  0  0  0  0
 60 64  1  0  0  0  0
M  END
$$$$

  -OEChem-05262216053D

 64 63  0     1  0  0  0  0  0999 V2000
    1.6443    0.8078   -9.9680 C   0  0  0  0  0  0  0  0  0  0  0  0
    0.4359    0.9687  -10.0412 O   0  0  0  0  0  0  0  0  0  0  0  0
    2.3641   -0.0693  -10.9745 C   0  0  0  0  0  0  0  0  0  0  0  0
    2.8690   -0.8892  -10.4582 H   0  0  0  0  0  0  0  0  0  0  0  0
    1.6494   -0.4889  -11.6879 H   0  0  0  0  0  0  0  0  0  0  0  0
    3.1051    0.5186  -11.5214 H   0  0  0  0  0  0  0  0  0  0  0  0
    2.3536    1.4228   -8.9604 N   0  0  0  0  0  0  0  0  0  0  0  0
    1.7683    2.3100   -7.9457 C   0  0  2  0  0  0  0  0  0  0  0  0
    2.8238    3.2624   -7.3412 C   0  0  0  0  0  0  0  0  0  0  0  0
    3.9954    3.1918   -7.6978 O   0  0  0  0  0  0  0  0  0  0  0  0
    1.1007    1.4599   -6.8528 C   0  0  0  0  0  0  0  0  0  0  0  0
    2.3332    0.4145   -5.9743 S   0  0  0  0  0  0  0  0  0  0  0  0
    3.3684    1.3254   -8.9610 H   0  0  0  0  0  0  0  0  0  0  0  0
    1.0063    2.9385   -8.4185 H   0  0  0  0  0  0  0  0  0  0  0  0
    0.5986    2.1118   -6.1330 H   0  0  0  0  0  0  0  0  0  0  0  0
    0.3364    0.8171   -7.3017 H   0  0  0  0  0  0  0  0  0  0  0  0
    2.4603    4.2278   -6.4187 N   0  0  0  0  0  0  0  0  0  0  0  0
    3.4162    5.1360   -5.7961 C   0  0  0  0  0  0  0  0  0  0  0  0
    1.4876    4.2668   -6.1296 H   0  0  0  0  0  0  0  0  0  0  0  0
    4.1365    4.5765   -5.1900 H   0  0  0  0  0  0  0  0  0  0  0  0
    3.9623    5.7019   -6.5584 H   0  0  0  0  0  0  0  0  0  0  0  0
    2.8957    5.8469   -5.1471 H   0  0  0  0  0  0  0  0  0  0  0  0
   -5.7647    0.8094   -2.4073 C   0  0  0  0  0  0  0  0  0  0  0  0
   -5.9452    0.0344   -3.3334 O   0  0  0  0  0  0  0  0  0  0  0  0
   -6.9060    1.1464   -1.4660 C   0  0  0  0  0  0  0  0  0  0  0  0
   -7.0983    2.2216   -1.4833 H   0  0  0  0  0  0  0  0  0  0  0  0
   -7.8149    0.6205   -1.7722 H   0  0  0  0  0  0  0  0  0  0  0  0
   -6.6507    0.8453   -0.4472 H   0  0  0  0  0  0  0  0  0  0  0  0
   -4.5192    1.3657   -2.2052 N   0  0  0  0  0  0  0  0  0  0  0  0
   -3.3058    0.9475   -2.9191 C   0  0  2  0  0  0  0  0  0  0  0  0
   -2.0657    0.9667   -2.0003 C   0  0  0  0  0  0  0  0  0  0  0  0
   -2.1322    1.5197   -0.9115 O   0  0  0  0  0  0  0  0  0  0  0  0
   -3.1009    1.8798   -4.1158 C   0  0  0  0  0  0  0  0  0  0  0  0
   -4.3766    1.8808   -1.3364 H   0  0  0  0  0  0  0  0  0  0  0  0
   -3.4264   -0.0789   -3.2808 H   0  0  0  0  0  0  0  0  0  0  0  0
   -2.9641    2.9115   -3.7765 H   0  0  0  0  0  0  0  0  0  0  0  0
   -2.2193    1.5811   -4.6909 H   0  0  0  0  0  0  0  0  0  0  0  0
   -3.9730    1.8430   -4.7767 H   0  0  0  0  0  0  0  0  0  0  0  0
   -0.9646    0.1961   -2.3329 N   0  0  0  0  0  0  0  0  0  0  0  0
    0.4530    0.4310   -1.9760 C   0  0  2  0  0  0  0  0  0  0  0  0
    0.8361    1.4457   -0.8663 C   0  0  0  0  0  0  0  0  0  0  0  0
    0.5080    2.6234   -0.9635 O   0  0  0  0  0  0  0  0  0  0  0  0
    1.1419    0.8879   -3.2680 C   0  0  0  0  0  0  0  0  0  0  0  0
    1.1301   -0.4608   -4.5147 S   0  0  0  0  0  0  0  0  0  0  0  0
   -1.0902   -0.3267   -3.1962 H   0  0  0  0  0  0  0  0  0  0  0  0
    0.8753   -0.5287   -1.6644 H   0  0  0  0  0  0  0  0  0  0  0  0
    0.6425    1.7782   -3.6640 H   0  0  0  0  0  0  0  0  0  0  0  0
    2.1824    1.1583   -3.0578 H   0  0  0  0  0  0  0  0  0  0  0  0
    1.9868    1.1999   -0.1363 N   0  0  0  0  0  0  0  0  0  0  0  0
    2.7508    2.1977    0.6254 C   0  0  2  0  0  0  0  0  0  0  0  0
    4.2070    1.7329    0.8420 C   0  0  0  0  0  0  0  0  0  0  0  0
    4.5344    0.5870    0.5509 O   0  0  0  0  0  0  0  0  0  0  0  0
    2.0547    2.4325    1.9709 C   0  0  0  0  0  0  0  0  0  0  0  0
    2.4138    0.2775   -0.2207 H   0  0  0  0  0  0  0  0  0  0  0  0
    2.7873    3.1391    0.0670 H   0  0  0  0  0  0  0  0  0  0  0  0
    2.0084    1.5016    2.5451 H   0  0  0  0  0  0  0  0  0  0  0  0
    2.5955    3.1792    2.5599 H   0  0  0  0  0  0  0  0  0  0  0  0
    1.0338    2.7947    1.8128 H   0  0  0  0  0  0  0  0  0  0  0  0
    5.1582    2.6015    1.3453 N   0  0  0  0  0  0  0  0  0  0  0  0
    6.5417    2.2146    1.5973 C   0  0  0  0  0  0  0  0  0  0  0  0
    4.8558    3.5389    1.5943 H   0  0  0  0  0  0  0  0  0  0  0  0
    6.5916    1.4806    2.4083 H   0  0  0  0  0  0  0  0  0  0  0  0
    6.9900    1.7776    0.6987 H   0  0  0  0  0  0  0  0  0  0  0  0
    7.1332    3.0893    1.8837 H   0  0  0  0  0  0  0  0  0  0  0  0
  1  2  2  0  0  0  0
  1  3  1  0  0  0  0
  1  7  1  0  0  0  0
  3  4  1  0  0  0  0
  3  5  1  0  0  0  0
  3  6  1  0  0  0  0
  7  8  1  0  0  0  0
  7 13  1  0  0  0  0
  8  9  1  0  0  0  0
  8 11  1  0  0  0  0
  8 14  1  0  0  0  0
  9 10  2  0  0  0  0
  9 17  1  0  0  0  0
 11 12  1  0  0  0  0
 11 15  1  0  0  0  0
 11 16  1  0  0  0  0
 12 44  1  0  0  0  0
 17 18  1  0  0  0  0
 17 19  1  0  0  0  0
 18 20  1  0  0  0  0
 18 21  1  0  0  0  0
 18 22  1  0  0  0  0
 23 24  2  0  0  0  0
 23 25  1  0  0  0  0
 23 29  1  0  0  0  0
 25 26  1  0  0  0  0
 25 27  1  0  0  0  0
 25 28  1  0  0  0  0
 29 30  1  0  0  0  0
 29 34  1  0  0  0  0
 30 31  1  0  0  0  0
 30 33  1  0  0  0  0
 30 35  1  0  0  0  0
 31 32  2  0  0  0  0
 31 39  1  0  0  0  0
 33 36  1  0  0  0  0
 33 37  1  0  0  0  0
 33 38  1  0  0  0  0
 39 40  1  0  0  0  0
 39 45  1  0  0  0  0
 40 41  1  0  0  0  0
 40 43  1  0  0  0  0
 40 46  1  0  0  0  0
 41 42  2  0  0  0  0
 41 49  1  0  0  0  0
 43 44  1  0  0  0  0
 43 47  1  0  0  0  0
 43 48  1  0  0  0  0
 49 50  1  0  0  0  0
 49 54  1  0  0  0  0
 50 51  1  0  0  0  0
 50 53  1  0  0  0  0
 50 55  1  0  0  0  0
 51 52  2  0  0  0  0
 51 59  1  0  0  0  0
 53 56  1  0  0  0  0
 53 57  1  0  0  0  0
 53 58  1  0  0  0  0
 59 60  1  0  0  0  0
 59 61  1  0  0  0  0
 60 62  1  0  0  0  0
 60 63  1  0  0  0  0
 60 64  1  0  0  0  0
M  END
$$$$

  -OEChem-05262216053D

 64 63  0     1  0  0  0  0  0999 V2000
    1.7486    0.7009  -10.2134 C   0  0  0  0  0  0  0  0  0  0  0  0
    0.5516    0.4769  -10.3055 O   0  0  0  0  0  0  0  0  0  0  0  0
    2.6719    0.4049  -11.3797 C   0  0  0  0  0  0  0  0  0  0  0  0
    3.3862   -0.3728  -11.0993 H   0  0  0  0  0  0  0  0  0  0  0  0
    2.0931    0.0593  -12.2405 H   0  0  0  0  0  0  0  0  0  0  0  0
    3.2184    1.3077  -11.6626 H   0  0  0  0  0  0  0  0  0  0  0  0
    2.2631    1.2273   -9.0497 N   0  0  0  0  0  0  0  0  0  0  0  0
    1.4599    1.6362   -7.8889 C   0  0  2  0  0  0  0  0  0  0  0  0
    2.1517    2.7624   -7.0855 C   0  0  0  0  0  0  0  0  0  0  0  0
    3.2739    3.1432   -7.4087 O   0  0  0  0  0  0  0  0  0  0  0  0
    1.1819    0.4050   -7.0143 C   0  0  0  0  0  0  0  0  0  0  0  0
    2.7283   -0.2795   -6.2805 S   0  0  0  0  0  0  0  0  0  0  0  0
    3.2489    1.4857   -9.0376 H   0  0  0  0  0  0  0  0  0  0  0  0
    0.5032    2.0408   -8.2356 H   0  0  0  0  0  0  0  0  0  0  0  0
    0.4908    0.6854   -6.2161 H   0  0  0  0  0  0  0  0  0  0  0  0
    0.6909   -0.3712   -7.6098 H   0  0  0  0  0  0  0  0  0  0  0  0
    1.5150    3.3930   -6.0319 N   0  0  0  0  0  0  0  0  0  0  0  0
    2.1338    4.4336   -5.2233 C   0  0  0  0  0  0  0  0  0  0  0  0
    0.6051    3.0303   -5.7304 H   0  0  0  0  0  0  0  0  0  0  0  0
    3.0382    4.0542   -4.7372 H   0  0  0  0  0  0  0  0  0  0  0  0
    2.3996    5.2954   -5.8440 H   0  0  0  0  0  0  0  0  0  0  0  0
    1.4372    4.7675   -4.4480 H   0  0  0  0  0  0  0  0  0  0  0  0
   -2.9305    0.4822   -1.4475 C   0  0  0  0  0  0  0  0  0  0  0  0
   -2.6531   -0.5881   -1.9707 O   0  0  0  0  0  0  0  0  0  0  0  0
   -2.9358    0.6150    0.0627 C   0  0  0  0  0  0  0  0  0  0  0  0
   -3.9142    0.9627    0.4030 H   0  0  0  0  0  0  0  0  0  0  0  0
   -2.7239   -0.3520    0.5279 H   0  0  0  0  0  0  0  0  0  0  0  0
   -2.1727    1.3322    0.3751 H   0  0  0  0  0  0  0  0  0  0  0  0
   -3.1329    1.5943   -2.2376 N   0  0  0  0  0  0  0  0  0  0  0  0
   -2.8972    1.5960   -3.6883 C   0  0  2  0  0  0  0  0  0  0  0  0
   -1.3830    1.6084   -3.9996 C   0  0  0  0  0  0  0  0  0  0  0  0
   -0.8394    2.5235   -4.6090 O   0  0  0  0  0  0  0  0  0  0  0  0
   -3.6385    2.8016   -4.2777 C   0  0  0  0  0  0  0  0  0  0  0  0
   -3.0937    2.4908   -1.7577 H   0  0  0  0  0  0  0  0  0  0  0  0
   -3.3218    0.6906   -4.1352 H   0  0  0  0  0  0  0  0  0  0  0  0
   -3.2396    3.7366   -3.8714 H   0  0  0  0  0  0  0  0  0  0  0  0
   -3.5250    2.8209   -5.3661 H   0  0  0  0  0  0  0  0  0  0  0  0
   -4.7059    2.7447   -4.0435 H   0  0  0  0  0  0  0  0  0  0  0  0
   -0.5979    0.5177   -3.6860 N   0  0  0  0  0  0  0  0  0  0  0  0
    0.5399    0.5792   -2.7376 C   0  0  2  0  0  0  0  0  0  0  0  0
    0.6840    1.7938   -1.7746 C   0  0  0  0  0  0  0  0  0  0  0  0
   -0.1315    2.7066   -1.6991 O   0  0  0  0  0  0  0  0  0  0  0  0
    1.8084    0.5514   -3.6005 C   0  0  0  0  0  0  0  0  0  0  0  0
    1.9618   -1.0452   -4.4959 S   0  0  0  0  0  0  0  0  0  0  0  0
   -1.2077   -0.2717   -3.4580 H   0  0  0  0  0  0  0  0  0  0  0  0
    0.5088   -0.3171   -2.1098 H   0  0  0  0  0  0  0  0  0  0  0  0
    1.7810    1.3829   -4.3086 H   0  0  0  0  0  0  0  0  0  0  0  0
    2.7032    0.6806   -2.9837 H   0  0  0  0  0  0  0  0  0  0  0  0
    1.5575    1.6736   -0.7087 N   0  0  0  0  0  0  0  0  0  0  0  0
    1.8395    2.7383    0.2640 C   0  0  2  0  0  0  0  0  0  0  0  0
    3.3126    2.6949    0.7213 C   0  0  0  0  0  0  0  0  0  0  0  0
    4.0101    1.7258    0.4425 O   0  0  0  0  0  0  0  0  0  0  0  0
    0.8972    2.5723    1.4603 C   0  0  0  0  0  0  0  0  0  0  0  0
    2.2561    0.9310   -0.7646 H   0  0  0  0  0  0  0  0  0  0  0  0
    1.6710    3.7174   -0.1969 H   0  0  0  0  0  0  0  0  0  0  0  0
    1.0463    1.5961    1.9331 H   0  0  0  0  0  0  0  0  0  0  0  0
    1.0802    3.3524    2.2054 H   0  0  0  0  0  0  0  0  0  0  0  0
   -0.1445    2.6470    1.1344 H   0  0  0  0  0  0  0  0  0  0  0  0
    3.8606    3.7468    1.4315 N   0  0  0  0  0  0  0  0  0  0  0  0
    5.2453    3.7674    1.8873 C   0  0  0  0  0  0  0  0  0  0  0  0
    3.2657    4.5463    1.6285 H   0  0  0  0  0  0  0  0  0  0  0  0
    5.4420    2.9204    2.5530 H   0  0  0  0  0  0  0  0  0  0  0  0
    5.9305    3.7126    1.0349 H   0  0  0  0  0  0  0  0  0  0  0  0
    5.4498    4.6918    2.4359 H   0  0  0  0  0  0  0  0  0  0  0  0
  1  2  2  0  0  0  0
  1  3  1  0  0  0  0
  1  7  1  0  0  0  0
  3  4  1  0  0  0  0
  3  5  1  0  0  0  0
  3  6  1  0  0  0  0
  7  8  1  0  0  0  0
  7 13  1  0  0  0  0
  8  9  1  0  0  0  0
  8 11  1  0  0  0  0
  8 14  1  0  0  0  0
  9 10  2  0  0  0  0
  9 17  1  0  0  0  0
 11 12  1  0  0  0  0
 11 15  1  0  0  0  0
 11 16  1  0  0  0  0
 12 44  1  0  0  0  0
 17 18  1  0  0  0  0
 17 19  1  0  0  0  0
 18 20  1  0  0  0  0
 18 21  1  0  0  0  0
 18 22  1  0  0  0  0
 23 24  2  0  0  0  0
 23 25  1  0  0  0  0
 23 29  1  0  0  0  0
 25 26  1  0  0  0  0
 25 27  1  0  0  0  0
 25 28  1  0  0  0  0
 29 30  1  0  0  0  0
 29 34  1  0  0  0  0
 30 31  1  0  0  0  0
 30 33  1  0  0  0  0
 30 35  1  0  0  0  0
 31 32  2  0  0  0  0
 31 39  1  0  0  0  0
 33 36  1  0  0  0  0
 33 37  1  0  0  0  0
 33 38  1  0  0  0  0
 39 40  1  0  0  0  0
 39 45  1  0  0  0  0
 40 41  1  0  0  0  0
 40 43  1  0  0  0  0
 40 46  1  0  0  0  0
 41 42  2  0  0  0  0
 41 49  1  0  0  0  0
 43 44  1  0  0  0  0
 43 47  1  0  0  0  0
 43 48  1  0  0  0  0
 49 50  1  0  0  0  0
 49 54  1  0  0  0  0
 50 51  1  0  0  0  0
 50 53  1  0  0  0  0
 50 55  1  0  0  0  0
 51 52  2  0  0  0  0
 51 59  1  0  0  0  0
 53 56  1  0  0  0  0
 53 57  1  0  0  0  0
 53 58  1  0  0  0  0
 59 60  1  0  0  0  0
 59 61  1  0  0  0  0
 60 62  1  0  0  0  0
 60 63  1  0  0  0  0
 60 64  1  0  0  0  0
M  END
$$$$

  -OEChem-05262216053D

 64 63  0     1  0  0  0  0  0999 V2000
    1.5339    2.5766   -9.8808 C   0  0  0  0  0  0  0  0  0  0  0  0
    0.3218    2.4431   -9.9493 O   0  0  0  0  0  0  0  0  0  0  0  0
    2.3900    2.4068  -11.1212 C   0  0  0  0  0  0  0  0  0  0  0  0
    3.1117    1.6010  -10.9670 H   0  0  0  0  0  0  0  0  0  0  0  0
    1.7620    2.1578  -11.9811 H   0  0  0  0  0  0  0  0  0  0  0  0
    2.9279    3.3336  -11.3342 H   0  0  0  0  0  0  0  0  0  0  0  0
    2.1248    2.8786   -8.6740 N   0  0  0  0  0  0  0  0  0  0  0  0
    1.3962    3.0968   -7.4164 C   0  0  2  0  0  0  0  0  0  0  0  0
    2.2071    3.9633   -6.4245 C   0  0  0  0  0  0  0  0  0  0  0  0
    3.3138    4.3864   -6.7481 O   0  0  0  0  0  0  0  0  0  0  0  0
    1.0316    1.7361   -6.8064 C   0  0  0  0  0  0  0  0  0  0  0  0
    2.5252    0.7962   -6.2806 S   0  0  0  0  0  0  0  0  0  0  0  0
    3.1265    3.0661   -8.6641 H   0  0  0  0  0  0  0  0  0  0  0  0
    0.4713    3.6435   -7.6277 H   0  0  0  0  0  0  0  0  0  0  0  0
    0.3806    1.8950   -5.9446 H   0  0  0  0  0  0  0  0  0  0  0  0
    0.4677    1.1407   -7.5312 H   0  0  0  0  0  0  0  0  0  0  0  0
    1.6952    4.3155   -5.1881 N   0  0  0  0  0  0  0  0  0  0  0  0
    2.4376    5.0895   -4.2029 C   0  0  0  0  0  0  0  0  0  0  0  0
    0.7980    3.9119   -4.9032 H   0  0  0  0  0  0  0  0  0  0  0  0
    3.3533    4.5644   -3.9123 H   0  0  0  0  0  0  0  0  0  0  0  0
    2.7051    6.0708   -4.6080 H   0  0  0  0  0  0  0  0  0  0  0  0
    1.8256    5.2397   -3.3082 H   0  0  0  0  0  0  0  0  0  0  0  0
   -3.4927    0.8596   -1.7070 C   0  0  0  0  0  0  0  0  0  0  0  0
   -3.2806   -0.0889   -2.4508 O   0  0  0  0  0  0  0  0  0  0  0  0
   -3.7418    0.6322   -0.2291 C   0  0  0  0  0  0  0  0  0  0  0  0
   -4.6778    1.1101    0.0689 H   0  0  0  0  0  0  0  0  0  0  0  0
   -3.8100   -0.4384   -0.0184 H   0  0  0  0  0  0  0  0  0  0  0  0
   -2.9210    1.0569    0.3550 H   0  0  0  0  0  0  0  0  0  0  0  0
   -3.4039    2.1451   -2.1998 N   0  0  0  0  0  0  0  0  0  0  0  0
   -2.9041    2.4448   -3.5493 C   0  0  2  0  0  0  0  0  0  0  0  0
   -1.3704    2.2670   -3.6152 C   0  0  0  0  0  0  0  0  0  0  0  0
   -0.6095    3.2138   -3.7934 O   0  0  0  0  0  0  0  0  0  0  0  0
   -3.3585    3.8635   -3.9105 C   0  0  0  0  0  0  0  0  0  0  0  0
   -3.3113    2.8745   -1.4963 H   0  0  0  0  0  0  0  0  0  0  0  0
   -3.3509    1.7557   -4.2742 H   0  0  0  0  0  0  0  0  0  0  0  0
   -2.9316    4.5946   -3.2164 H   0  0  0  0  0  0  0  0  0  0  0  0
   -3.0348    4.1177   -4.9245 H   0  0  0  0  0  0  0  0  0  0  0  0
   -4.4494    3.9365   -3.8678 H   0  0  0  0  0  0  0  0  0  0  0  0
   -0.8232    1.0031   -3.4964 N   0  0  0  0  0  0  0  0  0  0  0  0
    0.3279    0.7062   -2.6131 C   0  0  2  0  0  0  0  0  0  0  0  0
    0.4682    1.5700   -1.3262 C   0  0  0  0  0  0  0  0  0  0  0  0
   -0.4744    2.2122   -0.8694 O   0  0  0  0  0  0  0  0  0  0  0  0
    1.6022    0.8673   -3.4604 C   0  0  0  0  0  0  0  0  0  0  0  0
    1.6549   -0.3890   -4.8006 S   0  0  0  0  0  0  0  0  0  0  0  0
   -1.5662    0.3009   -3.4306 H   0  0  0  0  0  0  0  0  0  0  0  0
    0.2522   -0.3343   -2.2829 H   0  0  0  0  0  0  0  0  0  0  0  0
    1.6375    1.8745   -3.8833 H   0  0  0  0  0  0  0  0  0  0  0  0
    2.5004    0.7436   -2.8486 H   0  0  0  0  0  0  0  0  0  0  0  0
    1.5280    1.3364   -0.4680 N   0  0  0  0  0  0  0  0  0  0  0  0
    1.8187    2.1433    0.7253 C   0  0  2  0  0  0  0  0  0  0  0  0
    3.3155    2.5134    0.7850 C   0  0  0  0  0  0  0  0  0  0  0  0
    4.1148    1.9387    0.0537 O   0  0  0  0  0  0  0  0  0  0  0  0
    1.4026    1.3404    1.9608 C   0  0  0  0  0  0  0  0  0  0  0  0
    2.3283    0.8417   -0.8625 H   0  0  0  0  0  0  0  0  0  0  0  0
    1.2544    3.0814    0.6989 H   0  0  0  0  0  0  0  0  0  0  0  0
    1.9667    0.4038    2.0173 H   0  0  0  0  0  0  0  0  0  0  0  0
    1.5883    1.9147    2.8735 H   0  0  0  0  0  0  0  0  0  0  0  0
    0.3351    1.1021    1.9139 H   0  0  0  0  0  0  0  0  0  0  0  0
    3.7645    3.5053    1.6371 N   0  0  0  0  0  0  0  0  0  0  0  0
    5.1554    3.9397    1.6905 C   0  0  0  0  0  0  0  0  0  0  0  0
    3.0743    3.9947    2.1995 H   0  0  0  0  0  0  0  0  0  0  0  0
    5.8155    3.0903    1.8963 H   0  0  0  0  0  0  0  0  0  0  0  0
    5.4513    4.3930    0.7386 H   0  0  0  0  0  0  0  0  0  0  0  0
    5.2908    4.6805    2.4843 H   0  0  0  0  0  0  0  0  0  0  0  0
  1  2  2  0  0  0  0
  1  3  1  0  0  0  0
  1  7  1  0  0  0  0
  3  4  1  0  0  0  0
  3  5  1  0  0  0  0
  3  6  1  0  0  0  0
  7  8  1  0  0  0  0
  7 13  1  0  0  0  0
  8  9  1  0  0  0  0
  8 11  1  0  0  0  0
  8 14  1  0  0  0  0
  9 10  2  0  0  0  0
  9 17  1  0  0  0  0
 11 12  1  0  0  0  0
 11 15  1  0  0  0  0
 11 16  1  0  0  0  0
 12 44  1  0  0  0  0
 17 18  1  0  0  0  0
 17 19  1  0  0  0  0
 18 20  1  0  0  0  0
 18 21  1  0  0  0  0
 18 22  1  0  0  0  0
 23 24  2  0  0  0  0
 23 25  1  0  0  0  0
 23 29  1  0  0  0  0
 25 26  1  0  0  0  0
 25 27  1  0  0  0  0
 25 28  1  0  0  0  0
 29 30  1  0  0  0  0
 29 34  1  0  0  0  0
 30 31  1  0  0  0  0
 30 33  1  0  0  0  0
 30 35  1  0  0  0  0
 31 32  2  0  0  0  0
 31 39  1  0  0  0  0
 33 36  1  0  0  0  0
 33 37  1  0  0  0  0
 33 38  1  0  0  0  0
 39 40  1  0  0  0  0
 39 45  1  0  0  0  0
 40 41  1  0  0  0  0
 40 43  1  0  0  0  0
 40 46  1  0  0  0  0
 41 42  2  0  0  0  0
 41 49  1  0  0  0  0
 43 44  1  0  0  0  0
 43 47  1  0  0  0  0
 43 48  1  0  0  0  0
 49 50  1  0  0  0  0
 49 54  1  0  0  0  0
 50 51  1  0  0  0  0
 50 53  1  0  0  0  0
 50 55  1  0  0  0  0
 51 52  2  0  0  0  0
 51 59  1  0  0  0  0
 53 56  1  0  0  0  0
 53 57  1  0  0  0  0
 53 58  1  0  0  0  0
 59 60  1  0  0  0  0
 59 61  1  0  0  0  0
 60 62  1  0  0  0  0
 60 63  1  0  0  0  0
 60 64  1  0  0  0  0
M  END
$$$$

  -OEChem-05262216053D

 64 63  0     1  0  0  0  0  0999 V2000
    0.9254    3.3531   -9.2506 C   0  0  0  0  0  0  0  0  0  0  0  0
   -0.2535    3.0355   -9.2131 O   0  0  0  0  0  0  0  0  0  0  0  0
    1.6036    3.6139  -10.5820 C   0  0  0  0  0  0  0  0  0  0  0  0
    2.5264    3.0328  -10.6520 H   0  0  0  0  0  0  0  0  0  0  0  0
    0.9429    3.3241  -11.4039 H   0  0  0  0  0  0  0  0  0  0  0  0
    1.8415    4.6762  -10.6759 H   0  0  0  0  0  0  0  0  0  0  0  0
    1.6386    3.4779   -8.0791 N   0  0  0  0  0  0  0  0  0  0  0  0
    1.0703    3.3154   -6.7338 C   0  0  2  0  0  0  0  0  0  0  0  0
    1.8947    4.0742   -5.6677 C   0  0  0  0  0  0  0  0  0  0  0  0
    2.9101    4.6781   -6.0028 O   0  0  0  0  0  0  0  0  0  0  0  0
    0.9721    1.8176   -6.4094 C   0  0  0  0  0  0  0  0  0  0  0  0
    2.6318    1.0352   -6.2352 S   0  0  0  0  0  0  0  0  0  0  0  0
    2.5967    3.8223   -8.1352 H   0  0  0  0  0  0  0  0  0  0  0  0
    0.0631    3.7446   -6.7176 H   0  0  0  0  0  0  0  0  0  0  0  0
    0.4145    1.6957   -5.4800 H   0  0  0  0  0  0  0  0  0  0  0  0
    0.4106    1.3022   -7.1944 H   0  0  0  0  0  0  0  0  0  0  0  0
    1.4975    4.1190   -4.3425 N   0  0  0  0  0  0  0  0  0  0  0  0
    2.3138    4.7070   -3.2882 C   0  0  0  0  0  0  0  0  0  0  0  0
    0.6842    3.5646   -4.0618 H   0  0  0  0  0  0  0  0  0  0  0  0
    3.2999    4.2317   -3.2545 H   0  0  0  0  0  0  0  0  0  0  0  0
    2.4452    5.7806   -3.4567 H   0  0  0  0  0  0  0  0  0  0  0  0
    1.8300    4.5647   -2.3169 H   0  0  0  0  0  0  0  0  0  0  0  0
   -4.6024    2.2942   -2.2532 C   0  0  0  0  0  0  0  0  0  0  0  0
   -5.2281    1.2576   -2.4087 O   0  0  0  0  0  0  0  0  0  0  0  0
   -5.2018    3.4286   -1.4438 C   0  0  0  0  0  0  0  0  0  0  0  0
   -5.2777    4.3277   -2.0600 H   0  0  0  0  0  0  0  0  0  0  0  0
   -6.2015    3.1552   -1.0941 H   0  0  0  0  0  0  0  0  0  0  0  0
   -4.5722    3.6409   -0.5764 H   0  0  0  0  0  0  0  0  0  0  0  0
   -3.3444    2.4306   -2.8023 N   0  0  0  0  0  0  0  0  0  0  0  0
   -2.6021    1.3346   -3.4385 C   0  0  2  0  0  0  0  0  0  0  0  0
   -1.0985    1.4038   -3.1090 C   0  0  0  0  0  0  0  0  0  0  0  0
   -0.5467    2.4957   -2.9925 O   0  0  0  0  0  0  0  0  0  0  0  0
   -2.8209    1.4131   -4.9530 C   0  0  0  0  0  0  0  0  0  0  0  0
   -2.8155    3.2647   -2.5529 H   0  0  0  0  0  0  0  0  0  0  0  0
   -2.9728    0.3719   -3.0699 H   0  0  0  0  0  0  0  0  0  0  0  0
   -2.4628    2.3707   -5.3445 H   0  0  0  0  0  0  0  0  0  0  0  0
   -2.2837    0.6070   -5.4623 H   0  0  0  0  0  0  0  0  0  0  0  0
   -3.8862    1.3180   -5.1867 H   0  0  0  0  0  0  0  0  0  0  0  0
   -0.3168    0.2624   -3.1700 N   0  0  0  0  0  0  0  0  0  0  0  0
    0.9557    0.0626   -2.4356 C   0  0  2  0  0  0  0  0  0  0  0  0
    1.0709    0.7982   -1.0691 C   0  0  0  0  0  0  0  0  0  0  0  0
    0.0681    1.0458   -0.4087 O   0  0  0  0  0  0  0  0  0  0  0  0
    2.0706    0.5583   -3.3730 C   0  0  0  0  0  0  0  0  0  0  0  0
    2.1668   -0.4862   -4.8813 S   0  0  0  0  0  0  0  0  0  0  0  0
   -0.8436   -0.5848   -3.3638 H   0  0  0  0  0  0  0  0  0  0  0  0
    1.0980   -1.0035   -2.2351 H   0  0  0  0  0  0  0  0  0  0  0  0
    1.8893    1.6014   -3.6387 H   0  0  0  0  0  0  0  0  0  0  0  0
    3.0472    0.5181   -2.8830 H   0  0  0  0  0  0  0  0  0  0  0  0
    2.2989    0.9456   -0.4465 N   0  0  0  0  0  0  0  0  0  0  0  0
    2.5228    1.9026    0.6468 C   0  0  2  0  0  0  0  0  0  0  0  0
    3.3223    3.1204    0.1389 C   0  0  0  0  0  0  0  0  0  0  0  0
    4.0264    3.0099   -0.8591 O   0  0  0  0  0  0  0  0  0  0  0  0
    3.2820    1.1796    1.7607 C   0  0  0  0  0  0  0  0  0  0  0  0
    3.1047    0.8041   -1.0529 H   0  0  0  0  0  0  0  0  0  0  0  0
    1.5748    2.2700    1.0529 H   0  0  0  0  0  0  0  0  0  0  0  0
    4.2447    0.8099    1.3927 H   0  0  0  0  0  0  0  0  0  0  0  0
    3.4672    1.8567    2.6003 H   0  0  0  0  0  0  0  0  0  0  0  0
    2.6973    0.3292    2.1253 H   0  0  0  0  0  0  0  0  0  0  0  0
    3.2493    4.3401    0.7852 N   0  0  0  0  0  0  0  0  0  0  0  0
    3.9612    5.5285    0.3291 C   0  0  0  0  0  0  0  0  0  0  0  0
    2.6231    4.4160    1.5818 H   0  0  0  0  0  0  0  0  0  0  0  0
    5.0411    5.3479    0.3176 H   0  0  0  0  0  0  0  0  0  0  0  0
    3.6408    5.8048   -0.6806 H   0  0  0  0  0  0  0  0  0  0  0  0
    3.7599    6.3705    0.9978 H   0  0  0  0  0  0  0  0  0  0  0  0
  1  2  2  0  0  0  0
  1  3  1  0  0  0  0
  1  7  1  0  0  0  0
  3  4  1  0  0  0  0
  3  5  1  0  0  0  0
  3  6  1  0  0  0  0
  7  8  1  0  0  0  0
  7 13  1  0  0  0  0
  8  9  1  0  0  0  0
  8 11  1  0  0  0  0
  8 14  1  0  0  0  0
  9 10  2  0  0  0  0
  9 17  1  0  0  0  0
 11 12  1  0  0  0  0
 11 15  1  0  0  0  0
 11 16  1  0  0  0  0
 12 44  1  0  0  0  0
 17 18  1  0  0  0  0
 17 19  1  0  0  0  0
 18 20  1  0  0  0  0
 18 21  1  0  0  0  0
 18 22  1  0  0  0  0
 23 24  2  0  0  0  0
 23 25  1  0  0  0  0
 23 29  1  0  0  0  0
 25 26  1  0  0  0  0
 25 27  1  0  0  0  0
 25 28  1  0  0  0  0
 29 30  1  0  0  0  0
 29 34  1  0  0  0  0
 30 31  1  0  0  0  0
 30 33  1  0  0  0  0
 30 35  1  0  0  0  0
 31 32  2  0  0  0  0
 31 39  1  0  0  0  0
 33 36  1  0  0  0  0
 33 37  1  0  0  0  0
 33 38  1  0  0  0  0
 39 40  1  0  0  0  0
 39 45  1  0  0  0  0
 40 41  1  0  0  0  0
 40 43  1  0  0  0  0
 40 46  1  0  0  0  0
 41 42  2  0  0  0  0
 41 49  1  0  0  0  0
 43 44  1  0  0  0  0
 43 47  1  0  0  0  0
 43 48  1  0  0  0  0
 49 50  1  0  0  0  0
 49 54  1  0  0  0  0
 50 51  1  0  0  0  0
 50 53  1  0  0  0  0
 50 55  1  0  0  0  0
 51 52  2  0  0  0  0
 51 59  1  0  0  0  0
 53 56  1  0  0  0  0
 53 57  1  0  0  0  0
 53 58  1  0  0  0  0
 59 60  1  0  0  0  0
 59 61  1  0  0  0  0
 60 62  1  0  0  0  0
 60 63  1  0  0  0  0
 60 64  1  0  0  0  0
M  END
$$$$

  -OEChem-05262216053D

 64 63  0     1  0  0  0  0  0999 V2000
    0.7370    3.2333   -9.3544 C   0  0  0  0  0  0  0  0  0  0  0  0
   -0.4198    2.8507   -9.2676 O   0  0  0  0  0  0  0  0  0  0  0  0
    1.3463    3.5218  -10.7128 C   0  0  0  0  0  0  0  0  0  0  0  0
    2.1740    2.8343  -10.9020 H   0  0  0  0  0  0  0  0  0  0  0  0
    0.5953    3.3949  -11.4971 H   0  0  0  0  0  0  0  0  0  0  0  0
    1.7192    4.5481  -10.7453 H   0  0  0  0  0  0  0  0  0  0  0  0
    1.4881    3.4059   -8.2130 N   0  0  0  0  0  0  0  0  0  0  0  0
    0.9700    3.2566   -6.8460 C   0  0  2  0  0  0  0  0  0  0  0  0
    1.7622    4.1204   -5.8366 C   0  0  0  0  0  0  0  0  0  0  0  0
    2.7117    4.7920   -6.2303 O   0  0  0  0  0  0  0  0  0  0  0  0
    0.9905    1.7694   -6.4645 C   0  0  0  0  0  0  0  0  0  0  0  0
    2.7048    1.1198   -6.2815 S   0  0  0  0  0  0  0  0  0  0  0  0
    2.4131    3.8241   -8.3091 H   0  0  0  0  0  0  0  0  0  0  0  0
   -0.0657    3.6110   -6.8153 H   0  0  0  0  0  0  0  0  0  0  0  0
    0.4534    1.6420   -5.5241 H   0  0  0  0  0  0  0  0  0  0  0  0
    0.4619    1.1833   -7.2228 H   0  0  0  0  0  0  0  0  0  0  0  0
    1.3991    4.1943   -4.5028 N   0  0  0  0  0  0  0  0  0  0  0  0
    2.1687    4.9314   -3.5085 C   0  0  0  0  0  0  0  0  0  0  0  0
    0.6399    3.5939   -4.1711 H   0  0  0  0  0  0  0  0  0  0  0  0
    3.1914    4.5445   -3.4491 H   0  0  0  0  0  0  0  0  0  0  0  0
    2.2085    5.9953   -3.7636 H   0  0  0  0  0  0  0  0  0  0  0  0
    1.7036    4.8298   -2.5235 H   0  0  0  0  0  0  0  0  0  0  0  0
   -4.5215    2.3079   -2.3008 C   0  0  0  0  0  0  0  0  0  0  0  0
   -5.1397    1.2585   -2.3802 O   0  0  0  0  0  0  0  0  0  0  0  0
   -5.1348    3.4998   -1.5901 C   0  0  0  0  0  0  0  0  0  0  0  0
   -5.2698    4.3242   -2.2943 H   0  0  0  0  0  0  0  0  0  0  0  0
   -6.1090    3.2289   -1.1737 H   0  0  0  0  0  0  0  0  0  0  0  0
   -4.4832    3.8264   -0.7759 H   0  0  0  0  0  0  0  0  0  0  0  0
   -3.2622    2.4095   -2.8540 N   0  0  0  0  0  0  0  0  0  0  0  0
   -2.5156    1.2754   -3.4140 C   0  0  2  0  0  0  0  0  0  0  0  0
   -1.0061    1.4000   -3.1303 C   0  0  0  0  0  0  0  0  0  0  0  0
   -0.4948    2.5109   -3.0064 O   0  0  0  0  0  0  0  0  0  0  0  0
   -2.7784    1.2228   -4.9222 C   0  0  0  0  0  0  0  0  0  0  0  0
   -2.7364    3.2612   -2.6640 H   0  0  0  0  0  0  0  0  0  0  0  0
   -2.8577    0.3419   -2.9539 H   0  0  0  0  0  0  0  0  0  0  0  0
   -2.4506    2.1505   -5.4022 H   0  0  0  0  0  0  0  0  0  0  0  0
   -2.2411    0.3856   -5.3779 H   0  0  0  0  0  0  0  0  0  0  0  0
   -3.8480    1.0910   -5.1158 H   0  0  0  0  0  0  0  0  0  0  0  0
   -0.1790    0.2917   -3.2026 N   0  0  0  0  0  0  0  0  0  0  0  0
    1.0988    0.1561   -2.4640 C   0  0  2  0  0  0  0  0  0  0  0  0
    1.1309    0.9087   -1.1030 C   0  0  0  0  0  0  0  0  0  0  0  0
    0.1365    0.8877   -0.3855 O   0  0  0  0  0  0  0  0  0  0  0  0
    2.2058    0.6761   -3.3967 C   0  0  0  0  0  0  0  0  0  0  0  0
    2.3527   -0.3919   -4.8844 S   0  0  0  0  0  0  0  0  0  0  0  0
   -0.6727   -0.5790   -3.3793 H   0  0  0  0  0  0  0  0  0  0  0  0
    1.2865   -0.8994   -2.2450 H   0  0  0  0  0  0  0  0  0  0  0  0
    1.9938    1.7085   -3.6833 H   0  0  0  0  0  0  0  0  0  0  0  0
    3.1761    0.6695   -2.8926 H   0  0  0  0  0  0  0  0  0  0  0  0
    2.3017    1.4227   -0.5729 N   0  0  0  0  0  0  0  0  0  0  0  0
    2.3309    2.3532    0.5646 C   0  0  2  0  0  0  0  0  0  0  0  0
    3.0422    3.6645    0.1730 C   0  0  0  0  0  0  0  0  0  0  0  0
    3.7620    3.6944   -0.8197 O   0  0  0  0  0  0  0  0  0  0  0  0
    3.0534    1.6670    1.7251 C   0  0  0  0  0  0  0  0  0  0  0  0
    3.0697    1.5368   -1.2334 H   0  0  0  0  0  0  0  0  0  0  0  0
    1.3158    2.6146    0.8818 H   0  0  0  0  0  0  0  0  0  0  0  0
    4.0816    1.4176    1.4438 H   0  0  0  0  0  0  0  0  0  0  0  0
    3.0806    2.3220    2.6011 H   0  0  0  0  0  0  0  0  0  0  0  0
    2.5326    0.7442    1.9993 H   0  0  0  0  0  0  0  0  0  0  0  0
    2.8676    4.8156    0.9180 N   0  0  0  0  0  0  0  0  0  0  0  0
    3.4899    6.0888    0.5749 C   0  0  0  0  0  0  0  0  0  0  0  0
    2.2510    4.7695    1.7242 H   0  0  0  0  0  0  0  0  0  0  0  0
    4.5813    6.0029    0.6065 H   0  0  0  0  0  0  0  0  0  0  0  0
    3.1905    6.4033   -0.4306 H   0  0  0  0  0  0  0  0  0  0  0  0
    3.1834    6.8632    1.2846 H   0  0  0  0  0  0  0  0  0  0  0  0
  1  2  2  0  0  0  0
  1  3  1  0  0  0  0
  1  7  1  0  0  0  0
  3  4  1  0  0  0  0
  3  5  1  0  0  0  0
  3  6  1  0  0  0  0
  7  8  1  0  0  0  0
  7 13  1  0  0  0  0
  8  9  1  0  0  0  0
  8 11  1  0  0  0  0
  8 14  1  0  0  0  0
  9 10  2  0  0  0  0
  9 17  1  0  0  0  0
 11 12  1  0  0  0  0
 11 15  1  0  0  0  0
 11 16  1  0  0  0  0
 12 44  1  0  0  0  0
 17 18  1  0  0  0  0
 17 19  1  0  0  0  0
 18 20  1  0  0  0  0
 18 21  1  0  0  0  0
 18 22  1  0  0  0  0
 23 24  2  0  0  0  0
 23 25  1  0  0  0  0
 23 29  1  0  0  0  0
 25 26  1  0  0  0  0
 25 27  1  0  0  0  0
 25 28  1  0  0  0  0
 29 30  1  0  0  0  0
 29 34  1  0  0  0  0
 30 31  1  0  0  0  0
 30 33  1  0  0  0  0
 30 35  1  0  0  0  0
 31 32  2  0  0  0  0
 31 39  1  0  0  0  0
 33 36  1  0  0  0  0
 33 37  1  0  0  0  0
 33 38  1  0  0  0  0
 39 40  1  0  0  0  0
 39 45  1  0  0  0  0
 40 41  1  0  0  0  0
 40 43  1  0  0  0  0
 40 46  1  0  0  0  0
 41 42  2  0  0  0  0
 41 49  1  0  0  0  0
 43 44  1  0  0  0  0
 43 47  1  0  0  0  0
 43 48  1  0  0  0  0
 49 50  1  0  0  0  0
 49 54  1  0  0  0  0
 50 51  1  0  0  0  0
 50 53  1  0  0  0  0
 50 55  1  0  0  0  0
 51 52  2  0  0  0  0
 51 59  1  0  0  0  0
 53 56  1  0  0  0  0
 53 57  1  0  0  0  0
 53 58  1  0  0  0  0
 59 60  1  0  0  0  0
 59 61  1  0  0  0  0
 60 62  1  0  0  0  0
 60 63  1  0  0  0  0
 60 64  1  0  0  0  0
M  END
$$$$

  -OEChem-05262216053D

 64 63  0     1  0  0  0  0  0999 V2000
    1.8693    3.2111   -9.9901 C   0  0  0  0  0  0  0  0  0  0  0  0
    0.6535    3.2032  -10.1051 O   0  0  0  0  0  0  0  0  0  0  0  0
    2.7528    3.0508  -11.2129 C   0  0  0  0  0  0  0  0  0  0  0  0
    3.2913    2.1016  -11.1610 H   0  0  0  0  0  0  0  0  0  0  0  0
    2.1443    3.0632  -12.1212 H   0  0  0  0  0  0  0  0  0  0  0  0
    3.4748    3.8693  -11.2634 H   0  0  0  0  0  0  0  0  0  0  0  0
    2.4378    3.3790   -8.7467 N   0  0  0  0  0  0  0  0  0  0  0  0
    1.6819    3.6691   -7.5199 C   0  0  2  0  0  0  0  0  0  0  0  0
    2.5290    4.4599   -6.4980 C   0  0  0  0  0  0  0  0  0  0  0  0
    3.6821    4.7778   -6.7725 O   0  0  0  0  0  0  0  0  0  0  0  0
    1.1668    2.3543   -6.9152 C   0  0  0  0  0  0  0  0  0  0  0  0
    2.5523    1.2787   -6.3582 S   0  0  0  0  0  0  0  0  0  0  0  0
    3.4497    3.4945   -8.6999 H   0  0  0  0  0  0  0  0  0  0  0  0
    0.8222    4.2997   -7.7703 H   0  0  0  0  0  0  0  0  0  0  0  0
    0.5145    2.5749   -6.0659 H   0  0  0  0  0  0  0  0  0  0  0  0
    0.5670    1.8160   -7.6564 H   0  0  0  0  0  0  0  0  0  0  0  0
    1.9916    4.8502   -5.2840 N   0  0  0  0  0  0  0  0  0  0  0  0
    2.7496    5.5703   -4.2673 C   0  0  0  0  0  0  0  0  0  0  0  0
    1.0459    4.5520   -5.0634 H   0  0  0  0  0  0  0  0  0  0  0  0
    3.5690    4.9510   -3.8872 H   0  0  0  0  0  0  0  0  0  0  0  0
    3.1684    6.4939   -4.6808 H   0  0  0  0  0  0  0  0  0  0  0  0
    2.0983    5.8351   -3.4288 H   0  0  0  0  0  0  0  0  0  0  0  0
   -5.1008    1.5069   -1.2356 C   0  0  0  0  0  0  0  0  0  0  0  0
   -5.5921    0.4044   -1.4184 O   0  0  0  0  0  0  0  0  0  0  0  0
   -5.7345    2.4649   -0.2444 C   0  0  0  0  0  0  0  0  0  0  0  0
   -6.0943    3.3558   -0.7642 H   0  0  0  0  0  0  0  0  0  0  0  0
   -6.5787    1.9829    0.2565 H   0  0  0  0  0  0  0  0  0  0  0  0
   -5.0017    2.7608    0.5098 H   0  0  0  0  0  0  0  0  0  0  0  0
   -3.9628    1.8759   -1.9218 N   0  0  0  0  0  0  0  0  0  0  0  0
   -3.1693    0.9597   -2.7513 C   0  0  2  0  0  0  0  0  0  0  0  0
   -1.6641    1.2815   -2.6645 C   0  0  0  0  0  0  0  0  0  0  0  0
   -1.2956    2.4279   -2.4228 O   0  0  0  0  0  0  0  0  0  0  0  0
   -3.6595    1.0655   -4.1979 C   0  0  0  0  0  0  0  0  0  0  0  0
   -3.5224    2.7570   -1.6602 H   0  0  0  0  0  0  0  0  0  0  0  0
   -3.3049   -0.0685   -2.3985 H   0  0  0  0  0  0  0  0  0  0  0  0
   -3.5347    2.0873   -4.5706 H   0  0  0  0  0  0  0  0  0  0  0  0
   -3.0956    0.3869   -4.8449 H   0  0  0  0  0  0  0  0  0  0  0  0
   -4.7198    0.7990   -4.2581 H   0  0  0  0  0  0  0  0  0  0  0  0
   -0.7221    0.3090   -2.9571 N   0  0  0  0  0  0  0  0  0  0  0  0
    0.6761    0.3364   -2.4759 C   0  0  2  0  0  0  0  0  0  0  0  0
    0.8685    1.0365   -1.1022 C   0  0  0  0  0  0  0  0  0  0  0  0
    0.1744    0.6814   -0.1556 O   0  0  0  0  0  0  0  0  0  0  0  0
    1.5140    1.0053   -3.5776 C   0  0  0  0  0  0  0  0  0  0  0  0
    1.5176   -0.0227   -5.1007 S   0  0  0  0  0  0  0  0  0  0  0  0
   -1.1083   -0.6092   -3.1578 H   0  0  0  0  0  0  0  0  0  0  0  0
    1.0316   -0.6905   -2.3437 H   0  0  0  0  0  0  0  0  0  0  0  0
    1.1144    2.0013   -3.7941 H   0  0  0  0  0  0  0  0  0  0  0  0
    2.5525    1.1208   -3.2525 H   0  0  0  0  0  0  0  0  0  0  0  0
    1.8889    1.9417   -0.8685 N   0  0  0  0  0  0  0  0  0  0  0  0
    1.9663    2.7864    0.3294 C   0  0  2  0  0  0  0  0  0  0  0  0
    2.3883    4.2245   -0.0389 C   0  0  0  0  0  0  0  0  0  0  0  0
    2.8309    4.4685   -1.1572 O   0  0  0  0  0  0  0  0  0  0  0  0
    2.9660    2.1518    1.2997 C   0  0  0  0  0  0  0  0  0  0  0  0
    2.3495    2.3216   -1.6947 H   0  0  0  0  0  0  0  0  0  0  0  0
    0.9847    2.8499    0.8117 H   0  0  0  0  0  0  0  0  0  0  0  0
    3.9576    2.0870    0.8403 H   0  0  0  0  0  0  0  0  0  0  0  0
    3.0436    2.7448    2.2157 H   0  0  0  0  0  0  0  0  0  0  0  0
    2.6402    1.1422    1.5697 H   0  0  0  0  0  0  0  0  0  0  0  0
    2.2609    5.2519    0.8774 N   0  0  0  0  0  0  0  0  0  0  0  0
    2.6386    6.6313    0.5941 C   0  0  0  0  0  0  0  0  0  0  0  0
    1.8799    5.0234    1.7911 H   0  0  0  0  0  0  0  0  0  0  0  0
    3.7143    6.7004    0.4008 H   0  0  0  0  0  0  0  0  0  0  0  0
    2.0974    7.0073   -0.2808 H   0  0  0  0  0  0  0  0  0  0  0  0
    2.3983    7.2718    1.4483 H   0  0  0  0  0  0  0  0  0  0  0  0
  1  2  2  0  0  0  0
  1  3  1  0  0  0  0
  1  7  1  0  0  0  0
  3  4  1  0  0  0  0
  3  5  1  0  0  0  0
  3  6  1  0  0  0  0
  7  8  1  0  0  0  0
  7 13  1  0  0  0  0
  8  9  1  0  0  0  0
  8 11  1  0  0  0  0
  8 14  1  0  0  0  0
  9 10  2  0  0  0  0
  9 17  1  0  0  0  0
 11 12  1  0  0  0  0
 11 15  1  0  0  0  0
 11 16  1  0  0  0  0
 12 44  1  0  0  0  0
 17 18  1  0  0  0  0
 17 19  1  0  0  0  0
 18 20  1  0  0  0  0
 18 21  1  0  0  0  0
 18 22  1  0  0  0  0
 23 24  2  0  0  0  0
 23 25  1  0  0  0  0
 23 29  1  0  0  0  0
 25 26  1  0  0  0  0
 25 27  1  0  0  0  0
 25 28  1  0  0  0  0
 29 30  1  0  0  0  0
 29 34  1  0  0  0  0
 30 31  1  0  0  0  0
 30 33  1  0  0  0  0
 30 35  1  0  0  0  0
 31 32  2  0  0  0  0
 31 39  1  0  0  0  0
 33 36  1  0  0  0  0
 33 37  1  0  0  0  0
 33 38  1  0  0  0  0
 39 40  1  0  0  0  0
 39 45  1  0  0  0  0
 40 41  1  0  0  0  0
 40 43  1  0  0  0  0
 40 46  1  0  0  0  0
 41 42  2  0  0  0  0
 41 49  1  0  0  0  0
 43 44  1  0  0  0  0
 43 47  1  0  0  0  0
 43 48  1  0  0  0  0
 49 50  1  0  0  0  0
 49 54  1  0  0  0  0
 50 51  1  0  0  0  0
 50 53  1  0  0  0  0
 50 55  1  0  0  0  0
 51 52  2  0  0  0  0
 51 59  1  0  0  0  0
 53 56  1  0  0  0  0
 53 57  1  0  0  0  0
 53 58  1  0  0  0  0
 59 60  1  0  0  0  0
 59 61  1  0  0  0  0
 60 62  1  0  0  0  0
 60 63  1  0  0  0  0
 60 64  1  0  0  0  0
M  END
$$$$

  -OEChem-05262216053D

 64 63  0     1  0  0  0  0  0999 V2000
    1.8598    3.1609   -9.9475 C   0  0  0  0  0  0  0  0  0  0  0  0
    0.6421    3.1738  -10.0390 O   0  0  0  0  0  0  0  0  0  0  0  0
    2.7157    2.9128  -11.1746 C   0  0  0  0  0  0  0  0  0  0  0  0
    3.4385    2.1187  -10.9728 H   0  0  0  0  0  0  0  0  0  0  0  0
    2.0881    2.6107  -12.0174 H   0  0  0  0  0  0  0  0  0  0  0  0
    3.2529    3.8255  -11.4427 H   0  0  0  0  0  0  0  0  0  0  0  0
    2.4569    3.3923   -8.7282 N   0  0  0  0  0  0  0  0  0  0  0  0
    1.7339    3.7381   -7.4964 C   0  0  2  0  0  0  0  0  0  0  0  0
    2.6344    4.5026   -6.4994 C   0  0  0  0  0  0  0  0  0  0  0  0
    3.8113    4.7139   -6.7755 O   0  0  0  0  0  0  0  0  0  0  0  0
    1.1661    2.4590   -6.8632 C   0  0  0  0  0  0  0  0  0  0  0  0
    2.5091    1.3258   -6.3178 S   0  0  0  0  0  0  0  0  0  0  0  0
    3.4739    3.4579   -8.6992 H   0  0  0  0  0  0  0  0  0  0  0  0
    0.9022    4.4044   -7.7476 H   0  0  0  0  0  0  0  0  0  0  0  0
    0.5399    2.7228   -6.0069 H   0  0  0  0  0  0  0  0  0  0  0  0
    0.5282    1.9394   -7.5852 H   0  0  0  0  0  0  0  0  0  0  0  0
    2.1213    4.9905   -5.3098 N   0  0  0  0  0  0  0  0  0  0  0  0
    2.9254    5.6874   -4.3111 C   0  0  0  0  0  0  0  0  0  0  0  0
    1.1563    4.7700   -5.0818 H   0  0  0  0  0  0  0  0  0  0  0  0
    3.5421    4.9761   -3.7519 H   0  0  0  0  0  0  0  0  0  0  0  0
    3.5813    6.4270   -4.7827 H   0  0  0  0  0  0  0  0  0  0  0  0
    2.2751    6.2148   -3.6063 H   0  0  0  0  0  0  0  0  0  0  0  0
   -5.2047    1.2632   -1.2363 C   0  0  0  0  0  0  0  0  0  0  0  0
   -5.6159    0.1411   -1.4851 O   0  0  0  0  0  0  0  0  0  0  0  0
   -5.9048    2.1128   -0.1931 C   0  0  0  0  0  0  0  0  0  0  0  0
   -6.2700    3.0371   -0.6468 H   0  0  0  0  0  0  0  0  0  0  0  0
   -6.7539    1.5671    0.2273 H   0  0  0  0  0  0  0  0  0  0  0  0
   -5.2107    2.3588    0.6139 H   0  0  0  0  0  0  0  0  0  0  0  0
   -4.0991    1.7559   -1.8975 N   0  0  0  0  0  0  0  0  0  0  0  0
   -3.2478    0.9573   -2.7889 C   0  0  2  0  0  0  0  0  0  0  0  0
   -1.7546    1.2911   -2.5934 C   0  0  0  0  0  0  0  0  0  0  0  0
   -1.4211    2.4216   -2.2518 O   0  0  0  0  0  0  0  0  0  0  0  0
   -3.6804    1.2281   -4.2320 C   0  0  0  0  0  0  0  0  0  0  0  0
   -3.7245    2.6495   -1.5824 H   0  0  0  0  0  0  0  0  0  0  0  0
   -3.3750   -0.1088   -2.5714 H   0  0  0  0  0  0  0  0  0  0  0  0
   -3.5580    2.2880   -4.4768 H   0  0  0  0  0  0  0  0  0  0  0  0
   -3.0804    0.6365   -4.9301 H   0  0  0  0  0  0  0  0  0  0  0  0
   -4.7328    0.9587   -4.3668 H   0  0  0  0  0  0  0  0  0  0  0  0
   -0.7865    0.3475   -2.8943 N   0  0  0  0  0  0  0  0  0  0  0  0
    0.6215    0.3944   -2.4455 C   0  0  2  0  0  0  0  0  0  0  0  0
    0.8465    1.0943   -1.0784 C   0  0  0  0  0  0  0  0  0  0  0  0
    0.3421    0.6071   -0.0737 O   0  0  0  0  0  0  0  0  0  0  0  0
    1.4320    1.0706   -3.5605 C   0  0  0  0  0  0  0  0  0  0  0  0
    1.4232    0.0452   -5.0842 S   0  0  0  0  0  0  0  0  0  0  0  0
   -1.1418   -0.5612   -3.1789 H   0  0  0  0  0  0  0  0  0  0  0  0
    0.9901   -0.6284   -2.3217 H   0  0  0  0  0  0  0  0  0  0  0  0
    1.0183    2.0618   -3.7718 H   0  0  0  0  0  0  0  0  0  0  0  0
    2.4731    1.1973   -3.2458 H   0  0  0  0  0  0  0  0  0  0  0  0
    1.6502    2.2139   -0.9486 N   0  0  0  0  0  0  0  0  0  0  0  0
    1.6945    3.0567    0.2512 C   0  0  2  0  0  0  0  0  0  0  0  0
    1.8068    4.5478   -0.1309 C   0  0  0  0  0  0  0  0  0  0  0  0
    2.1350    4.8675   -1.2696 O   0  0  0  0  0  0  0  0  0  0  0  0
    2.8909    2.6246    1.1032 C   0  0  0  0  0  0  0  0  0  0  0  0
    1.9010    2.6855   -1.8168 H   0  0  0  0  0  0  0  0  0  0  0  0
    0.7718    2.9350    0.8285 H   0  0  0  0  0  0  0  0  0  0  0  0
    3.8230    2.7415    0.5412 H   0  0  0  0  0  0  0  0  0  0  0  0
    2.9545    3.2292    2.0125 H   0  0  0  0  0  0  0  0  0  0  0  0
    2.7884    1.5745    1.3939 H   0  0  0  0  0  0  0  0  0  0  0  0
    1.5465    5.5364    0.7999 N   0  0  0  0  0  0  0  0  0  0  0  0
    1.6379    6.9607    0.5019 C   0  0  0  0  0  0  0  0  0  0  0  0
    1.2577    5.2441    1.7291 H   0  0  0  0  0  0  0  0  0  0  0  0
    2.6617    7.2277    0.2197 H   0  0  0  0  0  0  0  0  0  0  0  0
    0.9655    7.2248   -0.3210 H   0  0  0  0  0  0  0  0  0  0  0  0
    1.3567    7.5504    1.3797 H   0  0  0  0  0  0  0  0  0  0  0  0
  1  2  2  0  0  0  0
  1  3  1  0  0  0  0
  1  7  1  0  0  0  0
  3  4  1  0  0  0  0
  3  5  1  0  0  0  0
  3  6  1  0  0  0  0
  7  8  1  0  0  0  0
  7 13  1  0  0  0  0
  8  9  1  0  0  0  0
  8 11  1  0  0  0  0
  8 14  1  0  0  0  0
  9 10  2  0  0  0  0
  9 17  1  0  0  0  0
 11 12  1  0  0  0  0
 11 15  1  0  0  0  0
 11 16  1  0  0  0  0
 12 44  1  0  0  0  0
 17 18  1  0  0  0  0
 17 19  1  0  0  0  0
 18 20  1  0  0  0  0
 18 21  1  0  0  0  0
 18 22  1  0  0  0  0
 23 24  2  0  0  0  0
 23 25  1  0  0  0  0
 23 29  1  0  0  0  0
 25 26  1  0  0  0  0
 25 27  1  0  0  0  0
 25 28  1  0  0  0  0
 29 30  1  0  0  0  0
 29 34  1  0  0  0  0
 30 31  1  0  0  0  0
 30 33  1  0  0  0  0
 30 35  1  0  0  0  0
 31 32  2  0  0  0  0
 31 39  1  0  0  0  0
 33 36  1  0  0  0  0
 33 37  1  0  0  0  0
 33 38  1  0  0  0  0
 39 40  1  0  0  0  0
 39 45  1  0  0  0  0
 40 41  1  0  0  0  0
 40 43  1  0  0  0  0
 40 46  1  0  0  0  0
 41 42  2  0  0  0  0
 41 49  1  0  0  0  0
 43 44  1  0  0  0  0
 43 47  1  0  0  0  0
 43 48  1  0  0  0  0
 49 50  1  0  0  0  0
 49 54  1  0  0  0  0
 50 51  1  0  0  0  0
 50 53  1  0  0  0  0
 50 55  1  0  0  0  0
 51 52  2  0  0  0  0
 51 59  1  0  0  0  0
 53 56  1  0  0  0  0
 53 57  1  0  0  0  0
 53 58  1  0  0  0  0
 59 60  1  0  0  0  0
 59 61  1  0  0  0  0
 60 62  1  0  0  0  0
 60 63  1  0  0  0  0
 60 64  1  0  0  0  0
M  END
$$$$

  -OEChem-05262216053D

 64 63  0     1  0  0  0  0  0999 V2000
    1.7886    3.2209   -9.9020 C   0  0  0  0  0  0  0  0  0  0  0  0
    0.5727    3.2292  -10.0158 O   0  0  0  0  0  0  0  0  0  0  0  0
    2.6692    2.9789  -11.1129 C   0  0  0  0  0  0  0  0  0  0  0  0
    3.3031    2.1050  -10.9445 H   0  0  0  0  0  0  0  0  0  0  0  0
    2.0525    2.8015  -11.9984 H   0  0  0  0  0  0  0  0  0  0  0  0
    3.3033    3.8502  -11.2932 H   0  0  0  0  0  0  0  0  0  0  0  0
    2.3614    3.4418   -8.6695 N   0  0  0  0  0  0  0  0  0  0  0  0
    1.6133    3.7394   -7.4407 C   0  0  2  0  0  0  0  0  0  0  0  0
    2.4772    4.5116   -6.4185 C   0  0  0  0  0  0  0  0  0  0  0  0
    3.6711    4.6923   -6.6370 O   0  0  0  0  0  0  0  0  0  0  0  0
    1.0892    2.4286   -6.8357 C   0  0  0  0  0  0  0  0  0  0  0  0
    2.4709    1.3227   -6.3280 S   0  0  0  0  0  0  0  0  0  0  0  0
    3.3780    3.4999   -8.6161 H   0  0  0  0  0  0  0  0  0  0  0  0
    0.7603    4.3806   -7.6868 H   0  0  0  0  0  0  0  0  0  0  0  0
    0.4644    2.6537   -5.9674 H   0  0  0  0  0  0  0  0  0  0  0  0
    0.4603    1.9091   -7.5657 H   0  0  0  0  0  0  0  0  0  0  0  0
    1.9131    5.0360   -5.2685 N   0  0  0  0  0  0  0  0  0  0  0  0
    2.6771    5.7443   -4.2471 C   0  0  0  0  0  0  0  0  0  0  0  0
    0.9271    4.8612   -5.0980 H   0  0  0  0  0  0  0  0  0  0  0  0
    3.2380    5.0356   -3.6291 H   0  0  0  0  0  0  0  0  0  0  0  0
    3.3807    6.4498   -4.7019 H   0  0  0  0  0  0  0  0  0  0  0  0
    2.0019    6.3124   -3.6006 H   0  0  0  0  0  0  0  0  0  0  0  0
   -5.2231    1.3105   -1.3495 C   0  0  0  0  0  0  0  0  0  0  0  0
   -5.6192    0.1676   -1.5125 O   0  0  0  0  0  0  0  0  0  0  0  0
   -5.9644    2.2443   -0.4113 C   0  0  0  0  0  0  0  0  0  0  0  0
   -6.3349    3.1114   -0.9632 H   0  0  0  0  0  0  0  0  0  0  0  0
   -6.8138    1.7258    0.0422 H   0  0  0  0  0  0  0  0  0  0  0  0
   -5.2954    2.5843    0.3830 H   0  0  0  0  0  0  0  0  0  0  0  0
   -4.0925    1.7499   -2.0060 N   0  0  0  0  0  0  0  0  0  0  0  0
   -3.1991    0.8810   -2.7834 C   0  0  2  0  0  0  0  0  0  0  0  0
   -1.7173    1.2399   -2.5517 C   0  0  0  0  0  0  0  0  0  0  0  0
   -1.4122    2.3735   -2.1961 O   0  0  0  0  0  0  0  0  0  0  0  0
   -3.5618    1.0230   -4.2642 C   0  0  0  0  0  0  0  0  0  0  0  0
   -3.7267    2.6638   -1.7426 H   0  0  0  0  0  0  0  0  0  0  0  0
   -3.3326   -0.1629   -2.4792 H   0  0  0  0  0  0  0  0  0  0  0  0
   -3.4292    2.0585   -4.5932 H   0  0  0  0  0  0  0  0  0  0  0  0
   -2.9270    0.3788   -4.8802 H   0  0  0  0  0  0  0  0  0  0  0  0
   -4.6059    0.7366   -4.4271 H   0  0  0  0  0  0  0  0  0  0  0  0
   -0.7286    0.3146   -2.8389 N   0  0  0  0  0  0  0  0  0  0  0  0
    0.6821    0.3895   -2.4045 C   0  0  2  0  0  0  0  0  0  0  0  0
    0.9153    1.1126   -1.0528 C   0  0  0  0  0  0  0  0  0  0  0  0
    0.6285    0.5290   -0.0149 O   0  0  0  0  0  0  0  0  0  0  0  0
    1.4681    1.0670   -3.5360 C   0  0  0  0  0  0  0  0  0  0  0  0
    1.4603    0.0242   -5.0490 S   0  0  0  0  0  0  0  0  0  0  0  0
   -1.0604   -0.5949   -3.1490 H   0  0  0  0  0  0  0  0  0  0  0  0
    1.0686   -0.6259   -2.2711 H   0  0  0  0  0  0  0  0  0  0  0  0
    1.0315    2.0457   -3.7578 H   0  0  0  0  0  0  0  0  0  0  0  0
    2.5080    1.2220   -3.2294 H   0  0  0  0  0  0  0  0  0  0  0  0
    1.4400    2.3912   -0.9834 N   0  0  0  0  0  0  0  0  0  0  0  0
    1.4213    3.2157    0.2291 C   0  0  2  0  0  0  0  0  0  0  0  0
    1.2579    4.7087   -0.1250 C   0  0  0  0  0  0  0  0  0  0  0  0
    1.4787    5.1008   -1.2669 O   0  0  0  0  0  0  0  0  0  0  0  0
    2.7217    2.9789    1.0023 C   0  0  0  0  0  0  0  0  0  0  0  0
    1.4522    2.9121   -1.8596 H   0  0  0  0  0  0  0  0  0  0  0  0
    0.5687    2.9336    0.8559 H   0  0  0  0  0  0  0  0  0  0  0  0
    3.5865    3.2529    0.3895 H   0  0  0  0  0  0  0  0  0  0  0  0
    2.7391    3.5766    1.9185 H   0  0  0  0  0  0  0  0  0  0  0  0
    2.8104    1.9234    1.2786 H   0  0  0  0  0  0  0  0  0  0  0  0
    0.8562    5.6190    0.8350 N   0  0  0  0  0  0  0  0  0  0  0  0
    0.6508    7.0356    0.5576 C   0  0  0  0  0  0  0  0  0  0  0  0
    0.6451    5.2622    1.7625 H   0  0  0  0  0  0  0  0  0  0  0  0
    1.5747    7.4915    0.1863 H   0  0  0  0  0  0  0  0  0  0  0  0
   -0.1351    7.1688   -0.1935 H   0  0  0  0  0  0  0  0  0  0  0  0
    0.3500    7.5603    1.4694 H   0  0  0  0  0  0  0  0  0  0  0  0
  1  2  2  0  0  0  0
  1  3  1  0  0  0  0
  1  7  1  0  0  0  0
  3  4  1  0  0  0  0
  3  5  1  0  0  0  0
  3  6  1  0  0  0  0
  7  8  1  0  0  0  0
  7 13  1  0  0  0  0
  8  9  1  0  0  0  0
  8 11  1  0  0  0  0
  8 14  1  0  0  0  0
  9 10  2  0  0  0  0
  9 17  1  0  0  0  0
 11 12  1  0  0  0  0
 11 15  1  0  0  0  0
 11 16  1  0  0  0  0
 12 44  1  0  0  0  0
 17 18  1  0  0  0  0
 17 19  1  0  0  0  0
 18 20  1  0  0  0  0
 18 21  1  0  0  0  0
 18 22  1  0  0  0  0
 23 24  2  0  0  0  0
 23 25  1  0  0  0  0
 23 29  1  0  0  0  0
 25 26  1  0  0  0  0
 25 27  1  0  0  0  0
 25 28  1  0  0  0  0
 29 30  1  0  0  0  0
 29 34  1  0  0  0  0
 30 31  1  0  0  0  0
 30 33  1  0  0  0  0
 30 35  1  0  0  0  0
 31 32  2  0  0  0  0
 31 39  1  0  0  0  0
 33 36  1  0  0  0  0
 33 37  1  0  0  0  0
 33 38  1  0  0  0  0
 39 40  1  0  0  0  0
 39 45  1  0  0  0  0
 40 41  1  0  0  0  0
 40 43  1  0  0  0  0
 40 46  1  0  0  0  0
 41 42  2  0  0  0  0
 41 49  1  0  0  0  0
 43 44  1  0  0  0  0
 43 47  1  0  0  0  0
 43 48  1  0  0  0  0
 49 50  1  0  0  0  0
 49 54  1  0  0  0  0
 50 51  1  0  0  0  0
 50 53  1  0  0  0  0
 50 55  1  0  0  0  0
 51 52  2  0  0  0  0
 51 59  1  0  0  0  0
 53 56  1  0  0  0  0
 53 57  1  0  0  0  0
 53 58  1  0  0  0  0
 59 60  1  0  0  0  0
 59 61  1  0  0  0  0
 60 62  1  0  0  0  0
 60 63  1  0  0  0  0
 60 64  1  0  0  0  0
M  END
$$$$

  -OEChem-05262216053D

 64 63  0     1  0  0  0  0  0999 V2000
    0.8535    2.7479   -9.4456 C   0  0  0  0  0  0  0  0  0  0  0  0
   -0.2054    2.1411   -9.3951 O   0  0  0  0  0  0  0  0  0  0  0  0
    1.5808    2.9094  -10.7666 C   0  0  0  0  0  0  0  0  0  0  0  0
    2.5625    2.4328  -10.7107 H   0  0  0  0  0  0  0  0  0  0  0  0
    1.0077    2.4424  -11.5725 H   0  0  0  0  0  0  0  0  0  0  0  0
    1.7108    3.9701  -10.9947 H   0  0  0  0  0  0  0  0  0  0  0  0
    1.3900    3.2830   -8.2958 N   0  0  0  0  0  0  0  0  0  0  0  0
    0.7551    3.2276   -6.9717 C   0  0  2  0  0  0  0  0  0  0  0  0
    1.2620    4.3541   -6.0417 C   0  0  0  0  0  0  0  0  0  0  0  0
    2.0999    5.1481   -6.4588 O   0  0  0  0  0  0  0  0  0  0  0  0
    0.9889    1.8419   -6.3577 C   0  0  0  0  0  0  0  0  0  0  0  0
    2.7719    1.5158   -6.0423 S   0  0  0  0  0  0  0  0  0  0  0  0
    2.2272    3.8585   -8.3810 H   0  0  0  0  0  0  0  0  0  0  0  0
   -0.3227    3.3804   -7.0875 H   0  0  0  0  0  0  0  0  0  0  0  0
    0.4385    1.7740   -5.4189 H   0  0  0  0  0  0  0  0  0  0  0  0
    0.5951    1.0680   -7.0240 H   0  0  0  0  0  0  0  0  0  0  0  0
    0.7331    4.5373   -4.7746 N   0  0  0  0  0  0  0  0  0  0  0  0
    1.1341    5.6200   -3.8833 C   0  0  0  0  0  0  0  0  0  0  0  0
    0.1057    3.8240   -4.4003 H   0  0  0  0  0  0  0  0  0  0  0  0
    2.0490    5.3552   -3.3440 H   0  0  0  0  0  0  0  0  0  0  0  0
    1.3099    6.5468   -4.4394 H   0  0  0  0  0  0  0  0  0  0  0  0
    0.3399    5.8132   -3.1571 H   0  0  0  0  0  0  0  0  0  0  0  0
   -4.7084    2.1367   -2.6453 C   0  0  0  0  0  0  0  0  0  0  0  0
   -5.2232    1.0302   -2.6463 O   0  0  0  0  0  0  0  0  0  0  0  0
   -5.4792    3.3327   -2.1192 C   0  0  0  0  0  0  0  0  0  0  0  0
   -5.6858    4.0310   -2.9338 H   0  0  0  0  0  0  0  0  0  0  0  0
   -6.4281    3.0059   -1.6847 H   0  0  0  0  0  0  0  0  0  0  0  0
   -4.8983    3.8442   -1.3479 H   0  0  0  0  0  0  0  0  0  0  0  0
   -3.4196    2.2965   -3.1105 N   0  0  0  0  0  0  0  0  0  0  0  0
   -2.5365    1.1841   -3.4885 C   0  0  2  0  0  0  0  0  0  0  0  0
   -1.0745    1.4553   -3.0828 C   0  0  0  0  0  0  0  0  0  0  0  0
   -0.6871    2.6061   -2.9060 O   0  0  0  0  0  0  0  0  0  0  0  0
   -2.6467    0.9714   -5.0020 C   0  0  0  0  0  0  0  0  0  0  0  0
   -2.9885    3.2112   -2.9821 H   0  0  0  0  0  0  0  0  0  0  0  0
   -2.8495    0.2692   -2.9734 H   0  0  0  0  0  0  0  0  0  0  0  0
   -2.3315    1.8699   -5.5423 H   0  0  0  0  0  0  0  0  0  0  0  0
   -2.0177    0.1346   -5.3216 H   0  0  0  0  0  0  0  0  0  0  0  0
   -3.6826    0.7457   -5.2758 H   0  0  0  0  0  0  0  0  0  0  0  0
   -0.1331    0.4435   -3.1081 N   0  0  0  0  0  0  0  0  0  0  0  0
    1.1116    0.4261   -2.3095 C   0  0  2  0  0  0  0  0  0  0  0  0
    1.0411    1.1534   -0.9433 C   0  0  0  0  0  0  0  0  0  0  0  0
    0.8079    0.4769    0.0495 O   0  0  0  0  0  0  0  0  0  0  0  0
    2.2290    1.0412   -3.1635 C   0  0  0  0  0  0  0  0  0  0  0  0
    2.5667   -0.0080   -4.6335 S   0  0  0  0  0  0  0  0  0  0  0  0
   -0.5086   -0.4704   -3.3495 H   0  0  0  0  0  0  0  0  0  0  0  0
    1.3772   -0.6139   -2.0919 H   0  0  0  0  0  0  0  0  0  0  0  0
    1.9468    2.0502   -3.4794 H   0  0  0  0  0  0  0  0  0  0  0  0
    3.1487    1.1249   -2.5754 H   0  0  0  0  0  0  0  0  0  0  0  0
    1.3444    2.4943   -0.7838 N   0  0  0  0  0  0  0  0  0  0  0  0
    1.3281    3.1898    0.5117 C   0  0  2  0  0  0  0  0  0  0  0  0
    0.7823    4.6282    0.4079 C   0  0  0  0  0  0  0  0  0  0  0  0
    0.6961    5.1853   -0.6792 O   0  0  0  0  0  0  0  0  0  0  0  0
    2.7604    3.2003    1.0532 C   0  0  0  0  0  0  0  0  0  0  0  0
    1.2064    3.0765   -1.6131 H   0  0  0  0  0  0  0  0  0  0  0  0
    0.6803    2.6573    1.2156 H   0  0  0  0  0  0  0  0  0  0  0  0
    3.4227    3.7411    0.3694 H   0  0  0  0  0  0  0  0  0  0  0  0
    2.7995    3.6865    2.0327 H   0  0  0  0  0  0  0  0  0  0  0  0
    3.1314    2.1761    1.1615 H   0  0  0  0  0  0  0  0  0  0  0  0
    0.3888    5.3063    1.5470 N   0  0  0  0  0  0  0  0  0  0  0  0
   -0.1536    6.6592    1.5283 C   0  0  0  0  0  0  0  0  0  0  0  0
    0.4579    4.8157    2.4340 H   0  0  0  0  0  0  0  0  0  0  0  0
    0.5365    7.3441    1.0245 H   0  0  0  0  0  0  0  0  0  0  0  0
   -1.1147    6.6783    1.0041 H   0  0  0  0  0  0  0  0  0  0  0  0
   -0.3076    7.0181    2.5502 H   0  0  0  0  0  0  0  0  0  0  0  0
  1  2  2  0  0  0  0
  1  3  1  0  0  0  0
  1  7  1  0  0  0  0
  3  4  1  0  0  0  0
  3  5  1  0  0  0  0
  3  6  1  0  0  0  0
  7  8  1  0  0  0  0
  7 13  1  0  0  0  0
  8  9  1  0  0  0  0
  8 11  1  0  0  0  0
  8 14  1  0  0  0  0
  9 10  2  0  0  0  0
  9 17  1  0  0  0  0
 11 12  1  0  0  0  0
 11 15  1  0  0  0  0
 11 16  1  0  0  0  0
 12 44  1  0  0  0  0
 17 18  1  0  0  0  0
 17 19  1  0  0  0  0
 18 20  1  0  0  0  0
 18 21  1  0  0  0  0
 18 22  1  0  0  0  0
 23 24  2  0  0  0  0
 23 25  1  0  0  0  0
 23 29  1  0  0  0  0
 25 26  1  0  0  0  0
 25 27  1  0  0  0  0
 25 28  1  0  0  0  0
 29 30  1  0  0  0  0
 29 34  1  0  0  0  0
 30 31  1  0  0  0  0
 30 33  1  0  0  0  0
 30 35  1  0  0  0  0
 31 32  2  0  0  0  0
 31 39  1  0  0  0  0
 33 36  1  0  0  0  0
 33 37  1  0  0  0  0
 33 38  1  0  0  0  0
 39 40  1  0  0  0  0
 39 45  1  0  0  0  0
 40 41  1  0  0  0  0
 40 43  1  0  0  0  0
 40 46  1  0  0  0  0
 41 42  2  0  0  0  0
 41 49  1  0  0  0  0
 43 44  1  0  0  0  0
 43 47  1  0  0  0  0
 43 48  1  0  0  0  0
 49 50  1  0  0  0  0
 49 54  1  0  0  0  0
 50 51  1  0  0  0  0
 50 53  1  0  0  0  0
 50 55  1  0  0  0  0
 51 52  2  0  0  0  0
 51 59  1  0  0  0  0
 53 56  1  0  0  0  0
 53 57  1  0  0  0  0
 53 58  1  0  0  0  0
 59 60  1  0  0  0  0
 59 61  1  0  0  0  0
 60 62  1  0  0  0  0
 60 63  1  0  0  0  0
 60 64  1  0  0  0  0
M  END
$$$$

  -OEChem-05262216053D

 64 63  0     1  0  0  0  0  0999 V2000
    1.3015    2.9471   -9.4595 C   0  0  0  0  0  0  0  0  0  0  0  0
    0.1340    2.5938   -9.5283 O   0  0  0  0  0  0  0  0  0  0  0  0
    2.1153    3.1477  -10.7240 C   0  0  0  0  0  0  0  0  0  0  0  0
    2.9805    2.4802  -10.7207 H   0  0  0  0  0  0  0  0  0  0  0  0
    1.5043    2.9287  -11.6040 H   0  0  0  0  0  0  0  0  0  0  0  0
    2.4625    4.1821  -10.7847 H   0  0  0  0  0  0  0  0  0  0  0  0
    1.8769    3.1724   -8.2285 N   0  0  0  0  0  0  0  0  0  0  0  0
    1.1537    3.1200   -6.9507 C   0  0  2  0  0  0  0  0  0  0  0  0
    1.7899    4.0484   -5.8902 C   0  0  0  0  0  0  0  0  0  0  0  0
    2.8205    4.6616   -6.1526 O   0  0  0  0  0  0  0  0  0  0  0  0
    1.0910    1.6632   -6.4707 C   0  0  0  0  0  0  0  0  0  0  0  0
    2.7521    1.0059   -6.0225 S   0  0  0  0  0  0  0  0  0  0  0  0
    2.8216    3.5546   -8.2062 H   0  0  0  0  0  0  0  0  0  0  0  0
    0.1302    3.4789   -7.1030 H   0  0  0  0  0  0  0  0  0  0  0  0
    0.4329    1.6062   -5.6023 H   0  0  0  0  0  0  0  0  0  0  0  0
    0.6529    1.0328   -7.2508 H   0  0  0  0  0  0  0  0  0  0  0  0
    1.1809    4.2596   -4.6663 N   0  0  0  0  0  0  0  0  0  0  0  0
    1.7124    5.1438   -3.6387 C   0  0  0  0  0  0  0  0  0  0  0  0
    0.3498    3.7073   -4.4401 H   0  0  0  0  0  0  0  0  0  0  0  0
    2.6313    4.7277   -3.2134 H   0  0  0  0  0  0  0  0  0  0  0  0
    1.9307    6.1329   -4.0546 H   0  0  0  0  0  0  0  0  0  0  0  0
    0.9783    5.2655   -2.8360 H   0  0  0  0  0  0  0  0  0  0  0  0
   -3.8658    2.2911   -1.5342 C   0  0  0  0  0  0  0  0  0  0  0  0
   -3.7042    1.2016   -1.0058 O   0  0  0  0  0  0  0  0  0  0  0  0
   -4.3691    3.4671   -0.7217 C   0  0  0  0  0  0  0  0  0  0  0  0
   -5.4317    3.6264   -0.9169 H   0  0  0  0  0  0  0  0  0  0  0  0
   -4.2265    3.2716    0.3441 H   0  0  0  0  0  0  0  0  0  0  0  0
   -3.8188    4.3720   -0.9901 H   0  0  0  0  0  0  0  0  0  0  0  0
   -3.5900    2.4461   -2.8771 N   0  0  0  0  0  0  0  0  0  0  0  0
   -2.8611    1.4194   -3.6318 C   0  0  2  0  0  0  0  0  0  0  0  0
   -1.3499    1.5043   -3.3469 C   0  0  0  0  0  0  0  0  0  0  0  0
   -0.7837    2.5909   -3.3958 O   0  0  0  0  0  0  0  0  0  0  0  0
   -3.1478    1.6264   -5.1212 C   0  0  0  0  0  0  0  0  0  0  0  0
   -3.4910    3.4098   -3.1875 H   0  0  0  0  0  0  0  0  0  0  0  0
   -3.2155    0.4229   -3.3466 H   0  0  0  0  0  0  0  0  0  0  0  0
   -2.8105    2.6165   -5.4449 H   0  0  0  0  0  0  0  0  0  0  0  0
   -2.6290    0.8699   -5.7185 H   0  0  0  0  0  0  0  0  0  0  0  0
   -4.2217    1.5434   -5.3157 H   0  0  0  0  0  0  0  0  0  0  0  0
   -0.5549    0.3774   -3.2634 N   0  0  0  0  0  0  0  0  0  0  0  0
    0.6431    0.2732   -2.3980 C   0  0  2  0  0  0  0  0  0  0  0  0
    0.6084    1.1061   -1.0887 C   0  0  0  0  0  0  0  0  0  0  0  0
    0.5765    0.4983   -0.0274 O   0  0  0  0  0  0  0  0  0  0  0  0
    1.8648    0.7187   -3.2145 C   0  0  0  0  0  0  0  0  0  0  0  0
    2.1761   -0.4268   -4.6166 S   0  0  0  0  0  0  0  0  0  0  0  0
   -1.0789   -0.4894   -3.3556 H   0  0  0  0  0  0  0  0  0  0  0  0
    0.7796   -0.7731   -2.1062 H   0  0  0  0  0  0  0  0  0  0  0  0
    1.7149    1.7342   -3.5882 H   0  0  0  0  0  0  0  0  0  0  0  0
    2.7540    0.7345   -2.5756 H   0  0  0  0  0  0  0  0  0  0  0  0
    0.7807    2.4801   -1.0710 N   0  0  0  0  0  0  0  0  0  0  0  0
    0.7002    3.2978    0.1502 C   0  0  2  0  0  0  0  0  0  0  0  0
   -0.5292    4.2328    0.1778 C   0  0  0  0  0  0  0  0  0  0  0  0
   -1.1066    4.5553   -0.8548 O   0  0  0  0  0  0  0  0  0  0  0  0
    1.9946    4.1092    0.2413 C   0  0  0  0  0  0  0  0  0  0  0  0
    0.4861    2.9375   -1.9392 H   0  0  0  0  0  0  0  0  0  0  0  0
    0.6340    2.6604    1.0377 H   0  0  0  0  0  0  0  0  0  0  0  0
    2.0843    4.7909   -0.6096 H   0  0  0  0  0  0  0  0  0  0  0  0
    2.0124    4.6989    1.1626 H   0  0  0  0  0  0  0  0  0  0  0  0
    2.8600    3.4389    0.2442 H   0  0  0  0  0  0  0  0  0  0  0  0
   -0.9554    4.7687    1.3797 N   0  0  0  0  0  0  0  0  0  0  0  0
   -2.0515    5.7221    1.5002 C   0  0  0  0  0  0  0  0  0  0  0  0
   -0.4752    4.4658    2.2224 H   0  0  0  0  0  0  0  0  0  0  0  0
   -1.9095    6.5625    0.8121 H   0  0  0  0  0  0  0  0  0  0  0  0
   -3.0073    5.2394    1.2760 H   0  0  0  0  0  0  0  0  0  0  0  0
   -2.0953    6.1183    2.5194 H   0  0  0  0  0  0  0  0  0  0  0  0
  1  2  2  0  0  0  0
  1  3  1  0  0  0  0
  1  7  1  0  0  0  0
  3  4  1  0  0  0  0
  3  5  1  0  0  0  0
  3  6  1  0  0  0  0
  7  8  1  0  0  0  0
  7 13  1  0  0  0  0
  8  9  1  0  0  0  0
  8 11  1  0  0  0  0
  8 14  1  0  0  0  0
  9 10  2  0  0  0  0
  9 17  1  0  0  0  0
 11 12  1  0  0  0  0
 11 15  1  0  0  0  0
 11 16  1  0  0  0  0
 12 44  1  0  0  0  0
 17 18  1  0  0  0  0
 17 19  1  0  0  0  0
 18 20  1  0  0  0  0
 18 21  1  0  0  0  0
 18 22  1  0  0  0  0
 23 24  2  0  0  0  0
 23 25  1  0  0  0  0
 23 29  1  0  0  0  0
 25 26  1  0  0  0  0
 25 27  1  0  0  0  0
 25 28  1  0  0  0  0
 29 30  1  0  0  0  0
 29 34  1  0  0  0  0
 30 31  1  0  0  0  0
 30 33  1  0  0  0  0
 30 35  1  0  0  0  0
 31 32  2  0  0  0  0
 31 39  1  0  0  0  0
 33 36  1  0  0  0  0
 33 37  1  0  0  0  0
 33 38  1  0  0  0  0
 39 40  1  0  0  0  0
 39 45  1  0  0  0  0
 40 41  1  0  0  0  0
 40 43  1  0  0  0  0
 40 46  1  0  0  0  0
 41 42  2  0  0  0  0
 41 49  1  0  0  0  0
 43 44  1  0  0  0  0
 43 47  1  0  0  0  0
 43 48  1  0  0  0  0
 49 50  1  0  0  0  0
 49 54  1  0  0  0  0
 50 51  1  0  0  0  0
 50 53  1  0  0  0  0
 50 55  1  0  0  0  0
 51 52  2  0  0  0  0
 51 59  1  0  0  0  0
 53 56  1  0  0  0  0
 53 57  1  0  0  0  0
 53 58  1  0  0  0  0
 59 60  1  0  0  0  0
 59 61  1  0  0  0  0
 60 62  1  0  0  0  0
 60 63  1  0  0  0  0
 60 64  1  0  0  0  0
M  END
$$$$

  -OEChem-05262216053D

 64 63  0     1  0  0  0  0  0999 V2000
    1.7795    2.3452   -9.6834 C   0  0  0  0  0  0  0  0  0  0  0  0
    0.5685    2.2738   -9.8255 O   0  0  0  0  0  0  0  0  0  0  0  0
    2.6999    2.1538  -10.8735 C   0  0  0  0  0  0  0  0  0  0  0  0
    3.3442    1.2866  -10.7097 H   0  0  0  0  0  0  0  0  0  0  0  0
    2.1127    1.9915  -11.7815 H   0  0  0  0  0  0  0  0  0  0  0  0
    3.3222    3.0414  -11.0102 H   0  0  0  0  0  0  0  0  0  0  0  0
    2.3106    2.6105   -8.4407 N   0  0  0  0  0  0  0  0  0  0  0  0
    1.5159    2.8998   -7.2392 C   0  0  2  0  0  0  0  0  0  0  0  0
    2.2923    3.7825   -6.2356 C   0  0  0  0  0  0  0  0  0  0  0  0
    3.4473    4.1196   -6.4804 O   0  0  0  0  0  0  0  0  0  0  0  0
    1.0751    1.5767   -6.5990 C   0  0  0  0  0  0  0  0  0  0  0  0
    2.5004    0.6329   -5.9163 S   0  0  0  0  0  0  0  0  0  0  0  0
    3.3168    2.7585   -8.3731 H   0  0  0  0  0  0  0  0  0  0  0  0
    0.6215    3.4627   -7.5266 H   0  0  0  0  0  0  0  0  0  0  0  0
    0.3646    1.7885   -5.7974 H   0  0  0  0  0  0  0  0  0  0  0  0
    0.5552    0.9597   -7.3387 H   0  0  0  0  0  0  0  0  0  0  0  0
    1.6967    4.2435   -5.0751 N   0  0  0  0  0  0  0  0  0  0  0  0
    2.3939    5.0495   -4.0827 C   0  0  0  0  0  0  0  0  0  0  0  0
    0.7553    3.9093   -4.8537 H   0  0  0  0  0  0  0  0  0  0  0  0
    3.2161    4.4801   -3.6370 H   0  0  0  0  0  0  0  0  0  0  0  0
    2.7991    5.9585   -4.5397 H   0  0  0  0  0  0  0  0  0  0  0  0
    1.7030    5.3438   -3.2874 H   0  0  0  0  0  0  0  0  0  0  0  0
   -3.7430    1.0894   -1.7328 C   0  0  0  0  0  0  0  0  0  0  0  0
   -3.5936    0.1353   -2.4845 O   0  0  0  0  0  0  0  0  0  0  0  0
   -3.9545    0.8712   -0.2477 C   0  0  0  0  0  0  0  0  0  0  0  0
   -4.1404   -0.1870   -0.0446 H   0  0  0  0  0  0  0  0  0  0  0  0
   -3.0640    1.1858    0.3029 H   0  0  0  0  0  0  0  0  0  0  0  0
   -4.8116    1.4543    0.0971 H   0  0  0  0  0  0  0  0  0  0  0  0
   -3.5733    2.3658   -2.2255 N   0  0  0  0  0  0  0  0  0  0  0  0
   -3.0525    2.6415   -3.5706 C   0  0  2  0  0  0  0  0  0  0  0  0
   -1.5296    2.3850   -3.6161 C   0  0  0  0  0  0  0  0  0  0  0  0
   -0.7152    3.2916   -3.7743 O   0  0  0  0  0  0  0  0  0  0  0  0
   -3.4253    4.0865   -3.9199 C   0  0  0  0  0  0  0  0  0  0  0  0
   -3.4160    3.0872   -1.5129 H   0  0  0  0  0  0  0  0  0  0  0  0
   -3.5305    1.9815   -4.3028 H   0  0  0  0  0  0  0  0  0  0  0  0
   -2.9716    4.7841   -3.2080 H   0  0  0  0  0  0  0  0  0  0  0  0
   -3.0748    4.3375   -4.9259 H   0  0  0  0  0  0  0  0  0  0  0  0
   -4.5113    4.2165   -3.8893 H   0  0  0  0  0  0  0  0  0  0  0  0
   -1.0443    1.1059   -3.4226 N   0  0  0  0  0  0  0  0  0  0  0  0
    0.0204    0.7617   -2.4515 C   0  0  2  0  0  0  0  0  0  0  0  0
    0.1049    1.6395   -1.1768 C   0  0  0  0  0  0  0  0  0  0  0  0
   -0.0449    1.1073   -0.0842 O   0  0  0  0  0  0  0  0  0  0  0  0
    1.3778    0.8195   -3.1640 C   0  0  0  0  0  0  0  0  0  0  0  0
    1.4824   -0.4706   -4.4686 S   0  0  0  0  0  0  0  0  0  0  0  0
   -1.8188    0.4336   -3.4026 H   0  0  0  0  0  0  0  0  0  0  0  0
   -0.1476   -0.2665   -2.1135 H   0  0  0  0  0  0  0  0  0  0  0  0
    1.5278    1.8098   -3.6026 H   0  0  0  0  0  0  0  0  0  0  0  0
    2.1860    0.6528   -2.4444 H   0  0  0  0  0  0  0  0  0  0  0  0
    0.3259    3.0042   -1.2085 N   0  0  0  0  0  0  0  0  0  0  0  0
    0.1716    3.8515   -0.0182 C   0  0  2  0  0  0  0  0  0  0  0  0
   -1.2938    3.9925    0.4585 C   0  0  0  0  0  0  0  0  0  0  0  0
   -2.2265    4.0018   -0.3402 O   0  0  0  0  0  0  0  0  0  0  0  0
    0.7477    5.2282   -0.3527 C   0  0  0  0  0  0  0  0  0  0  0  0
    0.1783    3.4363   -2.1241 H   0  0  0  0  0  0  0  0  0  0  0  0
    0.7553    3.4202    0.8022 H   0  0  0  0  0  0  0  0  0  0  0  0
    0.1824    5.6927   -1.1676 H   0  0  0  0  0  0  0  0  0  0  0  0
    0.6986    5.8846    0.5216 H   0  0  0  0  0  0  0  0  0  0  0  0
    1.7946    5.1381   -0.6587 H   0  0  0  0  0  0  0  0  0  0  0  0
   -1.5712    4.1487    1.8038 N   0  0  0  0  0  0  0  0  0  0  0  0
   -2.9230    4.2588    2.3394 C   0  0  0  0  0  0  0  0  0  0  0  0
   -0.7949    4.0551    2.4529 H   0  0  0  0  0  0  0  0  0  0  0  0
   -3.4506    5.1023    1.8816 H   0  0  0  0  0  0  0  0  0  0  0  0
   -3.4882    3.3410    2.1460 H   0  0  0  0  0  0  0  0  0  0  0  0
   -2.8880    4.4235    3.4207 H   0  0  0  0  0  0  0  0  0  0  0  0
  1  2  2  0  0  0  0
  1  3  1  0  0  0  0
  1  7  1  0  0  0  0
  3  4  1  0  0  0  0
  3  5  1  0  0  0  0
  3  6  1  0  0  0  0
  7  8  1  0  0  0  0
  7 13  1  0  0  0  0
  8  9  1  0  0  0  0
  8 11  1  0  0  0  0
  8 14  1  0  0  0  0
  9 10  2  0  0  0  0
  9 17  1  0  0  0  0
 11 12  1  0  0  0  0
 11 15  1  0  0  0  0
 11 16  1  0  0  0  0
 12 44  1  0  0  0  0
 17 18  1  0  0  0  0
 17 19  1  0  0  0  0
 18 20  1  0  0  0  0
 18 21  1  0  0  0  0
 18 22  1  0  0  0  0
 23 24  2  0  0  0  0
 23 25  1  0  0  0  0
 23 29  1  0  0  0  0
 25 26  1  0  0  0  0
 25 27  1  0  0  0  0
 25 28  1  0  0  0  0
 29 30  1  0  0  0  0
 29 34  1  0  0  0  0
 30 31  1  0  0  0  0
 30 33  1  0  0  0  0
 30 35  1  0  0  0  0
 31 32  2  0  0  0  0
 31 39  1  0  0  0  0
 33 36  1  0  0  0  0
 33 37  1  0  0  0  0
 33 38  1  0  0  0  0
 39 40  1  0  0  0  0
 39 45  1  0  0  0  0
 40 41  1  0  0  0  0
 40 43  1  0  0  0  0
 40 46  1  0  0  0  0
 41 42  2  0  0  0  0
 41 49  1  0  0  0  0
 43 44  1  0  0  0  0
 43 47  1  0  0  0  0
 43 48  1  0  0  0  0
 49 50  1  0  0  0  0
 49 54  1  0  0  0  0
 50 51  1  0  0  0  0
 50 53  1  0  0  0  0
 50 55  1  0  0  0  0
 51 52  2  0  0  0  0
 51 59  1  0  0  0  0
 53 56  1  0  0  0  0
 53 57  1  0  0  0  0
 53 58  1  0  0  0  0
 59 60  1  0  0  0  0
 59 61  1  0  0  0  0
 60 62  1  0  0  0  0
 60 63  1  0  0  0  0
 60 64  1  0  0  0  0
M  END
$$$$

  -OEChem-05262216053D

 64 63  0     1  0  0  0  0  0999 V2000
    1.6193    2.5192   -9.6390 C   0  0  0  0  0  0  0  0  0  0  0  0
    0.4041    2.4472   -9.7409 O   0  0  0  0  0  0  0  0  0  0  0  0
    2.4967    2.3851  -10.8692 C   0  0  0  0  0  0  0  0  0  0  0  0
    3.1753    1.5367  -10.7526 H   0  0  0  0  0  0  0  0  0  0  0  0
    1.8789    2.2224  -11.7566 H   0  0  0  0  0  0  0  0  0  0  0  0
    3.0837    3.2957  -11.0108 H   0  0  0  0  0  0  0  0  0  0  0  0
    2.1936    2.7347   -8.4055 N   0  0  0  0  0  0  0  0  0  0  0  0
    1.4381    2.9888   -7.1708 C   0  0  2  0  0  0  0  0  0  0  0  0
    2.2422    3.8484   -6.1689 C   0  0  0  0  0  0  0  0  0  0  0  0
    3.3797    4.2148   -6.4505 O   0  0  0  0  0  0  0  0  0  0  0  0
    1.0220    1.6475   -6.5509 C   0  0  0  0  0  0  0  0  0  0  0  0
    2.4703    0.7001   -5.9239 S   0  0  0  0  0  0  0  0  0  0  0  0
    3.1998    2.8938   -8.3693 H   0  0  0  0  0  0  0  0  0  0  0  0
    0.5332    3.5558   -7.4143 H   0  0  0  0  0  0  0  0  0  0  0  0
    0.3306    1.8359   -5.7275 H   0  0  0  0  0  0  0  0  0  0  0  0
    0.4870    1.0435   -7.2906 H   0  0  0  0  0  0  0  0  0  0  0  0
    1.6917    4.2488   -4.9643 N   0  0  0  0  0  0  0  0  0  0  0  0
    2.4305    4.9994   -3.9585 C   0  0  0  0  0  0  0  0  0  0  0  0
    0.7602    3.9007   -4.7232 H   0  0  0  0  0  0  0  0  0  0  0  0
    3.2843    4.4165   -3.5972 H   0  0  0  0  0  0  0  0  0  0  0  0
    2.7974    5.9431   -4.3757 H   0  0  0  0  0  0  0  0  0  0  0  0
    1.7812    5.2277   -3.1081 H   0  0  0  0  0  0  0  0  0  0  0  0
   -3.8387    0.8321   -1.9108 C   0  0  0  0  0  0  0  0  0  0  0  0
   -3.5604   -0.0615   -2.6986 O   0  0  0  0  0  0  0  0  0  0  0  0
   -4.2422    0.5027   -0.4871 C   0  0  0  0  0  0  0  0  0  0  0  0
   -5.1518    1.0470   -0.2224 H   0  0  0  0  0  0  0  0  0  0  0  0
   -4.4307   -0.5696   -0.3864 H   0  0  0  0  0  0  0  0  0  0  0  0
   -3.4430    0.7886    0.2014 H   0  0  0  0  0  0  0  0  0  0  0  0
   -3.6586    2.1442   -2.2925 N   0  0  0  0  0  0  0  0  0  0  0  0
   -3.0554    2.5387   -3.5730 C   0  0  2  0  0  0  0  0  0  0  0  0
   -1.5224    2.3498   -3.5389 C   0  0  0  0  0  0  0  0  0  0  0  0
   -0.7450    3.2892   -3.6880 O   0  0  0  0  0  0  0  0  0  0  0  0
   -3.4743    3.9885   -3.8447 C   0  0  0  0  0  0  0  0  0  0  0  0
   -3.5983    2.8163   -1.5200 H   0  0  0  0  0  0  0  0  0  0  0  0
   -3.4509    1.9145   -4.3818 H   0  0  0  0  0  0  0  0  0  0  0  0
   -3.0969    4.6535   -3.0607 H   0  0  0  0  0  0  0  0  0  0  0  0
   -3.0775    4.3260   -4.8072 H   0  0  0  0  0  0  0  0  0  0  0  0
   -4.5653    4.0691   -3.8740 H   0  0  0  0  0  0  0  0  0  0  0  0
   -0.9941    1.0921   -3.3215 N   0  0  0  0  0  0  0  0  0  0  0  0
    0.0997    0.7601   -2.3762 C   0  0  2  0  0  0  0  0  0  0  0  0
    0.2384    1.6282   -1.0975 C   0  0  0  0  0  0  0  0  0  0  0  0
    0.3331    1.0636   -0.0151 O   0  0  0  0  0  0  0  0  0  0  0  0
    1.4272    0.8489   -3.1387 C   0  0  0  0  0  0  0  0  0  0  0  0
    1.5100   -0.4300   -4.4569 S   0  0  0  0  0  0  0  0  0  0  0  0
   -1.7385    0.3859   -3.3305 H   0  0  0  0  0  0  0  0  0  0  0  0
   -0.0410   -0.2727   -2.0397 H   0  0  0  0  0  0  0  0  0  0  0  0
    1.5395    1.8453   -3.5735 H   0  0  0  0  0  0  0  0  0  0  0  0
    2.2655    0.6941   -2.4512 H   0  0  0  0  0  0  0  0  0  0  0  0
    0.1659    3.0087   -1.0938 N   0  0  0  0  0  0  0  0  0  0  0  0
   -0.0912    3.7861    0.1237 C   0  0  2  0  0  0  0  0  0  0  0  0
   -1.5412    3.6354    0.6404 C   0  0  0  0  0  0  0  0  0  0  0  0
   -2.4913    3.5930   -0.1378 O   0  0  0  0  0  0  0  0  0  0  0  0
    0.2079    5.2526   -0.1914 C   0  0  0  0  0  0  0  0  0  0  0  0
   -0.0803    3.4332   -1.9908 H   0  0  0  0  0  0  0  0  0  0  0  0
    0.5916    3.4552    0.9133 H   0  0  0  0  0  0  0  0  0  0  0  0
   -0.4494    5.6164   -0.9883 H   0  0  0  0  0  0  0  0  0  0  0  0
    0.0521    5.8720    0.6972 H   0  0  0  0  0  0  0  0  0  0  0  0
    1.2470    5.3670   -0.5152 H   0  0  0  0  0  0  0  0  0  0  0  0
   -1.7885    3.5867    1.9994 N   0  0  0  0  0  0  0  0  0  0  0  0
   -3.1186    3.4113    2.5697 C   0  0  0  0  0  0  0  0  0  0  0  0
   -0.9819    3.5175    2.6140 H   0  0  0  0  0  0  0  0  0  0  0  0
   -3.8008    4.1842    2.2005 H   0  0  0  0  0  0  0  0  0  0  0  0
   -3.5226    2.4288    2.3059 H   0  0  0  0  0  0  0  0  0  0  0  0
   -3.0742    3.4866    3.6606 H   0  0  0  0  0  0  0  0  0  0  0  0
  1  2  2  0  0  0  0
  1  3  1  0  0  0  0
  1  7  1  0  0  0  0
  3  4  1  0  0  0  0
  3  5  1  0  0  0  0
  3  6  1  0  0  0  0
  7  8  1  0  0  0  0
  7 13  1  0  0  0  0
  8  9  1  0  0  0  0
  8 11  1  0  0  0  0
  8 14  1  0  0  0  0
  9 10  2  0  0  0  0
  9 17  1  0  0  0  0
 11 12  1  0  0  0  0
 11 15  1  0  0  0  0
 11 16  1  0  0  0  0
 12 44  1  0  0  0  0
 17 18  1  0  0  0  0
 17 19  1  0  0  0  0
 18 20  1  0  0  0  0
 18 21  1  0  0  0  0
 18 22  1  0  0  0  0
 23 24  2  0  0  0  0
 23 25  1  0  0  0  0
 23 29  1  0  0  0  0
 25 26  1  0  0  0  0
 25 27  1  0  0  0  0
 25 28  1  0  0  0  0
 29 30  1  0  0  0  0
 29 34  1  0  0  0  0
 30 31  1  0  0  0  0
 30 33  1  0  0  0  0
 30 35  1  0  0  0  0
 31 32  2  0  0  0  0
 31 39  1  0  0  0  0
 33 36  1  0  0  0  0
 33 37  1  0  0  0  0
 33 38  1  0  0  0  0
 39 40  1  0  0  0  0
 39 45  1  0  0  0  0
 40 41  1  0  0  0  0
 40 43  1  0  0  0  0
 40 46  1  0  0  0  0
 41 42  2  0  0  0  0
 41 49  1  0  0  0  0
 43 44  1  0  0  0  0
 43 47  1  0  0  0  0
 43 48  1  0  0  0  0
 49 50  1  0  0  0  0
 49 54  1  0  0  0  0
 50 51  1  0  0  0  0
 50 53  1  0  0  0  0
 50 55  1  0  0  0  0
 51 52  2  0  0  0  0
 51 59  1  0  0  0  0
 53 56  1  0  0  0  0
 53 57  1  0  0  0  0
 53 58  1  0  0  0  0
 59 60  1  0  0  0  0
 59 61  1  0  0  0  0
 60 62  1  0  0  0  0
 60 63  1  0  0  0  0
 60 64  1  0  0  0  0
M  END
$$$$

  -OEChem-05262216053D

 64 63  0     1  0  0  0  0  0999 V2000
    1.5703    2.6564   -9.6343 C   0  0  0  0  0  0  0  0  0  0  0  0
    0.3558    2.6141   -9.7561 O   0  0  0  0  0  0  0  0  0  0  0  0
    2.4654    2.5198  -10.8514 C   0  0  0  0  0  0  0  0  0  0  0  0
    3.1116    3.3965  -10.9399 H   0  0  0  0  0  0  0  0  0  0  0  0
    3.0862    1.6255  -10.7573 H   0  0  0  0  0  0  0  0  0  0  0  0
    1.8597    2.4353  -11.7581 H   0  0  0  0  0  0  0  0  0  0  0  0
    2.1299    2.8358   -8.3888 N   0  0  0  0  0  0  0  0  0  0  0  0
    1.3649    3.0629   -7.1547 C   0  0  2  0  0  0  0  0  0  0  0  0
    2.1732    3.8750   -6.1164 C   0  0  0  0  0  0  0  0  0  0  0  0
    3.3209    4.2278   -6.3728 O   0  0  0  0  0  0  0  0  0  0  0  0
    0.9213    1.7085   -6.5848 C   0  0  0  0  0  0  0  0  0  0  0  0
    2.3565    0.7015   -6.0229 S   0  0  0  0  0  0  0  0  0  0  0  0
    3.1402    2.9585   -8.3336 H   0  0  0  0  0  0  0  0  0  0  0  0
    0.4735    3.6542   -7.3884 H   0  0  0  0  0  0  0  0  0  0  0  0
    0.2463    1.8789   -5.7436 H   0  0  0  0  0  0  0  0  0  0  0  0
    0.3614    1.1499   -7.3415 H   0  0  0  0  0  0  0  0  0  0  0  0
    1.6167    4.2526   -4.9067 N   0  0  0  0  0  0  0  0  0  0  0  0
    2.3542    4.9699   -3.8754 C   0  0  0  0  0  0  0  0  0  0  0  0
    0.6790    3.9113   -4.6808 H   0  0  0  0  0  0  0  0  0  0  0  0
    3.2277    4.3913   -3.5576 H   0  0  0  0  0  0  0  0  0  0  0  0
    2.6904    5.9421   -4.2507 H   0  0  0  0  0  0  0  0  0  0  0  0
    1.7142    5.1379   -3.0037 H   0  0  0  0  0  0  0  0  0  0  0  0
   -3.8893    0.6838   -1.9663 C   0  0  0  0  0  0  0  0  0  0  0  0
   -3.6077   -0.1538   -2.8118 O   0  0  0  0  0  0  0  0  0  0  0  0
   -4.2929    0.2540   -0.5701 C   0  0  0  0  0  0  0  0  0  0  0  0
   -3.4444    0.3629    0.1099 H   0  0  0  0  0  0  0  0  0  0  0  0
   -5.1182    0.8737   -0.2116 H   0  0  0  0  0  0  0  0  0  0  0  0
   -4.6139   -0.7910   -0.5763 H   0  0  0  0  0  0  0  0  0  0  0  0
   -3.7010    2.0184   -2.2556 N   0  0  0  0  0  0  0  0  0  0  0  0
   -3.1098    2.5019   -3.5124 C   0  0  2  0  0  0  0  0  0  0  0  0
   -1.5749    2.3205   -3.5052 C   0  0  0  0  0  0  0  0  0  0  0  0
   -0.8069    3.2724   -3.6108 O   0  0  0  0  0  0  0  0  0  0  0  0
   -3.5394    3.9642   -3.6820 C   0  0  0  0  0  0  0  0  0  0  0  0
   -3.6558    2.6384   -1.4392 H   0  0  0  0  0  0  0  0  0  0  0  0
   -3.5093    1.9311   -4.3580 H   0  0  0  0  0  0  0  0  0  0  0  0
   -3.1621    4.5738   -2.8542 H   0  0  0  0  0  0  0  0  0  0  0  0
   -3.1488    4.3707   -4.6203 H   0  0  0  0  0  0  0  0  0  0  0  0
   -4.6311    4.0404   -3.7016 H   0  0  0  0  0  0  0  0  0  0  0  0
   -1.0406    1.0617   -3.3135 N   0  0  0  0  0  0  0  0  0  0  0  0
    0.0785    0.6987   -2.4082 C   0  0  2  0  0  0  0  0  0  0  0  0
    0.2870    1.5270   -1.1109 C   0  0  0  0  0  0  0  0  0  0  0  0
    0.6225    0.9321   -0.0950 O   0  0  0  0  0  0  0  0  0  0  0  0
    1.3775    0.7985   -3.2160 C   0  0  0  0  0  0  0  0  0  0  0  0
    1.4028   -0.4481   -4.5667 S   0  0  0  0  0  0  0  0  0  0  0  0
   -1.7765    0.3476   -3.3492 H   0  0  0  0  0  0  0  0  0  0  0  0
   -0.0615   -0.3411   -2.0937 H   0  0  0  0  0  0  0  0  0  0  0  0
    1.4811    1.8056   -3.6275 H   0  0  0  0  0  0  0  0  0  0  0  0
    2.2398    0.6201   -2.5648 H   0  0  0  0  0  0  0  0  0  0  0  0
   -0.0397    2.8641   -0.9812 N   0  0  0  0  0  0  0  0  0  0  0  0
   -0.2858    3.5218    0.3070 C   0  0  2  0  0  0  0  0  0  0  0  0
   -1.6977    3.2185    0.8571 C   0  0  0  0  0  0  0  0  0  0  0  0
   -2.6785    3.2311    0.1162 O   0  0  0  0  0  0  0  0  0  0  0  0
   -0.1023    5.0275    0.1062 C   0  0  0  0  0  0  0  0  0  0  0  0
   -0.3883    3.3193   -1.8266 H   0  0  0  0  0  0  0  0  0  0  0  0
    0.4523    3.1814    1.0409 H   0  0  0  0  0  0  0  0  0  0  0  0
   -0.8244    5.4091   -0.6231 H   0  0  0  0  0  0  0  0  0  0  0  0
   -0.2495    5.5588    1.0517 H   0  0  0  0  0  0  0  0  0  0  0  0
    0.9074    5.2417   -0.2571 H   0  0  0  0  0  0  0  0  0  0  0  0
   -1.8775    2.9525    2.2012 N   0  0  0  0  0  0  0  0  0  0  0  0
   -3.1685    2.6195    2.7911 C   0  0  0  0  0  0  0  0  0  0  0  0
   -1.0405    2.8534    2.7700 H   0  0  0  0  0  0  0  0  0  0  0  0
   -3.8874    3.4283    2.6230 H   0  0  0  0  0  0  0  0  0  0  0  0
   -3.5651    1.6976    2.3538 H   0  0  0  0  0  0  0  0  0  0  0  0
   -3.0627    2.4723    3.8703 H   0  0  0  0  0  0  0  0  0  0  0  0
  1  2  2  0  0  0  0
  1  3  1  0  0  0  0
  1  7  1  0  0  0  0
  3  4  1  0  0  0  0
  3  5  1  0  0  0  0
  3  6  1  0  0  0  0
  7  8  1  0  0  0  0
  7 13  1  0  0  0  0
  8  9  1  0  0  0  0
  8 11  1  0  0  0  0
  8 14  1  0  0  0  0
  9 10  2  0  0  0  0
  9 17  1  0  0  0  0
 11 12  1  0  0  0  0
 11 15  1  0  0  0  0
 11 16  1  0  0  0  0
 12 44  1  0  0  0  0
 17 18  1  0  0  0  0
 17 19  1  0  0  0  0
 18 20  1  0  0  0  0
 18 21  1  0  0  0  0
 18 22  1  0  0  0  0
 23 24  2  0  0  0  0
 23 25  1  0  0  0  0
 23 29  1  0  0  0  0
 25 26  1  0  0  0  0
 25 27  1  0  0  0  0
 25 28  1  0  0  0  0
 29 30  1  0  0  0  0
 29 34  1  0  0  0  0
 30 31  1  0  0  0  0
 30 33  1  0  0  0  0
 30 35  1  0  0  0  0
 31 32  2  0  0  0  0
 31 39  1  0  0  0  0
 33 36  1  0  0  0  0
 33 37  1  0  0  0  0
 33 38  1  0  0  0  0
 39 40  1  0  0  0  0
 39 45  1  0  0  0  0
 40 41  1  0  0  0  0
 40 43  1  0  0  0  0
 40 46  1  0  0  0  0
 41 42  2  0  0  0  0
 41 49  1  0  0  0  0
 43 44  1  0  0  0  0
 43 47  1  0  0  0  0
 43 48  1  0  0  0  0
 49 50  1  0  0  0  0
 49 54  1  0  0  0  0
 50 51  1  0  0  0  0
 50 53  1  0  0  0  0
 50 55  1  0  0  0  0
 51 52  2  0  0  0  0
 51 59  1  0  0  0  0
 53 56  1  0  0  0  0
 53 57  1  0  0  0  0
 53 58  1  0  0  0  0
 59 60  1  0  0  0  0
 59 61  1  0  0  0  0
 60 62  1  0  0  0  0
 60 63  1  0  0  0  0
 60 64  1  0  0  0  0
M  END
$$$$

  -OEChem-05262216053D

 64 63  0     1  0  0  0  0  0999 V2000
    1.4161    2.9026   -9.5811 C   0  0  0  0  0  0  0  0  0  0  0  0
    0.1998    2.8295   -9.6654 O   0  0  0  0  0  0  0  0  0  0  0  0
    2.2734    2.8302  -10.8302 C   0  0  0  0  0  0  0  0  0  0  0  0
    2.9520    1.9761  -10.7669 H   0  0  0  0  0  0  0  0  0  0  0  0
    1.6412    2.7126  -11.7146 H   0  0  0  0  0  0  0  0  0  0  0  0
    2.8597    3.7462  -10.9348 H   0  0  0  0  0  0  0  0  0  0  0  0
    2.0103    3.0530   -8.3477 N   0  0  0  0  0  0  0  0  0  0  0  0
    1.2793    3.1861   -7.0799 C   0  0  2  0  0  0  0  0  0  0  0  0
    2.0993    3.9541   -6.0174 C   0  0  0  0  0  0  0  0  0  0  0  0
    3.2253    4.3607   -6.2899 O   0  0  0  0  0  0  0  0  0  0  0  0
    0.8852    1.7886   -6.5818 C   0  0  0  0  0  0  0  0  0  0  0  0
    2.3581    0.7821   -6.1266 S   0  0  0  0  0  0  0  0  0  0  0  0
    3.0182    3.2004   -8.3166 H   0  0  0  0  0  0  0  0  0  0  0  0
    0.3669    3.7670   -7.2514 H   0  0  0  0  0  0  0  0  0  0  0  0
    0.2338    1.8914   -5.7121 H   0  0  0  0  0  0  0  0  0  0  0  0
    0.3148    1.2644   -7.3550 H   0  0  0  0  0  0  0  0  0  0  0  0
    1.5757    4.2314   -4.7665 N   0  0  0  0  0  0  0  0  0  0  0  0
    2.3292    4.8988   -3.7139 C   0  0  0  0  0  0  0  0  0  0  0  0
    0.6596    3.8429   -4.5290 H   0  0  0  0  0  0  0  0  0  0  0  0
    3.2326    4.3300   -3.4698 H   0  0  0  0  0  0  0  0  0  0  0  0
    2.6194    5.9065   -4.0293 H   0  0  0  0  0  0  0  0  0  0  0  0
    1.7174    4.9811   -2.8102 H   0  0  0  0  0  0  0  0  0  0  0  0
   -3.8446    0.3936   -2.0461 C   0  0  0  0  0  0  0  0  0  0  0  0
   -3.5028   -0.4040   -2.9080 O   0  0  0  0  0  0  0  0  0  0  0  0
   -4.3264   -0.0970   -0.6943 C   0  0  0  0  0  0  0  0  0  0  0  0
   -5.2822    0.3711   -0.4471 H   0  0  0  0  0  0  0  0  0  0  0  0
   -4.4592   -1.1821   -0.7117 H   0  0  0  0  0  0  0  0  0  0  0  0
   -3.5958    0.1572    0.0774 H   0  0  0  0  0  0  0  0  0  0  0  0
   -3.6780    1.7422   -2.2793 N   0  0  0  0  0  0  0  0  0  0  0  0
   -3.0576    2.2856   -3.4973 C   0  0  2  0  0  0  0  0  0  0  0  0
   -1.5192    2.1511   -3.4409 C   0  0  0  0  0  0  0  0  0  0  0  0
   -0.7818    3.1316   -3.4256 O   0  0  0  0  0  0  0  0  0  0  0  0
   -3.5288    3.7371   -3.6420 C   0  0  0  0  0  0  0  0  0  0  0  0
   -3.6847    2.3335   -1.4410 H   0  0  0  0  0  0  0  0  0  0  0  0
   -3.4075    1.7297   -4.3740 H   0  0  0  0  0  0  0  0  0  0  0  0
   -3.2109    4.3334   -2.7806 H   0  0  0  0  0  0  0  0  0  0  0  0
   -3.1103    4.1850   -4.5489 H   0  0  0  0  0  0  0  0  0  0  0  0
   -4.6205    3.7763   -3.7094 H   0  0  0  0  0  0  0  0  0  0  0  0
   -0.9551    0.8969   -3.3221 N   0  0  0  0  0  0  0  0  0  0  0  0
    0.1881    0.5004   -2.4609 C   0  0  2  0  0  0  0  0  0  0  0  0
    0.4226    1.2511   -1.1199 C   0  0  0  0  0  0  0  0  0  0  0  0
    1.0140    0.6580   -0.2279 O   0  0  0  0  0  0  0  0  0  0  0  0
    1.4629    0.6759   -3.2961 C   0  0  0  0  0  0  0  0  0  0  0  0
    1.4772   -0.4845   -4.7213 S   0  0  0  0  0  0  0  0  0  0  0  0
   -1.6685    0.1654   -3.4144 H   0  0  0  0  0  0  0  0  0  0  0  0
    0.0741   -0.5584   -2.2061 H   0  0  0  0  0  0  0  0  0  0  0  0
    1.5371    1.7087   -3.6462 H   0  0  0  0  0  0  0  0  0  0  0  0
    2.3469    0.4749   -2.6815 H   0  0  0  0  0  0  0  0  0  0  0  0
   -0.1689    2.4587   -0.7984 N   0  0  0  0  0  0  0  0  0  0  0  0
   -0.3824    2.9756    0.5592 C   0  0  2  0  0  0  0  0  0  0  0  0
   -1.8508    2.8253    1.0154 C   0  0  0  0  0  0  0  0  0  0  0  0
   -2.7705    2.8398    0.1997 O   0  0  0  0  0  0  0  0  0  0  0  0
    0.0269    4.4496    0.5604 C   0  0  0  0  0  0  0  0  0  0  0  0
   -0.6358    2.9412   -1.5672 H   0  0  0  0  0  0  0  0  0  0  0  0
    0.2498    2.4407    1.2757 H   0  0  0  0  0  0  0  0  0  0  0  0
   -0.5903    5.0200   -0.1414 H   0  0  0  0  0  0  0  0  0  0  0  0
   -0.0943    4.8794    1.5596 H   0  0  0  0  0  0  0  0  0  0  0  0
    1.0760    4.5510    0.2650 H   0  0  0  0  0  0  0  0  0  0  0  0
   -2.1517    2.6952    2.3583 N   0  0  0  0  0  0  0  0  0  0  0  0
   -3.5087    2.5465    2.8705 C   0  0  0  0  0  0  0  0  0  0  0  0
   -1.3734    2.6474    3.0107 H   0  0  0  0  0  0  0  0  0  0  0  0
   -4.1240    3.4050    2.5820 H   0  0  0  0  0  0  0  0  0  0  0  0
   -3.9693    1.6338    2.4787 H   0  0  0  0  0  0  0  0  0  0  0  0
   -3.4952    2.4851    3.9629 H   0  0  0  0  0  0  0  0  0  0  0  0
  1  2  2  0  0  0  0
  1  3  1  0  0  0  0
  1  7  1  0  0  0  0
  3  4  1  0  0  0  0
  3  5  1  0  0  0  0
  3  6  1  0  0  0  0
  7  8  1  0  0  0  0
  7 13  1  0  0  0  0
  8  9  1  0  0  0  0
  8 11  1  0  0  0  0
  8 14  1  0  0  0  0
  9 10  2  0  0  0  0
  9 17  1  0  0  0  0
 11 12  1  0  0  0  0
 11 15  1  0  0  0  0
 11 16  1  0  0  0  0
 12 44  1  0  0  0  0
 17 18  1  0  0  0  0
 17 19  1  0  0  0  0
 18 20  1  0  0  0  0
 18 21  1  0  0  0  0
 18 22  1  0  0  0  0
 23 24  2  0  0  0  0
 23 25  1  0  0  0  0
 23 29  1  0  0  0  0
 25 26  1  0  0  0  0
 25 27  1  0  0  0  0
 25 28  1  0  0  0  0
 29 30  1  0  0  0  0
 29 34  1  0  0  0  0
 30 31  1  0  0  0  0
 30 33  1  0  0  0  0
 30 35  1  0  0  0  0
 31 32  2  0  0  0  0
 31 39  1  0  0  0  0
 33 36  1  0  0  0  0
 33 37  1  0  0  0  0
 33 38  1  0  0  0  0
 39 40  1  0  0  0  0
 39 45  1  0  0  0  0
 40 41  1  0  0  0  0
 40 43  1  0  0  0  0
 40 46  1  0  0  0  0
 41 42  2  0  0  0  0
 41 49  1  0  0  0  0
 43 44  1  0  0  0  0
 43 47  1  0  0  0  0
 43 48  1  0  0  0  0
 49 50  1  0  0  0  0
 49 54  1  0  0  0  0
 50 51  1  0  0  0  0
 50 53  1  0  0  0  0
 50 55  1  0  0  0  0
 51 52  2  0  0  0  0
 51 59  1  0  0  0  0
 53 56  1  0  0  0  0
 53 57  1  0  0  0  0
 53 58  1  0  0  0  0
 59 60  1  0  0  0  0
 59 61  1  0  0  0  0
 60 62  1  0  0  0  0
 60 63  1  0  0  0  0
 60 64  1  0  0  0  0
M  END
$$$$

  -OEChem-05262216053D

 64 63  0     1  0  0  0  0  0999 V2000
    1.3331    3.0502   -9.5242 C   0  0  0  0  0  0  0  0  0  0  0  0
    0.1182    2.9439   -9.5917 O   0  0  0  0  0  0  0  0  0  0  0  0
    2.1693    3.0603  -10.7894 C   0  0  0  0  0  0  0  0  0  0  0  0
    2.9092    2.2569  -10.7516 H   0  0  0  0  0  0  0  0  0  0  0  0
    1.5302    2.9103  -11.6640 H   0  0  0  0  0  0  0  0  0  0  0  0
    2.6854    4.0182  -10.8889 H   0  0  0  0  0  0  0  0  0  0  0  0
    1.9444    3.1569   -8.2947 N   0  0  0  0  0  0  0  0  0  0  0  0
    1.2311    3.2043   -7.0110 C   0  0  2  0  0  0  0  0  0  0  0  0
    2.0477    3.9394   -5.9230 C   0  0  0  0  0  0  0  0  0  0  0  0
    3.1619    4.3806   -6.1897 O   0  0  0  0  0  0  0  0  0  0  0  0
    0.8818    1.7725   -6.5813 C   0  0  0  0  0  0  0  0  0  0  0  0
    2.3871    0.7842   -6.1964 S   0  0  0  0  0  0  0  0  0  0  0  0
    2.9481    3.3325   -8.2720 H   0  0  0  0  0  0  0  0  0  0  0  0
    0.3014    3.7680   -7.1391 H   0  0  0  0  0  0  0  0  0  0  0  0
    0.2393    1.8132   -5.7000 H   0  0  0  0  0  0  0  0  0  0  0  0
    0.3154    1.2719   -7.3729 H   0  0  0  0  0  0  0  0  0  0  0  0
    1.5325    4.1548   -4.6563 N   0  0  0  0  0  0  0  0  0  0  0  0
    2.2848    4.7931   -3.5848 C   0  0  0  0  0  0  0  0  0  0  0  0
    0.6287    3.7364   -4.4229 H   0  0  0  0  0  0  0  0  0  0  0  0
    3.1992    4.2303   -3.3697 H   0  0  0  0  0  0  0  0  0  0  0  0
    2.5565    5.8168   -3.8631 H   0  0  0  0  0  0  0  0  0  0  0  0
    1.6795    4.8312   -2.6736 H   0  0  0  0  0  0  0  0  0  0  0  0
   -3.7448    0.1273   -2.0002 C   0  0  0  0  0  0  0  0  0  0  0  0
   -3.3798   -0.6587   -2.8632 O   0  0  0  0  0  0  0  0  0  0  0  0
   -4.2165   -0.3774   -0.6502 C   0  0  0  0  0  0  0  0  0  0  0  0
   -5.1590    0.1053   -0.3804 H   0  0  0  0  0  0  0  0  0  0  0  0
   -4.3714   -1.4592   -0.6845 H   0  0  0  0  0  0  0  0  0  0  0  0
   -3.4698   -0.1500    0.1146 H   0  0  0  0  0  0  0  0  0  0  0  0
   -3.6177    1.4804   -2.2316 N   0  0  0  0  0  0  0  0  0  0  0  0
   -3.0235    2.0437   -3.4544 C   0  0  2  0  0  0  0  0  0  0  0  0
   -1.4817    1.9458   -3.4139 C   0  0  0  0  0  0  0  0  0  0  0  0
   -0.7740    2.9421   -3.3171 O   0  0  0  0  0  0  0  0  0  0  0  0
   -3.5289    3.4844   -3.5922 C   0  0  0  0  0  0  0  0  0  0  0  0
   -3.6691    2.0752   -1.3975 H   0  0  0  0  0  0  0  0  0  0  0  0
   -3.3688    1.4828   -4.3302 H   0  0  0  0  0  0  0  0  0  0  0  0
   -3.2209    4.0863   -2.7307 H   0  0  0  0  0  0  0  0  0  0  0  0
   -3.1244    3.9431   -4.5002 H   0  0  0  0  0  0  0  0  0  0  0  0
   -4.6214    3.4993   -3.6551 H   0  0  0  0  0  0  0  0  0  0  0  0
   -0.8841    0.7030   -3.3477 N   0  0  0  0  0  0  0  0  0  0  0  0
    0.2826    0.3133   -2.5145 C   0  0  2  0  0  0  0  0  0  0  0  0
    0.5035    1.0348   -1.1545 C   0  0  0  0  0  0  0  0  0  0  0  0
    1.3247    0.5738   -0.3730 O   0  0  0  0  0  0  0  0  0  0  0  0
    1.5380    0.5533   -3.3645 C   0  0  0  0  0  0  0  0  0  0  0  0
    1.5648   -0.5595   -4.8273 S   0  0  0  0  0  0  0  0  0  0  0  0
   -1.5770   -0.0457   -3.4568 H   0  0  0  0  0  0  0  0  0  0  0  0
    0.2034   -0.7544   -2.2873 H   0  0  0  0  0  0  0  0  0  0  0  0
    1.5753    1.5986   -3.6798 H   0  0  0  0  0  0  0  0  0  0  0  0
    2.4393    0.3598   -2.7729 H   0  0  0  0  0  0  0  0  0  0  0  0
   -0.3367    2.0263   -0.6846 N   0  0  0  0  0  0  0  0  0  0  0  0
   -0.4610    2.4849    0.7030 C   0  0  2  0  0  0  0  0  0  0  0  0
   -1.9384    2.5523    1.1498 C   0  0  0  0  0  0  0  0  0  0  0  0
   -2.8468    2.5819    0.3210 O   0  0  0  0  0  0  0  0  0  0  0  0
    0.1980    3.8621    0.7994 C   0  0  0  0  0  0  0  0  0  0  0  0
   -0.9341    2.4706   -1.3809 H   0  0  0  0  0  0  0  0  0  0  0  0
    0.0555    1.7940    1.3777 H   0  0  0  0  0  0  0  0  0  0  0  0
   -0.3163    4.5795    0.1512 H   0  0  0  0  0  0  0  0  0  0  0  0
    0.1639    4.2330    1.8283 H   0  0  0  0  0  0  0  0  0  0  0  0
    1.2462    3.8010    0.4891 H   0  0  0  0  0  0  0  0  0  0  0  0
   -2.2599    2.5624    2.4940 N   0  0  0  0  0  0  0  0  0  0  0  0
   -3.6290    2.6063    2.9933 C   0  0  0  0  0  0  0  0  0  0  0  0
   -1.4943    2.5236    3.1619 H   0  0  0  0  0  0  0  0  0  0  0  0
   -4.1315    3.5184    2.6545 H   0  0  0  0  0  0  0  0  0  0  0  0
   -4.1941    1.7383    2.6374 H   0  0  0  0  0  0  0  0  0  0  0  0
   -3.6342    2.5960    4.0876 H   0  0  0  0  0  0  0  0  0  0  0  0
  1  2  2  0  0  0  0
  1  3  1  0  0  0  0
  1  7  1  0  0  0  0
  3  4  1  0  0  0  0
  3  5  1  0  0  0  0
  3  6  1  0  0  0  0
  7  8  1  0  0  0  0
  7 13  1  0  0  0  0
  8  9  1  0  0  0  0
  8 11  1  0  0  0  0
  8 14  1  0  0  0  0
  9 10  2  0  0  0  0
  9 17  1  0  0  0  0
 11 12  1  0  0  0  0
 11 15  1  0  0  0  0
 11 16  1  0  0  0  0
 12 44  1  0  0  0  0
 17 18  1  0  0  0  0
 17 19  1  0  0  0  0
 18 20  1  0  0  0  0
 18 21  1  0  0  0  0
 18 22  1  0  0  0  0
 23 24  2  0  0  0  0
 23 25  1  0  0  0  0
 23 29  1  0  0  0  0
 25 26  1  0  0  0  0
 25 27  1  0  0  0  0
 25 28  1  0  0  0  0
 29 30  1  0  0  0  0
 29 34  1  0  0  0  0
 30 31  1  0  0  0  0
 30 33  1  0  0  0  0
 30 35  1  0  0  0  0
 31 32  2  0  0  0  0
 31 39  1  0  0  0  0
 33 36  1  0  0  0  0
 33 37  1  0  0  0  0
 33 38  1  0  0  0  0
 39 40  1  0  0  0  0
 39 45  1  0  0  0  0
 40 41  1  0  0  0  0
 40 43  1  0  0  0  0
 40 46  1  0  0  0  0
 41 42  2  0  0  0  0
 41 49  1  0  0  0  0
 43 44  1  0  0  0  0
 43 47  1  0  0  0  0
 43 48  1  0  0  0  0
 49 50  1  0  0  0  0
 49 54  1  0  0  0  0
 50 51  1  0  0  0  0
 50 53  1  0  0  0  0
 50 55  1  0  0  0  0
 51 52  2  0  0  0  0
 51 59  1  0  0  0  0
 53 56  1  0  0  0  0
 53 57  1  0  0  0  0
 53 58  1  0  0  0  0
 59 60  1  0  0  0  0
 59 61  1  0  0  0  0
 60 62  1  0  0  0  0
 60 63  1  0  0  0  0
 60 64  1  0  0  0  0
M  END
$$$$

  -OEChem-05262216053D

 64 63  0     1  0  0  0  0  0999 V2000
    1.1578    3.1898   -9.4679 C   0  0  0  0  0  0  0  0  0  0  0  0
   -0.0477    2.9936   -9.4779 O   0  0  0  0  0  0  0  0  0  0  0  0
    1.9221    3.3044  -10.7730 C   0  0  0  0  0  0  0  0  0  0  0  0
    2.6938    2.5324  -10.8221 H   0  0  0  0  0  0  0  0  0  0  0  0
    1.2424    3.1772  -11.6200 H   0  0  0  0  0  0  0  0  0  0  0  0
    2.3942    4.2871  -10.8438 H   0  0  0  0  0  0  0  0  0  0  0  0
    1.8229    3.3143   -8.2684 N   0  0  0  0  0  0  0  0  0  0  0  0
    1.1775    3.2831   -6.9482 C   0  0  2  0  0  0  0  0  0  0  0  0
    2.0153    4.0204   -5.8774 C   0  0  0  0  0  0  0  0  0  0  0  0
    3.0734    4.5564   -6.1948 O   0  0  0  0  0  0  0  0  0  0  0  0
    0.9179    1.8241   -6.5485 C   0  0  0  0  0  0  0  0  0  0  0  0
    2.4801    0.9010   -6.2384 S   0  0  0  0  0  0  0  0  0  0  0  0
    2.8099    3.5675   -8.2926 H   0  0  0  0  0  0  0  0  0  0  0  0
    0.2162    3.8033   -7.0086 H   0  0  0  0  0  0  0  0  0  0  0  0
    0.3072    1.8104   -5.6447 H   0  0  0  0  0  0  0  0  0  0  0  0
    0.3482    1.3158   -7.3327 H   0  0  0  0  0  0  0  0  0  0  0  0
    1.5820    4.1247   -4.5669 N   0  0  0  0  0  0  0  0  0  0  0  0
    2.3756    4.7335   -3.5081 C   0  0  0  0  0  0  0  0  0  0  0  0
    0.7279    3.6301   -4.2979 H   0  0  0  0  0  0  0  0  0  0  0  0
    3.3250    4.2017   -3.3861 H   0  0  0  0  0  0  0  0  0  0  0  0
    2.5846    5.7833   -3.7389 H   0  0  0  0  0  0  0  0  0  0  0  0
    1.8304    4.6895   -2.5601 H   0  0  0  0  0  0  0  0  0  0  0  0
   -3.5955   -0.1465   -2.0337 C   0  0  0  0  0  0  0  0  0  0  0  0
   -3.2019   -0.8511   -2.9520 O   0  0  0  0  0  0  0  0  0  0  0  0
   -4.1290   -0.7709   -0.7589 C   0  0  0  0  0  0  0  0  0  0  0  0
   -4.2543   -1.8495   -0.8898 H   0  0  0  0  0  0  0  0  0  0  0  0
   -3.4321   -0.5932    0.0639 H   0  0  0  0  0  0  0  0  0  0  0  0
   -5.0972   -0.3322   -0.5050 H   0  0  0  0  0  0  0  0  0  0  0  0
   -3.4516    1.2210   -2.1370 N   0  0  0  0  0  0  0  0  0  0  0  0
   -2.8898    1.9036   -3.3144 C   0  0  2  0  0  0  0  0  0  0  0  0
   -1.3481    1.7986   -3.3443 C   0  0  0  0  0  0  0  0  0  0  0  0
   -0.6328    2.7807   -3.1879 O   0  0  0  0  0  0  0  0  0  0  0  0
   -3.3886    3.3538   -3.2831 C   0  0  0  0  0  0  0  0  0  0  0  0
   -3.6080    1.7594   -1.2779 H   0  0  0  0  0  0  0  0  0  0  0  0
   -3.2691    1.4368   -4.2301 H   0  0  0  0  0  0  0  0  0  0  0  0
   -3.0441    3.8624   -2.3765 H   0  0  0  0  0  0  0  0  0  0  0  0
   -3.0148    3.9044   -4.1524 H   0  0  0  0  0  0  0  0  0  0  0  0
   -4.4823    3.3805   -3.3031 H   0  0  0  0  0  0  0  0  0  0  0  0
   -0.7445    0.5571   -3.4081 N   0  0  0  0  0  0  0  0  0  0  0  0
    0.4193    0.1259   -2.5914 C   0  0  2  0  0  0  0  0  0  0  0  0
    0.5641    0.7497   -1.1727 C   0  0  0  0  0  0  0  0  0  0  0  0
    1.5688    0.5424   -0.5046 O   0  0  0  0  0  0  0  0  0  0  0  0
    1.6838    0.4463   -3.4051 C   0  0  0  0  0  0  0  0  0  0  0  0
    1.7419   -0.5597   -4.9432 S   0  0  0  0  0  0  0  0  0  0  0  0
   -1.4347   -0.1856   -3.5661 H   0  0  0  0  0  0  0  0  0  0  0  0
    0.3600   -0.9569   -2.4445 H   0  0  0  0  0  0  0  0  0  0  0  0
    1.7108    1.5125   -3.6431 H   0  0  0  0  0  0  0  0  0  0  0  0
    2.5812    0.2215   -2.8194 H   0  0  0  0  0  0  0  0  0  0  0  0
   -0.4826    1.4181   -0.5635 N   0  0  0  0  0  0  0  0  0  0  0  0
   -0.4886    1.9815    0.7889 C   0  0  2  0  0  0  0  0  0  0  0  0
   -1.9306    2.1559    1.3143 C   0  0  0  0  0  0  0  0  0  0  0  0
   -2.8864    2.1184    0.5402 O   0  0  0  0  0  0  0  0  0  0  0  0
    0.2332    3.3326    0.7555 C   0  0  0  0  0  0  0  0  0  0  0  0
   -1.2883    1.6251   -1.1475 H   0  0  0  0  0  0  0  0  0  0  0  0
    0.0366    1.3031    1.4697 H   0  0  0  0  0  0  0  0  0  0  0  0
   -0.2744    4.0211    0.0719 H   0  0  0  0  0  0  0  0  0  0  0  0
    0.2544    3.7822    1.7526 H   0  0  0  0  0  0  0  0  0  0  0  0
    1.2653    3.2039    0.4144 H   0  0  0  0  0  0  0  0  0  0  0  0
   -2.1653    2.3347    2.6647 N   0  0  0  0  0  0  0  0  0  0  0  0
   -3.4975    2.4866    3.2375 C   0  0  0  0  0  0  0  0  0  0  0  0
   -1.3598    2.3489    3.2848 H   0  0  0  0  0  0  0  0  0  0  0  0
   -4.0106    3.3459    2.7933 H   0  0  0  0  0  0  0  0  0  0  0  0
   -4.0956    1.5868    3.0601 H   0  0  0  0  0  0  0  0  0  0  0  0
   -3.4286    2.6480    4.3177 H   0  0  0  0  0  0  0  0  0  0  0  0
  1  2  2  0  0  0  0
  1  3  1  0  0  0  0
  1  7  1  0  0  0  0
  3  4  1  0  0  0  0
  3  5  1  0  0  0  0
  3  6  1  0  0  0  0
  7  8  1  0  0  0  0
  7 13  1  0  0  0  0
  8  9  1  0  0  0  0
  8 11  1  0  0  0  0
  8 14  1  0  0  0  0
  9 10  2  0  0  0  0
  9 17  1  0  0  0  0
 11 12  1  0  0  0  0
 11 15  1  0  0  0  0
 11 16  1  0  0  0  0
 12 44  1  0  0  0  0
 17 18  1  0  0  0  0
 17 19  1  0  0  0  0
 18 20  1  0  0  0  0
 18 21  1  0  0  0  0
 18 22  1  0  0  0  0
 23 24  2  0  0  0  0
 23 25  1  0  0  0  0
 23 29  1  0  0  0  0
 25 26  1  0  0  0  0
 25 27  1  0  0  0  0
 25 28  1  0  0  0  0
 29 30  1  0  0  0  0
 29 34  1  0  0  0  0
 30 31  1  0  0  0  0
 30 33  1  0  0  0  0
 30 35  1  0  0  0  0
 31 32  2  0  0  0  0
 31 39  1  0  0  0  0
 33 36  1  0  0  0  0
 33 37  1  0  0  0  0
 33 38  1  0  0  0  0
 39 40  1  0  0  0  0
 39 45  1  0  0  0  0
 40 41  1  0  0  0  0
 40 43  1  0  0  0  0
 40 46  1  0  0  0  0
 41 42  2  0  0  0  0
 41 49  1  0  0  0  0
 43 44  1  0  0  0  0
 43 47  1  0  0  0  0
 43 48  1  0  0  0  0
 49 50  1  0  0  0  0
 49 54  1  0  0  0  0
 50 51  1  0  0  0  0
 50 53  1  0  0  0  0
 50 55  1  0  0  0  0
 51 52  2  0  0  0  0
 51 59  1  0  0  0  0
 53 56  1  0  0  0  0
 53 57  1  0  0  0  0
 53 58  1  0  0  0  0
 59 60  1  0  0  0  0
 59 61  1  0  0  0  0
 60 62  1  0  0  0  0
 60 63  1  0  0  0  0
 60 64  1  0  0  0  0
M  END
$$$$

  -OEChem-05262216053D

 64 63  0     1  0  0  0  0  0999 V2000
    1.0085    3.4010   -9.3797 C   0  0  0  0  0  0  0  0  0  0  0  0
   -0.2056    3.2698   -9.3499 O   0  0  0  0  0  0  0  0  0  0  0  0
    1.7230    3.5896  -10.7042 C   0  0  0  0  0  0  0  0  0  0  0  0
    2.4926    2.8230  -10.8247 H   0  0  0  0  0  0  0  0  0  0  0  0
    1.0118    3.5079  -11.5311 H   0  0  0  0  0  0  0  0  0  0  0  0
    2.1919    4.5762  -10.7371 H   0  0  0  0  0  0  0  0  0  0  0  0
    1.7305    3.3892   -8.2072 N   0  0  0  0  0  0  0  0  0  0  0  0
    1.1410    3.3004   -6.8645 C   0  0  2  0  0  0  0  0  0  0  0  0
    2.0581    3.9346   -5.7919 C   0  0  0  0  0  0  0  0  0  0  0  0
    3.1254    4.4413   -6.1270 O   0  0  0  0  0  0  0  0  0  0  0  0
    0.8349    1.8296   -6.5488 C   0  0  0  0  0  0  0  0  0  0  0  0
    2.3692    0.8206   -6.4062 S   0  0  0  0  0  0  0  0  0  0  0  0
    2.7267    3.5990   -8.2573 H   0  0  0  0  0  0  0  0  0  0  0  0
    0.2024    3.8642   -6.8479 H   0  0  0  0  0  0  0  0  0  0  0  0
    0.2795    1.7786   -5.6111 H   0  0  0  0  0  0  0  0  0  0  0  0
    0.1946    1.4053   -7.3285 H   0  0  0  0  0  0  0  0  0  0  0  0
    1.6847    3.9891   -4.4602 N   0  0  0  0  0  0  0  0  0  0  0  0
    2.5493    4.5057   -3.4080 C   0  0  0  0  0  0  0  0  0  0  0  0
    0.8246    3.5119   -4.1783 H   0  0  0  0  0  0  0  0  0  0  0  0
    3.4799    3.9306   -3.3603 H   0  0  0  0  0  0  0  0  0  0  0  0
    2.7910    5.5576   -3.5916 H   0  0  0  0  0  0  0  0  0  0  0  0
    2.0460    4.4303   -2.4389 H   0  0  0  0  0  0  0  0  0  0  0  0
   -3.5124   -0.3289   -2.0096 C   0  0  0  0  0  0  0  0  0  0  0  0
   -3.1387   -0.9643   -2.9842 O   0  0  0  0  0  0  0  0  0  0  0  0
   -4.0519   -1.0427   -0.7863 C   0  0  0  0  0  0  0  0  0  0  0  0
   -4.2942   -2.0805   -1.0314 H   0  0  0  0  0  0  0  0  0  0  0  0
   -3.3058   -1.0305    0.0121 H   0  0  0  0  0  0  0  0  0  0  0  0
   -4.9571   -0.5435   -0.4321 H   0  0  0  0  0  0  0  0  0  0  0  0
   -3.3252    1.0369   -1.9971 N   0  0  0  0  0  0  0  0  0  0  0  0
   -2.7893    1.8109   -3.1299 C   0  0  2  0  0  0  0  0  0  0  0  0
   -1.2507    1.6911   -3.2247 C   0  0  0  0  0  0  0  0  0  0  0  0
   -0.5159    2.6595   -3.0750 O   0  0  0  0  0  0  0  0  0  0  0  0
   -3.2664    3.2577   -2.9555 C   0  0  0  0  0  0  0  0  0  0  0  0
   -3.4742    1.5092   -1.0988 H   0  0  0  0  0  0  0  0  0  0  0  0
   -3.2069    1.4304   -4.0690 H   0  0  0  0  0  0  0  0  0  0  0  0
   -2.8865    3.6790   -2.0189 H   0  0  0  0  0  0  0  0  0  0  0  0
   -2.9122    3.8788   -3.7845 H   0  0  0  0  0  0  0  0  0  0  0  0
   -4.3600    3.2977   -2.9382 H   0  0  0  0  0  0  0  0  0  0  0  0
   -0.6743    0.4422   -3.3674 N   0  0  0  0  0  0  0  0  0  0  0  0
    0.5433   -0.0220   -2.6577 C   0  0  2  0  0  0  0  0  0  0  0  0
    0.7588    0.6008   -1.2494 C   0  0  0  0  0  0  0  0  0  0  0  0
    1.8697    0.6835   -0.7406 O   0  0  0  0  0  0  0  0  0  0  0  0
    1.7481    0.2994   -3.5566 C   0  0  0  0  0  0  0  0  0  0  0  0
    1.6743   -0.6681   -5.1176 S   0  0  0  0  0  0  0  0  0  0  0  0
   -1.3765   -0.2881   -3.5292 H   0  0  0  0  0  0  0  0  0  0  0  0
    0.4832   -1.1053   -2.5180 H   0  0  0  0  0  0  0  0  0  0  0  0
    1.7770    1.3708   -3.7670 H   0  0  0  0  0  0  0  0  0  0  0  0
    2.6831    0.0444   -3.0473 H   0  0  0  0  0  0  0  0  0  0  0  0
   -0.3358    0.9796   -0.4921 N   0  0  0  0  0  0  0  0  0  0  0  0
   -0.2900    1.7369    0.7629 C   0  0  2  0  0  0  0  0  0  0  0  0
   -1.6835    1.7839    1.4260 C   0  0  0  0  0  0  0  0  0  0  0  0
   -2.6984    1.6375    0.7461 O   0  0  0  0  0  0  0  0  0  0  0  0
    0.1855    3.1673    0.4748 C   0  0  0  0  0  0  0  0  0  0  0  0
   -1.2365    0.9388   -0.9628 H   0  0  0  0  0  0  0  0  0  0  0  0
    0.4061    1.2515    1.4551 H   0  0  0  0  0  0  0  0  0  0  0  0
   -0.4858    3.6569   -0.2382 H   0  0  0  0  0  0  0  0  0  0  0  0
    0.2069    3.7569    1.3961 H   0  0  0  0  0  0  0  0  0  0  0  0
    1.1942    3.1617    0.0504 H   0  0  0  0  0  0  0  0  0  0  0  0
   -1.8069    1.9908    2.7868 N   0  0  0  0  0  0  0  0  0  0  0  0
   -3.0884    2.0392    3.4809 C   0  0  0  0  0  0  0  0  0  0  0  0
   -0.9524    2.1054    3.3258 H   0  0  0  0  0  0  0  0  0  0  0  0
   -3.6979    2.8677    3.1046 H   0  0  0  0  0  0  0  0  0  0  0  0
   -3.6389    1.1030    3.3382 H   0  0  0  0  0  0  0  0  0  0  0  0
   -2.9309    2.1860    4.5540 H   0  0  0  0  0  0  0  0  0  0  0  0
  1  2  2  0  0  0  0
  1  3  1  0  0  0  0
  1  7  1  0  0  0  0
  3  4  1  0  0  0  0
  3  5  1  0  0  0  0
  3  6  1  0  0  0  0
  7  8  1  0  0  0  0
  7 13  1  0  0  0  0
  8  9  1  0  0  0  0
  8 11  1  0  0  0  0
  8 14  1  0  0  0  0
  9 10  2  0  0  0  0
  9 17  1  0  0  0  0
 11 12  1  0  0  0  0
 11 15  1  0  0  0  0
 11 16  1  0  0  0  0
 12 44  1  0  0  0  0
 17 18  1  0  0  0  0
 17 19  1  0  0  0  0
 18 20  1  0  0  0  0
 18 21  1  0  0  0  0
 18 22  1  0  0  0  0
 23 24  2  0  0  0  0
 23 25  1  0  0  0  0
 23 29  1  0  0  0  0
 25 26  1  0  0  0  0
 25 27  1  0  0  0  0
 25 28  1  0  0  0  0
 29 30  1  0  0  0  0
 29 34  1  0  0  0  0
 30 31  1  0  0  0  0
 30 33  1  0  0  0  0
 30 35  1  0  0  0  0
 31 32  2  0  0  0  0
 31 39  1  0  0  0  0
 33 36  1  0  0  0  0
 33 37  1  0  0  0  0
 33 38  1  0  0  0  0
 39 40  1  0  0  0  0
 39 45  1  0  0  0  0
 40 41  1  0  0  0  0
 40 43  1  0  0  0  0
 40 46  1  0  0  0  0
 41 42  2  0  0  0  0
 41 49  1  0  0  0  0
 43 44  1  0  0  0  0
 43 47  1  0  0  0  0
 43 48  1  0  0  0  0
 49 50  1  0  0  0  0
 49 54  1  0  0  0  0
 50 51  1  0  0  0  0
 50 53  1  0  0  0  0
 50 55  1  0  0  0  0
 51 52  2  0  0  0  0
 51 59  1  0  0  0  0
 53 56  1  0  0  0  0
 53 57  1  0  0  0  0
 53 58  1  0  0  0  0
 59 60  1  0  0  0  0
 59 61  1  0  0  0  0
 60 62  1  0  0  0  0
 60 63  1  0  0  0  0
 60 64  1  0  0  0  0
M  END
$$$$

  -OEChem-05262216053D

 64 63  0     1  0  0  0  0  0999 V2000
    1.4867    3.1362   -9.8710 C   0  0  0  0  0  0  0  0  0  0  0  0
    0.2690    3.2209   -9.8237 O   0  0  0  0  0  0  0  0  0  0  0  0
    2.1745    2.7173  -11.1566 C   0  0  0  0  0  0  0  0  0  0  0  0
    2.8052    1.8441  -10.9738 H   0  0  0  0  0  0  0  0  0  0  0  0
    1.4299    2.4613  -11.9153 H   0  0  0  0  0  0  0  0  0  0  0  0
    2.7949    3.5347  -11.5318 H   0  0  0  0  0  0  0  0  0  0  0  0
    2.2362    3.4254   -8.7517 N   0  0  0  0  0  0  0  0  0  0  0  0
    1.6830    3.8985   -7.4747 C   0  0  2  0  0  0  0  0  0  0  0  0
    2.7370    4.6548   -6.6344 C   0  0  0  0  0  0  0  0  0  0  0  0
    3.8675    4.8294   -7.0779 O   0  0  0  0  0  0  0  0  0  0  0  0
    1.1093    2.7037   -6.6970 C   0  0  0  0  0  0  0  0  0  0  0  0
    2.4295    1.5094   -6.2337 S   0  0  0  0  0  0  0  0  0  0  0  0
    3.2516    3.4252   -8.8438 H   0  0  0  0  0  0  0  0  0  0  0  0
    0.8742    4.6076   -7.6809 H   0  0  0  0  0  0  0  0  0  0  0  0
    0.6073    3.0595   -5.7934 H   0  0  0  0  0  0  0  0  0  0  0  0
    0.3591    2.1918   -7.3083 H   0  0  0  0  0  0  0  0  0  0  0  0
    2.4140    5.1721   -5.3914 N   0  0  0  0  0  0  0  0  0  0  0  0
    3.3848    5.8300   -4.5246 C   0  0  0  0  0  0  0  0  0  0  0  0
    1.4893    4.9721   -5.0219 H   0  0  0  0  0  0  0  0  0  0  0  0
    4.1782    5.1310   -4.2395 H   0  0  0  0  0  0  0  0  0  0  0  0
    3.8358    6.6881   -5.0341 H   0  0  0  0  0  0  0  0  0  0  0  0
    2.8965    6.1900   -3.6137 H   0  0  0  0  0  0  0  0  0  0  0  0
   -5.3294    0.7820   -1.6137 C   0  0  0  0  0  0  0  0  0  0  0  0
   -5.5786   -0.3189   -2.0778 O   0  0  0  0  0  0  0  0  0  0  0  0
   -6.1864    1.3452   -0.4955 C   0  0  0  0  0  0  0  0  0  0  0  0
   -6.7206    2.2314   -0.8461 H   0  0  0  0  0  0  0  0  0  0  0  0
   -6.9163    0.5989   -0.1690 H   0  0  0  0  0  0  0  0  0  0  0  0
   -5.5592    1.6184    0.3566 H   0  0  0  0  0  0  0  0  0  0  0  0
   -4.2680    1.5146   -2.1048 N   0  0  0  0  0  0  0  0  0  0  0  0
   -3.2573    0.9808   -3.0292 C   0  0  2  0  0  0  0  0  0  0  0  0
   -1.8296    1.1920   -2.4904 C   0  0  0  0  0  0  0  0  0  0  0  0
   -1.5821    2.1784   -1.8090 O   0  0  0  0  0  0  0  0  0  0  0  0
   -3.4260    1.6805   -4.3798 C   0  0  0  0  0  0  0  0  0  0  0  0
   -4.0184    2.3581   -1.5909 H   0  0  0  0  0  0  0  0  0  0  0  0
   -3.3975   -0.0962   -3.1697 H   0  0  0  0  0  0  0  0  0  0  0  0
   -3.2783    2.7603   -4.2752 H   0  0  0  0  0  0  0  0  0  0  0  0
   -2.6993    1.2987   -5.1036 H   0  0  0  0  0  0  0  0  0  0  0  0
   -4.4316    1.5022   -4.7732 H   0  0  0  0  0  0  0  0  0  0  0  0
   -0.8255    0.3059   -2.8441 N   0  0  0  0  0  0  0  0  0  0  0  0
    0.5850    0.3079   -2.3938 C   0  0  2  0  0  0  0  0  0  0  0  0
    0.8606    0.8707   -0.9728 C   0  0  0  0  0  0  0  0  0  0  0  0
    1.8615    1.5351   -0.7270 O   0  0  0  0  0  0  0  0  0  0  0  0
    1.3718    1.0827   -3.4612 C   0  0  0  0  0  0  0  0  0  0  0  0
    1.3311    0.1805   -5.0630 S   0  0  0  0  0  0  0  0  0  0  0  0
   -1.0976   -0.4303   -3.4915 H   0  0  0  0  0  0  0  0  0  0  0  0
    0.9484   -0.7239   -2.3731 H   0  0  0  0  0  0  0  0  0  0  0  0
    0.9522    2.0867   -3.5755 H   0  0  0  0  0  0  0  0  0  0  0  0
    2.4183    1.1912   -3.1574 H   0  0  0  0  0  0  0  0  0  0  0  0
    0.0468    0.4926    0.0786 N   0  0  0  0  0  0  0  0  0  0  0  0
    0.1758    0.9630    1.4613 C   0  0  2  0  0  0  0  0  0  0  0  0
   -0.5817    0.0404    2.4374 C   0  0  0  0  0  0  0  0  0  0  0  0
   -1.4872   -0.6806    2.0313 O   0  0  0  0  0  0  0  0  0  0  0  0
   -0.3784    2.3895    1.5529 C   0  0  0  0  0  0  0  0  0  0  0  0
   -0.7986   -0.0268   -0.1521 H   0  0  0  0  0  0  0  0  0  0  0  0
    1.2320    0.9625    1.7493 H   0  0  0  0  0  0  0  0  0  0  0  0
   -1.4321    2.4097    1.2560 H   0  0  0  0  0  0  0  0  0  0  0  0
   -0.2961    2.7688    2.5756 H   0  0  0  0  0  0  0  0  0  0  0  0
    0.1794    3.0597    0.8914 H   0  0  0  0  0  0  0  0  0  0  0  0
   -0.2497    0.0232    3.7795 N   0  0  0  0  0  0  0  0  0  0  0  0
   -0.9111   -0.8319    4.7572 C   0  0  0  0  0  0  0  0  0  0  0  0
    0.5170    0.6168    4.0824 H   0  0  0  0  0  0  0  0  0  0  0  0
   -1.9801   -0.5997    4.8082 H   0  0  0  0  0  0  0  0  0  0  0  0
   -0.7914   -1.8866    4.4878 H   0  0  0  0  0  0  0  0  0  0  0  0
   -0.4765   -0.6771    5.7493 H   0  0  0  0  0  0  0  0  0  0  0  0
  1  2  2  0  0  0  0
  1  3  1  0  0  0  0
  1  7  1  0  0  0  0
  3  4  1  0  0  0  0
  3  5  1  0  0  0  0
  3  6  1  0  0  0  0
  7  8  1  0  0  0  0
  7 13  1  0  0  0  0
  8  9  1  0  0  0  0
  8 11  1  0  0  0  0
  8 14  1  0  0  0  0
  9 10  2  0  0  0  0
  9 17  1  0  0  0  0
 11 12  1  0  0  0  0
 11 15  1  0  0  0  0
 11 16  1  0  0  0  0
 12 44  1  0  0  0  0
 17 18  1  0  0  0  0
 17 19  1  0  0  0  0
 18 20  1  0  0  0  0
 18 21  1  0  0  0  0
 18 22  1  0  0  0  0
 23 24  2  0  0  0  0
 23 25  1  0  0  0  0
 23 29  1  0  0  0  0
 25 26  1  0  0  0  0
 25 27  1  0  0  0  0
 25 28  1  0  0  0  0
 29 30  1  0  0  0  0
 29 34  1  0  0  0  0
 30 31  1  0  0  0  0
 30 33  1  0  0  0  0
 30 35  1  0  0  0  0
 31 32  2  0  0  0  0
 31 39  1  0  0  0  0
 33 36  1  0  0  0  0
 33 37  1  0  0  0  0
 33 38  1  0  0  0  0
 39 40  1  0  0  0  0
 39 45  1  0  0  0  0
 40 41  1  0  0  0  0
 40 43  1  0  0  0  0
 40 46  1  0  0  0  0
 41 42  2  0  0  0  0
 41 49  1  0  0  0  0
 43 44  1  0  0  0  0
 43 47  1  0  0  0  0
 43 48  1  0  0  0  0
 49 50  1  0  0  0  0
 49 54  1  0  0  0  0
 50 51  1  0  0  0  0
 50 53  1  0  0  0  0
 50 55  1  0  0  0  0
 51 52  2  0  0  0  0
 51 59  1  0  0  0  0
 53 56  1  0  0  0  0
 53 57  1  0  0  0  0
 53 58  1  0  0  0  0
 59 60  1  0  0  0  0
 59 61  1  0  0  0  0
 60 62  1  0  0  0  0
 60 63  1  0  0  0  0
 60 64  1  0  0  0  0
M  END
$$$$

  -OEChem-05262216053D

 64 63  0     1  0  0  0  0  0999 V2000
    0.8527    3.4412   -9.4689 C   0  0  0  0  0  0  0  0  0  0  0  0
   -0.3619    3.3434   -9.3813 O   0  0  0  0  0  0  0  0  0  0  0  0
    1.5068    3.6707  -10.8178 C   0  0  0  0  0  0  0  0  0  0  0  0
    2.2014    2.8561  -11.0368 H   0  0  0  0  0  0  0  0  0  0  0  0
    0.7472    3.7081  -11.6035 H   0  0  0  0  0  0  0  0  0  0  0  0
    2.0553    4.6160  -10.8110 H   0  0  0  0  0  0  0  0  0  0  0  0
    1.6323    3.3554   -8.3376 N   0  0  0  0  0  0  0  0  0  0  0  0
    1.1106    3.2412   -6.9690 C   0  0  2  0  0  0  0  0  0  0  0  0
    2.0975    3.8329   -5.9341 C   0  0  0  0  0  0  0  0  0  0  0  0
    3.1880    4.2553   -6.3094 O   0  0  0  0  0  0  0  0  0  0  0  0
    0.7934    1.7664   -6.6787 C   0  0  0  0  0  0  0  0  0  0  0  0
    2.3144    0.7257   -6.6486 S   0  0  0  0  0  0  0  0  0  0  0  0
    2.6316    3.5337   -8.4322 H   0  0  0  0  0  0  0  0  0  0  0  0
    0.1853    3.8206   -6.8877 H   0  0  0  0  0  0  0  0  0  0  0  0
    0.2844    1.6970   -5.7156 H   0  0  0  0  0  0  0  0  0  0  0  0
    0.1067    1.3765   -7.4365 H   0  0  0  0  0  0  0  0  0  0  0  0
    1.7641    3.9426   -4.5954 N   0  0  0  0  0  0  0  0  0  0  0  0
    2.7143    4.3521   -3.5694 C   0  0  0  0  0  0  0  0  0  0  0  0
    0.8946    3.5061   -4.2786 H   0  0  0  0  0  0  0  0  0  0  0  0
    3.5712    3.6708   -3.5454 H   0  0  0  0  0  0  0  0  0  0  0  0
    3.0738    5.3684   -3.7603 H   0  0  0  0  0  0  0  0  0  0  0  0
    2.2332    4.3334   -2.5863 H   0  0  0  0  0  0  0  0  0  0  0  0
   -3.3130   -0.1566   -1.6311 C   0  0  0  0  0  0  0  0  0  0  0  0
   -2.7462   -0.9649   -2.3525 O   0  0  0  0  0  0  0  0  0  0  0  0
   -4.1185   -0.6297   -0.4373 C   0  0  0  0  0  0  0  0  0  0  0  0
   -5.1407   -0.8605   -0.7463 H   0  0  0  0  0  0  0  0  0  0  0  0
   -3.6611   -1.5264   -0.0103 H   0  0  0  0  0  0  0  0  0  0  0  0
   -4.1473    0.1445    0.3329 H   0  0  0  0  0  0  0  0  0  0  0  0
   -3.2225    1.1871   -1.9349 N   0  0  0  0  0  0  0  0  0  0  0  0
   -2.6231    1.7163   -3.1718 C   0  0  2  0  0  0  0  0  0  0  0  0
   -1.0766    1.6439   -3.1649 C   0  0  0  0  0  0  0  0  0  0  0  0
   -0.3864    2.6536   -3.1033 O   0  0  0  0  0  0  0  0  0  0  0  0
   -3.1463    3.1458   -3.3598 C   0  0  0  0  0  0  0  0  0  0  0  0
   -3.6770    1.8351   -1.2964 H   0  0  0  0  0  0  0  0  0  0  0  0
   -2.9703    1.1220   -4.0244 H   0  0  0  0  0  0  0  0  0  0  0  0
   -2.8255    3.7881   -2.5328 H   0  0  0  0  0  0  0  0  0  0  0  0
   -2.7650    3.5687   -4.2949 H   0  0  0  0  0  0  0  0  0  0  0  0
   -4.2397    3.1500   -3.4026 H   0  0  0  0  0  0  0  0  0  0  0  0
   -0.4624    0.4111   -3.2884 N   0  0  0  0  0  0  0  0  0  0  0  0
    0.8478    0.0389   -2.7095 C   0  0  2  0  0  0  0  0  0  0  0  0
    1.1524    0.7984   -1.3935 C   0  0  0  0  0  0  0  0  0  0  0  0
    2.1870    1.4300   -1.2085 O   0  0  0  0  0  0  0  0  0  0  0  0
    1.9289    0.3465   -3.7548 C   0  0  0  0  0  0  0  0  0  0  0  0
    1.7331   -0.7086   -5.2456 S   0  0  0  0  0  0  0  0  0  0  0  0
   -1.1461   -0.3523   -3.3180 H   0  0  0  0  0  0  0  0  0  0  0  0
    0.8628   -1.0316   -2.4849 H   0  0  0  0  0  0  0  0  0  0  0  0
    1.8849    1.4022   -4.0236 H   0  0  0  0  0  0  0  0  0  0  0  0
    2.9229    0.1624   -3.3339 H   0  0  0  0  0  0  0  0  0  0  0  0
    0.2771    0.6354   -0.3366 N   0  0  0  0  0  0  0  0  0  0  0  0
    0.3254    1.3891    0.9213 C   0  0  2  0  0  0  0  0  0  0  0  0
   -0.6921    0.8232    1.9310 C   0  0  0  0  0  0  0  0  0  0  0  0
   -1.7306    0.3076    1.5277 O   0  0  0  0  0  0  0  0  0  0  0  0
    0.0013    2.8653    0.6509 C   0  0  0  0  0  0  0  0  0  0  0  0
   -0.5751    0.1087   -0.5245 H   0  0  0  0  0  0  0  0  0  0  0  0
    1.3275    1.3078    1.3552 H   0  0  0  0  0  0  0  0  0  0  0  0
   -0.9790    2.9607    0.1733 H   0  0  0  0  0  0  0  0  0  0  0  0
   -0.0093    3.4322    1.5867 H   0  0  0  0  0  0  0  0  0  0  0  0
    0.7508    3.3127   -0.0089 H   0  0  0  0  0  0  0  0  0  0  0  0
   -0.4556    0.9060    3.2901 N   0  0  0  0  0  0  0  0  0  0  0  0
   -1.3484    0.3419    4.2952 C   0  0  0  0  0  0  0  0  0  0  0  0
    0.4319    1.3006    3.5887 H   0  0  0  0  0  0  0  0  0  0  0  0
   -2.3537    0.7652    4.1977 H   0  0  0  0  0  0  0  0  0  0  0  0
   -1.4113   -0.7458    4.1842 H   0  0  0  0  0  0  0  0  0  0  0  0
   -0.9762    0.5664    5.2996 H   0  0  0  0  0  0  0  0  0  0  0  0
  1  2  2  0  0  0  0
  1  3  1  0  0  0  0
  1  7  1  0  0  0  0
  3  4  1  0  0  0  0
  3  5  1  0  0  0  0
  3  6  1  0  0  0  0
  7  8  1  0  0  0  0
  7 13  1  0  0  0  0
  8  9  1  0  0  0  0
  8 11  1  0  0  0  0
  8 14  1  0  0  0  0
  9 10  2  0  0  0  0
  9 17  1  0  0  0  0
 11 12  1  0  0  0  0
 11 15  1  0  0  0  0
 11 16  1  0  0  0  0
 12 44  1  0  0  0  0
 17 18  1  0  0  0  0
 17 19  1  0  0  0  0
 18 20  1  0  0  0  0
 18 21  1  0  0  0  0
 18 22  1  0  0  0  0
 23 24  2  0  0  0  0
 23 25  1  0  0  0  0
 23 29  1  0  0  0  0
 25 26  1  0  0  0  0
 25 27  1  0  0  0  0
 25 28  1  0  0  0  0
 29 30  1  0  0  0  0
 29 34  1  0  0  0  0
 30 31  1  0  0  0  0
 30 33  1  0  0  0  0
 30 35  1  0  0  0  0
 31 32  2  0  0  0  0
 31 39  1  0  0  0  0
 33 36  1  0  0  0  0
 33 37  1  0  0  0  0
 33 38  1  0  0  0  0
 39 40  1  0  0  0  0
 39 45  1  0  0  0  0
 40 41  1  0  0  0  0
 40 43  1  0  0  0  0
 40 46  1  0  0  0  0
 41 42  2  0  0  0  0
 41 49  1  0  0  0  0
 43 44  1  0  0  0  0
 43 47  1  0  0  0  0
 43 48  1  0  0  0  0
 49 50  1  0  0  0  0
 49 54  1  0  0  0  0
 50 51  1  0  0  0  0
 50 53  1  0  0  0  0
 50 55  1  0  0  0  0
 51 52  2  0  0  0  0
 51 59  1  0  0  0  0
 53 56  1  0  0  0  0
 53 57  1  0  0  0  0
 53 58  1  0  0  0  0
 59 60  1  0  0  0  0
 59 61  1  0  0  0  0
 60 62  1  0  0  0  0
 60 63  1  0  0  0  0
 60 64  1  0  0  0  0
M  END
$$$$

  -OEChem-05262216053D

 64 63  0     1  0  0  0  0  0999 V2000
    0.8782    3.3217   -9.6062 C   0  0  0  0  0  0  0  0  0  0  0  0
   -0.3301    3.1664   -9.5125 O   0  0  0  0  0  0  0  0  0  0  0  0
    1.5185    3.5159  -10.9675 C   0  0  0  0  0  0  0  0  0  0  0  0
    2.2613    2.7345  -11.1454 H   0  0  0  0  0  0  0  0  0  0  0  0
    0.7582    3.4645  -11.7516 H   0  0  0  0  0  0  0  0  0  0  0  0
    2.0079    4.4918  -11.0132 H   0  0  0  0  0  0  0  0  0  0  0  0
    1.6602    3.3294   -8.4725 N   0  0  0  0  0  0  0  0  0  0  0  0
    1.1430    3.2407   -7.1000 C   0  0  2  0  0  0  0  0  0  0  0  0
    2.0930    3.9180   -6.0843 C   0  0  0  0  0  0  0  0  0  0  0  0
    3.1601    4.3871   -6.4717 O   0  0  0  0  0  0  0  0  0  0  0  0
    0.9000    1.7639   -6.7554 C   0  0  0  0  0  0  0  0  0  0  0  0
    2.4727    0.8096   -6.6422 S   0  0  0  0  0  0  0  0  0  0  0  0
    2.6497    3.5523   -8.5750 H   0  0  0  0  0  0  0  0  0  0  0  0
    0.1894    3.7752   -7.0408 H   0  0  0  0  0  0  0  0  0  0  0  0
    0.3717    1.7075   -5.8022 H   0  0  0  0  0  0  0  0  0  0  0  0
    0.2547    1.3062   -7.5116 H   0  0  0  0  0  0  0  0  0  0  0  0
    1.7519    4.0448   -4.7494 N   0  0  0  0  0  0  0  0  0  0  0  0
    2.6753    4.5349   -3.7352 C   0  0  0  0  0  0  0  0  0  0  0  0
    0.9020    3.5773   -4.4220 H   0  0  0  0  0  0  0  0  0  0  0  0
    3.5810    3.9200   -3.7121 H   0  0  0  0  0  0  0  0  0  0  0  0
    2.9558    5.5735   -3.9387 H   0  0  0  0  0  0  0  0  0  0  0  0
    2.2042    4.4891   -2.7481 H   0  0  0  0  0  0  0  0  0  0  0  0
   -3.0871    0.1669   -1.3429 C   0  0  0  0  0  0  0  0  0  0  0  0
   -2.4822   -0.7406   -1.8963 O   0  0  0  0  0  0  0  0  0  0  0  0
   -3.7324   -0.0506    0.0115 C   0  0  0  0  0  0  0  0  0  0  0  0
   -4.8201   -0.0050   -0.0789 H   0  0  0  0  0  0  0  0  0  0  0  0
   -3.4518   -1.0304    0.4092 H   0  0  0  0  0  0  0  0  0  0  0  0
   -3.3989    0.7166    0.7145 H   0  0  0  0  0  0  0  0  0  0  0  0
   -3.1556    1.4015   -1.9582 N   0  0  0  0  0  0  0  0  0  0  0  0
   -2.6095    1.6901   -3.2943 C   0  0  2  0  0  0  0  0  0  0  0  0
   -1.0622    1.6791   -3.3114 C   0  0  0  0  0  0  0  0  0  0  0  0
   -0.4126    2.7169   -3.3045 O   0  0  0  0  0  0  0  0  0  0  0  0
   -3.1911    3.0319   -3.7561 C   0  0  0  0  0  0  0  0  0  0  0  0
   -3.6227    2.1487   -1.4516 H   0  0  0  0  0  0  0  0  0  0  0  0
   -2.9489    0.9220   -3.9979 H   0  0  0  0  0  0  0  0  0  0  0  0
   -2.8979    3.8366   -3.0739 H   0  0  0  0  0  0  0  0  0  0  0  0
   -2.8260    3.2785   -4.7585 H   0  0  0  0  0  0  0  0  0  0  0  0
   -4.2837    2.9825   -3.7908 H   0  0  0  0  0  0  0  0  0  0  0  0
   -0.4086    0.4634   -3.3915 N   0  0  0  0  0  0  0  0  0  0  0  0
    0.8840    0.1531   -2.7455 C   0  0  2  0  0  0  0  0  0  0  0  0
    1.1030    0.9428   -1.4311 C   0  0  0  0  0  0  0  0  0  0  0  0
    1.9843    1.7853   -1.2972 O   0  0  0  0  0  0  0  0  0  0  0  0
    2.0034    0.4775   -3.7451 C   0  0  0  0  0  0  0  0  0  0  0  0
    1.9186   -0.6164   -5.2188 S   0  0  0  0  0  0  0  0  0  0  0  0
   -1.0760   -0.3114   -3.3509 H   0  0  0  0  0  0  0  0  0  0  0  0
    0.9264   -0.9126   -2.5015 H   0  0  0  0  0  0  0  0  0  0  0  0
    1.9331    1.5246   -4.0430 H   0  0  0  0  0  0  0  0  0  0  0  0
    2.9807    0.3429   -3.2706 H   0  0  0  0  0  0  0  0  0  0  0  0
    0.3970    0.5459   -0.3105 N   0  0  0  0  0  0  0  0  0  0  0  0
    0.4922    1.1858    1.0074 C   0  0  2  0  0  0  0  0  0  0  0  0
   -0.1320    0.3065    2.1082 C   0  0  0  0  0  0  0  0  0  0  0  0
   -1.0813   -0.4225    1.8430 O   0  0  0  0  0  0  0  0  0  0  0  0
   -0.2264    2.5402    0.9609 C   0  0  0  0  0  0  0  0  0  0  0  0
   -0.3245   -0.1657   -0.4379 H   0  0  0  0  0  0  0  0  0  0  0  0
    1.5466    1.3432    1.2577 H   0  0  0  0  0  0  0  0  0  0  0  0
   -1.2780    2.4069    0.6887 H   0  0  0  0  0  0  0  0  0  0  0  0
   -0.1779    3.0314    1.9374 H   0  0  0  0  0  0  0  0  0  0  0  0
    0.2418    3.1995    0.2230 H   0  0  0  0  0  0  0  0  0  0  0  0
    0.3457    0.3576    3.4044 N   0  0  0  0  0  0  0  0  0  0  0  0
   -0.1905   -0.4568    4.4886 C   0  0  0  0  0  0  0  0  0  0  0  0
    1.1535    0.9469    3.5856 H   0  0  0  0  0  0  0  0  0  0  0  0
   -1.2502   -0.2327    4.6499 H   0  0  0  0  0  0  0  0  0  0  0  0
   -0.0872   -1.5219    4.2559 H   0  0  0  0  0  0  0  0  0  0  0  0
    0.3503   -0.2519    5.4176 H   0  0  0  0  0  0  0  0  0  0  0  0
  1  2  2  0  0  0  0
  1  3  1  0  0  0  0
  1  7  1  0  0  0  0
  3  4  1  0  0  0  0
  3  5  1  0  0  0  0
  3  6  1  0  0  0  0
  7  8  1  0  0  0  0
  7 13  1  0  0  0  0
  8  9  1  0  0  0  0
  8 11  1  0  0  0  0
  8 14  1  0  0  0  0
  9 10  2  0  0  0  0
  9 17  1  0  0  0  0
 11 12  1  0  0  0  0
 11 15  1  0  0  0  0
 11 16  1  0  0  0  0
 12 44  1  0  0  0  0
 17 18  1  0  0  0  0
 17 19  1  0  0  0  0
 18 20  1  0  0  0  0
 18 21  1  0  0  0  0
 18 22  1  0  0  0  0
 23 24  2  0  0  0  0
 23 25  1  0  0  0  0
 23 29  1  0  0  0  0
 25 26  1  0  0  0  0
 25 27  1  0  0  0  0
 25 28  1  0  0  0  0
 29 30  1  0  0  0  0
 29 34  1  0  0  0  0
 30 31  1  0  0  0  0
 30 33  1  0  0  0  0
 30 35  1  0  0  0  0
 31 32  2  0  0  0  0
 31 39  1  0  0  0  0
 33 36  1  0  0  0  0
 33 37  1  0  0  0  0
 33 38  1  0  0  0  0
 39 40  1  0  0  0  0
 39 45  1  0  0  0  0
 40 41  1  0  0  0  0
 40 43  1  0  0  0  0
 40 46  1  0  0  0  0
 41 42  2  0  0  0  0
 41 49  1  0  0  0  0
 43 44  1  0  0  0  0
 43 47  1  0  0  0  0
 43 48  1  0  0  0  0
 49 50  1  0  0  0  0
 49 54  1  0  0  0  0
 50 51  1  0  0  0  0
 50 53  1  0  0  0  0
 50 55  1  0  0  0  0
 51 52  2  0  0  0  0
 51 59  1  0  0  0  0
 53 56  1  0  0  0  0
 53 57  1  0  0  0  0
 53 58  1  0  0  0  0
 59 60  1  0  0  0  0
 59 61  1  0  0  0  0
 60 62  1  0  0  0  0
 60 63  1  0  0  0  0
 60 64  1  0  0  0  0
M  END
$$$$

  -OEChem-05262216053D

 64 63  0     1  0  0  0  0  0999 V2000
    1.0045    3.2253   -9.7801 C   0  0  0  0  0  0  0  0  0  0  0  0
   -0.2095    3.0984   -9.7328 O   0  0  0  0  0  0  0  0  0  0  0  0
    1.7084    3.3379  -11.1192 C   0  0  0  0  0  0  0  0  0  0  0  0
    2.4301    2.5248  -11.2293 H   0  0  0  0  0  0  0  0  0  0  0  0
    0.9817    3.2776  -11.9340 H   0  0  0  0  0  0  0  0  0  0  0  0
    2.2334    4.2938  -11.1851 H   0  0  0  0  0  0  0  0  0  0  0  0
    1.7371    3.2733   -8.6150 N   0  0  0  0  0  0  0  0  0  0  0  0
    1.1647    3.2410   -7.2614 C   0  0  2  0  0  0  0  0  0  0  0  0
    2.0941    3.9258   -6.2306 C   0  0  0  0  0  0  0  0  0  0  0  0
    3.1895    4.3504   -6.5896 O   0  0  0  0  0  0  0  0  0  0  0  0
    0.8713    1.7819   -6.8807 C   0  0  0  0  0  0  0  0  0  0  0  0
    2.4146    0.7850   -6.7337 S   0  0  0  0  0  0  0  0  0  0  0  0
    2.7363    3.4619   -8.6854 H   0  0  0  0  0  0  0  0  0  0  0  0
    0.2234    3.8003   -7.2553 H   0  0  0  0  0  0  0  0  0  0  0  0
    0.3340    1.7644   -5.9302 H   0  0  0  0  0  0  0  0  0  0  0  0
    0.2173    1.3252   -7.6303 H   0  0  0  0  0  0  0  0  0  0  0  0
    1.7027    4.1136   -4.9168 N   0  0  0  0  0  0  0  0  0  0  0  0
    2.5935    4.6228   -3.8828 C   0  0  0  0  0  0  0  0  0  0  0  0
    0.8374    3.6641   -4.6046 H   0  0  0  0  0  0  0  0  0  0  0  0
    3.4519    3.9557   -3.7531 H   0  0  0  0  0  0  0  0  0  0  0  0
    2.9559    5.6227   -4.1426 H   0  0  0  0  0  0  0  0  0  0  0  0
    2.0599    4.6856   -2.9290 H   0  0  0  0  0  0  0  0  0  0  0  0
   -2.9570    0.1317   -1.2960 C   0  0  0  0  0  0  0  0  0  0  0  0
   -2.5208   -0.7570   -2.0135 O   0  0  0  0  0  0  0  0  0  0  0  0
   -3.3550   -0.1652    0.1374 C   0  0  0  0  0  0  0  0  0  0  0  0
   -4.4304   -0.0204    0.2652 H   0  0  0  0  0  0  0  0  0  0  0  0
   -3.1051   -1.1994    0.3923 H   0  0  0  0  0  0  0  0  0  0  0  0
   -2.8212    0.4981    0.8221 H   0  0  0  0  0  0  0  0  0  0  0  0
   -3.0305    1.4193   -1.7904 N   0  0  0  0  0  0  0  0  0  0  0  0
   -2.6526    1.8047   -3.1608 C   0  0  2  0  0  0  0  0  0  0  0  0
   -1.1187    1.7901   -3.3663 C   0  0  0  0  0  0  0  0  0  0  0  0
   -0.4732    2.8236   -3.4779 O   0  0  0  0  0  0  0  0  0  0  0  0
   -3.2746    3.1776   -3.4409 C   0  0  0  0  0  0  0  0  0  0  0  0
   -3.3429    2.1456   -1.1515 H   0  0  0  0  0  0  0  0  0  0  0  0
   -3.0832    1.0922   -3.8728 H   0  0  0  0  0  0  0  0  0  0  0  0
   -2.8870    3.9283   -2.7445 H   0  0  0  0  0  0  0  0  0  0  0  0
   -3.0395    3.4983   -4.4607 H   0  0  0  0  0  0  0  0  0  0  0  0
   -4.3627    3.1318   -3.3366 H   0  0  0  0  0  0  0  0  0  0  0  0
   -0.4739    0.5698   -3.4295 N   0  0  0  0  0  0  0  0  0  0  0  0
    0.8314    0.2726   -2.8044 C   0  0  2  0  0  0  0  0  0  0  0  0
    1.0909    1.0942   -1.5165 C   0  0  0  0  0  0  0  0  0  0  0  0
    1.8310    2.0709   -1.4877 O   0  0  0  0  0  0  0  0  0  0  0  0
    1.9338    0.5623   -3.8312 C   0  0  0  0  0  0  0  0  0  0  0  0
    1.8123   -0.5753   -5.2684 S   0  0  0  0  0  0  0  0  0  0  0  0
   -1.1452   -0.1994   -3.3412 H   0  0  0  0  0  0  0  0  0  0  0  0
    0.8740   -0.7878   -2.5397 H   0  0  0  0  0  0  0  0  0  0  0  0
    1.8625    1.6002   -4.1601 H   0  0  0  0  0  0  0  0  0  0  0  0
    2.9184    0.4380   -3.3693 H   0  0  0  0  0  0  0  0  0  0  0  0
    0.6746    0.5618   -0.3112 N   0  0  0  0  0  0  0  0  0  0  0  0
    0.8778    1.1768    1.0066 C   0  0  2  0  0  0  0  0  0  0  0  0
    0.4599    0.2015    2.1246 C   0  0  0  0  0  0  0  0  0  0  0  0
   -0.4291   -0.6173    1.9138 O   0  0  0  0  0  0  0  0  0  0  0  0
    0.0484    2.4642    1.1192 C   0  0  0  0  0  0  0  0  0  0  0  0
    0.0848   -0.2704   -0.3447 H   0  0  0  0  0  0  0  0  0  0  0  0
    1.9391    1.4142    1.1336 H   0  0  0  0  0  0  0  0  0  0  0  0
   -1.0118    2.2523    0.9530 H   0  0  0  0  0  0  0  0  0  0  0  0
    0.1634    2.9064    2.1133 H   0  0  0  0  0  0  0  0  0  0  0  0
    0.3735    3.2026    0.3800 H   0  0  0  0  0  0  0  0  0  0  0  0
    1.0638    0.2470    3.3670 N   0  0  0  0  0  0  0  0  0  0  0  0
    0.7308   -0.6698    4.4507 C   0  0  0  0  0  0  0  0  0  0  0  0
    1.8131    0.9196    3.5043 H   0  0  0  0  0  0  0  0  0  0  0  0
   -0.3128   -0.5392    4.7551 H   0  0  0  0  0  0  0  0  0  0  0  0
    0.8787   -1.7081    4.1352 H   0  0  0  0  0  0  0  0  0  0  0  0
    1.3701   -0.4789    5.3179 H   0  0  0  0  0  0  0  0  0  0  0  0
  1  2  2  0  0  0  0
  1  3  1  0  0  0  0
  1  7  1  0  0  0  0
  3  4  1  0  0  0  0
  3  5  1  0  0  0  0
  3  6  1  0  0  0  0
  7  8  1  0  0  0  0
  7 13  1  0  0  0  0
  8  9  1  0  0  0  0
  8 11  1  0  0  0  0
  8 14  1  0  0  0  0
  9 10  2  0  0  0  0
  9 17  1  0  0  0  0
 11 12  1  0  0  0  0
 11 15  1  0  0  0  0
 11 16  1  0  0  0  0
 12 44  1  0  0  0  0
 17 18  1  0  0  0  0
 17 19  1  0  0  0  0
 18 20  1  0  0  0  0
 18 21  1  0  0  0  0
 18 22  1  0  0  0  0
 23 24  2  0  0  0  0
 23 25  1  0  0  0  0
 23 29  1  0  0  0  0
 25 26  1  0  0  0  0
 25 27  1  0  0  0  0
 25 28  1  0  0  0  0
 29 30  1  0  0  0  0
 29 34  1  0  0  0  0
 30 31  1  0  0  0  0
 30 33  1  0  0  0  0
 30 35  1  0  0  0  0
 31 32  2  0  0  0  0
 31 39  1  0  0  0  0
 33 36  1  0  0  0  0
 33 37  1  0  0  0  0
 33 38  1  0  0  0  0
 39 40  1  0  0  0  0
 39 45  1  0  0  0  0
 40 41  1  0  0  0  0
 40 43  1  0  0  0  0
 40 46  1  0  0  0  0
 41 42  2  0  0  0  0
 41 49  1  0  0  0  0
 43 44  1  0  0  0  0
 43 47  1  0  0  0  0
 43 48  1  0  0  0  0
 49 50  1  0  0  0  0
 49 54  1  0  0  0  0
 50 51  1  0  0  0  0
 50 53  1  0  0  0  0
 50 55  1  0  0  0  0
 51 52  2  0  0  0  0
 51 59  1  0  0  0  0
 53 56  1  0  0  0  0
 53 57  1  0  0  0  0
 53 58  1  0  0  0  0
 59 60  1  0  0  0  0
 59 61  1  0  0  0  0
 60 62  1  0  0  0  0
 60 63  1  0  0  0  0
 60 64  1  0  0  0  0
M  END
$$$$

  -OEChem-05262216053D

 64 63  0     1  0  0  0  0  0999 V2000
    1.0629    3.0194   -9.8251 C   0  0  0  0  0  0  0  0  0  0  0  0
   -0.1515    2.8955   -9.7788 O   0  0  0  0  0  0  0  0  0  0  0  0
    1.7785    3.0268  -11.1625 C   0  0  0  0  0  0  0  0  0  0  0  0
    2.4956    2.2034  -11.2044 H   0  0  0  0  0  0  0  0  0  0  0  0
    1.0578    2.9089  -11.9765 H   0  0  0  0  0  0  0  0  0  0  0  0
    2.3110    3.9717  -11.2955 H   0  0  0  0  0  0  0  0  0  0  0  0
    1.7863    3.1519   -8.6610 N   0  0  0  0  0  0  0  0  0  0  0  0
    1.2048    3.2053   -7.3122 C   0  0  2  0  0  0  0  0  0  0  0  0
    2.1380    3.9336   -6.3159 C   0  0  0  0  0  0  0  0  0  0  0  0
    3.2273    4.3525   -6.7000 O   0  0  0  0  0  0  0  0  0  0  0  0
    0.8905    1.7758   -6.8483 C   0  0  0  0  0  0  0  0  0  0  0  0
    2.4216    0.7778   -6.6142 S   0  0  0  0  0  0  0  0  0  0  0  0
    2.7869    3.3315   -8.7360 H   0  0  0  0  0  0  0  0  0  0  0  0
    0.2711    3.7761   -7.3452 H   0  0  0  0  0  0  0  0  0  0  0  0
    0.3376    1.8218   -5.9081 H   0  0  0  0  0  0  0  0  0  0  0  0
    0.2449    1.2789   -7.5790 H   0  0  0  0  0  0  0  0  0  0  0  0
    1.7601    4.1592   -5.0044 N   0  0  0  0  0  0  0  0  0  0  0  0
    2.6533    4.7188   -4.0000 C   0  0  0  0  0  0  0  0  0  0  0  0
    0.8895    3.7335   -4.6729 H   0  0  0  0  0  0  0  0  0  0  0  0
    3.5387    4.0864   -3.8791 H   0  0  0  0  0  0  0  0  0  0  0  0
    2.9716    5.7263   -4.2863 H   0  0  0  0  0  0  0  0  0  0  0  0
    2.1388    4.7789   -3.0359 H   0  0  0  0  0  0  0  0  0  0  0  0
   -3.2271    0.3571   -1.5108 C   0  0  0  0  0  0  0  0  0  0  0  0
   -2.8068   -0.5361   -2.2310 O   0  0  0  0  0  0  0  0  0  0  0  0
   -3.7147    0.0449   -0.1090 C   0  0  0  0  0  0  0  0  0  0  0  0
   -4.7299    0.4253    0.0284 H   0  0  0  0  0  0  0  0  0  0  0  0
   -3.7211   -1.0365    0.0559 H   0  0  0  0  0  0  0  0  0  0  0  0
   -3.0549    0.5088    0.6282 H   0  0  0  0  0  0  0  0  0  0  0  0
   -3.1913    1.6609   -1.9628 N   0  0  0  0  0  0  0  0  0  0  0  0
   -2.7180    2.0589   -3.2992 C   0  0  2  0  0  0  0  0  0  0  0  0
   -1.1767    1.9832   -3.4165 C   0  0  0  0  0  0  0  0  0  0  0  0
   -0.4969    2.9862   -3.5849 O   0  0  0  0  0  0  0  0  0  0  0  0
   -3.2686    3.4626   -3.5846 C   0  0  0  0  0  0  0  0  0  0  0  0
   -3.4805    2.3885   -1.3144 H   0  0  0  0  0  0  0  0  0  0  0  0
   -3.1335    1.3795   -4.0515 H   0  0  0  0  0  0  0  0  0  0  0  0
   -2.8778    4.1865   -2.8615 H   0  0  0  0  0  0  0  0  0  0  0  0
   -2.9771    3.7870   -4.5891 H   0  0  0  0  0  0  0  0  0  0  0  0
   -4.3615    3.4641   -3.5265 H   0  0  0  0  0  0  0  0  0  0  0  0
   -0.5705    0.7416   -3.4178 N   0  0  0  0  0  0  0  0  0  0  0  0
    0.6976    0.4143   -2.7318 C   0  0  2  0  0  0  0  0  0  0  0  0
    0.9769    1.2367   -1.4473 C   0  0  0  0  0  0  0  0  0  0  0  0
    1.5278    2.3312   -1.4609 O   0  0  0  0  0  0  0  0  0  0  0  0
    1.8504    0.6404   -3.7175 C   0  0  0  0  0  0  0  0  0  0  0  0
    1.7481   -0.5278   -5.1313 S   0  0  0  0  0  0  0  0  0  0  0  0
   -1.2706   -0.0036   -3.3503 H   0  0  0  0  0  0  0  0  0  0  0  0
    0.6850   -0.6434   -2.4528 H   0  0  0  0  0  0  0  0  0  0  0  0
    1.8266    1.6717   -4.0747 H   0  0  0  0  0  0  0  0  0  0  0  0
    2.8107    0.4959   -3.2125 H   0  0  0  0  0  0  0  0  0  0  0  0
    0.8069    0.6205   -0.2214 N   0  0  0  0  0  0  0  0  0  0  0  0
    1.2226    1.1804    1.0706 C   0  0  2  0  0  0  0  0  0  0  0  0
    1.4187    0.0677    2.1203 C   0  0  0  0  0  0  0  0  0  0  0  0
    0.9234   -1.0388    1.9357 O   0  0  0  0  0  0  0  0  0  0  0  0
    0.1558    2.1735    1.5449 C   0  0  0  0  0  0  0  0  0  0  0  0
    0.4733   -0.3439   -0.2149 H   0  0  0  0  0  0  0  0  0  0  0  0
    2.1797    1.7003    0.9537 H   0  0  0  0  0  0  0  0  0  0  0  0
   -0.8073    1.6688    1.6697 H   0  0  0  0  0  0  0  0  0  0  0  0
    0.4432    2.6165    2.5031 H   0  0  0  0  0  0  0  0  0  0  0  0
    0.0348    2.9815    0.8162 H   0  0  0  0  0  0  0  0  0  0  0  0
    2.1508    0.3030    3.2691 N   0  0  0  0  0  0  0  0  0  0  0  0
    2.4160   -0.7229    4.2712 C   0  0  0  0  0  0  0  0  0  0  0  0
    2.5832    1.2166    3.3741 H   0  0  0  0  0  0  0  0  0  0  0  0
    1.4774   -1.1218    4.6702 H   0  0  0  0  0  0  0  0  0  0  0  0
    2.9905   -1.5468    3.8344 H   0  0  0  0  0  0  0  0  0  0  0  0
    2.9915   -0.3018    5.1014 H   0  0  0  0  0  0  0  0  0  0  0  0
  1  2  2  0  0  0  0
  1  3  1  0  0  0  0
  1  7  1  0  0  0  0
  3  4  1  0  0  0  0
  3  5  1  0  0  0  0
  3  6  1  0  0  0  0
  7  8  1  0  0  0  0
  7 13  1  0  0  0  0
  8  9  1  0  0  0  0
  8 11  1  0  0  0  0
  8 14  1  0  0  0  0
  9 10  2  0  0  0  0
  9 17  1  0  0  0  0
 11 12  1  0  0  0  0
 11 15  1  0  0  0  0
 11 16  1  0  0  0  0
 12 44  1  0  0  0  0
 17 18  1  0  0  0  0
 17 19  1  0  0  0  0
 18 20  1  0  0  0  0
 18 21  1  0  0  0  0
 18 22  1  0  0  0  0
 23 24  2  0  0  0  0
 23 25  1  0  0  0  0
 23 29  1  0  0  0  0
 25 26  1  0  0  0  0
 25 27  1  0  0  0  0
 25 28  1  0  0  0  0
 29 30  1  0  0  0  0
 29 34  1  0  0  0  0
 30 31  1  0  0  0  0
 30 33  1  0  0  0  0
 30 35  1  0  0  0  0
 31 32  2  0  0  0  0
 31 39  1  0  0  0  0
 33 36  1  0  0  0  0
 33 37  1  0  0  0  0
 33 38  1  0  0  0  0
 39 40  1  0  0  0  0
 39 45  1  0  0  0  0
 40 41  1  0  0  0  0
 40 43  1  0  0  0  0
 40 46  1  0  0  0  0
 41 42  2  0  0  0  0
 41 49  1  0  0  0  0
 43 44  1  0  0  0  0
 43 47  1  0  0  0  0
 43 48  1  0  0  0  0
 49 50  1  0  0  0  0
 49 54  1  0  0  0  0
 50 51  1  0  0  0  0
 50 53  1  0  0  0  0
 50 55  1  0  0  0  0
 51 52  2  0  0  0  0
 51 59  1  0  0  0  0
 53 56  1  0  0  0  0
 53 57  1  0  0  0  0
 53 58  1  0  0  0  0
 59 60  1  0  0  0  0
 59 61  1  0  0  0  0
 60 62  1  0  0  0  0
 60 63  1  0  0  0  0
 60 64  1  0  0  0  0
M  END
$$$$

  -OEChem-05262216053D

 64 63  0     1  0  0  0  0  0999 V2000
    1.0629    2.9713   -9.7603 C   0  0  0  0  0  0  0  0  0  0  0  0
   -0.1530    2.8695   -9.7012 O   0  0  0  0  0  0  0  0  0  0  0  0
    1.7628    2.9742  -11.1059 C   0  0  0  0  0  0  0  0  0  0  0  0
    2.4415    2.1203  -11.1743 H   0  0  0  0  0  0  0  0  0  0  0  0
    1.0279    2.9068  -11.9131 H   0  0  0  0  0  0  0  0  0  0  0  0
    2.3359    3.8967  -11.2263 H   0  0  0  0  0  0  0  0  0  0  0  0
    1.8024    3.0832   -8.6042 N   0  0  0  0  0  0  0  0  0  0  0  0
    1.2341    3.1584   -7.2514 C   0  0  2  0  0  0  0  0  0  0  0  0
    2.1805    3.8923   -6.2719 C   0  0  0  0  0  0  0  0  0  0  0  0
    3.2786    4.2800   -6.6638 O   0  0  0  0  0  0  0  0  0  0  0  0
    0.9084    1.7378   -6.7685 C   0  0  0  0  0  0  0  0  0  0  0  0
    2.4291    0.7343   -6.4946 S   0  0  0  0  0  0  0  0  0  0  0  0
    2.8037    3.2526   -8.6908 H   0  0  0  0  0  0  0  0  0  0  0  0
    0.3059    3.7381   -7.2836 H   0  0  0  0  0  0  0  0  0  0  0  0
    0.3454    1.8036   -5.8365 H   0  0  0  0  0  0  0  0  0  0  0  0
    0.2676    1.2326   -7.4976 H   0  0  0  0  0  0  0  0  0  0  0  0
    1.8027    4.1627   -4.9689 N   0  0  0  0  0  0  0  0  0  0  0  0
    2.6975    4.7450   -3.9788 C   0  0  0  0  0  0  0  0  0  0  0  0
    0.9179    3.7706   -4.6320 H   0  0  0  0  0  0  0  0  0  0  0  0
    3.5857    4.1185   -3.8475 H   0  0  0  0  0  0  0  0  0  0  0  0
    3.0117    5.7470   -4.2873 H   0  0  0  0  0  0  0  0  0  0  0  0
    2.1858    4.8239   -3.0144 H   0  0  0  0  0  0  0  0  0  0  0  0
   -3.4567    0.5159   -1.6889 C   0  0  0  0  0  0  0  0  0  0  0  0
   -2.9535   -0.4151   -2.3004 O   0  0  0  0  0  0  0  0  0  0  0  0
   -4.1043    0.2873   -0.3371 C   0  0  0  0  0  0  0  0  0  0  0  0
   -5.1390    0.6378   -0.3544 H   0  0  0  0  0  0  0  0  0  0  0  0
   -4.0983   -0.7783   -0.0915 H   0  0  0  0  0  0  0  0  0  0  0  0
   -3.5559    0.8304    0.4360 H   0  0  0  0  0  0  0  0  0  0  0  0
   -3.3784    1.7895   -2.2134 N   0  0  0  0  0  0  0  0  0  0  0  0
   -2.7597    2.1079   -3.5089 C   0  0  2  0  0  0  0  0  0  0  0  0
   -1.2145    2.0467   -3.4487 C   0  0  0  0  0  0  0  0  0  0  0  0
   -0.5331    3.0428   -3.6485 O   0  0  0  0  0  0  0  0  0  0  0  0
   -3.2879    3.4796   -3.9470 C   0  0  0  0  0  0  0  0  0  0  0  0
   -3.7351    2.5534   -1.6453 H   0  0  0  0  0  0  0  0  0  0  0  0
   -3.0845    1.3762   -4.2566 H   0  0  0  0  0  0  0  0  0  0  0  0
   -2.9842    4.2555   -3.2365 H   0  0  0  0  0  0  0  0  0  0  0  0
   -2.8914    3.7405   -4.9338 H   0  0  0  0  0  0  0  0  0  0  0  0
   -4.3806    3.4674   -4.0080 H   0  0  0  0  0  0  0  0  0  0  0  0
   -0.6038    0.8095   -3.3626 N   0  0  0  0  0  0  0  0  0  0  0  0
    0.6422    0.4941   -2.6282 C   0  0  2  0  0  0  0  0  0  0  0  0
    0.9406    1.3414   -1.3629 C   0  0  0  0  0  0  0  0  0  0  0  0
    1.2458    2.5263   -1.4012 O   0  0  0  0  0  0  0  0  0  0  0  0
    1.8170    0.6864   -3.5956 C   0  0  0  0  0  0  0  0  0  0  0  0
    1.7374   -0.5232   -4.9771 S   0  0  0  0  0  0  0  0  0  0  0  0
   -1.3062    0.0658   -3.3026 H   0  0  0  0  0  0  0  0  0  0  0  0
    0.6091   -0.5561   -2.3239 H   0  0  0  0  0  0  0  0  0  0  0  0
    1.8074    1.7075   -3.9823 H   0  0  0  0  0  0  0  0  0  0  0  0
    2.7662    0.5504   -3.0675 H   0  0  0  0  0  0  0  0  0  0  0  0
    1.0555    0.6939   -0.1459 N   0  0  0  0  0  0  0  0  0  0  0  0
    1.5613    1.3073    1.0892 C   0  0  2  0  0  0  0  0  0  0  0  0
    2.2728    0.2677    1.9796 C   0  0  0  0  0  0  0  0  0  0  0  0
    2.1013   -0.9297    1.7779 O   0  0  0  0  0  0  0  0  0  0  0  0
    0.3792    1.9358    1.8327 C   0  0  0  0  0  0  0  0  0  0  0  0
    0.9626   -0.3220   -0.1398 H   0  0  0  0  0  0  0  0  0  0  0  0
    2.2935    2.0852    0.8473 H   0  0  0  0  0  0  0  0  0  0  0  0
   -0.3603    1.1706    2.0899 H   0  0  0  0  0  0  0  0  0  0  0  0
    0.7171    2.4181    2.7548 H   0  0  0  0  0  0  0  0  0  0  0  0
   -0.1040    2.6919    1.2056 H   0  0  0  0  0  0  0  0  0  0  0  0
    3.1159    0.6732    2.9976 N   0  0  0  0  0  0  0  0  0  0  0  0
    3.8679   -0.2571    3.8313 C   0  0  0  0  0  0  0  0  0  0  0  0
    3.2739    1.6706    3.1094 H   0  0  0  0  0  0  0  0  0  0  0  0
    3.1911   -0.9528    4.3382 H   0  0  0  0  0  0  0  0  0  0  0  0
    4.5731   -0.8326    3.2228 H   0  0  0  0  0  0  0  0  0  0  0  0
    4.4333    0.2895    4.5921 H   0  0  0  0  0  0  0  0  0  0  0  0
  1  2  2  0  0  0  0
  1  3  1  0  0  0  0
  1  7  1  0  0  0  0
  3  4  1  0  0  0  0
  3  5  1  0  0  0  0
  3  6  1  0  0  0  0
  7  8  1  0  0  0  0
  7 13  1  0  0  0  0
  8  9  1  0  0  0  0
  8 11  1  0  0  0  0
  8 14  1  0  0  0  0
  9 10  2  0  0  0  0
  9 17  1  0  0  0  0
 11 12  1  0  0  0  0
 11 15  1  0  0  0  0
 11 16  1  0  0  0  0
 12 44  1  0  0  0  0
 17 18  1  0  0  0  0
 17 19  1  0  0  0  0
 18 20  1  0  0  0  0
 18 21  1  0  0  0  0
 18 22  1  0  0  0  0
 23 24  2  0  0  0  0
 23 25  1  0  0  0  0
 23 29  1  0  0  0  0
 25 26  1  0  0  0  0
 25 27  1  0  0  0  0
 25 28  1  0  0  0  0
 29 30  1  0  0  0  0
 29 34  1  0  0  0  0
 30 31  1  0  0  0  0
 30 33  1  0  0  0  0
 30 35  1  0  0  0  0
 31 32  2  0  0  0  0
 31 39  1  0  0  0  0
 33 36  1  0  0  0  0
 33 37  1  0  0  0  0
 33 38  1  0  0  0  0
 39 40  1  0  0  0  0
 39 45  1  0  0  0  0
 40 41  1  0  0  0  0
 40 43  1  0  0  0  0
 40 46  1  0  0  0  0
 41 42  2  0  0  0  0
 41 49  1  0  0  0  0
 43 44  1  0  0  0  0
 43 47  1  0  0  0  0
 43 48  1  0  0  0  0
 49 50  1  0  0  0  0
 49 54  1  0  0  0  0
 50 51  1  0  0  0  0
 50 53  1  0  0  0  0
 50 55  1  0  0  0  0
 51 52  2  0  0  0  0
 51 59  1  0  0  0  0
 53 56  1  0  0  0  0
 53 57  1  0  0  0  0
 53 58  1  0  0  0  0
 59 60  1  0  0  0  0
 59 61  1  0  0  0  0
 60 62  1  0  0  0  0
 60 63  1  0  0  0  0
 60 64  1  0  0  0  0
M  END
$$$$

  -OEChem-05262216053D

 64 63  0     1  0  0  0  0  0999 V2000
    1.5312    2.8242   -9.9804 C   0  0  0  0  0  0  0  0  0  0  0  0
    0.3202    2.7060  -10.0864 O   0  0  0  0  0  0  0  0  0  0  0  0
    2.4101    2.7980  -11.2163 C   0  0  0  0  0  0  0  0  0  0  0  0
    3.0787    1.9346  -11.1782 H   0  0  0  0  0  0  0  0  0  0  0  0
    1.7931    2.7277  -12.1162 H   0  0  0  0  0  0  0  0  0  0  0  0
    3.0073    3.7113  -11.2690 H   0  0  0  0  0  0  0  0  0  0  0  0
    2.1027    2.9853   -8.7378 N   0  0  0  0  0  0  0  0  0  0  0  0
    1.3533    3.1032   -7.4786 C   0  0  2  0  0  0  0  0  0  0  0  0
    2.1387    3.9135   -6.4209 C   0  0  0  0  0  0  0  0  0  0  0  0
    3.2671    4.3251   -6.6804 O   0  0  0  0  0  0  0  0  0  0  0  0
    1.0086    1.6958   -6.9703 C   0  0  0  0  0  0  0  0  0  0  0  0
    2.5172    0.7496   -6.4980 S   0  0  0  0  0  0  0  0  0  0  0  0
    3.1037    3.1714   -8.6936 H   0  0  0  0  0  0  0  0  0  0  0  0
    0.4209    3.6470   -7.6625 H   0  0  0  0  0  0  0  0  0  0  0  0
    0.3463    1.7800   -6.1059 H   0  0  0  0  0  0  0  0  0  0  0  0
    0.4626    1.1450   -7.7425 H   0  0  0  0  0  0  0  0  0  0  0  0
    1.5842    4.2206   -5.1921 N   0  0  0  0  0  0  0  0  0  0  0  0
    2.3160    4.8879   -4.1253 C   0  0  0  0  0  0  0  0  0  0  0  0
    0.6778    3.8034   -4.9572 H   0  0  0  0  0  0  0  0  0  0  0  0
    3.2375    4.3442   -3.8932 H   0  0  0  0  0  0  0  0  0  0  0  0
    2.5721    5.9116   -4.4167 H   0  0  0  0  0  0  0  0  0  0  0  0
    1.7018    4.9268   -3.2200 H   0  0  0  0  0  0  0  0  0  0  0  0
   -3.1742    0.5615   -1.3292 C   0  0  0  0  0  0  0  0  0  0  0  0
   -2.9000   -0.3923   -2.0430 O   0  0  0  0  0  0  0  0  0  0  0  0
   -3.4169    0.3641    0.1544 C   0  0  0  0  0  0  0  0  0  0  0  0
   -4.4254    0.6953    0.4137 H   0  0  0  0  0  0  0  0  0  0  0  0
   -3.3153   -0.6928    0.4166 H   0  0  0  0  0  0  0  0  0  0  0  0
   -2.6910    0.9414    0.7317 H   0  0  0  0  0  0  0  0  0  0  0  0
   -3.1939    1.8297   -1.8712 N   0  0  0  0  0  0  0  0  0  0  0  0
   -2.9039    2.1279   -3.2823 C   0  0  2  0  0  0  0  0  0  0  0  0
   -1.3922    2.0273   -3.5963 C   0  0  0  0  0  0  0  0  0  0  0  0
   -0.7620    2.9747   -4.0519 O   0  0  0  0  0  0  0  0  0  0  0  0
   -3.4851    3.5163   -3.5790 C   0  0  0  0  0  0  0  0  0  0  0  0
   -3.2934    2.6097   -1.2265 H   0  0  0  0  0  0  0  0  0  0  0  0
   -3.4180    1.4041   -3.9240 H   0  0  0  0  0  0  0  0  0  0  0  0
   -2.9881    4.2792   -2.9709 H   0  0  0  0  0  0  0  0  0  0  0  0
   -3.3448    3.7705   -4.6346 H   0  0  0  0  0  0  0  0  0  0  0  0
   -4.5572    3.5368   -3.3600 H   0  0  0  0  0  0  0  0  0  0  0  0
   -0.7622    0.8003   -3.5085 N   0  0  0  0  0  0  0  0  0  0  0  0
    0.4741    0.5599   -2.7302 C   0  0  2  0  0  0  0  0  0  0  0  0
    0.7076    1.4253   -1.4618 C   0  0  0  0  0  0  0  0  0  0  0  0
    0.5014    2.6306   -1.4073 O   0  0  0  0  0  0  0  0  0  0  0  0
    1.6755    0.7834   -3.6543 C   0  0  0  0  0  0  0  0  0  0  0  0
    1.7023   -0.4606   -5.0067 S   0  0  0  0  0  0  0  0  0  0  0  0
   -1.4607    0.0704   -3.3407 H   0  0  0  0  0  0  0  0  0  0  0  0
    0.4696   -0.4867   -2.4115 H   0  0  0  0  0  0  0  0  0  0  0  0
    1.6330    1.7933   -4.0679 H   0  0  0  0  0  0  0  0  0  0  0  0
    2.6100    0.7019   -3.0898 H   0  0  0  0  0  0  0  0  0  0  0  0
    1.1376    0.8037   -0.3034 N   0  0  0  0  0  0  0  0  0  0  0  0
    1.5514    1.5065    0.9192 C   0  0  2  0  0  0  0  0  0  0  0  0
    2.6709    0.7388    1.6521 C   0  0  0  0  0  0  0  0  0  0  0  0
    2.8764   -0.4402    1.3855 O   0  0  0  0  0  0  0  0  0  0  0  0
    0.3267    1.6668    1.8242 C   0  0  0  0  0  0  0  0  0  0  0  0
    1.4130   -0.1770   -0.3701 H   0  0  0  0  0  0  0  0  0  0  0  0
    1.9470    2.4958    0.6652 H   0  0  0  0  0  0  0  0  0  0  0  0
   -0.0834    0.6867    2.0883 H   0  0  0  0  0  0  0  0  0  0  0  0
    0.5956    2.1918    2.7457 H   0  0  0  0  0  0  0  0  0  0  0  0
   -0.4488    2.2449    1.3120 H   0  0  0  0  0  0  0  0  0  0  0  0
    3.4576    1.3705    2.5975 N   0  0  0  0  0  0  0  0  0  0  0  0
    4.5557    0.7089    3.2926 C   0  0  0  0  0  0  0  0  0  0  0  0
    3.2894    2.3574    2.7707 H   0  0  0  0  0  0  0  0  0  0  0  0
    4.1811   -0.1284    3.8908 H   0  0  0  0  0  0  0  0  0  0  0  0
    5.2909    0.3284    2.5752 H   0  0  0  0  0  0  0  0  0  0  0  0
    5.0599    1.4131    3.9615 H   0  0  0  0  0  0  0  0  0  0  0  0
  1  2  2  0  0  0  0
  1  3  1  0  0  0  0
  1  7  1  0  0  0  0
  3  4  1  0  0  0  0
  3  5  1  0  0  0  0
  3  6  1  0  0  0  0
  7  8  1  0  0  0  0
  7 13  1  0  0  0  0
  8  9  1  0  0  0  0
  8 11  1  0  0  0  0
  8 14  1  0  0  0  0
  9 10  2  0  0  0  0
  9 17  1  0  0  0  0
 11 12  1  0  0  0  0
 11 15  1  0  0  0  0
 11 16  1  0  0  0  0
 12 44  1  0  0  0  0
 17 18  1  0  0  0  0
 17 19  1  0  0  0  0
 18 20  1  0  0  0  0
 18 21  1  0  0  0  0
 18 22  1  0  0  0  0
 23 24  2  0  0  0  0
 23 25  1  0  0  0  0
 23 29  1  0  0  0  0
 25 26  1  0  0  0  0
 25 27  1  0  0  0  0
 25 28  1  0  0  0  0
 29 30  1  0  0  0  0
 29 34  1  0  0  0  0
 30 31  1  0  0  0  0
 30 33  1  0  0  0  0
 30 35  1  0  0  0  0
 31 32  2  0  0  0  0
 31 39  1  0  0  0  0
 33 36  1  0  0  0  0
 33 37  1  0  0  0  0
 33 38  1  0  0  0  0
 39 40  1  0  0  0  0
 39 45  1  0  0  0  0
 40 41  1  0  0  0  0
 40 43  1  0  0  0  0
 40 46  1  0  0  0  0
 41 42  2  0  0  0  0
 41 49  1  0  0  0  0
 43 44  1  0  0  0  0
 43 47  1  0  0  0  0
 43 48  1  0  0  0  0
 49 50  1  0  0  0  0
 49 54  1  0  0  0  0
 50 51  1  0  0  0  0
 50 53  1  0  0  0  0
 50 55  1  0  0  0  0
 51 52  2  0  0  0  0
 51 59  1  0  0  0  0
 53 56  1  0  0  0  0
 53 57  1  0  0  0  0
 53 58  1  0  0  0  0
 59 60  1  0  0  0  0
 59 61  1  0  0  0  0
 60 62  1  0  0  0  0
 60 63  1  0  0  0  0
 60 64  1  0  0  0  0
M  END
$$$$

  -OEChem-05262216053D

 64 63  0     1  0  0  0  0  0999 V2000
    1.6902    2.7643   -9.9897 C   0  0  0  0  0  0  0  0  0  0  0  0
    0.5118    2.4795  -10.1379 O   0  0  0  0  0  0  0  0  0  0  0  0
    2.6153    2.8291  -11.1897 C   0  0  0  0  0  0  0  0  0  0  0  0
    3.4060    2.0817  -11.0888 H   0  0  0  0  0  0  0  0  0  0  0  0
    2.0556    2.6307  -12.1080 H   0  0  0  0  0  0  0  0  0  0  0  0
    3.0672    3.8216  -11.2596 H   0  0  0  0  0  0  0  0  0  0  0  0
    2.1810    3.0365   -8.7322 N   0  0  0  0  0  0  0  0  0  0  0  0
    1.3632    3.1025   -7.5126 C   0  0  2  0  0  0  0  0  0  0  0  0
    1.9986    4.0320   -6.4520 C   0  0  0  0  0  0  0  0  0  0  0  0
    3.0801    4.5690   -6.6789 O   0  0  0  0  0  0  0  0  0  0  0  0
    1.1552    1.6820   -6.9668 C   0  0  0  0  0  0  0  0  0  0  0  0
    2.7336    0.9281   -6.3892 S   0  0  0  0  0  0  0  0  0  0  0  0
    3.1429    3.3652   -8.6562 H   0  0  0  0  0  0  0  0  0  0  0  0
    0.3847    3.5286   -7.7588 H   0  0  0  0  0  0  0  0  0  0  0  0
    0.4450    1.7189   -6.1375 H   0  0  0  0  0  0  0  0  0  0  0  0
    0.7143    1.0471   -7.7414 H   0  0  0  0  0  0  0  0  0  0  0  0
    1.3567    4.3078   -5.2585 N   0  0  0  0  0  0  0  0  0  0  0  0
    1.9472    5.1048   -4.1927 C   0  0  0  0  0  0  0  0  0  0  0  0
    0.4948    3.7943   -5.0480 H   0  0  0  0  0  0  0  0  0  0  0  0
    2.8886    4.6580   -3.8567 H   0  0  0  0  0  0  0  0  0  0  0  0
    2.1414    6.1256   -4.5378 H   0  0  0  0  0  0  0  0  0  0  0  0
    1.2628    5.1514   -3.3398 H   0  0  0  0  0  0  0  0  0  0  0  0
   -3.0408    0.3596   -1.3733 C   0  0  0  0  0  0  0  0  0  0  0  0
   -2.7495   -0.6105   -2.0592 O   0  0  0  0  0  0  0  0  0  0  0  0
   -3.1391    0.2292    0.1343 C   0  0  0  0  0  0  0  0  0  0  0  0
   -4.1715    0.3891    0.4545 H   0  0  0  0  0  0  0  0  0  0  0  0
   -2.8214   -0.7689    0.4491 H   0  0  0  0  0  0  0  0  0  0  0  0
   -2.4979    0.9709    0.6155 H   0  0  0  0  0  0  0  0  0  0  0  0
   -3.1979    1.5924   -1.9716 N   0  0  0  0  0  0  0  0  0  0  0  0
   -2.9393    1.8363   -3.3984 C   0  0  2  0  0  0  0  0  0  0  0  0
   -1.4222    1.8601   -3.6957 C   0  0  0  0  0  0  0  0  0  0  0  0
   -0.8564    2.8614   -4.1216 O   0  0  0  0  0  0  0  0  0  0  0  0
   -3.6433    3.1461   -3.7744 C   0  0  0  0  0  0  0  0  0  0  0  0
   -3.1919    2.3969   -1.3489 H   0  0  0  0  0  0  0  0  0  0  0  0
   -3.3806    1.0326   -3.9978 H   0  0  0  0  0  0  0  0  0  0  0  0
   -3.2411    3.9815   -3.1921 H   0  0  0  0  0  0  0  0  0  0  0  0
   -3.4979    3.3643   -4.8371 H   0  0  0  0  0  0  0  0  0  0  0  0
   -4.7178    3.0704   -3.5819 H   0  0  0  0  0  0  0  0  0  0  0  0
   -0.6769    0.7051   -3.5530 N   0  0  0  0  0  0  0  0  0  0  0  0
    0.5400    0.6224   -2.7121 C   0  0  2  0  0  0  0  0  0  0  0  0
    0.6381    1.5294   -1.4526 C   0  0  0  0  0  0  0  0  0  0  0  0
   -0.0689    2.5105   -1.2516 O   0  0  0  0  0  0  0  0  0  0  0  0
    1.7531    0.9473   -3.5921 C   0  0  0  0  0  0  0  0  0  0  0  0
    1.9786   -0.3233   -4.9000 S   0  0  0  0  0  0  0  0  0  0  0  0
   -1.3052   -0.0853   -3.3837 H   0  0  0  0  0  0  0  0  0  0  0  0
    0.6288   -0.4105   -2.3623 H   0  0  0  0  0  0  0  0  0  0  0  0
    1.6232    1.9338   -4.0418 H   0  0  0  0  0  0  0  0  0  0  0  0
    2.6663    0.9831   -2.9890 H   0  0  0  0  0  0  0  0  0  0  0  0
    1.3741    1.0673   -0.3768 N   0  0  0  0  0  0  0  0  0  0  0  0
    1.6471    1.8446    0.8399 C   0  0  2  0  0  0  0  0  0  0  0  0
    3.0543    1.5337    1.3914 C   0  0  0  0  0  0  0  0  0  0  0  0
    3.6936    0.5922    0.9350 O   0  0  0  0  0  0  0  0  0  0  0  0
    0.5725    1.5170    1.8803 C   0  0  0  0  0  0  0  0  0  0  0  0
    2.0109    0.2886   -0.5533 H   0  0  0  0  0  0  0  0  0  0  0  0
    1.6174    2.9156    0.6129 H   0  0  0  0  0  0  0  0  0  0  0  0
    0.5704    0.4455    2.1041 H   0  0  0  0  0  0  0  0  0  0  0  0
    0.7538    2.0668    2.8084 H   0  0  0  0  0  0  0  0  0  0  0  0
   -0.4149    1.7980    1.5035 H   0  0  0  0  0  0  0  0  0  0  0  0
    3.6125    2.3192    2.3827 N   0  0  0  0  0  0  0  0  0  0  0  0
    4.9458    2.0908    2.9263 C   0  0  0  0  0  0  0  0  0  0  0  0
    3.0723    3.1100    2.7215 H   0  0  0  0  0  0  0  0  0  0  0  0
    5.0159    1.0878    3.3606 H   0  0  0  0  0  0  0  0  0  0  0  0
    5.7016    2.1887    2.1399 H   0  0  0  0  0  0  0  0  0  0  0  0
    5.1657    2.8219    3.7105 H   0  0  0  0  0  0  0  0  0  0  0  0
  1  2  2  0  0  0  0
  1  3  1  0  0  0  0
  1  7  1  0  0  0  0
  3  4  1  0  0  0  0
  3  5  1  0  0  0  0
  3  6  1  0  0  0  0
  7  8  1  0  0  0  0
  7 13  1  0  0  0  0
  8  9  1  0  0  0  0
  8 11  1  0  0  0  0
  8 14  1  0  0  0  0
  9 10  2  0  0  0  0
  9 17  1  0  0  0  0
 11 12  1  0  0  0  0
 11 15  1  0  0  0  0
 11 16  1  0  0  0  0
 12 44  1  0  0  0  0
 17 18  1  0  0  0  0
 17 19  1  0  0  0  0
 18 20  1  0  0  0  0
 18 21  1  0  0  0  0
 18 22  1  0  0  0  0
 23 24  2  0  0  0  0
 23 25  1  0  0  0  0
 23 29  1  0  0  0  0
 25 26  1  0  0  0  0
 25 27  1  0  0  0  0
 25 28  1  0  0  0  0
 29 30  1  0  0  0  0
 29 34  1  0  0  0  0
 30 31  1  0  0  0  0
 30 33  1  0  0  0  0
 30 35  1  0  0  0  0
 31 32  2  0  0  0  0
 31 39  1  0  0  0  0
 33 36  1  0  0  0  0
 33 37  1  0  0  0  0
 33 38  1  0  0  0  0
 39 40  1  0  0  0  0
 39 45  1  0  0  0  0
 40 41  1  0  0  0  0
 40 43  1  0  0  0  0
 40 46  1  0  0  0  0
 41 42  2  0  0  0  0
 41 49  1  0  0  0  0
 43 44  1  0  0  0  0
 43 47  1  0  0  0  0
 43 48  1  0  0  0  0
 49 50  1  0  0  0  0
 49 54  1  0  0  0  0
 50 51  1  0  0  0  0
 50 53  1  0  0  0  0
 50 55  1  0  0  0  0
 51 52  2  0  0  0  0
 51 59  1  0  0  0  0
 53 56  1  0  0  0  0
 53 57  1  0  0  0  0
 53 58  1  0  0  0  0
 59 60  1  0  0  0  0
 59 61  1  0  0  0  0
 60 62  1  0  0  0  0
 60 63  1  0  0  0  0
 60 64  1  0  0  0  0
M  END
$$$$

  -OEChem-05262216053D

 64 63  0     1  0  0  0  0  0999 V2000
    1.5233    2.5786   -9.9267 C   0  0  0  0  0  0  0  0  0  0  0  0
    0.3266    2.3419   -9.9885 O   0  0  0  0  0  0  0  0  0  0  0  0
    2.3780    2.5195  -11.1782 C   0  0  0  0  0  0  0  0  0  0  0  0
    3.1325    1.7357  -11.0778 H   0  0  0  0  0  0  0  0  0  0  0  0
    1.7558    2.3004  -12.0501 H   0  0  0  0  0  0  0  0  0  0  0  0
    2.8774    3.4787  -11.3333 H   0  0  0  0  0  0  0  0  0  0  0  0
    2.0988    2.9096   -8.7199 N   0  0  0  0  0  0  0  0  0  0  0  0
    1.3619    3.0811   -7.4600 C   0  0  2  0  0  0  0  0  0  0  0  0
    2.1024    4.0290   -6.4878 C   0  0  0  0  0  0  0  0  0  0  0  0
    3.1756    4.5257   -6.8199 O   0  0  0  0  0  0  0  0  0  0  0  0
    1.1199    1.7035   -6.8286 C   0  0  0  0  0  0  0  0  0  0  0  0
    2.6891    0.9091   -6.2842 S   0  0  0  0  0  0  0  0  0  0  0  0
    3.0776    3.1940   -8.7201 H   0  0  0  0  0  0  0  0  0  0  0  0
    0.3915    3.5424   -7.6709 H   0  0  0  0  0  0  0  0  0  0  0  0
    0.4554    1.8182   -5.9701 H   0  0  0  0  0  0  0  0  0  0  0  0
    0.6131    1.0486   -7.5440 H   0  0  0  0  0  0  0  0  0  0  0  0
    1.5610    4.3712   -5.2616 N   0  0  0  0  0  0  0  0  0  0  0  0
    2.2402    5.2164   -4.2899 C   0  0  0  0  0  0  0  0  0  0  0  0
    0.6990    3.9018   -4.9679 H   0  0  0  0  0  0  0  0  0  0  0  0
    3.1829    4.7575   -3.9748 H   0  0  0  0  0  0  0  0  0  0  0  0
    2.4513    6.2020   -4.7173 H   0  0  0  0  0  0  0  0  0  0  0  0
    1.6081    5.3507   -3.4067 H   0  0  0  0  0  0  0  0  0  0  0  0
   -3.2690    0.6341   -1.6067 C   0  0  0  0  0  0  0  0  0  0  0  0
   -2.9950   -0.3346   -2.3024 O   0  0  0  0  0  0  0  0  0  0  0  0
   -3.4669    0.4701   -0.1123 C   0  0  0  0  0  0  0  0  0  0  0  0
   -4.4059    0.9378    0.1936 H   0  0  0  0  0  0  0  0  0  0  0  0
   -3.5006   -0.5912    0.1492 H   0  0  0  0  0  0  0  0  0  0  0  0
   -2.6400    0.9414    0.4255 H   0  0  0  0  0  0  0  0  0  0  0  0
   -3.3057    1.8914   -2.1736 N   0  0  0  0  0  0  0  0  0  0  0  0
   -2.8744    2.1554   -3.5538 C   0  0  2  0  0  0  0  0  0  0  0  0
   -1.3344    2.1007   -3.6639 C   0  0  0  0  0  0  0  0  0  0  0  0
   -0.6604    3.0947   -3.9168 O   0  0  0  0  0  0  0  0  0  0  0  0
   -3.4570    3.5095   -3.9754 C   0  0  0  0  0  0  0  0  0  0  0  0
   -3.2722    2.6694   -1.5187 H   0  0  0  0  0  0  0  0  0  0  0  0
   -3.2824    1.3925   -4.2256 H   0  0  0  0  0  0  0  0  0  0  0  0
   -3.0835    4.3092   -3.3276 H   0  0  0  0  0  0  0  0  0  0  0  0
   -3.1746    3.7397   -5.0078 H   0  0  0  0  0  0  0  0  0  0  0  0
   -4.5493    3.4893   -3.9134 H   0  0  0  0  0  0  0  0  0  0  0  0
   -0.6842    0.8891   -3.5253 N   0  0  0  0  0  0  0  0  0  0  0  0
    0.4840    0.6968   -2.6357 C   0  0  2  0  0  0  0  0  0  0  0  0
    0.5801    1.5674   -1.3504 C   0  0  0  0  0  0  0  0  0  0  0  0
   -0.3010    2.3464   -0.9985 O   0  0  0  0  0  0  0  0  0  0  0  0
    1.7509    0.9447   -3.4683 C   0  0  0  0  0  0  0  0  0  0  0  0
    1.9160   -0.3222   -4.7892 S   0  0  0  0  0  0  0  0  0  0  0  0
   -1.3714    0.1357   -3.4316 H   0  0  0  0  0  0  0  0  0  0  0  0
    0.4828   -0.3455   -2.3021 H   0  0  0  0  0  0  0  0  0  0  0  0
    1.7139    1.9458   -3.9057 H   0  0  0  0  0  0  0  0  0  0  0  0
    2.6452    0.8999   -2.8388 H   0  0  0  0  0  0  0  0  0  0  0  0
    1.4815    1.1848   -0.3737 N   0  0  0  0  0  0  0  0  0  0  0  0
    1.7449    1.9464    0.8551 C   0  0  2  0  0  0  0  0  0  0  0  0
    3.2590    2.0165    1.1450 C   0  0  0  0  0  0  0  0  0  0  0  0
    4.0342    1.3127    0.5062 O   0  0  0  0  0  0  0  0  0  0  0  0
    0.9975    1.2697    2.0074 C   0  0  0  0  0  0  0  0  0  0  0  0
    2.2364    0.5656   -0.6714 H   0  0  0  0  0  0  0  0  0  0  0  0
    1.3880    2.9762    0.7469 H   0  0  0  0  0  0  0  0  0  0  0  0
    1.3516    0.2428    2.1439 H   0  0  0  0  0  0  0  0  0  0  0  0
    1.1508    1.8179    2.9416 H   0  0  0  0  0  0  0  0  0  0  0  0
   -0.0760    1.2424    1.7960 H   0  0  0  0  0  0  0  0  0  0  0  0
    3.7563    2.8780    2.1054 N   0  0  0  0  0  0  0  0  0  0  0  0
    5.1792    3.0133    2.3939 C   0  0  0  0  0  0  0  0  0  0  0  0
    3.0957    3.4744    2.5956 H   0  0  0  0  0  0  0  0  0  0  0  0
    5.6160    2.0380    2.6352 H   0  0  0  0  0  0  0  0  0  0  0  0
    5.7070    3.4316    1.5303 H   0  0  0  0  0  0  0  0  0  0  0  0
    5.3310    3.6797    3.2484 H   0  0  0  0  0  0  0  0  0  0  0  0
  1  2  2  0  0  0  0
  1  3  1  0  0  0  0
  1  7  1  0  0  0  0
  3  4  1  0  0  0  0
  3  5  1  0  0  0  0
  3  6  1  0  0  0  0
  7  8  1  0  0  0  0
  7 13  1  0  0  0  0
  8  9  1  0  0  0  0
  8 11  1  0  0  0  0
  8 14  1  0  0  0  0
  9 10  2  0  0  0  0
  9 17  1  0  0  0  0
 11 12  1  0  0  0  0
 11 15  1  0  0  0  0
 11 16  1  0  0  0  0
 12 44  1  0  0  0  0
 17 18  1  0  0  0  0
 17 19  1  0  0  0  0
 18 20  1  0  0  0  0
 18 21  1  0  0  0  0
 18 22  1  0  0  0  0
 23 24  2  0  0  0  0
 23 25  1  0  0  0  0
 23 29  1  0  0  0  0
 25 26  1  0  0  0  0
 25 27  1  0  0  0  0
 25 28  1  0  0  0  0
 29 30  1  0  0  0  0
 29 34  1  0  0  0  0
 30 31  1  0  0  0  0
 30 33  1  0  0  0  0
 30 35  1  0  0  0  0
 31 32  2  0  0  0  0
 31 39  1  0  0  0  0
 33 36  1  0  0  0  0
 33 37  1  0  0  0  0
 33 38  1  0  0  0  0
 39 40  1  0  0  0  0
 39 45  1  0  0  0  0
 40 41  1  0  0  0  0
 40 43  1  0  0  0  0
 40 46  1  0  0  0  0
 41 42  2  0  0  0  0
 41 49  1  0  0  0  0
 43 44  1  0  0  0  0
 43 47  1  0  0  0  0
 43 48  1  0  0  0  0
 49 50  1  0  0  0  0
 49 54  1  0  0  0  0
 50 51  1  0  0  0  0
 50 53  1  0  0  0  0
 50 55  1  0  0  0  0
 51 52  2  0  0  0  0
 51 59  1  0  0  0  0
 53 56  1  0  0  0  0
 53 57  1  0  0  0  0
 53 58  1  0  0  0  0
 59 60  1  0  0  0  0
 59 61  1  0  0  0  0
 60 62  1  0  0  0  0
 60 63  1  0  0  0  0
 60 64  1  0  0  0  0
M  END
$$$$

  -OEChem-05262216053D

 64 63  0     1  0  0  0  0  0999 V2000
    0.8283    4.8661   -8.7299 C   0  0  0  0  0  0  0  0  0  0  0  0
   -0.3123    4.4390   -8.8246 O   0  0  0  0  0  0  0  0  0  0  0  0
    1.5607    5.3695   -9.9593 C   0  0  0  0  0  0  0  0  0  0  0  0
    2.4206    4.7279  -10.1679 H   0  0  0  0  0  0  0  0  0  0  0  0
    0.8936    5.3595  -10.8257 H   0  0  0  0  0  0  0  0  0  0  0  0
    1.9089    6.3921   -9.7953 H   0  0  0  0  0  0  0  0  0  0  0  0
    1.4544    4.8811   -7.5032 N   0  0  0  0  0  0  0  0  0  0  0  0
    0.8332    4.4532   -6.2420 C   0  0  2  0  0  0  0  0  0  0  0  0
    1.5071    5.1110   -5.0144 C   0  0  0  0  0  0  0  0  0  0  0  0
    2.4340    5.8990   -5.1787 O   0  0  0  0  0  0  0  0  0  0  0  0
    0.8789    2.9199   -6.1593 C   0  0  0  0  0  0  0  0  0  0  0  0
    2.6028    2.2889   -6.0133 S   0  0  0  0  0  0  0  0  0  0  0  0
    2.3725    5.3192   -7.4392 H   0  0  0  0  0  0  0  0  0  0  0  0
   -0.2134    4.7750   -6.2335 H   0  0  0  0  0  0  0  0  0  0  0  0
    0.2991    2.5928   -5.2950 H   0  0  0  0  0  0  0  0  0  0  0  0
    0.4095    2.4839   -7.0467 H   0  0  0  0  0  0  0  0  0  0  0  0
    1.0636    4.8641   -3.7266 N   0  0  0  0  0  0  0  0  0  0  0  0
    1.7141    5.3998   -2.5383 C   0  0  0  0  0  0  0  0  0  0  0  0
    0.3387    4.1536   -3.5939 H   0  0  0  0  0  0  0  0  0  0  0  0
    2.7701    5.1107   -2.5148 H   0  0  0  0  0  0  0  0  0  0  0  0
    1.6447    6.4924   -2.5217 H   0  0  0  0  0  0  0  0  0  0  0  0
    1.2295    5.0082   -1.6384 H   0  0  0  0  0  0  0  0  0  0  0  0
   -4.5324    2.0726   -1.7834 C   0  0  0  0  0  0  0  0  0  0  0  0
   -4.9967    0.9465   -1.8650 O   0  0  0  0  0  0  0  0  0  0  0  0
   -5.1143    3.0622   -0.7921 C   0  0  0  0  0  0  0  0  0  0  0  0
   -5.5457    3.9125   -1.3253 H   0  0  0  0  0  0  0  0  0  0  0  0
   -5.8974    2.5835   -0.1976 H   0  0  0  0  0  0  0  0  0  0  0  0
   -4.3315    3.4205   -0.1192 H   0  0  0  0  0  0  0  0  0  0  0  0
   -3.4783    2.4518   -2.5887 N   0  0  0  0  0  0  0  0  0  0  0  0
   -2.6855    1.5132   -3.3949 C   0  0  2  0  0  0  0  0  0  0  0  0
   -1.1848    1.6294   -3.0685 C   0  0  0  0  0  0  0  0  0  0  0  0
   -0.7042    2.7341   -2.8261 O   0  0  0  0  0  0  0  0  0  0  0  0
   -2.9419    1.8197   -4.8727 C   0  0  0  0  0  0  0  0  0  0  0  0
   -3.0367    3.3410   -2.3623 H   0  0  0  0  0  0  0  0  0  0  0  0
   -2.9868    0.4806   -3.1904 H   0  0  0  0  0  0  0  0  0  0  0  0
   -2.6373    2.8435   -5.1130 H   0  0  0  0  0  0  0  0  0  0  0  0
   -2.3801    1.1303   -5.5107 H   0  0  0  0  0  0  0  0  0  0  0  0
   -4.0071    1.7106   -5.1007 H   0  0  0  0  0  0  0  0  0  0  0  0
   -0.3566    0.5255   -3.1925 N   0  0  0  0  0  0  0  0  0  0  0  0
    0.9637    0.3822   -2.5361 C   0  0  2  0  0  0  0  0  0  0  0  0
    0.9992    0.7933   -1.0387 C   0  0  0  0  0  0  0  0  0  0  0  0
   -0.0326    0.9621   -0.3985 O   0  0  0  0  0  0  0  0  0  0  0  0
    2.0039    1.1977   -3.3226 C   0  0  0  0  0  0  0  0  0  0  0  0
    2.2215    0.5008   -5.0084 S   0  0  0  0  0  0  0  0  0  0  0  0
   -0.8470   -0.3408   -3.3965 H   0  0  0  0  0  0  0  0  0  0  0  0
    1.2571   -0.6710   -2.5727 H   0  0  0  0  0  0  0  0  0  0  0  0
    1.7009    2.2447   -3.3789 H   0  0  0  0  0  0  0  0  0  0  0  0
    2.9759    1.1741   -2.8214 H   0  0  0  0  0  0  0  0  0  0  0  0
    2.1812    0.7031   -0.3256 N   0  0  0  0  0  0  0  0  0  0  0  0
    2.3411    1.1650    1.0599 C   0  0  2  0  0  0  0  0  0  0  0  0
    3.6639    1.9396    1.2321 C   0  0  0  0  0  0  0  0  0  0  0  0
    4.5162    1.8954    0.3511 O   0  0  0  0  0  0  0  0  0  0  0  0
    2.2949   -0.0568    1.9816 C   0  0  0  0  0  0  0  0  0  0  0  0
    3.0424    0.6429   -0.8689 H   0  0  0  0  0  0  0  0  0  0  0  0
    1.5284    1.8486    1.3286 H   0  0  0  0  0  0  0  0  0  0  0  0
    3.1131   -0.7459    1.7481 H   0  0  0  0  0  0  0  0  0  0  0  0
    2.3830    0.2479    3.0287 H   0  0  0  0  0  0  0  0  0  0  0  0
    1.3456   -0.5878    1.8565 H   0  0  0  0  0  0  0  0  0  0  0  0
    3.8884    2.7086    2.3585 N   0  0  0  0  0  0  0  0  0  0  0  0
    5.1011    3.4917    2.5621 C   0  0  0  0  0  0  0  0  0  0  0  0
    3.1536    2.7476    3.0590 H   0  0  0  0  0  0  0  0  0  0  0  0
    5.9805    2.8391    2.5783 H   0  0  0  0  0  0  0  0  0  0  0  0
    5.2219    4.2267    1.7592 H   0  0  0  0  0  0  0  0  0  0  0  0
    5.0506    4.0270    3.5153 H   0  0  0  0  0  0  0  0  0  0  0  0
  1  2  2  0  0  0  0
  1  3  1  0  0  0  0
  1  7  1  0  0  0  0
  3  4  1  0  0  0  0
  3  5  1  0  0  0  0
  3  6  1  0  0  0  0
  7  8  1  0  0  0  0
  7 13  1  0  0  0  0
  8  9  1  0  0  0  0
  8 11  1  0  0  0  0
  8 14  1  0  0  0  0
  9 10  2  0  0  0  0
  9 17  1  0  0  0  0
 11 12  1  0  0  0  0
 11 15  1  0  0  0  0
 11 16  1  0  0  0  0
 12 44  1  0  0  0  0
 17 18  1  0  0  0  0
 17 19  1  0  0  0  0
 18 20  1  0  0  0  0
 18 21  1  0  0  0  0
 18 22  1  0  0  0  0
 23 24  2  0  0  0  0
 23 25  1  0  0  0  0
 23 29  1  0  0  0  0
 25 26  1  0  0  0  0
 25 27  1  0  0  0  0
 25 28  1  0  0  0  0
 29 30  1  0  0  0  0
 29 34  1  0  0  0  0
 30 31  1  0  0  0  0
 30 33  1  0  0  0  0
 30 35  1  0  0  0  0
 31 32  2  0  0  0  0
 31 39  1  0  0  0  0
 33 36  1  0  0  0  0
 33 37  1  0  0  0  0
 33 38  1  0  0  0  0
 39 40  1  0  0  0  0
 39 45  1  0  0  0  0
 40 41  1  0  0  0  0
 40 43  1  0  0  0  0
 40 46  1  0  0  0  0
 41 42  2  0  0  0  0
 41 49  1  0  0  0  0
 43 44  1  0  0  0  0
 43 47  1  0  0  0  0
 43 48  1  0  0  0  0
 49 50  1  0  0  0  0
 49 54  1  0  0  0  0
 50 51  1  0  0  0  0
 50 53  1  0  0  0  0
 50 55  1  0  0  0  0
 51 52  2  0  0  0  0
 51 59  1  0  0  0  0
 53 56  1  0  0  0  0
 53 57  1  0  0  0  0
 53 58  1  0  0  0  0
 59 60  1  0  0  0  0
 59 61  1  0  0  0  0
 60 62  1  0  0  0  0
 60 63  1  0  0  0  0
 60 64  1  0  0  0  0
M  END
$$$$

  -OEChem-05262216053D

 64 63  0     1  0  0  0  0  0999 V2000
    0.7494    5.0697   -8.3847 C   0  0  0  0  0  0  0  0  0  0  0  0
   -0.4188    4.7173   -8.4426 O   0  0  0  0  0  0  0  0  0  0  0  0
    1.4286    5.6701   -9.6008 C   0  0  0  0  0  0  0  0  0  0  0  0
    2.2977    5.0677   -9.8769 H   0  0  0  0  0  0  0  0  0  0  0  0
    0.7348    5.6977  -10.4456 H   0  0  0  0  0  0  0  0  0  0  0  0
    1.7558    6.6890   -9.3803 H   0  0  0  0  0  0  0  0  0  0  0  0
    1.4519    4.9263   -7.2089 N   0  0  0  0  0  0  0  0  0  0  0  0
    0.8796    4.4364   -5.9472 C   0  0  2  0  0  0  0  0  0  0  0  0
    1.6717    4.9519   -4.7220 C   0  0  0  0  0  0  0  0  0  0  0  0
    2.6415    5.6855   -4.8928 O   0  0  0  0  0  0  0  0  0  0  0  0
    0.8261    2.9019   -5.9843 C   0  0  0  0  0  0  0  0  0  0  0  0
    2.5100    2.1551   -5.9822 S   0  0  0  0  0  0  0  0  0  0  0  0
    2.3932    5.3154   -7.1647 H   0  0  0  0  0  0  0  0  0  0  0  0
   -0.1409    4.8191   -5.8445 H   0  0  0  0  0  0  0  0  0  0  0  0
    0.2700    2.5462   -5.1157 H   0  0  0  0  0  0  0  0  0  0  0  0
    0.2835    2.5675   -6.8741 H   0  0  0  0  0  0  0  0  0  0  0  0
    1.2920    4.6373   -3.4286 N   0  0  0  0  0  0  0  0  0  0  0  0
    2.0836    4.9961   -2.2588 C   0  0  0  0  0  0  0  0  0  0  0  0
    0.5279    3.9690   -3.2996 H   0  0  0  0  0  0  0  0  0  0  0  0
    3.0963    4.5880   -2.3401 H   0  0  0  0  0  0  0  0  0  0  0  0
    2.1482    6.0842   -2.1573 H   0  0  0  0  0  0  0  0  0  0  0  0
    1.6212    4.5899   -1.3541 H   0  0  0  0  0  0  0  0  0  0  0  0
   -4.6877    2.3670   -2.0100 C   0  0  0  0  0  0  0  0  0  0  0  0
   -5.3251    1.3655   -2.2945 O   0  0  0  0  0  0  0  0  0  0  0  0
   -5.3068    3.4367   -1.1308 C   0  0  0  0  0  0  0  0  0  0  0  0
   -5.3255    4.3910   -1.6623 H   0  0  0  0  0  0  0  0  0  0  0  0
   -6.3316    3.1600   -0.8672 H   0  0  0  0  0  0  0  0  0  0  0  0
   -4.7244    3.5488   -0.2131 H   0  0  0  0  0  0  0  0  0  0  0  0
   -3.4016    2.5237   -2.4825 N   0  0  0  0  0  0  0  0  0  0  0  0
   -2.6623    1.4857   -3.2117 C   0  0  2  0  0  0  0  0  0  0  0  0
   -1.1562    1.5222   -2.8907 C   0  0  0  0  0  0  0  0  0  0  0  0
   -0.6244    2.5842   -2.5741 O   0  0  0  0  0  0  0  0  0  0  0  0
   -2.8911    1.6905   -4.7126 C   0  0  0  0  0  0  0  0  0  0  0  0
   -2.8657    3.3146   -2.1290 H   0  0  0  0  0  0  0  0  0  0  0  0
   -3.0323    0.4966   -2.9207 H   0  0  0  0  0  0  0  0  0  0  0  0
   -2.5290    2.6751   -5.0260 H   0  0  0  0  0  0  0  0  0  0  0  0
   -2.3638    0.9252   -5.2907 H   0  0  0  0  0  0  0  0  0  0  0  0
   -3.9588    1.6228   -4.9451 H   0  0  0  0  0  0  0  0  0  0  0  0
   -0.3828    0.3907   -3.0934 N   0  0  0  0  0  0  0  0  0  0  0  0
    0.9590    0.1627   -2.5111 C   0  0  2  0  0  0  0  0  0  0  0  0
    1.0552    0.5222   -1.0032 C   0  0  0  0  0  0  0  0  0  0  0  0
    0.0534    0.5139   -0.2963 O   0  0  0  0  0  0  0  0  0  0  0  0
    1.9866    0.9713   -3.3225 C   0  0  0  0  0  0  0  0  0  0  0  0
    2.0824    0.3402   -5.0445 S   0  0  0  0  0  0  0  0  0  0  0  0
   -0.9118   -0.4408   -3.3413 H   0  0  0  0  0  0  0  0  0  0  0  0
    1.2090   -0.8989   -2.5964 H   0  0  0  0  0  0  0  0  0  0  0  0
    1.7237    2.0295   -3.3156 H   0  0  0  0  0  0  0  0  0  0  0  0
    2.9849    0.8887   -2.8843 H   0  0  0  0  0  0  0  0  0  0  0  0
    2.2862    0.6649   -0.3879 N   0  0  0  0  0  0  0  0  0  0  0  0
    2.4581    1.3202    0.9157 C   0  0  2  0  0  0  0  0  0  0  0  0
    3.1813    2.6722    0.7461 C   0  0  0  0  0  0  0  0  0  0  0  0
    3.8557    2.8789   -0.2572 O   0  0  0  0  0  0  0  0  0  0  0  0
    3.2665    0.3790    1.8100 C   0  0  0  0  0  0  0  0  0  0  0  0
    3.0733    0.7803   -1.0239 H   0  0  0  0  0  0  0  0  0  0  0  0
    1.4922    1.5151    1.3930 H   0  0  0  0  0  0  0  0  0  0  0  0
    4.2474    0.1769    1.3673 H   0  0  0  0  0  0  0  0  0  0  0  0
    3.4154    0.8234    2.7990 H   0  0  0  0  0  0  0  0  0  0  0  0
    2.7367   -0.5711    1.9335 H   0  0  0  0  0  0  0  0  0  0  0  0
    3.0746    3.6602    1.7067 N   0  0  0  0  0  0  0  0  0  0  0  0
    3.7150    4.9646    1.5846 C   0  0  0  0  0  0  0  0  0  0  0  0
    2.4835    3.4753    2.5120 H   0  0  0  0  0  0  0  0  0  0  0  0
    4.8008    4.8520    1.4956 H   0  0  0  0  0  0  0  0  0  0  0  0
    3.3423    5.4939    0.7013 H   0  0  0  0  0  0  0  0  0  0  0  0
    3.5028    5.5747    2.4680 H   0  0  0  0  0  0  0  0  0  0  0  0
  1  2  2  0  0  0  0
  1  3  1  0  0  0  0
  1  7  1  0  0  0  0
  3  4  1  0  0  0  0
  3  5  1  0  0  0  0
  3  6  1  0  0  0  0
  7  8  1  0  0  0  0
  7 13  1  0  0  0  0
  8  9  1  0  0  0  0
  8 11  1  0  0  0  0
  8 14  1  0  0  0  0
  9 10  2  0  0  0  0
  9 17  1  0  0  0  0
 11 12  1  0  0  0  0
 11 15  1  0  0  0  0
 11 16  1  0  0  0  0
 12 44  1  0  0  0  0
 17 18  1  0  0  0  0
 17 19  1  0  0  0  0
 18 20  1  0  0  0  0
 18 21  1  0  0  0  0
 18 22  1  0  0  0  0
 23 24  2  0  0  0  0
 23 25  1  0  0  0  0
 23 29  1  0  0  0  0
 25 26  1  0  0  0  0
 25 27  1  0  0  0  0
 25 28  1  0  0  0  0
 29 30  1  0  0  0  0
 29 34  1  0  0  0  0
 30 31  1  0  0  0  0
 30 33  1  0  0  0  0
 30 35  1  0  0  0  0
 31 32  2  0  0  0  0
 31 39  1  0  0  0  0
 33 36  1  0  0  0  0
 33 37  1  0  0  0  0
 33 38  1  0  0  0  0
 39 40  1  0  0  0  0
 39 45  1  0  0  0  0
 40 41  1  0  0  0  0
 40 43  1  0  0  0  0
 40 46  1  0  0  0  0
 41 42  2  0  0  0  0
 41 49  1  0  0  0  0
 43 44  1  0  0  0  0
 43 47  1  0  0  0  0
 43 48  1  0  0  0  0
 49 50  1  0  0  0  0
 49 54  1  0  0  0  0
 50 51  1  0  0  0  0
 50 53  1  0  0  0  0
 50 55  1  0  0  0  0
 51 52  2  0  0  0  0
 51 59  1  0  0  0  0
 53 56  1  0  0  0  0
 53 57  1  0  0  0  0
 53 58  1  0  0  0  0
 59 60  1  0  0  0  0
 59 61  1  0  0  0  0
 60 62  1  0  0  0  0
 60 63  1  0  0  0  0
 60 64  1  0  0  0  0
M  END
$$$$

  -OEChem-05262216053D

 64 63  0     1  0  0  0  0  0999 V2000
    0.6335    4.9508   -8.5285 C   0  0  0  0  0  0  0  0  0  0  0  0
   -0.5127    4.5304   -8.5690 O   0  0  0  0  0  0  0  0  0  0  0  0
    1.2675    5.5626   -9.7629 C   0  0  0  0  0  0  0  0  0  0  0  0
    2.1425    4.9797  -10.0595 H   0  0  0  0  0  0  0  0  0  0  0  0
    0.5524    5.5683  -10.5900 H   0  0  0  0  0  0  0  0  0  0  0  0
    1.5752    6.5904   -9.5546 H   0  0  0  0  0  0  0  0  0  0  0  0
    1.3488    4.8763   -7.3543 N   0  0  0  0  0  0  0  0  0  0  0  0
    0.8014    4.4071   -6.0745 C   0  0  2  0  0  0  0  0  0  0  0  0
    1.5530    5.0234   -4.8714 C   0  0  0  0  0  0  0  0  0  0  0  0
    2.4824    5.8004   -5.0707 O   0  0  0  0  0  0  0  0  0  0  0  0
    0.8430    2.8728   -6.0470 C   0  0  0  0  0  0  0  0  0  0  0  0
    2.5683    2.2299   -6.0018 S   0  0  0  0  0  0  0  0  0  0  0  0
    2.2641    5.3241   -7.3239 H   0  0  0  0  0  0  0  0  0  0  0  0
   -0.2414    4.7297   -5.9912 H   0  0  0  0  0  0  0  0  0  0  0  0
    0.3020    2.5198   -5.1680 H   0  0  0  0  0  0  0  0  0  0  0  0
    0.3304    2.4689   -6.9257 H   0  0  0  0  0  0  0  0  0  0  0  0
    1.1756    4.7550   -3.5672 N   0  0  0  0  0  0  0  0  0  0  0  0
    1.9187    5.2365   -2.4100 C   0  0  0  0  0  0  0  0  0  0  0  0
    0.4485    4.0532   -3.4087 H   0  0  0  0  0  0  0  0  0  0  0  0
    2.9526    4.8770   -2.4413 H   0  0  0  0  0  0  0  0  0  0  0  0
    1.9250    6.3308   -2.3855 H   0  0  0  0  0  0  0  0  0  0  0  0
    1.4542    4.8738   -1.4881 H   0  0  0  0  0  0  0  0  0  0  0  0
   -4.6248    2.2985   -1.9924 C   0  0  0  0  0  0  0  0  0  0  0  0
   -5.2313    1.2632   -2.2160 O   0  0  0  0  0  0  0  0  0  0  0  0
   -5.2455    3.3742   -1.1218 C   0  0  0  0  0  0  0  0  0  0  0  0
   -5.3569    4.2975   -1.6947 H   0  0  0  0  0  0  0  0  0  0  0  0
   -6.2311    3.0546   -0.7728 H   0  0  0  0  0  0  0  0  0  0  0  0
   -4.6099    3.5663   -0.2540 H   0  0  0  0  0  0  0  0  0  0  0  0
   -3.3691    2.4936   -2.5270 N   0  0  0  0  0  0  0  0  0  0  0  0
   -2.6086    1.4637   -3.2457 C   0  0  2  0  0  0  0  0  0  0  0  0
   -1.1023    1.5501   -2.9287 C   0  0  0  0  0  0  0  0  0  0  0  0
   -0.6073    2.6290   -2.6092 O   0  0  0  0  0  0  0  0  0  0  0  0
   -2.8559    1.6459   -4.7462 C   0  0  0  0  0  0  0  0  0  0  0  0
   -2.8556    3.3177   -2.2200 H   0  0  0  0  0  0  0  0  0  0  0  0
   -2.9498    0.4683   -2.9412 H   0  0  0  0  0  0  0  0  0  0  0  0
   -2.5233    2.6361   -5.0738 H   0  0  0  0  0  0  0  0  0  0  0  0
   -2.3143    0.8886   -5.3212 H   0  0  0  0  0  0  0  0  0  0  0  0
   -3.9236    1.5477   -4.9675 H   0  0  0  0  0  0  0  0  0  0  0  0
   -0.2859    0.4454   -3.1087 N   0  0  0  0  0  0  0  0  0  0  0  0
    1.0537    0.2823   -2.4997 C   0  0  2  0  0  0  0  0  0  0  0  0
    1.0792    0.6727   -0.9967 C   0  0  0  0  0  0  0  0  0  0  0  0
    0.1129    0.4091   -0.2895 O   0  0  0  0  0  0  0  0  0  0  0  0
    2.0735    1.1006   -3.3116 C   0  0  0  0  0  0  0  0  0  0  0  0
    2.2261    0.4251   -5.0127 S   0  0  0  0  0  0  0  0  0  0  0  0
   -0.7793   -0.4121   -3.3420 H   0  0  0  0  0  0  0  0  0  0  0  0
    1.3442   -0.7712   -2.5505 H   0  0  0  0  0  0  0  0  0  0  0  0
    1.7801    2.1515   -3.3398 H   0  0  0  0  0  0  0  0  0  0  0  0
    3.0641    1.0530   -2.8505 H   0  0  0  0  0  0  0  0  0  0  0  0
    2.2155    1.1826   -0.3934 N   0  0  0  0  0  0  0  0  0  0  0  0
    2.2262    1.7980    0.9404 C   0  0  2  0  0  0  0  0  0  0  0  0
    2.8856    3.1917    0.8898 C   0  0  0  0  0  0  0  0  0  0  0  0
    3.5776    3.5032   -0.0738 O   0  0  0  0  0  0  0  0  0  0  0  0
    2.9899    0.8688    1.8856 C   0  0  0  0  0  0  0  0  0  0  0  0
    2.9427    1.5169   -1.0245 H   0  0  0  0  0  0  0  0  0  0  0  0
    1.2056    1.9314    1.3144 H   0  0  0  0  0  0  0  0  0  0  0  0
    4.0228    0.7413    1.5455 H   0  0  0  0  0  0  0  0  0  0  0  0
    3.0045    1.2798    2.8995 H   0  0  0  0  0  0  0  0  0  0  0  0
    2.5094   -0.1142    1.9181 H   0  0  0  0  0  0  0  0  0  0  0  0
    2.6913    4.1066    1.9075 N   0  0  0  0  0  0  0  0  0  0  0  0
    3.2578    5.4500    1.8911 C   0  0  0  0  0  0  0  0  0  0  0  0
    2.1021    3.8297    2.6875 H   0  0  0  0  0  0  0  0  0  0  0  0
    4.3519    5.4046    1.8926 H   0  0  0  0  0  0  0  0  0  0  0  0
    2.9286    5.9940    0.9993 H   0  0  0  0  0  0  0  0  0  0  0  0
    2.9339    6.0090    2.7741 H   0  0  0  0  0  0  0  0  0  0  0  0
  1  2  2  0  0  0  0
  1  3  1  0  0  0  0
  1  7  1  0  0  0  0
  3  4  1  0  0  0  0
  3  5  1  0  0  0  0
  3  6  1  0  0  0  0
  7  8  1  0  0  0  0
  7 13  1  0  0  0  0
  8  9  1  0  0  0  0
  8 11  1  0  0  0  0
  8 14  1  0  0  0  0
  9 10  2  0  0  0  0
  9 17  1  0  0  0  0
 11 12  1  0  0  0  0
 11 15  1  0  0  0  0
 11 16  1  0  0  0  0
 12 44  1  0  0  0  0
 17 18  1  0  0  0  0
 17 19  1  0  0  0  0
 18 20  1  0  0  0  0
 18 21  1  0  0  0  0
 18 22  1  0  0  0  0
 23 24  2  0  0  0  0
 23 25  1  0  0  0  0
 23 29  1  0  0  0  0
 25 26  1  0  0  0  0
 25 27  1  0  0  0  0
 25 28  1  0  0  0  0
 29 30  1  0  0  0  0
 29 34  1  0  0  0  0
 30 31  1  0  0  0  0
 30 33  1  0  0  0  0
 30 35  1  0  0  0  0
 31 32  2  0  0  0  0
 31 39  1  0  0  0  0
 33 36  1  0  0  0  0
 33 37  1  0  0  0  0
 33 38  1  0  0  0  0
 39 40  1  0  0  0  0
 39 45  1  0  0  0  0
 40 41  1  0  0  0  0
 40 43  1  0  0  0  0
 40 46  1  0  0  0  0
 41 42  2  0  0  0  0
 41 49  1  0  0  0  0
 43 44  1  0  0  0  0
 43 47  1  0  0  0  0
 43 48  1  0  0  0  0
 49 50  1  0  0  0  0
 49 54  1  0  0  0  0
 50 51  1  0  0  0  0
 50 53  1  0  0  0  0
 50 55  1  0  0  0  0
 51 52  2  0  0  0  0
 51 59  1  0  0  0  0
 53 56  1  0  0  0  0
 53 57  1  0  0  0  0
 53 58  1  0  0  0  0
 59 60  1  0  0  0  0
 59 61  1  0  0  0  0
 60 62  1  0  0  0  0
 60 63  1  0  0  0  0
 60 64  1  0  0  0  0
M  END
$$$$

  -OEChem-05262216053D

 64 63  0     1  0  0  0  0  0999 V2000
    0.4746    4.7871   -8.5870 C   0  0  0  0  0  0  0  0  0  0  0  0
   -0.6301    4.2657   -8.5976 O   0  0  0  0  0  0  0  0  0  0  0  0
    1.0521    5.3826   -9.8563 C   0  0  0  0  0  0  0  0  0  0  0  0
    1.9990    4.8940  -10.0984 H   0  0  0  0  0  0  0  0  0  0  0  0
    0.3588    5.2397  -10.6893 H   0  0  0  0  0  0  0  0  0  0  0  0
    1.2249    6.4530   -9.7216 H   0  0  0  0  0  0  0  0  0  0  0  0
    1.1974    4.8354   -7.4158 N   0  0  0  0  0  0  0  0  0  0  0  0
    0.6969    4.3805   -6.1116 C   0  0  2  0  0  0  0  0  0  0  0  0
    1.3992    5.1075   -4.9417 C   0  0  0  0  0  0  0  0  0  0  0  0
    2.2508    5.9584   -5.1818 O   0  0  0  0  0  0  0  0  0  0  0  0
    0.8581    2.8574   -6.0166 C   0  0  0  0  0  0  0  0  0  0  0  0
    2.6237    2.3461   -5.9260 S   0  0  0  0  0  0  0  0  0  0  0  0
    2.0663    5.3690   -7.4133 H   0  0  0  0  0  0  0  0  0  0  0  0
   -0.3681    4.6223   -6.0349 H   0  0  0  0  0  0  0  0  0  0  0  0
    0.3364    2.5039   -5.1271 H   0  0  0  0  0  0  0  0  0  0  0  0
    0.3885    2.3766   -6.8805 H   0  0  0  0  0  0  0  0  0  0  0  0
    1.0490    4.8642   -3.6251 N   0  0  0  0  0  0  0  0  0  0  0  0
    1.7165    5.4944   -2.4931 C   0  0  0  0  0  0  0  0  0  0  0  0
    0.3849    4.1115   -3.4296 H   0  0  0  0  0  0  0  0  0  0  0  0
    2.7724    5.2055   -2.4584 H   0  0  0  0  0  0  0  0  0  0  0  0
    1.6511    6.5850   -2.5653 H   0  0  0  0  0  0  0  0  0  0  0  0
    1.2415    5.1831   -1.5578 H   0  0  0  0  0  0  0  0  0  0  0  0
   -4.6327    2.3974   -2.2424 C   0  0  0  0  0  0  0  0  0  0  0  0
   -5.2438    1.3734   -2.5017 O   0  0  0  0  0  0  0  0  0  0  0  0
   -5.3019    3.5044   -1.4504 C   0  0  0  0  0  0  0  0  0  0  0  0
   -5.3930    4.4013   -2.0679 H   0  0  0  0  0  0  0  0  0  0  0  0
   -6.3006    3.1898   -1.1346 H   0  0  0  0  0  0  0  0  0  0  0  0
   -4.7099    3.7389   -0.5622 H   0  0  0  0  0  0  0  0  0  0  0  0
   -3.3253    2.5427   -2.6556 N   0  0  0  0  0  0  0  0  0  0  0  0
   -2.5352    1.4769   -3.2855 C   0  0  2  0  0  0  0  0  0  0  0  0
   -1.0437    1.5841   -2.9100 C   0  0  0  0  0  0  0  0  0  0  0  0
   -0.5819    2.6644   -2.5492 O   0  0  0  0  0  0  0  0  0  0  0  0
   -2.7172    1.5761   -4.8038 C   0  0  0  0  0  0  0  0  0  0  0  0
   -2.8177    3.3609   -2.3228 H   0  0  0  0  0  0  0  0  0  0  0  0
   -2.8896    0.4991   -2.9400 H   0  0  0  0  0  0  0  0  0  0  0  0
   -2.3820    2.5523   -5.1690 H   0  0  0  0  0  0  0  0  0  0  0  0
   -2.1431    0.7969   -5.3143 H   0  0  0  0  0  0  0  0  0  0  0  0
   -3.7727    1.4520   -5.0664 H   0  0  0  0  0  0  0  0  0  0  0  0
   -0.1970    0.5017   -3.0805 N   0  0  0  0  0  0  0  0  0  0  0  0
    1.1314    0.3710   -2.4423 C   0  0  2  0  0  0  0  0  0  0  0  0
    1.0984    0.7546   -0.9400 C   0  0  0  0  0  0  0  0  0  0  0  0
    0.2252    0.2731   -0.2271 O   0  0  0  0  0  0  0  0  0  0  0  0
    2.1584    1.2076   -3.2251 C   0  0  0  0  0  0  0  0  0  0  0  0
    2.3737    0.5349   -4.9206 S   0  0  0  0  0  0  0  0  0  0  0  0
   -0.6600   -0.3653   -3.3398 H   0  0  0  0  0  0  0  0  0  0  0  0
    1.4458   -0.6764   -2.4848 H   0  0  0  0  0  0  0  0  0  0  0  0
    1.8448    2.2533   -3.2656 H   0  0  0  0  0  0  0  0  0  0  0  0
    3.1331    1.1767   -2.7291 H   0  0  0  0  0  0  0  0  0  0  0  0
    2.0603    1.5606   -0.3574 N   0  0  0  0  0  0  0  0  0  0  0  0
    1.9516    2.1173    0.9968 C   0  0  2  0  0  0  0  0  0  0  0  0
    2.4797    3.5658    1.0439 C   0  0  0  0  0  0  0  0  0  0  0  0
    3.1353    4.0103    0.1074 O   0  0  0  0  0  0  0  0  0  0  0  0
    2.7417    1.2191    1.9517 C   0  0  0  0  0  0  0  0  0  0  0  0
    2.6717    2.0728   -0.9930 H   0  0  0  0  0  0  0  0  0  0  0  0
    0.9023    2.1446    1.3096 H   0  0  0  0  0  0  0  0  0  0  0  0
    3.7986    1.1950    1.6669 H   0  0  0  0  0  0  0  0  0  0  0  0
    2.6648    1.5877    2.9791 H   0  0  0  0  0  0  0  0  0  0  0  0
    2.3487    0.1977    1.9213 H   0  0  0  0  0  0  0  0  0  0  0  0
    2.2020    4.3819    2.1246 N   0  0  0  0  0  0  0  0  0  0  0  0
    2.6578    5.7635    2.2225 C   0  0  0  0  0  0  0  0  0  0  0  0
    1.6540    3.9892    2.8847 H   0  0  0  0  0  0  0  0  0  0  0  0
    3.7519    5.8061    2.2455 H   0  0  0  0  0  0  0  0  0  0  0  0
    2.3002    6.3474    1.3677 H   0  0  0  0  0  0  0  0  0  0  0  0
    2.2742    6.2239    3.1382 H   0  0  0  0  0  0  0  0  0  0  0  0
  1  2  2  0  0  0  0
  1  3  1  0  0  0  0
  1  7  1  0  0  0  0
  3  4  1  0  0  0  0
  3  5  1  0  0  0  0
  3  6  1  0  0  0  0
  7  8  1  0  0  0  0
  7 13  1  0  0  0  0
  8  9  1  0  0  0  0
  8 11  1  0  0  0  0
  8 14  1  0  0  0  0
  9 10  2  0  0  0  0
  9 17  1  0  0  0  0
 11 12  1  0  0  0  0
 11 15  1  0  0  0  0
 11 16  1  0  0  0  0
 12 44  1  0  0  0  0
 17 18  1  0  0  0  0
 17 19  1  0  0  0  0
 18 20  1  0  0  0  0
 18 21  1  0  0  0  0
 18 22  1  0  0  0  0
 23 24  2  0  0  0  0
 23 25  1  0  0  0  0
 23 29  1  0  0  0  0
 25 26  1  0  0  0  0
 25 27  1  0  0  0  0
 25 28  1  0  0  0  0
 29 30  1  0  0  0  0
 29 34  1  0  0  0  0
 30 31  1  0  0  0  0
 30 33  1  0  0  0  0
 30 35  1  0  0  0  0
 31 32  2  0  0  0  0
 31 39  1  0  0  0  0
 33 36  1  0  0  0  0
 33 37  1  0  0  0  0
 33 38  1  0  0  0  0
 39 40  1  0  0  0  0
 39 45  1  0  0  0  0
 40 41  1  0  0  0  0
 40 43  1  0  0  0  0
 40 46  1  0  0  0  0
 41 42  2  0  0  0  0
 41 49  1  0  0  0  0
 43 44  1  0  0  0  0
 43 47  1  0  0  0  0
 43 48  1  0  0  0  0
 49 50  1  0  0  0  0
 49 54  1  0  0  0  0
 50 51  1  0  0  0  0
 50 53  1  0  0  0  0
 50 55  1  0  0  0  0
 51 52  2  0  0  0  0
 51 59  1  0  0  0  0
 53 56  1  0  0  0  0
 53 57  1  0  0  0  0
 53 58  1  0  0  0  0
 59 60  1  0  0  0  0
 59 61  1  0  0  0  0
 60 62  1  0  0  0  0
 60 63  1  0  0  0  0
 60 64  1  0  0  0  0
M  END
$$$$

  -OEChem-05262216053D

 64 63  0     1  0  0  0  0  0999 V2000
    0.4379    4.6703   -8.6119 C   0  0  0  0  0  0  0  0  0  0  0  0
   -0.6403    4.0959   -8.6202 O   0  0  0  0  0  0  0  0  0  0  0  0
    1.0125    5.2373   -9.8958 C   0  0  0  0  0  0  0  0  0  0  0  0
    2.0133    4.8337  -10.0668 H   0  0  0  0  0  0  0  0  0  0  0  0
    0.3760    4.9710  -10.7442 H   0  0  0  0  0  0  0  0  0  0  0  0
    1.0734    6.3259   -9.8271 H   0  0  0  0  0  0  0  0  0  0  0  0
    1.1297    4.8092   -7.4288 N   0  0  0  0  0  0  0  0  0  0  0  0
    0.6254    4.3826   -6.1161 C   0  0  2  0  0  0  0  0  0  0  0  0
    1.2714    5.1823   -4.9607 C   0  0  0  0  0  0  0  0  0  0  0  0
    2.0867    6.0634   -5.2176 O   0  0  0  0  0  0  0  0  0  0  0  0
    0.8539    2.8740   -5.9557 C   0  0  0  0  0  0  0  0  0  0  0  0
    2.6395    2.4498   -5.8286 S   0  0  0  0  0  0  0  0  0  0  0  0
    1.9751    5.3793   -7.4334 H   0  0  0  0  0  0  0  0  0  0  0  0
   -0.4507    4.5802   -6.0683 H   0  0  0  0  0  0  0  0  0  0  0  0
    0.3417    2.5349   -5.0556 H   0  0  0  0  0  0  0  0  0  0  0  0
    0.4143    2.3373   -6.8020 H   0  0  0  0  0  0  0  0  0  0  0  0
    0.9057    4.9697   -3.6420 N   0  0  0  0  0  0  0  0  0  0  0  0
    1.5108    5.6802   -2.5226 C   0  0  0  0  0  0  0  0  0  0  0  0
    0.2875    4.1836   -3.4295 H   0  0  0  0  0  0  0  0  0  0  0  0
    2.5556    5.3781   -2.3979 H   0  0  0  0  0  0  0  0  0  0  0  0
    1.4726    6.7627   -2.6834 H   0  0  0  0  0  0  0  0  0  0  0  0
    0.9694    5.4536   -1.5993 H   0  0  0  0  0  0  0  0  0  0  0  0
   -4.6691    2.3890   -2.4324 C   0  0  0  0  0  0  0  0  0  0  0  0
   -5.2430    1.3524   -2.7243 O   0  0  0  0  0  0  0  0  0  0  0  0
   -5.4150    3.4970   -1.7144 C   0  0  0  0  0  0  0  0  0  0  0  0
   -5.5057    4.3678   -2.3680 H   0  0  0  0  0  0  0  0  0  0  0  0
   -6.4167    3.1573   -1.4368 H   0  0  0  0  0  0  0  0  0  0  0  0
   -4.8771    3.7839   -0.8078 H   0  0  0  0  0  0  0  0  0  0  0  0
   -3.3367    2.5516   -2.7493 N   0  0  0  0  0  0  0  0  0  0  0  0
   -2.4919    1.5006   -3.3322 C   0  0  2  0  0  0  0  0  0  0  0  0
   -1.0236    1.6243   -2.8775 C   0  0  0  0  0  0  0  0  0  0  0  0
   -0.5955    2.7029   -2.4737 O   0  0  0  0  0  0  0  0  0  0  0  0
   -2.5891    1.5951   -4.8590 C   0  0  0  0  0  0  0  0  0  0  0  0
   -2.8688    3.3850   -2.3971 H   0  0  0  0  0  0  0  0  0  0  0  0
   -2.8506    0.5175   -3.0073 H   0  0  0  0  0  0  0  0  0  0  0  0
   -2.2641    2.5813   -5.2058 H   0  0  0  0  0  0  0  0  0  0  0  0
   -1.9618    0.8345   -5.3344 H   0  0  0  0  0  0  0  0  0  0  0  0
   -3.6229    1.4376   -5.1828 H   0  0  0  0  0  0  0  0  0  0  0  0
   -0.1524    0.5607   -3.0391 N   0  0  0  0  0  0  0  0  0  0  0  0
    1.1606    0.4351   -2.3713 C   0  0  2  0  0  0  0  0  0  0  0  0
    1.0909    0.7904   -0.8656 C   0  0  0  0  0  0  0  0  0  0  0  0
    0.3505    0.1329   -0.1444 O   0  0  0  0  0  0  0  0  0  0  0  0
    2.1986    1.2904   -3.1185 C   0  0  0  0  0  0  0  0  0  0  0  0
    2.4584    0.6345   -4.8156 S   0  0  0  0  0  0  0  0  0  0  0  0
   -0.5846   -0.3049   -3.3520 H   0  0  0  0  0  0  0  0  0  0  0  0
    1.4871   -0.6083   -2.4220 H   0  0  0  0  0  0  0  0  0  0  0  0
    1.8743    2.3337   -3.1608 H   0  0  0  0  0  0  0  0  0  0  0  0
    3.1587    1.2650   -2.5930 H   0  0  0  0  0  0  0  0  0  0  0  0
    1.8295    1.8165   -0.3045 N   0  0  0  0  0  0  0  0  0  0  0  0
    1.6513    2.3043    1.0684 C   0  0  2  0  0  0  0  0  0  0  0  0
    1.9662    3.8106    1.1667 C   0  0  0  0  0  0  0  0  0  0  0  0
    2.6008    4.3651    0.2758 O   0  0  0  0  0  0  0  0  0  0  0  0
    2.5656    1.5018    1.9992 C   0  0  0  0  0  0  0  0  0  0  0  0
    2.2906    2.4590   -0.9487 H   0  0  0  0  0  0  0  0  0  0  0  0
    0.6091    2.1679    1.3764 H   0  0  0  0  0  0  0  0  0  0  0  0
    3.6134    1.6277    1.7083 H   0  0  0  0  0  0  0  0  0  0  0  0
    2.4488    1.8357    3.0344 H   0  0  0  0  0  0  0  0  0  0  0  0
    2.3159    0.4372    1.9513 H   0  0  0  0  0  0  0  0  0  0  0  0
    1.5185    4.5532    2.2432 N   0  0  0  0  0  0  0  0  0  0  0  0
    1.7582    5.9846    2.3823 C   0  0  0  0  0  0  0  0  0  0  0  0
    0.9798    4.0718    2.9575 H   0  0  0  0  0  0  0  0  0  0  0  0
    2.8331    6.1911    2.4165 H   0  0  0  0  0  0  0  0  0  0  0  0
    1.3208    6.5304    1.5395 H   0  0  0  0  0  0  0  0  0  0  0  0
    1.3057    6.3563    3.3066 H   0  0  0  0  0  0  0  0  0  0  0  0
  1  2  2  0  0  0  0
  1  3  1  0  0  0  0
  1  7  1  0  0  0  0
  3  4  1  0  0  0  0
  3  5  1  0  0  0  0
  3  6  1  0  0  0  0
  7  8  1  0  0  0  0
  7 13  1  0  0  0  0
  8  9  1  0  0  0  0
  8 11  1  0  0  0  0
  8 14  1  0  0  0  0
  9 10  2  0  0  0  0
  9 17  1  0  0  0  0
 11 12  1  0  0  0  0
 11 15  1  0  0  0  0
 11 16  1  0  0  0  0
 12 44  1  0  0  0  0
 17 18  1  0  0  0  0
 17 19  1  0  0  0  0
 18 20  1  0  0  0  0
 18 21  1  0  0  0  0
 18 22  1  0  0  0  0
 23 24  2  0  0  0  0
 23 25  1  0  0  0  0
 23 29  1  0  0  0  0
 25 26  1  0  0  0  0
 25 27  1  0  0  0  0
 25 28  1  0  0  0  0
 29 30  1  0  0  0  0
 29 34  1  0  0  0  0
 30 31  1  0  0  0  0
 30 33  1  0  0  0  0
 30 35  1  0  0  0  0
 31 32  2  0  0  0  0
 31 39  1  0  0  0  0
 33 36  1  0  0  0  0
 33 37  1  0  0  0  0
 33 38  1  0  0  0  0
 39 40  1  0  0  0  0
 39 45  1  0  0  0  0
 40 41  1  0  0  0  0
 40 43  1  0  0  0  0
 40 46  1  0  0  0  0
 41 42  2  0  0  0  0
 41 49  1  0  0  0  0
 43 44  1  0  0  0  0
 43 47  1  0  0  0  0
 43 48  1  0  0  0  0
 49 50  1  0  0  0  0
 49 54  1  0  0  0  0
 50 51  1  0  0  0  0
 50 53  1  0  0  0  0
 50 55  1  0  0  0  0
 51 52  2  0  0  0  0
 51 59  1  0  0  0  0
 53 56  1  0  0  0  0
 53 57  1  0  0  0  0
 53 58  1  0  0  0  0
 59 60  1  0  0  0  0
 59 61  1  0  0  0  0
 60 62  1  0  0  0  0
 60 63  1  0  0  0  0
 60 64  1  0  0  0  0
M  END
$$$$

  -OEChem-05262216053D

 64 63  0     1  0  0  0  0  0999 V2000
    0.5351    4.5728   -8.6928 C   0  0  0  0  0  0  0  0  0  0  0  0
   -0.5182    3.9558   -8.7425 O   0  0  0  0  0  0  0  0  0  0  0  0
    1.1677    5.1106   -9.9622 C   0  0  0  0  0  0  0  0  0  0  0  0
    2.1569    4.6675  -10.1014 H   0  0  0  0  0  0  0  0  0  0  0  0
    0.5454    4.8641  -10.8270 H   0  0  0  0  0  0  0  0  0  0  0  0
    1.2682    6.1967   -9.8980 H   0  0  0  0  0  0  0  0  0  0  0  0
    1.1469    4.7838   -7.4770 N   0  0  0  0  0  0  0  0  0  0  0  0
    0.5817    4.3854   -6.1804 C   0  0  2  0  0  0  0  0  0  0  0  0
    1.1249    5.2530   -5.0215 C   0  0  0  0  0  0  0  0  0  0  0  0
    1.9032    6.1697   -5.2672 O   0  0  0  0  0  0  0  0  0  0  0  0
    0.8601    2.8953   -5.9486 C   0  0  0  0  0  0  0  0  0  0  0  0
    2.6548    2.5480   -5.7470 S   0  0  0  0  0  0  0  0  0  0  0  0
    1.9683    5.3873   -7.4547 H   0  0  0  0  0  0  0  0  0  0  0  0
   -0.5021    4.5394   -6.2030 H   0  0  0  0  0  0  0  0  0  0  0  0
    0.3313    2.5717   -5.0521 H   0  0  0  0  0  0  0  0  0  0  0  0
    0.4716    2.3083   -6.7869 H   0  0  0  0  0  0  0  0  0  0  0  0
    0.6983    5.0632   -3.7179 N   0  0  0  0  0  0  0  0  0  0  0  0
    1.1855    5.8508   -2.5921 C   0  0  0  0  0  0  0  0  0  0  0  0
    0.1302    4.2401   -3.5085 H   0  0  0  0  0  0  0  0  0  0  0  0
    2.1902    5.5255   -2.3036 H   0  0  0  0  0  0  0  0  0  0  0  0
    1.2180    6.9165   -2.8419 H   0  0  0  0  0  0  0  0  0  0  0  0
    0.5165    5.7256   -1.7358 H   0  0  0  0  0  0  0  0  0  0  0  0
   -4.6796    2.3662   -2.4149 C   0  0  0  0  0  0  0  0  0  0  0  0
   -5.2304    1.2992   -2.6320 O   0  0  0  0  0  0  0  0  0  0  0  0
   -5.4332    3.4839   -1.7186 C   0  0  0  0  0  0  0  0  0  0  0  0
   -5.5490    4.3329   -2.3962 H   0  0  0  0  0  0  0  0  0  0  0  0
   -6.4251    3.1377   -1.4144 H   0  0  0  0  0  0  0  0  0  0  0  0
   -4.8864    3.8073   -0.8299 H   0  0  0  0  0  0  0  0  0  0  0  0
   -3.3666    2.5524   -2.7954 N   0  0  0  0  0  0  0  0  0  0  0  0
   -2.5084    1.4929   -3.3450 C   0  0  2  0  0  0  0  0  0  0  0  0
   -1.0466    1.6376   -2.8745 C   0  0  0  0  0  0  0  0  0  0  0  0
   -0.6400    2.7219   -2.4652 O   0  0  0  0  0  0  0  0  0  0  0  0
   -2.5933    1.5538   -4.8741 C   0  0  0  0  0  0  0  0  0  0  0  0
   -2.9107    3.4115   -2.4920 H   0  0  0  0  0  0  0  0  0  0  0  0
   -2.8624    0.5135   -3.0040 H   0  0  0  0  0  0  0  0  0  0  0  0
   -2.2595    2.5296   -5.2406 H   0  0  0  0  0  0  0  0  0  0  0  0
   -1.9684    0.7786   -5.3278 H   0  0  0  0  0  0  0  0  0  0  0  0
   -3.6260    1.3963   -5.2016 H   0  0  0  0  0  0  0  0  0  0  0  0
   -0.1527    0.5919   -3.0277 N   0  0  0  0  0  0  0  0  0  0  0  0
    1.1493    0.4865   -2.3359 C   0  0  2  0  0  0  0  0  0  0  0  0
    1.0652    0.8241   -0.8279 C   0  0  0  0  0  0  0  0  0  0  0  0
    0.5763   -0.0101   -0.0767 O   0  0  0  0  0  0  0  0  0  0  0  0
    2.1889    1.3633   -3.0532 C   0  0  0  0  0  0  0  0  0  0  0  0
    2.4991    0.7242   -4.7475 S   0  0  0  0  0  0  0  0  0  0  0  0
   -0.5604   -0.2801   -3.3566 H   0  0  0  0  0  0  0  0  0  0  0  0
    1.4936   -0.5514   -2.3941 H   0  0  0  0  0  0  0  0  0  0  0  0
    1.8451    2.4003   -3.1014 H   0  0  0  0  0  0  0  0  0  0  0  0
    3.1337    1.3553   -2.5007 H   0  0  0  0  0  0  0  0  0  0  0  0
    1.5277    2.0146   -0.2954 N   0  0  0  0  0  0  0  0  0  0  0  0
    1.3718    2.3993    1.1136 C   0  0  2  0  0  0  0  0  0  0  0  0
    1.2717    3.9283    1.2835 C   0  0  0  0  0  0  0  0  0  0  0  0
    1.6548    4.6761    0.3915 O   0  0  0  0  0  0  0  0  0  0  0  0
    2.5684    1.8571    1.9018 C   0  0  0  0  0  0  0  0  0  0  0  0
    1.7032    2.7734   -0.9550 H   0  0  0  0  0  0  0  0  0  0  0  0
    0.4476    1.9677    1.5125 H   0  0  0  0  0  0  0  0  0  0  0  0
    3.5015    2.2835    1.5196 H   0  0  0  0  0  0  0  0  0  0  0  0
    2.4782    2.1112    2.9622 H   0  0  0  0  0  0  0  0  0  0  0  0
    2.6205    0.7675    1.8127 H   0  0  0  0  0  0  0  0  0  0  0  0
    0.7484    4.4693    2.4432 N   0  0  0  0  0  0  0  0  0  0  0  0
    0.6143    5.9033    2.6692 C   0  0  0  0  0  0  0  0  0  0  0  0
    0.4241    3.8254    3.1591 H   0  0  0  0  0  0  0  0  0  0  0  0
    1.5855    6.4003    2.5728 H   0  0  0  0  0  0  0  0  0  0  0  0
   -0.0797    6.3418    1.9444 H   0  0  0  0  0  0  0  0  0  0  0  0
    0.2294    6.0925    3.6760 H   0  0  0  0  0  0  0  0  0  0  0  0
  1  2  2  0  0  0  0
  1  3  1  0  0  0  0
  1  7  1  0  0  0  0
  3  4  1  0  0  0  0
  3  5  1  0  0  0  0
  3  6  1  0  0  0  0
  7  8  1  0  0  0  0
  7 13  1  0  0  0  0
  8  9  1  0  0  0  0
  8 11  1  0  0  0  0
  8 14  1  0  0  0  0
  9 10  2  0  0  0  0
  9 17  1  0  0  0  0
 11 12  1  0  0  0  0
 11 15  1  0  0  0  0
 11 16  1  0  0  0  0
 12 44  1  0  0  0  0
 17 18  1  0  0  0  0
 17 19  1  0  0  0  0
 18 20  1  0  0  0  0
 18 21  1  0  0  0  0
 18 22  1  0  0  0  0
 23 24  2  0  0  0  0
 23 25  1  0  0  0  0
 23 29  1  0  0  0  0
 25 26  1  0  0  0  0
 25 27  1  0  0  0  0
 25 28  1  0  0  0  0
 29 30  1  0  0  0  0
 29 34  1  0  0  0  0
 30 31  1  0  0  0  0
 30 33  1  0  0  0  0
 30 35  1  0  0  0  0
 31 32  2  0  0  0  0
 31 39  1  0  0  0  0
 33 36  1  0  0  0  0
 33 37  1  0  0  0  0
 33 38  1  0  0  0  0
 39 40  1  0  0  0  0
 39 45  1  0  0  0  0
 40 41  1  0  0  0  0
 40 43  1  0  0  0  0
 40 46  1  0  0  0  0
 41 42  2  0  0  0  0
 41 49  1  0  0  0  0
 43 44  1  0  0  0  0
 43 47  1  0  0  0  0
 43 48  1  0  0  0  0
 49 50  1  0  0  0  0
 49 54  1  0  0  0  0
 50 51  1  0  0  0  0
 50 53  1  0  0  0  0
 50 55  1  0  0  0  0
 51 52  2  0  0  0  0
 51 59  1  0  0  0  0
 53 56  1  0  0  0  0
 53 57  1  0  0  0  0
 53 58  1  0  0  0  0
 59 60  1  0  0  0  0
 59 61  1  0  0  0  0
 60 62  1  0  0  0  0
 60 63  1  0  0  0  0
 60 64  1  0  0  0  0
M  END
$$$$

  -OEChem-05262216053D

 64 63  0     1  0  0  0  0  0999 V2000
    0.9511    4.1679   -8.9277 C   0  0  0  0  0  0  0  0  0  0  0  0
   -0.2066    3.7785   -8.9262 O   0  0  0  0  0  0  0  0  0  0  0  0
    1.6682    4.4307  -10.2379 C   0  0  0  0  0  0  0  0  0  0  0  0
    2.5432    3.7814  -10.3190 H   0  0  0  0  0  0  0  0  0  0  0  0
    1.0004    4.2293  -11.0799 H   0  0  0  0  0  0  0  0  0  0  0  0
    1.9908    5.4735  -10.2849 H   0  0  0  0  0  0  0  0  0  0  0  0
    1.6066    4.3706   -7.7334 N   0  0  0  0  0  0  0  0  0  0  0  0
    0.9935    4.2134   -6.4070 C   0  0  2  0  0  0  0  0  0  0  0  0
    1.7352    5.0390   -5.3307 C   0  0  0  0  0  0  0  0  0  0  0  0
    2.7053    5.7220   -5.6458 O   0  0  0  0  0  0  0  0  0  0  0  0
    0.9541    2.7234   -6.0413 C   0  0  0  0  0  0  0  0  0  0  0  0
    2.6460    2.0204   -5.8659 S   0  0  0  0  0  0  0  0  0  0  0  0
    2.5403    4.7788   -7.7637 H   0  0  0  0  0  0  0  0  0  0  0  0
   -0.0330    4.5932   -6.4421 H   0  0  0  0  0  0  0  0  0  0  0  0
    0.4093    2.5985   -5.1038 H   0  0  0  0  0  0  0  0  0  0  0  0
    0.4095    2.1650   -6.8093 H   0  0  0  0  0  0  0  0  0  0  0  0
    1.2941    5.0726   -4.0193 N   0  0  0  0  0  0  0  0  0  0  0  0
    1.9365    5.8599   -2.9761 C   0  0  0  0  0  0  0  0  0  0  0  0
    0.5383    4.4396   -3.7472 H   0  0  0  0  0  0  0  0  0  0  0  0
    2.9039    5.4231   -2.7085 H   0  0  0  0  0  0  0  0  0  0  0  0
    2.0936    6.8912   -3.3094 H   0  0  0  0  0  0  0  0  0  0  0  0
    1.3024    5.8845   -2.0852 H   0  0  0  0  0  0  0  0  0  0  0  0
   -4.1821    3.3868   -1.1294 C   0  0  0  0  0  0  0  0  0  0  0  0
   -4.9999    2.4968   -1.3052 O   0  0  0  0  0  0  0  0  0  0  0  0
   -4.5213    4.5650   -0.2359 C   0  0  0  0  0  0  0  0  0  0  0  0
   -4.6882    5.4549   -0.8472 H   0  0  0  0  0  0  0  0  0  0  0  0
   -5.4271    4.3541    0.3388 H   0  0  0  0  0  0  0  0  0  0  0  0
   -3.7016    4.7623    0.4588 H   0  0  0  0  0  0  0  0  0  0  0  0
   -2.9497    3.3133   -1.7415 N   0  0  0  0  0  0  0  0  0  0  0  0
   -2.5100    2.1936   -2.5880 C   0  0  2  0  0  0  0  0  0  0  0  0
   -0.9739    2.0966   -2.6214 C   0  0  0  0  0  0  0  0  0  0  0  0
   -0.3008    3.1221   -2.5565 O   0  0  0  0  0  0  0  0  0  0  0  0
   -3.0539    2.3966   -4.0062 C   0  0  0  0  0  0  0  0  0  0  0  0
   -2.2303    3.9485   -1.3829 H   0  0  0  0  0  0  0  0  0  0  0  0
   -2.8977    1.2538   -2.1808 H   0  0  0  0  0  0  0  0  0  0  0  0
   -2.6878    3.3393   -4.4256 H   0  0  0  0  0  0  0  0  0  0  0  0
   -2.7386    1.5779   -4.6602 H   0  0  0  0  0  0  0  0  0  0  0  0
   -4.1482    2.4246   -3.9941 H   0  0  0  0  0  0  0  0  0  0  0  0
   -0.3139    0.8837   -2.7535 N   0  0  0  0  0  0  0  0  0  0  0  0
    1.0248    0.6414   -2.1669 C   0  0  2  0  0  0  0  0  0  0  0  0
    1.1013    1.1614   -0.7131 C   0  0  0  0  0  0  0  0  0  0  0  0
    0.7473    0.4195    0.1964 O   0  0  0  0  0  0  0  0  0  0  0  0
    2.1365    1.2394   -3.0438 C   0  0  0  0  0  0  0  0  0  0  0  0
    2.1910    0.3789   -4.6649 S   0  0  0  0  0  0  0  0  0  0  0  0
   -0.9240    0.0724   -2.8207 H   0  0  0  0  0  0  0  0  0  0  0  0
    1.1943   -0.4398   -2.1181 H   0  0  0  0  0  0  0  0  0  0  0  0
    1.9791    2.3096   -3.1976 H   0  0  0  0  0  0  0  0  0  0  0  0
    3.1060    1.1203   -2.5499 H   0  0  0  0  0  0  0  0  0  0  0  0
    1.4938    2.4559   -0.4187 N   0  0  0  0  0  0  0  0  0  0  0  0
    1.1229    3.0727    0.8628 C   0  0  2  0  0  0  0  0  0  0  0  0
   -0.4157    3.1790    1.0278 C   0  0  0  0  0  0  0  0  0  0  0  0
   -1.0562    4.1027    0.5334 O   0  0  0  0  0  0  0  0  0  0  0  0
    1.8008    4.4435    0.9431 C   0  0  0  0  0  0  0  0  0  0  0  0
    1.4575    3.0737   -1.2308 H   0  0  0  0  0  0  0  0  0  0  0  0
    1.5079    2.4611    1.6856 H   0  0  0  0  0  0  0  0  0  0  0  0
    1.4445    5.0990    0.1433 H   0  0  0  0  0  0  0  0  0  0  0  0
    1.5791    4.9191    1.9036 H   0  0  0  0  0  0  0  0  0  0  0  0
    2.8861    4.3374    0.8509 H   0  0  0  0  0  0  0  0  0  0  0  0
   -1.0847    2.1581    1.6756 N   0  0  0  0  0  0  0  0  0  0  0  0
   -2.5358    2.0531    1.7494 C   0  0  0  0  0  0  0  0  0  0  0  0
   -0.5416    1.3009    1.7910 H   0  0  0  0  0  0  0  0  0  0  0  0
   -2.9849    3.0187    2.0027 H   0  0  0  0  0  0  0  0  0  0  0  0
   -2.9422    1.7097    0.7933 H   0  0  0  0  0  0  0  0  0  0  0  0
   -2.8203    1.3353    2.5247 H   0  0  0  0  0  0  0  0  0  0  0  0
  1  2  2  0  0  0  0
  1  3  1  0  0  0  0
  1  7  1  0  0  0  0
  3  4  1  0  0  0  0
  3  5  1  0  0  0  0
  3  6  1  0  0  0  0
  7  8  1  0  0  0  0
  7 13  1  0  0  0  0
  8  9  1  0  0  0  0
  8 11  1  0  0  0  0
  8 14  1  0  0  0  0
  9 10  2  0  0  0  0
  9 17  1  0  0  0  0
 11 12  1  0  0  0  0
 11 15  1  0  0  0  0
 11 16  1  0  0  0  0
 12 44  1  0  0  0  0
 17 18  1  0  0  0  0
 17 19  1  0  0  0  0
 18 20  1  0  0  0  0
 18 21  1  0  0  0  0
 18 22  1  0  0  0  0
 23 24  2  0  0  0  0
 23 25  1  0  0  0  0
 23 29  1  0  0  0  0
 25 26  1  0  0  0  0
 25 27  1  0  0  0  0
 25 28  1  0  0  0  0
 29 30  1  0  0  0  0
 29 34  1  0  0  0  0
 30 31  1  0  0  0  0
 30 33  1  0  0  0  0
 30 35  1  0  0  0  0
 31 32  2  0  0  0  0
 31 39  1  0  0  0  0
 33 36  1  0  0  0  0
 33 37  1  0  0  0  0
 33 38  1  0  0  0  0
 39 40  1  0  0  0  0
 39 45  1  0  0  0  0
 40 41  1  0  0  0  0
 40 43  1  0  0  0  0
 40 46  1  0  0  0  0
 41 42  2  0  0  0  0
 41 49  1  0  0  0  0
 43 44  1  0  0  0  0
 43 47  1  0  0  0  0
 43 48  1  0  0  0  0
 49 50  1  0  0  0  0
 49 54  1  0  0  0  0
 50 51  1  0  0  0  0
 50 53  1  0  0  0  0
 50 55  1  0  0  0  0
 51 52  2  0  0  0  0
 51 59  1  0  0  0  0
 53 56  1  0  0  0  0
 53 57  1  0  0  0  0
 53 58  1  0  0  0  0
 59 60  1  0  0  0  0
 59 61  1  0  0  0  0
 60 62  1  0  0  0  0
 60 63  1  0  0  0  0
 60 64  1  0  0  0  0
M  END
$$$$

  -OEChem-05262216053D

 64 63  0     1  0  0  0  0  0999 V2000
    1.1935    4.8013   -8.6819 C   0  0  0  0  0  0  0  0  0  0  0  0
    0.0700    4.3671   -8.8861 O   0  0  0  0  0  0  0  0  0  0  0  0
    2.0270    5.3298   -9.8336 C   0  0  0  0  0  0  0  0  0  0  0  0
    2.9762    4.7912   -9.8849 H   0  0  0  0  0  0  0  0  0  0  0  0
    1.4932    5.1933  -10.7782 H   0  0  0  0  0  0  0  0  0  0  0  0
    2.2267    6.3946   -9.6914 H   0  0  0  0  0  0  0  0  0  0  0  0
    1.7001    4.8173   -7.4010 N   0  0  0  0  0  0  0  0  0  0  0  0
    0.9528    4.4051   -6.2045 C   0  0  2  0  0  0  0  0  0  0  0  0
    1.4995    5.0764   -4.9227 C   0  0  0  0  0  0  0  0  0  0  0  0
    2.4557    5.8431   -4.9966 O   0  0  0  0  0  0  0  0  0  0  0  0
    0.9766    2.8736   -6.1010 C   0  0  0  0  0  0  0  0  0  0  0  0
    2.6703    2.2275   -5.7810 S   0  0  0  0  0  0  0  0  0  0  0  0
    2.6027    5.2661   -7.2491 H   0  0  0  0  0  0  0  0  0  0  0  0
   -0.0876    4.7309   -6.3068 H   0  0  0  0  0  0  0  0  0  0  0  0
    0.3101    2.5612   -5.2954 H   0  0  0  0  0  0  0  0  0  0  0  0
    0.5942    2.4320   -7.0263 H   0  0  0  0  0  0  0  0  0  0  0  0
    0.8899    4.8871   -3.6948 N   0  0  0  0  0  0  0  0  0  0  0  0
    1.3490    5.5122   -2.4612 C   0  0  0  0  0  0  0  0  0  0  0  0
    0.1315    4.2030   -3.6324 H   0  0  0  0  0  0  0  0  0  0  0  0
    2.3500    5.1549   -2.1985 H   0  0  0  0  0  0  0  0  0  0  0  0
    1.3790    6.6016   -2.5692 H   0  0  0  0  0  0  0  0  0  0  0  0
    0.6669    5.2682   -1.6412 H   0  0  0  0  0  0  0  0  0  0  0  0
   -3.8841    2.0552   -1.1701 C   0  0  0  0  0  0  0  0  0  0  0  0
   -3.6182    0.9242   -0.7913 O   0  0  0  0  0  0  0  0  0  0  0  0
   -4.4660    3.0681   -0.2025 C   0  0  0  0  0  0  0  0  0  0  0  0
   -5.5212    3.2361   -0.4303 H   0  0  0  0  0  0  0  0  0  0  0  0
   -4.3773    2.7013    0.8237 H   0  0  0  0  0  0  0  0  0  0  0  0
   -3.9288    4.0162   -0.2838 H   0  0  0  0  0  0  0  0  0  0  0  0
   -3.6722    2.4001   -2.4897 N   0  0  0  0  0  0  0  0  0  0  0  0
   -2.9208    1.5266   -3.4009 C   0  0  2  0  0  0  0  0  0  0  0  0
   -1.4052    1.6190   -3.1353 C   0  0  0  0  0  0  0  0  0  0  0  0
   -0.8875    2.7171   -2.9563 O   0  0  0  0  0  0  0  0  0  0  0  0
   -3.2485    1.9359   -4.8389 C   0  0  0  0  0  0  0  0  0  0  0  0
   -3.6577    3.3992   -2.6784 H   0  0  0  0  0  0  0  0  0  0  0  0
   -3.2349    0.4867   -3.2595 H   0  0  0  0  0  0  0  0  0  0  0  0
   -2.9466    2.9717   -5.0241 H   0  0  0  0  0  0  0  0  0  0  0  0
   -2.7228    1.2893   -5.5486 H   0  0  0  0  0  0  0  0  0  0  0  0
   -4.3241    1.8481   -5.0231 H   0  0  0  0  0  0  0  0  0  0  0  0
   -0.5916    0.5017   -3.2096 N   0  0  0  0  0  0  0  0  0  0  0  0
    0.6863    0.3486   -2.4762 C   0  0  2  0  0  0  0  0  0  0  0  0
    0.6124    0.7746   -0.9896 C   0  0  0  0  0  0  0  0  0  0  0  0
    0.7301   -0.0916   -0.1332 O   0  0  0  0  0  0  0  0  0  0  0  0
    1.8107    1.1335   -3.1695 C   0  0  0  0  0  0  0  0  0  0  0  0
    2.1600    0.4396   -4.8335 S   0  0  0  0  0  0  0  0  0  0  0  0
   -1.0987   -0.3642   -3.3747 H   0  0  0  0  0  0  0  0  0  0  0  0
    0.9637   -0.7111   -2.4853 H   0  0  0  0  0  0  0  0  0  0  0  0
    1.5487    2.1900   -3.2519 H   0  0  0  0  0  0  0  0  0  0  0  0
    2.7256    1.0752   -2.5711 H   0  0  0  0  0  0  0  0  0  0  0  0
    0.5727    2.1031   -0.6052 N   0  0  0  0  0  0  0  0  0  0  0  0
    0.4147    2.5458    0.7878 C   0  0  2  0  0  0  0  0  0  0  0  0
   -0.7251    3.5718    0.9691 C   0  0  0  0  0  0  0  0  0  0  0  0
   -1.2327    4.1335    0.0045 O   0  0  0  0  0  0  0  0  0  0  0  0
    1.7537    3.1413    1.2279 C   0  0  0  0  0  0  0  0  0  0  0  0
    0.2158    2.7385   -1.3265 H   0  0  0  0  0  0  0  0  0  0  0  0
    0.1753    1.6952    1.4343 H   0  0  0  0  0  0  0  0  0  0  0  0
    2.0092    4.0074    0.6093 H   0  0  0  0  0  0  0  0  0  0  0  0
    1.7103    3.4593    2.2736 H   0  0  0  0  0  0  0  0  0  0  0  0
    2.5479    2.3946    1.1279 H   0  0  0  0  0  0  0  0  0  0  0  0
   -1.1639    3.8975    2.2397 N   0  0  0  0  0  0  0  0  0  0  0  0
   -2.1763    4.9112    2.5103 C   0  0  0  0  0  0  0  0  0  0  0  0
   -0.7369    3.4091    3.0221 H   0  0  0  0  0  0  0  0  0  0  0  0
   -1.8779    5.8750    2.0838 H   0  0  0  0  0  0  0  0  0  0  0  0
   -3.1393    4.6175    2.0809 H   0  0  0  0  0  0  0  0  0  0  0  0
   -2.3039    5.0378    3.5898 H   0  0  0  0  0  0  0  0  0  0  0  0
  1  2  2  0  0  0  0
  1  3  1  0  0  0  0
  1  7  1  0  0  0  0
  3  4  1  0  0  0  0
  3  5  1  0  0  0  0
  3  6  1  0  0  0  0
  7  8  1  0  0  0  0
  7 13  1  0  0  0  0
  8  9  1  0  0  0  0
  8 11  1  0  0  0  0
  8 14  1  0  0  0  0
  9 10  2  0  0  0  0
  9 17  1  0  0  0  0
 11 12  1  0  0  0  0
 11 15  1  0  0  0  0
 11 16  1  0  0  0  0
 12 44  1  0  0  0  0
 17 18  1  0  0  0  0
 17 19  1  0  0  0  0
 18 20  1  0  0  0  0
 18 21  1  0  0  0  0
 18 22  1  0  0  0  0
 23 24  2  0  0  0  0
 23 25  1  0  0  0  0
 23 29  1  0  0  0  0
 25 26  1  0  0  0  0
 25 27  1  0  0  0  0
 25 28  1  0  0  0  0
 29 30  1  0  0  0  0
 29 34  1  0  0  0  0
 30 31  1  0  0  0  0
 30 33  1  0  0  0  0
 30 35  1  0  0  0  0
 31 32  2  0  0  0  0
 31 39  1  0  0  0  0
 33 36  1  0  0  0  0
 33 37  1  0  0  0  0
 33 38  1  0  0  0  0
 39 40  1  0  0  0  0
 39 45  1  0  0  0  0
 40 41  1  0  0  0  0
 40 43  1  0  0  0  0
 40 46  1  0  0  0  0
 41 42  2  0  0  0  0
 41 49  1  0  0  0  0
 43 44  1  0  0  0  0
 43 47  1  0  0  0  0
 43 48  1  0  0  0  0
 49 50  1  0  0  0  0
 49 54  1  0  0  0  0
 50 51  1  0  0  0  0
 50 53  1  0  0  0  0
 50 55  1  0  0  0  0
 51 52  2  0  0  0  0
 51 59  1  0  0  0  0
 53 56  1  0  0  0  0
 53 57  1  0  0  0  0
 53 58  1  0  0  0  0
 59 60  1  0  0  0  0
 59 61  1  0  0  0  0
 60 62  1  0  0  0  0
 60 63  1  0  0  0  0
 60 64  1  0  0  0  0
M  END
$$$$

  -OEChem-05262216053D

 64 63  0     1  0  0  0  0  0999 V2000
    1.5166    4.3058   -9.0313 C   0  0  0  0  0  0  0  0  0  0  0  0
    0.3025    4.2270   -9.1384 O   0  0  0  0  0  0  0  0  0  0  0  0
    2.3812    4.4727  -10.2663 C   0  0  0  0  0  0  0  0  0  0  0  0
    3.0545    3.6180  -10.3669 H   0  0  0  0  0  0  0  0  0  0  0  0
    1.7537    4.5354  -11.1597 H   0  0  0  0  0  0  0  0  0  0  0  0
    2.9731    5.3877  -10.1871 H   0  0  0  0  0  0  0  0  0  0  0  0
    2.1006    4.2530   -7.7844 N   0  0  0  0  0  0  0  0  0  0  0  0
    1.3530    4.1963   -6.5200 C   0  0  2  0  0  0  0  0  0  0  0  0
    2.1407    4.8307   -5.3504 C   0  0  0  0  0  0  0  0  0  0  0  0
    3.2620    5.2916   -5.5450 O   0  0  0  0  0  0  0  0  0  0  0  0
    0.9822    2.7369   -6.2233 C   0  0  0  0  0  0  0  0  0  0  0  0
    2.4575    1.7183   -5.8078 S   0  0  0  0  0  0  0  0  0  0  0  0
    3.1024    4.4289   -7.7199 H   0  0  0  0  0  0  0  0  0  0  0  0
    0.4299    4.7764   -6.6244 H   0  0  0  0  0  0  0  0  0  0  0  0
    0.2810    2.7110   -5.3876 H   0  0  0  0  0  0  0  0  0  0  0  0
    0.4724    2.2991   -7.0871 H   0  0  0  0  0  0  0  0  0  0  0  0
    1.5903    4.9290   -4.0845 N   0  0  0  0  0  0  0  0  0  0  0  0
    2.3099    5.4719   -2.9402 C   0  0  0  0  0  0  0  0  0  0  0  0
    0.6816    4.4871   -3.9228 H   0  0  0  0  0  0  0  0  0  0  0  0
    3.1867    4.8566   -2.7130 H   0  0  0  0  0  0  0  0  0  0  0  0
    2.6399    6.4961   -3.1437 H   0  0  0  0  0  0  0  0  0  0  0  0
    1.6593    5.4889   -2.0609 H   0  0  0  0  0  0  0  0  0  0  0  0
   -3.8775    0.9333   -1.6625 C   0  0  0  0  0  0  0  0  0  0  0  0
   -3.6707    0.1408   -2.5711 O   0  0  0  0  0  0  0  0  0  0  0  0
   -4.2062    0.4316   -0.2705 C   0  0  0  0  0  0  0  0  0  0  0  0
   -5.0354    1.0069    0.1485 H   0  0  0  0  0  0  0  0  0  0  0  0
   -4.4902   -0.6236   -0.3066 H   0  0  0  0  0  0  0  0  0  0  0  0
   -3.3319    0.5410    0.3758 H   0  0  0  0  0  0  0  0  0  0  0  0
   -3.6654    2.2778   -1.8819 N   0  0  0  0  0  0  0  0  0  0  0  0
   -3.0764    2.8082   -3.1197 C   0  0  2  0  0  0  0  0  0  0  0  0
   -1.5486    2.5797   -3.1300 C   0  0  0  0  0  0  0  0  0  0  0  0
   -0.7552    3.5172   -3.0809 O   0  0  0  0  0  0  0  0  0  0  0  0
   -3.4624    4.2893   -3.2110 C   0  0  0  0  0  0  0  0  0  0  0  0
   -3.5405    2.8381   -1.0314 H   0  0  0  0  0  0  0  0  0  0  0  0
   -3.4988    2.2939   -3.9901 H   0  0  0  0  0  0  0  0  0  0  0  0
   -3.0777    4.8424   -2.3474 H   0  0  0  0  0  0  0  0  0  0  0  0
   -3.0505    4.7350   -4.1220 H   0  0  0  0  0  0  0  0  0  0  0  0
   -4.5511    4.3961   -3.2353 H   0  0  0  0  0  0  0  0  0  0  0  0
   -1.0667    1.2837   -3.0825 N   0  0  0  0  0  0  0  0  0  0  0  0
    0.1163    0.8388   -2.3112 C   0  0  2  0  0  0  0  0  0  0  0  0
    0.1811    1.3847   -0.8636 C   0  0  0  0  0  0  0  0  0  0  0  0
    0.1343    0.5997    0.0750 O   0  0  0  0  0  0  0  0  0  0  0  0
    1.4106    1.1979   -3.0543 C   0  0  0  0  0  0  0  0  0  0  0  0
    1.5184    0.2694   -4.6371 S   0  0  0  0  0  0  0  0  0  0  0  0
   -1.8264    0.5954   -3.1300 H   0  0  0  0  0  0  0  0  0  0  0  0
    0.0731   -0.2524   -2.2278 H   0  0  0  0  0  0  0  0  0  0  0  0
    1.4541    2.2719   -3.2462 H   0  0  0  0  0  0  0  0  0  0  0  0
    2.2784    0.9414   -2.4381 H   0  0  0  0  0  0  0  0  0  0  0  0
    0.2263    2.7376   -0.5811 N   0  0  0  0  0  0  0  0  0  0  0  0
   -0.0163    3.2701    0.7656 C   0  0  2  0  0  0  0  0  0  0  0  0
   -1.4940    3.1560    1.2078 C   0  0  0  0  0  0  0  0  0  0  0  0
   -2.4104    3.3792    0.4209 O   0  0  0  0  0  0  0  0  0  0  0  0
    0.4256    4.7347    0.7749 C   0  0  0  0  0  0  0  0  0  0  0  0
    0.0196    3.3449   -1.3781 H   0  0  0  0  0  0  0  0  0  0  0  0
    0.5993    2.7195    1.4846 H   0  0  0  0  0  0  0  0  0  0  0  0
   -0.1671    5.3190    0.0631 H   0  0  0  0  0  0  0  0  0  0  0  0
    0.2944    5.1658    1.7725 H   0  0  0  0  0  0  0  0  0  0  0  0
    1.4821    4.8151    0.5003 H   0  0  0  0  0  0  0  0  0  0  0  0
   -1.8024    2.8320    2.5159 N   0  0  0  0  0  0  0  0  0  0  0  0
   -3.1655    2.6686    3.0068 C   0  0  0  0  0  0  0  0  0  0  0  0
   -1.0322    2.5487    3.1157 H   0  0  0  0  0  0  0  0  0  0  0  0
   -3.7566    3.5696    2.8108 H   0  0  0  0  0  0  0  0  0  0  0  0
   -3.6490    1.8158    2.5201 H   0  0  0  0  0  0  0  0  0  0  0  0
   -3.1585    2.4922    4.0869 H   0  0  0  0  0  0  0  0  0  0  0  0
  1  2  2  0  0  0  0
  1  3  1  0  0  0  0
  1  7  1  0  0  0  0
  3  4  1  0  0  0  0
  3  5  1  0  0  0  0
  3  6  1  0  0  0  0
  7  8  1  0  0  0  0
  7 13  1  0  0  0  0
  8  9  1  0  0  0  0
  8 11  1  0  0  0  0
  8 14  1  0  0  0  0
  9 10  2  0  0  0  0
  9 17  1  0  0  0  0
 11 12  1  0  0  0  0
 11 15  1  0  0  0  0
 11 16  1  0  0  0  0
 12 44  1  0  0  0  0
 17 18  1  0  0  0  0
 17 19  1  0  0  0  0
 18 20  1  0  0  0  0
 18 21  1  0  0  0  0
 18 22  1  0  0  0  0
 23 24  2  0  0  0  0
 23 25  1  0  0  0  0
 23 29  1  0  0  0  0
 25 26  1  0  0  0  0
 25 27  1  0  0  0  0
 25 28  1  0  0  0  0
 29 30  1  0  0  0  0
 29 34  1  0  0  0  0
 30 31  1  0  0  0  0
 30 33  1  0  0  0  0
 30 35  1  0  0  0  0
 31 32  2  0  0  0  0
 31 39  1  0  0  0  0
 33 36  1  0  0  0  0
 33 37  1  0  0  0  0
 33 38  1  0  0  0  0
 39 40  1  0  0  0  0
 39 45  1  0  0  0  0
 40 41  1  0  0  0  0
 40 43  1  0  0  0  0
 40 46  1  0  0  0  0
 41 42  2  0  0  0  0
 41 49  1  0  0  0  0
 43 44  1  0  0  0  0
 43 47  1  0  0  0  0
 43 48  1  0  0  0  0
 49 50  1  0  0  0  0
 49 54  1  0  0  0  0
 50 51  1  0  0  0  0
 50 53  1  0  0  0  0
 50 55  1  0  0  0  0
 51 52  2  0  0  0  0
 51 59  1  0  0  0  0
 53 56  1  0  0  0  0
 53 57  1  0  0  0  0
 53 58  1  0  0  0  0
 59 60  1  0  0  0  0
 59 61  1  0  0  0  0
 60 62  1  0  0  0  0
 60 63  1  0  0  0  0
 60 64  1  0  0  0  0
M  END
$$$$

  -OEChem-05262216053D

 64 63  0     1  0  0  0  0  0999 V2000
    1.4820    4.4271   -8.9550 C   0  0  0  0  0  0  0  0  0  0  0  0
    0.2733    4.3129   -9.0883 O   0  0  0  0  0  0  0  0  0  0  0  0
    2.3675    4.6326  -10.1690 C   0  0  0  0  0  0  0  0  0  0  0  0
    3.0611    3.7941  -10.2679 H   0  0  0  0  0  0  0  0  0  0  0  0
    1.7579    4.6960  -11.0746 H   0  0  0  0  0  0  0  0  0  0  0  0
    2.9373    5.5588  -10.0627 H   0  0  0  0  0  0  0  0  0  0  0  0
    2.0416    4.3787   -7.6972 N   0  0  0  0  0  0  0  0  0  0  0  0
    1.2739    4.2791   -6.4480 C   0  0  2  0  0  0  0  0  0  0  0  0
    2.0363    4.8945   -5.2521 C   0  0  0  0  0  0  0  0  0  0  0  0
    3.1514    5.3800   -5.4200 O   0  0  0  0  0  0  0  0  0  0  0  0
    0.9216    2.8071   -6.1918 C   0  0  0  0  0  0  0  0  0  0  0  0
    2.4134    1.7960   -5.8172 S   0  0  0  0  0  0  0  0  0  0  0  0
    3.0390    4.5704   -7.6111 H   0  0  0  0  0  0  0  0  0  0  0  0
    0.3434    4.8468   -6.5536 H   0  0  0  0  0  0  0  0  0  0  0  0
    0.2268    2.7478   -5.3522 H   0  0  0  0  0  0  0  0  0  0  0  0
    0.4107    2.3874   -7.0644 H   0  0  0  0  0  0  0  0  0  0  0  0
    1.4744    4.9369   -3.9886 N   0  0  0  0  0  0  0  0  0  0  0  0
    2.1885    5.4124   -2.8118 C   0  0  0  0  0  0  0  0  0  0  0  0
    0.5748    4.4697   -3.8512 H   0  0  0  0  0  0  0  0  0  0  0  0
    3.0715    4.7929   -2.6246 H   0  0  0  0  0  0  0  0  0  0  0  0
    2.5073    6.4509   -2.9476 H   0  0  0  0  0  0  0  0  0  0  0  0
    1.5383    5.3638   -1.9333 H   0  0  0  0  0  0  0  0  0  0  0  0
   -3.9566    0.6730   -1.8670 C   0  0  0  0  0  0  0  0  0  0  0  0
   -3.6533   -0.0517   -2.8042 O   0  0  0  0  0  0  0  0  0  0  0  0
   -4.3964    0.0724   -0.5467 C   0  0  0  0  0  0  0  0  0  0  0  0
   -3.5730    0.1134    0.1709 H   0  0  0  0  0  0  0  0  0  0  0  0
   -5.2460    0.6314   -0.1470 H   0  0  0  0  0  0  0  0  0  0  0  0
   -4.6948   -0.9701   -0.6881 H   0  0  0  0  0  0  0  0  0  0  0  0
   -3.7610    2.0328   -1.9784 N   0  0  0  0  0  0  0  0  0  0  0  0
   -3.1269    2.6685   -3.1429 C   0  0  2  0  0  0  0  0  0  0  0  0
   -1.5912    2.4963   -3.0965 C   0  0  0  0  0  0  0  0  0  0  0  0
   -0.8372    3.4632   -3.0226 O   0  0  0  0  0  0  0  0  0  0  0  0
   -3.5672    4.1375   -3.1500 C   0  0  0  0  0  0  0  0  0  0  0  0
   -3.7140    2.5359   -1.0858 H   0  0  0  0  0  0  0  0  0  0  0  0
   -3.4863    2.2033   -4.0674 H   0  0  0  0  0  0  0  0  0  0  0  0
   -3.2409    4.6410   -2.2337 H   0  0  0  0  0  0  0  0  0  0  0  0
   -3.1359    4.6620   -4.0086 H   0  0  0  0  0  0  0  0  0  0  0  0
   -4.6574    4.2056   -3.2164 H   0  0  0  0  0  0  0  0  0  0  0  0
   -1.0619    1.2195   -3.0418 N   0  0  0  0  0  0  0  0  0  0  0  0
    0.1486    0.7852   -2.3033 C   0  0  2  0  0  0  0  0  0  0  0  0
    0.2735    1.3121   -0.8515 C   0  0  0  0  0  0  0  0  0  0  0  0
    0.4862    0.5149    0.0526 O   0  0  0  0  0  0  0  0  0  0  0  0
    1.4111    1.1911   -3.0752 C   0  0  0  0  0  0  0  0  0  0  0  0
    1.5051    0.3012   -4.6808 S   0  0  0  0  0  0  0  0  0  0  0  0
   -1.7895    0.5018   -3.1330 H   0  0  0  0  0  0  0  0  0  0  0  0
    0.1304   -0.3077   -2.2378 H   0  0  0  0  0  0  0  0  0  0  0  0
    1.4220    2.2703   -3.2412 H   0  0  0  0  0  0  0  0  0  0  0  0
    2.3023    0.9423   -2.4892 H   0  0  0  0  0  0  0  0  0  0  0  0
    0.0276    2.6288   -0.5095 N   0  0  0  0  0  0  0  0  0  0  0  0
   -0.2606    3.0682    0.8600 C   0  0  2  0  0  0  0  0  0  0  0  0
   -1.7183    2.7790    1.2847 C   0  0  0  0  0  0  0  0  0  0  0  0
   -2.6490    2.9155    0.4937 O   0  0  0  0  0  0  0  0  0  0  0  0
    0.0246    4.5689    0.9342 C   0  0  0  0  0  0  0  0  0  0  0  0
   -0.2882    3.2250   -1.2775 H   0  0  0  0  0  0  0  0  0  0  0  0
    0.4108    2.5562    1.5575 H   0  0  0  0  0  0  0  0  0  0  0  0
   -0.6260    5.1178    0.2453 H   0  0  0  0  0  0  0  0  0  0  0  0
   -0.1505    4.9407    1.9485 H   0  0  0  0  0  0  0  0  0  0  0  0
    1.0666    4.7703    0.6671 H   0  0  0  0  0  0  0  0  0  0  0  0
   -1.9975    2.4053    2.5854 N   0  0  0  0  0  0  0  0  0  0  0  0
   -3.3411    2.1129    3.0700 C   0  0  0  0  0  0  0  0  0  0  0  0
   -1.2060    2.2216    3.1965 H   0  0  0  0  0  0  0  0  0  0  0  0
   -3.9957    2.9802    2.9334 H   0  0  0  0  0  0  0  0  0  0  0  0
   -3.7669    1.2604    2.5309 H   0  0  0  0  0  0  0  0  0  0  0  0
   -3.3130    1.8687    4.1365 H   0  0  0  0  0  0  0  0  0  0  0  0
  1  2  2  0  0  0  0
  1  3  1  0  0  0  0
  1  7  1  0  0  0  0
  3  4  1  0  0  0  0
  3  5  1  0  0  0  0
  3  6  1  0  0  0  0
  7  8  1  0  0  0  0
  7 13  1  0  0  0  0
  8  9  1  0  0  0  0
  8 11  1  0  0  0  0
  8 14  1  0  0  0  0
  9 10  2  0  0  0  0
  9 17  1  0  0  0  0
 11 12  1  0  0  0  0
 11 15  1  0  0  0  0
 11 16  1  0  0  0  0
 12 44  1  0  0  0  0
 17 18  1  0  0  0  0
 17 19  1  0  0  0  0
 18 20  1  0  0  0  0
 18 21  1  0  0  0  0
 18 22  1  0  0  0  0
 23 24  2  0  0  0  0
 23 25  1  0  0  0  0
 23 29  1  0  0  0  0
 25 26  1  0  0  0  0
 25 27  1  0  0  0  0
 25 28  1  0  0  0  0
 29 30  1  0  0  0  0
 29 34  1  0  0  0  0
 30 31  1  0  0  0  0
 30 33  1  0  0  0  0
 30 35  1  0  0  0  0
 31 32  2  0  0  0  0
 31 39  1  0  0  0  0
 33 36  1  0  0  0  0
 33 37  1  0  0  0  0
 33 38  1  0  0  0  0
 39 40  1  0  0  0  0
 39 45  1  0  0  0  0
 40 41  1  0  0  0  0
 40 43  1  0  0  0  0
 40 46  1  0  0  0  0
 41 42  2  0  0  0  0
 41 49  1  0  0  0  0
 43 44  1  0  0  0  0
 43 47  1  0  0  0  0
 43 48  1  0  0  0  0
 49 50  1  0  0  0  0
 49 54  1  0  0  0  0
 50 51  1  0  0  0  0
 50 53  1  0  0  0  0
 50 55  1  0  0  0  0
 51 52  2  0  0  0  0
 51 59  1  0  0  0  0
 53 56  1  0  0  0  0
 53 57  1  0  0  0  0
 53 58  1  0  0  0  0
 59 60  1  0  0  0  0
 59 61  1  0  0  0  0
 60 62  1  0  0  0  0
 60 63  1  0  0  0  0
 60 64  1  0  0  0  0
M  END
$$$$

  -OEChem-05262216053D

 64 63  0     1  0  0  0  0  0999 V2000
    0.8827    4.1394   -8.7311 C   0  0  0  0  0  0  0  0  0  0  0  0
   -0.2790    3.7601   -8.7455 O   0  0  0  0  0  0  0  0  0  0  0  0
    1.5835    4.5082  -10.0249 C   0  0  0  0  0  0  0  0  0  0  0  0
    2.4694    3.8831  -10.1601 H   0  0  0  0  0  0  0  0  0  0  0  0
    0.9121    4.3561  -10.8745 H   0  0  0  0  0  0  0  0  0  0  0  0
    1.8871    5.5576   -9.9996 H   0  0  0  0  0  0  0  0  0  0  0  0
    1.5516    4.2435   -7.5314 N   0  0  0  0  0  0  0  0  0  0  0  0
    0.9253    4.0437   -6.2176 C   0  0  2  0  0  0  0  0  0  0  0  0
    1.6262    4.8612   -5.1086 C   0  0  0  0  0  0  0  0  0  0  0  0
    2.5881    5.5693   -5.3907 O   0  0  0  0  0  0  0  0  0  0  0  0
    0.9051    2.5433   -5.8966 C   0  0  0  0  0  0  0  0  0  0  0  0
    2.5762    1.8798   -5.5086 S   0  0  0  0  0  0  0  0  0  0  0  0
    2.4788    4.6677   -7.5388 H   0  0  0  0  0  0  0  0  0  0  0  0
   -0.1075    4.4041   -6.2588 H   0  0  0  0  0  0  0  0  0  0  0  0
    0.2539    2.3767   -5.0396 H   0  0  0  0  0  0  0  0  0  0  0  0
    0.4821    1.9873   -6.7393 H   0  0  0  0  0  0  0  0  0  0  0  0
    1.1507    4.8664   -3.8085 N   0  0  0  0  0  0  0  0  0  0  0  0
    1.7901    5.6080   -2.7290 C   0  0  0  0  0  0  0  0  0  0  0  0
    0.3749    4.2424   -3.5755 H   0  0  0  0  0  0  0  0  0  0  0  0
    2.7979    5.2217   -2.5430 H   0  0  0  0  0  0  0  0  0  0  0  0
    1.8605    6.6715   -2.9817 H   0  0  0  0  0  0  0  0  0  0  0  0
    1.2061    5.5117   -1.8091 H   0  0  0  0  0  0  0  0  0  0  0  0
   -3.9943    1.9890   -1.2129 C   0  0  0  0  0  0  0  0  0  0  0  0
   -3.4276    0.9402   -0.9389 O   0  0  0  0  0  0  0  0  0  0  0  0
   -4.8161    2.7158   -0.1660 C   0  0  0  0  0  0  0  0  0  0  0  0
   -5.7587    3.0605   -0.5981 H   0  0  0  0  0  0  0  0  0  0  0  0
   -5.0389    2.0459    0.6689 H   0  0  0  0  0  0  0  0  0  0  0  0
   -4.2599    3.5770    0.2120 H   0  0  0  0  0  0  0  0  0  0  0  0
   -3.8114    2.5403   -2.4652 N   0  0  0  0  0  0  0  0  0  0  0  0
   -2.8996    1.9555   -3.4577 C   0  0  2  0  0  0  0  0  0  0  0  0
   -1.4365    1.9790   -2.9644 C   0  0  0  0  0  0  0  0  0  0  0  0
   -0.8905    3.0511   -2.7182 O   0  0  0  0  0  0  0  0  0  0  0  0
   -3.0462    2.7266   -4.7735 C   0  0  0  0  0  0  0  0  0  0  0  0
   -4.1769    3.4757   -2.6230 H   0  0  0  0  0  0  0  0  0  0  0  0
   -3.1877    0.9141   -3.6377 H   0  0  0  0  0  0  0  0  0  0  0  0
   -2.7752    3.7786   -4.6384 H   0  0  0  0  0  0  0  0  0  0  0  0
   -2.3947    2.2981   -5.5422 H   0  0  0  0  0  0  0  0  0  0  0  0
   -4.0792    2.6752   -5.1316 H   0  0  0  0  0  0  0  0  0  0  0  0
   -0.7271    0.7977   -2.8397 N   0  0  0  0  0  0  0  0  0  0  0  0
    0.4839    0.5474   -2.0183 C   0  0  2  0  0  0  0  0  0  0  0  0
    0.4891    1.0835   -0.5629 C   0  0  0  0  0  0  0  0  0  0  0  0
    1.1144    0.4579    0.2800 O   0  0  0  0  0  0  0  0  0  0  0  0
    1.7024    1.1380   -2.7432 C   0  0  0  0  0  0  0  0  0  0  0  0
    2.0008    0.2558   -4.3294 S   0  0  0  0  0  0  0  0  0  0  0  0
   -1.2834   -0.0306   -3.0390 H   0  0  0  0  0  0  0  0  0  0  0  0
    0.6241   -0.5362   -1.9401 H   0  0  0  0  0  0  0  0  0  0  0  0
    1.5557    2.2058   -2.9236 H   0  0  0  0  0  0  0  0  0  0  0  0
    2.5951    1.0348   -2.1169 H   0  0  0  0  0  0  0  0  0  0  0  0
   -0.1970    2.2142   -0.1607 N   0  0  0  0  0  0  0  0  0  0  0  0
   -0.1571    2.7803    1.1969 C   0  0  2  0  0  0  0  0  0  0  0  0
   -1.2134    2.1913    2.1606 C   0  0  0  0  0  0  0  0  0  0  0  0
   -1.2877    2.6090    3.3093 O   0  0  0  0  0  0  0  0  0  0  0  0
   -0.3369    4.2943    1.0517 C   0  0  0  0  0  0  0  0  0  0  0  0
   -0.6028    2.7757   -0.9105 H   0  0  0  0  0  0  0  0  0  0  0  0
    0.8248    2.5928    1.6456 H   0  0  0  0  0  0  0  0  0  0  0  0
   -1.3170    4.5263    0.6235 H   0  0  0  0  0  0  0  0  0  0  0  0
   -0.2606    4.7818    2.0290 H   0  0  0  0  0  0  0  0  0  0  0  0
    0.4391    4.7087    0.4015 H   0  0  0  0  0  0  0  0  0  0  0  0
   -2.1454    1.2633    1.7331 N   0  0  0  0  0  0  0  0  0  0  0  0
   -3.1384    0.6542    2.6072 C   0  0  0  0  0  0  0  0  0  0  0  0
   -2.1006    0.9648    0.7584 H   0  0  0  0  0  0  0  0  0  0  0  0
   -3.8066    1.4170    3.0198 H   0  0  0  0  0  0  0  0  0  0  0  0
   -3.7401   -0.0677    2.0463 H   0  0  0  0  0  0  0  0  0  0  0  0
   -2.6495    0.1282    3.4337 H   0  0  0  0  0  0  0  0  0  0  0  0
  1  2  2  0  0  0  0
  1  3  1  0  0  0  0
  1  7  1  0  0  0  0
  3  4  1  0  0  0  0
  3  5  1  0  0  0  0
  3  6  1  0  0  0  0
  7  8  1  0  0  0  0
  7 13  1  0  0  0  0
  8  9  1  0  0  0  0
  8 11  1  0  0  0  0
  8 14  1  0  0  0  0
  9 10  2  0  0  0  0
  9 17  1  0  0  0  0
 11 12  1  0  0  0  0
 11 15  1  0  0  0  0
 11 16  1  0  0  0  0
 12 44  1  0  0  0  0
 17 18  1  0  0  0  0
 17 19  1  0  0  0  0
 18 20  1  0  0  0  0
 18 21  1  0  0  0  0
 18 22  1  0  0  0  0
 23 24  2  0  0  0  0
 23 25  1  0  0  0  0
 23 29  1  0  0  0  0
 25 26  1  0  0  0  0
 25 27  1  0  0  0  0
 25 28  1  0  0  0  0
 29 30  1  0  0  0  0
 29 34  1  0  0  0  0
 30 31  1  0  0  0  0
 30 33  1  0  0  0  0
 30 35  1  0  0  0  0
 31 32  2  0  0  0  0
 31 39  1  0  0  0  0
 33 36  1  0  0  0  0
 33 37  1  0  0  0  0
 33 38  1  0  0  0  0
 39 40  1  0  0  0  0
 39 45  1  0  0  0  0
 40 41  1  0  0  0  0
 40 43  1  0  0  0  0
 40 46  1  0  0  0  0
 41 42  2  0  0  0  0
 41 49  1  0  0  0  0
 43 44  1  0  0  0  0
 43 47  1  0  0  0  0
 43 48  1  0  0  0  0
 49 50  1  0  0  0  0
 49 54  1  0  0  0  0
 50 51  1  0  0  0  0
 50 53  1  0  0  0  0
 50 55  1  0  0  0  0
 51 52  2  0  0  0  0
 51 59  1  0  0  0  0
 53 56  1  0  0  0  0
 53 57  1  0  0  0  0
 53 58  1  0  0  0  0
 59 60  1  0  0  0  0
 59 61  1  0  0  0  0
 60 62  1  0  0  0  0
 60 63  1  0  0  0  0
 60 64  1  0  0  0  0
M  END
$$$$

  -OEChem-05262216053D

 64 63  0     1  0  0  0  0  0999 V2000
    1.2046    4.8720   -8.7104 C   0  0  0  0  0  0  0  0  0  0  0  0
   -0.0111    4.7895   -8.7950 O   0  0  0  0  0  0  0  0  0  0  0  0
    2.0303    5.2437   -9.9274 C   0  0  0  0  0  0  0  0  0  0  0  0
    2.7477    4.4495  -10.1482 H   0  0  0  0  0  0  0  0  0  0  0  0
    1.3802    5.3822  -10.7956 H   0  0  0  0  0  0  0  0  0  0  0  0
    2.5725    6.1738   -9.7411 H   0  0  0  0  0  0  0  0  0  0  0  0
    1.8262    4.6338   -7.5044 N   0  0  0  0  0  0  0  0  0  0  0  0
    1.1212    4.3532   -6.2460 C   0  0  2  0  0  0  0  0  0  0  0  0
    1.9378    4.8078   -5.0136 C   0  0  0  0  0  0  0  0  0  0  0  0
    3.0534    5.2978   -5.1654 O   0  0  0  0  0  0  0  0  0  0  0  0
    0.7898    2.8547   -6.1856 C   0  0  0  0  0  0  0  0  0  0  0  0
    2.3019    1.8203   -5.9992 S   0  0  0  0  0  0  0  0  0  0  0  0
    2.8286    4.8068   -7.4413 H   0  0  0  0  0  0  0  0  0  0  0  0
    0.1842    4.9194   -6.2246 H   0  0  0  0  0  0  0  0  0  0  0  0
    0.1215    2.6712   -5.3428 H   0  0  0  0  0  0  0  0  0  0  0  0
    0.2558    2.5537   -7.0923 H   0  0  0  0  0  0  0  0  0  0  0  0
    1.4224    4.7079   -3.7333 N   0  0  0  0  0  0  0  0  0  0  0  0
    2.1930    5.0167   -2.5363 C   0  0  0  0  0  0  0  0  0  0  0  0
    0.5231    4.2338   -3.6164 H   0  0  0  0  0  0  0  0  0  0  0  0
    3.0713    4.3663   -2.4692 H   0  0  0  0  0  0  0  0  0  0  0  0
    2.5250    6.0600   -2.5507 H   0  0  0  0  0  0  0  0  0  0  0  0
    1.5784    4.8618   -1.6444 H   0  0  0  0  0  0  0  0  0  0  0  0
   -3.9109    0.1993   -2.0362 C   0  0  0  0  0  0  0  0  0  0  0  0
   -3.5480   -0.4693   -2.9938 O   0  0  0  0  0  0  0  0  0  0  0  0
   -4.3761   -0.4811   -0.7636 C   0  0  0  0  0  0  0  0  0  0  0  0
   -5.2931   -0.0097   -0.4031 H   0  0  0  0  0  0  0  0  0  0  0  0
   -4.5738   -1.5398   -0.9527 H   0  0  0  0  0  0  0  0  0  0  0  0
   -3.6053   -0.3964    0.0060 H   0  0  0  0  0  0  0  0  0  0  0  0
   -3.7670    1.5700   -2.0823 N   0  0  0  0  0  0  0  0  0  0  0  0
   -3.1384    2.2809   -3.2072 C   0  0  2  0  0  0  0  0  0  0  0  0
   -1.5986    2.1700   -3.1344 C   0  0  0  0  0  0  0  0  0  0  0  0
   -0.8954    3.1497   -2.9090 O   0  0  0  0  0  0  0  0  0  0  0  0
   -3.6383    3.7301   -3.1755 C   0  0  0  0  0  0  0  0  0  0  0  0
   -3.7915    2.0405   -1.1715 H   0  0  0  0  0  0  0  0  0  0  0  0
   -3.4584    1.8372   -4.1566 H   0  0  0  0  0  0  0  0  0  0  0  0
   -3.3530    4.2174   -2.2371 H   0  0  0  0  0  0  0  0  0  0  0  0
   -3.2098    4.2989   -4.0073 H   0  0  0  0  0  0  0  0  0  0  0  0
   -4.7288    3.7572   -3.2647 H   0  0  0  0  0  0  0  0  0  0  0  0
   -1.0222    0.9135   -3.1520 N   0  0  0  0  0  0  0  0  0  0  0  0
    0.2276    0.4704   -2.4842 C   0  0  2  0  0  0  0  0  0  0  0  0
    0.4191    0.9170   -1.0095 C   0  0  0  0  0  0  0  0  0  0  0  0
    1.1492    0.2565   -0.2834 O   0  0  0  0  0  0  0  0  0  0  0  0
    1.4322    0.9797   -3.2864 C   0  0  0  0  0  0  0  0  0  0  0  0
    1.4838    0.2087   -4.9537 S   0  0  0  0  0  0  0  0  0  0  0  0
   -1.7141    0.1735   -3.3155 H   0  0  0  0  0  0  0  0  0  0  0  0
    0.2479   -0.6244   -2.4831 H   0  0  0  0  0  0  0  0  0  0  0  0
    1.3941    2.0665   -3.3720 H   0  0  0  0  0  0  0  0  0  0  0  0
    2.3612    0.7284   -2.7635 H   0  0  0  0  0  0  0  0  0  0  0  0
   -0.3369    1.9197   -0.4314 N   0  0  0  0  0  0  0  0  0  0  0  0
   -0.5269    2.1548    1.0040 C   0  0  2  0  0  0  0  0  0  0  0  0
   -2.0174    2.0915    1.4054 C   0  0  0  0  0  0  0  0  0  0  0  0
   -2.9049    2.2636    0.5717 O   0  0  0  0  0  0  0  0  0  0  0  0
    0.0559    3.5322    1.3265 C   0  0  0  0  0  0  0  0  0  0  0  0
   -0.8869    2.4866   -1.0773 H   0  0  0  0  0  0  0  0  0  0  0  0
    0.0057    1.3971    1.5879 H   0  0  0  0  0  0  0  0  0  0  0  0
   -0.4752    4.3118    0.7707 H   0  0  0  0  0  0  0  0  0  0  0  0
   -0.0311    3.7460    2.3961 H   0  0  0  0  0  0  0  0  0  0  0  0
    1.1149    3.5686    1.0517 H   0  0  0  0  0  0  0  0  0  0  0  0
   -2.3729    1.8402    2.7172 N   0  0  0  0  0  0  0  0  0  0  0  0
   -3.7543    1.7589    3.1770 C   0  0  0  0  0  0  0  0  0  0  0  0
   -1.6231    1.6875    3.3867 H   0  0  0  0  0  0  0  0  0  0  0  0
   -4.2758    2.7043    2.9945 H   0  0  0  0  0  0  0  0  0  0  0  0
   -4.2858    0.9556    2.6560 H   0  0  0  0  0  0  0  0  0  0  0  0
   -3.7834    1.5513    4.2511 H   0  0  0  0  0  0  0  0  0  0  0  0
  1  2  2  0  0  0  0
  1  3  1  0  0  0  0
  1  7  1  0  0  0  0
  3  4  1  0  0  0  0
  3  5  1  0  0  0  0
  3  6  1  0  0  0  0
  7  8  1  0  0  0  0
  7 13  1  0  0  0  0
  8  9  1  0  0  0  0
  8 11  1  0  0  0  0
  8 14  1  0  0  0  0
  9 10  2  0  0  0  0
  9 17  1  0  0  0  0
 11 12  1  0  0  0  0
 11 15  1  0  0  0  0
 11 16  1  0  0  0  0
 12 44  1  0  0  0  0
 17 18  1  0  0  0  0
 17 19  1  0  0  0  0
 18 20  1  0  0  0  0
 18 21  1  0  0  0  0
 18 22  1  0  0  0  0
 23 24  2  0  0  0  0
 23 25  1  0  0  0  0
 23 29  1  0  0  0  0
 25 26  1  0  0  0  0
 25 27  1  0  0  0  0
 25 28  1  0  0  0  0
 29 30  1  0  0  0  0
 29 34  1  0  0  0  0
 30 31  1  0  0  0  0
 30 33  1  0  0  0  0
 30 35  1  0  0  0  0
 31 32  2  0  0  0  0
 31 39  1  0  0  0  0
 33 36  1  0  0  0  0
 33 37  1  0  0  0  0
 33 38  1  0  0  0  0
 39 40  1  0  0  0  0
 39 45  1  0  0  0  0
 40 41  1  0  0  0  0
 40 43  1  0  0  0  0
 40 46  1  0  0  0  0
 41 42  2  0  0  0  0
 41 49  1  0  0  0  0
 43 44  1  0  0  0  0
 43 47  1  0  0  0  0
 43 48  1  0  0  0  0
 49 50  1  0  0  0  0
 49 54  1  0  0  0  0
 50 51  1  0  0  0  0
 50 53  1  0  0  0  0
 50 55  1  0  0  0  0
 51 52  2  0  0  0  0
 51 59  1  0  0  0  0
 53 56  1  0  0  0  0
 53 57  1  0  0  0  0
 53 58  1  0  0  0  0
 59 60  1  0  0  0  0
 59 61  1  0  0  0  0
 60 62  1  0  0  0  0
 60 63  1  0  0  0  0
 60 64  1  0  0  0  0
M  END
$$$$

  -OEChem-05262216053D

 64 63  0     1  0  0  0  0  0999 V2000
    1.0598    4.7884   -8.7559 C   0  0  0  0  0  0  0  0  0  0  0  0
   -0.1454    4.5988   -8.8174 O   0  0  0  0  0  0  0  0  0  0  0  0
    1.8403    5.1472  -10.0063 C   0  0  0  0  0  0  0  0  0  0  0  0
    2.6328    4.4138  -10.1742 H   0  0  0  0  0  0  0  0  0  0  0  0
    1.1764    5.1539  -10.8754 H   0  0  0  0  0  0  0  0  0  0  0  0
    2.2873    6.1382   -9.8956 H   0  0  0  0  0  0  0  0  0  0  0  0
    1.7098    4.6809   -7.5463 N   0  0  0  0  0  0  0  0  0  0  0  0
    1.0448    4.4110   -6.2636 C   0  0  2  0  0  0  0  0  0  0  0  0
    1.8462    4.9732   -5.0665 C   0  0  0  0  0  0  0  0  0  0  0  0
    2.8804    5.6036   -5.2684 O   0  0  0  0  0  0  0  0  0  0  0  0
    0.8183    2.8994   -6.1289 C   0  0  0  0  0  0  0  0  0  0  0  0
    2.4036    1.9808   -5.9560 S   0  0  0  0  0  0  0  0  0  0  0  0
    2.6939    4.9432   -7.5085 H   0  0  0  0  0  0  0  0  0  0  0  0
    0.0719    4.9130   -6.2516 H   0  0  0  0  0  0  0  0  0  0  0  0
    0.1952    2.7098   -5.2538 H   0  0  0  0  0  0  0  0  0  0  0  0
    0.2754    2.5221   -7.0014 H   0  0  0  0  0  0  0  0  0  0  0  0
    1.4040    4.8178   -3.7639 N   0  0  0  0  0  0  0  0  0  0  0  0
    2.1591    5.2777   -2.6066 C   0  0  0  0  0  0  0  0  0  0  0  0
    0.5760    4.2399   -3.5991 H   0  0  0  0  0  0  0  0  0  0  0  0
    3.1544    4.8210   -2.5922 H   0  0  0  0  0  0  0  0  0  0  0  0
    2.2698    6.3669   -2.6288 H   0  0  0  0  0  0  0  0  0  0  0  0
    1.6377    5.0008   -1.6851 H   0  0  0  0  0  0  0  0  0  0  0  0
   -3.7902    0.0698   -2.1325 C   0  0  0  0  0  0  0  0  0  0  0  0
   -3.3942   -0.5303   -3.1215 O   0  0  0  0  0  0  0  0  0  0  0  0
   -4.3348   -0.6949   -0.9418 C   0  0  0  0  0  0  0  0  0  0  0  0
   -4.6015   -1.7137   -1.2366 H   0  0  0  0  0  0  0  0  0  0  0  0
   -3.5807   -0.7398   -0.1523 H   0  0  0  0  0  0  0  0  0  0  0  0
   -5.2262   -0.1960   -0.5539 H   0  0  0  0  0  0  0  0  0  0  0  0
   -3.6257    1.4377   -2.0703 N   0  0  0  0  0  0  0  0  0  0  0  0
   -2.9894    2.2348   -3.1323 C   0  0  2  0  0  0  0  0  0  0  0  0
   -1.4500    2.1120   -3.0760 C   0  0  0  0  0  0  0  0  0  0  0  0
   -0.7461    3.0597   -2.7461 O   0  0  0  0  0  0  0  0  0  0  0  0
   -3.4795    3.6796   -2.9811 C   0  0  0  0  0  0  0  0  0  0  0  0
   -3.7315    1.8549   -1.1397 H   0  0  0  0  0  0  0  0  0  0  0  0
   -3.3131    1.8724   -4.1141 H   0  0  0  0  0  0  0  0  0  0  0  0
   -3.1889    4.0864   -2.0072 H   0  0  0  0  0  0  0  0  0  0  0  0
   -3.0473    4.3111   -3.7637 H   0  0  0  0  0  0  0  0  0  0  0  0
   -4.5696    3.7230   -3.0653 H   0  0  0  0  0  0  0  0  0  0  0  0
   -0.8732    0.8629   -3.2106 N   0  0  0  0  0  0  0  0  0  0  0  0
    0.3628    0.3840   -2.5431 C   0  0  2  0  0  0  0  0  0  0  0  0
    0.4868    0.7020   -1.0284 C   0  0  0  0  0  0  0  0  0  0  0  0
    1.3850    0.1873   -0.3757 O   0  0  0  0  0  0  0  0  0  0  0  0
    1.5872    0.9511   -3.2773 C   0  0  0  0  0  0  0  0  0  0  0  0
    1.6771    0.2824   -4.9878 S   0  0  0  0  0  0  0  0  0  0  0  0
   -1.5623    0.1358   -3.4325 H   0  0  0  0  0  0  0  0  0  0  0  0
    0.3930   -0.7069   -2.6255 H   0  0  0  0  0  0  0  0  0  0  0  0
    1.5438    2.0425   -3.2970 H   0  0  0  0  0  0  0  0  0  0  0  0
    2.5053    0.6727   -2.7491 H   0  0  0  0  0  0  0  0  0  0  0  0
   -0.4955    1.3918   -0.3422 N   0  0  0  0  0  0  0  0  0  0  0  0
   -0.6274    1.5044    1.1130 C   0  0  2  0  0  0  0  0  0  0  0  0
   -2.1103    1.5885    1.5367 C   0  0  0  0  0  0  0  0  0  0  0  0
   -2.9839    1.8640    0.7155 O   0  0  0  0  0  0  0  0  0  0  0  0
    0.1389    2.7471    1.5726 C   0  0  0  0  0  0  0  0  0  0  0  0
   -1.1763    1.8916   -0.9102 H   0  0  0  0  0  0  0  0  0  0  0  0
   -0.1977    0.6178    1.5915 H   0  0  0  0  0  0  0  0  0  0  0  0
   -0.2722    3.6460    1.1018 H   0  0  0  0  0  0  0  0  0  0  0  0
    0.0733    2.8600    2.6591 H   0  0  0  0  0  0  0  0  0  0  0  0
    1.1953    2.6624    1.2981 H   0  0  0  0  0  0  0  0  0  0  0  0
   -2.4781    1.3134    2.8401 N   0  0  0  0  0  0  0  0  0  0  0  0
   -3.8596    1.3189    3.3058 C   0  0  0  0  0  0  0  0  0  0  0  0
   -1.7400    1.0732    3.4966 H   0  0  0  0  0  0  0  0  0  0  0  0
   -4.3145    2.3022    3.1460 H   0  0  0  0  0  0  0  0  0  0  0  0
   -4.4475    0.5657    2.7706 H   0  0  0  0  0  0  0  0  0  0  0  0
   -3.8979    1.0907    4.3756 H   0  0  0  0  0  0  0  0  0  0  0  0
  1  2  2  0  0  0  0
  1  3  1  0  0  0  0
  1  7  1  0  0  0  0
  3  4  1  0  0  0  0
  3  5  1  0  0  0  0
  3  6  1  0  0  0  0
  7  8  1  0  0  0  0
  7 13  1  0  0  0  0
  8  9  1  0  0  0  0
  8 11  1  0  0  0  0
  8 14  1  0  0  0  0
  9 10  2  0  0  0  0
  9 17  1  0  0  0  0
 11 12  1  0  0  0  0
 11 15  1  0  0  0  0
 11 16  1  0  0  0  0
 12 44  1  0  0  0  0
 17 18  1  0  0  0  0
 17 19  1  0  0  0  0
 18 20  1  0  0  0  0
 18 21  1  0  0  0  0
 18 22  1  0  0  0  0
 23 24  2  0  0  0  0
 23 25  1  0  0  0  0
 23 29  1  0  0  0  0
 25 26  1  0  0  0  0
 25 27  1  0  0  0  0
 25 28  1  0  0  0  0
 29 30  1  0  0  0  0
 29 34  1  0  0  0  0
 30 31  1  0  0  0  0
 30 33  1  0  0  0  0
 30 35  1  0  0  0  0
 31 32  2  0  0  0  0
 31 39  1  0  0  0  0
 33 36  1  0  0  0  0
 33 37  1  0  0  0  0
 33 38  1  0  0  0  0
 39 40  1  0  0  0  0
 39 45  1  0  0  0  0
 40 41  1  0  0  0  0
 40 43  1  0  0  0  0
 40 46  1  0  0  0  0
 41 42  2  0  0  0  0
 41 49  1  0  0  0  0
 43 44  1  0  0  0  0
 43 47  1  0  0  0  0
 43 48  1  0  0  0  0
 49 50  1  0  0  0  0
 49 54  1  0  0  0  0
 50 51  1  0  0  0  0
 50 53  1  0  0  0  0
 50 55  1  0  0  0  0
 51 52  2  0  0  0  0
 51 59  1  0  0  0  0
 53 56  1  0  0  0  0
 53 57  1  0  0  0  0
 53 58  1  0  0  0  0
 59 60  1  0  0  0  0
 59 61  1  0  0  0  0
 60 62  1  0  0  0  0
 60 63  1  0  0  0  0
 60 64  1  0  0  0  0
M  END
$$$$

  -OEChem-05262216053D

 64 63  0     1  0  0  0  0  0999 V2000
    1.0204    5.2180   -8.4647 C   0  0  0  0  0  0  0  0  0  0  0  0
   -0.1874    5.0564   -8.5498 O   0  0  0  0  0  0  0  0  0  0  0  0
    1.8020    5.7677   -9.6423 C   0  0  0  0  0  0  0  0  0  0  0  0
    2.6437    5.1093   -9.8702 H   0  0  0  0  0  0  0  0  0  0  0  0
    1.1579    5.8339  -10.5232 H   0  0  0  0  0  0  0  0  0  0  0  0
    2.1810    6.7644   -9.4043 H   0  0  0  0  0  0  0  0  0  0  0  0
    1.6741    4.9137   -7.2915 N   0  0  0  0  0  0  0  0  0  0  0  0
    1.0116    4.4686   -6.0580 C   0  0  2  0  0  0  0  0  0  0  0  0
    1.8389    4.8275   -4.8015 C   0  0  0  0  0  0  0  0  0  0  0  0
    2.9121    5.4114   -4.9243 O   0  0  0  0  0  0  0  0  0  0  0  0
    0.7433    2.9594   -6.1486 C   0  0  0  0  0  0  0  0  0  0  0  0
    2.3022    1.9792   -6.1447 S   0  0  0  0  0  0  0  0  0  0  0  0
    2.6621    5.1538   -7.2204 H   0  0  0  0  0  0  0  0  0  0  0  0
    0.0529    4.9882   -5.9600 H   0  0  0  0  0  0  0  0  0  0  0  0
    0.1241    2.6573   -5.3022 H   0  0  0  0  0  0  0  0  0  0  0  0
    0.1789    2.7347   -7.0591 H   0  0  0  0  0  0  0  0  0  0  0  0
    1.3751    4.5456   -3.5287 N   0  0  0  0  0  0  0  0  0  0  0  0
    2.1656    4.7638   -2.3252 C   0  0  0  0  0  0  0  0  0  0  0  0
    0.5230    3.9858   -3.4423 H   0  0  0  0  0  0  0  0  0  0  0  0
    3.0722    4.1502   -2.3475 H   0  0  0  0  0  0  0  0  0  0  0  0
    2.4517    5.8171   -2.2367 H   0  0  0  0  0  0  0  0  0  0  0  0
    1.5828    4.4893   -1.4405 H   0  0  0  0  0  0  0  0  0  0  0  0
   -3.7295   -0.3589   -2.1123 C   0  0  0  0  0  0  0  0  0  0  0  0
   -3.3332   -0.9064   -3.1306 O   0  0  0  0  0  0  0  0  0  0  0  0
   -4.2706   -1.1813   -0.9596 C   0  0  0  0  0  0  0  0  0  0  0  0
   -4.5821   -2.1672   -1.3151 H   0  0  0  0  0  0  0  0  0  0  0  0
   -3.4999   -1.3051   -0.1948 H   0  0  0  0  0  0  0  0  0  0  0  0
   -5.1334   -0.6796   -0.5147 H   0  0  0  0  0  0  0  0  0  0  0  0
   -3.5734    1.0054   -1.9890 N   0  0  0  0  0  0  0  0  0  0  0  0
   -3.0194    1.8730   -3.0421 C   0  0  2  0  0  0  0  0  0  0  0  0
   -1.4760    1.7945   -3.0871 C   0  0  0  0  0  0  0  0  0  0  0  0
   -0.7795    2.7486   -2.7618 O   0  0  0  0  0  0  0  0  0  0  0  0
   -3.5418    3.2908   -2.7829 C   0  0  0  0  0  0  0  0  0  0  0  0
   -3.7015    1.3910   -1.0473 H   0  0  0  0  0  0  0  0  0  0  0  0
   -3.3931    1.5522   -4.0207 H   0  0  0  0  0  0  0  0  0  0  0  0
   -3.2077    3.6535   -1.8051 H   0  0  0  0  0  0  0  0  0  0  0  0
   -3.1751    3.9774   -3.5522 H   0  0  0  0  0  0  0  0  0  0  0  0
   -4.6360    3.3019   -2.8033 H   0  0  0  0  0  0  0  0  0  0  0  0
   -0.8787    0.5690   -3.3281 N   0  0  0  0  0  0  0  0  0  0  0  0
    0.4154    0.1028   -2.7705 C   0  0  2  0  0  0  0  0  0  0  0  0
    0.5840    0.3790   -1.2513 C   0  0  0  0  0  0  0  0  0  0  0  0
    1.6697    0.2540   -0.6994 O   0  0  0  0  0  0  0  0  0  0  0  0
    1.5687    0.7625   -3.5450 C   0  0  0  0  0  0  0  0  0  0  0  0
    1.5827    0.2121   -5.2975 S   0  0  0  0  0  0  0  0  0  0  0  0
   -1.5582   -0.1668   -3.5518 H   0  0  0  0  0  0  0  0  0  0  0  0
    0.4849   -0.9812   -2.9020 H   0  0  0  0  0  0  0  0  0  0  0  0
    1.4889    1.8488   -3.4867 H   0  0  0  0  0  0  0  0  0  0  0  0
    2.5293    0.4877   -3.0973 H   0  0  0  0  0  0  0  0  0  0  0  0
   -0.5101    0.7164   -0.4747 N   0  0  0  0  0  0  0  0  0  0  0  0
   -0.4647    1.2215    0.9011 C   0  0  2  0  0  0  0  0  0  0  0  0
   -1.8830    1.2882    1.5095 C   0  0  0  0  0  0  0  0  0  0  0  0
   -2.8731    1.3104    0.7795 O   0  0  0  0  0  0  0  0  0  0  0  0
    0.1576    2.6249    0.9019 C   0  0  0  0  0  0  0  0  0  0  0  0
   -1.3787    0.8686   -0.9813 H   0  0  0  0  0  0  0  0  0  0  0  0
    0.1435    0.5491    1.5150 H   0  0  0  0  0  0  0  0  0  0  0  0
   -0.4172    3.2984    0.2574 H   0  0  0  0  0  0  0  0  0  0  0  0
    0.1718    3.0387    1.9146 H   0  0  0  0  0  0  0  0  0  0  0  0
    1.1878    2.5912    0.5342 H   0  0  0  0  0  0  0  0  0  0  0  0
   -2.0581    1.3316    2.8797 N   0  0  0  0  0  0  0  0  0  0  0  0
   -3.3640    1.4281    3.5209 C   0  0  0  0  0  0  0  0  0  0  0  0
   -1.2249    1.3297    3.4620 H   0  0  0  0  0  0  0  0  0  0  0  0
   -3.8566    2.3672    3.2477 H   0  0  0  0  0  0  0  0  0  0  0  0
   -4.0043    0.5927    3.2190 H   0  0  0  0  0  0  0  0  0  0  0  0
   -3.2518    1.3999    4.6089 H   0  0  0  0  0  0  0  0  0  0  0  0
  1  2  2  0  0  0  0
  1  3  1  0  0  0  0
  1  7  1  0  0  0  0
  3  4  1  0  0  0  0
  3  5  1  0  0  0  0
  3  6  1  0  0  0  0
  7  8  1  0  0  0  0
  7 13  1  0  0  0  0
  8  9  1  0  0  0  0
  8 11  1  0  0  0  0
  8 14  1  0  0  0  0
  9 10  2  0  0  0  0
  9 17  1  0  0  0  0
 11 12  1  0  0  0  0
 11 15  1  0  0  0  0
 11 16  1  0  0  0  0
 12 44  1  0  0  0  0
 17 18  1  0  0  0  0
 17 19  1  0  0  0  0
 18 20  1  0  0  0  0
 18 21  1  0  0  0  0
 18 22  1  0  0  0  0
 23 24  2  0  0  0  0
 23 25  1  0  0  0  0
 23 29  1  0  0  0  0
 25 26  1  0  0  0  0
 25 27  1  0  0  0  0
 25 28  1  0  0  0  0
 29 30  1  0  0  0  0
 29 34  1  0  0  0  0
 30 31  1  0  0  0  0
 30 33  1  0  0  0  0
 30 35  1  0  0  0  0
 31 32  2  0  0  0  0
 31 39  1  0  0  0  0
 33 36  1  0  0  0  0
 33 37  1  0  0  0  0
 33 38  1  0  0  0  0
 39 40  1  0  0  0  0
 39 45  1  0  0  0  0
 40 41  1  0  0  0  0
 40 43  1  0  0  0  0
 40 46  1  0  0  0  0
 41 42  2  0  0  0  0
 41 49  1  0  0  0  0
 43 44  1  0  0  0  0
 43 47  1  0  0  0  0
 43 48  1  0  0  0  0
 49 50  1  0  0  0  0
 49 54  1  0  0  0  0
 50 51  1  0  0  0  0
 50 53  1  0  0  0  0
 50 55  1  0  0  0  0
 51 52  2  0  0  0  0
 51 59  1  0  0  0  0
 53 56  1  0  0  0  0
 53 57  1  0  0  0  0
 53 58  1  0  0  0  0
 59 60  1  0  0  0  0
 59 61  1  0  0  0  0
 60 62  1  0  0  0  0
 60 63  1  0  0  0  0
 60 64  1  0  0  0  0
M  END
$$$$

  -OEChem-05262216053D

 64 63  0     1  0  0  0  0  0999 V2000
    0.8471    5.2161   -8.4924 C   0  0  0  0  0  0  0  0  0  0  0  0
   -0.3694    5.1073   -8.4685 O   0  0  0  0  0  0  0  0  0  0  0  0
    1.5423    5.7316   -9.7384 C   0  0  0  0  0  0  0  0  0  0  0  0
    2.2419    4.9800  -10.1132 H   0  0  0  0  0  0  0  0  0  0  0  0
    0.8058    5.9482  -10.5176 H   0  0  0  0  0  0  0  0  0  0  0  0
    2.0917    6.6477   -9.5068 H   0  0  0  0  0  0  0  0  0  0  0  0
    1.5894    4.8767   -7.3830 N   0  0  0  0  0  0  0  0  0  0  0  0
    1.0214    4.4466   -6.0977 C   0  0  2  0  0  0  0  0  0  0  0  0
    1.9704    4.7611   -4.9175 C   0  0  0  0  0  0  0  0  0  0  0  0
    3.0492    5.3063   -5.1343 O   0  0  0  0  0  0  0  0  0  0  0  0
    0.6892    2.9498   -6.1751 C   0  0  0  0  0  0  0  0  0  0  0  0
    2.2047    1.9125   -6.3066 S   0  0  0  0  0  0  0  0  0  0  0  0
    2.5903    5.0690   -7.4014 H   0  0  0  0  0  0  0  0  0  0  0  0
    0.0955    5.0004   -5.9118 H   0  0  0  0  0  0  0  0  0  0  0  0
    0.1321    2.6639   -5.2814 H   0  0  0  0  0  0  0  0  0  0  0  0
    0.0422    2.7538   -7.0360 H   0  0  0  0  0  0  0  0  0  0  0  0
    1.6156    4.4816   -3.6094 N   0  0  0  0  0  0  0  0  0  0  0  0
    2.5210    4.6618   -2.4828 C   0  0  0  0  0  0  0  0  0  0  0  0
    0.7517    3.9577   -3.4467 H   0  0  0  0  0  0  0  0  0  0  0  0
    3.4198    4.0498   -2.6112 H   0  0  0  0  0  0  0  0  0  0  0  0
    2.8174    5.7117   -2.3921 H   0  0  0  0  0  0  0  0  0  0  0  0
    2.0282    4.3598   -1.5537 H   0  0  0  0  0  0  0  0  0  0  0  0
   -3.6687   -0.3118   -2.1840 C   0  0  0  0  0  0  0  0  0  0  0  0
   -3.3354   -0.7224   -3.2853 O   0  0  0  0  0  0  0  0  0  0  0  0
   -4.2118   -1.2732   -1.1444 C   0  0  0  0  0  0  0  0  0  0  0  0
   -4.5729   -2.1853   -1.6274 H   0  0  0  0  0  0  0  0  0  0  0  0
   -3.4263   -1.5362   -0.4317 H   0  0  0  0  0  0  0  0  0  0  0  0
   -5.0407   -0.8110   -0.6027 H   0  0  0  0  0  0  0  0  0  0  0  0
   -3.4150    1.0061   -1.8644 N   0  0  0  0  0  0  0  0  0  0  0  0
   -2.8661    2.0021   -2.8042 C   0  0  2  0  0  0  0  0  0  0  0  0
   -1.3324    1.8671   -2.9610 C   0  0  0  0  0  0  0  0  0  0  0  0
   -0.5732    2.7834   -2.6676 O   0  0  0  0  0  0  0  0  0  0  0  0
   -3.2923    3.3861   -2.2986 C   0  0  0  0  0  0  0  0  0  0  0  0
   -3.5114    1.2577   -0.8752 H   0  0  0  0  0  0  0  0  0  0  0  0
   -3.3097    1.8551   -3.7953 H   0  0  0  0  0  0  0  0  0  0  0  0
   -2.8706    3.5812   -1.3072 H   0  0  0  0  0  0  0  0  0  0  0  0
   -2.9424    4.1653   -2.9836 H   0  0  0  0  0  0  0  0  0  0  0  0
   -4.3829    3.4499   -2.2329 H   0  0  0  0  0  0  0  0  0  0  0  0
   -0.8093    0.6234   -3.2687 N   0  0  0  0  0  0  0  0  0  0  0  0
    0.4976    0.0949   -2.8131 C   0  0  2  0  0  0  0  0  0  0  0  0
    0.7379    0.3582   -1.3036 C   0  0  0  0  0  0  0  0  0  0  0  0
    1.8639    0.4305   -0.8281 O   0  0  0  0  0  0  0  0  0  0  0  0
    1.6257    0.7064   -3.6587 C   0  0  0  0  0  0  0  0  0  0  0  0
    1.4856    0.1705   -5.4105 S   0  0  0  0  0  0  0  0  0  0  0  0
   -1.5242   -0.0698   -3.5166 H   0  0  0  0  0  0  0  0  0  0  0  0
    0.5108   -0.9900   -2.9520 H   0  0  0  0  0  0  0  0  0  0  0  0
    1.5993    1.7944   -3.5875 H   0  0  0  0  0  0  0  0  0  0  0  0
    2.6006    0.3834   -3.2797 H   0  0  0  0  0  0  0  0  0  0  0  0
   -0.3494    0.4210   -0.4492 N   0  0  0  0  0  0  0  0  0  0  0  0
   -0.3140    0.9238    0.9298 C   0  0  2  0  0  0  0  0  0  0  0  0
   -1.6949    0.7762    1.6028 C   0  0  0  0  0  0  0  0  0  0  0  0
   -2.7187    0.8033    0.9219 O   0  0  0  0  0  0  0  0  0  0  0  0
    0.0781    2.4092    0.9317 C   0  0  0  0  0  0  0  0  0  0  0  0
   -1.2594    0.4205   -0.9044 H   0  0  0  0  0  0  0  0  0  0  0  0
    0.4187    0.3484    1.5052 H   0  0  0  0  0  0  0  0  0  0  0  0
   -0.6216    2.9901    0.3221 H   0  0  0  0  0  0  0  0  0  0  0  0
    0.0658    2.8074    1.9506 H   0  0  0  0  0  0  0  0  0  0  0  0
    1.0848    2.5474    0.5267 H   0  0  0  0  0  0  0  0  0  0  0  0
   -1.7980    0.6365    2.9737 N   0  0  0  0  0  0  0  0  0  0  0  0
   -3.0695    0.5061    3.6757 C   0  0  0  0  0  0  0  0  0  0  0  0
   -0.9354    0.6204    3.5117 H   0  0  0  0  0  0  0  0  0  0  0  0
   -3.6925    1.3913    3.5101 H   0  0  0  0  0  0  0  0  0  0  0  0
   -3.6128   -0.3778    3.3254 H   0  0  0  0  0  0  0  0  0  0  0  0
   -2.8987    0.4013    4.7516 H   0  0  0  0  0  0  0  0  0  0  0  0
  1  2  2  0  0  0  0
  1  3  1  0  0  0  0
  1  7  1  0  0  0  0
  3  4  1  0  0  0  0
  3  5  1  0  0  0  0
  3  6  1  0  0  0  0
  7  8  1  0  0  0  0
  7 13  1  0  0  0  0
  8  9  1  0  0  0  0
  8 11  1  0  0  0  0
  8 14  1  0  0  0  0
  9 10  2  0  0  0  0
  9 17  1  0  0  0  0
 11 12  1  0  0  0  0
 11 15  1  0  0  0  0
 11 16  1  0  0  0  0
 12 44  1  0  0  0  0
 17 18  1  0  0  0  0
 17 19  1  0  0  0  0
 18 20  1  0  0  0  0
 18 21  1  0  0  0  0
 18 22  1  0  0  0  0
 23 24  2  0  0  0  0
 23 25  1  0  0  0  0
 23 29  1  0  0  0  0
 25 26  1  0  0  0  0
 25 27  1  0  0  0  0
 25 28  1  0  0  0  0
 29 30  1  0  0  0  0
 29 34  1  0  0  0  0
 30 31  1  0  0  0  0
 30 33  1  0  0  0  0
 30 35  1  0  0  0  0
 31 32  2  0  0  0  0
 31 39  1  0  0  0  0
 33 36  1  0  0  0  0
 33 37  1  0  0  0  0
 33 38  1  0  0  0  0
 39 40  1  0  0  0  0
 39 45  1  0  0  0  0
 40 41  1  0  0  0  0
 40 43  1  0  0  0  0
 40 46  1  0  0  0  0
 41 42  2  0  0  0  0
 41 49  1  0  0  0  0
 43 44  1  0  0  0  0
 43 47  1  0  0  0  0
 43 48  1  0  0  0  0
 49 50  1  0  0  0  0
 49 54  1  0  0  0  0
 50 51  1  0  0  0  0
 50 53  1  0  0  0  0
 50 55  1  0  0  0  0
 51 52  2  0  0  0  0
 51 59  1  0  0  0  0
 53 56  1  0  0  0  0
 53 57  1  0  0  0  0
 53 58  1  0  0  0  0
 59 60  1  0  0  0  0
 59 61  1  0  0  0  0
 60 62  1  0  0  0  0
 60 63  1  0  0  0  0
 60 64  1  0  0  0  0
M  END
$$$$

  -OEChem-05262216053D

 64 63  0     1  0  0  0  0  0999 V2000
    0.2097    5.2544   -8.1333 C   0  0  0  0  0  0  0  0  0  0  0  0
   -0.9300    4.8141   -8.1212 O   0  0  0  0  0  0  0  0  0  0  0  0
    0.7046    6.0601   -9.3191 C   0  0  0  0  0  0  0  0  0  0  0  0
    1.5617    5.5608   -9.7774 H   0  0  0  0  0  0  0  0  0  0  0  0
   -0.0886    6.1578  -10.0654 H   0  0  0  0  0  0  0  0  0  0  0  0
    1.0047    7.0587   -8.9927 H   0  0  0  0  0  0  0  0  0  0  0  0
    1.0398    5.0310   -7.0569 N   0  0  0  0  0  0  0  0  0  0  0  0
    0.6207    4.3755   -5.8108 C   0  0  2  0  0  0  0  0  0  0  0  0
    1.4570    4.8455   -4.5973 C   0  0  0  0  0  0  0  0  0  0  0  0
    2.4046    5.6061   -4.7707 O   0  0  0  0  0  0  0  0  0  0  0  0
    0.6939    2.8524   -5.9997 C   0  0  0  0  0  0  0  0  0  0  0  0
    2.4260    2.2461   -6.1653 S   0  0  0  0  0  0  0  0  0  0  0  0
    1.9526    5.4853   -7.0537 H   0  0  0  0  0  0  0  0  0  0  0  0
   -0.4171    4.6505   -5.5966 H   0  0  0  0  0  0  0  0  0  0  0  0
    0.2280    2.3721   -5.1394 H   0  0  0  0  0  0  0  0  0  0  0  0
    0.1223    2.5577   -6.8857 H   0  0  0  0  0  0  0  0  0  0  0  0
    1.1342    4.4590   -3.3076 N   0  0  0  0  0  0  0  0  0  0  0  0
    1.9917    4.7283   -2.1604 C   0  0  0  0  0  0  0  0  0  0  0  0
    0.4009    3.7564   -3.1878 H   0  0  0  0  0  0  0  0  0  0  0  0
    2.9656    4.2445   -2.2889 H   0  0  0  0  0  0  0  0  0  0  0  0
    2.1448    5.8052   -2.0356 H   0  0  0  0  0  0  0  0  0  0  0  0
    1.5309    4.3360   -1.2482 H   0  0  0  0  0  0  0  0  0  0  0  0
   -4.5538    1.4791   -2.0757 C   0  0  0  0  0  0  0  0  0  0  0  0
   -4.9857    0.3753   -2.3649 O   0  0  0  0  0  0  0  0  0  0  0  0
   -5.3057    2.3579   -1.0944 C   0  0  0  0  0  0  0  0  0  0  0  0
   -5.6127    3.2857   -1.5829 H   0  0  0  0  0  0  0  0  0  0  0  0
   -6.1972    1.8392   -0.7314 H   0  0  0  0  0  0  0  0  0  0  0  0
   -4.6658    2.5960   -0.2415 H   0  0  0  0  0  0  0  0  0  0  0  0
   -3.3711    1.9242   -2.6295 N   0  0  0  0  0  0  0  0  0  0  0  0
   -2.4722    1.0886   -3.4382 C   0  0  2  0  0  0  0  0  0  0  0  0
   -1.0105    1.2010   -2.9610 C   0  0  0  0  0  0  0  0  0  0  0  0
   -0.6160    2.2493   -2.4620 O   0  0  0  0  0  0  0  0  0  0  0  0
   -2.6061    1.5287   -4.8981 C   0  0  0  0  0  0  0  0  0  0  0  0
   -2.9938    2.7986   -2.2688 H   0  0  0  0  0  0  0  0  0  0  0  0
   -2.7597    0.0346   -3.3594 H   0  0  0  0  0  0  0  0  0  0  0  0
   -2.3267    2.5811   -5.0122 H   0  0  0  0  0  0  0  0  0  0  0  0
   -1.9614    0.9234   -5.5426 H   0  0  0  0  0  0  0  0  0  0  0  0
   -3.6408    1.4067   -5.2344 H   0  0  0  0  0  0  0  0  0  0  0  0
   -0.1246    0.1569   -3.1736 N   0  0  0  0  0  0  0  0  0  0  0  0
    1.2654    0.0511   -2.6685 C   0  0  2  0  0  0  0  0  0  0  0  0
    1.3864    0.4469   -1.1727 C   0  0  0  0  0  0  0  0  0  0  0  0
    2.3074    1.1374   -0.7513 O   0  0  0  0  0  0  0  0  0  0  0  0
    2.1627    0.9561   -3.5271 C   0  0  0  0  0  0  0  0  0  0  0  0
    2.2326    0.3685   -5.2652 S   0  0  0  0  0  0  0  0  0  0  0  0
   -0.4957   -0.6427   -3.6815 H   0  0  0  0  0  0  0  0  0  0  0  0
    1.6144   -0.9819   -2.7583 H   0  0  0  0  0  0  0  0  0  0  0  0
    1.8015    1.9825   -3.4816 H   0  0  0  0  0  0  0  0  0  0  0  0
    3.1837    0.9600   -3.1314 H   0  0  0  0  0  0  0  0  0  0  0  0
    0.4570   -0.0328   -0.2689 N   0  0  0  0  0  0  0  0  0  0  0  0
    0.3633    0.3656    1.1403 C   0  0  2  0  0  0  0  0  0  0  0  0
   -0.5173   -0.6168    1.9396 C   0  0  0  0  0  0  0  0  0  0  0  0
   -1.2697   -1.3848    1.3494 O   0  0  0  0  0  0  0  0  0  0  0  0
   -0.2317    1.7781    1.2138 C   0  0  0  0  0  0  0  0  0  0  0  0
   -0.2889   -0.6271   -0.6275 H   0  0  0  0  0  0  0  0  0  0  0  0
    1.3628    0.3642    1.5877 H   0  0  0  0  0  0  0  0  0  0  0  0
   -1.2251    1.7969    0.7544 H   0  0  0  0  0  0  0  0  0  0  0  0
   -0.3218    2.1050    2.2539 H   0  0  0  0  0  0  0  0  0  0  0  0
    0.4068    2.4927    0.6849 H   0  0  0  0  0  0  0  0  0  0  0  0
   -0.4782   -0.6319    3.3216 N   0  0  0  0  0  0  0  0  0  0  0  0
   -1.2968   -1.5226    4.1356 C   0  0  0  0  0  0  0  0  0  0  0  0
    0.1611    0.0087    3.7831 H   0  0  0  0  0  0  0  0  0  0  0  0
   -2.3610   -1.3425    3.9491 H   0  0  0  0  0  0  0  0  0  0  0  0
   -1.0712   -2.5693    3.9056 H   0  0  0  0  0  0  0  0  0  0  0  0
   -1.0991   -1.3521    5.1983 H   0  0  0  0  0  0  0  0  0  0  0  0
  1  2  2  0  0  0  0
  1  3  1  0  0  0  0
  1  7  1  0  0  0  0
  3  4  1  0  0  0  0
  3  5  1  0  0  0  0
  3  6  1  0  0  0  0
  7  8  1  0  0  0  0
  7 13  1  0  0  0  0
  8  9  1  0  0  0  0
  8 11  1  0  0  0  0
  8 14  1  0  0  0  0
  9 10  2  0  0  0  0
  9 17  1  0  0  0  0
 11 12  1  0  0  0  0
 11 15  1  0  0  0  0
 11 16  1  0  0  0  0
 12 44  1  0  0  0  0
 17 18  1  0  0  0  0
 17 19  1  0  0  0  0
 18 20  1  0  0  0  0
 18 21  1  0  0  0  0
 18 22  1  0  0  0  0
 23 24  2  0  0  0  0
 23 25  1  0  0  0  0
 23 29  1  0  0  0  0
 25 26  1  0  0  0  0
 25 27  1  0  0  0  0
 25 28  1  0  0  0  0
 29 30  1  0  0  0  0
 29 34  1  0  0  0  0
 30 31  1  0  0  0  0
 30 33  1  0  0  0  0
 30 35  1  0  0  0  0
 31 32  2  0  0  0  0
 31 39  1  0  0  0  0
 33 36  1  0  0  0  0
 33 37  1  0  0  0  0
 33 38  1  0  0  0  0
 39 40  1  0  0  0  0
 39 45  1  0  0  0  0
 40 41  1  0  0  0  0
 40 43  1  0  0  0  0
 40 46  1  0  0  0  0
 41 42  2  0  0  0  0
 41 49  1  0  0  0  0
 43 44  1  0  0  0  0
 43 47  1  0  0  0  0
 43 48  1  0  0  0  0
 49 50  1  0  0  0  0
 49 54  1  0  0  0  0
 50 51  1  0  0  0  0
 50 53  1  0  0  0  0
 50 55  1  0  0  0  0
 51 52  2  0  0  0  0
 51 59  1  0  0  0  0
 53 56  1  0  0  0  0
 53 57  1  0  0  0  0
 53 58  1  0  0  0  0
 59 60  1  0  0  0  0
 59 61  1  0  0  0  0
 60 62  1  0  0  0  0
 60 63  1  0  0  0  0
 60 64  1  0  0  0  0
M  END
$$$$

  -OEChem-05262216053D

 64 63  0     1  0  0  0  0  0999 V2000
    0.8206    5.1991   -8.6520 C   0  0  0  0  0  0  0  0  0  0  0  0
   -0.3867    5.0127   -8.6434 O   0  0  0  0  0  0  0  0  0  0  0  0
    1.4989    5.7525   -9.8906 C   0  0  0  0  0  0  0  0  0  0  0  0
    2.2426    5.0410  -10.2574 H   0  0  0  0  0  0  0  0  0  0  0  0
    0.7607    5.9283  -10.6778 H   0  0  0  0  0  0  0  0  0  0  0  0
    1.9944    6.6970   -9.6538 H   0  0  0  0  0  0  0  0  0  0  0  0
    1.5680    4.9119   -7.5316 N   0  0  0  0  0  0  0  0  0  0  0  0
    1.0116    4.4588   -6.2492 C   0  0  2  0  0  0  0  0  0  0  0  0
    1.9197    4.8537   -5.0605 C   0  0  0  0  0  0  0  0  0  0  0  0
    2.9927    5.4115   -5.2756 O   0  0  0  0  0  0  0  0  0  0  0  0
    0.7855    2.9407   -6.3112 C   0  0  0  0  0  0  0  0  0  0  0  0
    2.3719    2.0077   -6.4067 S   0  0  0  0  0  0  0  0  0  0  0  0
    2.5558    5.1637   -7.5380 H   0  0  0  0  0  0  0  0  0  0  0  0
    0.0464    4.9482   -6.0836 H   0  0  0  0  0  0  0  0  0  0  0  0
    0.2340    2.6286   -5.4223 H   0  0  0  0  0  0  0  0  0  0  0  0
    0.1673    2.6913   -7.1792 H   0  0  0  0  0  0  0  0  0  0  0  0
    1.5342    4.6252   -3.7514 N   0  0  0  0  0  0  0  0  0  0  0  0
    2.4327    4.8049   -2.6188 C   0  0  0  0  0  0  0  0  0  0  0  0
    0.6896    4.0687   -3.5942 H   0  0  0  0  0  0  0  0  0  0  0  0
    3.3063    4.1522   -2.7159 H   0  0  0  0  0  0  0  0  0  0  0  0
    2.7712    5.8439   -2.5555 H   0  0  0  0  0  0  0  0  0  0  0  0
    1.9162    4.5507   -1.6880 H   0  0  0  0  0  0  0  0  0  0  0  0
   -3.3457   -0.1178   -1.5808 C   0  0  0  0  0  0  0  0  0  0  0  0
   -2.6930   -0.8952   -2.2634 O   0  0  0  0  0  0  0  0  0  0  0  0
   -4.1246   -0.6086   -0.3762 C   0  0  0  0  0  0  0  0  0  0  0  0
   -5.1973   -0.5374   -0.5694 H   0  0  0  0  0  0  0  0  0  0  0  0
   -3.8710   -1.6511   -0.1632 H   0  0  0  0  0  0  0  0  0  0  0  0
   -3.8785   -0.0060    0.5016 H   0  0  0  0  0  0  0  0  0  0  0  0
   -3.3652    1.2202   -1.9227 N   0  0  0  0  0  0  0  0  0  0  0  0
   -2.7464    1.7733   -3.1390 C   0  0  2  0  0  0  0  0  0  0  0  0
   -1.2002    1.7853   -3.0683 C   0  0  0  0  0  0  0  0  0  0  0  0
   -0.5794    2.8189   -2.8507 O   0  0  0  0  0  0  0  0  0  0  0  0
   -3.3343    3.1723   -3.3602 C   0  0  0  0  0  0  0  0  0  0  0  0
   -3.8976    1.8441   -1.3223 H   0  0  0  0  0  0  0  0  0  0  0  0
   -3.0272    1.1556   -3.9991 H   0  0  0  0  0  0  0  0  0  0  0  0
   -3.0902    3.8317   -2.5208 H   0  0  0  0  0  0  0  0  0  0  0  0
   -2.9277    3.6135   -4.2759 H   0  0  0  0  0  0  0  0  0  0  0  0
   -4.4230    3.1184   -3.4576 H   0  0  0  0  0  0  0  0  0  0  0  0
   -0.5246    0.5945   -3.2659 N   0  0  0  0  0  0  0  0  0  0  0  0
    0.8367    0.2801   -2.7850 C   0  0  2  0  0  0  0  0  0  0  0  0
    1.0188    0.7207   -1.3133 C   0  0  0  0  0  0  0  0  0  0  0  0
    1.9254    1.4612   -0.9477 O   0  0  0  0  0  0  0  0  0  0  0  0
    1.8772    0.9559   -3.6900 C   0  0  0  0  0  0  0  0  0  0  0  0
    1.8158    0.2691   -5.3925 S   0  0  0  0  0  0  0  0  0  0  0  0
   -1.1625   -0.2051   -3.3256 H   0  0  0  0  0  0  0  0  0  0  0  0
    0.9956   -0.8014   -2.8250 H   0  0  0  0  0  0  0  0  0  0  0  0
    1.7113    2.0325   -3.7063 H   0  0  0  0  0  0  0  0  0  0  0  0
    2.8831    0.7939   -3.2893 H   0  0  0  0  0  0  0  0  0  0  0  0
    0.1877    0.1693   -0.3563 N   0  0  0  0  0  0  0  0  0  0  0  0
    0.1671    0.5639    1.0568 C   0  0  2  0  0  0  0  0  0  0  0  0
   -0.5941   -0.4635    1.9168 C   0  0  0  0  0  0  0  0  0  0  0  0
   -1.5195   -1.1034    1.4294 O   0  0  0  0  0  0  0  0  0  0  0  0
   -0.5058    1.9371    1.1769 C   0  0  0  0  0  0  0  0  0  0  0  0
   -0.5610   -0.4431   -0.6832 H   0  0  0  0  0  0  0  0  0  0  0  0
    1.1939    0.6259    1.4325 H   0  0  0  0  0  0  0  0  0  0  0  0
   -1.5245    1.8992    0.7780 H   0  0  0  0  0  0  0  0  0  0  0  0
   -0.5519    2.2505    2.2243 H   0  0  0  0  0  0  0  0  0  0  0  0
    0.0564    2.6920    0.6180 H   0  0  0  0  0  0  0  0  0  0  0  0
   -0.2674   -0.6473    3.2472 N   0  0  0  0  0  0  0  0  0  0  0  0
   -0.9205   -1.6319    4.1011 C   0  0  0  0  0  0  0  0  0  0  0  0
    0.5255   -0.1278    3.6134 H   0  0  0  0  0  0  0  0  0  0  0  0
   -1.9944   -1.4289    4.1685 H   0  0  0  0  0  0  0  0  0  0  0  0
   -0.7765   -2.6411    3.7010 H   0  0  0  0  0  0  0  0  0  0  0  0
   -0.4983   -1.5968    5.1099 H   0  0  0  0  0  0  0  0  0  0  0  0
  1  2  2  0  0  0  0
  1  3  1  0  0  0  0
  1  7  1  0  0  0  0
  3  4  1  0  0  0  0
  3  5  1  0  0  0  0
  3  6  1  0  0  0  0
  7  8  1  0  0  0  0
  7 13  1  0  0  0  0
  8  9  1  0  0  0  0
  8 11  1  0  0  0  0
  8 14  1  0  0  0  0
  9 10  2  0  0  0  0
  9 17  1  0  0  0  0
 11 12  1  0  0  0  0
 11 15  1  0  0  0  0
 11 16  1  0  0  0  0
 12 44  1  0  0  0  0
 17 18  1  0  0  0  0
 17 19  1  0  0  0  0
 18 20  1  0  0  0  0
 18 21  1  0  0  0  0
 18 22  1  0  0  0  0
 23 24  2  0  0  0  0
 23 25  1  0  0  0  0
 23 29  1  0  0  0  0
 25 26  1  0  0  0  0
 25 27  1  0  0  0  0
 25 28  1  0  0  0  0
 29 30  1  0  0  0  0
 29 34  1  0  0  0  0
 30 31  1  0  0  0  0
 30 33  1  0  0  0  0
 30 35  1  0  0  0  0
 31 32  2  0  0  0  0
 31 39  1  0  0  0  0
 33 36  1  0  0  0  0
 33 37  1  0  0  0  0
 33 38  1  0  0  0  0
 39 40  1  0  0  0  0
 39 45  1  0  0  0  0
 40 41  1  0  0  0  0
 40 43  1  0  0  0  0
 40 46  1  0  0  0  0
 41 42  2  0  0  0  0
 41 49  1  0  0  0  0
 43 44  1  0  0  0  0
 43 47  1  0  0  0  0
 43 48  1  0  0  0  0
 49 50  1  0  0  0  0
 49 54  1  0  0  0  0
 50 51  1  0  0  0  0
 50 53  1  0  0  0  0
 50 55  1  0  0  0  0
 51 52  2  0  0  0  0
 51 59  1  0  0  0  0
 53 56  1  0  0  0  0
 53 57  1  0  0  0  0
 53 58  1  0  0  0  0
 59 60  1  0  0  0  0
 59 61  1  0  0  0  0
 60 62  1  0  0  0  0
 60 63  1  0  0  0  0
 60 64  1  0  0  0  0
M  END
$$$$

  -OEChem-05262216053D

 64 63  0     1  0  0  0  0  0999 V2000
    0.9720    5.1527   -8.8656 C   0  0  0  0  0  0  0  0  0  0  0  0
   -0.2362    4.9779   -8.9081 O   0  0  0  0  0  0  0  0  0  0  0  0
    1.7160    5.6406  -10.0943 C   0  0  0  0  0  0  0  0  0  0  0  0
    2.4756    4.9103  -10.3841 H   0  0  0  0  0  0  0  0  0  0  0  0
    1.0204    5.7756  -10.9273 H   0  0  0  0  0  0  0  0  0  0  0  0
    2.2013    6.5962   -9.8815 H   0  0  0  0  0  0  0  0  0  0  0  0
    1.6608    4.9138   -7.6974 N   0  0  0  0  0  0  0  0  0  0  0  0
    1.0411    4.5159   -6.4252 C   0  0  2  0  0  0  0  0  0  0  0  0
    1.9079    4.9340   -5.2133 C   0  0  0  0  0  0  0  0  0  0  0  0
    2.9824    5.4988   -5.4017 O   0  0  0  0  0  0  0  0  0  0  0  0
    0.7864    3.0011   -6.4466 C   0  0  0  0  0  0  0  0  0  0  0  0
    2.3594    2.0429   -6.4983 S   0  0  0  0  0  0  0  0  0  0  0  0
    2.6517    5.1515   -7.6695 H   0  0  0  0  0  0  0  0  0  0  0  0
    0.0808    5.0305   -6.3170 H   0  0  0  0  0  0  0  0  0  0  0  0
    0.2179    2.7223   -5.5570 H   0  0  0  0  0  0  0  0  0  0  0  0
    0.1753    2.7382   -7.3157 H   0  0  0  0  0  0  0  0  0  0  0  0
    1.4817    4.7258   -3.9136 N   0  0  0  0  0  0  0  0  0  0  0  0
    2.3306    4.9551   -2.7521 C   0  0  0  0  0  0  0  0  0  0  0  0
    0.6416    4.1581   -3.7723 H   0  0  0  0  0  0  0  0  0  0  0  0
    3.2206    4.3189   -2.7963 H   0  0  0  0  0  0  0  0  0  0  0  0
    2.6449    6.0025   -2.7041 H   0  0  0  0  0  0  0  0  0  0  0  0
    1.7825    4.7160   -1.8353 H   0  0  0  0  0  0  0  0  0  0  0  0
   -3.1583   -0.1138   -1.4296 C   0  0  0  0  0  0  0  0  0  0  0  0
   -2.6310   -0.8750   -2.2282 O   0  0  0  0  0  0  0  0  0  0  0  0
   -3.6992   -0.6347   -0.1122 C   0  0  0  0  0  0  0  0  0  0  0  0
   -4.7893   -0.5639   -0.1015 H   0  0  0  0  0  0  0  0  0  0  0  0
   -3.4114   -1.6812    0.0260 H   0  0  0  0  0  0  0  0  0  0  0  0
   -3.2943   -0.0523    0.7188 H   0  0  0  0  0  0  0  0  0  0  0  0
   -3.2281    1.2330   -1.7296 N   0  0  0  0  0  0  0  0  0  0  0  0
   -2.7790    1.8255   -3.0019 C   0  0  2  0  0  0  0  0  0  0  0  0
   -1.2361    1.8739   -3.1149 C   0  0  0  0  0  0  0  0  0  0  0  0
   -0.6200    2.9257   -3.0005 O   0  0  0  0  0  0  0  0  0  0  0  0
   -3.4231    3.2126   -3.1188 C   0  0  0  0  0  0  0  0  0  0  0  0
   -3.6299    1.8452   -1.0246 H   0  0  0  0  0  0  0  0  0  0  0  0
   -3.1469    1.2165   -3.8351 H   0  0  0  0  0  0  0  0  0  0  0  0
   -3.0922    3.8630   -2.3027 H   0  0  0  0  0  0  0  0  0  0  0  0
   -3.1439    3.6803   -4.0682 H   0  0  0  0  0  0  0  0  0  0  0  0
   -4.5137    3.1319   -3.0822 H   0  0  0  0  0  0  0  0  0  0  0  0
   -0.5606    0.6837   -3.3097 N   0  0  0  0  0  0  0  0  0  0  0  0
    0.8068    0.3825   -2.8422 C   0  0  2  0  0  0  0  0  0  0  0  0
    1.0052    0.8413   -1.3777 C   0  0  0  0  0  0  0  0  0  0  0  0
    1.7812    1.7371   -1.0637 O   0  0  0  0  0  0  0  0  0  0  0  0
    1.8365    1.0476   -3.7669 C   0  0  0  0  0  0  0  0  0  0  0  0
    1.7605    0.3354   -5.4583 S   0  0  0  0  0  0  0  0  0  0  0  0
   -1.1988   -0.1182   -3.3118 H   0  0  0  0  0  0  0  0  0  0  0  0
    0.9702   -0.6989   -2.8738 H   0  0  0  0  0  0  0  0  0  0  0  0
    1.6650    2.1230   -3.8009 H   0  0  0  0  0  0  0  0  0  0  0  0
    2.8463    0.8981   -3.3716 H   0  0  0  0  0  0  0  0  0  0  0  0
    0.4264    0.0910   -0.3706 N   0  0  0  0  0  0  0  0  0  0  0  0
    0.5051    0.4005    1.0630 C   0  0  2  0  0  0  0  0  0  0  0  0
   -0.0483   -0.7606    1.9127 C   0  0  0  0  0  0  0  0  0  0  0  0
   -0.9020   -1.5062    1.4447 O   0  0  0  0  0  0  0  0  0  0  0  0
   -0.2992    1.6736    1.3624 C   0  0  0  0  0  0  0  0  0  0  0  0
   -0.2074   -0.6594   -0.6493 H   0  0  0  0  0  0  0  0  0  0  0  0
    1.5527    0.5581    1.3399 H   0  0  0  0  0  0  0  0  0  0  0  0
   -1.3426    1.5474    1.0588 H   0  0  0  0  0  0  0  0  0  0  0  0
   -0.2720    1.8988    2.4329 H   0  0  0  0  0  0  0  0  0  0  0  0
    0.1166    2.5311    0.8245 H   0  0  0  0  0  0  0  0  0  0  0  0
    0.3819   -0.9487    3.2127 N   0  0  0  0  0  0  0  0  0  0  0  0
   -0.0850   -2.0393    4.0601 C   0  0  0  0  0  0  0  0  0  0  0  0
    1.1103   -0.3324    3.5620 H   0  0  0  0  0  0  0  0  0  0  0  0
   -1.1699   -1.9824    4.1973 H   0  0  0  0  0  0  0  0  0  0  0  0
    0.1634   -3.0067    3.6111 H   0  0  0  0  0  0  0  0  0  0  0  0
    0.3900   -1.9830    5.0442 H   0  0  0  0  0  0  0  0  0  0  0  0
  1  2  2  0  0  0  0
  1  3  1  0  0  0  0
  1  7  1  0  0  0  0
  3  4  1  0  0  0  0
  3  5  1  0  0  0  0
  3  6  1  0  0  0  0
  7  8  1  0  0  0  0
  7 13  1  0  0  0  0
  8  9  1  0  0  0  0
  8 11  1  0  0  0  0
  8 14  1  0  0  0  0
  9 10  2  0  0  0  0
  9 17  1  0  0  0  0
 11 12  1  0  0  0  0
 11 15  1  0  0  0  0
 11 16  1  0  0  0  0
 12 44  1  0  0  0  0
 17 18  1  0  0  0  0
 17 19  1  0  0  0  0
 18 20  1  0  0  0  0
 18 21  1  0  0  0  0
 18 22  1  0  0  0  0
 23 24  2  0  0  0  0
 23 25  1  0  0  0  0
 23 29  1  0  0  0  0
 25 26  1  0  0  0  0
 25 27  1  0  0  0  0
 25 28  1  0  0  0  0
 29 30  1  0  0  0  0
 29 34  1  0  0  0  0
 30 31  1  0  0  0  0
 30 33  1  0  0  0  0
 30 35  1  0  0  0  0
 31 32  2  0  0  0  0
 31 39  1  0  0  0  0
 33 36  1  0  0  0  0
 33 37  1  0  0  0  0
 33 38  1  0  0  0  0
 39 40  1  0  0  0  0
 39 45  1  0  0  0  0
 40 41  1  0  0  0  0
 40 43  1  0  0  0  0
 40 46  1  0  0  0  0
 41 42  2  0  0  0  0
 41 49  1  0  0  0  0
 43 44  1  0  0  0  0
 43 47  1  0  0  0  0
 43 48  1  0  0  0  0
 49 50  1  0  0  0  0
 49 54  1  0  0  0  0
 50 51  1  0  0  0  0
 50 53  1  0  0  0  0
 50 55  1  0  0  0  0
 51 52  2  0  0  0  0
 51 59  1  0  0  0  0
 53 56  1  0  0  0  0
 53 57  1  0  0  0  0
 53 58  1  0  0  0  0
 59 60  1  0  0  0  0
 59 61  1  0  0  0  0
 60 62  1  0  0  0  0
 60 63  1  0  0  0  0
 60 64  1  0  0  0  0
M  END
$$$$

  -OEChem-05262216053D

 64 63  0     1  0  0  0  0  0999 V2000
    1.0174    4.9938   -8.9136 C   0  0  0  0  0  0  0  0  0  0  0  0
   -0.1898    4.8146   -8.9655 O   0  0  0  0  0  0  0  0  0  0  0  0
    1.7767    5.4459  -10.1469 C   0  0  0  0  0  0  0  0  0  0  0  0
    2.5368    4.7053  -10.4073 H   0  0  0  0  0  0  0  0  0  0  0  0
    1.0916    5.5603  -10.9918 H   0  0  0  0  0  0  0  0  0  0  0  0
    2.2640    6.4050   -9.9548 H   0  0  0  0  0  0  0  0  0  0  0  0
    1.6936    4.7919   -7.7313 N   0  0  0  0  0  0  0  0  0  0  0  0
    1.0610    4.4445   -6.4511 C   0  0  2  0  0  0  0  0  0  0  0  0
    1.9140    4.9199   -5.2509 C   0  0  0  0  0  0  0  0  0  0  0  0
    2.9862    5.4842   -5.4540 O   0  0  0  0  0  0  0  0  0  0  0  0
    0.8137    2.9289   -6.4116 C   0  0  0  0  0  0  0  0  0  0  0  0
    2.3867    1.9709   -6.3761 S   0  0  0  0  0  0  0  0  0  0  0  0
    2.6812    5.0425   -7.6987 H   0  0  0  0  0  0  0  0  0  0  0  0
    0.0966    4.9577   -6.3740 H   0  0  0  0  0  0  0  0  0  0  0  0
    0.2225    2.6891   -5.5261 H   0  0  0  0  0  0  0  0  0  0  0  0
    0.2262    2.6241   -7.2831 H   0  0  0  0  0  0  0  0  0  0  0  0
    1.4796    4.7626   -3.9472 N   0  0  0  0  0  0  0  0  0  0  0  0
    2.3156    5.0479   -2.7891 C   0  0  0  0  0  0  0  0  0  0  0  0
    0.6346    4.2070   -3.7872 H   0  0  0  0  0  0  0  0  0  0  0  0
    3.2361    4.4557   -2.8253 H   0  0  0  0  0  0  0  0  0  0  0  0
    2.5776    6.1104   -2.7552 H   0  0  0  0  0  0  0  0  0  0  0  0
    1.7787    4.7930   -1.8696 H   0  0  0  0  0  0  0  0  0  0  0  0
   -3.4468    0.1602   -1.6102 C   0  0  0  0  0  0  0  0  0  0  0  0
   -2.9255   -0.6568   -2.3553 O   0  0  0  0  0  0  0  0  0  0  0  0
   -4.0020   -0.2735   -0.2674 C   0  0  0  0  0  0  0  0  0  0  0  0
   -5.0738   -0.0665   -0.2210 H   0  0  0  0  0  0  0  0  0  0  0  0
   -3.8443   -1.3464   -0.1234 H   0  0  0  0  0  0  0  0  0  0  0  0
   -3.4983    0.2658    0.5383 H   0  0  0  0  0  0  0  0  0  0  0  0
   -3.4577    1.4927   -1.9714 N   0  0  0  0  0  0  0  0  0  0  0  0
   -2.8639    2.0099   -3.2144 C   0  0  2  0  0  0  0  0  0  0  0  0
   -1.3174    2.0065   -3.1588 C   0  0  0  0  0  0  0  0  0  0  0  0
   -0.6846    3.0471   -3.0394 O   0  0  0  0  0  0  0  0  0  0  0  0
   -3.4479    3.4060   -3.4650 C   0  0  0  0  0  0  0  0  0  0  0  0
   -3.8141    2.1586   -1.2908 H   0  0  0  0  0  0  0  0  0  0  0  0
   -3.1613    1.3717   -4.0538 H   0  0  0  0  0  0  0  0  0  0  0  0
   -3.1955    4.0853   -2.6441 H   0  0  0  0  0  0  0  0  0  0  0  0
   -3.0469    3.8229   -4.3946 H   0  0  0  0  0  0  0  0  0  0  0  0
   -4.5374    3.3535   -3.5541 H   0  0  0  0  0  0  0  0  0  0  0  0
   -0.6614    0.7939   -3.2654 N   0  0  0  0  0  0  0  0  0  0  0  0
    0.6772    0.4723   -2.7288 C   0  0  2  0  0  0  0  0  0  0  0  0
    0.8724    0.9732   -1.2758 C   0  0  0  0  0  0  0  0  0  0  0  0
    1.4776    2.0049   -1.0069 O   0  0  0  0  0  0  0  0  0  0  0  0
    1.7620    1.0719   -3.6360 C   0  0  0  0  0  0  0  0  0  0  0  0
    1.7396    0.3008   -5.3028 S   0  0  0  0  0  0  0  0  0  0  0  0
   -1.3171    0.0069   -3.2942 H   0  0  0  0  0  0  0  0  0  0  0  0
    0.8065   -0.6141   -2.7225 H   0  0  0  0  0  0  0  0  0  0  0  0
    1.6231    2.1503   -3.7162 H   0  0  0  0  0  0  0  0  0  0  0  0
    2.7495    0.9095   -3.1924 H   0  0  0  0  0  0  0  0  0  0  0  0
    0.5305    0.1336   -0.2316 N   0  0  0  0  0  0  0  0  0  0  0  0
    0.8600    0.3713    1.1795 C   0  0  2  0  0  0  0  0  0  0  0  0
    0.9355   -0.9514    1.9681 C   0  0  0  0  0  0  0  0  0  0  0  0
    0.3940   -1.9590    1.5264 O   0  0  0  0  0  0  0  0  0  0  0  0
   -0.2025    1.2938    1.7856 C   0  0  0  0  0  0  0  0  0  0  0  0
    0.1253   -0.7738   -0.4634 H   0  0  0  0  0  0  0  0  0  0  0  0
    1.8411    0.8530    1.2506 H   0  0  0  0  0  0  0  0  0  0  0  0
   -1.1893    0.8232    1.7381 H   0  0  0  0  0  0  0  0  0  0  0  0
    0.0308    1.5103    2.8324 H   0  0  0  0  0  0  0  0  0  0  0  0
   -0.2410    2.2417    1.2393 H   0  0  0  0  0  0  0  0  0  0  0  0
    1.6155   -1.0135    3.1703 N   0  0  0  0  0  0  0  0  0  0  0  0
    1.7654   -2.2420    3.9411 C   0  0  0  0  0  0  0  0  0  0  0  0
    2.0837   -0.1709    3.4919 H   0  0  0  0  0  0  0  0  0  0  0  0
    0.7858   -2.6272    4.2431 H   0  0  0  0  0  0  0  0  0  0  0  0
    2.2775   -3.0070    3.3479 H   0  0  0  0  0  0  0  0  0  0  0  0
    2.3554   -2.0531    4.8432 H   0  0  0  0  0  0  0  0  0  0  0  0
  1  2  2  0  0  0  0
  1  3  1  0  0  0  0
  1  7  1  0  0  0  0
  3  4  1  0  0  0  0
  3  5  1  0  0  0  0
  3  6  1  0  0  0  0
  7  8  1  0  0  0  0
  7 13  1  0  0  0  0
  8  9  1  0  0  0  0
  8 11  1  0  0  0  0
  8 14  1  0  0  0  0
  9 10  2  0  0  0  0
  9 17  1  0  0  0  0
 11 12  1  0  0  0  0
 11 15  1  0  0  0  0
 11 16  1  0  0  0  0
 12 44  1  0  0  0  0
 17 18  1  0  0  0  0
 17 19  1  0  0  0  0
 18 20  1  0  0  0  0
 18 21  1  0  0  0  0
 18 22  1  0  0  0  0
 23 24  2  0  0  0  0
 23 25  1  0  0  0  0
 23 29  1  0  0  0  0
 25 26  1  0  0  0  0
 25 27  1  0  0  0  0
 25 28  1  0  0  0  0
 29 30  1  0  0  0  0
 29 34  1  0  0  0  0
 30 31  1  0  0  0  0
 30 33  1  0  0  0  0
 30 35  1  0  0  0  0
 31 32  2  0  0  0  0
 31 39  1  0  0  0  0
 33 36  1  0  0  0  0
 33 37  1  0  0  0  0
 33 38  1  0  0  0  0
 39 40  1  0  0  0  0
 39 45  1  0  0  0  0
 40 41  1  0  0  0  0
 40 43  1  0  0  0  0
 40 46  1  0  0  0  0
 41 42  2  0  0  0  0
 41 49  1  0  0  0  0
 43 44  1  0  0  0  0
 43 47  1  0  0  0  0
 43 48  1  0  0  0  0
 49 50  1  0  0  0  0
 49 54  1  0  0  0  0
 50 51  1  0  0  0  0
 50 53  1  0  0  0  0
 50 55  1  0  0  0  0
 51 52  2  0  0  0  0
 51 59  1  0  0  0  0
 53 56  1  0  0  0  0
 53 57  1  0  0  0  0
 53 58  1  0  0  0  0
 59 60  1  0  0  0  0
 59 61  1  0  0  0  0
 60 62  1  0  0  0  0
 60 63  1  0  0  0  0
 60 64  1  0  0  0  0
M  END
$$$$

  -OEChem-05262216053D

 64 63  0     1  0  0  0  0  0999 V2000
    1.1225    4.9452   -8.9982 C   0  0  0  0  0  0  0  0  0  0  0  0
   -0.0857    4.7798   -9.0701 O   0  0  0  0  0  0  0  0  0  0  0  0
    1.9092    5.3652  -10.2253 C   0  0  0  0  0  0  0  0  0  0  0  0
    2.6654    4.6114  -10.4576 H   0  0  0  0  0  0  0  0  0  0  0  0
    1.2412    5.4718  -11.0847 H   0  0  0  0  0  0  0  0  0  0  0  0
    2.4031    6.3225  -10.0424 H   0  0  0  0  0  0  0  0  0  0  0  0
    1.7741    4.7569   -7.7997 N   0  0  0  0  0  0  0  0  0  0  0  0
    1.1126    4.4352   -6.5275 C   0  0  2  0  0  0  0  0  0  0  0  0
    1.9478    4.9108   -5.3147 C   0  0  0  0  0  0  0  0  0  0  0  0
    3.0427    5.4370   -5.4984 O   0  0  0  0  0  0  0  0  0  0  0  0
    0.8399    2.9244   -6.4721 C   0  0  0  0  0  0  0  0  0  0  0  0
    2.3972    1.9441   -6.3843 S   0  0  0  0  0  0  0  0  0  0  0  0
    2.7640    4.9950   -7.7518 H   0  0  0  0  0  0  0  0  0  0  0  0
    0.1558    4.9650   -6.4761 H   0  0  0  0  0  0  0  0  0  0  0  0
    0.2240    2.7056   -5.5976 H   0  0  0  0  0  0  0  0  0  0  0  0
    0.2692    2.6159   -7.3534 H   0  0  0  0  0  0  0  0  0  0  0  0
    1.4676    4.8000   -4.0225 N   0  0  0  0  0  0  0  0  0  0  0  0
    2.2670    5.1017   -2.8433 C   0  0  0  0  0  0  0  0  0  0  0  0
    0.6087    4.2605   -3.8788 H   0  0  0  0  0  0  0  0  0  0  0  0
    3.1504    4.4565   -2.8046 H   0  0  0  0  0  0  0  0  0  0  0  0
    2.5906    6.1473   -2.8525 H   0  0  0  0  0  0  0  0  0  0  0  0
    1.6746    4.9304   -1.9390 H   0  0  0  0  0  0  0  0  0  0  0  0
   -3.4305    0.2841   -1.4914 C   0  0  0  0  0  0  0  0  0  0  0  0
   -2.9349   -0.5653   -2.2174 O   0  0  0  0  0  0  0  0  0  0  0  0
   -3.9516   -0.0915   -0.1176 C   0  0  0  0  0  0  0  0  0  0  0  0
   -5.0239    0.1113   -0.0575 H   0  0  0  0  0  0  0  0  0  0  0  0
   -3.7825   -1.1554    0.0728 H   0  0  0  0  0  0  0  0  0  0  0  0
   -3.4335    0.4885    0.6500 H   0  0  0  0  0  0  0  0  0  0  0  0
   -3.4540    1.6001   -1.9067 N   0  0  0  0  0  0  0  0  0  0  0  0
   -2.9085    2.0674   -3.1909 C   0  0  2  0  0  0  0  0  0  0  0  0
   -1.3615    2.0641   -3.1962 C   0  0  0  0  0  0  0  0  0  0  0  0
   -0.7280    3.1109   -3.1826 O   0  0  0  0  0  0  0  0  0  0  0  0
   -3.5002    3.4550   -3.4714 C   0  0  0  0  0  0  0  0  0  0  0  0
   -3.7878    2.2932   -1.2423 H   0  0  0  0  0  0  0  0  0  0  0  0
   -3.2374    1.3985   -3.9938 H   0  0  0  0  0  0  0  0  0  0  0  0
   -3.2091    4.1658   -2.6908 H   0  0  0  0  0  0  0  0  0  0  0  0
   -3.1398    3.8336   -4.4336 H   0  0  0  0  0  0  0  0  0  0  0  0
   -4.5925    3.4038   -3.5097 H   0  0  0  0  0  0  0  0  0  0  0  0
   -0.7104    0.8463   -3.2774 N   0  0  0  0  0  0  0  0  0  0  0  0
    0.6243    0.5285   -2.7270 C   0  0  2  0  0  0  0  0  0  0  0  0
    0.8396    1.0427   -1.2813 C   0  0  0  0  0  0  0  0  0  0  0  0
    1.1917    2.1886   -1.0285 O   0  0  0  0  0  0  0  0  0  0  0  0
    1.7187    1.1097   -3.6322 C   0  0  0  0  0  0  0  0  0  0  0  0
    1.7035    0.3104   -5.2858 S   0  0  0  0  0  0  0  0  0  0  0  0
   -1.3754    0.0670   -3.2508 H   0  0  0  0  0  0  0  0  0  0  0  0
    0.7442   -0.5588   -2.7129 H   0  0  0  0  0  0  0  0  0  0  0  0
    1.5838    2.1869   -3.7322 H   0  0  0  0  0  0  0  0  0  0  0  0
    2.7015    0.9518   -3.1773 H   0  0  0  0  0  0  0  0  0  0  0  0
    0.8056    0.1356   -0.2384 N   0  0  0  0  0  0  0  0  0  0  0  0
    1.1886    0.4302    1.1480 C   0  0  2  0  0  0  0  0  0  0  0  0
    1.6653   -0.8421    1.8778 C   0  0  0  0  0  0  0  0  0  0  0  0
    1.3969   -1.9473    1.4194 O   0  0  0  0  0  0  0  0  0  0  0  0
   -0.0187    1.0392    1.8678 C   0  0  0  0  0  0  0  0  0  0  0  0
    0.6298   -0.8438   -0.4643 H   0  0  0  0  0  0  0  0  0  0  0  0
    2.0178    1.1457    1.1589 H   0  0  0  0  0  0  0  0  0  0  0  0
   -0.8583    0.3369    1.8653 H   0  0  0  0  0  0  0  0  0  0  0  0
    0.2339    1.2777    2.9053 H   0  0  0  0  0  0  0  0  0  0  0  0
   -0.3331    1.9616    1.3691 H   0  0  0  0  0  0  0  0  0  0  0  0
    2.4021   -0.7505    3.0439 N   0  0  0  0  0  0  0  0  0  0  0  0
    2.9097   -1.9144    3.7604 C   0  0  0  0  0  0  0  0  0  0  0  0
    2.6460    0.1776    3.3778 H   0  0  0  0  0  0  0  0  0  0  0  0
    2.0834   -2.5622    4.0717 H   0  0  0  0  0  0  0  0  0  0  0  0
    3.5892   -2.4919    3.1246 H   0  0  0  0  0  0  0  0  0  0  0  0
    3.4572   -1.5989    4.6538 H   0  0  0  0  0  0  0  0  0  0  0  0
  1  2  2  0  0  0  0
  1  3  1  0  0  0  0
  1  7  1  0  0  0  0
  3  4  1  0  0  0  0
  3  5  1  0  0  0  0
  3  6  1  0  0  0  0
  7  8  1  0  0  0  0
  7 13  1  0  0  0  0
  8  9  1  0  0  0  0
  8 11  1  0  0  0  0
  8 14  1  0  0  0  0
  9 10  2  0  0  0  0
  9 17  1  0  0  0  0
 11 12  1  0  0  0  0
 11 15  1  0  0  0  0
 11 16  1  0  0  0  0
 12 44  1  0  0  0  0
 17 18  1  0  0  0  0
 17 19  1  0  0  0  0
 18 20  1  0  0  0  0
 18 21  1  0  0  0  0
 18 22  1  0  0  0  0
 23 24  2  0  0  0  0
 23 25  1  0  0  0  0
 23 29  1  0  0  0  0
 25 26  1  0  0  0  0
 25 27  1  0  0  0  0
 25 28  1  0  0  0  0
 29 30  1  0  0  0  0
 29 34  1  0  0  0  0
 30 31  1  0  0  0  0
 30 33  1  0  0  0  0
 30 35  1  0  0  0  0
 31 32  2  0  0  0  0
 31 39  1  0  0  0  0
 33 36  1  0  0  0  0
 33 37  1  0  0  0  0
 33 38  1  0  0  0  0
 39 40  1  0  0  0  0
 39 45  1  0  0  0  0
 40 41  1  0  0  0  0
 40 43  1  0  0  0  0
 40 46  1  0  0  0  0
 41 42  2  0  0  0  0
 41 49  1  0  0  0  0
 43 44  1  0  0  0  0
 43 47  1  0  0  0  0
 43 48  1  0  0  0  0
 49 50  1  0  0  0  0
 49 54  1  0  0  0  0
 50 51  1  0  0  0  0
 50 53  1  0  0  0  0
 50 55  1  0  0  0  0
 51 52  2  0  0  0  0
 51 59  1  0  0  0  0
 53 56  1  0  0  0  0
 53 57  1  0  0  0  0
 53 58  1  0  0  0  0
 59 60  1  0  0  0  0
 59 61  1  0  0  0  0
 60 62  1  0  0  0  0
 60 63  1  0  0  0  0
 60 64  1  0  0  0  0
M  END
$$$$

  -OEChem-05262216053D

 64 63  0     1  0  0  0  0  0999 V2000
    1.2557    4.9377   -9.1224 C   0  0  0  0  0  0  0  0  0  0  0  0
    0.0497    4.7805   -9.2345 O   0  0  0  0  0  0  0  0  0  0  0  0
    2.0768    5.3886  -10.3155 C   0  0  0  0  0  0  0  0  0  0  0  0
    2.8433    4.6441  -10.5434 H   0  0  0  0  0  0  0  0  0  0  0  0
    1.4325    5.5112  -11.1905 H   0  0  0  0  0  0  0  0  0  0  0  0
    2.5594    6.3440  -10.0966 H   0  0  0  0  0  0  0  0  0  0  0  0
    1.8697    4.7180   -7.9089 N   0  0  0  0  0  0  0  0  0  0  0  0
    1.1587    4.4058   -6.6611 C   0  0  2  0  0  0  0  0  0  0  0  0
    1.9231    4.9258   -5.4212 C   0  0  0  0  0  0  0  0  0  0  0  0
    3.0125    5.4763   -5.5620 O   0  0  0  0  0  0  0  0  0  0  0  0
    0.9159    2.8912   -6.5893 C   0  0  0  0  0  0  0  0  0  0  0  0
    2.4828    1.9440   -6.3910 S   0  0  0  0  0  0  0  0  0  0  0  0
    2.8541    4.9669   -7.8219 H   0  0  0  0  0  0  0  0  0  0  0  0
    0.1881    4.9128   -6.6628 H   0  0  0  0  0  0  0  0  0  0  0  0
    0.2562    2.6770   -5.7466 H   0  0  0  0  0  0  0  0  0  0  0  0
    0.4015    2.5542   -7.4948 H   0  0  0  0  0  0  0  0  0  0  0  0
    1.3824    4.8289   -4.1524 N   0  0  0  0  0  0  0  0  0  0  0  0
    2.1037    5.1989   -2.9431 C   0  0  0  0  0  0  0  0  0  0  0  0
    0.5260    4.2774   -4.0403 H   0  0  0  0  0  0  0  0  0  0  0  0
    3.0237    4.6126   -2.8503 H   0  0  0  0  0  0  0  0  0  0  0  0
    2.3602    6.2632   -2.9585 H   0  0  0  0  0  0  0  0  0  0  0  0
    1.4810    5.0048   -2.0639 H   0  0  0  0  0  0  0  0  0  0  0  0
   -3.2751    0.2857   -1.3096 C   0  0  0  0  0  0  0  0  0  0  0  0
   -2.8485   -0.5914   -2.0469 O   0  0  0  0  0  0  0  0  0  0  0  0
   -3.6437   -0.0322    0.1264 C   0  0  0  0  0  0  0  0  0  0  0  0
   -4.6998    0.1907    0.2971 H   0  0  0  0  0  0  0  0  0  0  0  0
   -3.4693   -1.0916    0.3344 H   0  0  0  0  0  0  0  0  0  0  0  0
   -3.0360    0.5655    0.8099 H   0  0  0  0  0  0  0  0  0  0  0  0
   -3.3605    1.5813   -1.7765 N   0  0  0  0  0  0  0  0  0  0  0  0
   -2.9571    1.9950   -3.1295 C   0  0  2  0  0  0  0  0  0  0  0  0
   -1.4180    2.0320   -3.2856 C   0  0  0  0  0  0  0  0  0  0  0  0
   -0.8228    3.0907   -3.4439 O   0  0  0  0  0  0  0  0  0  0  0  0
   -3.6207    3.3485   -3.4129 C   0  0  0  0  0  0  0  0  0  0  0  0
   -3.6017    2.3043   -1.1034 H   0  0  0  0  0  0  0  0  0  0  0  0
   -3.3419    1.2771   -3.8622 H   0  0  0  0  0  0  0  0  0  0  0  0
   -3.2737    4.1054   -2.7018 H   0  0  0  0  0  0  0  0  0  0  0  0
   -3.3752    3.6866   -4.4247 H   0  0  0  0  0  0  0  0  0  0  0  0
   -4.7088    3.2644   -3.3328 H   0  0  0  0  0  0  0  0  0  0  0  0
   -0.7348    0.8291   -3.3304 N   0  0  0  0  0  0  0  0  0  0  0  0
    0.6001    0.5742   -2.7463 C   0  0  2  0  0  0  0  0  0  0  0  0
    0.7906    1.1238   -1.3098 C   0  0  0  0  0  0  0  0  0  0  0  0
    0.7500    2.3171   -1.0386 O   0  0  0  0  0  0  0  0  0  0  0  0
    1.6978    1.1716   -3.6367 C   0  0  0  0  0  0  0  0  0  0  0  0
    1.7568    0.3373   -5.2728 S   0  0  0  0  0  0  0  0  0  0  0  0
   -1.3831    0.0432   -3.2221 H   0  0  0  0  0  0  0  0  0  0  0  0
    0.7515   -0.5081   -2.7068 H   0  0  0  0  0  0  0  0  0  0  0  0
    1.5288    2.2405   -3.7654 H   0  0  0  0  0  0  0  0  0  0  0  0
    2.6741    1.0581   -3.1549 H   0  0  0  0  0  0  0  0  0  0  0  0
    1.0929    0.2435   -0.2874 N   0  0  0  0  0  0  0  0  0  0  0  0
    1.4266    0.6339    1.0882 C   0  0  2  0  0  0  0  0  0  0  0  0
    2.2686   -0.4525    1.7893 C   0  0  0  0  0  0  0  0  0  0  0  0
    2.3560   -1.5723    1.2974 O   0  0  0  0  0  0  0  0  0  0  0  0
    0.1234    0.8825    1.8559 C   0  0  0  0  0  0  0  0  0  0  0  0
    1.2281   -0.7394   -0.5263 H   0  0  0  0  0  0  0  0  0  0  0  0
    2.0227    1.5527    1.0737 H   0  0  0  0  0  0  0  0  0  0  0  0
   -0.4907   -0.0236    1.8686 H   0  0  0  0  0  0  0  0  0  0  0  0
    0.3354    1.1754    2.8884 H   0  0  0  0  0  0  0  0  0  0  0  0
   -0.4497    1.6859    1.3826 H   0  0  0  0  0  0  0  0  0  0  0  0
    2.9390   -0.1727    2.9655 N   0  0  0  0  0  0  0  0  0  0  0  0
    3.7792   -1.1441    3.6556 C   0  0  0  0  0  0  0  0  0  0  0  0
    2.8774    0.7731    3.3315 H   0  0  0  0  0  0  0  0  0  0  0  0
    3.1881   -2.0135    3.9624 H   0  0  0  0  0  0  0  0  0  0  0  0
    4.5898   -1.4825    3.0015 H   0  0  0  0  0  0  0  0  0  0  0  0
    4.2215   -0.6942    4.5495 H   0  0  0  0  0  0  0  0  0  0  0  0
  1  2  2  0  0  0  0
  1  3  1  0  0  0  0
  1  7  1  0  0  0  0
  3  4  1  0  0  0  0
  3  5  1  0  0  0  0
  3  6  1  0  0  0  0
  7  8  1  0  0  0  0
  7 13  1  0  0  0  0
  8  9  1  0  0  0  0
  8 11  1  0  0  0  0
  8 14  1  0  0  0  0
  9 10  2  0  0  0  0
  9 17  1  0  0  0  0
 11 12  1  0  0  0  0
 11 15  1  0  0  0  0
 11 16  1  0  0  0  0
 12 44  1  0  0  0  0
 17 18  1  0  0  0  0
 17 19  1  0  0  0  0
 18 20  1  0  0  0  0
 18 21  1  0  0  0  0
 18 22  1  0  0  0  0
 23 24  2  0  0  0  0
 23 25  1  0  0  0  0
 23 29  1  0  0  0  0
 25 26  1  0  0  0  0
 25 27  1  0  0  0  0
 25 28  1  0  0  0  0
 29 30  1  0  0  0  0
 29 34  1  0  0  0  0
 30 31  1  0  0  0  0
 30 33  1  0  0  0  0
 30 35  1  0  0  0  0
 31 32  2  0  0  0  0
 31 39  1  0  0  0  0
 33 36  1  0  0  0  0
 33 37  1  0  0  0  0
 33 38  1  0  0  0  0
 39 40  1  0  0  0  0
 39 45  1  0  0  0  0
 40 41  1  0  0  0  0
 40 43  1  0  0  0  0
 40 46  1  0  0  0  0
 41 42  2  0  0  0  0
 41 49  1  0  0  0  0
 43 44  1  0  0  0  0
 43 47  1  0  0  0  0
 43 48  1  0  0  0  0
 49 50  1  0  0  0  0
 49 54  1  0  0  0  0
 50 51  1  0  0  0  0
 50 53  1  0  0  0  0
 50 55  1  0  0  0  0
 51 52  2  0  0  0  0
 51 59  1  0  0  0  0
 53 56  1  0  0  0  0
 53 57  1  0  0  0  0
 53 58  1  0  0  0  0
 59 60  1  0  0  0  0
 59 61  1  0  0  0  0
 60 62  1  0  0  0  0
 60 63  1  0  0  0  0
 60 64  1  0  0  0  0
M  END
$$$$

  -OEChem-05262216053D

 64 63  0     1  0  0  0  0  0999 V2000
    1.5518    4.8553   -9.2207 C   0  0  0  0  0  0  0  0  0  0  0  0
    0.3712    4.6495   -9.4559 O   0  0  0  0  0  0  0  0  0  0  0  0
    2.4802    5.3057  -10.3328 C   0  0  0  0  0  0  0  0  0  0  0  0
    3.2943    4.5871  -10.4542 H   0  0  0  0  0  0  0  0  0  0  0  0
    1.9308    5.3775  -11.2756 H   0  0  0  0  0  0  0  0  0  0  0  0
    2.9008    6.2857  -10.0942 H   0  0  0  0  0  0  0  0  0  0  0  0
    2.0382    4.6958   -7.9422 N   0  0  0  0  0  0  0  0  0  0  0  0
    1.2079    4.4006   -6.7655 C   0  0  2  0  0  0  0  0  0  0  0  0
    1.8270    4.9794   -5.4719 C   0  0  0  0  0  0  0  0  0  0  0  0
    2.9098    5.5581   -5.5181 O   0  0  0  0  0  0  0  0  0  0  0  0
    0.9974    2.8827   -6.6649 C   0  0  0  0  0  0  0  0  0  0  0  0
    2.5671    1.9919   -6.2972 S   0  0  0  0  0  0  0  0  0  0  0  0
    2.9994    4.9821   -7.7615 H   0  0  0  0  0  0  0  0  0  0  0  0
    0.2305    4.8798   -6.8848 H   0  0  0  0  0  0  0  0  0  0  0  0
    0.2681    2.6734   -5.8790 H   0  0  0  0  0  0  0  0  0  0  0  0
    0.5788    2.5031   -7.6023 H   0  0  0  0  0  0  0  0  0  0  0  0
    1.1634    4.9042   -4.2612 N   0  0  0  0  0  0  0  0  0  0  0  0
    1.7404    5.3484   -3.0006 C   0  0  0  0  0  0  0  0  0  0  0  0
    0.3168    4.3282   -4.2174 H   0  0  0  0  0  0  0  0  0  0  0  0
    2.6810    4.8244   -2.8024 H   0  0  0  0  0  0  0  0  0  0  0  0
    1.9329    6.4256   -3.0249 H   0  0  0  0  0  0  0  0  0  0  0  0
    1.0480    5.1381   -2.1794 H   0  0  0  0  0  0  0  0  0  0  0  0
   -3.1966    0.2586   -1.2470 C   0  0  0  0  0  0  0  0  0  0  0  0
   -2.8599   -0.6306   -2.0160 O   0  0  0  0  0  0  0  0  0  0  0  0
   -3.3785   -0.0355    0.2294 C   0  0  0  0  0  0  0  0  0  0  0  0
   -4.4245    0.1059    0.5120 H   0  0  0  0  0  0  0  0  0  0  0  0
   -3.0902   -1.0678    0.4470 H   0  0  0  0  0  0  0  0  0  0  0  0
   -2.7552    0.6370    0.8226 H   0  0  0  0  0  0  0  0  0  0  0  0
   -3.3388    1.5465   -1.7205 N   0  0  0  0  0  0  0  0  0  0  0  0
   -3.0456    1.9423   -3.1063 C   0  0  2  0  0  0  0  0  0  0  0  0
   -1.5224    2.0054   -3.3673 C   0  0  0  0  0  0  0  0  0  0  0  0
   -0.9621    3.0663   -3.6200 O   0  0  0  0  0  0  0  0  0  0  0  0
   -3.7527    3.2789   -3.3624 C   0  0  0  0  0  0  0  0  0  0  0  0
   -3.4253    2.2828   -1.0245 H   0  0  0  0  0  0  0  0  0  0  0  0
   -3.4673    1.2050   -3.7978 H   0  0  0  0  0  0  0  0  0  0  0  0
   -3.3702    4.0531   -2.6894 H   0  0  0  0  0  0  0  0  0  0  0  0
   -3.5862    3.6051   -4.3941 H   0  0  0  0  0  0  0  0  0  0  0  0
   -4.8304    3.1765   -3.2031 H   0  0  0  0  0  0  0  0  0  0  0  0
   -0.7995    0.8246   -3.3753 N   0  0  0  0  0  0  0  0  0  0  0  0
    0.5191    0.6461   -2.7260 C   0  0  2  0  0  0  0  0  0  0  0  0
    0.6472    1.2153   -1.2879 C   0  0  0  0  0  0  0  0  0  0  0  0
    0.1484    2.2761   -0.9315 O   0  0  0  0  0  0  0  0  0  0  0  0
    1.6307    1.2711   -3.5796 C   0  0  0  0  0  0  0  0  0  0  0  0
    1.8017    0.3990   -5.1870 S   0  0  0  0  0  0  0  0  0  0  0  0
   -1.4265    0.0279   -3.2283 H   0  0  0  0  0  0  0  0  0  0  0  0
    0.7089   -0.4295   -2.6627 H   0  0  0  0  0  0  0  0  0  0  0  0
    1.4225    2.3281   -3.7471 H   0  0  0  0  0  0  0  0  0  0  0  0
    2.5884    1.2133   -3.0529 H   0  0  0  0  0  0  0  0  0  0  0  0
    1.2584    0.4411   -0.3185 N   0  0  0  0  0  0  0  0  0  0  0  0
    1.5513    0.8863    1.0507 C   0  0  2  0  0  0  0  0  0  0  0  0
    2.7984    0.1736    1.6135 C   0  0  0  0  0  0  0  0  0  0  0  0
    3.2841   -0.7778    1.0117 O   0  0  0  0  0  0  0  0  0  0  0  0
    0.3309    0.6074    1.9336 C   0  0  0  0  0  0  0  0  0  0  0  0
    1.7461   -0.4005   -0.6284 H   0  0  0  0  0  0  0  0  0  0  0  0
    1.7620    1.9610    1.0523 H   0  0  0  0  0  0  0  0  0  0  0  0
    0.0870   -0.4598    1.9245 H   0  0  0  0  0  0  0  0  0  0  0  0
    0.5238    0.9115    2.9667 H   0  0  0  0  0  0  0  0  0  0  0  0
   -0.5337    1.1682    1.5683 H   0  0  0  0  0  0  0  0  0  0  0  0
    3.3821    0.6053    2.7900 N   0  0  0  0  0  0  0  0  0  0  0  0
    4.5632   -0.0186    3.3737 C   0  0  0  0  0  0  0  0  0  0  0  0
    2.9653    1.4040    3.2592 H   0  0  0  0  0  0  0  0  0  0  0  0
    4.3608   -1.0660    3.6214 H   0  0  0  0  0  0  0  0  0  0  0  0
    5.4046    0.0216    2.6739 H   0  0  0  0  0  0  0  0  0  0  0  0
    4.8517    0.5040    4.2907 H   0  0  0  0  0  0  0  0  0  0  0  0
  1  2  2  0  0  0  0
  1  3  1  0  0  0  0
  1  7  1  0  0  0  0
  3  4  1  0  0  0  0
  3  5  1  0  0  0  0
  3  6  1  0  0  0  0
  7  8  1  0  0  0  0
  7 13  1  0  0  0  0
  8  9  1  0  0  0  0
  8 11  1  0  0  0  0
  8 14  1  0  0  0  0
  9 10  2  0  0  0  0
  9 17  1  0  0  0  0
 11 12  1  0  0  0  0
 11 15  1  0  0  0  0
 11 16  1  0  0  0  0
 12 44  1  0  0  0  0
 17 18  1  0  0  0  0
 17 19  1  0  0  0  0
 18 20  1  0  0  0  0
 18 21  1  0  0  0  0
 18 22  1  0  0  0  0
 23 24  2  0  0  0  0
 23 25  1  0  0  0  0
 23 29  1  0  0  0  0
 25 26  1  0  0  0  0
 25 27  1  0  0  0  0
 25 28  1  0  0  0  0
 29 30  1  0  0  0  0
 29 34  1  0  0  0  0
 30 31  1  0  0  0  0
 30 33  1  0  0  0  0
 30 35  1  0  0  0  0
 31 32  2  0  0  0  0
 31 39  1  0  0  0  0
 33 36  1  0  0  0  0
 33 37  1  0  0  0  0
 33 38  1  0  0  0  0
 39 40  1  0  0  0  0
 39 45  1  0  0  0  0
 40 41  1  0  0  0  0
 40 43  1  0  0  0  0
 40 46  1  0  0  0  0
 41 42  2  0  0  0  0
 41 49  1  0  0  0  0
 43 44  1  0  0  0  0
 43 47  1  0  0  0  0
 43 48  1  0  0  0  0
 49 50  1  0  0  0  0
 49 54  1  0  0  0  0
 50 51  1  0  0  0  0
 50 53  1  0  0  0  0
 50 55  1  0  0  0  0
 51 52  2  0  0  0  0
 51 59  1  0  0  0  0
 53 56  1  0  0  0  0
 53 57  1  0  0  0  0
 53 58  1  0  0  0  0
 59 60  1  0  0  0  0
 59 61  1  0  0  0  0
 60 62  1  0  0  0  0
 60 63  1  0  0  0  0
 60 64  1  0  0  0  0
M  END
$$$$

  -OEChem-05262216053D

 64 63  0     1  0  0  0  0  0999 V2000
    1.5131    4.5538   -9.2611 C   0  0  0  0  0  0  0  0  0  0  0  0
    0.3247    4.3285   -9.4307 O   0  0  0  0  0  0  0  0  0  0  0  0
    2.4202    4.7976  -10.4522 C   0  0  0  0  0  0  0  0  0  0  0  0
    3.2087    4.0416  -10.4802 H   0  0  0  0  0  0  0  0  0  0  0  0
    1.8450    4.7413  -11.3806 H   0  0  0  0  0  0  0  0  0  0  0  0
    2.8765    5.7878  -10.3787 H   0  0  0  0  0  0  0  0  0  0  0  0
    2.0330    4.5827   -7.9863 N   0  0  0  0  0  0  0  0  0  0  0  0
    1.2466    4.4070   -6.7574 C   0  0  2  0  0  0  0  0  0  0  0  0
    1.9278    5.0759   -5.5412 C   0  0  0  0  0  0  0  0  0  0  0  0
    2.9885    5.6774   -5.6897 O   0  0  0  0  0  0  0  0  0  0  0  0
    1.0174    2.9084   -6.5185 C   0  0  0  0  0  0  0  0  0  0  0  0
    2.5875    2.0237   -6.1433 S   0  0  0  0  0  0  0  0  0  0  0  0
    3.0058    4.8640   -7.8728 H   0  0  0  0  0  0  0  0  0  0  0  0
    0.2731    4.8931   -6.8805 H   0  0  0  0  0  0  0  0  0  0  0  0
    0.3226    2.7814   -5.6863 H   0  0  0  0  0  0  0  0  0  0  0  0
    0.5508    2.4573   -7.3995 H   0  0  0  0  0  0  0  0  0  0  0  0
    1.3491    5.0460   -4.2853 N   0  0  0  0  0  0  0  0  0  0  0  0
    1.9770    5.6074   -3.0980 C   0  0  0  0  0  0  0  0  0  0  0  0
    0.5080    4.4748   -4.1575 H   0  0  0  0  0  0  0  0  0  0  0  0
    2.9421    5.1259   -2.9090 H   0  0  0  0  0  0  0  0  0  0  0  0
    2.1355    6.6838   -3.2196 H   0  0  0  0  0  0  0  0  0  0  0  0
    1.3341    5.4482   -2.2268 H   0  0  0  0  0  0  0  0  0  0  0  0
   -3.3340    0.5450   -1.3965 C   0  0  0  0  0  0  0  0  0  0  0  0
   -3.1054   -0.3194   -2.2317 O   0  0  0  0  0  0  0  0  0  0  0  0
   -3.4550    0.1783    0.0695 C   0  0  0  0  0  0  0  0  0  0  0  0
   -4.4215    0.5085    0.4582 H   0  0  0  0  0  0  0  0  0  0  0  0
   -3.3739   -0.9052    0.1958 H   0  0  0  0  0  0  0  0  0  0  0  0
   -2.6565    0.6606    0.6390 H   0  0  0  0  0  0  0  0  0  0  0  0
   -3.3782    1.8693   -1.7801 N   0  0  0  0  0  0  0  0  0  0  0  0
   -3.0082    2.3234   -3.1286 C   0  0  2  0  0  0  0  0  0  0  0  0
   -1.4745    2.2815   -3.3199 C   0  0  0  0  0  0  0  0  0  0  0  0
   -0.8116    3.3090   -3.4258 O   0  0  0  0  0  0  0  0  0  0  0  0
   -3.6001    3.7245   -3.3228 C   0  0  0  0  0  0  0  0  0  0  0  0
   -3.3074    2.5478   -1.0254 H   0  0  0  0  0  0  0  0  0  0  0  0
   -3.4537    1.6644   -3.8818 H   0  0  0  0  0  0  0  0  0  0  0  0
   -3.1895    4.4225   -2.5859 H   0  0  0  0  0  0  0  0  0  0  0  0
   -3.3657    4.1003   -4.3239 H   0  0  0  0  0  0  0  0  0  0  0  0
   -4.6883    3.6966   -3.2098 H   0  0  0  0  0  0  0  0  0  0  0  0
   -0.8415    1.0506   -3.3570 N   0  0  0  0  0  0  0  0  0  0  0  0
    0.4214    0.7566   -2.6431 C   0  0  2  0  0  0  0  0  0  0  0  0
    0.5120    1.2440   -1.1716 C   0  0  0  0  0  0  0  0  0  0  0  0
   -0.2604    2.0614   -0.6807 O   0  0  0  0  0  0  0  0  0  0  0  0
    1.6254    1.3099   -3.4193 C   0  0  0  0  0  0  0  0  0  0  0  0
    1.8006    0.4458   -5.0314 S   0  0  0  0  0  0  0  0  0  0  0  0
   -1.5296    0.2947   -3.2880 H   0  0  0  0  0  0  0  0  0  0  0  0
    0.5218   -0.3326   -2.6102 H   0  0  0  0  0  0  0  0  0  0  0  0
    1.5129    2.3845   -3.5759 H   0  0  0  0  0  0  0  0  0  0  0  0
    2.5470    1.1636   -2.8472 H   0  0  0  0  0  0  0  0  0  0  0  0
    1.2974    0.5216   -0.2925 N   0  0  0  0  0  0  0  0  0  0  0  0
    1.5597    0.9121    1.0993 C   0  0  2  0  0  0  0  0  0  0  0  0
    3.0327    0.6479    1.4761 C   0  0  0  0  0  0  0  0  0  0  0  0
    3.7413   -0.0220    0.7326 O   0  0  0  0  0  0  0  0  0  0  0  0
    0.6142    0.1242    2.0096 C   0  0  0  0  0  0  0  0  0  0  0  0
    1.9853   -0.1090   -0.7069 H   0  0  0  0  0  0  0  0  0  0  0  0
    1.3781    1.9843    1.2308 H   0  0  0  0  0  0  0  0  0  0  0  0
    0.7865   -0.9515    1.9026 H   0  0  0  0  0  0  0  0  0  0  0  0
    0.7697    0.4000    3.0568 H   0  0  0  0  0  0  0  0  0  0  0  0
   -0.4262    0.3381    1.7482 H   0  0  0  0  0  0  0  0  0  0  0  0
    3.5718    1.1776    2.6336 N   0  0  0  0  0  0  0  0  0  0  0  0
    4.9662    0.9967    3.0192 C   0  0  0  0  0  0  0  0  0  0  0  0
    2.9739    1.7631    3.2094 H   0  0  0  0  0  0  0  0  0  0  0  0
    5.2061   -0.0686    3.1023 H   0  0  0  0  0  0  0  0  0  0  0  0
    5.6313    1.4500    2.2768 H   0  0  0  0  0  0  0  0  0  0  0  0
    5.1554    1.4692    3.9877 H   0  0  0  0  0  0  0  0  0  0  0  0
  1  2  2  0  0  0  0
  1  3  1  0  0  0  0
  1  7  1  0  0  0  0
  3  4  1  0  0  0  0
  3  5  1  0  0  0  0
  3  6  1  0  0  0  0
  7  8  1  0  0  0  0
  7 13  1  0  0  0  0
  8  9  1  0  0  0  0
  8 11  1  0  0  0  0
  8 14  1  0  0  0  0
  9 10  2  0  0  0  0
  9 17  1  0  0  0  0
 11 12  1  0  0  0  0
 11 15  1  0  0  0  0
 11 16  1  0  0  0  0
 12 44  1  0  0  0  0
 17 18  1  0  0  0  0
 17 19  1  0  0  0  0
 18 20  1  0  0  0  0
 18 21  1  0  0  0  0
 18 22  1  0  0  0  0
 23 24  2  0  0  0  0
 23 25  1  0  0  0  0
 23 29  1  0  0  0  0
 25 26  1  0  0  0  0
 25 27  1  0  0  0  0
 25 28  1  0  0  0  0
 29 30  1  0  0  0  0
 29 34  1  0  0  0  0
 30 31  1  0  0  0  0
 30 33  1  0  0  0  0
 30 35  1  0  0  0  0
 31 32  2  0  0  0  0
 31 39  1  0  0  0  0
 33 36  1  0  0  0  0
 33 37  1  0  0  0  0
 33 38  1  0  0  0  0
 39 40  1  0  0  0  0
 39 45  1  0  0  0  0
 40 41  1  0  0  0  0
 40 43  1  0  0  0  0
 40 46  1  0  0  0  0
 41 42  2  0  0  0  0
 41 49  1  0  0  0  0
 43 44  1  0  0  0  0
 43 47  1  0  0  0  0
 43 48  1  0  0  0  0
 49 50  1  0  0  0  0
 49 54  1  0  0  0  0
 50 51  1  0  0  0  0
 50 53  1  0  0  0  0
 50 55  1  0  0  0  0
 51 52  2  0  0  0  0
 51 59  1  0  0  0  0
 53 56  1  0  0  0  0
 53 57  1  0  0  0  0
 53 58  1  0  0  0  0
 59 60  1  0  0  0  0
 59 61  1  0  0  0  0
 60 62  1  0  0  0  0
 60 63  1  0  0  0  0
 60 64  1  0  0  0  0
M  END
$$$$

  -OEChem-05262216053D

 64 63  0     1  0  0  0  0  0999 V2000
    0.8320    4.8430   -8.7822 C   0  0  0  0  0  0  0  0  0  0  0  0
   -0.3241    4.4559   -8.8589 O   0  0  0  0  0  0  0  0  0  0  0  0
    1.5457    5.3715  -10.0116 C   0  0  0  0  0  0  0  0  0  0  0  0
    2.4002    4.7325  -10.2471 H   0  0  0  0  0  0  0  0  0  0  0  0
    0.8649    5.3816  -10.8674 H   0  0  0  0  0  0  0  0  0  0  0  0
    1.9003    6.3891   -9.8299 H   0  0  0  0  0  0  0  0  0  0  0  0
    1.4920    4.7943   -7.5747 N   0  0  0  0  0  0  0  0  0  0  0  0
    0.8776    4.3863   -6.3042 C   0  0  2  0  0  0  0  0  0  0  0  0
    1.5774    5.0486   -5.0936 C   0  0  0  0  0  0  0  0  0  0  0  0
    2.5352    5.7946   -5.2779 O   0  0  0  0  0  0  0  0  0  0  0  0
    0.8971    2.8534   -6.2122 C   0  0  0  0  0  0  0  0  0  0  0  0
    2.6042    2.1888   -6.0224 S   0  0  0  0  0  0  0  0  0  0  0  0
    2.4180    5.2169   -7.5202 H   0  0  0  0  0  0  0  0  0  0  0  0
   -0.1643    4.7220   -6.2849 H   0  0  0  0  0  0  0  0  0  0  0  0
    0.2935    2.5431   -5.3585 H   0  0  0  0  0  0  0  0  0  0  0  0
    0.4382    2.4194   -7.1065 H   0  0  0  0  0  0  0  0  0  0  0  0
    1.1181    4.8631   -3.8020 N   0  0  0  0  0  0  0  0  0  0  0  0
    1.7758    5.4202   -2.6281 C   0  0  0  0  0  0  0  0  0  0  0  0
    0.3628    4.1879   -3.6515 H   0  0  0  0  0  0  0  0  0  0  0  0
    2.8024    5.0478   -2.5501 H   0  0  0  0  0  0  0  0  0  0  0  0
    1.7988    6.5135   -2.6821 H   0  0  0  0  0  0  0  0  0  0  0  0
    1.2323    5.1306   -1.7233 H   0  0  0  0  0  0  0  0  0  0  0  0
   -4.2677    1.7729   -1.6063 C   0  0  0  0  0  0  0  0  0  0  0  0
   -4.3368    0.5559   -1.5316 O   0  0  0  0  0  0  0  0  0  0  0  0
   -4.9009    2.6388   -0.5341 C   0  0  0  0  0  0  0  0  0  0  0  0
   -5.6598    3.2880   -0.9779 H   0  0  0  0  0  0  0  0  0  0  0  0
   -5.3736    2.0111    0.2263 H   0  0  0  0  0  0  0  0  0  0  0  0
   -4.1363    3.2557   -0.0554 H   0  0  0  0  0  0  0  0  0  0  0  0
   -3.6030    2.3677   -2.6590 N   0  0  0  0  0  0  0  0  0  0  0  0
   -2.7341    1.6182   -3.5752 C   0  0  2  0  0  0  0  0  0  0  0  0
   -1.2574    1.7202   -3.1463 C   0  0  0  0  0  0  0  0  0  0  0  0
   -0.7652    2.8314   -2.9720 O   0  0  0  0  0  0  0  0  0  0  0  0
   -2.9318    2.1822   -4.9857 C   0  0  0  0  0  0  0  0  0  0  0  0
   -3.4114    3.3612   -2.5544 H   0  0  0  0  0  0  0  0  0  0  0  0
   -3.0137    0.5595   -3.5923 H   0  0  0  0  0  0  0  0  0  0  0  0
   -2.6802    3.2474   -5.0162 H   0  0  0  0  0  0  0  0  0  0  0  0
   -2.2936    1.6541   -5.7013 H   0  0  0  0  0  0  0  0  0  0  0  0
   -3.9737    2.0619   -5.2983 H   0  0  0  0  0  0  0  0  0  0  0  0
   -0.4453    0.5980   -3.1844 N   0  0  0  0  0  0  0  0  0  0  0  0
    0.8624    0.4509   -2.5018 C   0  0  2  0  0  0  0  0  0  0  0  0
    0.9351    0.9276   -1.0256 C   0  0  0  0  0  0  0  0  0  0  0  0
   -0.0131    1.4421   -0.4455 O   0  0  0  0  0  0  0  0  0  0  0  0
    1.9321    1.2091   -3.3032 C   0  0  0  0  0  0  0  0  0  0  0  0
    2.1658    0.4467   -4.9587 S   0  0  0  0  0  0  0  0  0  0  0  0
   -0.9543   -0.2663   -3.3477 H   0  0  0  0  0  0  0  0  0  0  0  0
    1.1250   -0.6112   -2.4969 H   0  0  0  0  0  0  0  0  0  0  0  0
    1.6504    2.2583   -3.4047 H   0  0  0  0  0  0  0  0  0  0  0  0
    2.8924    1.1865   -2.7785 H   0  0  0  0  0  0  0  0  0  0  0  0
    2.0140    0.5366   -0.2530 N   0  0  0  0  0  0  0  0  0  0  0  0
    2.2413    0.9641    1.1339 C   0  0  2  0  0  0  0  0  0  0  0  0
    3.7434    1.1888    1.4081 C   0  0  0  0  0  0  0  0  0  0  0  0
    4.5771    0.7947    0.5994 O   0  0  0  0  0  0  0  0  0  0  0  0
    1.6744   -0.1099    2.0665 C   0  0  0  0  0  0  0  0  0  0  0  0
    2.8286    0.1649   -0.7419 H   0  0  0  0  0  0  0  0  0  0  0  0
    1.7299    1.9145    1.3213 H   0  0  0  0  0  0  0  0  0  0  0  0
    2.1871   -1.0637    1.9059 H   0  0  0  0  0  0  0  0  0  0  0  0
    1.8014    0.1832    3.1128 H   0  0  0  0  0  0  0  0  0  0  0  0
    0.6057   -0.2520    1.8760 H   0  0  0  0  0  0  0  0  0  0  0  0
    4.1615    1.8469    2.5502 N   0  0  0  0  0  0  0  0  0  0  0  0
    5.5632    2.1061    2.8583 C   0  0  0  0  0  0  0  0  0  0  0  0
    3.4473    2.1782    3.1924 H   0  0  0  0  0  0  0  0  0  0  0  0
    6.1168    1.1655    2.9483 H   0  0  0  0  0  0  0  0  0  0  0  0
    6.0237    2.7119    2.0708 H   0  0  0  0  0  0  0  0  0  0  0  0
    5.6485    2.6481    3.8052 H   0  0  0  0  0  0  0  0  0  0  0  0
  1  2  2  0  0  0  0
  1  3  1  0  0  0  0
  1  7  1  0  0  0  0
  3  4  1  0  0  0  0
  3  5  1  0  0  0  0
  3  6  1  0  0  0  0
  7  8  1  0  0  0  0
  7 13  1  0  0  0  0
  8  9  1  0  0  0  0
  8 11  1  0  0  0  0
  8 14  1  0  0  0  0
  9 10  2  0  0  0  0
  9 17  1  0  0  0  0
 11 12  1  0  0  0  0
 11 15  1  0  0  0  0
 11 16  1  0  0  0  0
 12 44  1  0  0  0  0
 17 18  1  0  0  0  0
 17 19  1  0  0  0  0
 18 20  1  0  0  0  0
 18 21  1  0  0  0  0
 18 22  1  0  0  0  0
 23 24  2  0  0  0  0
 23 25  1  0  0  0  0
 23 29  1  0  0  0  0
 25 26  1  0  0  0  0
 25 27  1  0  0  0  0
 25 28  1  0  0  0  0
 29 30  1  0  0  0  0
 29 34  1  0  0  0  0
 30 31  1  0  0  0  0
 30 33  1  0  0  0  0
 30 35  1  0  0  0  0
 31 32  2  0  0  0  0
 31 39  1  0  0  0  0
 33 36  1  0  0  0  0
 33 37  1  0  0  0  0
 33 38  1  0  0  0  0
 39 40  1  0  0  0  0
 39 45  1  0  0  0  0
 40 41  1  0  0  0  0
 40 43  1  0  0  0  0
 40 46  1  0  0  0  0
 41 42  2  0  0  0  0
 41 49  1  0  0  0  0
 43 44  1  0  0  0  0
 43 47  1  0  0  0  0
 43 48  1  0  0  0  0
 49 50  1  0  0  0  0
 49 54  1  0  0  0  0
 50 51  1  0  0  0  0
 50 53  1  0  0  0  0
 50 55  1  0  0  0  0
 51 52  2  0  0  0  0
 51 59  1  0  0  0  0
 53 56  1  0  0  0  0
 53 57  1  0  0  0  0
 53 58  1  0  0  0  0
 59 60  1  0  0  0  0
 59 61  1  0  0  0  0
 60 62  1  0  0  0  0
 60 63  1  0  0  0  0
 60 64  1  0  0  0  0
M  END
$$$$

  -OEChem-05262216053D

 64 63  0     1  0  0  0  0  0999 V2000
    0.5988    6.3989   -7.5317 C   0  0  0  0  0  0  0  0  0  0  0  0
   -0.5133    5.9487   -7.7614 O   0  0  0  0  0  0  0  0  0  0  0  0
    1.3077    7.2508   -8.5673 C   0  0  0  0  0  0  0  0  0  0  0  0
    2.2240    6.7529   -8.8936 H   0  0  0  0  0  0  0  0  0  0  0  0
    0.6610    7.4034   -9.4358 H   0  0  0  0  0  0  0  0  0  0  0  0
    1.5618    8.2240   -8.1399 H   0  0  0  0  0  0  0  0  0  0  0  0
    1.2112    6.1342   -6.3270 N   0  0  0  0  0  0  0  0  0  0  0  0
    0.5874    5.3993   -5.2179 C   0  0  2  0  0  0  0  0  0  0  0  0
    1.2217    5.7754   -3.8582 C   0  0  0  0  0  0  0  0  0  0  0  0
    2.0939    6.6386   -3.8120 O   0  0  0  0  0  0  0  0  0  0  0  0
    0.6862    3.8919   -5.4923 C   0  0  0  0  0  0  0  0  0  0  0  0
    2.4274    3.2971   -5.4514 S   0  0  0  0  0  0  0  0  0  0  0  0
    2.0906    6.6090   -6.1254 H   0  0  0  0  0  0  0  0  0  0  0  0
   -0.4711    5.6737   -5.1583 H   0  0  0  0  0  0  0  0  0  0  0  0
    0.1023    3.3543   -4.7435 H   0  0  0  0  0  0  0  0  0  0  0  0
    0.2503    3.6610   -6.4695 H   0  0  0  0  0  0  0  0  0  0  0  0
    0.8003    5.1898   -2.6772 N   0  0  0  0  0  0  0  0  0  0  0  0
    1.4320    5.4456   -1.3900 C   0  0  0  0  0  0  0  0  0  0  0  0
    0.1353    4.4139   -2.7363 H   0  0  0  0  0  0  0  0  0  0  0  0
    2.4833    5.1390   -1.4124 H   0  0  0  0  0  0  0  0  0  0  0  0
    1.3775    6.5100   -1.1386 H   0  0  0  0  0  0  0  0  0  0  0  0
    0.9216    4.8798   -0.6043 H   0  0  0  0  0  0  0  0  0  0  0  0
   -4.7062    2.1052   -1.5525 C   0  0  0  0  0  0  0  0  0  0  0  0
   -5.2248    1.0324   -1.8174 O   0  0  0  0  0  0  0  0  0  0  0  0
   -5.3110    2.9978   -0.4854 C   0  0  0  0  0  0  0  0  0  0  0  0
   -5.5681    3.9697   -0.9133 H   0  0  0  0  0  0  0  0  0  0  0  0
   -6.2180    2.5395   -0.0816 H   0  0  0  0  0  0  0  0  0  0  0  0
   -4.5970    3.1427    0.3290 H   0  0  0  0  0  0  0  0  0  0  0  0
   -3.5653    2.5073   -2.2156 N   0  0  0  0  0  0  0  0  0  0  0  0
   -2.7733    1.6336   -3.0927 C   0  0  2  0  0  0  0  0  0  0  0  0
   -1.2678    1.7360   -2.7794 C   0  0  0  0  0  0  0  0  0  0  0  0
   -0.8170    2.7929   -2.3447 O   0  0  0  0  0  0  0  0  0  0  0  0
   -3.0451    2.0372   -4.5436 C   0  0  0  0  0  0  0  0  0  0  0  0
   -3.0970    3.3366   -1.8548 H   0  0  0  0  0  0  0  0  0  0  0  0
   -3.0661    0.5878   -2.9503 H   0  0  0  0  0  0  0  0  0  0  0  0
   -2.7576    3.0799   -4.7132 H   0  0  0  0  0  0  0  0  0  0  0  0
   -2.4771    1.4031   -5.2315 H   0  0  0  0  0  0  0  0  0  0  0  0
   -4.1102    1.9274   -4.7716 H   0  0  0  0  0  0  0  0  0  0  0  0
   -0.4341    0.6590   -3.0367 N   0  0  0  0  0  0  0  0  0  0  0  0
    0.9416    0.4980   -2.5132 C   0  0  2  0  0  0  0  0  0  0  0  0
    1.0027    0.4717   -0.9644 C   0  0  0  0  0  0  0  0  0  0  0  0
   -0.0199    0.3949   -0.2922 O   0  0  0  0  0  0  0  0  0  0  0  0
    1.8998    1.5556   -3.0930 C   0  0  0  0  0  0  0  0  0  0  0  0
    2.0784    1.3151   -4.9059 S   0  0  0  0  0  0  0  0  0  0  0  0
   -0.9158   -0.1916   -3.3143 H   0  0  0  0  0  0  0  0  0  0  0  0
    1.3086   -0.4793   -2.8398 H   0  0  0  0  0  0  0  0  0  0  0  0
    1.5468    2.5643   -2.8757 H   0  0  0  0  0  0  0  0  0  0  0  0
    2.8918    1.4657   -2.6404 H   0  0  0  0  0  0  0  0  0  0  0  0
    2.2158    0.3288   -0.3161 N   0  0  0  0  0  0  0  0  0  0  0  0
    2.3866    0.4268    1.1398 C   0  0  2  0  0  0  0  0  0  0  0  0
    3.6391    1.2552    1.4946 C   0  0  0  0  0  0  0  0  0  0  0  0
    4.4431    1.5524    0.6172 O   0  0  0  0  0  0  0  0  0  0  0  0
    2.4847   -0.9915    1.7082 C   0  0  0  0  0  0  0  0  0  0  0  0
    3.0558    0.4975   -0.8695 H   0  0  0  0  0  0  0  0  0  0  0  0
    1.5264    0.9350    1.5886 H   0  0  0  0  0  0  0  0  0  0  0  0
    3.3626   -1.5064    1.3050 H   0  0  0  0  0  0  0  0  0  0  0  0
    2.5660   -0.9642    2.7989 H   0  0  0  0  0  0  0  0  0  0  0  0
    1.5912   -1.5666    1.4444 H   0  0  0  0  0  0  0  0  0  0  0  0
    3.8518    1.6919    2.7889 N   0  0  0  0  0  0  0  0  0  0  0  0
    4.9879    2.5195    3.1764 C   0  0  0  0  0  0  0  0  0  0  0  0
    3.1522    1.4579    3.4875 H   0  0  0  0  0  0  0  0  0  0  0  0
    5.9298    2.0252    2.9164 H   0  0  0  0  0  0  0  0  0  0  0  0
    4.9467    3.4885    2.6681 H   0  0  0  0  0  0  0  0  0  0  0  0
    4.9777    2.6942    4.2564 H   0  0  0  0  0  0  0  0  0  0  0  0
  1  2  2  0  0  0  0
  1  3  1  0  0  0  0
  1  7  1  0  0  0  0
  3  4  1  0  0  0  0
  3  5  1  0  0  0  0
  3  6  1  0  0  0  0
  7  8  1  0  0  0  0
  7 13  1  0  0  0  0
  8  9  1  0  0  0  0
  8 11  1  0  0  0  0
  8 14  1  0  0  0  0
  9 10  2  0  0  0  0
  9 17  1  0  0  0  0
 11 12  1  0  0  0  0
 11 15  1  0  0  0  0
 11 16  1  0  0  0  0
 12 44  1  0  0  0  0
 17 18  1  0  0  0  0
 17 19  1  0  0  0  0
 18 20  1  0  0  0  0
 18 21  1  0  0  0  0
 18 22  1  0  0  0  0
 23 24  2  0  0  0  0
 23 25  1  0  0  0  0
 23 29  1  0  0  0  0
 25 26  1  0  0  0  0
 25 27  1  0  0  0  0
 25 28  1  0  0  0  0
 29 30  1  0  0  0  0
 29 34  1  0  0  0  0
 30 31  1  0  0  0  0
 30 33  1  0  0  0  0
 30 35  1  0  0  0  0
 31 32  2  0  0  0  0
 31 39  1  0  0  0  0
 33 36  1  0  0  0  0
 33 37  1  0  0  0  0
 33 38  1  0  0  0  0
 39 40  1  0  0  0  0
 39 45  1  0  0  0  0
 40 41  1  0  0  0  0
 40 43  1  0  0  0  0
 40 46  1  0  0  0  0
 41 42  2  0  0  0  0
 41 49  1  0  0  0  0
 43 44  1  0  0  0  0
 43 47  1  0  0  0  0
 43 48  1  0  0  0  0
 49 50  1  0  0  0  0
 49 54  1  0  0  0  0
 50 51  1  0  0  0  0
 50 53  1  0  0  0  0
 50 55  1  0  0  0  0
 51 52  2  0  0  0  0
 51 59  1  0  0  0  0
 53 56  1  0  0  0  0
 53 57  1  0  0  0  0
 53 58  1  0  0  0  0
 59 60  1  0  0  0  0
 59 61  1  0  0  0  0
 60 62  1  0  0  0  0
 60 63  1  0  0  0  0
 60 64  1  0  0  0  0
M  END
$$$$

  -OEChem-05262216053D

 64 63  0     1  0  0  0  0  0999 V2000
    0.4739    6.5205   -7.0973 C   0  0  0  0  0  0  0  0  0  0  0  0
   -0.6965    6.1904   -7.2128 O   0  0  0  0  0  0  0  0  0  0  0  0
    1.1216    7.4148   -8.1372 C   0  0  0  0  0  0  0  0  0  0  0  0
    1.9741    6.9026   -8.5897 H   0  0  0  0  0  0  0  0  0  0  0  0
    0.4019    7.6620   -8.9224 H   0  0  0  0  0  0  0  0  0  0  0  0
    1.4671    8.3407   -7.6711 H   0  0  0  0  0  0  0  0  0  0  0  0
    1.2066    6.0801   -6.0175 N   0  0  0  0  0  0  0  0  0  0  0  0
    0.6588    5.2923   -4.9046 C   0  0  2  0  0  0  0  0  0  0  0  0
    1.4571    5.5130   -3.5979 C   0  0  0  0  0  0  0  0  0  0  0  0
    2.4124    6.2844   -3.5943 O   0  0  0  0  0  0  0  0  0  0  0  0
    0.6251    3.8118   -5.3117 C   0  0  0  0  0  0  0  0  0  0  0  0
    2.3159    3.1013   -5.4815 S   0  0  0  0  0  0  0  0  0  0  0  0
    2.1457    6.4566   -5.8936 H   0  0  0  0  0  0  0  0  0  0  0  0
   -0.3655    5.6219   -4.7036 H   0  0  0  0  0  0  0  0  0  0  0  0
    0.0718    3.2498   -4.5584 H   0  0  0  0  0  0  0  0  0  0  0  0
    0.0880    3.6981   -6.2587 H   0  0  0  0  0  0  0  0  0  0  0  0
    1.0996    4.8856   -2.4168 N   0  0  0  0  0  0  0  0  0  0  0  0
    1.9129    4.9500   -1.2085 C   0  0  0  0  0  0  0  0  0  0  0  0
    0.3530    4.1862   -2.4529 H   0  0  0  0  0  0  0  0  0  0  0  0
    2.9285    4.5933   -1.4100 H   0  0  0  0  0  0  0  0  0  0  0  0
    1.9682    5.9777   -0.8351 H   0  0  0  0  0  0  0  0  0  0  0  0
    1.4763    4.3202   -0.4273 H   0  0  0  0  0  0  0  0  0  0  0  0
   -4.8479    2.3317   -1.8040 C   0  0  0  0  0  0  0  0  0  0  0  0
   -5.4658    1.3735   -2.2402 O   0  0  0  0  0  0  0  0  0  0  0  0
   -5.5108    3.2811   -0.8238 C   0  0  0  0  0  0  0  0  0  0  0  0
   -5.5686    4.2830   -1.2557 H   0  0  0  0  0  0  0  0  0  0  0  0
   -6.5233    2.9377   -0.5938 H   0  0  0  0  0  0  0  0  0  0  0  0
   -4.9348    3.3233    0.1037 H   0  0  0  0  0  0  0  0  0  0  0  0
   -3.5421    2.5446   -2.1938 N   0  0  0  0  0  0  0  0  0  0  0  0
   -2.7668    1.6096   -3.0197 C   0  0  2  0  0  0  0  0  0  0  0  0
   -1.2691    1.6210   -2.6526 C   0  0  0  0  0  0  0  0  0  0  0  0
   -0.7736    2.6309   -2.1574 O   0  0  0  0  0  0  0  0  0  0  0  0
   -2.9586    1.9896   -4.4917 C   0  0  0  0  0  0  0  0  0  0  0  0
   -3.0272    3.2881   -1.7251 H   0  0  0  0  0  0  0  0  0  0  0  0
   -3.1319    0.5891   -2.8603 H   0  0  0  0  0  0  0  0  0  0  0  0
   -2.6208    3.0152   -4.6726 H   0  0  0  0  0  0  0  0  0  0  0  0
   -2.3901    1.3163   -5.1407 H   0  0  0  0  0  0  0  0  0  0  0  0
   -4.0163    1.9194   -4.7650 H   0  0  0  0  0  0  0  0  0  0  0  0
   -0.4856    0.5157   -2.9451 N   0  0  0  0  0  0  0  0  0  0  0  0
    0.9111    0.2970   -2.5062 C   0  0  2  0  0  0  0  0  0  0  0  0
    1.0432    0.2762   -0.9604 C   0  0  0  0  0  0  0  0  0  0  0  0
    0.0680    0.0339   -0.2581 O   0  0  0  0  0  0  0  0  0  0  0  0
    1.8541    1.3359   -3.1420 C   0  0  0  0  0  0  0  0  0  0  0  0
    1.9071    1.1201   -4.9652 S   0  0  0  0  0  0  0  0  0  0  0  0
   -0.9971   -0.3006   -3.2686 H   0  0  0  0  0  0  0  0  0  0  0  0
    1.2299   -0.6911   -2.8508 H   0  0  0  0  0  0  0  0  0  0  0  0
    1.5437    2.3475   -2.8850 H   0  0  0  0  0  0  0  0  0  0  0  0
    2.8737    1.2137   -2.7663 H   0  0  0  0  0  0  0  0  0  0  0  0
    2.2790    0.3946   -0.3492 N   0  0  0  0  0  0  0  0  0  0  0  0
    2.4483    0.7092    1.0768 C   0  0  2  0  0  0  0  0  0  0  0  0
    3.1264    2.0843    1.2504 C   0  0  0  0  0  0  0  0  0  0  0  0
    3.7566    2.5727    0.3182 O   0  0  0  0  0  0  0  0  0  0  0  0
    3.2964   -0.3971    1.7055 C   0  0  0  0  0  0  0  0  0  0  0  0
    3.0310    0.7293   -0.9493 H   0  0  0  0  0  0  0  0  0  0  0  0
    1.4821    0.7494    1.5905 H   0  0  0  0  0  0  0  0  0  0  0  0
    4.2788   -0.4460    1.2253 H   0  0  0  0  0  0  0  0  0  0  0  0
    3.4397   -0.2102    2.7740 H   0  0  0  0  0  0  0  0  0  0  0  0
    2.8006   -1.3655    1.5869 H   0  0  0  0  0  0  0  0  0  0  0  0
    3.0303    2.7790    2.4417 N   0  0  0  0  0  0  0  0  0  0  0  0
    3.6367    4.0884    2.6532 C   0  0  0  0  0  0  0  0  0  0  0  0
    2.4798    2.3644    3.1885 H   0  0  0  0  0  0  0  0  0  0  0  0
    4.7208    4.0375    2.5062 H   0  0  0  0  0  0  0  0  0  0  0  0
    3.2208    4.8215    1.9542 H   0  0  0  0  0  0  0  0  0  0  0  0
    3.4434    4.4343    3.6730 H   0  0  0  0  0  0  0  0  0  0  0  0
  1  2  2  0  0  0  0
  1  3  1  0  0  0  0
  1  7  1  0  0  0  0
  3  4  1  0  0  0  0
  3  5  1  0  0  0  0
  3  6  1  0  0  0  0
  7  8  1  0  0  0  0
  7 13  1  0  0  0  0
  8  9  1  0  0  0  0
  8 11  1  0  0  0  0
  8 14  1  0  0  0  0
  9 10  2  0  0  0  0
  9 17  1  0  0  0  0
 11 12  1  0  0  0  0
 11 15  1  0  0  0  0
 11 16  1  0  0  0  0
 12 44  1  0  0  0  0
 17 18  1  0  0  0  0
 17 19  1  0  0  0  0
 18 20  1  0  0  0  0
 18 21  1  0  0  0  0
 18 22  1  0  0  0  0
 23 24  2  0  0  0  0
 23 25  1  0  0  0  0
 23 29  1  0  0  0  0
 25 26  1  0  0  0  0
 25 27  1  0  0  0  0
 25 28  1  0  0  0  0
 29 30  1  0  0  0  0
 29 34  1  0  0  0  0
 30 31  1  0  0  0  0
 30 33  1  0  0  0  0
 30 35  1  0  0  0  0
 31 32  2  0  0  0  0
 31 39  1  0  0  0  0
 33 36  1  0  0  0  0
 33 37  1  0  0  0  0
 33 38  1  0  0  0  0
 39 40  1  0  0  0  0
 39 45  1  0  0  0  0
 40 41  1  0  0  0  0
 40 43  1  0  0  0  0
 40 46  1  0  0  0  0
 41 42  2  0  0  0  0
 41 49  1  0  0  0  0
 43 44  1  0  0  0  0
 43 47  1  0  0  0  0
 43 48  1  0  0  0  0
 49 50  1  0  0  0  0
 49 54  1  0  0  0  0
 50 51  1  0  0  0  0
 50 53  1  0  0  0  0
 50 55  1  0  0  0  0
 51 52  2  0  0  0  0
 51 59  1  0  0  0  0
 53 56  1  0  0  0  0
 53 57  1  0  0  0  0
 53 58  1  0  0  0  0
 59 60  1  0  0  0  0
 59 61  1  0  0  0  0
 60 62  1  0  0  0  0
 60 63  1  0  0  0  0
 60 64  1  0  0  0  0
M  END
$$$$

  -OEChem-05262216053D

 64 63  0     1  0  0  0  0  0999 V2000
    0.3693    6.4567   -7.2561 C   0  0  0  0  0  0  0  0  0  0  0  0
   -0.7663    6.0331   -7.4082 O   0  0  0  0  0  0  0  0  0  0  0  0
    1.0024    7.3455   -8.3099 C   0  0  0  0  0  0  0  0  0  0  0  0
    1.9512    6.9144   -8.6389 H   0  0  0  0  0  0  0  0  0  0  0  0
    0.3396    7.4366   -9.1748 H   0  0  0  0  0  0  0  0  0  0  0  0
    1.1852    8.3411   -7.8981 H   0  0  0  0  0  0  0  0  0  0  0  0
    1.0787    6.1264   -6.1228 N   0  0  0  0  0  0  0  0  0  0  0  0
    0.5445    5.3423   -5.0004 C   0  0  2  0  0  0  0  0  0  0  0  0
    1.2899    5.6543   -3.6813 C   0  0  0  0  0  0  0  0  0  0  0  0
    2.1882    6.4911   -3.6770 O   0  0  0  0  0  0  0  0  0  0  0  0
    0.6116    3.8491   -5.3539 C   0  0  0  0  0  0  0  0  0  0  0  0
    2.3460    3.2400   -5.4619 S   0  0  0  0  0  0  0  0  0  0  0  0
    1.9815    6.5774   -5.9778 H   0  0  0  0  0  0  0  0  0  0  0  0
   -0.5033    5.6155   -4.8398 H   0  0  0  0  0  0  0  0  0  0  0  0
    0.0766    3.2792   -4.5931 H   0  0  0  0  0  0  0  0  0  0  0  0
    0.1059    3.6689   -6.3079 H   0  0  0  0  0  0  0  0  0  0  0  0
    0.9412    5.0426   -2.4896 N   0  0  0  0  0  0  0  0  0  0  0  0
    1.6911    5.2283   -1.2534 C   0  0  0  0  0  0  0  0  0  0  0  0
    0.2511    4.2880   -2.5202 H   0  0  0  0  0  0  0  0  0  0  0  0
    2.7271    4.8969   -1.3801 H   0  0  0  0  0  0  0  0  0  0  0  0
    1.6918    6.2823   -0.9568 H   0  0  0  0  0  0  0  0  0  0  0  0
    1.2378    4.6434   -0.4471 H   0  0  0  0  0  0  0  0  0  0  0  0
   -4.7888    2.2861   -1.7927 C   0  0  0  0  0  0  0  0  0  0  0  0
   -5.3828    1.2865   -2.1637 O   0  0  0  0  0  0  0  0  0  0  0  0
   -5.4640    3.2641   -0.8498 C   0  0  0  0  0  0  0  0  0  0  0  0
   -5.5259    4.2503   -1.3160 H   0  0  0  0  0  0  0  0  0  0  0  0
   -6.4754    2.9209   -0.6148 H   0  0  0  0  0  0  0  0  0  0  0  0
   -4.8944    3.3412    0.0794 H   0  0  0  0  0  0  0  0  0  0  0  0
   -3.4985    2.5197   -2.2214 N   0  0  0  0  0  0  0  0  0  0  0  0
   -2.7046    1.5639   -3.0058 C   0  0  2  0  0  0  0  0  0  0  0  0
   -1.2046    1.6371   -2.6566 C   0  0  0  0  0  0  0  0  0  0  0  0
   -0.7460    2.6620   -2.1566 O   0  0  0  0  0  0  0  0  0  0  0  0
   -2.9206    1.8618   -4.4929 C   0  0  0  0  0  0  0  0  0  0  0  0
   -3.0001    3.3020   -1.8006 H   0  0  0  0  0  0  0  0  0  0  0  0
   -3.0391    0.5431   -2.7896 H   0  0  0  0  0  0  0  0  0  0  0  0
   -2.5980    2.8802   -4.7327 H   0  0  0  0  0  0  0  0  0  0  0  0
   -2.3521    1.1615   -5.1124 H   0  0  0  0  0  0  0  0  0  0  0  0
   -3.9809    1.7643   -4.7482 H   0  0  0  0  0  0  0  0  0  0  0  0
   -0.3782    0.5641   -2.9474 N   0  0  0  0  0  0  0  0  0  0  0  0
    1.0193    0.4056   -2.4893 C   0  0  2  0  0  0  0  0  0  0  0  0
    1.1015    0.3885   -0.9409 C   0  0  0  0  0  0  0  0  0  0  0  0
    0.1953   -0.1230   -0.2924 O   0  0  0  0  0  0  0  0  0  0  0  0
    1.9384    1.4715   -3.1162 C   0  0  0  0  0  0  0  0  0  0  0  0
    2.0321    1.2450   -4.9361 S   0  0  0  0  0  0  0  0  0  0  0  0
   -0.8564   -0.2779   -3.2567 H   0  0  0  0  0  0  0  0  0  0  0  0
    1.3830   -0.5718   -2.8208 H   0  0  0  0  0  0  0  0  0  0  0  0
    1.5919    2.4759   -2.8730 H   0  0  0  0  0  0  0  0  0  0  0  0
    2.9547    1.3793   -2.7227 H   0  0  0  0  0  0  0  0  0  0  0  0
    2.2149    0.8527   -0.2638 N   0  0  0  0  0  0  0  0  0  0  0  0
    2.2368    1.1170    1.1809 C   0  0  2  0  0  0  0  0  0  0  0  0
    2.8254    2.5120    1.4730 C   0  0  0  0  0  0  0  0  0  0  0  0
    3.4649    3.0989    0.6064 O   0  0  0  0  0  0  0  0  0  0  0  0
    3.0655    0.0222    1.8545 C   0  0  0  0  0  0  0  0  0  0  0  0
    2.8769    1.4005   -0.8124 H   0  0  0  0  0  0  0  0  0  0  0  0
    1.2215    1.1016    1.5911 H   0  0  0  0  0  0  0  0  0  0  0  0
    4.0925    0.0302    1.4753 H   0  0  0  0  0  0  0  0  0  0  0  0
    3.0921    0.1726    2.9380 H   0  0  0  0  0  0  0  0  0  0  0  0
    2.6260   -0.9597    1.6522 H   0  0  0  0  0  0  0  0  0  0  0  0
    2.6155    3.1236    2.6946 N   0  0  0  0  0  0  0  0  0  0  0  0
    3.1066    4.4587    3.0141 C   0  0  0  0  0  0  0  0  0  0  0  0
    2.0586    2.6255    3.3832 H   0  0  0  0  0  0  0  0  0  0  0  0
    4.1981    4.4958    2.9335 H   0  0  0  0  0  0  0  0  0  0  0  0
    2.6773    5.1982    2.3300 H   0  0  0  0  0  0  0  0  0  0  0  0
    2.8272    4.7300    4.0367 H   0  0  0  0  0  0  0  0  0  0  0  0
  1  2  2  0  0  0  0
  1  3  1  0  0  0  0
  1  7  1  0  0  0  0
  3  4  1  0  0  0  0
  3  5  1  0  0  0  0
  3  6  1  0  0  0  0
  7  8  1  0  0  0  0
  7 13  1  0  0  0  0
  8  9  1  0  0  0  0
  8 11  1  0  0  0  0
  8 14  1  0  0  0  0
  9 10  2  0  0  0  0
  9 17  1  0  0  0  0
 11 12  1  0  0  0  0
 11 15  1  0  0  0  0
 11 16  1  0  0  0  0
 12 44  1  0  0  0  0
 17 18  1  0  0  0  0
 17 19  1  0  0  0  0
 18 20  1  0  0  0  0
 18 21  1  0  0  0  0
 18 22  1  0  0  0  0
 23 24  2  0  0  0  0
 23 25  1  0  0  0  0
 23 29  1  0  0  0  0
 25 26  1  0  0  0  0
 25 27  1  0  0  0  0
 25 28  1  0  0  0  0
 29 30  1  0  0  0  0
 29 34  1  0  0  0  0
 30 31  1  0  0  0  0
 30 33  1  0  0  0  0
 30 35  1  0  0  0  0
 31 32  2  0  0  0  0
 31 39  1  0  0  0  0
 33 36  1  0  0  0  0
 33 37  1  0  0  0  0
 33 38  1  0  0  0  0
 39 40  1  0  0  0  0
 39 45  1  0  0  0  0
 40 41  1  0  0  0  0
 40 43  1  0  0  0  0
 40 46  1  0  0  0  0
 41 42  2  0  0  0  0
 41 49  1  0  0  0  0
 43 44  1  0  0  0  0
 43 47  1  0  0  0  0
 43 48  1  0  0  0  0
 49 50  1  0  0  0  0
 49 54  1  0  0  0  0
 50 51  1  0  0  0  0
 50 53  1  0  0  0  0
 50 55  1  0  0  0  0
 51 52  2  0  0  0  0
 51 59  1  0  0  0  0
 53 56  1  0  0  0  0
 53 57  1  0  0  0  0
 53 58  1  0  0  0  0
 59 60  1  0  0  0  0
 59 61  1  0  0  0  0
 60 62  1  0  0  0  0
 60 63  1  0  0  0  0
 60 64  1  0  0  0  0
M  END
$$$$

  -OEChem-05262216053D

 64 63  0     1  0  0  0  0  0999 V2000
    0.3560    6.3210   -7.4247 C   0  0  0  0  0  0  0  0  0  0  0  0
   -0.7461    5.8235   -7.5980 O   0  0  0  0  0  0  0  0  0  0  0  0
    0.9792    7.1912   -8.4995 C   0  0  0  0  0  0  0  0  0  0  0  0
    1.9816    6.8280   -8.7394 H   0  0  0  0  0  0  0  0  0  0  0  0
    0.3688    7.1640   -9.4064 H   0  0  0  0  0  0  0  0  0  0  0  0
    1.0470    8.2241   -8.1496 H   0  0  0  0  0  0  0  0  0  0  0  0
    1.0308    6.0971   -6.2452 N   0  0  0  0  0  0  0  0  0  0  0  0
    0.4884    5.3509   -5.1012 C   0  0  2  0  0  0  0  0  0  0  0  0
    1.1646    5.7705   -3.7748 C   0  0  0  0  0  0  0  0  0  0  0  0
    2.0041    6.6666   -3.7807 O   0  0  0  0  0  0  0  0  0  0  0  0
    0.6394    3.8462   -5.3635 C   0  0  0  0  0  0  0  0  0  0  0  0
    2.4027    3.3204   -5.3835 S   0  0  0  0  0  0  0  0  0  0  0  0
    1.8993    6.6077   -6.0886 H   0  0  0  0  0  0  0  0  0  0  0  0
   -0.5769    5.5822   -4.9977 H   0  0  0  0  0  0  0  0  0  0  0  0
    0.1080    3.2957   -4.5865 H   0  0  0  0  0  0  0  0  0  0  0  0
    0.1753    3.5852   -6.3194 H   0  0  0  0  0  0  0  0  0  0  0  0
    0.8144    5.1893   -2.5681 N   0  0  0  0  0  0  0  0  0  0  0  0
    1.4794    5.5049   -1.3103 C   0  0  0  0  0  0  0  0  0  0  0  0
    0.1748    4.3914   -2.5834 H   0  0  0  0  0  0  0  0  0  0  0  0
    2.5344    5.2140   -1.3495 H   0  0  0  0  0  0  0  0  0  0  0  0
    1.4169    6.5772   -1.0986 H   0  0  0  0  0  0  0  0  0  0  0  0
    1.0008    4.9643   -0.4884 H   0  0  0  0  0  0  0  0  0  0  0  0
   -4.7852    2.2850   -1.8660 C   0  0  0  0  0  0  0  0  0  0  0  0
   -5.3545    1.2716   -2.2381 O   0  0  0  0  0  0  0  0  0  0  0  0
   -5.4834    3.2502   -0.9269 C   0  0  0  0  0  0  0  0  0  0  0  0
   -5.5908    4.2258   -1.4070 H   0  0  0  0  0  0  0  0  0  0  0  0
   -6.4768    2.8728   -0.6691 H   0  0  0  0  0  0  0  0  0  0  0  0
   -4.9016    3.3647   -0.0092 H   0  0  0  0  0  0  0  0  0  0  0  0
   -3.4991    2.5487   -2.2886 N   0  0  0  0  0  0  0  0  0  0  0  0
   -2.6747    1.6075   -3.0590 C   0  0  2  0  0  0  0  0  0  0  0  0
   -1.1867    1.6968   -2.6642 C   0  0  0  0  0  0  0  0  0  0  0  0
   -0.7574    2.7229   -2.1416 O   0  0  0  0  0  0  0  0  0  0  0  0
   -2.8557    1.9173   -4.5482 C   0  0  0  0  0  0  0  0  0  0  0  0
   -3.0231    3.3442   -1.8664 H   0  0  0  0  0  0  0  0  0  0  0  0
   -3.0027    0.5809   -2.8617 H   0  0  0  0  0  0  0  0  0  0  0  0
   -2.5415    2.9426   -4.7683 H   0  0  0  0  0  0  0  0  0  0  0  0
   -2.2619    1.2313   -5.1604 H   0  0  0  0  0  0  0  0  0  0  0  0
   -3.9078    1.8080   -4.8313 H   0  0  0  0  0  0  0  0  0  0  0  0
   -0.3344    0.6380   -2.9276 N   0  0  0  0  0  0  0  0  0  0  0  0
    1.0472    0.5035   -2.4193 C   0  0  2  0  0  0  0  0  0  0  0  0
    1.0695    0.4857   -0.8713 C   0  0  0  0  0  0  0  0  0  0  0  0
    0.2830   -0.2411   -0.2756 O   0  0  0  0  0  0  0  0  0  0  0  0
    1.9783    1.5730   -3.0198 C   0  0  0  0  0  0  0  0  0  0  0  0
    2.1413    1.3262   -4.8328 S   0  0  0  0  0  0  0  0  0  0  0  0
   -0.7839   -0.2103   -3.2622 H   0  0  0  0  0  0  0  0  0  0  0  0
    1.4356   -0.4704   -2.7322 H   0  0  0  0  0  0  0  0  0  0  0  0
    1.6108    2.5773   -2.8030 H   0  0  0  0  0  0  0  0  0  0  0  0
    2.9781    1.4927   -2.5823 H   0  0  0  0  0  0  0  0  0  0  0  0
    1.9791    1.2235   -0.1346 N   0  0  0  0  0  0  0  0  0  0  0  0
    1.9081    1.3973    1.3217 C   0  0  2  0  0  0  0  0  0  0  0  0
    2.3332    2.8229    1.7304 C   0  0  0  0  0  0  0  0  0  0  0  0
    2.8979    3.5497    0.9197 O   0  0  0  0  0  0  0  0  0  0  0  0
    2.8122    0.3506    1.9782 C   0  0  0  0  0  0  0  0  0  0  0  0
    2.5027    1.9401   -0.6371 H   0  0  0  0  0  0  0  0  0  0  0  0
    0.8783    1.2541    1.6665 H   0  0  0  0  0  0  0  0  0  0  0  0
    3.8484    0.4813    1.6500 H   0  0  0  0  0  0  0  0  0  0  0  0
    2.7766    0.4402    3.0680 H   0  0  0  0  0  0  0  0  0  0  0  0
    2.4843   -0.6576    1.7053 H   0  0  0  0  0  0  0  0  0  0  0  0
    2.0575    3.3063    2.9959 N   0  0  0  0  0  0  0  0  0  0  0  0
    2.3969    4.6576    3.4257 C   0  0  0  0  0  0  0  0  0  0  0  0
    1.5733    2.6900    3.6426 H   0  0  0  0  0  0  0  0  0  0  0  0
    3.4792    4.8163    3.3739 H   0  0  0  0  0  0  0  0  0  0  0  0
    1.9017    5.3983    2.7888 H   0  0  0  0  0  0  0  0  0  0  0  0
    2.0729    4.8185    4.4583 H   0  0  0  0  0  0  0  0  0  0  0  0
  1  2  2  0  0  0  0
  1  3  1  0  0  0  0
  1  7  1  0  0  0  0
  3  4  1  0  0  0  0
  3  5  1  0  0  0  0
  3  6  1  0  0  0  0
  7  8  1  0  0  0  0
  7 13  1  0  0  0  0
  8  9  1  0  0  0  0
  8 11  1  0  0  0  0
  8 14  1  0  0  0  0
  9 10  2  0  0  0  0
  9 17  1  0  0  0  0
 11 12  1  0  0  0  0
 11 15  1  0  0  0  0
 11 16  1  0  0  0  0
 12 44  1  0  0  0  0
 17 18  1  0  0  0  0
 17 19  1  0  0  0  0
 18 20  1  0  0  0  0
 18 21  1  0  0  0  0
 18 22  1  0  0  0  0
 23 24  2  0  0  0  0
 23 25  1  0  0  0  0
 23 29  1  0  0  0  0
 25 26  1  0  0  0  0
 25 27  1  0  0  0  0
 25 28  1  0  0  0  0
 29 30  1  0  0  0  0
 29 34  1  0  0  0  0
 30 31  1  0  0  0  0
 30 33  1  0  0  0  0
 30 35  1  0  0  0  0
 31 32  2  0  0  0  0
 31 39  1  0  0  0  0
 33 36  1  0  0  0  0
 33 37  1  0  0  0  0
 33 38  1  0  0  0  0
 39 40  1  0  0  0  0
 39 45  1  0  0  0  0
 40 41  1  0  0  0  0
 40 43  1  0  0  0  0
 40 46  1  0  0  0  0
 41 42  2  0  0  0  0
 41 49  1  0  0  0  0
 43 44  1  0  0  0  0
 43 47  1  0  0  0  0
 43 48  1  0  0  0  0
 49 50  1  0  0  0  0
 49 54  1  0  0  0  0
 50 51  1  0  0  0  0
 50 53  1  0  0  0  0
 50 55  1  0  0  0  0
 51 52  2  0  0  0  0
 51 59  1  0  0  0  0
 53 56  1  0  0  0  0
 53 57  1  0  0  0  0
 53 58  1  0  0  0  0
 59 60  1  0  0  0  0
 59 61  1  0  0  0  0
 60 62  1  0  0  0  0
 60 63  1  0  0  0  0
 60 64  1  0  0  0  0
M  END
$$$$

  -OEChem-05262216053D

 64 63  0     1  0  0  0  0  0999 V2000
    0.4311    6.2598   -7.5212 C   0  0  0  0  0  0  0  0  0  0  0  0
   -0.6488    5.7329   -7.7416 O   0  0  0  0  0  0  0  0  0  0  0  0
    1.0912    7.1263   -8.5772 C   0  0  0  0  0  0  0  0  0  0  0  0
    2.0628    6.7066   -8.8494 H   0  0  0  0  0  0  0  0  0  0  0  0
    0.4646    7.1745   -9.4720 H   0  0  0  0  0  0  0  0  0  0  0  0
    1.2345    8.1390   -8.1925 H   0  0  0  0  0  0  0  0  0  0  0  0
    1.0474    6.0744   -6.3034 N   0  0  0  0  0  0  0  0  0  0  0  0
    0.4532    5.3526   -5.1692 C   0  0  2  0  0  0  0  0  0  0  0  0
    1.0393    5.8262   -3.8193 C   0  0  0  0  0  0  0  0  0  0  0  0
    1.8529    6.7452   -3.8022 O   0  0  0  0  0  0  0  0  0  0  0  0
    0.6488    3.8438   -5.3700 C   0  0  0  0  0  0  0  0  0  0  0  0
    2.4244    3.3642   -5.3073 S   0  0  0  0  0  0  0  0  0  0  0  0
    1.8923    6.6122   -6.1114 H   0  0  0  0  0  0  0  0  0  0  0  0
   -0.6207    5.5639   -5.1348 H   0  0  0  0  0  0  0  0  0  0  0  0
    0.1033    3.3074   -4.5916 H   0  0  0  0  0  0  0  0  0  0  0  0
    0.2267    3.5386   -6.3332 H   0  0  0  0  0  0  0  0  0  0  0  0
    0.6234    5.2751   -2.6196 N   0  0  0  0  0  0  0  0  0  0  0  0
    1.1752    5.6639   -1.3285 C   0  0  0  0  0  0  0  0  0  0  0  0
    0.0212    4.4494   -2.6485 H   0  0  0  0  0  0  0  0  0  0  0  0
    2.2153    5.3343   -1.2402 H   0  0  0  0  0  0  0  0  0  0  0  0
    1.1373    6.7504   -1.2002 H   0  0  0  0  0  0  0  0  0  0  0  0
    0.5944    5.2053   -0.5229 H   0  0  0  0  0  0  0  0  0  0  0  0
   -4.8056    2.3206   -1.9304 C   0  0  0  0  0  0  0  0  0  0  0  0
   -5.3562    1.2847   -2.2665 O   0  0  0  0  0  0  0  0  0  0  0  0
   -5.5364    3.3223   -1.0563 C   0  0  0  0  0  0  0  0  0  0  0  0
   -5.6564    4.2666   -1.5928 H   0  0  0  0  0  0  0  0  0  0  0  0
   -6.5258    2.9390   -0.7913 H   0  0  0  0  0  0  0  0  0  0  0  0
   -4.9711    3.5006   -0.1385 H   0  0  0  0  0  0  0  0  0  0  0  0
   -3.5134    2.5781   -2.3390 N   0  0  0  0  0  0  0  0  0  0  0  0
   -2.6678    1.6171   -3.0614 C   0  0  2  0  0  0  0  0  0  0  0  0
   -1.1892    1.7186   -2.6350 C   0  0  0  0  0  0  0  0  0  0  0  0
   -0.7789    2.7464   -2.1025 O   0  0  0  0  0  0  0  0  0  0  0  0
   -2.8131    1.8849   -4.5626 C   0  0  0  0  0  0  0  0  0  0  0  0
   -3.0530    3.3949   -1.9410 H   0  0  0  0  0  0  0  0  0  0  0  0
   -2.9981    0.5953   -2.8438 H   0  0  0  0  0  0  0  0  0  0  0  0
   -2.4956    2.9040   -4.8059 H   0  0  0  0  0  0  0  0  0  0  0  0
   -2.2039    1.1829   -5.1403 H   0  0  0  0  0  0  0  0  0  0  0  0
   -3.8578    1.7651   -4.8673 H   0  0  0  0  0  0  0  0  0  0  0  0
   -0.3193    0.6712   -2.8847 N   0  0  0  0  0  0  0  0  0  0  0  0
    1.0531    0.5493   -2.3500 C   0  0  2  0  0  0  0  0  0  0  0  0
    1.0506    0.5242   -0.8043 C   0  0  0  0  0  0  0  0  0  0  0  0
    0.4486   -0.3791   -0.2367 O   0  0  0  0  0  0  0  0  0  0  0  0
    1.9903    1.6239   -2.9304 C   0  0  0  0  0  0  0  0  0  0  0  0
    2.1908    1.3720   -4.7392 S   0  0  0  0  0  0  0  0  0  0  0  0
   -0.7502   -0.1798   -3.2376 H   0  0  0  0  0  0  0  0  0  0  0  0
    1.4546   -0.4209   -2.6586 H   0  0  0  0  0  0  0  0  0  0  0  0
    1.6096    2.6273   -2.7285 H   0  0  0  0  0  0  0  0  0  0  0  0
    2.9781    1.5509   -2.4642 H   0  0  0  0  0  0  0  0  0  0  0  0
    1.7120    1.4689   -0.0398 N   0  0  0  0  0  0  0  0  0  0  0  0
    1.6258    1.5502    1.4242 C   0  0  2  0  0  0  0  0  0  0  0  0
    1.7342    3.0065    1.9188 C   0  0  0  0  0  0  0  0  0  0  0  0
    2.1978    3.8714    1.1842 O   0  0  0  0  0  0  0  0  0  0  0  0
    2.7470    0.6962    2.0235 C   0  0  0  0  0  0  0  0  0  0  0  0
    2.0402    2.3074   -0.5192 H   0  0  0  0  0  0  0  0  0  0  0  0
    0.6570    1.1649    1.7600 H   0  0  0  0  0  0  0  0  0  0  0  0
    3.7253    1.0692    1.7034 H   0  0  0  0  0  0  0  0  0  0  0  0
    2.7054    0.7201    3.1165 H   0  0  0  0  0  0  0  0  0  0  0  0
    2.6471   -0.3440    1.6976 H   0  0  0  0  0  0  0  0  0  0  0  0
    1.2993    3.3524    3.1848 N   0  0  0  0  0  0  0  0  0  0  0  0
    1.3502    4.7136    3.7047 C   0  0  0  0  0  0  0  0  0  0  0  0
    0.9032    2.6182    3.7645 H   0  0  0  0  0  0  0  0  0  0  0  0
    2.3775    5.0926    3.6870 H   0  0  0  0  0  0  0  0  0  0  0  0
    0.7192    5.3771    3.1041 H   0  0  0  0  0  0  0  0  0  0  0  0
    0.9920    4.7385    4.7384 H   0  0  0  0  0  0  0  0  0  0  0  0
  1  2  2  0  0  0  0
  1  3  1  0  0  0  0
  1  7  1  0  0  0  0
  3  4  1  0  0  0  0
  3  5  1  0  0  0  0
  3  6  1  0  0  0  0
  7  8  1  0  0  0  0
  7 13  1  0  0  0  0
  8  9  1  0  0  0  0
  8 11  1  0  0  0  0
  8 14  1  0  0  0  0
  9 10  2  0  0  0  0
  9 17  1  0  0  0  0
 11 12  1  0  0  0  0
 11 15  1  0  0  0  0
 11 16  1  0  0  0  0
 12 44  1  0  0  0  0
 17 18  1  0  0  0  0
 17 19  1  0  0  0  0
 18 20  1  0  0  0  0
 18 21  1  0  0  0  0
 18 22  1  0  0  0  0
 23 24  2  0  0  0  0
 23 25  1  0  0  0  0
 23 29  1  0  0  0  0
 25 26  1  0  0  0  0
 25 27  1  0  0  0  0
 25 28  1  0  0  0  0
 29 30  1  0  0  0  0
 29 34  1  0  0  0  0
 30 31  1  0  0  0  0
 30 33  1  0  0  0  0
 30 35  1  0  0  0  0
 31 32  2  0  0  0  0
 31 39  1  0  0  0  0
 33 36  1  0  0  0  0
 33 37  1  0  0  0  0
 33 38  1  0  0  0  0
 39 40  1  0  0  0  0
 39 45  1  0  0  0  0
 40 41  1  0  0  0  0
 40 43  1  0  0  0  0
 40 46  1  0  0  0  0
 41 42  2  0  0  0  0
 41 49  1  0  0  0  0
 43 44  1  0  0  0  0
 43 47  1  0  0  0  0
 43 48  1  0  0  0  0
 49 50  1  0  0  0  0
 49 54  1  0  0  0  0
 50 51  1  0  0  0  0
 50 53  1  0  0  0  0
 50 55  1  0  0  0  0
 51 52  2  0  0  0  0
 51 59  1  0  0  0  0
 53 56  1  0  0  0  0
 53 57  1  0  0  0  0
 53 58  1  0  0  0  0
 59 60  1  0  0  0  0
 59 61  1  0  0  0  0
 60 62  1  0  0  0  0
 60 63  1  0  0  0  0
 60 64  1  0  0  0  0
M  END
$$$$

  -OEChem-05262216053D

 64 63  0     1  0  0  0  0  0999 V2000
    0.5181    6.1417   -7.5884 C   0  0  0  0  0  0  0  0  0  0  0  0
   -0.5471    5.5945   -7.8303 O   0  0  0  0  0  0  0  0  0  0  0  0
    1.2168    6.9613   -8.6558 C   0  0  0  0  0  0  0  0  0  0  0  0
    2.2338    6.5902   -8.8048 H   0  0  0  0  0  0  0  0  0  0  0  0
    0.6727    6.8893   -9.6013 H   0  0  0  0  0  0  0  0  0  0  0  0
    1.2591    8.0098   -8.3518 H   0  0  0  0  0  0  0  0  0  0  0  0
    1.0804    6.0233   -6.3369 N   0  0  0  0  0  0  0  0  0  0  0  0
    0.4468    5.3388   -5.2014 C   0  0  2  0  0  0  0  0  0  0  0  0
    0.9563    5.8772   -3.8452 C   0  0  0  0  0  0  0  0  0  0  0  0
    1.7571    6.8072   -3.8262 O   0  0  0  0  0  0  0  0  0  0  0  0
    0.6740    3.8284   -5.3329 C   0  0  0  0  0  0  0  0  0  0  0  0
    2.4540    3.3823   -5.2173 S   0  0  0  0  0  0  0  0  0  0  0  0
    1.9165    6.5710   -6.1359 H   0  0  0  0  0  0  0  0  0  0  0  0
   -0.6309    5.5315   -5.2269 H   0  0  0  0  0  0  0  0  0  0  0  0
    0.1236    3.3152   -4.5438 H   0  0  0  0  0  0  0  0  0  0  0  0
    0.2765    3.4758   -6.2899 H   0  0  0  0  0  0  0  0  0  0  0  0
    0.4609    5.3915   -2.6473 N   0  0  0  0  0  0  0  0  0  0  0  0
    0.8700    5.9011   -1.3445 C   0  0  0  0  0  0  0  0  0  0  0  0
   -0.1035    4.5401   -2.6667 H   0  0  0  0  0  0  0  0  0  0  0  0
    1.8599    5.5187   -1.0761 H   0  0  0  0  0  0  0  0  0  0  0  0
    0.9027    6.9958   -1.3448 H   0  0  0  0  0  0  0  0  0  0  0  0
    0.1527    5.5865   -0.5806 H   0  0  0  0  0  0  0  0  0  0  0  0
   -4.7542    2.2700   -1.8389 C   0  0  0  0  0  0  0  0  0  0  0  0
   -5.2590    1.1941   -2.1151 O   0  0  0  0  0  0  0  0  0  0  0  0
   -5.4673    3.2290   -0.9043 C   0  0  0  0  0  0  0  0  0  0  0  0
   -5.6684    4.1708   -1.4202 H   0  0  0  0  0  0  0  0  0  0  0  0
   -6.4168    2.7987   -0.5738 H   0  0  0  0  0  0  0  0  0  0  0  0
   -4.8461    3.4267   -0.0275 H   0  0  0  0  0  0  0  0  0  0  0  0
   -3.5274    2.6153   -2.3667 N   0  0  0  0  0  0  0  0  0  0  0  0
   -2.6680    1.6993   -3.1317 C   0  0  2  0  0  0  0  0  0  0  0  0
   -1.2054    1.7531   -2.6463 C   0  0  0  0  0  0  0  0  0  0  0  0
   -0.7907    2.7628   -2.0839 O   0  0  0  0  0  0  0  0  0  0  0  0
   -2.7611    2.0884   -4.6100 C   0  0  0  0  0  0  0  0  0  0  0  0
   -3.0887    3.4541   -1.9907 H   0  0  0  0  0  0  0  0  0  0  0  0
   -3.0114    0.6660   -3.0122 H   0  0  0  0  0  0  0  0  0  0  0  0
   -2.4433    3.1254   -4.7581 H   0  0  0  0  0  0  0  0  0  0  0  0
   -2.1254    1.4388   -5.2196 H   0  0  0  0  0  0  0  0  0  0  0  0
   -3.7932    1.9889   -4.9616 H   0  0  0  0  0  0  0  0  0  0  0  0
   -0.3457    0.6962   -2.8902 N   0  0  0  0  0  0  0  0  0  0  0  0
    1.0118    0.5492   -2.3261 C   0  0  2  0  0  0  0  0  0  0  0  0
    0.9901    0.5037   -0.7821 C   0  0  0  0  0  0  0  0  0  0  0  0
    0.6411   -0.5344   -0.2349 O   0  0  0  0  0  0  0  0  0  0  0  0
    1.9799    1.6154   -2.8675 C   0  0  0  0  0  0  0  0  0  0  0  0
    2.2230    1.3840   -4.6737 S   0  0  0  0  0  0  0  0  0  0  0  0
   -0.7672   -0.1332   -3.3012 H   0  0  0  0  0  0  0  0  0  0  0  0
    1.4055   -0.4223   -2.6425 H   0  0  0  0  0  0  0  0  0  0  0  0
    1.6091    2.6228   -2.6654 H   0  0  0  0  0  0  0  0  0  0  0  0
    2.9518    1.5224   -2.3718 H   0  0  0  0  0  0  0  0  0  0  0  0
    1.3864    1.5752   -0.0018 N   0  0  0  0  0  0  0  0  0  0  0  0
    1.3037    1.5983    1.4652 C   0  0  2  0  0  0  0  0  0  0  0  0
    0.9708    3.0057    1.9987 C   0  0  0  0  0  0  0  0  0  0  0  0
    1.1270    3.9898    1.2853 O   0  0  0  0  0  0  0  0  0  0  0  0
    2.6429    1.1163    2.0312 C   0  0  0  0  0  0  0  0  0  0  0  0
    1.4265    2.4839   -0.4660 H   0  0  0  0  0  0  0  0  0  0  0  0
    0.5063    0.9287    1.8043 H   0  0  0  0  0  0  0  0  0  0  0  0
    3.4529    1.7837    1.7190 H   0  0  0  0  0  0  0  0  0  0  0  0
    2.6126    1.0937    3.1248 H   0  0  0  0  0  0  0  0  0  0  0  0
    2.8652    0.1062    1.6722 H   0  0  0  0  0  0  0  0  0  0  0  0
    0.4884    3.1703    3.2839 N   0  0  0  0  0  0  0  0  0  0  0  0
    0.1410    4.4689    3.8476 C   0  0  0  0  0  0  0  0  0  0  0  0
    0.3640    2.3372    3.8520 H   0  0  0  0  0  0  0  0  0  0  0  0
    1.0181    5.1243    3.8716 H   0  0  0  0  0  0  0  0  0  0  0  0
   -0.6413    4.9485    3.2496 H   0  0  0  0  0  0  0  0  0  0  0  0
   -0.2291    4.3503    4.8705 H   0  0  0  0  0  0  0  0  0  0  0  0
  1  2  2  0  0  0  0
  1  3  1  0  0  0  0
  1  7  1  0  0  0  0
  3  4  1  0  0  0  0
  3  5  1  0  0  0  0
  3  6  1  0  0  0  0
  7  8  1  0  0  0  0
  7 13  1  0  0  0  0
  8  9  1  0  0  0  0
  8 11  1  0  0  0  0
  8 14  1  0  0  0  0
  9 10  2  0  0  0  0
  9 17  1  0  0  0  0
 11 12  1  0  0  0  0
 11 15  1  0  0  0  0
 11 16  1  0  0  0  0
 12 44  1  0  0  0  0
 17 18  1  0  0  0  0
 17 19  1  0  0  0  0
 18 20  1  0  0  0  0
 18 21  1  0  0  0  0
 18 22  1  0  0  0  0
 23 24  2  0  0  0  0
 23 25  1  0  0  0  0
 23 29  1  0  0  0  0
 25 26  1  0  0  0  0
 25 27  1  0  0  0  0
 25 28  1  0  0  0  0
 29 30  1  0  0  0  0
 29 34  1  0  0  0  0
 30 31  1  0  0  0  0
 30 33  1  0  0  0  0
 30 35  1  0  0  0  0
 31 32  2  0  0  0  0
 31 39  1  0  0  0  0
 33 36  1  0  0  0  0
 33 37  1  0  0  0  0
 33 38  1  0  0  0  0
 39 40  1  0  0  0  0
 39 45  1  0  0  0  0
 40 41  1  0  0  0  0
 40 43  1  0  0  0  0
 40 46  1  0  0  0  0
 41 42  2  0  0  0  0
 41 49  1  0  0  0  0
 43 44  1  0  0  0  0
 43 47  1  0  0  0  0
 43 48  1  0  0  0  0
 49 50  1  0  0  0  0
 49 54  1  0  0  0  0
 50 51  1  0  0  0  0
 50 53  1  0  0  0  0
 50 55  1  0  0  0  0
 51 52  2  0  0  0  0
 51 59  1  0  0  0  0
 53 56  1  0  0  0  0
 53 57  1  0  0  0  0
 53 58  1  0  0  0  0
 59 60  1  0  0  0  0
 59 61  1  0  0  0  0
 60 62  1  0  0  0  0
 60 63  1  0  0  0  0
 60 64  1  0  0  0  0
M  END
$$$$

  -OEChem-05262216053D

 64 63  0     1  0  0  0  0  0999 V2000
    1.4043    5.7730   -8.2059 C   0  0  0  0  0  0  0  0  0  0  0  0
    0.1976    5.6646   -8.3599 O   0  0  0  0  0  0  0  0  0  0  0  0
    2.2856    6.1964   -9.3649 C   0  0  0  0  0  0  0  0  0  0  0  0
    3.0576    5.4433   -9.5403 H   0  0  0  0  0  0  0  0  0  0  0  0
    1.6865    6.3050  -10.2732 H   0  0  0  0  0  0  0  0  0  0  0  0
    2.7622    7.1532   -9.1395 H   0  0  0  0  0  0  0  0  0  0  0  0
    1.9645    5.5238   -6.9726 N   0  0  0  0  0  0  0  0  0  0  0  0
    1.1963    5.2140   -5.7586 C   0  0  2  0  0  0  0  0  0  0  0  0
    1.9617    5.6123   -4.4758 C   0  0  0  0  0  0  0  0  0  0  0  0
    3.0545    6.1655   -4.5615 O   0  0  0  0  0  0  0  0  0  0  0  0
    0.8282    3.7239   -5.7598 C   0  0  0  0  0  0  0  0  0  0  0  0
    2.3102    2.6458   -5.5958 S   0  0  0  0  0  0  0  0  0  0  0  0
    2.9556    5.7276   -6.8501 H   0  0  0  0  0  0  0  0  0  0  0  0
    0.2712    5.7999   -5.7632 H   0  0  0  0  0  0  0  0  0  0  0  0
    0.1421    3.5230   -4.9349 H   0  0  0  0  0  0  0  0  0  0  0  0
    0.3016    3.4716   -6.6856 H   0  0  0  0  0  0  0  0  0  0  0  0
    1.4140    5.4123   -3.2211 N   0  0  0  0  0  0  0  0  0  0  0  0
    2.0855    5.7801   -1.9830 C   0  0  0  0  0  0  0  0  0  0  0  0
    0.5394    4.8843   -3.1586 H   0  0  0  0  0  0  0  0  0  0  0  0
    3.0137    5.2114   -1.8660 H   0  0  0  0  0  0  0  0  0  0  0  0
    2.3208    6.8495   -1.9768 H   0  0  0  0  0  0  0  0  0  0  0  0
    1.4360    5.5662   -1.1293 H   0  0  0  0  0  0  0  0  0  0  0  0
   -3.7579    1.0397   -1.0468 C   0  0  0  0  0  0  0  0  0  0  0  0
   -3.7584    0.3497   -2.0572 O   0  0  0  0  0  0  0  0  0  0  0  0
   -3.9036    0.3977    0.3188 C   0  0  0  0  0  0  0  0  0  0  0  0
   -4.1688   -0.6578    0.2129 H   0  0  0  0  0  0  0  0  0  0  0  0
   -2.9596    0.4701    0.8649 H   0  0  0  0  0  0  0  0  0  0  0  0
   -4.6863    0.9044    0.8881 H   0  0  0  0  0  0  0  0  0  0  0  0
   -3.4983    2.3900   -1.1545 N   0  0  0  0  0  0  0  0  0  0  0  0
   -3.0598    3.0179   -2.4093 C   0  0  2  0  0  0  0  0  0  0  0  0
   -1.5617    2.7257   -2.6463 C   0  0  0  0  0  0  0  0  0  0  0  0
   -0.7124    3.5976   -2.4746 O   0  0  0  0  0  0  0  0  0  0  0  0
   -3.3735    4.5157   -2.3122 C   0  0  0  0  0  0  0  0  0  0  0  0
   -3.1809    2.8345   -0.2865 H   0  0  0  0  0  0  0  0  0  0  0  0
   -3.6217    2.6106   -3.2570 H   0  0  0  0  0  0  0  0  0  0  0  0
   -2.8558    4.9631   -1.4573 H   0  0  0  0  0  0  0  0  0  0  0  0
   -3.0535    5.0321   -3.2225 H   0  0  0  0  0  0  0  0  0  0  0  0
   -4.4494    4.6702   -2.1874 H   0  0  0  0  0  0  0  0  0  0  0  0
   -1.1698    1.4097   -2.8327 N   0  0  0  0  0  0  0  0  0  0  0  0
    0.1108    0.8693   -2.3381 C   0  0  2  0  0  0  0  0  0  0  0  0
    0.1637    1.0168   -0.8035 C   0  0  0  0  0  0  0  0  0  0  0  0
   -0.2470    0.1127   -0.0858 O   0  0  0  0  0  0  0  0  0  0  0  0
    1.3595    1.4417   -3.0342 C   0  0  0  0  0  0  0  0  0  0  0  0
    1.3778    0.9560   -4.8055 S   0  0  0  0  0  0  0  0  0  0  0  0
   -1.9618    0.7574   -2.8216 H   0  0  0  0  0  0  0  0  0  0  0  0
    0.1127   -0.2075   -2.5380 H   0  0  0  0  0  0  0  0  0  0  0  0
    1.4052    2.5280   -2.9470 H   0  0  0  0  0  0  0  0  0  0  0  0
    2.2603    1.0445   -2.5559 H   0  0  0  0  0  0  0  0  0  0  0  0
    0.6814    2.1582   -0.2200 N   0  0  0  0  0  0  0  0  0  0  0  0
    0.5591    2.4011    1.2243 C   0  0  2  0  0  0  0  0  0  0  0  0
   -0.8897    2.6728    1.6990 C   0  0  0  0  0  0  0  0  0  0  0  0
   -1.7267    3.1794    0.9569 O   0  0  0  0  0  0  0  0  0  0  0  0
    1.4532    3.5925    1.5692 C   0  0  0  0  0  0  0  0  0  0  0  0
    0.6532    2.9732   -0.8353 H   0  0  0  0  0  0  0  0  0  0  0  0
    0.9298    1.5219    1.7623 H   0  0  0  0  0  0  0  0  0  0  0  0
    1.1028    4.4941    1.0574 H   0  0  0  0  0  0  0  0  0  0  0  0
    1.4403    3.7800    2.6472 H   0  0  0  0  0  0  0  0  0  0  0  0
    2.4856    3.3943    1.2640 H   0  0  0  0  0  0  0  0  0  0  0  0
   -1.2531    2.3757    2.9996 N   0  0  0  0  0  0  0  0  0  0  0  0
   -2.5850    2.6161    3.5420 C   0  0  0  0  0  0  0  0  0  0  0  0
   -0.5665    1.9024    3.5804 H   0  0  0  0  0  0  0  0  0  0  0  0
   -2.8589    3.6709    3.4325 H   0  0  0  0  0  0  0  0  0  0  0  0
   -3.3281    2.0022    3.0230 H   0  0  0  0  0  0  0  0  0  0  0  0
   -2.6100    2.3637    4.6066 H   0  0  0  0  0  0  0  0  0  0  0  0
  1  2  2  0  0  0  0
  1  3  1  0  0  0  0
  1  7  1  0  0  0  0
  3  4  1  0  0  0  0
  3  5  1  0  0  0  0
  3  6  1  0  0  0  0
  7  8  1  0  0  0  0
  7 13  1  0  0  0  0
  8  9  1  0  0  0  0
  8 11  1  0  0  0  0
  8 14  1  0  0  0  0
  9 10  2  0  0  0  0
  9 17  1  0  0  0  0
 11 12  1  0  0  0  0
 11 15  1  0  0  0  0
 11 16  1  0  0  0  0
 12 44  1  0  0  0  0
 17 18  1  0  0  0  0
 17 19  1  0  0  0  0
 18 20  1  0  0  0  0
 18 21  1  0  0  0  0
 18 22  1  0  0  0  0
 23 24  2  0  0  0  0
 23 25  1  0  0  0  0
 23 29  1  0  0  0  0
 25 26  1  0  0  0  0
 25 27  1  0  0  0  0
 25 28  1  0  0  0  0
 29 30  1  0  0  0  0
 29 34  1  0  0  0  0
 30 31  1  0  0  0  0
 30 33  1  0  0  0  0
 30 35  1  0  0  0  0
 31 32  2  0  0  0  0
 31 39  1  0  0  0  0
 33 36  1  0  0  0  0
 33 37  1  0  0  0  0
 33 38  1  0  0  0  0
 39 40  1  0  0  0  0
 39 45  1  0  0  0  0
 40 41  1  0  0  0  0
 40 43  1  0  0  0  0
 40 46  1  0  0  0  0
 41 42  2  0  0  0  0
 41 49  1  0  0  0  0
 43 44  1  0  0  0  0
 43 47  1  0  0  0  0
 43 48  1  0  0  0  0
 49 50  1  0  0  0  0
 49 54  1  0  0  0  0
 50 51  1  0  0  0  0
 50 53  1  0  0  0  0
 50 55  1  0  0  0  0
 51 52  2  0  0  0  0
 51 59  1  0  0  0  0
 53 56  1  0  0  0  0
 53 57  1  0  0  0  0
 53 58  1  0  0  0  0
 59 60  1  0  0  0  0
 59 61  1  0  0  0  0
 60 62  1  0  0  0  0
 60 63  1  0  0  0  0
 60 64  1  0  0  0  0
M  END
$$$$

  -OEChem-05262216053D

 64 63  0     1  0  0  0  0  0999 V2000
    1.5436    5.8824   -8.0478 C   0  0  0  0  0  0  0  0  0  0  0  0
    0.3459    5.7857   -8.2662 O   0  0  0  0  0  0  0  0  0  0  0  0
    2.4888    6.3170   -9.1511 C   0  0  0  0  0  0  0  0  0  0  0  0
    3.2622    5.5593   -9.2982 H   0  0  0  0  0  0  0  0  0  0  0  0
    1.9402    6.4466  -10.0879 H   0  0  0  0  0  0  0  0  0  0  0  0
    2.9623    7.2649   -8.8851 H   0  0  0  0  0  0  0  0  0  0  0  0
    2.0381    5.6028   -6.7934 N   0  0  0  0  0  0  0  0  0  0  0  0
    1.2121    5.2533   -5.6294 C   0  0  2  0  0  0  0  0  0  0  0  0
    1.9106    5.6237   -4.3010 C   0  0  0  0  0  0  0  0  0  0  0  0
    3.0129    6.1643   -4.3191 O   0  0  0  0  0  0  0  0  0  0  0  0
    0.8644    3.7594   -5.6857 C   0  0  0  0  0  0  0  0  0  0  0  0
    2.3544    2.6981   -5.4877 S   0  0  0  0  0  0  0  0  0  0  0  0
    3.0228    5.7960   -6.6159 H   0  0  0  0  0  0  0  0  0  0  0  0
    0.2807    5.8280   -5.6653 H   0  0  0  0  0  0  0  0  0  0  0  0
    0.1474    3.5273   -4.8954 H   0  0  0  0  0  0  0  0  0  0  0  0
    0.3807    3.5258   -6.6395 H   0  0  0  0  0  0  0  0  0  0  0  0
    1.2978    5.4055   -3.0800 N   0  0  0  0  0  0  0  0  0  0  0  0
    1.9282    5.7131   -1.8039 C   0  0  0  0  0  0  0  0  0  0  0  0
    0.4206    4.8785   -3.0723 H   0  0  0  0  0  0  0  0  0  0  0  0
    2.8050    5.0767   -1.6463 H   0  0  0  0  0  0  0  0  0  0  0  0
    2.2422    6.7617   -1.7721 H   0  0  0  0  0  0  0  0  0  0  0  0
    1.2208    5.5422   -0.9878 H   0  0  0  0  0  0  0  0  0  0  0  0
   -3.8909    0.7912   -1.3142 C   0  0  0  0  0  0  0  0  0  0  0  0
   -3.7555    0.1216   -2.3288 O   0  0  0  0  0  0  0  0  0  0  0  0
   -4.1061    0.1111    0.0233 C   0  0  0  0  0  0  0  0  0  0  0  0
   -4.8110    0.6871    0.6272 H   0  0  0  0  0  0  0  0  0  0  0  0
   -4.5096   -0.8939   -0.1269 H   0  0  0  0  0  0  0  0  0  0  0  0
   -3.1552    0.0366    0.5578 H   0  0  0  0  0  0  0  0  0  0  0  0
   -3.6959    2.1549   -1.3762 N   0  0  0  0  0  0  0  0  0  0  0  0
   -3.1750    2.8339   -2.5717 C   0  0  2  0  0  0  0  0  0  0  0  0
   -1.6459    2.6340   -2.6729 C   0  0  0  0  0  0  0  0  0  0  0  0
   -0.8655    3.5609   -2.4647 O   0  0  0  0  0  0  0  0  0  0  0  0
   -3.5863    4.3083   -2.4819 C   0  0  0  0  0  0  0  0  0  0  0  0
   -3.4941    2.5971   -0.4731 H   0  0  0  0  0  0  0  0  0  0  0  0
   -3.6299    2.4123   -3.4747 H   0  0  0  0  0  0  0  0  0  0  0  0
   -3.1731    4.7706   -1.5793 H   0  0  0  0  0  0  0  0  0  0  0  0
   -3.2195    4.8590   -3.3535 H   0  0  0  0  0  0  0  0  0  0  0  0
   -4.6767    4.3966   -2.4508 H   0  0  0  0  0  0  0  0  0  0  0  0
   -1.1644    1.3414   -2.7955 N   0  0  0  0  0  0  0  0  0  0  0  0
    0.1290    0.8634   -2.2666 C   0  0  2  0  0  0  0  0  0  0  0  0
    0.1842    1.0393   -0.7345 C   0  0  0  0  0  0  0  0  0  0  0  0
    0.0264    0.0735    0.0019 O   0  0  0  0  0  0  0  0  0  0  0  0
    1.3528    1.4955   -2.9507 C   0  0  0  0  0  0  0  0  0  0  0  0
    1.4240    0.9988   -4.7177 S   0  0  0  0  0  0  0  0  0  0  0  0
   -1.9129    0.6420   -2.8532 H   0  0  0  0  0  0  0  0  0  0  0  0
    0.1857   -0.2142   -2.4546 H   0  0  0  0  0  0  0  0  0  0  0  0
    1.3351    2.5832   -2.8686 H   0  0  0  0  0  0  0  0  0  0  0  0
    2.2671    1.1518   -2.4567 H   0  0  0  0  0  0  0  0  0  0  0  0
    0.3670    2.2903   -0.1735 N   0  0  0  0  0  0  0  0  0  0  0  0
    0.1656    2.5342    1.2613 C   0  0  2  0  0  0  0  0  0  0  0  0
   -1.3209    2.5205    1.6891 C   0  0  0  0  0  0  0  0  0  0  0  0
   -2.2074    2.9036    0.9305 O   0  0  0  0  0  0  0  0  0  0  0  0
    0.7913    3.8886    1.5989 C   0  0  0  0  0  0  0  0  0  0  0  0
    0.1712    3.0624   -0.8159 H   0  0  0  0  0  0  0  0  0  0  0  0
    0.6905    1.7594    1.8303 H   0  0  0  0  0  0  0  0  0  0  0  0
    0.2641    4.6943    1.0778 H   0  0  0  0  0  0  0  0  0  0  0  0
    0.7336    4.0769    2.6756 H   0  0  0  0  0  0  0  0  0  0  0  0
    1.8443    3.9069    1.3003 H   0  0  0  0  0  0  0  0  0  0  0  0
   -1.6690    2.1192    2.9653 N   0  0  0  0  0  0  0  0  0  0  0  0
   -3.0421    2.0859    3.4545 C   0  0  0  0  0  0  0  0  0  0  0  0
   -0.9292    1.7515    3.5572 H   0  0  0  0  0  0  0  0  0  0  0  0
   -3.5105    3.0709    3.3540 H   0  0  0  0  0  0  0  0  0  0  0  0
   -3.6319    1.3553    2.8917 H   0  0  0  0  0  0  0  0  0  0  0  0
   -3.0588    1.8043    4.5119 H   0  0  0  0  0  0  0  0  0  0  0  0
  1  2  2  0  0  0  0
  1  3  1  0  0  0  0
  1  7  1  0  0  0  0
  3  4  1  0  0  0  0
  3  5  1  0  0  0  0
  3  6  1  0  0  0  0
  7  8  1  0  0  0  0
  7 13  1  0  0  0  0
  8  9  1  0  0  0  0
  8 11  1  0  0  0  0
  8 14  1  0  0  0  0
  9 10  2  0  0  0  0
  9 17  1  0  0  0  0
 11 12  1  0  0  0  0
 11 15  1  0  0  0  0
 11 16  1  0  0  0  0
 12 44  1  0  0  0  0
 17 18  1  0  0  0  0
 17 19  1  0  0  0  0
 18 20  1  0  0  0  0
 18 21  1  0  0  0  0
 18 22  1  0  0  0  0
 23 24  2  0  0  0  0
 23 25  1  0  0  0  0
 23 29  1  0  0  0  0
 25 26  1  0  0  0  0
 25 27  1  0  0  0  0
 25 28  1  0  0  0  0
 29 30  1  0  0  0  0
 29 34  1  0  0  0  0
 30 31  1  0  0  0  0
 30 33  1  0  0  0  0
 30 35  1  0  0  0  0
 31 32  2  0  0  0  0
 31 39  1  0  0  0  0
 33 36  1  0  0  0  0
 33 37  1  0  0  0  0
 33 38  1  0  0  0  0
 39 40  1  0  0  0  0
 39 45  1  0  0  0  0
 40 41  1  0  0  0  0
 40 43  1  0  0  0  0
 40 46  1  0  0  0  0
 41 42  2  0  0  0  0
 41 49  1  0  0  0  0
 43 44  1  0  0  0  0
 43 47  1  0  0  0  0
 43 48  1  0  0  0  0
 49 50  1  0  0  0  0
 49 54  1  0  0  0  0
 50 51  1  0  0  0  0
 50 53  1  0  0  0  0
 50 55  1  0  0  0  0
 51 52  2  0  0  0  0
 51 59  1  0  0  0  0
 53 56  1  0  0  0  0
 53 57  1  0  0  0  0
 53 58  1  0  0  0  0
 59 60  1  0  0  0  0
 59 61  1  0  0  0  0
 60 62  1  0  0  0  0
 60 63  1  0  0  0  0
 60 64  1  0  0  0  0
M  END
$$$$

  -OEChem-05262216053D

 64 63  0     1  0  0  0  0  0999 V2000
    1.3514    6.0285   -7.9215 C   0  0  0  0  0  0  0  0  0  0  0  0
    0.1433    5.9462   -8.0804 O   0  0  0  0  0  0  0  0  0  0  0  0
    2.2384    6.4901   -9.0624 C   0  0  0  0  0  0  0  0  0  0  0  0
    2.9410    5.6976   -9.3309 H   0  0  0  0  0  0  0  0  0  0  0  0
    1.6293    6.7327   -9.9378 H   0  0  0  0  0  0  0  0  0  0  0  0
    2.7985    7.3801   -8.7656 H   0  0  0  0  0  0  0  0  0  0  0  0
    1.9061    5.7017   -6.7033 N   0  0  0  0  0  0  0  0  0  0  0  0
    1.1337    5.3149   -5.5138 C   0  0  2  0  0  0  0  0  0  0  0  0
    1.8939    5.6248   -4.2034 C   0  0  0  0  0  0  0  0  0  0  0  0
    3.0000    6.1556   -4.2474 O   0  0  0  0  0  0  0  0  0  0  0  0
    0.7703    3.8265   -5.6108 C   0  0  0  0  0  0  0  0  0  0  0  0
    2.2557    2.7475   -5.4851 S   0  0  0  0  0  0  0  0  0  0  0  0
    2.9026    5.8696   -6.5714 H   0  0  0  0  0  0  0  0  0  0  0  0
    0.2075    5.8985   -5.4847 H   0  0  0  0  0  0  0  0  0  0  0  0
    0.0724    3.5749   -4.8102 H   0  0  0  0  0  0  0  0  0  0  0  0
    0.2595    3.6282   -6.5582 H   0  0  0  0  0  0  0  0  0  0  0  0
    1.3376    5.3440   -2.9678 N   0  0  0  0  0  0  0  0  0  0  0  0
    2.0434    5.5402   -1.7090 C   0  0  0  0  0  0  0  0  0  0  0  0
    0.4519    4.8319   -2.9498 H   0  0  0  0  0  0  0  0  0  0  0  0
    2.9399    4.9127   -1.6704 H   0  0  0  0  0  0  0  0  0  0  0  0
    2.3395    6.5880   -1.5929 H   0  0  0  0  0  0  0  0  0  0  0  0
    1.3943    5.2704   -0.8708 H   0  0  0  0  0  0  0  0  0  0  0  0
   -4.0504    0.7491   -1.5728 C   0  0  0  0  0  0  0  0  0  0  0  0
   -3.8206    0.1480   -2.6128 O   0  0  0  0  0  0  0  0  0  0  0  0
   -4.4285   -0.0176   -0.3213 C   0  0  0  0  0  0  0  0  0  0  0  0
   -5.1762    0.5386    0.2491 H   0  0  0  0  0  0  0  0  0  0  0  0
   -4.8439   -0.9927   -0.5891 H   0  0  0  0  0  0  0  0  0  0  0  0
   -3.5426   -0.1667    0.3010 H   0  0  0  0  0  0  0  0  0  0  0  0
   -3.8142    2.1063   -1.5132 N   0  0  0  0  0  0  0  0  0  0  0  0
   -3.1957    2.8625   -2.6128 C   0  0  2  0  0  0  0  0  0  0  0  0
   -1.6649    2.6474   -2.6254 C   0  0  0  0  0  0  0  0  0  0  0  0
   -0.8893    3.5658   -2.3699 O   0  0  0  0  0  0  0  0  0  0  0  0
   -3.5995    4.3315   -2.4386 C   0  0  0  0  0  0  0  0  0  0  0  0
   -3.6850    2.4762   -0.5653 H   0  0  0  0  0  0  0  0  0  0  0  0
   -3.5880    2.5180   -3.5761 H   0  0  0  0  0  0  0  0  0  0  0  0
   -3.2452    4.7178   -1.4774 H   0  0  0  0  0  0  0  0  0  0  0  0
   -3.1711    4.9428   -3.2389 H   0  0  0  0  0  0  0  0  0  0  0  0
   -4.6886    4.4314   -2.4733 H   0  0  0  0  0  0  0  0  0  0  0  0
   -1.1856    1.3550   -2.7562 N   0  0  0  0  0  0  0  0  0  0  0  0
    0.1053    0.8332   -2.2570 C   0  0  2  0  0  0  0  0  0  0  0  0
    0.2271    0.9660   -0.7231 C   0  0  0  0  0  0  0  0  0  0  0  0
    0.2942   -0.0374   -0.0248 O   0  0  0  0  0  0  0  0  0  0  0  0
    1.3178    1.4733   -2.9493 C   0  0  0  0  0  0  0  0  0  0  0  0
    1.3420    1.0303   -4.7326 S   0  0  0  0  0  0  0  0  0  0  0  0
   -1.9302    0.6636   -2.8977 H   0  0  0  0  0  0  0  0  0  0  0  0
    0.1378   -0.2392   -2.4778 H   0  0  0  0  0  0  0  0  0  0  0  0
    1.3098    2.5577   -2.8314 H   0  0  0  0  0  0  0  0  0  0  0  0
    2.2409    1.1070   -2.4882 H   0  0  0  0  0  0  0  0  0  0  0  0
    0.1636    2.2028   -0.1079 N   0  0  0  0  0  0  0  0  0  0  0  0
   -0.0938    2.3572    1.3288 C   0  0  2  0  0  0  0  0  0  0  0  0
   -1.5786    2.1429    1.7022 C   0  0  0  0  0  0  0  0  0  0  0  0
   -2.4826    2.5447    0.9732 O   0  0  0  0  0  0  0  0  0  0  0  0
    0.3547    3.7620    1.7354 C   0  0  0  0  0  0  0  0  0  0  0  0
   -0.1221    2.9672   -0.7256 H   0  0  0  0  0  0  0  0  0  0  0  0
    0.5068    1.6302    1.8859 H   0  0  0  0  0  0  0  0  0  0  0  0
   -0.2275    4.5208    1.2021 H   0  0  0  0  0  0  0  0  0  0  0  0
    0.2154    3.9099    2.8109 H   0  0  0  0  0  0  0  0  0  0  0  0
    1.4141    3.9054    1.5019 H   0  0  0  0  0  0  0  0  0  0  0  0
   -1.9061    1.5315    2.8978 N   0  0  0  0  0  0  0  0  0  0  0  0
   -3.2756    1.2964    3.3379 C   0  0  0  0  0  0  0  0  0  0  0  0
   -1.1441    1.1324    3.4397 H   0  0  0  0  0  0  0  0  0  0  0  0
   -3.8433    2.2327    3.3449 H   0  0  0  0  0  0  0  0  0  0  0  0
   -3.7757    0.5847    2.6742 H   0  0  0  0  0  0  0  0  0  0  0  0
   -3.2807    0.8849    4.3516 H   0  0  0  0  0  0  0  0  0  0  0  0
  1  2  2  0  0  0  0
  1  3  1  0  0  0  0
  1  7  1  0  0  0  0
  3  4  1  0  0  0  0
  3  5  1  0  0  0  0
  3  6  1  0  0  0  0
  7  8  1  0  0  0  0
  7 13  1  0  0  0  0
  8  9  1  0  0  0  0
  8 11  1  0  0  0  0
  8 14  1  0  0  0  0
  9 10  2  0  0  0  0
  9 17  1  0  0  0  0
 11 12  1  0  0  0  0
 11 15  1  0  0  0  0
 11 16  1  0  0  0  0
 12 44  1  0  0  0  0
 17 18  1  0  0  0  0
 17 19  1  0  0  0  0
 18 20  1  0  0  0  0
 18 21  1  0  0  0  0
 18 22  1  0  0  0  0
 23 24  2  0  0  0  0
 23 25  1  0  0  0  0
 23 29  1  0  0  0  0
 25 26  1  0  0  0  0
 25 27  1  0  0  0  0
 25 28  1  0  0  0  0
 29 30  1  0  0  0  0
 29 34  1  0  0  0  0
 30 31  1  0  0  0  0
 30 33  1  0  0  0  0
 30 35  1  0  0  0  0
 31 32  2  0  0  0  0
 31 39  1  0  0  0  0
 33 36  1  0  0  0  0
 33 37  1  0  0  0  0
 33 38  1  0  0  0  0
 39 40  1  0  0  0  0
 39 45  1  0  0  0  0
 40 41  1  0  0  0  0
 40 43  1  0  0  0  0
 40 46  1  0  0  0  0
 41 42  2  0  0  0  0
 41 49  1  0  0  0  0
 43 44  1  0  0  0  0
 43 47  1  0  0  0  0
 43 48  1  0  0  0  0
 49 50  1  0  0  0  0
 49 54  1  0  0  0  0
 50 51  1  0  0  0  0
 50 53  1  0  0  0  0
 50 55  1  0  0  0  0
 51 52  2  0  0  0  0
 51 59  1  0  0  0  0
 53 56  1  0  0  0  0
 53 57  1  0  0  0  0
 53 58  1  0  0  0  0
 59 60  1  0  0  0  0
 59 61  1  0  0  0  0
 60 62  1  0  0  0  0
 60 63  1  0  0  0  0
 60 64  1  0  0  0  0
M  END
$$$$

  -OEChem-05262216053D

 64 63  0     1  0  0  0  0  0999 V2000
    1.2306    6.1925   -7.7538 C   0  0  0  0  0  0  0  0  0  0  0  0
    0.0165    6.1476   -7.8796 O   0  0  0  0  0  0  0  0  0  0  0  0
    2.0918    6.7484   -8.8724 C   0  0  0  0  0  0  0  0  0  0  0  0
    2.8388    6.0088   -9.1712 H   0  0  0  0  0  0  0  0  0  0  0  0
    1.4714    6.9916   -9.7395 H   0  0  0  0  0  0  0  0  0  0  0  0
    2.5998    7.6557   -8.5364 H   0  0  0  0  0  0  0  0  0  0  0  0
    1.8169    5.7473   -6.5893 N   0  0  0  0  0  0  0  0  0  0  0  0
    1.0742    5.2961   -5.4038 C   0  0  2  0  0  0  0  0  0  0  0  0
    1.8669    5.5451   -4.0999 C   0  0  0  0  0  0  0  0  0  0  0  0
    2.9789    6.0635   -4.1493 O   0  0  0  0  0  0  0  0  0  0  0  0
    0.7150    3.8135   -5.5718 C   0  0  0  0  0  0  0  0  0  0  0  0
    2.2018    2.7302   -5.5100 S   0  0  0  0  0  0  0  0  0  0  0  0
    2.8188    5.8951   -6.4743 H   0  0  0  0  0  0  0  0  0  0  0  0
    0.1465    5.8719   -5.3208 H   0  0  0  0  0  0  0  0  0  0  0  0
    0.0243    3.5220   -4.7790 H   0  0  0  0  0  0  0  0  0  0  0  0
    0.1973    3.6618   -6.5239 H   0  0  0  0  0  0  0  0  0  0  0  0
    1.3361    5.2242   -2.8628 N   0  0  0  0  0  0  0  0  0  0  0  0
    2.0771    5.3648   -1.6167 C   0  0  0  0  0  0  0  0  0  0  0  0
    0.4419    4.7271   -2.8410 H   0  0  0  0  0  0  0  0  0  0  0  0
    2.9955    4.7687   -1.6470 H   0  0  0  0  0  0  0  0  0  0  0  0
    2.3403    6.4137   -1.4441 H   0  0  0  0  0  0  0  0  0  0  0  0
    1.4679    5.0186   -0.7765 H   0  0  0  0  0  0  0  0  0  0  0  0
   -4.1032    0.5694   -1.7799 C   0  0  0  0  0  0  0  0  0  0  0  0
   -3.8028    0.0071   -2.8234 O   0  0  0  0  0  0  0  0  0  0  0  0
   -4.5427   -0.2455   -0.5793 C   0  0  0  0  0  0  0  0  0  0  0  0
   -5.3082    0.2955   -0.0177 H   0  0  0  0  0  0  0  0  0  0  0  0
   -4.9556   -1.2038   -0.9059 H   0  0  0  0  0  0  0  0  0  0  0  0
   -3.6866   -0.4312    0.0739 H   0  0  0  0  0  0  0  0  0  0  0  0
   -3.8892    1.9265   -1.6616 N   0  0  0  0  0  0  0  0  0  0  0  0
   -3.2336    2.7331   -2.7036 C   0  0  2  0  0  0  0  0  0  0  0  0
   -1.6993    2.5507   -2.6518 C   0  0  0  0  0  0  0  0  0  0  0  0
   -0.9542    3.4820   -2.3571 O   0  0  0  0  0  0  0  0  0  0  0  0
   -3.6760    4.1876   -2.5035 C   0  0  0  0  0  0  0  0  0  0  0  0
   -3.8162    2.2606   -0.6949 H   0  0  0  0  0  0  0  0  0  0  0  0
   -3.5719    2.4126   -3.6955 H   0  0  0  0  0  0  0  0  0  0  0  0
   -3.3627    4.5562   -1.5211 H   0  0  0  0  0  0  0  0  0  0  0  0
   -3.2345    4.8285   -3.2732 H   0  0  0  0  0  0  0  0  0  0  0  0
   -4.7653    4.2655   -2.5725 H   0  0  0  0  0  0  0  0  0  0  0  0
   -1.1907    1.2688   -2.7640 N   0  0  0  0  0  0  0  0  0  0  0  0
    0.1096    0.7544   -2.2762 C   0  0  2  0  0  0  0  0  0  0  0  0
    0.2763    0.8862   -0.7444 C   0  0  0  0  0  0  0  0  0  0  0  0
    0.5921   -0.0937   -0.0831 O   0  0  0  0  0  0  0  0  0  0  0  0
    1.2978    1.4223   -2.9822 C   0  0  0  0  0  0  0  0  0  0  0  0
    1.3056    0.9973   -4.7699 S   0  0  0  0  0  0  0  0  0  0  0  0
   -1.9126    0.5666   -2.9595 H   0  0  0  0  0  0  0  0  0  0  0  0
    0.1531   -0.3160   -2.5040 H   0  0  0  0  0  0  0  0  0  0  0  0
    1.2679    2.5045   -2.8514 H   0  0  0  0  0  0  0  0  0  0  0  0
    2.2352    1.0709   -2.5388 H   0  0  0  0  0  0  0  0  0  0  0  0
   -0.0653    2.0507   -0.0816 N   0  0  0  0  0  0  0  0  0  0  0  0
   -0.3449    2.1233    1.3569 C   0  0  2  0  0  0  0  0  0  0  0  0
   -1.8195    1.8026    1.6891 C   0  0  0  0  0  0  0  0  0  0  0  0
   -2.7272    2.1526    0.9380 O   0  0  0  0  0  0  0  0  0  0  0  0
    0.0098    3.5361    1.8243 C   0  0  0  0  0  0  0  0  0  0  0  0
   -0.4494    2.7880   -0.6771 H   0  0  0  0  0  0  0  0  0  0  0  0
    0.2908    1.4130    1.8962 H   0  0  0  0  0  0  0  0  0  0  0  0
   -0.5995    4.2785    1.2984 H   0  0  0  0  0  0  0  0  0  0  0  0
   -0.1687    3.6392    2.8991 H   0  0  0  0  0  0  0  0  0  0  0  0
    1.0654    3.7472    1.6269 H   0  0  0  0  0  0  0  0  0  0  0  0
   -2.1392    1.1483    2.8641 N   0  0  0  0  0  0  0  0  0  0  0  0
   -3.4999    0.7881    3.2442 C   0  0  0  0  0  0  0  0  0  0  0  0
   -1.3677    0.8099    3.4330 H   0  0  0  0  0  0  0  0  0  0  0  0
   -4.1537    1.6660    3.2144 H   0  0  0  0  0  0  0  0  0  0  0  0
   -3.8988    0.0277    2.5653 H   0  0  0  0  0  0  0  0  0  0  0  0
   -3.5131    0.3866    4.2622 H   0  0  0  0  0  0  0  0  0  0  0  0
  1  2  2  0  0  0  0
  1  3  1  0  0  0  0
  1  7  1  0  0  0  0
  3  4  1  0  0  0  0
  3  5  1  0  0  0  0
  3  6  1  0  0  0  0
  7  8  1  0  0  0  0
  7 13  1  0  0  0  0
  8  9  1  0  0  0  0
  8 11  1  0  0  0  0
  8 14  1  0  0  0  0
  9 10  2  0  0  0  0
  9 17  1  0  0  0  0
 11 12  1  0  0  0  0
 11 15  1  0  0  0  0
 11 16  1  0  0  0  0
 12 44  1  0  0  0  0
 17 18  1  0  0  0  0
 17 19  1  0  0  0  0
 18 20  1  0  0  0  0
 18 21  1  0  0  0  0
 18 22  1  0  0  0  0
 23 24  2  0  0  0  0
 23 25  1  0  0  0  0
 23 29  1  0  0  0  0
 25 26  1  0  0  0  0
 25 27  1  0  0  0  0
 25 28  1  0  0  0  0
 29 30  1  0  0  0  0
 29 34  1  0  0  0  0
 30 31  1  0  0  0  0
 30 33  1  0  0  0  0
 30 35  1  0  0  0  0
 31 32  2  0  0  0  0
 31 39  1  0  0  0  0
 33 36  1  0  0  0  0
 33 37  1  0  0  0  0
 33 38  1  0  0  0  0
 39 40  1  0  0  0  0
 39 45  1  0  0  0  0
 40 41  1  0  0  0  0
 40 43  1  0  0  0  0
 40 46  1  0  0  0  0
 41 42  2  0  0  0  0
 41 49  1  0  0  0  0
 43 44  1  0  0  0  0
 43 47  1  0  0  0  0
 43 48  1  0  0  0  0
 49 50  1  0  0  0  0
 49 54  1  0  0  0  0
 50 51  1  0  0  0  0
 50 53  1  0  0  0  0
 50 55  1  0  0  0  0
 51 52  2  0  0  0  0
 51 59  1  0  0  0  0
 53 56  1  0  0  0  0
 53 57  1  0  0  0  0
 53 58  1  0  0  0  0
 59 60  1  0  0  0  0
 59 61  1  0  0  0  0
 60 62  1  0  0  0  0
 60 63  1  0  0  0  0
 60 64  1  0  0  0  0
M  END
$$$$

  -OEChem-05262216053D

 64 63  0     1  0  0  0  0  0999 V2000
    1.1040    6.3020   -7.6279 C   0  0  0  0  0  0  0  0  0  0  0  0
   -0.1093    6.2296   -7.7488 O   0  0  0  0  0  0  0  0  0  0  0  0
    1.9474    6.8878   -8.7446 C   0  0  0  0  0  0  0  0  0  0  0  0
    2.7022    6.1632   -9.0603 H   0  0  0  0  0  0  0  0  0  0  0  0
    1.3167    7.1359   -9.6030 H   0  0  0  0  0  0  0  0  0  0  0  0
    2.4458    7.7965   -8.3982 H   0  0  0  0  0  0  0  0  0  0  0  0
    1.7077    5.8471   -6.4761 N   0  0  0  0  0  0  0  0  0  0  0  0
    0.9856    5.3255   -5.3072 C   0  0  2  0  0  0  0  0  0  0  0  0
    1.7774    5.5380   -3.9956 C   0  0  0  0  0  0  0  0  0  0  0  0
    2.8794    6.0783   -4.0261 O   0  0  0  0  0  0  0  0  0  0  0  0
    0.6639    3.8421   -5.5409 C   0  0  0  0  0  0  0  0  0  0  0  0
    2.1794    2.7964   -5.5386 S   0  0  0  0  0  0  0  0  0  0  0  0
    2.7073    6.0115   -6.3645 H   0  0  0  0  0  0  0  0  0  0  0  0
    0.0436    5.8723   -5.1949 H   0  0  0  0  0  0  0  0  0  0  0  0
   -0.0134    3.4963   -4.7584 H   0  0  0  0  0  0  0  0  0  0  0  0
    0.1427    3.7201   -6.4958 H   0  0  0  0  0  0  0  0  0  0  0  0
    1.2522    5.1657   -2.7705 N   0  0  0  0  0  0  0  0  0  0  0  0
    1.9918    5.2651   -1.5192 C   0  0  0  0  0  0  0  0  0  0  0  0
    0.3714    4.6447   -2.7682 H   0  0  0  0  0  0  0  0  0  0  0  0
    2.9024    4.6584   -1.5632 H   0  0  0  0  0  0  0  0  0  0  0  0
    2.2690    6.3051   -1.3173 H   0  0  0  0  0  0  0  0  0  0  0  0
    1.3752    4.9044   -0.6900 H   0  0  0  0  0  0  0  0  0  0  0  0
   -4.0617    0.3391   -1.9528 C   0  0  0  0  0  0  0  0  0  0  0  0
   -3.6988   -0.1850   -2.9963 O   0  0  0  0  0  0  0  0  0  0  0  0
   -4.5594   -0.5195   -0.8066 C   0  0  0  0  0  0  0  0  0  0  0  0
   -5.4188   -0.0441   -0.3280 H   0  0  0  0  0  0  0  0  0  0  0  0
   -4.8610   -1.5030   -1.1770 H   0  0  0  0  0  0  0  0  0  0  0  0
   -3.7652   -0.6474   -0.0675 H   0  0  0  0  0  0  0  0  0  0  0  0
   -3.8828    1.6964   -1.7856 N   0  0  0  0  0  0  0  0  0  0  0  0
   -3.2167    2.5515   -2.7823 C   0  0  2  0  0  0  0  0  0  0  0  0
   -1.6803    2.4084   -2.6914 C   0  0  0  0  0  0  0  0  0  0  0  0
   -0.9743    3.3450   -2.3302 O   0  0  0  0  0  0  0  0  0  0  0  0
   -3.7005    3.9892   -2.5561 C   0  0  0  0  0  0  0  0  0  0  0  0
   -3.8728    2.0097   -0.8093 H   0  0  0  0  0  0  0  0  0  0  0  0
   -3.5172    2.2524   -3.7925 H   0  0  0  0  0  0  0  0  0  0  0  0
   -3.4252    4.3366   -1.5549 H   0  0  0  0  0  0  0  0  0  0  0  0
   -3.2511    4.6620   -3.2935 H   0  0  0  0  0  0  0  0  0  0  0  0
   -4.7888    4.0450   -2.6567 H   0  0  0  0  0  0  0  0  0  0  0  0
   -1.1313    1.1453   -2.8200 N   0  0  0  0  0  0  0  0  0  0  0  0
    0.1863    0.6552   -2.3490 C   0  0  2  0  0  0  0  0  0  0  0  0
    0.3779    0.7621   -0.8165 C   0  0  0  0  0  0  0  0  0  0  0  0
    0.9577   -0.1345   -0.2195 O   0  0  0  0  0  0  0  0  0  0  0  0
    1.3433    1.3821   -3.0485 C   0  0  0  0  0  0  0  0  0  0  0  0
    1.3525    1.0082   -4.8478 S   0  0  0  0  0  0  0  0  0  0  0  0
   -1.8220    0.4287   -3.0687 H   0  0  0  0  0  0  0  0  0  0  0  0
    0.2602   -0.4087   -2.5986 H   0  0  0  0  0  0  0  0  0  0  0  0
    1.2761    2.4584   -2.8872 H   0  0  0  0  0  0  0  0  0  0  0  0
    2.2964    1.0522   -2.6220 H   0  0  0  0  0  0  0  0  0  0  0  0
   -0.2423    1.7556   -0.0815 N   0  0  0  0  0  0  0  0  0  0  0  0
   -0.5087    1.7119    1.3606 C   0  0  2  0  0  0  0  0  0  0  0  0
   -1.9988    1.4455    1.6677 C   0  0  0  0  0  0  0  0  0  0  0  0
   -2.8790    1.8345    0.9030 O   0  0  0  0  0  0  0  0  0  0  0  0
   -0.0750    3.0566    1.9457 C   0  0  0  0  0  0  0  0  0  0  0  0
   -0.7379    2.4590   -0.6327 H   0  0  0  0  0  0  0  0  0  0  0  0
    0.0817    0.9207    1.8338 H   0  0  0  0  0  0  0  0  0  0  0  0
   -0.6492    3.8732    1.4959 H   0  0  0  0  0  0  0  0  0  0  0  0
   -0.2355    3.0722    3.0279 H   0  0  0  0  0  0  0  0  0  0  0  0
    0.9883    3.2288    1.7506 H   0  0  0  0  0  0  0  0  0  0  0  0
   -2.3650    0.7810    2.8232 N   0  0  0  0  0  0  0  0  0  0  0  0
   -3.7479    0.4918    3.1847 C   0  0  0  0  0  0  0  0  0  0  0  0
   -1.6195    0.4407    3.4249 H   0  0  0  0  0  0  0  0  0  0  0  0
   -4.3279    1.4180    3.2576 H   0  0  0  0  0  0  0  0  0  0  0  0
   -4.2130   -0.1581    2.4362 H   0  0  0  0  0  0  0  0  0  0  0  0
   -3.7870   -0.0155    4.1539 H   0  0  0  0  0  0  0  0  0  0  0  0
  1  2  2  0  0  0  0
  1  3  1  0  0  0  0
  1  7  1  0  0  0  0
  3  4  1  0  0  0  0
  3  5  1  0  0  0  0
  3  6  1  0  0  0  0
  7  8  1  0  0  0  0
  7 13  1  0  0  0  0
  8  9  1  0  0  0  0
  8 11  1  0  0  0  0
  8 14  1  0  0  0  0
  9 10  2  0  0  0  0
  9 17  1  0  0  0  0
 11 12  1  0  0  0  0
 11 15  1  0  0  0  0
 11 16  1  0  0  0  0
 12 44  1  0  0  0  0
 17 18  1  0  0  0  0
 17 19  1  0  0  0  0
 18 20  1  0  0  0  0
 18 21  1  0  0  0  0
 18 22  1  0  0  0  0
 23 24  2  0  0  0  0
 23 25  1  0  0  0  0
 23 29  1  0  0  0  0
 25 26  1  0  0  0  0
 25 27  1  0  0  0  0
 25 28  1  0  0  0  0
 29 30  1  0  0  0  0
 29 34  1  0  0  0  0
 30 31  1  0  0  0  0
 30 33  1  0  0  0  0
 30 35  1  0  0  0  0
 31 32  2  0  0  0  0
 31 39  1  0  0  0  0
 33 36  1  0  0  0  0
 33 37  1  0  0  0  0
 33 38  1  0  0  0  0
 39 40  1  0  0  0  0
 39 45  1  0  0  0  0
 40 41  1  0  0  0  0
 40 43  1  0  0  0  0
 40 46  1  0  0  0  0
 41 42  2  0  0  0  0
 41 49  1  0  0  0  0
 43 44  1  0  0  0  0
 43 47  1  0  0  0  0
 43 48  1  0  0  0  0
 49 50  1  0  0  0  0
 49 54  1  0  0  0  0
 50 51  1  0  0  0  0
 50 53  1  0  0  0  0
 50 55  1  0  0  0  0
 51 52  2  0  0  0  0
 51 59  1  0  0  0  0
 53 56  1  0  0  0  0
 53 57  1  0  0  0  0
 53 58  1  0  0  0  0
 59 60  1  0  0  0  0
 59 61  1  0  0  0  0
 60 62  1  0  0  0  0
 60 63  1  0  0  0  0
 60 64  1  0  0  0  0
M  END
$$$$

  -OEChem-05262216053D

 64 63  0     1  0  0  0  0  0999 V2000
    0.9378    6.3856   -7.5201 C   0  0  0  0  0  0  0  0  0  0  0  0
   -0.2629    6.2015   -7.6499 O   0  0  0  0  0  0  0  0  0  0  0  0
    1.7300    7.0525   -8.6286 C   0  0  0  0  0  0  0  0  0  0  0  0
    2.1164    8.0156   -8.2859 H   0  0  0  0  0  0  0  0  0  0  0  0
    2.5676    6.4153   -8.9228 H   0  0  0  0  0  0  0  0  0  0  0  0
    1.0902    7.2178   -9.5000 H   0  0  0  0  0  0  0  0  0  0  0  0
    1.5730    5.9834   -6.3656 N   0  0  0  0  0  0  0  0  0  0  0  0
    0.8956    5.3780   -5.2100 C   0  0  2  0  0  0  0  0  0  0  0  0
    1.6775    5.5992   -3.8941 C   0  0  0  0  0  0  0  0  0  0  0  0
    2.7239    6.2412   -3.9060 O   0  0  0  0  0  0  0  0  0  0  0  0
    0.6692    3.8852   -5.4884 C   0  0  0  0  0  0  0  0  0  0  0  0
    2.2466    2.9381   -5.5196 S   0  0  0  0  0  0  0  0  0  0  0  0
    2.5568    6.2241   -6.2516 H   0  0  0  0  0  0  0  0  0  0  0  0
   -0.0791    5.8586   -5.0775 H   0  0  0  0  0  0  0  0  0  0  0  0
    0.0197    3.4742   -4.7149 H   0  0  0  0  0  0  0  0  0  0  0  0
    0.1525    3.7573   -6.4448 H   0  0  0  0  0  0  0  0  0  0  0  0
    1.2023    5.1211   -2.6851 N   0  0  0  0  0  0  0  0  0  0  0  0
    1.9436    5.2320   -1.4362 C   0  0  0  0  0  0  0  0  0  0  0  0
    0.3670    4.5299   -2.6978 H   0  0  0  0  0  0  0  0  0  0  0  0
    2.9196    4.7438   -1.5254 H   0  0  0  0  0  0  0  0  0  0  0  0
    2.0967    6.2835   -1.1727 H   0  0  0  0  0  0  0  0  0  0  0  0
    1.3887    4.7489   -0.6262 H   0  0  0  0  0  0  0  0  0  0  0  0
   -3.9657    0.0974   -2.1342 C   0  0  0  0  0  0  0  0  0  0  0  0
   -3.5477   -0.3909   -3.1744 O   0  0  0  0  0  0  0  0  0  0  0  0
   -4.5371   -0.7923   -1.0475 C   0  0  0  0  0  0  0  0  0  0  0  0
   -4.8063   -1.7676   -1.4622 H   0  0  0  0  0  0  0  0  0  0  0  0
   -3.7977   -0.9343   -0.2557 H   0  0  0  0  0  0  0  0  0  0  0  0
   -5.4317   -0.3321   -0.6207 H   0  0  0  0  0  0  0  0  0  0  0  0
   -3.8095    1.4499   -1.9171 N   0  0  0  0  0  0  0  0  0  0  0  0
   -3.1448    2.3567   -2.8674 C   0  0  2  0  0  0  0  0  0  0  0  0
   -1.6069    2.2443   -2.7612 C   0  0  0  0  0  0  0  0  0  0  0  0
   -0.9352    3.1591   -2.2964 O   0  0  0  0  0  0  0  0  0  0  0  0
   -3.6660    3.7707   -2.5849 C   0  0  0  0  0  0  0  0  0  0  0  0
   -3.8759    1.7439   -0.9374 H   0  0  0  0  0  0  0  0  0  0  0  0
   -3.4246    2.0945   -3.8939 H   0  0  0  0  0  0  0  0  0  0  0  0
   -3.4222    4.0747   -1.5615 H   0  0  0  0  0  0  0  0  0  0  0  0
   -3.2166    4.4884   -3.2781 H   0  0  0  0  0  0  0  0  0  0  0  0
   -4.7526    3.8052   -2.7089 H   0  0  0  0  0  0  0  0  0  0  0  0
   -1.0219    1.0088   -2.9723 N   0  0  0  0  0  0  0  0  0  0  0  0
    0.3016    0.5308   -2.5033 C   0  0  2  0  0  0  0  0  0  0  0  0
    0.4540    0.5340   -0.9626 C   0  0  0  0  0  0  0  0  0  0  0  0
    1.2693   -0.2072   -0.4313 O   0  0  0  0  0  0  0  0  0  0  0  0
    1.4507    1.3348   -3.1297 C   0  0  0  0  0  0  0  0  0  0  0  0
    1.5071    1.0722   -4.9482 S   0  0  0  0  0  0  0  0  0  0  0  0
   -1.6902    0.2894   -3.2698 H   0  0  0  0  0  0  0  0  0  0  0  0
    0.4145   -0.5106   -2.8206 H   0  0  0  0  0  0  0  0  0  0  0  0
    1.3463    2.3966   -2.9031 H   0  0  0  0  0  0  0  0  0  0  0  0
    2.4052    1.0087   -2.7034 H   0  0  0  0  0  0  0  0  0  0  0  0
   -0.4300    1.2270   -0.1577 N   0  0  0  0  0  0  0  0  0  0  0  0
   -0.6386    1.0297    1.2794 C   0  0  2  0  0  0  0  0  0  0  0  0
   -2.1404    1.0664    1.6435 C   0  0  0  0  0  0  0  0  0  0  0  0
   -2.9727    1.5025    0.8496 O   0  0  0  0  0  0  0  0  0  0  0  0
    0.1285    2.1247    2.0248 C   0  0  0  0  0  0  0  0  0  0  0  0
   -1.0469    1.8832   -0.6368 H   0  0  0  0  0  0  0  0  0  0  0  0
   -0.2510    0.0505    1.5805 H   0  0  0  0  0  0  0  0  0  0  0  0
   -0.2452    3.1146    1.7440 H   0  0  0  0  0  0  0  0  0  0  0  0
    0.0176    2.0036    3.1065 H   0  0  0  0  0  0  0  0  0  0  0  0
    1.1942    2.0734    1.7798 H   0  0  0  0  0  0  0  0  0  0  0  0
   -2.5738    0.5848    2.8645 N   0  0  0  0  0  0  0  0  0  0  0  0
   -3.9716    0.5847    3.2798 C   0  0  0  0  0  0  0  0  0  0  0  0
   -1.8713    0.2233    3.5042 H   0  0  0  0  0  0  0  0  0  0  0  0
   -4.3595    1.6082    3.3194 H   0  0  0  0  0  0  0  0  0  0  0  0
   -4.5804    0.0031    2.5797 H   0  0  0  0  0  0  0  0  0  0  0  0
   -4.0708    0.1384    4.2740 H   0  0  0  0  0  0  0  0  0  0  0  0
  1  2  2  0  0  0  0
  1  3  1  0  0  0  0
  1  7  1  0  0  0  0
  3  4  1  0  0  0  0
  3  5  1  0  0  0  0
  3  6  1  0  0  0  0
  7  8  1  0  0  0  0
  7 13  1  0  0  0  0
  8  9  1  0  0  0  0
  8 11  1  0  0  0  0
  8 14  1  0  0  0  0
  9 10  2  0  0  0  0
  9 17  1  0  0  0  0
 11 12  1  0  0  0  0
 11 15  1  0  0  0  0
 11 16  1  0  0  0  0
 12 44  1  0  0  0  0
 17 18  1  0  0  0  0
 17 19  1  0  0  0  0
 18 20  1  0  0  0  0
 18 21  1  0  0  0  0
 18 22  1  0  0  0  0
 23 24  2  0  0  0  0
 23 25  1  0  0  0  0
 23 29  1  0  0  0  0
 25 26  1  0  0  0  0
 25 27  1  0  0  0  0
 25 28  1  0  0  0  0
 29 30  1  0  0  0  0
 29 34  1  0  0  0  0
 30 31  1  0  0  0  0
 30 33  1  0  0  0  0
 30 35  1  0  0  0  0
 31 32  2  0  0  0  0
 31 39  1  0  0  0  0
 33 36  1  0  0  0  0
 33 37  1  0  0  0  0
 33 38  1  0  0  0  0
 39 40  1  0  0  0  0
 39 45  1  0  0  0  0
 40 41  1  0  0  0  0
 40 43  1  0  0  0  0
 40 46  1  0  0  0  0
 41 42  2  0  0  0  0
 41 49  1  0  0  0  0
 43 44  1  0  0  0  0
 43 47  1  0  0  0  0
 43 48  1  0  0  0  0
 49 50  1  0  0  0  0
 49 54  1  0  0  0  0
 50 51  1  0  0  0  0
 50 53  1  0  0  0  0
 50 55  1  0  0  0  0
 51 52  2  0  0  0  0
 51 59  1  0  0  0  0
 53 56  1  0  0  0  0
 53 57  1  0  0  0  0
 53 58  1  0  0  0  0
 59 60  1  0  0  0  0
 59 61  1  0  0  0  0
 60 62  1  0  0  0  0
 60 63  1  0  0  0  0
 60 64  1  0  0  0  0
M  END
$$$$

  -OEChem-05262216053D

 64 63  0     1  0  0  0  0  0999 V2000
    0.9248    6.5832   -7.3427 C   0  0  0  0  0  0  0  0  0  0  0  0
   -0.2749    6.4122   -7.4962 O   0  0  0  0  0  0  0  0  0  0  0  0
    1.7214    7.3605   -8.3732 C   0  0  0  0  0  0  0  0  0  0  0  0
    2.5152    6.7306   -8.7823 H   0  0  0  0  0  0  0  0  0  0  0  0
    1.0686    7.6801   -9.1904 H   0  0  0  0  0  0  0  0  0  0  0  0
    2.1678    8.2444   -7.9109 H   0  0  0  0  0  0  0  0  0  0  0  0
    1.5532    6.0752   -6.2272 N   0  0  0  0  0  0  0  0  0  0  0  0
    0.8640    5.3923   -5.1231 C   0  0  2  0  0  0  0  0  0  0  0  0
    1.6270    5.5426   -3.7866 C   0  0  0  0  0  0  0  0  0  0  0  0
    2.6651    6.1974   -3.7484 O   0  0  0  0  0  0  0  0  0  0  0  0
    0.6589    3.9180   -5.4985 C   0  0  0  0  0  0  0  0  0  0  0  0
    2.2494    2.9955   -5.5798 S   0  0  0  0  0  0  0  0  0  0  0  0
    2.5294    6.3257   -6.0745 H   0  0  0  0  0  0  0  0  0  0  0  0
   -0.1180    5.8532   -4.9741 H   0  0  0  0  0  0  0  0  0  0  0  0
    0.0096    3.4489   -4.7582 H   0  0  0  0  0  0  0  0  0  0  0  0
    0.1504    3.8463   -6.4652 H   0  0  0  0  0  0  0  0  0  0  0  0
    1.1411    4.9949   -2.6123 N   0  0  0  0  0  0  0  0  0  0  0  0
    1.8680    5.0419   -1.3509 C   0  0  0  0  0  0  0  0  0  0  0  0
    0.3199    4.3866   -2.6706 H   0  0  0  0  0  0  0  0  0  0  0  0
    2.8267    4.5203   -1.4413 H   0  0  0  0  0  0  0  0  0  0  0  0
    2.0564    6.0790   -1.0544 H   0  0  0  0  0  0  0  0  0  0  0  0
    1.2831    4.5582   -0.5626 H   0  0  0  0  0  0  0  0  0  0  0  0
   -3.8696   -0.2219   -2.1943 C   0  0  0  0  0  0  0  0  0  0  0  0
   -3.4639   -0.6517   -3.2645 O   0  0  0  0  0  0  0  0  0  0  0  0
   -4.4082   -1.1713   -1.1418 C   0  0  0  0  0  0  0  0  0  0  0  0
   -5.2143   -0.6912   -0.5807 H   0  0  0  0  0  0  0  0  0  0  0  0
   -4.8000   -2.0750   -1.6165 H   0  0  0  0  0  0  0  0  0  0  0  0
   -3.6106   -1.4490   -0.4482 H   0  0  0  0  0  0  0  0  0  0  0  0
   -3.7281    1.1221   -1.9195 N   0  0  0  0  0  0  0  0  0  0  0  0
   -3.1577    2.1019   -2.8607 C   0  0  2  0  0  0  0  0  0  0  0  0
   -1.6123    2.0476   -2.8616 C   0  0  0  0  0  0  0  0  0  0  0  0
   -0.9512    2.9628   -2.3852 O   0  0  0  0  0  0  0  0  0  0  0  0
   -3.7110    3.4784   -2.4715 C   0  0  0  0  0  0  0  0  0  0  0  0
   -3.8407    1.3906   -0.9364 H   0  0  0  0  0  0  0  0  0  0  0  0
   -3.4954    1.8802   -3.8793 H   0  0  0  0  0  0  0  0  0  0  0  0
   -3.4074    3.7429   -1.4530 H   0  0  0  0  0  0  0  0  0  0  0  0
   -3.3377    4.2463   -3.1565 H   0  0  0  0  0  0  0  0  0  0  0  0
   -4.8042    3.4753   -2.5192 H   0  0  0  0  0  0  0  0  0  0  0  0
   -1.0003    0.8417   -3.1590 N   0  0  0  0  0  0  0  0  0  0  0  0
    0.3379    0.3833   -2.7107 C   0  0  2  0  0  0  0  0  0  0  0  0
    0.4570    0.3034   -1.1675 C   0  0  0  0  0  0  0  0  0  0  0  0
    1.4743   -0.1237   -0.6386 O   0  0  0  0  0  0  0  0  0  0  0  0
    1.4663    1.2542   -3.2881 C   0  0  0  0  0  0  0  0  0  0  0  0
    1.5365    1.0890   -5.1172 S   0  0  0  0  0  0  0  0  0  0  0  0
   -1.6575    0.1143   -3.4625 H   0  0  0  0  0  0  0  0  0  0  0  0
    0.4870   -0.6362   -3.0797 H   0  0  0  0  0  0  0  0  0  0  0  0
    1.3333    2.2985   -3.0048 H   0  0  0  0  0  0  0  0  0  0  0  0
    2.4297    0.9337   -2.8778 H   0  0  0  0  0  0  0  0  0  0  0  0
   -0.6150    0.6412   -0.3621 N   0  0  0  0  0  0  0  0  0  0  0  0
   -0.6414    0.6525    1.1026 C   0  0  2  0  0  0  0  0  0  0  0  0
   -2.0959    0.6836    1.6235 C   0  0  0  0  0  0  0  0  0  0  0  0
   -3.0192    1.0132    0.8800 O   0  0  0  0  0  0  0  0  0  0  0  0
    0.1239    1.8828    1.6037 C   0  0  0  0  0  0  0  0  0  0  0  0
   -1.4064    1.0703   -0.8364 H   0  0  0  0  0  0  0  0  0  0  0  0
   -0.1626   -0.2567    1.4816 H   0  0  0  0  0  0  0  0  0  0  0  0
   -0.3283    2.7995    1.2118 H   0  0  0  0  0  0  0  0  0  0  0  0
    0.1093    1.9257    2.6967 H   0  0  0  0  0  0  0  0  0  0  0  0
    1.1676    1.8440    1.2768 H   0  0  0  0  0  0  0  0  0  0  0  0
   -2.3827    0.3206    2.9259 N   0  0  0  0  0  0  0  0  0  0  0  0
   -3.7330    0.3050    3.4764 C   0  0  0  0  0  0  0  0  0  0  0  0
   -1.6067    0.0400    3.5197 H   0  0  0  0  0  0  0  0  0  0  0  0
   -4.1911    1.2968    3.3992 H   0  0  0  0  0  0  0  0  0  0  0  0
   -4.3579   -0.4151    2.9378 H   0  0  0  0  0  0  0  0  0  0  0  0
   -3.7082    0.0186    4.5324 H   0  0  0  0  0  0  0  0  0  0  0  0
  1  2  2  0  0  0  0
  1  3  1  0  0  0  0
  1  7  1  0  0  0  0
  3  4  1  0  0  0  0
  3  5  1  0  0  0  0
  3  6  1  0  0  0  0
  7  8  1  0  0  0  0
  7 13  1  0  0  0  0
  8  9  1  0  0  0  0
  8 11  1  0  0  0  0
  8 14  1  0  0  0  0
  9 10  2  0  0  0  0
  9 17  1  0  0  0  0
 11 12  1  0  0  0  0
 11 15  1  0  0  0  0
 11 16  1  0  0  0  0
 12 44  1  0  0  0  0
 17 18  1  0  0  0  0
 17 19  1  0  0  0  0
 18 20  1  0  0  0  0
 18 21  1  0  0  0  0
 18 22  1  0  0  0  0
 23 24  2  0  0  0  0
 23 25  1  0  0  0  0
 23 29  1  0  0  0  0
 25 26  1  0  0  0  0
 25 27  1  0  0  0  0
 25 28  1  0  0  0  0
 29 30  1  0  0  0  0
 29 34  1  0  0  0  0
 30 31  1  0  0  0  0
 30 33  1  0  0  0  0
 30 35  1  0  0  0  0
 31 32  2  0  0  0  0
 31 39  1  0  0  0  0
 33 36  1  0  0  0  0
 33 37  1  0  0  0  0
 33 38  1  0  0  0  0
 39 40  1  0  0  0  0
 39 45  1  0  0  0  0
 40 41  1  0  0  0  0
 40 43  1  0  0  0  0
 40 46  1  0  0  0  0
 41 42  2  0  0  0  0
 41 49  1  0  0  0  0
 43 44  1  0  0  0  0
 43 47  1  0  0  0  0
 43 48  1  0  0  0  0
 49 50  1  0  0  0  0
 49 54  1  0  0  0  0
 50 51  1  0  0  0  0
 50 53  1  0  0  0  0
 50 55  1  0  0  0  0
 51 52  2  0  0  0  0
 51 59  1  0  0  0  0
 53 56  1  0  0  0  0
 53 57  1  0  0  0  0
 53 58  1  0  0  0  0
 59 60  1  0  0  0  0
 59 61  1  0  0  0  0
 60 62  1  0  0  0  0
 60 63  1  0  0  0  0
 60 64  1  0  0  0  0
M  END
$$$$

  -OEChem-05262216053D

 64 63  0     1  0  0  0  0  0999 V2000
    0.8246    6.7312   -7.1754 C   0  0  0  0  0  0  0  0  0  0  0  0
   -0.3888    6.6176   -7.2577 O   0  0  0  0  0  0  0  0  0  0  0  0
    1.5892    7.5253   -8.2174 C   0  0  0  0  0  0  0  0  0  0  0  0
    2.3138    6.8793   -8.7190 H   0  0  0  0  0  0  0  0  0  0  0  0
    0.9001    7.9289   -8.9644 H   0  0  0  0  0  0  0  0  0  0  0  0
    2.1184    8.3542   -7.7415 H   0  0  0  0  0  0  0  0  0  0  0  0
    1.5008    6.1374   -6.1328 N   0  0  0  0  0  0  0  0  0  0  0  0
    0.8598    5.4085   -5.0292 C   0  0  2  0  0  0  0  0  0  0  0  0
    1.7232    5.4331   -3.7464 C   0  0  0  0  0  0  0  0  0  0  0  0
    2.7951    6.0322   -3.7453 O   0  0  0  0  0  0  0  0  0  0  0  0
    0.5627    3.9724   -5.4830 C   0  0  0  0  0  0  0  0  0  0  0  0
    2.1014    3.0028   -5.7666 S   0  0  0  0  0  0  0  0  0  0  0  0
    2.4966    6.3329   -6.0369 H   0  0  0  0  0  0  0  0  0  0  0  0
   -0.0874    5.8975   -4.7787 H   0  0  0  0  0  0  0  0  0  0  0  0
   -0.0394    3.4759   -4.7208 H   0  0  0  0  0  0  0  0  0  0  0  0
   -0.0292    3.9868   -6.4035 H   0  0  0  0  0  0  0  0  0  0  0  0
    1.2961    4.8279   -2.5775 N   0  0  0  0  0  0  0  0  0  0  0  0
    2.1233    4.7342   -1.3822 C   0  0  0  0  0  0  0  0  0  0  0  0
    0.4480    4.2562   -2.6170 H   0  0  0  0  0  0  0  0  0  0  0  0
    3.0403    4.1744   -1.5942 H   0  0  0  0  0  0  0  0  0  0  0  0
    2.3930    5.7324   -1.0219 H   0  0  0  0  0  0  0  0  0  0  0  0
    1.5775    4.2156   -0.5879 H   0  0  0  0  0  0  0  0  0  0  0  0
   -3.8756   -0.3104   -2.3226 C   0  0  0  0  0  0  0  0  0  0  0  0
   -3.5103   -0.5981   -3.4526 O   0  0  0  0  0  0  0  0  0  0  0  0
   -4.4258   -1.3813   -1.4009 C   0  0  0  0  0  0  0  0  0  0  0  0
   -5.2389   -0.9715   -0.7967 H   0  0  0  0  0  0  0  0  0  0  0  0
   -4.8108   -2.2211   -1.9860 H   0  0  0  0  0  0  0  0  0  0  0  0
   -3.6377   -1.7434   -0.7361 H   0  0  0  0  0  0  0  0  0  0  0  0
   -3.6631    0.9726   -1.8629 N   0  0  0  0  0  0  0  0  0  0  0  0
   -3.1068    2.0672   -2.6799 C   0  0  2  0  0  0  0  0  0  0  0  0
   -1.5650    1.9856   -2.7787 C   0  0  0  0  0  0  0  0  0  0  0  0
   -0.8521    2.8635   -2.3066 O   0  0  0  0  0  0  0  0  0  0  0  0
   -3.5999    3.3826   -2.0649 C   0  0  0  0  0  0  0  0  0  0  0  0
   -3.7539    1.1074   -0.8508 H   0  0  0  0  0  0  0  0  0  0  0  0
   -3.5017    2.0048   -3.7002 H   0  0  0  0  0  0  0  0  0  0  0  0
   -3.2343    3.4893   -1.0383 H   0  0  0  0  0  0  0  0  0  0  0  0
   -3.2419    4.2348   -2.6514 H   0  0  0  0  0  0  0  0  0  0  0  0
   -4.6939    3.4094   -2.0502 H   0  0  0  0  0  0  0  0  0  0  0  0
   -1.0045    0.7879   -3.1894 N   0  0  0  0  0  0  0  0  0  0  0  0
    0.3578    0.2913   -2.8819 C   0  0  2  0  0  0  0  0  0  0  0  0
    0.5680    0.1469   -1.3533 C   0  0  0  0  0  0  0  0  0  0  0  0
    1.6806   -0.0183   -0.8706 O   0  0  0  0  0  0  0  0  0  0  0  0
    1.4495    1.1737   -3.5127 C   0  0  0  0  0  0  0  0  0  0  0  0
    1.3607    1.0976   -5.3464 S   0  0  0  0  0  0  0  0  0  0  0  0
   -1.6873    0.1054   -3.5377 H   0  0  0  0  0  0  0  0  0  0  0  0
    0.4613   -0.7124   -3.3049 H   0  0  0  0  0  0  0  0  0  0  0  0
    1.3601    2.2042   -3.1692 H   0  0  0  0  0  0  0  0  0  0  0  0
    2.4390    0.8218   -3.2037 H   0  0  0  0  0  0  0  0  0  0  0  0
   -0.5287    0.1677   -0.5093 N   0  0  0  0  0  0  0  0  0  0  0  0
   -0.4868    0.3271    0.9485 C   0  0  2  0  0  0  0  0  0  0  0  0
   -1.8998    0.1891    1.5551 C   0  0  0  0  0  0  0  0  0  0  0  0
   -2.8942    0.4190    0.8686 O   0  0  0  0  0  0  0  0  0  0  0  0
    0.0685    1.7148    1.2996 C   0  0  0  0  0  0  0  0  0  0  0  0
   -1.4158    0.3824   -0.9594 H   0  0  0  0  0  0  0  0  0  0  0  0
    0.1561   -0.4477    1.3793 H   0  0  0  0  0  0  0  0  0  0  0  0
   -0.5401    2.4985    0.8359 H   0  0  0  0  0  0  0  0  0  0  0  0
    0.0639    1.8650    2.3833 H   0  0  0  0  0  0  0  0  0  0  0  0
    1.0983    1.8221    0.9462 H   0  0  0  0  0  0  0  0  0  0  0  0
   -2.0629   -0.1733    2.8786 N   0  0  0  0  0  0  0  0  0  0  0  0
   -3.3644   -0.2996    3.5233 C   0  0  0  0  0  0  0  0  0  0  0  0
   -1.2243   -0.3384    3.4289 H   0  0  0  0  0  0  0  0  0  0  0  0
   -3.8894    0.6615    3.5193 H   0  0  0  0  0  0  0  0  0  0  0  0
   -3.9807   -1.0406    3.0033 H   0  0  0  0  0  0  0  0  0  0  0  0
   -3.2422   -0.6220    4.5620 H   0  0  0  0  0  0  0  0  0  0  0  0
  1  2  2  0  0  0  0
  1  3  1  0  0  0  0
  1  7  1  0  0  0  0
  3  4  1  0  0  0  0
  3  5  1  0  0  0  0
  3  6  1  0  0  0  0
  7  8  1  0  0  0  0
  7 13  1  0  0  0  0
  8  9  1  0  0  0  0
  8 11  1  0  0  0  0
  8 14  1  0  0  0  0
  9 10  2  0  0  0  0
  9 17  1  0  0  0  0
 11 12  1  0  0  0  0
 11 15  1  0  0  0  0
 11 16  1  0  0  0  0
 12 44  1  0  0  0  0
 17 18  1  0  0  0  0
 17 19  1  0  0  0  0
 18 20  1  0  0  0  0
 18 21  1  0  0  0  0
 18 22  1  0  0  0  0
 23 24  2  0  0  0  0
 23 25  1  0  0  0  0
 23 29  1  0  0  0  0
 25 26  1  0  0  0  0
 25 27  1  0  0  0  0
 25 28  1  0  0  0  0
 29 30  1  0  0  0  0
 29 34  1  0  0  0  0
 30 31  1  0  0  0  0
 30 33  1  0  0  0  0
 30 35  1  0  0  0  0
 31 32  2  0  0  0  0
 31 39  1  0  0  0  0
 33 36  1  0  0  0  0
 33 37  1  0  0  0  0
 33 38  1  0  0  0  0
 39 40  1  0  0  0  0
 39 45  1  0  0  0  0
 40 41  1  0  0  0  0
 40 43  1  0  0  0  0
 40 46  1  0  0  0  0
 41 42  2  0  0  0  0
 41 49  1  0  0  0  0
 43 44  1  0  0  0  0
 43 47  1  0  0  0  0
 43 48  1  0  0  0  0
 49 50  1  0  0  0  0
 49 54  1  0  0  0  0
 50 51  1  0  0  0  0
 50 53  1  0  0  0  0
 50 55  1  0  0  0  0
 51 52  2  0  0  0  0
 51 59  1  0  0  0  0
 53 56  1  0  0  0  0
 53 57  1  0  0  0  0
 53 58  1  0  0  0  0
 59 60  1  0  0  0  0
 59 61  1  0  0  0  0
 60 62  1  0  0  0  0
 60 63  1  0  0  0  0
 60 64  1  0  0  0  0
M  END
$$$$

  -OEChem-05262216053D

 64 63  0     1  0  0  0  0  0999 V2000
    0.0676    6.5530   -6.9437 C   0  0  0  0  0  0  0  0  0  0  0  0
   -1.0556    6.0947   -7.0885 O   0  0  0  0  0  0  0  0  0  0  0  0
    0.6120    7.5694   -7.9290 C   0  0  0  0  0  0  0  0  0  0  0  0
    1.5021    7.1701   -8.4213 H   0  0  0  0  0  0  0  0  0  0  0  0
   -0.1402    7.7972   -8.6894 H   0  0  0  0  0  0  0  0  0  0  0  0
    0.8757    8.4922   -7.4066 H   0  0  0  0  0  0  0  0  0  0  0  0
    0.8388    6.1483   -5.8769 N   0  0  0  0  0  0  0  0  0  0  0  0
    0.3745    5.2524   -4.8097 C   0  0  2  0  0  0  0  0  0  0  0  0
    1.1396    5.4892   -3.4869 C   0  0  0  0  0  0  0  0  0  0  0  0
    2.0431    6.3193   -3.4483 O   0  0  0  0  0  0  0  0  0  0  0  0
    0.4976    3.7983   -5.2870 C   0  0  0  0  0  0  0  0  0  0  0  0
    2.2492    3.2686   -5.4852 S   0  0  0  0  0  0  0  0  0  0  0  0
    1.7302    6.6196   -5.7256 H   0  0  0  0  0  0  0  0  0  0  0  0
   -0.6799    5.4624   -4.6024 H   0  0  0  0  0  0  0  0  0  0  0  0
    0.0095    3.1490   -4.5603 H   0  0  0  0  0  0  0  0  0  0  0  0
   -0.0267    3.6731   -6.2397 H   0  0  0  0  0  0  0  0  0  0  0  0
    0.7973    4.8182   -2.3255 N   0  0  0  0  0  0  0  0  0  0  0  0
    1.5749    4.9146   -1.0967 C   0  0  0  0  0  0  0  0  0  0  0  0
    0.1105    4.0634   -2.3916 H   0  0  0  0  0  0  0  0  0  0  0  0
    2.5973    4.5583   -1.2610 H   0  0  0  0  0  0  0  0  0  0  0  0
    1.6135    5.9508   -0.7446 H   0  0  0  0  0  0  0  0  0  0  0  0
    1.1172    4.3002   -0.3150 H   0  0  0  0  0  0  0  0  0  0  0  0
   -4.8654    1.8364   -2.2421 C   0  0  0  0  0  0  0  0  0  0  0  0
   -5.3665    0.8778   -2.8066 O   0  0  0  0  0  0  0  0  0  0  0  0
   -5.6871    2.6666   -1.2749 C   0  0  0  0  0  0  0  0  0  0  0  0
   -5.6589    3.7191   -1.5675 H   0  0  0  0  0  0  0  0  0  0  0  0
   -6.7266    2.3265   -1.2796 H   0  0  0  0  0  0  0  0  0  0  0  0
   -5.2870    2.5651   -0.2632 H   0  0  0  0  0  0  0  0  0  0  0  0
   -3.5431    2.1542   -2.4718 N   0  0  0  0  0  0  0  0  0  0  0  0
   -2.6287    1.3391   -3.2827 C   0  0  2  0  0  0  0  0  0  0  0  0
   -1.1829    1.3992   -2.7502 C   0  0  0  0  0  0  0  0  0  0  0  0
   -0.8194    2.3610   -2.0807 O   0  0  0  0  0  0  0  0  0  0  0  0
   -2.6966    1.8328   -4.7313 C   0  0  0  0  0  0  0  0  0  0  0  0
   -3.1350    2.8980   -1.9080 H   0  0  0  0  0  0  0  0  0  0  0  0
   -2.9433    0.2902   -3.2473 H   0  0  0  0  0  0  0  0  0  0  0  0
   -2.4402    2.8954   -4.7903 H   0  0  0  0  0  0  0  0  0  0  0  0
   -2.0039    1.2702   -5.3647 H   0  0  0  0  0  0  0  0  0  0  0  0
   -3.7086    1.6997   -5.1270 H   0  0  0  0  0  0  0  0  0  0  0  0
   -0.2984    0.3709   -3.0332 N   0  0  0  0  0  0  0  0  0  0  0  0
    1.1132    0.2688   -2.5919 C   0  0  2  0  0  0  0  0  0  0  0  0
    1.2428    0.2589   -1.0475 C   0  0  0  0  0  0  0  0  0  0  0  0
    2.2591    0.6482   -0.4856 O   0  0  0  0  0  0  0  0  0  0  0  0
    1.9532    1.4023   -3.2049 C   0  0  0  0  0  0  0  0  0  0  0  0
    2.0334    1.2415   -5.0331 S   0  0  0  0  0  0  0  0  0  0  0  0
   -0.6439   -0.3513   -3.6613 H   0  0  0  0  0  0  0  0  0  0  0  0
    1.5245   -0.6828   -2.9409 H   0  0  0  0  0  0  0  0  0  0  0  0
    1.5487    2.3728   -2.9207 H   0  0  0  0  0  0  0  0  0  0  0  0
    2.9772    1.3617   -2.8189 H   0  0  0  0  0  0  0  0  0  0  0  0
    0.2241   -0.2684   -0.2772 N   0  0  0  0  0  0  0  0  0  0  0  0
    0.2084   -0.3448    1.1870 C   0  0  2  0  0  0  0  0  0  0  0  0
   -0.8021   -1.4054    1.6726 C   0  0  0  0  0  0  0  0  0  0  0  0
   -1.6516   -1.8402    0.9016 O   0  0  0  0  0  0  0  0  0  0  0  0
   -0.1577    1.0352    1.7461 C   0  0  0  0  0  0  0  0  0  0  0  0
   -0.5972   -0.6231   -0.7644 H   0  0  0  0  0  0  0  0  0  0  0  0
    1.2002   -0.6345    1.5499 H   0  0  0  0  0  0  0  0  0  0  0  0
   -1.1388    1.3497    1.3754 H   0  0  0  0  0  0  0  0  0  0  0  0
   -0.1888    1.0111    2.8396 H   0  0  0  0  0  0  0  0  0  0  0  0
    0.5834    1.7806    1.4404 H   0  0  0  0  0  0  0  0  0  0  0  0
   -0.7533   -1.8855    2.9685 N   0  0  0  0  0  0  0  0  0  0  0  0
   -1.6501   -2.9193    3.4731 C   0  0  0  0  0  0  0  0  0  0  0  0
   -0.0193   -1.5310    3.5751 H   0  0  0  0  0  0  0  0  0  0  0  0
   -2.6938   -2.6001    3.3835 H   0  0  0  0  0  0  0  0  0  0  0  0
   -1.5173   -3.8497    2.9111 H   0  0  0  0  0  0  0  0  0  0  0  0
   -1.4407   -3.1200    4.5281 H   0  0  0  0  0  0  0  0  0  0  0  0
  1  2  2  0  0  0  0
  1  3  1  0  0  0  0
  1  7  1  0  0  0  0
  3  4  1  0  0  0  0
  3  5  1  0  0  0  0
  3  6  1  0  0  0  0
  7  8  1  0  0  0  0
  7 13  1  0  0  0  0
  8  9  1  0  0  0  0
  8 11  1  0  0  0  0
  8 14  1  0  0  0  0
  9 10  2  0  0  0  0
  9 17  1  0  0  0  0
 11 12  1  0  0  0  0
 11 15  1  0  0  0  0
 11 16  1  0  0  0  0
 12 44  1  0  0  0  0
 17 18  1  0  0  0  0
 17 19  1  0  0  0  0
 18 20  1  0  0  0  0
 18 21  1  0  0  0  0
 18 22  1  0  0  0  0
 23 24  2  0  0  0  0
 23 25  1  0  0  0  0
 23 29  1  0  0  0  0
 25 26  1  0  0  0  0
 25 27  1  0  0  0  0
 25 28  1  0  0  0  0
 29 30  1  0  0  0  0
 29 34  1  0  0  0  0
 30 31  1  0  0  0  0
 30 33  1  0  0  0  0
 30 35  1  0  0  0  0
 31 32  2  0  0  0  0
 31 39  1  0  0  0  0
 33 36  1  0  0  0  0
 33 37  1  0  0  0  0
 33 38  1  0  0  0  0
 39 40  1  0  0  0  0
 39 45  1  0  0  0  0
 40 41  1  0  0  0  0
 40 43  1  0  0  0  0
 40 46  1  0  0  0  0
 41 42  2  0  0  0  0
 41 49  1  0  0  0  0
 43 44  1  0  0  0  0
 43 47  1  0  0  0  0
 43 48  1  0  0  0  0
 49 50  1  0  0  0  0
 49 54  1  0  0  0  0
 50 51  1  0  0  0  0
 50 53  1  0  0  0  0
 50 55  1  0  0  0  0
 51 52  2  0  0  0  0
 51 59  1  0  0  0  0
 53 56  1  0  0  0  0
 53 57  1  0  0  0  0
 53 58  1  0  0  0  0
 59 60  1  0  0  0  0
 59 61  1  0  0  0  0
 60 62  1  0  0  0  0
 60 63  1  0  0  0  0
 60 64  1  0  0  0  0
M  END
$$$$

  -OEChem-05262216053D

 64 63  0     1  0  0  0  0  0999 V2000
    1.0598    6.2865   -7.5849 C   0  0  0  0  0  0  0  0  0  0  0  0
   -0.1350    6.0888   -7.7473 O   0  0  0  0  0  0  0  0  0  0  0  0
    1.8766    6.9571   -8.6738 C   0  0  0  0  0  0  0  0  0  0  0  0
    2.6653    6.2827   -9.0161 H   0  0  0  0  0  0  0  0  0  0  0  0
    1.2363    7.2104   -9.5233 H   0  0  0  0  0  0  0  0  0  0  0  0
    2.3312    7.8738   -8.2906 H   0  0  0  0  0  0  0  0  0  0  0  0
    1.6649    5.9000   -6.4094 N   0  0  0  0  0  0  0  0  0  0  0  0
    0.9574    5.3180   -5.2600 C   0  0  2  0  0  0  0  0  0  0  0  0
    1.6993    5.5827   -3.9296 C   0  0  0  0  0  0  0  0  0  0  0  0
    2.7404    6.2341   -3.9352 O   0  0  0  0  0  0  0  0  0  0  0  0
    0.7563    3.8159   -5.5042 C   0  0  0  0  0  0  0  0  0  0  0  0
    2.3478    2.8916   -5.4876 S   0  0  0  0  0  0  0  0  0  0  0  0
    2.6374    6.1678   -6.2620 H   0  0  0  0  0  0  0  0  0  0  0  0
   -0.0252    5.7917   -5.1678 H   0  0  0  0  0  0  0  0  0  0  0  0
    0.1013    3.4154   -4.7295 H   0  0  0  0  0  0  0  0  0  0  0  0
    0.2567    3.6567   -6.4649 H   0  0  0  0  0  0  0  0  0  0  0  0
    1.1923    5.1379   -2.7210 N   0  0  0  0  0  0  0  0  0  0  0  0
    1.9176    5.2536   -1.4631 C   0  0  0  0  0  0  0  0  0  0  0  0
    0.3788    4.5169   -2.7424 H   0  0  0  0  0  0  0  0  0  0  0  0
    2.8379    4.6617   -1.4978 H   0  0  0  0  0  0  0  0  0  0  0  0
    2.1748    6.2984   -1.2603 H   0  0  0  0  0  0  0  0  0  0  0  0
    1.2997    4.8843   -0.6387 H   0  0  0  0  0  0  0  0  0  0  0  0
   -4.0443    0.5815   -1.5808 C   0  0  0  0  0  0  0  0  0  0  0  0
   -3.2952   -0.2719   -2.0346 O   0  0  0  0  0  0  0  0  0  0  0  0
   -5.0633    0.2173   -0.5184 C   0  0  0  0  0  0  0  0  0  0  0  0
   -6.0732    0.3103   -0.9250 H   0  0  0  0  0  0  0  0  0  0  0  0
   -4.9112   -0.8144   -0.1882 H   0  0  0  0  0  0  0  0  0  0  0  0
   -4.9631    0.8811    0.3438 H   0  0  0  0  0  0  0  0  0  0  0  0
   -3.9453    1.8834   -2.0300 N   0  0  0  0  0  0  0  0  0  0  0  0
   -3.0660    2.3157   -3.1280 C   0  0  2  0  0  0  0  0  0  0  0  0
   -1.5629    2.1956   -2.7802 C   0  0  0  0  0  0  0  0  0  0  0  0
   -0.9342    3.1549   -2.3489 O   0  0  0  0  0  0  0  0  0  0  0  0
   -3.4584    3.7508   -3.5023 C   0  0  0  0  0  0  0  0  0  0  0  0
   -4.5557    2.5724   -1.5988 H   0  0  0  0  0  0  0  0  0  0  0  0
   -3.2484    1.6829   -4.0035 H   0  0  0  0  0  0  0  0  0  0  0  0
   -3.3304    4.4234   -2.6479 H   0  0  0  0  0  0  0  0  0  0  0  0
   -2.8322    4.1140   -4.3240 H   0  0  0  0  0  0  0  0  0  0  0  0
   -4.5039    3.7884   -3.8236 H   0  0  0  0  0  0  0  0  0  0  0  0
   -0.9495    0.9701   -2.9677 N   0  0  0  0  0  0  0  0  0  0  0  0
    0.3646    0.5561   -2.4374 C   0  0  2  0  0  0  0  0  0  0  0  0
    0.3762    0.6115   -0.8919 C   0  0  0  0  0  0  0  0  0  0  0  0
    1.3635    0.9810   -0.2664 O   0  0  0  0  0  0  0  0  0  0  0  0
    1.5115    1.3721   -3.0610 C   0  0  0  0  0  0  0  0  0  0  0  0
    1.6325    1.0333   -4.8636 S   0  0  0  0  0  0  0  0  0  0  0  0
   -1.6202    0.2158   -3.1350 H   0  0  0  0  0  0  0  0  0  0  0  0
    0.5285   -0.4917   -2.7068 H   0  0  0  0  0  0  0  0  0  0  0  0
    1.3708    2.4375   -2.8778 H   0  0  0  0  0  0  0  0  0  0  0  0
    2.4627    1.0937   -2.5962 H   0  0  0  0  0  0  0  0  0  0  0  0
   -0.7020    0.0928   -0.1942 N   0  0  0  0  0  0  0  0  0  0  0  0
   -0.6823   -0.2001    1.2451 C   0  0  2  0  0  0  0  0  0  0  0  0
   -0.4217   -1.6946    1.5222 C   0  0  0  0  0  0  0  0  0  0  0  0
   -1.0190   -2.5496    0.8791 O   0  0  0  0  0  0  0  0  0  0  0  0
   -2.0316    0.2240    1.8255 C   0  0  0  0  0  0  0  0  0  0  0  0
   -1.4281   -0.3558   -0.7562 H   0  0  0  0  0  0  0  0  0  0  0  0
    0.0989    0.3820    1.7446 H   0  0  0  0  0  0  0  0  0  0  0  0
   -2.8396   -0.3673    1.3846 H   0  0  0  0  0  0  0  0  0  0  0  0
   -2.0437    0.0726    2.9092 H   0  0  0  0  0  0  0  0  0  0  0  0
   -2.2159    1.2830    1.6195 H   0  0  0  0  0  0  0  0  0  0  0  0
    0.4389   -2.0836    2.5321 N   0  0  0  0  0  0  0  0  0  0  0  0
    0.7561   -3.4793    2.8111 C   0  0  0  0  0  0  0  0  0  0  0  0
    0.9947   -1.3577    2.9757 H   0  0  0  0  0  0  0  0  0  0  0  0
   -0.1560   -4.0443    3.0314 H   0  0  0  0  0  0  0  0  0  0  0  0
    1.2554   -3.9381    1.9512 H   0  0  0  0  0  0  0  0  0  0  0  0
    1.4215   -3.5506    3.6768 H   0  0  0  0  0  0  0  0  0  0  0  0
  1  2  2  0  0  0  0
  1  3  1  0  0  0  0
  1  7  1  0  0  0  0
  3  4  1  0  0  0  0
  3  5  1  0  0  0  0
  3  6  1  0  0  0  0
  7  8  1  0  0  0  0
  7 13  1  0  0  0  0
  8  9  1  0  0  0  0
  8 11  1  0  0  0  0
  8 14  1  0  0  0  0
  9 10  2  0  0  0  0
  9 17  1  0  0  0  0
 11 12  1  0  0  0  0
 11 15  1  0  0  0  0
 11 16  1  0  0  0  0
 12 44  1  0  0  0  0
 17 18  1  0  0  0  0
 17 19  1  0  0  0  0
 18 20  1  0  0  0  0
 18 21  1  0  0  0  0
 18 22  1  0  0  0  0
 23 24  2  0  0  0  0
 23 25  1  0  0  0  0
 23 29  1  0  0  0  0
 25 26  1  0  0  0  0
 25 27  1  0  0  0  0
 25 28  1  0  0  0  0
 29 30  1  0  0  0  0
 29 34  1  0  0  0  0
 30 31  1  0  0  0  0
 30 33  1  0  0  0  0
 30 35  1  0  0  0  0
 31 32  2  0  0  0  0
 31 39  1  0  0  0  0
 33 36  1  0  0  0  0
 33 37  1  0  0  0  0
 33 38  1  0  0  0  0
 39 40  1  0  0  0  0
 39 45  1  0  0  0  0
 40 41  1  0  0  0  0
 40 43  1  0  0  0  0
 40 46  1  0  0  0  0
 41 42  2  0  0  0  0
 41 49  1  0  0  0  0
 43 44  1  0  0  0  0
 43 47  1  0  0  0  0
 43 48  1  0  0  0  0
 49 50  1  0  0  0  0
 49 54  1  0  0  0  0
 50 51  1  0  0  0  0
 50 53  1  0  0  0  0
 50 55  1  0  0  0  0
 51 52  2  0  0  0  0
 51 59  1  0  0  0  0
 53 56  1  0  0  0  0
 53 57  1  0  0  0  0
 53 58  1  0  0  0  0
 59 60  1  0  0  0  0
 59 61  1  0  0  0  0
 60 62  1  0  0  0  0
 60 63  1  0  0  0  0
 60 64  1  0  0  0  0
M  END
$$$$

  -OEChem-05262216053D

 64 63  0     1  0  0  0  0  0999 V2000
    0.9733    6.4455   -7.5761 C   0  0  0  0  0  0  0  0  0  0  0  0
   -0.2206    6.2324   -7.7245 O   0  0  0  0  0  0  0  0  0  0  0  0
    1.7472    7.2077   -8.6344 C   0  0  0  0  0  0  0  0  0  0  0  0
    2.6073    6.6204   -8.9646 H   0  0  0  0  0  0  0  0  0  0  0  0
    1.1065    7.4096   -9.4971 H   0  0  0  0  0  0  0  0  0  0  0  0
    2.0983    8.1578   -8.2255 H   0  0  0  0  0  0  0  0  0  0  0  0
    1.6135    6.0086   -6.4374 N   0  0  0  0  0  0  0  0  0  0  0  0
    0.9418    5.3638   -5.3006 C   0  0  2  0  0  0  0  0  0  0  0  0
    1.7177    5.5757   -3.9793 C   0  0  0  0  0  0  0  0  0  0  0  0
    2.7703    6.2086   -3.9871 O   0  0  0  0  0  0  0  0  0  0  0  0
    0.7465    3.8731   -5.6131 C   0  0  0  0  0  0  0  0  0  0  0  0
    2.3423    2.9563   -5.6656 S   0  0  0  0  0  0  0  0  0  0  0  0
    2.5838    6.2883   -6.2968 H   0  0  0  0  0  0  0  0  0  0  0  0
   -0.0433    5.8209   -5.1602 H   0  0  0  0  0  0  0  0  0  0  0  0
    0.1044    3.4324   -4.8494 H   0  0  0  0  0  0  0  0  0  0  0  0
    0.2321    3.7570   -6.5720 H   0  0  0  0  0  0  0  0  0  0  0  0
    1.2237    5.1098   -2.7740 N   0  0  0  0  0  0  0  0  0  0  0  0
    1.9780    5.1595   -1.5287 C   0  0  0  0  0  0  0  0  0  0  0  0
    0.3976    4.5055   -2.8003 H   0  0  0  0  0  0  0  0  0  0  0  0
    2.9049    4.5832   -1.6179 H   0  0  0  0  0  0  0  0  0  0  0  0
    2.2264    6.1938   -1.2695 H   0  0  0  0  0  0  0  0  0  0  0  0
    1.3833    4.7319   -0.7150 H   0  0  0  0  0  0  0  0  0  0  0  0
   -3.8291    0.2775   -1.6683 C   0  0  0  0  0  0  0  0  0  0  0  0
   -3.1630   -0.5084   -2.3267 O   0  0  0  0  0  0  0  0  0  0  0  0
   -4.6388   -0.2126   -0.4833 C   0  0  0  0  0  0  0  0  0  0  0  0
   -5.7061   -0.1332   -0.7043 H   0  0  0  0  0  0  0  0  0  0  0  0
   -4.3989   -1.2586   -0.2703 H   0  0  0  0  0  0  0  0  0  0  0  0
   -4.4119    0.3868    0.4014 H   0  0  0  0  0  0  0  0  0  0  0  0
   -3.8041    1.6207   -1.9871 N   0  0  0  0  0  0  0  0  0  0  0  0
   -3.0422    2.1868   -3.1117 C   0  0  2  0  0  0  0  0  0  0  0  0
   -1.5157    2.1508   -2.8617 C   0  0  0  0  0  0  0  0  0  0  0  0
   -0.9132    3.1463   -2.4789 O   0  0  0  0  0  0  0  0  0  0  0  0
   -3.5640    3.6068   -3.3621 C   0  0  0  0  0  0  0  0  0  0  0  0
   -4.3018    2.2564   -1.3695 H   0  0  0  0  0  0  0  0  0  0  0  0
   -3.2376    1.5986   -4.0150 H   0  0  0  0  0  0  0  0  0  0  0  0
   -3.4199    4.2355   -2.4773 H   0  0  0  0  0  0  0  0  0  0  0  0
   -3.0302    4.0643   -4.2014 H   0  0  0  0  0  0  0  0  0  0  0  0
   -4.6308    3.5834   -3.6046 H   0  0  0  0  0  0  0  0  0  0  0  0
   -0.8600    0.9462   -3.0404 N   0  0  0  0  0  0  0  0  0  0  0  0
    0.4897    0.5922   -2.5578 C   0  0  2  0  0  0  0  0  0  0  0  0
    0.5535    0.6928   -1.0158 C   0  0  0  0  0  0  0  0  0  0  0  0
    1.4034    1.3634   -0.4407 O   0  0  0  0  0  0  0  0  0  0  0  0
    1.5823    1.4376   -3.2336 C   0  0  0  0  0  0  0  0  0  0  0  0
    1.6608    1.0865   -5.0354 S   0  0  0  0  0  0  0  0  0  0  0  0
   -1.5052    0.1644   -3.1885 H   0  0  0  0  0  0  0  0  0  0  0  0
    0.6861   -0.4536   -2.8125 H   0  0  0  0  0  0  0  0  0  0  0  0
    1.4078    2.4984   -3.0571 H   0  0  0  0  0  0  0  0  0  0  0  0
    2.5572    1.2002   -2.7964 H   0  0  0  0  0  0  0  0  0  0  0  0
   -0.2960   -0.0999   -0.2633 N   0  0  0  0  0  0  0  0  0  0  0  0
   -0.1471   -0.3481    1.1778 C   0  0  2  0  0  0  0  0  0  0  0  0
    0.0055   -1.8525    1.4778 C   0  0  0  0  0  0  0  0  0  0  0  0
   -0.5340   -2.6782    0.7503 O   0  0  0  0  0  0  0  0  0  0  0  0
   -1.3829    0.2139    1.8816 C   0  0  0  0  0  0  0  0  0  0  0  0
   -0.8833   -0.7533   -0.7829 H   0  0  0  0  0  0  0  0  0  0  0  0
    0.7405    0.1595    1.5688 H   0  0  0  0  0  0  0  0  0  0  0  0
   -2.2836   -0.3111    1.5492 H   0  0  0  0  0  0  0  0  0  0  0  0
   -1.2911    0.0954    2.9654 H   0  0  0  0  0  0  0  0  0  0  0  0
   -1.4939    1.2797    1.6578 H   0  0  0  0  0  0  0  0  0  0  0  0
    0.7274   -2.2806    2.5766 N   0  0  0  0  0  0  0  0  0  0  0  0
    0.9633   -3.6880    2.8757 C   0  0  0  0  0  0  0  0  0  0  0  0
    1.2243   -1.5758    3.1142 H   0  0  0  0  0  0  0  0  0  0  0  0
    0.0160   -4.2354    2.9258 H   0  0  0  0  0  0  0  0  0  0  0  0
    1.5920   -4.1427    2.1032 H   0  0  0  0  0  0  0  0  0  0  0  0
    1.4699   -3.7898    3.8403 H   0  0  0  0  0  0  0  0  0  0  0  0
  1  2  2  0  0  0  0
  1  3  1  0  0  0  0
  1  7  1  0  0  0  0
  3  4  1  0  0  0  0
  3  5  1  0  0  0  0
  3  6  1  0  0  0  0
  7  8  1  0  0  0  0
  7 13  1  0  0  0  0
  8  9  1  0  0  0  0
  8 11  1  0  0  0  0
  8 14  1  0  0  0  0
  9 10  2  0  0  0  0
  9 17  1  0  0  0  0
 11 12  1  0  0  0  0
 11 15  1  0  0  0  0
 11 16  1  0  0  0  0
 12 44  1  0  0  0  0
 17 18  1  0  0  0  0
 17 19  1  0  0  0  0
 18 20  1  0  0  0  0
 18 21  1  0  0  0  0
 18 22  1  0  0  0  0
 23 24  2  0  0  0  0
 23 25  1  0  0  0  0
 23 29  1  0  0  0  0
 25 26  1  0  0  0  0
 25 27  1  0  0  0  0
 25 28  1  0  0  0  0
 29 30  1  0  0  0  0
 29 34  1  0  0  0  0
 30 31  1  0  0  0  0
 30 33  1  0  0  0  0
 30 35  1  0  0  0  0
 31 32  2  0  0  0  0
 31 39  1  0  0  0  0
 33 36  1  0  0  0  0
 33 37  1  0  0  0  0
 33 38  1  0  0  0  0
 39 40  1  0  0  0  0
 39 45  1  0  0  0  0
 40 41  1  0  0  0  0
 40 43  1  0  0  0  0
 40 46  1  0  0  0  0
 41 42  2  0  0  0  0
 41 49  1  0  0  0  0
 43 44  1  0  0  0  0
 43 47  1  0  0  0  0
 43 48  1  0  0  0  0
 49 50  1  0  0  0  0
 49 54  1  0  0  0  0
 50 51  1  0  0  0  0
 50 53  1  0  0  0  0
 50 55  1  0  0  0  0
 51 52  2  0  0  0  0
 51 59  1  0  0  0  0
 53 56  1  0  0  0  0
 53 57  1  0  0  0  0
 53 58  1  0  0  0  0
 59 60  1  0  0  0  0
 59 61  1  0  0  0  0
 60 62  1  0  0  0  0
 60 63  1  0  0  0  0
 60 64  1  0  0  0  0
M  END
$$$$

  -OEChem-05262216053D

 64 63  0     1  0  0  0  0  0999 V2000
    0.9834    6.5932   -7.5780 C   0  0  0  0  0  0  0  0  0  0  0  0
   -0.2183    6.4338   -7.7292 O   0  0  0  0  0  0  0  0  0  0  0  0
    1.7890    7.3533   -8.6144 C   0  0  0  0  0  0  0  0  0  0  0  0
    2.5826    6.7149   -9.0103 H   0  0  0  0  0  0  0  0  0  0  0  0
    1.1424    7.6650   -9.4392 H   0  0  0  0  0  0  0  0  0  0  0  0
    2.2367    8.2415   -8.1620 H   0  0  0  0  0  0  0  0  0  0  0  0
    1.6081    6.0877   -6.4598 N   0  0  0  0  0  0  0  0  0  0  0  0
    0.9182    5.4193   -5.3478 C   0  0  2  0  0  0  0  0  0  0  0  0
    1.6992    5.5712   -4.0209 C   0  0  0  0  0  0  0  0  0  0  0  0
    2.7774    6.1599   -4.0159 O   0  0  0  0  0  0  0  0  0  0  0  0
    0.6912    3.9442   -5.7132 C   0  0  0  0  0  0  0  0  0  0  0  0
    2.2716    3.0052   -5.8295 S   0  0  0  0  0  0  0  0  0  0  0  0
    2.5881    6.3264   -6.3115 H   0  0  0  0  0  0  0  0  0  0  0  0
   -0.0565    5.8934   -5.1931 H   0  0  0  0  0  0  0  0  0  0  0  0
    0.0524    3.4845   -4.9574 H   0  0  0  0  0  0  0  0  0  0  0  0
    0.1605    3.8748   -6.6678 H   0  0  0  0  0  0  0  0  0  0  0  0
    1.1893    5.0981   -2.8250 N   0  0  0  0  0  0  0  0  0  0  0  0
    1.9608    5.0693   -1.5893 C   0  0  0  0  0  0  0  0  0  0  0  0
    0.3526    4.5092   -2.8666 H   0  0  0  0  0  0  0  0  0  0  0  0
    2.8515    4.4437   -1.7088 H   0  0  0  0  0  0  0  0  0  0  0  0
    2.2718    6.0797   -1.3041 H   0  0  0  0  0  0  0  0  0  0  0  0
    1.3537    4.6523   -0.7795 H   0  0  0  0  0  0  0  0  0  0  0  0
   -3.7144    0.0855   -1.6985 C   0  0  0  0  0  0  0  0  0  0  0  0
   -3.1038   -0.6506   -2.4603 O   0  0  0  0  0  0  0  0  0  0  0  0
   -4.3895   -0.4799   -0.4639 C   0  0  0  0  0  0  0  0  0  0  0  0
   -5.4649   -0.2919   -0.5078 H   0  0  0  0  0  0  0  0  0  0  0  0
   -4.2239   -1.5597   -0.4039 H   0  0  0  0  0  0  0  0  0  0  0  0
   -3.9815   -0.0105    0.4345 H   0  0  0  0  0  0  0  0  0  0  0  0
   -3.7347    1.4445   -1.9403 N   0  0  0  0  0  0  0  0  0  0  0  0
   -3.0603    2.0874   -3.0784 C   0  0  2  0  0  0  0  0  0  0  0  0
   -1.5222    2.1018   -2.9059 C   0  0  0  0  0  0  0  0  0  0  0  0
   -0.9351    3.1246   -2.5762 O   0  0  0  0  0  0  0  0  0  0  0  0
   -3.6534    3.4937   -3.2379 C   0  0  0  0  0  0  0  0  0  0  0  0
   -4.1697    2.0371   -1.2385 H   0  0  0  0  0  0  0  0  0  0  0  0
   -3.2809    1.5300   -3.9957 H   0  0  0  0  0  0  0  0  0  0  0  0
   -3.4762    4.0949   -2.3398 H   0  0  0  0  0  0  0  0  0  0  0  0
   -3.1945    4.0044   -4.0911 H   0  0  0  0  0  0  0  0  0  0  0  0
   -4.7323    3.4353   -3.4124 H   0  0  0  0  0  0  0  0  0  0  0  0
   -0.8366    0.9154   -3.0970 N   0  0  0  0  0  0  0  0  0  0  0  0
    0.5429    0.6035   -2.6719 C   0  0  2  0  0  0  0  0  0  0  0  0
    0.6844    0.7213   -1.1363 C   0  0  0  0  0  0  0  0  0  0  0  0
    1.3414    1.6089   -0.6041 O   0  0  0  0  0  0  0  0  0  0  0  0
    1.5797    1.4787   -3.3945 C   0  0  0  0  0  0  0  0  0  0  0  0
    1.5994    1.1319   -5.1979 S   0  0  0  0  0  0  0  0  0  0  0  0
   -1.4628    0.1144   -3.2255 H   0  0  0  0  0  0  0  0  0  0  0  0
    0.7600   -0.4364   -2.9338 H   0  0  0  0  0  0  0  0  0  0  0  0
    1.3776    2.5330   -3.2146 H   0  0  0  0  0  0  0  0  0  0  0  0
    2.5777    1.2761   -2.9933 H   0  0  0  0  0  0  0  0  0  0  0  0
    0.1515   -0.2742   -0.3375 N   0  0  0  0  0  0  0  0  0  0  0  0
    0.4053   -0.4153    1.1019 C   0  0  2  0  0  0  0  0  0  0  0  0
    0.5759   -1.8947    1.4999 C   0  0  0  0  0  0  0  0  0  0  0  0
    0.0796   -2.7756    0.8066 O   0  0  0  0  0  0  0  0  0  0  0  0
   -0.7665    0.2139    1.8583 C   0  0  0  0  0  0  0  0  0  0  0  0
   -0.2787   -1.0715   -0.8072 H   0  0  0  0  0  0  0  0  0  0  0  0
    1.3298    0.1044    1.3747 H   0  0  0  0  0  0  0  0  0  0  0  0
   -1.6990   -0.3064    1.6189 H   0  0  0  0  0  0  0  0  0  0  0  0
   -0.6013    0.1538    2.9383 H   0  0  0  0  0  0  0  0  0  0  0  0
   -0.8716    1.2680    1.5825 H   0  0  0  0  0  0  0  0  0  0  0  0
    1.2918   -2.2378    2.6318 N   0  0  0  0  0  0  0  0  0  0  0  0
    1.5616   -3.6181    3.0157 C   0  0  0  0  0  0  0  0  0  0  0  0
    1.7482   -1.4882    3.1439 H   0  0  0  0  0  0  0  0  0  0  0  0
    0.6255   -4.1733    3.1378 H   0  0  0  0  0  0  0  0  0  0  0  0
    2.1697   -4.1152    2.2526 H   0  0  0  0  0  0  0  0  0  0  0  0
    2.1048   -3.6471    3.9651 H   0  0  0  0  0  0  0  0  0  0  0  0
  1  2  2  0  0  0  0
  1  3  1  0  0  0  0
  1  7  1  0  0  0  0
  3  4  1  0  0  0  0
  3  5  1  0  0  0  0
  3  6  1  0  0  0  0
  7  8  1  0  0  0  0
  7 13  1  0  0  0  0
  8  9  1  0  0  0  0
  8 11  1  0  0  0  0
  8 14  1  0  0  0  0
  9 10  2  0  0  0  0
  9 17  1  0  0  0  0
 11 12  1  0  0  0  0
 11 15  1  0  0  0  0
 11 16  1  0  0  0  0
 12 44  1  0  0  0  0
 17 18  1  0  0  0  0
 17 19  1  0  0  0  0
 18 20  1  0  0  0  0
 18 21  1  0  0  0  0
 18 22  1  0  0  0  0
 23 24  2  0  0  0  0
 23 25  1  0  0  0  0
 23 29  1  0  0  0  0
 25 26  1  0  0  0  0
 25 27  1  0  0  0  0
 25 28  1  0  0  0  0
 29 30  1  0  0  0  0
 29 34  1  0  0  0  0
 30 31  1  0  0  0  0
 30 33  1  0  0  0  0
 30 35  1  0  0  0  0
 31 32  2  0  0  0  0
 31 39  1  0  0  0  0
 33 36  1  0  0  0  0
 33 37  1  0  0  0  0
 33 38  1  0  0  0  0
 39 40  1  0  0  0  0
 39 45  1  0  0  0  0
 40 41  1  0  0  0  0
 40 43  1  0  0  0  0
 40 46  1  0  0  0  0
 41 42  2  0  0  0  0
 41 49  1  0  0  0  0
 43 44  1  0  0  0  0
 43 47  1  0  0  0  0
 43 48  1  0  0  0  0
 49 50  1  0  0  0  0
 49 54  1  0  0  0  0
 50 51  1  0  0  0  0
 50 53  1  0  0  0  0
 50 55  1  0  0  0  0
 51 52  2  0  0  0  0
 51 59  1  0  0  0  0
 53 56  1  0  0  0  0
 53 57  1  0  0  0  0
 53 58  1  0  0  0  0
 59 60  1  0  0  0  0
 59 61  1  0  0  0  0
 60 62  1  0  0  0  0
 60 63  1  0  0  0  0
 60 64  1  0  0  0  0
M  END
$$$$

  -OEChem-05262216053D

 64 63  0     1  0  0  0  0  0999 V2000
    1.0401    6.6267   -7.6860 C   0  0  0  0  0  0  0  0  0  0  0  0
   -0.1600    6.4794   -7.8590 O   0  0  0  0  0  0  0  0  0  0  0  0
    1.8666    7.3985   -8.6967 C   0  0  0  0  0  0  0  0  0  0  0  0
    2.6961    6.7820   -9.0512 H   0  0  0  0  0  0  0  0  0  0  0  0
    1.2471    7.6810   -9.5523 H   0  0  0  0  0  0  0  0  0  0  0  0
    2.2659    8.3044   -8.2344 H   0  0  0  0  0  0  0  0  0  0  0  0
    1.6430    6.1061   -6.5628 N   0  0  0  0  0  0  0  0  0  0  0  0
    0.9266    5.4557   -5.4570 C   0  0  2  0  0  0  0  0  0  0  0  0
    1.6862    5.6101   -4.1186 C   0  0  0  0  0  0  0  0  0  0  0  0
    2.7747    6.1797   -4.0993 O   0  0  0  0  0  0  0  0  0  0  0  0
    0.6897    3.9809   -5.8138 C   0  0  0  0  0  0  0  0  0  0  0  0
    2.2627    3.0274   -5.9079 S   0  0  0  0  0  0  0  0  0  0  0  0
    2.6231    6.3343   -6.3995 H   0  0  0  0  0  0  0  0  0  0  0  0
   -0.0451    5.9418   -5.3224 H   0  0  0  0  0  0  0  0  0  0  0  0
    0.0391    3.5325   -5.0609 H   0  0  0  0  0  0  0  0  0  0  0  0
    0.1690    3.9104   -6.7738 H   0  0  0  0  0  0  0  0  0  0  0  0
    1.1447    5.1588   -2.9287 N   0  0  0  0  0  0  0  0  0  0  0  0
    1.8953    5.1202   -1.6807 C   0  0  0  0  0  0  0  0  0  0  0  0
    0.3011    4.5803   -2.9825 H   0  0  0  0  0  0  0  0  0  0  0  0
    2.7906    4.4990   -1.7912 H   0  0  0  0  0  0  0  0  0  0  0  0
    2.1968    6.1286   -1.3791 H   0  0  0  0  0  0  0  0  0  0  0  0
    1.2757    4.6914   -0.8866 H   0  0  0  0  0  0  0  0  0  0  0  0
   -3.6108   -0.0009   -1.6303 C   0  0  0  0  0  0  0  0  0  0  0  0
   -3.0502   -0.7070   -2.4560 O   0  0  0  0  0  0  0  0  0  0  0  0
   -4.1760   -0.6096   -0.3614 C   0  0  0  0  0  0  0  0  0  0  0  0
   -5.2545   -0.4407   -0.3141 H   0  0  0  0  0  0  0  0  0  0  0  0
   -3.9879   -1.6869   -0.3436 H   0  0  0  0  0  0  0  0  0  0  0  0
   -3.7033   -0.1565    0.5134 H   0  0  0  0  0  0  0  0  0  0  0  0
   -3.6623    1.3644   -1.8302 N   0  0  0  0  0  0  0  0  0  0  0  0
   -3.0785    2.0486   -2.9958 C   0  0  2  0  0  0  0  0  0  0  0  0
   -1.5335    2.1100   -2.9198 C   0  0  0  0  0  0  0  0  0  0  0  0
   -0.9579    3.1635   -2.6795 O   0  0  0  0  0  0  0  0  0  0  0  0
   -3.7252    3.4364   -3.0923 C   0  0  0  0  0  0  0  0  0  0  0  0
   -4.0539    1.9311   -1.0823 H   0  0  0  0  0  0  0  0  0  0  0  0
   -3.3369    1.4993   -3.9078 H   0  0  0  0  0  0  0  0  0  0  0  0
   -3.5096    4.0284   -2.1969 H   0  0  0  0  0  0  0  0  0  0  0  0
   -3.3373    3.9744   -3.9633 H   0  0  0  0  0  0  0  0  0  0  0  0
   -4.8103    3.3447   -3.1985 H   0  0  0  0  0  0  0  0  0  0  0  0
   -0.8300    0.9331   -3.1065 N   0  0  0  0  0  0  0  0  0  0  0  0
    0.5632    0.6489   -2.7063 C   0  0  2  0  0  0  0  0  0  0  0  0
    0.7505    0.7872   -1.1772 C   0  0  0  0  0  0  0  0  0  0  0  0
    1.1926    1.8063   -0.6593 O   0  0  0  0  0  0  0  0  0  0  0  0
    1.5744    1.5320   -3.4537 C   0  0  0  0  0  0  0  0  0  0  0  0
    1.5700    1.1701   -5.2540 S   0  0  0  0  0  0  0  0  0  0  0  0
   -1.4462    0.1191   -3.1964 H   0  0  0  0  0  0  0  0  0  0  0  0
    0.7911   -0.3888   -2.9667 H   0  0  0  0  0  0  0  0  0  0  0  0
    1.3581    2.5850   -3.2820 H   0  0  0  0  0  0  0  0  0  0  0  0
    2.5812    1.3490   -3.0649 H   0  0  0  0  0  0  0  0  0  0  0  0
    0.5514   -0.3187   -0.3717 N   0  0  0  0  0  0  0  0  0  0  0  0
    0.8897   -0.3885    1.0550 C   0  0  2  0  0  0  0  0  0  0  0  0
    1.2059   -1.8353    1.4849 C   0  0  0  0  0  0  0  0  0  0  0  0
    0.8322   -2.7751    0.7917 O   0  0  0  0  0  0  0  0  0  0  0  0
   -0.2862    0.1641    1.8655 C   0  0  0  0  0  0  0  0  0  0  0  0
    0.2799   -1.1936   -0.8211 H   0  0  0  0  0  0  0  0  0  0  0  0
    1.7818    0.2156    1.2509 H   0  0  0  0  0  0  0  0  0  0  0  0
   -1.1855   -0.4340    1.6880 H   0  0  0  0  0  0  0  0  0  0  0  0
   -0.0572    0.1423    2.9352 H   0  0  0  0  0  0  0  0  0  0  0  0
   -0.4925    1.2003    1.5789 H   0  0  0  0  0  0  0  0  0  0  0  0
    1.9218   -2.0842    2.6412 N   0  0  0  0  0  0  0  0  0  0  0  0
    2.3165   -3.4233    3.0614 C   0  0  0  0  0  0  0  0  0  0  0  0
    2.2658   -1.2839    3.1643 H   0  0  0  0  0  0  0  0  0  0  0  0
    1.4385   -4.0702    3.1606 H   0  0  0  0  0  0  0  0  0  0  0  0
    3.0000   -3.8666    2.3297 H   0  0  0  0  0  0  0  0  0  0  0  0
    2.8237   -3.3816    4.0300 H   0  0  0  0  0  0  0  0  0  0  0  0
  1  2  2  0  0  0  0
  1  3  1  0  0  0  0
  1  7  1  0  0  0  0
  3  4  1  0  0  0  0
  3  5  1  0  0  0  0
  3  6  1  0  0  0  0
  7  8  1  0  0  0  0
  7 13  1  0  0  0  0
  8  9  1  0  0  0  0
  8 11  1  0  0  0  0
  8 14  1  0  0  0  0
  9 10  2  0  0  0  0
  9 17  1  0  0  0  0
 11 12  1  0  0  0  0
 11 15  1  0  0  0  0
 11 16  1  0  0  0  0
 12 44  1  0  0  0  0
 17 18  1  0  0  0  0
 17 19  1  0  0  0  0
 18 20  1  0  0  0  0
 18 21  1  0  0  0  0
 18 22  1  0  0  0  0
 23 24  2  0  0  0  0
 23 25  1  0  0  0  0
 23 29  1  0  0  0  0
 25 26  1  0  0  0  0
 25 27  1  0  0  0  0
 25 28  1  0  0  0  0
 29 30  1  0  0  0  0
 29 34  1  0  0  0  0
 30 31  1  0  0  0  0
 30 33  1  0  0  0  0
 30 35  1  0  0  0  0
 31 32  2  0  0  0  0
 31 39  1  0  0  0  0
 33 36  1  0  0  0  0
 33 37  1  0  0  0  0
 33 38  1  0  0  0  0
 39 40  1  0  0  0  0
 39 45  1  0  0  0  0
 40 41  1  0  0  0  0
 40 43  1  0  0  0  0
 40 46  1  0  0  0  0
 41 42  2  0  0  0  0
 41 49  1  0  0  0  0
 43 44  1  0  0  0  0
 43 47  1  0  0  0  0
 43 48  1  0  0  0  0
 49 50  1  0  0  0  0
 49 54  1  0  0  0  0
 50 51  1  0  0  0  0
 50 53  1  0  0  0  0
 50 55  1  0  0  0  0
 51 52  2  0  0  0  0
 51 59  1  0  0  0  0
 53 56  1  0  0  0  0
 53 57  1  0  0  0  0
 53 58  1  0  0  0  0
 59 60  1  0  0  0  0
 59 61  1  0  0  0  0
 60 62  1  0  0  0  0
 60 63  1  0  0  0  0
 60 64  1  0  0  0  0
M  END
$$$$

  -OEChem-05262216053D

 64 63  0     1  0  0  0  0  0999 V2000
    1.0611    6.6625   -7.7760 C   0  0  0  0  0  0  0  0  0  0  0  0
   -0.1373    6.5169   -7.9612 O   0  0  0  0  0  0  0  0  0  0  0  0
    1.9003    7.4244   -8.7844 C   0  0  0  0  0  0  0  0  0  0  0  0
    2.6560    6.7625   -9.2144 H   0  0  0  0  0  0  0  0  0  0  0  0
    1.2675    7.8083   -9.5896 H   0  0  0  0  0  0  0  0  0  0  0  0
    2.3983    8.2656   -8.2963 H   0  0  0  0  0  0  0  0  0  0  0  0
    1.6536    6.1406   -6.6479 N   0  0  0  0  0  0  0  0  0  0  0  0
    0.9296    5.4851   -5.5499 C   0  0  2  0  0  0  0  0  0  0  0  0
    1.6673    5.6579   -4.2011 C   0  0  0  0  0  0  0  0  0  0  0  0
    2.7435    6.2500   -4.1693 O   0  0  0  0  0  0  0  0  0  0  0  0
    0.7183    4.0058   -5.9042 C   0  0  0  0  0  0  0  0  0  0  0  0
    2.3036    3.0696   -5.9575 S   0  0  0  0  0  0  0  0  0  0  0  0
    2.6298    6.3750   -6.4726 H   0  0  0  0  0  0  0  0  0  0  0  0
   -0.0514    5.9568   -5.4324 H   0  0  0  0  0  0  0  0  0  0  0  0
    0.0555    3.5525   -5.1648 H   0  0  0  0  0  0  0  0  0  0  0  0
    0.2201    3.9246   -6.8754 H   0  0  0  0  0  0  0  0  0  0  0  0
    1.1160    5.2102   -3.0142 N   0  0  0  0  0  0  0  0  0  0  0  0
    1.8276    5.2440   -1.7435 C   0  0  0  0  0  0  0  0  0  0  0  0
    0.2899    4.6070   -3.0735 H   0  0  0  0  0  0  0  0  0  0  0  0
    2.7329    4.6305   -1.7953 H   0  0  0  0  0  0  0  0  0  0  0  0
    2.1083    6.2705   -1.4855 H   0  0  0  0  0  0  0  0  0  0  0  0
    1.1888    4.8491   -0.9473 H   0  0  0  0  0  0  0  0  0  0  0  0
   -3.4291    0.0399   -1.4072 C   0  0  0  0  0  0  0  0  0  0  0  0
   -2.9220   -0.7100   -2.2291 O   0  0  0  0  0  0  0  0  0  0  0  0
   -3.8616   -0.4888   -0.0534 C   0  0  0  0  0  0  0  0  0  0  0  0
   -4.9385   -0.3538    0.0729 H   0  0  0  0  0  0  0  0  0  0  0  0
   -3.6284   -1.5544    0.0273 H   0  0  0  0  0  0  0  0  0  0  0  0
   -3.3378    0.0473    0.7418 H   0  0  0  0  0  0  0  0  0  0  0  0
   -3.5433    1.3849   -1.6949 N   0  0  0  0  0  0  0  0  0  0  0  0
   -3.0645    2.0016   -2.9422 C   0  0  2  0  0  0  0  0  0  0  0  0
   -1.5208    2.1070   -2.9783 C   0  0  0  0  0  0  0  0  0  0  0  0
   -0.9642    3.1891   -2.8415 O   0  0  0  0  0  0  0  0  0  0  0  0
   -3.7602    3.3615   -3.0809 C   0  0  0  0  0  0  0  0  0  0  0  0
   -3.8624    1.9952   -0.9469 H   0  0  0  0  0  0  0  0  0  0  0  0
   -3.3686    1.3859   -3.7959 H   0  0  0  0  0  0  0  0  0  0  0  0
   -3.5102    4.0136   -2.2375 H   0  0  0  0  0  0  0  0  0  0  0  0
   -3.4442    3.8559   -4.0052 H   0  0  0  0  0  0  0  0  0  0  0  0
   -4.8463    3.2319   -3.1134 H   0  0  0  0  0  0  0  0  0  0  0  0
   -0.8015    0.9376   -3.1590 N   0  0  0  0  0  0  0  0  0  0  0  0
    0.5965    0.6799   -2.7550 C   0  0  2  0  0  0  0  0  0  0  0  0
    0.7886    0.8287   -1.2277 C   0  0  0  0  0  0  0  0  0  0  0  0
    0.9054    1.9207   -0.6849 O   0  0  0  0  0  0  0  0  0  0  0  0
    1.6013    1.5754   -3.4955 C   0  0  0  0  0  0  0  0  0  0  0  0
    1.6161    1.2124   -5.2960 S   0  0  0  0  0  0  0  0  0  0  0  0
   -1.4113    0.1139   -3.1657 H   0  0  0  0  0  0  0  0  0  0  0  0
    0.8382   -0.3548   -3.0154 H   0  0  0  0  0  0  0  0  0  0  0  0
    1.3704    2.6259   -3.3264 H   0  0  0  0  0  0  0  0  0  0  0  0
    2.6072    1.4060   -3.0995 H   0  0  0  0  0  0  0  0  0  0  0  0
    0.9243   -0.3034   -0.4462 N   0  0  0  0  0  0  0  0  0  0  0  0
    1.2119   -0.3048    0.9937 C   0  0  2  0  0  0  0  0  0  0  0  0
    1.8511   -1.6380    1.4356 C   0  0  0  0  0  0  0  0  0  0  0  0
    1.8081   -2.6132    0.6935 O   0  0  0  0  0  0  0  0  0  0  0  0
   -0.0970   -0.0613    1.7545 C   0  0  0  0  0  0  0  0  0  0  0  0
    0.9107   -1.2119   -0.9108 H   0  0  0  0  0  0  0  0  0  0  0  0
    1.9227    0.4956    1.2259 H   0  0  0  0  0  0  0  0  0  0  0  0
   -0.8227   -0.8487    1.5267 H   0  0  0  0  0  0  0  0  0  0  0  0
    0.0814   -0.0533    2.8340 H   0  0  0  0  0  0  0  0  0  0  0  0
   -0.5291    0.9038    1.4711 H   0  0  0  0  0  0  0  0  0  0  0  0
    2.4785   -1.7466    2.6631 N   0  0  0  0  0  0  0  0  0  0  0  0
    3.1203   -2.9713    3.1265 C   0  0  0  0  0  0  0  0  0  0  0  0
    2.5260   -0.9153    3.2451 H   0  0  0  0  0  0  0  0  0  0  0  0
    2.3905   -3.7851    3.1929 H   0  0  0  0  0  0  0  0  0  0  0  0
    3.9191   -3.2698    2.4394 H   0  0  0  0  0  0  0  0  0  0  0  0
    3.5576   -2.8183    4.1178 H   0  0  0  0  0  0  0  0  0  0  0  0
  1  2  2  0  0  0  0
  1  3  1  0  0  0  0
  1  7  1  0  0  0  0
  3  4  1  0  0  0  0
  3  5  1  0  0  0  0
  3  6  1  0  0  0  0
  7  8  1  0  0  0  0
  7 13  1  0  0  0  0
  8  9  1  0  0  0  0
  8 11  1  0  0  0  0
  8 14  1  0  0  0  0
  9 10  2  0  0  0  0
  9 17  1  0  0  0  0
 11 12  1  0  0  0  0
 11 15  1  0  0  0  0
 11 16  1  0  0  0  0
 12 44  1  0  0  0  0
 17 18  1  0  0  0  0
 17 19  1  0  0  0  0
 18 20  1  0  0  0  0
 18 21  1  0  0  0  0
 18 22  1  0  0  0  0
 23 24  2  0  0  0  0
 23 25  1  0  0  0  0
 23 29  1  0  0  0  0
 25 26  1  0  0  0  0
 25 27  1  0  0  0  0
 25 28  1  0  0  0  0
 29 30  1  0  0  0  0
 29 34  1  0  0  0  0
 30 31  1  0  0  0  0
 30 33  1  0  0  0  0
 30 35  1  0  0  0  0
 31 32  2  0  0  0  0
 31 39  1  0  0  0  0
 33 36  1  0  0  0  0
 33 37  1  0  0  0  0
 33 38  1  0  0  0  0
 39 40  1  0  0  0  0
 39 45  1  0  0  0  0
 40 41  1  0  0  0  0
 40 43  1  0  0  0  0
 40 46  1  0  0  0  0
 41 42  2  0  0  0  0
 41 49  1  0  0  0  0
 43 44  1  0  0  0  0
 43 47  1  0  0  0  0
 43 48  1  0  0  0  0
 49 50  1  0  0  0  0
 49 54  1  0  0  0  0
 50 51  1  0  0  0  0
 50 53  1  0  0  0  0
 50 55  1  0  0  0  0
 51 52  2  0  0  0  0
 51 59  1  0  0  0  0
 53 56  1  0  0  0  0
 53 57  1  0  0  0  0
 53 58  1  0  0  0  0
 59 60  1  0  0  0  0
 59 61  1  0  0  0  0
 60 62  1  0  0  0  0
 60 63  1  0  0  0  0
 60 64  1  0  0  0  0
M  END
$$$$

  -OEChem-05262216053D

 64 63  0     1  0  0  0  0  0999 V2000
    1.2724    6.5868   -7.9249 C   0  0  0  0  0  0  0  0  0  0  0  0
    0.0838    6.4572   -8.1736 O   0  0  0  0  0  0  0  0  0  0  0  0
    2.1832    7.2944   -8.9098 C   0  0  0  0  0  0  0  0  0  0  0  0
    2.9385    6.5983   -9.2825 H   0  0  0  0  0  0  0  0  0  0  0  0
    1.6031    7.6735   -9.7560 H   0  0  0  0  0  0  0  0  0  0  0  0
    2.6813    8.1347   -8.4199 H   0  0  0  0  0  0  0  0  0  0  0  0
    1.7894    6.0976   -6.7462 N   0  0  0  0  0  0  0  0  0  0  0  0
    0.9899    5.5030   -5.6658 C   0  0  2  0  0  0  0  0  0  0  0  0
    1.6514    5.7171   -4.2841 C   0  0  0  0  0  0  0  0  0  0  0  0
    2.7161    6.3252   -4.2051 O   0  0  0  0  0  0  0  0  0  0  0  0
    0.7688    4.0142   -5.9679 C   0  0  0  0  0  0  0  0  0  0  0  0
    2.3376    3.0526   -5.9021 S   0  0  0  0  0  0  0  0  0  0  0  0
    2.7604    6.3159   -6.5274 H   0  0  0  0  0  0  0  0  0  0  0  0
    0.0136    5.9972   -5.6244 H   0  0  0  0  0  0  0  0  0  0  0  0
    0.0621    3.6029   -5.2449 H   0  0  0  0  0  0  0  0  0  0  0  0
    0.3180    3.9010   -6.9586 H   0  0  0  0  0  0  0  0  0  0  0  0
    1.0462    5.2773   -3.1209 N   0  0  0  0  0  0  0  0  0  0  0  0
    1.6778    5.3554   -1.8111 C   0  0  0  0  0  0  0  0  0  0  0  0
    0.2237    4.6728   -3.2125 H   0  0  0  0  0  0  0  0  0  0  0  0
    2.6204    4.7989   -1.8055 H   0  0  0  0  0  0  0  0  0  0  0  0
    1.8789    6.3974   -1.5427 H   0  0  0  0  0  0  0  0  0  0  0  0
    1.0174    4.9231   -1.0530 H   0  0  0  0  0  0  0  0  0  0  0  0
   -3.4219    0.1247   -1.3012 C   0  0  0  0  0  0  0  0  0  0  0  0
   -3.0125   -0.6351   -2.1672 O   0  0  0  0  0  0  0  0  0  0  0  0
   -3.7200   -0.3970    0.0912 C   0  0  0  0  0  0  0  0  0  0  0  0
   -4.7542   -0.1710    0.3619 H   0  0  0  0  0  0  0  0  0  0  0  0
   -3.5760   -1.4807    0.1274 H   0  0  0  0  0  0  0  0  0  0  0  0
   -3.0498    0.0709    0.8163 H   0  0  0  0  0  0  0  0  0  0  0  0
   -3.5341    1.4724   -1.5775 N   0  0  0  0  0  0  0  0  0  0  0  0
   -3.1363    2.0811   -2.8574 C   0  0  2  0  0  0  0  0  0  0  0  0
   -1.5975    2.1717   -2.9937 C   0  0  0  0  0  0  0  0  0  0  0  0
   -1.0296    3.2569   -2.9622 O   0  0  0  0  0  0  0  0  0  0  0  0
   -3.8245    3.4490   -2.9546 C   0  0  0  0  0  0  0  0  0  0  0  0
   -3.7257    2.0899   -0.7926 H   0  0  0  0  0  0  0  0  0  0  0  0
   -3.5013    1.4657   -3.6870 H   0  0  0  0  0  0  0  0  0  0  0  0
   -3.5037    4.1019   -2.1361 H   0  0  0  0  0  0  0  0  0  0  0  0
   -3.5711    3.9341   -3.9028 H   0  0  0  0  0  0  0  0  0  0  0  0
   -4.9116    3.3345   -2.9065 H   0  0  0  0  0  0  0  0  0  0  0  0
   -0.8924    0.9904   -3.1568 N   0  0  0  0  0  0  0  0  0  0  0  0
    0.4945    0.7280   -2.7157 C   0  0  2  0  0  0  0  0  0  0  0  0
    0.6760    0.8773   -1.1859 C   0  0  0  0  0  0  0  0  0  0  0  0
    0.4390    1.9250   -0.5971 O   0  0  0  0  0  0  0  0  0  0  0  0
    1.5283    1.6080   -3.4329 C   0  0  0  0  0  0  0  0  0  0  0  0
    1.5858    1.2254   -5.2287 S   0  0  0  0  0  0  0  0  0  0  0  0
   -1.5144    0.1769   -3.1218 H   0  0  0  0  0  0  0  0  0  0  0  0
    0.7262   -0.3107   -2.9681 H   0  0  0  0  0  0  0  0  0  0  0  0
    1.3075    2.6632   -3.2781 H   0  0  0  0  0  0  0  0  0  0  0  0
    2.5216    1.4290   -3.0100 H   0  0  0  0  0  0  0  0  0  0  0  0
    1.1079   -0.2025   -0.4373 N   0  0  0  0  0  0  0  0  0  0  0  0
    1.4197   -0.1568    0.9978 C   0  0  2  0  0  0  0  0  0  0  0  0
    2.4366   -1.2494    1.3900 C   0  0  0  0  0  0  0  0  0  0  0  0
    2.7037   -2.1504    0.6025 O   0  0  0  0  0  0  0  0  0  0  0  0
    0.1186   -0.3260    1.7900 C   0  0  0  0  0  0  0  0  0  0  0  0
    1.3904   -1.0469   -0.9359 H   0  0  0  0  0  0  0  0  0  0  0  0
    1.8706    0.8107    1.2438 H   0  0  0  0  0  0  0  0  0  0  0  0
   -0.3545   -1.2833    1.5492 H   0  0  0  0  0  0  0  0  0  0  0  0
    0.3163   -0.2957    2.8656 H   0  0  0  0  0  0  0  0  0  0  0  0
   -0.5807    0.4800    1.5475 H   0  0  0  0  0  0  0  0  0  0  0  0
    3.0657   -1.2124    2.6209 N   0  0  0  0  0  0  0  0  0  0  0  0
    4.0658   -2.1879    3.0385 C   0  0  0  0  0  0  0  0  0  0  0  0
    2.8476   -0.4364    3.2392 H   0  0  0  0  0  0  0  0  0  0  0  0
    3.6437   -3.1986    3.0301 H   0  0  0  0  0  0  0  0  0  0  0  0
    4.9310   -2.1612    2.3673 H   0  0  0  0  0  0  0  0  0  0  0  0
    4.4087   -1.9662    4.0539 H   0  0  0  0  0  0  0  0  0  0  0  0
  1  2  2  0  0  0  0
  1  3  1  0  0  0  0
  1  7  1  0  0  0  0
  3  4  1  0  0  0  0
  3  5  1  0  0  0  0
  3  6  1  0  0  0  0
  7  8  1  0  0  0  0
  7 13  1  0  0  0  0
  8  9  1  0  0  0  0
  8 11  1  0  0  0  0
  8 14  1  0  0  0  0
  9 10  2  0  0  0  0
  9 17  1  0  0  0  0
 11 12  1  0  0  0  0
 11 15  1  0  0  0  0
 11 16  1  0  0  0  0
 12 44  1  0  0  0  0
 17 18  1  0  0  0  0
 17 19  1  0  0  0  0
 18 20  1  0  0  0  0
 18 21  1  0  0  0  0
 18 22  1  0  0  0  0
 23 24  2  0  0  0  0
 23 25  1  0  0  0  0
 23 29  1  0  0  0  0
 25 26  1  0  0  0  0
 25 27  1  0  0  0  0
 25 28  1  0  0  0  0
 29 30  1  0  0  0  0
 29 34  1  0  0  0  0
 30 31  1  0  0  0  0
 30 33  1  0  0  0  0
 30 35  1  0  0  0  0
 31 32  2  0  0  0  0
 31 39  1  0  0  0  0
 33 36  1  0  0  0  0
 33 37  1  0  0  0  0
 33 38  1  0  0  0  0
 39 40  1  0  0  0  0
 39 45  1  0  0  0  0
 40 41  1  0  0  0  0
 40 43  1  0  0  0  0
 40 46  1  0  0  0  0
 41 42  2  0  0  0  0
 41 49  1  0  0  0  0
 43 44  1  0  0  0  0
 43 47  1  0  0  0  0
 43 48  1  0  0  0  0
 49 50  1  0  0  0  0
 49 54  1  0  0  0  0
 50 51  1  0  0  0  0
 50 53  1  0  0  0  0
 50 55  1  0  0  0  0
 51 52  2  0  0  0  0
 51 59  1  0  0  0  0
 53 56  1  0  0  0  0
 53 57  1  0  0  0  0
 53 58  1  0  0  0  0
 59 60  1  0  0  0  0
 59 61  1  0  0  0  0
 60 62  1  0  0  0  0
 60 63  1  0  0  0  0
 60 64  1  0  0  0  0
M  END
$$$$

  -OEChem-05262216053D

 64 63  0     1  0  0  0  0  0999 V2000
    1.5051    6.4298   -7.9920 C   0  0  0  0  0  0  0  0  0  0  0  0
    0.3424    6.2666   -8.3279 O   0  0  0  0  0  0  0  0  0  0  0  0
    2.4971    7.0544   -8.9543 C   0  0  0  0  0  0  0  0  0  0  0  0
    3.3233    6.3630   -9.1373 H   0  0  0  0  0  0  0  0  0  0  0  0
    2.0082    7.2799   -9.9062 H   0  0  0  0  0  0  0  0  0  0  0  0
    2.8931    7.9811   -8.5321 H   0  0  0  0  0  0  0  0  0  0  0  0
    1.9199    6.0514   -6.7352 N   0  0  0  0  0  0  0  0  0  0  0  0
    1.0416    5.5045   -5.6920 C   0  0  2  0  0  0  0  0  0  0  0  0
    1.6021    5.7742   -4.2763 C   0  0  0  0  0  0  0  0  0  0  0  0
    2.6538    6.3952   -4.1446 O   0  0  0  0  0  0  0  0  0  0  0  0
    0.8389    4.0047   -5.9459 C   0  0  0  0  0  0  0  0  0  0  0  0
    2.4093    3.0620   -5.7652 S   0  0  0  0  0  0  0  0  0  0  0  0
    2.8723    6.2836   -6.4574 H   0  0  0  0  0  0  0  0  0  0  0  0
    0.0678    6.0019   -5.7433 H   0  0  0  0  0  0  0  0  0  0  0  0
    0.0990    3.6161   -5.2438 H   0  0  0  0  0  0  0  0  0  0  0  0
    0.4393    3.8496   -6.9530 H   0  0  0  0  0  0  0  0  0  0  0  0
    0.9193    5.3737   -3.1423 N   0  0  0  0  0  0  0  0  0  0  0  0
    1.4429    5.5363   -1.7937 C   0  0  0  0  0  0  0  0  0  0  0  0
    0.1115    4.7555   -3.2661 H   0  0  0  0  0  0  0  0  0  0  0  0
    2.4077    5.0291   -1.6930 H   0  0  0  0  0  0  0  0  0  0  0  0
    1.5733    6.5975   -1.5587 H   0  0  0  0  0  0  0  0  0  0  0  0
    0.7476    5.1034   -1.0676 H   0  0  0  0  0  0  0  0  0  0  0  0
   -3.3831    0.3112   -1.1435 C   0  0  0  0  0  0  0  0  0  0  0  0
   -3.0703   -0.5108   -1.9944 O   0  0  0  0  0  0  0  0  0  0  0  0
   -3.5340   -0.1060    0.3059 C   0  0  0  0  0  0  0  0  0  0  0  0
   -4.5651    0.0500    0.6325 H   0  0  0  0  0  0  0  0  0  0  0  0
   -3.2820   -1.1635    0.4235 H   0  0  0  0  0  0  0  0  0  0  0  0
   -2.8656    0.4879    0.9342 H   0  0  0  0  0  0  0  0  0  0  0  0
   -3.5331    1.6368   -1.4960 N   0  0  0  0  0  0  0  0  0  0  0  0
   -3.2044    2.1568   -2.8312 C   0  0  2  0  0  0  0  0  0  0  0  0
   -1.6737    2.2312   -3.0344 C   0  0  0  0  0  0  0  0  0  0  0  0
   -1.0908    3.3096   -3.0141 O   0  0  0  0  0  0  0  0  0  0  0  0
   -3.8955    3.5173   -2.9846 C   0  0  0  0  0  0  0  0  0  0  0  0
   -3.5740    2.3021   -0.7279 H   0  0  0  0  0  0  0  0  0  0  0  0
   -3.6086    1.4892   -3.5998 H   0  0  0  0  0  0  0  0  0  0  0  0
   -3.5321    4.2234   -2.2307 H   0  0  0  0  0  0  0  0  0  0  0  0
   -3.6925    3.9350   -3.9760 H   0  0  0  0  0  0  0  0  0  0  0  0
   -4.9783    3.4097   -2.8695 H   0  0  0  0  0  0  0  0  0  0  0  0
   -0.9807    1.0422   -3.1955 N   0  0  0  0  0  0  0  0  0  0  0  0
    0.3796    0.7753   -2.6793 C   0  0  2  0  0  0  0  0  0  0  0  0
    0.4970    0.8885   -1.1393 C   0  0  0  0  0  0  0  0  0  0  0  0
   -0.1118    1.7285   -0.4850 O   0  0  0  0  0  0  0  0  0  0  0  0
    1.4665    1.6416   -3.3323 C   0  0  0  0  0  0  0  0  0  0  0  0
    1.6201    1.2442   -5.1187 S   0  0  0  0  0  0  0  0  0  0  0  0
   -1.6153    0.2407   -3.1283 H   0  0  0  0  0  0  0  0  0  0  0  0
    0.6104   -0.2633   -2.9342 H   0  0  0  0  0  0  0  0  0  0  0  0
    1.2512    2.7012   -3.1960 H   0  0  0  0  0  0  0  0  0  0  0  0
    2.4323    1.4521   -2.8530 H   0  0  0  0  0  0  0  0  0  0  0  0
    1.1905   -0.0894   -0.4514 N   0  0  0  0  0  0  0  0  0  0  0  0
    1.4938   -0.0440    0.9844 C   0  0  2  0  0  0  0  0  0  0  0  0
    2.8771   -0.6620    1.2790 C   0  0  0  0  0  0  0  0  0  0  0  0
    3.4676   -1.2833    0.4021 O   0  0  0  0  0  0  0  0  0  0  0  0
    0.3918   -0.7978    1.7338 C   0  0  0  0  0  0  0  0  0  0  0  0
    1.7637   -0.7273   -1.0050 H   0  0  0  0  0  0  0  0  0  0  0  0
    1.5213    0.9958    1.3276 H   0  0  0  0  0  0  0  0  0  0  0  0
    0.3602   -1.8451    1.4162 H   0  0  0  0  0  0  0  0  0  0  0  0
    0.5680   -0.7660    2.8132 H   0  0  0  0  0  0  0  0  0  0  0  0
   -0.5821   -0.3430    1.5302 H   0  0  0  0  0  0  0  0  0  0  0  0
    3.4711   -0.5051    2.5175 N   0  0  0  0  0  0  0  0  0  0  0  0
    4.7982   -1.0186    2.8368 C   0  0  0  0  0  0  0  0  0  0  0  0
    2.9778    0.0487    3.2117 H   0  0  0  0  0  0  0  0  0  0  0  0
    4.8364   -2.1035    2.6915 H   0  0  0  0  0  0  0  0  0  0  0  0
    5.5537   -0.5508    2.1964 H   0  0  0  0  0  0  0  0  0  0  0  0
    5.0467   -0.8022    3.8803 H   0  0  0  0  0  0  0  0  0  0  0  0
  1  2  2  0  0  0  0
  1  3  1  0  0  0  0
  1  7  1  0  0  0  0
  3  4  1  0  0  0  0
  3  5  1  0  0  0  0
  3  6  1  0  0  0  0
  7  8  1  0  0  0  0
  7 13  1  0  0  0  0
  8  9  1  0  0  0  0
  8 11  1  0  0  0  0
  8 14  1  0  0  0  0
  9 10  2  0  0  0  0
  9 17  1  0  0  0  0
 11 12  1  0  0  0  0
 11 15  1  0  0  0  0
 11 16  1  0  0  0  0
 12 44  1  0  0  0  0
 17 18  1  0  0  0  0
 17 19  1  0  0  0  0
 18 20  1  0  0  0  0
 18 21  1  0  0  0  0
 18 22  1  0  0  0  0
 23 24  2  0  0  0  0
 23 25  1  0  0  0  0
 23 29  1  0  0  0  0
 25 26  1  0  0  0  0
 25 27  1  0  0  0  0
 25 28  1  0  0  0  0
 29 30  1  0  0  0  0
 29 34  1  0  0  0  0
 30 31  1  0  0  0  0
 30 33  1  0  0  0  0
 30 35  1  0  0  0  0
 31 32  2  0  0  0  0
 31 39  1  0  0  0  0
 33 36  1  0  0  0  0
 33 37  1  0  0  0  0
 33 38  1  0  0  0  0
 39 40  1  0  0  0  0
 39 45  1  0  0  0  0
 40 41  1  0  0  0  0
 40 43  1  0  0  0  0
 40 46  1  0  0  0  0
 41 42  2  0  0  0  0
 41 49  1  0  0  0  0
 43 44  1  0  0  0  0
 43 47  1  0  0  0  0
 43 48  1  0  0  0  0
 49 50  1  0  0  0  0
 49 54  1  0  0  0  0
 50 51  1  0  0  0  0
 50 53  1  0  0  0  0
 50 55  1  0  0  0  0
 51 52  2  0  0  0  0
 51 59  1  0  0  0  0
 53 56  1  0  0  0  0
 53 57  1  0  0  0  0
 53 58  1  0  0  0  0
 59 60  1  0  0  0  0
 59 61  1  0  0  0  0
 60 62  1  0  0  0  0
 60 63  1  0  0  0  0
 60 64  1  0  0  0  0
M  END
$$$$

  -OEChem-05262216053D

 64 63  0     1  0  0  0  0  0999 V2000
    0.6751    6.4495   -7.5721 C   0  0  0  0  0  0  0  0  0  0  0  0
   -0.4605    6.0644   -7.8041 O   0  0  0  0  0  0  0  0  0  0  0  0
    1.4232    7.2825   -8.5953 C   0  0  0  0  0  0  0  0  0  0  0  0
    2.2506    6.7026   -9.0118 H   0  0  0  0  0  0  0  0  0  0  0  0
    0.7514    7.5752   -9.4069 H   0  0  0  0  0  0  0  0  0  0  0  0
    1.8204    8.1855   -8.1254 H   0  0  0  0  0  0  0  0  0  0  0  0
    1.2799    6.1237   -6.3786 N   0  0  0  0  0  0  0  0  0  0  0  0
    0.6201    5.4077   -5.2775 C   0  0  2  0  0  0  0  0  0  0  0  0
    1.2372    5.7719   -3.9064 C   0  0  0  0  0  0  0  0  0  0  0  0
    2.1348    6.6078   -3.8455 O   0  0  0  0  0  0  0  0  0  0  0  0
    0.6874    3.8991   -5.5516 C   0  0  0  0  0  0  0  0  0  0  0  0
    2.4135    3.2635   -5.4904 S   0  0  0  0  0  0  0  0  0  0  0  0
    2.1843    6.5466   -6.1732 H   0  0  0  0  0  0  0  0  0  0  0  0
   -0.4325    5.7071   -5.2341 H   0  0  0  0  0  0  0  0  0  0  0  0
    0.0832    3.3743   -4.8106 H   0  0  0  0  0  0  0  0  0  0  0  0
    0.2563    3.6805   -6.5336 H   0  0  0  0  0  0  0  0  0  0  0  0
    0.7649    5.2162   -2.7308 N   0  0  0  0  0  0  0  0  0  0  0  0
    1.3412    5.4958   -1.4232 C   0  0  0  0  0  0  0  0  0  0  0  0
    0.0799    4.4579   -2.7985 H   0  0  0  0  0  0  0  0  0  0  0  0
    2.3978    5.2105   -1.3999 H   0  0  0  0  0  0  0  0  0  0  0  0
    1.2566    6.5612   -1.1866 H   0  0  0  0  0  0  0  0  0  0  0  0
    0.8116    4.9272   -0.6527 H   0  0  0  0  0  0  0  0  0  0  0  0
   -4.5401    1.8646   -1.3573 C   0  0  0  0  0  0  0  0  0  0  0  0
   -4.8402    0.6851   -1.4539 O   0  0  0  0  0  0  0  0  0  0  0  0
   -5.1185    2.7049   -0.2349 C   0  0  0  0  0  0  0  0  0  0  0  0
   -5.6514    3.5646   -0.6482 H   0  0  0  0  0  0  0  0  0  0  0  0
   -5.8162    2.1094    0.3609 H   0  0  0  0  0  0  0  0  0  0  0  0
   -4.3150    3.0606    0.4147 H   0  0  0  0  0  0  0  0  0  0  0  0
   -3.6656    2.4386   -2.2568 N   0  0  0  0  0  0  0  0  0  0  0  0
   -2.8431    1.6653   -3.1976 C   0  0  2  0  0  0  0  0  0  0  0  0
   -1.3472    1.7730   -2.8434 C   0  0  0  0  0  0  0  0  0  0  0  0
   -0.9029    2.8627   -2.4945 O   0  0  0  0  0  0  0  0  0  0  0  0
   -3.1022    2.2041   -4.6069 C   0  0  0  0  0  0  0  0  0  0  0  0
   -3.3167    3.3615   -2.0059 H   0  0  0  0  0  0  0  0  0  0  0  0
   -3.1184    0.6060   -3.1755 H   0  0  0  0  0  0  0  0  0  0  0  0
   -2.8333    3.2635   -4.6714 H   0  0  0  0  0  0  0  0  0  0  0  0
   -2.5109    1.6502   -5.3425 H   0  0  0  0  0  0  0  0  0  0  0  0
   -4.1609    2.0969   -4.8633 H   0  0  0  0  0  0  0  0  0  0  0  0
   -0.5109    0.6853   -3.0455 N   0  0  0  0  0  0  0  0  0  0  0  0
    0.8660    0.5239   -2.5211 C   0  0  2  0  0  0  0  0  0  0  0  0
    0.9839    0.5497   -0.9756 C   0  0  0  0  0  0  0  0  0  0  0  0
    0.1336    1.0618   -0.2588 O   0  0  0  0  0  0  0  0  0  0  0  0
    1.8323    1.5594   -3.1178 C   0  0  0  0  0  0  0  0  0  0  0  0
    2.0165    1.2945   -4.9267 S   0  0  0  0  0  0  0  0  0  0  0  0
   -0.9929   -0.1678   -3.3139 H   0  0  0  0  0  0  0  0  0  0  0  0
    1.2156   -0.4637   -2.8365 H   0  0  0  0  0  0  0  0  0  0  0  0
    1.4875    2.5741   -2.9142 H   0  0  0  0  0  0  0  0  0  0  0  0
    2.8194    1.4626   -2.6546 H   0  0  0  0  0  0  0  0  0  0  0  0
    1.9951   -0.1697   -0.3643 N   0  0  0  0  0  0  0  0  0  0  0  0
    2.2577   -0.1710    1.0818 C   0  0  2  0  0  0  0  0  0  0  0  0
    3.7690   -0.2705    1.3763 C   0  0  0  0  0  0  0  0  0  0  0  0
    4.5494   -0.5604    0.4756 O   0  0  0  0  0  0  0  0  0  0  0  0
    1.5056   -1.3478    1.7109 C   0  0  0  0  0  0  0  0  0  0  0  0
    2.7519   -0.5142   -0.9558 H   0  0  0  0  0  0  0  0  0  0  0  0
    1.9012    0.7640    1.5269 H   0  0  0  0  0  0  0  0  0  0  0  0
    1.8516   -2.2949    1.2844 H   0  0  0  0  0  0  0  0  0  0  0  0
    1.6660   -1.3731    2.7930 H   0  0  0  0  0  0  0  0  0  0  0  0
    0.4309   -1.2536    1.5251 H   0  0  0  0  0  0  0  0  0  0  0  0
    4.2559   -0.0205    2.6460 N   0  0  0  0  0  0  0  0  0  0  0  0
    5.6728   -0.0758    2.9858 C   0  0  0  0  0  0  0  0  0  0  0  0
    3.5875    0.2408    3.3654 H   0  0  0  0  0  0  0  0  0  0  0  0
    6.0731   -1.0782    2.8007 H   0  0  0  0  0  0  0  0  0  0  0  0
    6.2394    0.6464    2.3884 H   0  0  0  0  0  0  0  0  0  0  0  0
    5.8175    0.1630    4.0439 H   0  0  0  0  0  0  0  0  0  0  0  0
  1  2  2  0  0  0  0
  1  3  1  0  0  0  0
  1  7  1  0  0  0  0
  3  4  1  0  0  0  0
  3  5  1  0  0  0  0
  3  6  1  0  0  0  0
  7  8  1  0  0  0  0
  7 13  1  0  0  0  0
  8  9  1  0  0  0  0
  8 11  1  0  0  0  0
  8 14  1  0  0  0  0
  9 10  2  0  0  0  0
  9 17  1  0  0  0  0
 11 12  1  0  0  0  0
 11 15  1  0  0  0  0
 11 16  1  0  0  0  0
 12 44  1  0  0  0  0
 17 18  1  0  0  0  0
 17 19  1  0  0  0  0
 18 20  1  0  0  0  0
 18 21  1  0  0  0  0
 18 22  1  0  0  0  0
 23 24  2  0  0  0  0
 23 25  1  0  0  0  0
 23 29  1  0  0  0  0
 25 26  1  0  0  0  0
 25 27  1  0  0  0  0
 25 28  1  0  0  0  0
 29 30  1  0  0  0  0
 29 34  1  0  0  0  0
 30 31  1  0  0  0  0
 30 33  1  0  0  0  0
 30 35  1  0  0  0  0
 31 32  2  0  0  0  0
 31 39  1  0  0  0  0
 33 36  1  0  0  0  0
 33 37  1  0  0  0  0
 33 38  1  0  0  0  0
 39 40  1  0  0  0  0
 39 45  1  0  0  0  0
 40 41  1  0  0  0  0
 40 43  1  0  0  0  0
 40 46  1  0  0  0  0
 41 42  2  0  0  0  0
 41 49  1  0  0  0  0
 43 44  1  0  0  0  0
 43 47  1  0  0  0  0
 43 48  1  0  0  0  0
 49 50  1  0  0  0  0
 49 54  1  0  0  0  0
 50 51  1  0  0  0  0
 50 53  1  0  0  0  0
 50 55  1  0  0  0  0
 51 52  2  0  0  0  0
 51 59  1  0  0  0  0
 53 56  1  0  0  0  0
 53 57  1  0  0  0  0
 53 58  1  0  0  0  0
 59 60  1  0  0  0  0
 59 61  1  0  0  0  0
 60 62  1  0  0  0  0
 60 63  1  0  0  0  0
 60 64  1  0  0  0  0
M  END
$$$$

  -OEChem-05262216053D

 64 63  0     1  0  0  0  0  0999 V2000
    0.6647    6.3958   -7.5837 C   0  0  0  0  0  0  0  0  0  0  0  0
   -0.4607    5.9810   -7.8139 O   0  0  0  0  0  0  0  0  0  0  0  0
    1.4045    7.2145   -8.6242 C   0  0  0  0  0  0  0  0  0  0  0  0
    2.3150    6.6923   -8.9282 H   0  0  0  0  0  0  0  0  0  0  0  0
    0.7735    7.3650   -9.5046 H   0  0  0  0  0  0  0  0  0  0  0  0
    1.6729    8.1905   -8.2122 H   0  0  0  0  0  0  0  0  0  0  0  0
    1.2646    6.1178   -6.3755 N   0  0  0  0  0  0  0  0  0  0  0  0
    0.6148    5.4066   -5.2652 C   0  0  2  0  0  0  0  0  0  0  0  0
    1.2273    5.7919   -3.8978 C   0  0  0  0  0  0  0  0  0  0  0  0
    2.1145    6.6393   -3.8459 O   0  0  0  0  0  0  0  0  0  0  0  0
    0.6996    3.8959   -5.5214 C   0  0  0  0  0  0  0  0  0  0  0  0
    2.4332    3.2812   -5.4559 S   0  0  0  0  0  0  0  0  0  0  0  0
    2.1602    6.5615   -6.1752 H   0  0  0  0  0  0  0  0  0  0  0  0
   -0.4410    5.6940   -5.2254 H   0  0  0  0  0  0  0  0  0  0  0  0
    0.1018    3.3725   -4.7740 H   0  0  0  0  0  0  0  0  0  0  0  0
    0.2706    3.6606   -6.5004 H   0  0  0  0  0  0  0  0  0  0  0  0
    0.7629    5.2420   -2.7158 N   0  0  0  0  0  0  0  0  0  0  0  0
    1.3375    5.5460   -1.4125 C   0  0  0  0  0  0  0  0  0  0  0  0
    0.0876    4.4744   -2.7736 H   0  0  0  0  0  0  0  0  0  0  0  0
    2.3981    5.2750   -1.3878 H   0  0  0  0  0  0  0  0  0  0  0  0
    1.2392    6.6136   -1.1906 H   0  0  0  0  0  0  0  0  0  0  0  0
    0.8171    4.9812   -0.6327 H   0  0  0  0  0  0  0  0  0  0  0  0
   -4.6695    1.9790   -1.4643 C   0  0  0  0  0  0  0  0  0  0  0  0
   -5.1236    0.8726   -1.7089 O   0  0  0  0  0  0  0  0  0  0  0  0
   -5.2615    2.8115   -0.3428 C   0  0  0  0  0  0  0  0  0  0  0  0
   -5.6159    3.7678   -0.7347 H   0  0  0  0  0  0  0  0  0  0  0  0
   -6.1035    2.2842    0.1143 H   0  0  0  0  0  0  0  0  0  0  0  0
   -4.5047    2.9967    0.4233 H   0  0  0  0  0  0  0  0  0  0  0  0
   -3.6137    2.4759   -2.2002 N   0  0  0  0  0  0  0  0  0  0  0  0
   -2.8135    1.6716   -3.1340 C   0  0  2  0  0  0  0  0  0  0  0  0
   -1.3102    1.7771   -2.8112 C   0  0  0  0  0  0  0  0  0  0  0  0
   -0.8610    2.8514   -2.4206 O   0  0  0  0  0  0  0  0  0  0  0  0
   -3.0964    2.1698   -4.5531 C   0  0  0  0  0  0  0  0  0  0  0  0
   -3.1808    3.3284   -1.8497 H   0  0  0  0  0  0  0  0  0  0  0  0
   -3.0919    0.6147   -3.0671 H   0  0  0  0  0  0  0  0  0  0  0  0
   -2.8234    3.2254   -4.6520 H   0  0  0  0  0  0  0  0  0  0  0  0
   -2.5227    1.5917   -5.2839 H   0  0  0  0  0  0  0  0  0  0  0  0
   -4.1608    2.0622   -4.7849 H   0  0  0  0  0  0  0  0  0  0  0  0
   -0.4767    0.6918   -3.0354 N   0  0  0  0  0  0  0  0  0  0  0  0
    0.8971    0.5299   -2.5042 C   0  0  2  0  0  0  0  0  0  0  0  0
    0.9871    0.5323   -0.9566 C   0  0  0  0  0  0  0  0  0  0  0  0
    0.0062    0.7351   -0.2507 O   0  0  0  0  0  0  0  0  0  0  0  0
    1.8654    1.5707   -3.0913 C   0  0  0  0  0  0  0  0  0  0  0  0
    2.0544    1.3078   -4.8995 S   0  0  0  0  0  0  0  0  0  0  0  0
   -0.9590   -0.1600   -3.3076 H   0  0  0  0  0  0  0  0  0  0  0  0
    1.2535   -0.4548   -2.8216 H   0  0  0  0  0  0  0  0  0  0  0  0
    1.5170    2.5844   -2.8892 H   0  0  0  0  0  0  0  0  0  0  0  0
    2.8521    1.4786   -2.6265 H   0  0  0  0  0  0  0  0  0  0  0  0
    2.1426    0.0857   -0.3414 N   0  0  0  0  0  0  0  0  0  0  0  0
    2.3717    0.1088    1.1096 C   0  0  2  0  0  0  0  0  0  0  0  0
    3.8316    0.4856    1.4366 C   0  0  0  0  0  0  0  0  0  0  0  0
    4.6747    0.4914    0.5459 O   0  0  0  0  0  0  0  0  0  0  0  0
    2.0267   -1.2731    1.6715 C   0  0  0  0  0  0  0  0  0  0  0  0
    2.9770   -0.0039   -0.9216 H   0  0  0  0  0  0  0  0  0  0  0  0
    1.7295    0.8614    1.5798 H   0  0  0  0  0  0  0  0  0  0  0  0
    2.6633   -2.0406    1.2195 H   0  0  0  0  0  0  0  0  0  0  0  0
    2.1708   -1.2952    2.7558 H   0  0  0  0  0  0  0  0  0  0  0  0
    0.9812   -1.5172    1.4576 H   0  0  0  0  0  0  0  0  0  0  0  0
    4.1967    0.8379    2.7226 N   0  0  0  0  0  0  0  0  0  0  0  0
    5.5500    1.2388    3.0886 C   0  0  0  0  0  0  0  0  0  0  0  0
    3.4722    0.8437    3.4348 H   0  0  0  0  0  0  0  0  0  0  0  0
    6.2594    0.4314    2.8787 H   0  0  0  0  0  0  0  0  0  0  0  0
    5.8523    2.1286    2.5262 H   0  0  0  0  0  0  0  0  0  0  0  0
    5.5996    1.4722    4.1565 H   0  0  0  0  0  0  0  0  0  0  0  0
  1  2  2  0  0  0  0
  1  3  1  0  0  0  0
  1  7  1  0  0  0  0
  3  4  1  0  0  0  0
  3  5  1  0  0  0  0
  3  6  1  0  0  0  0
  7  8  1  0  0  0  0
  7 13  1  0  0  0  0
  8  9  1  0  0  0  0
  8 11  1  0  0  0  0
  8 14  1  0  0  0  0
  9 10  2  0  0  0  0
  9 17  1  0  0  0  0
 11 12  1  0  0  0  0
 11 15  1  0  0  0  0
 11 16  1  0  0  0  0
 12 44  1  0  0  0  0
 17 18  1  0  0  0  0
 17 19  1  0  0  0  0
 18 20  1  0  0  0  0
 18 21  1  0  0  0  0
 18 22  1  0  0  0  0
 23 24  2  0  0  0  0
 23 25  1  0  0  0  0
 23 29  1  0  0  0  0
 25 26  1  0  0  0  0
 25 27  1  0  0  0  0
 25 28  1  0  0  0  0
 29 30  1  0  0  0  0
 29 34  1  0  0  0  0
 30 31  1  0  0  0  0
 30 33  1  0  0  0  0
 30 35  1  0  0  0  0
 31 32  2  0  0  0  0
 31 39  1  0  0  0  0
 33 36  1  0  0  0  0
 33 37  1  0  0  0  0
 33 38  1  0  0  0  0
 39 40  1  0  0  0  0
 39 45  1  0  0  0  0
 40 41  1  0  0  0  0
 40 43  1  0  0  0  0
 40 46  1  0  0  0  0
 41 42  2  0  0  0  0
 41 49  1  0  0  0  0
 43 44  1  0  0  0  0
 43 47  1  0  0  0  0
 43 48  1  0  0  0  0
 49 50  1  0  0  0  0
 49 54  1  0  0  0  0
 50 51  1  0  0  0  0
 50 53  1  0  0  0  0
 50 55  1  0  0  0  0
 51 52  2  0  0  0  0
 51 59  1  0  0  0  0
 53 56  1  0  0  0  0
 53 57  1  0  0  0  0
 53 58  1  0  0  0  0
 59 60  1  0  0  0  0
 59 61  1  0  0  0  0
 60 62  1  0  0  0  0
 60 63  1  0  0  0  0
 60 64  1  0  0  0  0
M  END
$$$$

  -OEChem-05262216053D

 64 63  0     1  0  0  0  0  0999 V2000
    0.3297    7.5608   -5.9896 C   0  0  0  0  0  0  0  0  0  0  0  0
   -0.7801    7.1698   -6.3177 O   0  0  0  0  0  0  0  0  0  0  0  0
    1.0296    8.6377   -6.7972 C   0  0  0  0  0  0  0  0  0  0  0  0
    2.0022    8.2751   -7.1391 H   0  0  0  0  0  0  0  0  0  0  0  0
    0.4272    8.9055   -7.6698 H   0  0  0  0  0  0  0  0  0  0  0  0
    1.1757    9.5290   -6.1818 H   0  0  0  0  0  0  0  0  0  0  0  0
    0.9433    7.0279   -4.8774 N   0  0  0  0  0  0  0  0  0  0  0  0
    0.3213    6.0581   -3.9645 C   0  0  2  0  0  0  0  0  0  0  0  0
    0.9589    6.1097   -2.5564 C   0  0  0  0  0  0  0  0  0  0  0  0
    1.8279    6.9422   -2.3119 O   0  0  0  0  0  0  0  0  0  0  0  0
    0.4139    4.6528   -4.5757 C   0  0  0  0  0  0  0  0  0  0  0  0
    2.1519    4.0579   -4.6805 S   0  0  0  0  0  0  0  0  0  0  0  0
    1.8227    7.4442   -4.5732 H   0  0  0  0  0  0  0  0  0  0  0  0
   -0.7361    6.3135   -3.8402 H   0  0  0  0  0  0  0  0  0  0  0  0
   -0.1685    3.9594   -3.9674 H   0  0  0  0  0  0  0  0  0  0  0  0
   -0.0274    4.6519   -5.5773 H   0  0  0  0  0  0  0  0  0  0  0  0
    0.5433    5.2617   -1.5450 N   0  0  0  0  0  0  0  0  0  0  0  0
    1.1815    5.2081   -0.2369 C   0  0  0  0  0  0  0  0  0  0  0  0
   -0.1086    4.5110   -1.7880 H   0  0  0  0  0  0  0  0  0  0  0  0
    2.2332    4.9190   -0.3346 H   0  0  0  0  0  0  0  0  0  0  0  0
    1.1265    6.1828    0.2593 H   0  0  0  0  0  0  0  0  0  0  0  0
    0.6767    4.4697    0.3937 H   0  0  0  0  0  0  0  0  0  0  0  0
   -4.9828    1.9882   -1.4278 C   0  0  0  0  0  0  0  0  0  0  0  0
   -5.4885    1.0077   -1.9501 O   0  0  0  0  0  0  0  0  0  0  0  0
   -5.6894    2.6890   -0.2835 C   0  0  0  0  0  0  0  0  0  0  0  0
   -5.8631    3.7371   -0.5383 H   0  0  0  0  0  0  0  0  0  0  0  0
   -6.6520    2.2093   -0.0855 H   0  0  0  0  0  0  0  0  0  0  0  0
   -5.0779    2.6364    0.6204 H   0  0  0  0  0  0  0  0  0  0  0  0
   -3.7624    2.4548   -1.8694 N   0  0  0  0  0  0  0  0  0  0  0  0
   -2.9077    1.7408   -2.8277 C   0  0  2  0  0  0  0  0  0  0  0  0
   -1.4206    1.8108   -2.4282 C   0  0  0  0  0  0  0  0  0  0  0  0
   -1.0098    2.7999   -1.8269 O   0  0  0  0  0  0  0  0  0  0  0  0
   -3.1175    2.3570   -4.2134 C   0  0  0  0  0  0  0  0  0  0  0  0
   -3.3282    3.2011   -1.3292 H   0  0  0  0  0  0  0  0  0  0  0  0
   -3.1865    0.6820   -2.8601 H   0  0  0  0  0  0  0  0  0  0  0  0
   -2.8488    3.4182   -4.2079 H   0  0  0  0  0  0  0  0  0  0  0  0
   -2.5005    1.8451   -4.9583 H   0  0  0  0  0  0  0  0  0  0  0  0
   -4.1666    2.2651   -4.5121 H   0  0  0  0  0  0  0  0  0  0  0  0
   -0.5767    0.7632   -2.7605 N   0  0  0  0  0  0  0  0  0  0  0  0
    0.8445    0.6092   -2.3739 C   0  0  2  0  0  0  0  0  0  0  0  0
    1.0086    0.1990   -0.8898 C   0  0  0  0  0  0  0  0  0  0  0  0
    0.0354   -0.1131   -0.2127 O   0  0  0  0  0  0  0  0  0  0  0  0
    1.7169    1.8250   -2.7432 C   0  0  0  0  0  0  0  0  0  0  0  0
    1.7915    2.0077   -4.5702 S   0  0  0  0  0  0  0  0  0  0  0  0
   -1.0430   -0.0623   -3.1264 H   0  0  0  0  0  0  0  0  0  0  0  0
    1.2411   -0.2341   -2.9474 H   0  0  0  0  0  0  0  0  0  0  0  0
    1.3448    2.7387   -2.2792 H   0  0  0  0  0  0  0  0  0  0  0  0
    2.7390    1.6853   -2.3801 H   0  0  0  0  0  0  0  0  0  0  0  0
    2.2671    0.0095   -0.3486 N   0  0  0  0  0  0  0  0  0  0  0  0
    2.5221   -0.2849    1.0678 C   0  0  2  0  0  0  0  0  0  0  0  0
    3.7331    0.5130    1.5937 C   0  0  0  0  0  0  0  0  0  0  0  0
    4.4640    1.1040    0.8058 O   0  0  0  0  0  0  0  0  0  0  0  0
    2.7584   -1.7915    1.2043 C   0  0  0  0  0  0  0  0  0  0  0  0
    3.0584    0.3826   -0.8727 H   0  0  0  0  0  0  0  0  0  0  0  0
    1.6581    0.0017    1.6769 H   0  0  0  0  0  0  0  0  0  0  0  0
    3.6404   -2.0944    0.6307 H   0  0  0  0  0  0  0  0  0  0  0  0
    2.9137   -2.0642    2.2525 H   0  0  0  0  0  0  0  0  0  0  0  0
    1.8915   -2.3450    0.8292 H   0  0  0  0  0  0  0  0  0  0  0  0
    3.9943    0.5837    2.9494 N   0  0  0  0  0  0  0  0  0  0  0  0
    5.1034    1.3462    3.5103 C   0  0  0  0  0  0  0  0  0  0  0  0
    3.3570    0.1049    3.5796 H   0  0  0  0  0  0  0  0  0  0  0  0
    6.0571    0.9872    3.1090 H   0  0  0  0  0  0  0  0  0  0  0  0
    4.9982    2.4095    3.2701 H   0  0  0  0  0  0  0  0  0  0  0  0
    5.1243    1.2379    4.5990 H   0  0  0  0  0  0  0  0  0  0  0  0
  1  2  2  0  0  0  0
  1  3  1  0  0  0  0
  1  7  1  0  0  0  0
  3  4  1  0  0  0  0
  3  5  1  0  0  0  0
  3  6  1  0  0  0  0
  7  8  1  0  0  0  0
  7 13  1  0  0  0  0
  8  9  1  0  0  0  0
  8 11  1  0  0  0  0
  8 14  1  0  0  0  0
  9 10  2  0  0  0  0
  9 17  1  0  0  0  0
 11 12  1  0  0  0  0
 11 15  1  0  0  0  0
 11 16  1  0  0  0  0
 12 44  1  0  0  0  0
 17 18  1  0  0  0  0
 17 19  1  0  0  0  0
 18 20  1  0  0  0  0
 18 21  1  0  0  0  0
 18 22  1  0  0  0  0
 23 24  2  0  0  0  0
 23 25  1  0  0  0  0
 23 29  1  0  0  0  0
 25 26  1  0  0  0  0
 25 27  1  0  0  0  0
 25 28  1  0  0  0  0
 29 30  1  0  0  0  0
 29 34  1  0  0  0  0
 30 31  1  0  0  0  0
 30 33  1  0  0  0  0
 30 35  1  0  0  0  0
 31 32  2  0  0  0  0
 31 39  1  0  0  0  0
 33 36  1  0  0  0  0
 33 37  1  0  0  0  0
 33 38  1  0  0  0  0
 39 40  1  0  0  0  0
 39 45  1  0  0  0  0
 40 41  1  0  0  0  0
 40 43  1  0  0  0  0
 40 46  1  0  0  0  0
 41 42  2  0  0  0  0
 41 49  1  0  0  0  0
 43 44  1  0  0  0  0
 43 47  1  0  0  0  0
 43 48  1  0  0  0  0
 49 50  1  0  0  0  0
 49 54  1  0  0  0  0
 50 51  1  0  0  0  0
 50 53  1  0  0  0  0
 50 55  1  0  0  0  0
 51 52  2  0  0  0  0
 51 59  1  0  0  0  0
 53 56  1  0  0  0  0
 53 57  1  0  0  0  0
 53 58  1  0  0  0  0
 59 60  1  0  0  0  0
 59 61  1  0  0  0  0
 60 62  1  0  0  0  0
 60 63  1  0  0  0  0
 60 64  1  0  0  0  0
M  END
$$$$

  -OEChem-05262216053D

 64 63  0     1  0  0  0  0  0999 V2000
    0.2569    7.6030   -5.5537 C   0  0  0  0  0  0  0  0  0  0  0  0
   -0.9076    7.3041   -5.7696 O   0  0  0  0  0  0  0  0  0  0  0  0
    0.9097    8.7336   -6.3261 C   0  0  0  0  0  0  0  0  0  0  0  0
    1.7871    8.3623   -6.8611 H   0  0  0  0  0  0  0  0  0  0  0  0
    0.2052    9.1493   -7.0518 H   0  0  0  0  0  0  0  0  0  0  0  0
    1.2184    9.5254   -5.6393 H   0  0  0  0  0  0  0  0  0  0  0  0
    0.9755    6.9155   -4.6009 N   0  0  0  0  0  0  0  0  0  0  0  0
    0.4106    5.8907   -3.7119 C   0  0  2  0  0  0  0  0  0  0  0  0
    1.1888    5.8021   -2.3780 C   0  0  0  0  0  0  0  0  0  0  0  0
    2.1298    6.5643   -2.1747 O   0  0  0  0  0  0  0  0  0  0  0  0
    0.3842    4.5454   -4.4516 C   0  0  0  0  0  0  0  0  0  0  0  0
    2.0752    3.8835   -4.7520 S   0  0  0  0  0  0  0  0  0  0  0  0
    1.9058    7.2604   -4.3664 H   0  0  0  0  0  0  0  0  0  0  0  0
   -0.6175    6.1665   -3.4555 H   0  0  0  0  0  0  0  0  0  0  0  0
   -0.1850    3.8263   -3.8615 H   0  0  0  0  0  0  0  0  0  0  0  0
   -0.1331    4.6581   -5.4096 H   0  0  0  0  0  0  0  0  0  0  0  0
    0.8226    4.9123   -1.3833 N   0  0  0  0  0  0  0  0  0  0  0  0
    1.6014    4.7182   -0.1662 C   0  0  0  0  0  0  0  0  0  0  0  0
    0.0950    4.2258   -1.5998 H   0  0  0  0  0  0  0  0  0  0  0  0
    2.6319    4.4380   -0.4091 H   0  0  0  0  0  0  0  0  0  0  0  0
    1.6167    5.6361    0.4301 H   0  0  0  0  0  0  0  0  0  0  0  0
    1.1614    3.9196    0.4390 H   0  0  0  0  0  0  0  0  0  0  0  0
   -5.0412    2.2056   -1.5443 C   0  0  0  0  0  0  0  0  0  0  0  0
   -5.6137    1.2627   -2.0670 O   0  0  0  0  0  0  0  0  0  0  0  0
   -5.7521    3.0394   -0.4958 C   0  0  0  0  0  0  0  0  0  0  0  0
   -5.8003    4.0823   -0.8179 H   0  0  0  0  0  0  0  0  0  0  0  0
   -6.7706    2.6697   -0.3484 H   0  0  0  0  0  0  0  0  0  0  0  0
   -5.2147    2.9805    0.4538 H   0  0  0  0  0  0  0  0  0  0  0  0
   -3.7424    2.5055   -1.8980 N   0  0  0  0  0  0  0  0  0  0  0  0
   -2.9199    1.6739   -2.7872 C   0  0  2  0  0  0  0  0  0  0  0  0
   -1.4341    1.6730   -2.3740 C   0  0  0  0  0  0  0  0  0  0  0  0
   -0.9840    2.6213   -1.7351 O   0  0  0  0  0  0  0  0  0  0  0  0
   -3.0703    2.2023   -4.2164 C   0  0  0  0  0  0  0  0  0  0  0  0
   -3.2649    3.2267   -1.3600 H   0  0  0  0  0  0  0  0  0  0  0  0
   -3.2686    0.6360   -2.7481 H   0  0  0  0  0  0  0  0  0  0  0  0
   -2.7390    3.2436   -4.2777 H   0  0  0  0  0  0  0  0  0  0  0  0
   -2.4723    1.6052   -4.9114 H   0  0  0  0  0  0  0  0  0  0  0  0
   -4.1178    2.1518   -4.5298 H   0  0  0  0  0  0  0  0  0  0  0  0
   -0.6280    0.6097   -2.7471 N   0  0  0  0  0  0  0  0  0  0  0  0
    0.8082    0.4248   -2.4397 C   0  0  2  0  0  0  0  0  0  0  0  0
    1.0241    0.0131   -0.9612 C   0  0  0  0  0  0  0  0  0  0  0  0
    0.1061   -0.4776   -0.3138 O   0  0  0  0  0  0  0  0  0  0  0  0
    1.6722    1.6337   -2.8507 C   0  0  0  0  0  0  0  0  0  0  0  0
    1.6499    1.8419   -4.6756 S   0  0  0  0  0  0  0  0  0  0  0  0
   -1.1159   -0.1807   -3.1594 H   0  0  0  0  0  0  0  0  0  0  0  0
    1.1638   -0.4239   -3.0311 H   0  0  0  0  0  0  0  0  0  0  0  0
    1.3383    2.5436   -2.3562 H   0  0  0  0  0  0  0  0  0  0  0  0
    2.7126    1.4800   -2.5517 H   0  0  0  0  0  0  0  0  0  0  0  0
    2.2758    0.0866   -0.3766 N   0  0  0  0  0  0  0  0  0  0  0  0
    2.4966    0.0323    1.0756 C   0  0  2  0  0  0  0  0  0  0  0  0
    3.1508    1.3380    1.5735 C   0  0  0  0  0  0  0  0  0  0  0  0
    3.6680    2.1061    0.7690 O   0  0  0  0  0  0  0  0  0  0  0  0
    3.3878   -1.1751    1.3725 C   0  0  0  0  0  0  0  0  0  0  0  0
    2.9668    0.6308   -0.8911 H   0  0  0  0  0  0  0  0  0  0  0  0
    1.5504   -0.0853    1.6143 H   0  0  0  0  0  0  0  0  0  0  0  0
    4.3509   -1.0776    0.8612 H   0  0  0  0  0  0  0  0  0  0  0  0
    3.5716   -1.2617    2.4477 H   0  0  0  0  0  0  0  0  0  0  0  0
    2.9019   -2.0940    1.0294 H   0  0  0  0  0  0  0  0  0  0  0  0
    3.1506    1.6628    2.9168 N   0  0  0  0  0  0  0  0  0  0  0  0
    3.7352    2.8918    3.4404 C   0  0  0  0  0  0  0  0  0  0  0  0
    2.6888    1.0240    3.5581 H   0  0  0  0  0  0  0  0  0  0  0  0
    4.8016    2.9427    3.1964 H   0  0  0  0  0  0  0  0  0  0  0  0
    3.2344    3.7676    3.0143 H   0  0  0  0  0  0  0  0  0  0  0  0
    3.6282    2.9281    4.5288 H   0  0  0  0  0  0  0  0  0  0  0  0
  1  2  2  0  0  0  0
  1  3  1  0  0  0  0
  1  7  1  0  0  0  0
  3  4  1  0  0  0  0
  3  5  1  0  0  0  0
  3  6  1  0  0  0  0
  7  8  1  0  0  0  0
  7 13  1  0  0  0  0
  8  9  1  0  0  0  0
  8 11  1  0  0  0  0
  8 14  1  0  0  0  0
  9 10  2  0  0  0  0
  9 17  1  0  0  0  0
 11 12  1  0  0  0  0
 11 15  1  0  0  0  0
 11 16  1  0  0  0  0
 12 44  1  0  0  0  0
 17 18  1  0  0  0  0
 17 19  1  0  0  0  0
 18 20  1  0  0  0  0
 18 21  1  0  0  0  0
 18 22  1  0  0  0  0
 23 24  2  0  0  0  0
 23 25  1  0  0  0  0
 23 29  1  0  0  0  0
 25 26  1  0  0  0  0
 25 27  1  0  0  0  0
 25 28  1  0  0  0  0
 29 30  1  0  0  0  0
 29 34  1  0  0  0  0
 30 31  1  0  0  0  0
 30 33  1  0  0  0  0
 30 35  1  0  0  0  0
 31 32  2  0  0  0  0
 31 39  1  0  0  0  0
 33 36  1  0  0  0  0
 33 37  1  0  0  0  0
 33 38  1  0  0  0  0
 39 40  1  0  0  0  0
 39 45  1  0  0  0  0
 40 41  1  0  0  0  0
 40 43  1  0  0  0  0
 40 46  1  0  0  0  0
 41 42  2  0  0  0  0
 41 49  1  0  0  0  0
 43 44  1  0  0  0  0
 43 47  1  0  0  0  0
 43 48  1  0  0  0  0
 49 50  1  0  0  0  0
 49 54  1  0  0  0  0
 50 51  1  0  0  0  0
 50 53  1  0  0  0  0
 50 55  1  0  0  0  0
 51 52  2  0  0  0  0
 51 59  1  0  0  0  0
 53 56  1  0  0  0  0
 53 57  1  0  0  0  0
 53 58  1  0  0  0  0
 59 60  1  0  0  0  0
 59 61  1  0  0  0  0
 60 62  1  0  0  0  0
 60 63  1  0  0  0  0
 60 64  1  0  0  0  0
M  END
$$$$

  -OEChem-05262216053D

 64 63  0     1  0  0  0  0  0999 V2000
    0.3947    7.6409   -5.7902 C   0  0  0  0  0  0  0  0  0  0  0  0
   -0.7487    7.3438   -6.0999 O   0  0  0  0  0  0  0  0  0  0  0  0
    1.1274    8.7421   -6.5323 C   0  0  0  0  0  0  0  0  0  0  0  0
    2.0339    8.3415   -6.9924 H   0  0  0  0  0  0  0  0  0  0  0  0
    0.4887    9.1587   -7.3160 H   0  0  0  0  0  0  0  0  0  0  0  0
    1.4012    9.5402   -5.8377 H   0  0  0  0  0  0  0  0  0  0  0  0
    1.0174    6.9854   -4.7519 N   0  0  0  0  0  0  0  0  0  0  0  0
    0.3637    6.0064   -3.8716 C   0  0  2  0  0  0  0  0  0  0  0  0
    1.0290    5.9726   -2.4754 C   0  0  0  0  0  0  0  0  0  0  0  0
    1.9329    6.7625   -2.2174 O   0  0  0  0  0  0  0  0  0  0  0  0
    0.3787    4.6280   -4.5480 C   0  0  0  0  0  0  0  0  0  0  0  0
    2.0895    3.9824   -4.7580 S   0  0  0  0  0  0  0  0  0  0  0  0
    1.9233    7.3390   -4.4456 H   0  0  0  0  0  0  0  0  0  0  0  0
   -0.6782    6.3042   -3.7136 H   0  0  0  0  0  0  0  0  0  0  0  0
   -0.2035    3.9277   -3.9466 H   0  0  0  0  0  0  0  0  0  0  0  0
   -0.1033    4.6904   -5.5286 H   0  0  0  0  0  0  0  0  0  0  0  0
    0.6000    5.1056   -1.4856 N   0  0  0  0  0  0  0  0  0  0  0  0
    1.2605    4.9918   -0.1909 C   0  0  0  0  0  0  0  0  0  0  0  0
   -0.0851    4.3887   -1.7376 H   0  0  0  0  0  0  0  0  0  0  0  0
    2.3223    4.7580   -0.3199 H   0  0  0  0  0  0  0  0  0  0  0  0
    1.1722    5.9289    0.3681 H   0  0  0  0  0  0  0  0  0  0  0  0
    0.8006    4.1919    0.3977 H   0  0  0  0  0  0  0  0  0  0  0  0
   -5.0215    1.9247   -1.4353 C   0  0  0  0  0  0  0  0  0  0  0  0
   -5.5315    0.9380   -1.9411 O   0  0  0  0  0  0  0  0  0  0  0  0
   -5.7388    2.6631   -0.3211 C   0  0  0  0  0  0  0  0  0  0  0  0
   -5.9494    3.6903   -0.6277 H   0  0  0  0  0  0  0  0  0  0  0  0
   -6.6837    2.1643   -0.0883 H   0  0  0  0  0  0  0  0  0  0  0  0
   -5.1176    2.6771    0.5776 H   0  0  0  0  0  0  0  0  0  0  0  0
   -3.7839    2.3575   -1.8639 N   0  0  0  0  0  0  0  0  0  0  0  0
   -2.9312    1.6137   -2.8018 C   0  0  2  0  0  0  0  0  0  0  0  0
   -1.4422    1.6976   -2.4114 C   0  0  0  0  0  0  0  0  0  0  0  0
   -1.0365    2.6836   -1.8015 O   0  0  0  0  0  0  0  0  0  0  0  0
   -3.1440    2.1870   -4.2053 C   0  0  0  0  0  0  0  0  0  0  0  0
   -3.3463    3.1119   -1.3380 H   0  0  0  0  0  0  0  0  0  0  0  0
   -3.2110    0.5544   -2.8002 H   0  0  0  0  0  0  0  0  0  0  0  0
   -2.8675    3.2460   -4.2334 H   0  0  0  0  0  0  0  0  0  0  0  0
   -2.5337    1.6481   -4.9367 H   0  0  0  0  0  0  0  0  0  0  0  0
   -4.1951    2.0936   -4.4970 H   0  0  0  0  0  0  0  0  0  0  0  0
   -0.5858    0.6621   -2.7462 N   0  0  0  0  0  0  0  0  0  0  0  0
    0.8490    0.5497   -2.4021 C   0  0  2  0  0  0  0  0  0  0  0  0
    1.0290    0.1783   -0.9090 C   0  0  0  0  0  0  0  0  0  0  0  0
    0.2211   -0.5696   -0.3704 O   0  0  0  0  0  0  0  0  0  0  0  0
    1.6760    1.7799   -2.8241 C   0  0  0  0  0  0  0  0  0  0  0  0
    1.6921    1.9382   -4.6529 S   0  0  0  0  0  0  0  0  0  0  0  0
   -1.0350   -0.1721   -3.1153 H   0  0  0  0  0  0  0  0  0  0  0  0
    1.2570   -0.2984   -2.9609 H   0  0  0  0  0  0  0  0  0  0  0  0
    1.2995    2.6915   -2.3619 H   0  0  0  0  0  0  0  0  0  0  0  0
    2.7142    1.6677   -2.4993 H   0  0  0  0  0  0  0  0  0  0  0  0
    2.1357    0.5853   -0.1847 N   0  0  0  0  0  0  0  0  0  0  0  0
    2.2742    0.4298    1.2702 C   0  0  2  0  0  0  0  0  0  0  0  0
    2.7495    1.7445    1.9237 C   0  0  0  0  0  0  0  0  0  0  0  0
    3.2095    2.6413    1.2254 O   0  0  0  0  0  0  0  0  0  0  0  0
    3.2737   -0.7000    1.5297 C   0  0  0  0  0  0  0  0  0  0  0  0
    2.6946    1.3316   -0.5975 H   0  0  0  0  0  0  0  0  0  0  0  0
    1.3118    0.1703    1.7241 H   0  0  0  0  0  0  0  0  0  0  0  0
    4.2515   -0.4524    1.1037 H   0  0  0  0  0  0  0  0  0  0  0  0
    3.3937   -0.8690    2.6040 H   0  0  0  0  0  0  0  0  0  0  0  0
    2.9195   -1.6293    1.0722 H   0  0  0  0  0  0  0  0  0  0  0  0
    2.6542    1.9320    3.2903 N   0  0  0  0  0  0  0  0  0  0  0  0
    3.0933    3.1489    3.9648 C   0  0  0  0  0  0  0  0  0  0  0  0
    2.2664    1.1747    3.8456 H   0  0  0  0  0  0  0  0  0  0  0  0
    4.1692    3.2992    3.8248 H   0  0  0  0  0  0  0  0  0  0  0  0
    2.5619    4.0212    3.5695 H   0  0  0  0  0  0  0  0  0  0  0  0
    2.8914    3.0805    5.0383 H   0  0  0  0  0  0  0  0  0  0  0  0
  1  2  2  0  0  0  0
  1  3  1  0  0  0  0
  1  7  1  0  0  0  0
  3  4  1  0  0  0  0
  3  5  1  0  0  0  0
  3  6  1  0  0  0  0
  7  8  1  0  0  0  0
  7 13  1  0  0  0  0
  8  9  1  0  0  0  0
  8 11  1  0  0  0  0
  8 14  1  0  0  0  0
  9 10  2  0  0  0  0
  9 17  1  0  0  0  0
 11 12  1  0  0  0  0
 11 15  1  0  0  0  0
 11 16  1  0  0  0  0
 12 44  1  0  0  0  0
 17 18  1  0  0  0  0
 17 19  1  0  0  0  0
 18 20  1  0  0  0  0
 18 21  1  0  0  0  0
 18 22  1  0  0  0  0
 23 24  2  0  0  0  0
 23 25  1  0  0  0  0
 23 29  1  0  0  0  0
 25 26  1  0  0  0  0
 25 27  1  0  0  0  0
 25 28  1  0  0  0  0
 29 30  1  0  0  0  0
 29 34  1  0  0  0  0
 30 31  1  0  0  0  0
 30 33  1  0  0  0  0
 30 35  1  0  0  0  0
 31 32  2  0  0  0  0
 31 39  1  0  0  0  0
 33 36  1  0  0  0  0
 33 37  1  0  0  0  0
 33 38  1  0  0  0  0
 39 40  1  0  0  0  0
 39 45  1  0  0  0  0
 40 41  1  0  0  0  0
 40 43  1  0  0  0  0
 40 46  1  0  0  0  0
 41 42  2  0  0  0  0
 41 49  1  0  0  0  0
 43 44  1  0  0  0  0
 43 47  1  0  0  0  0
 43 48  1  0  0  0  0
 49 50  1  0  0  0  0
 49 54  1  0  0  0  0
 50 51  1  0  0  0  0
 50 53  1  0  0  0  0
 50 55  1  0  0  0  0
 51 52  2  0  0  0  0
 51 59  1  0  0  0  0
 53 56  1  0  0  0  0
 53 57  1  0  0  0  0
 53 58  1  0  0  0  0
 59 60  1  0  0  0  0
 59 61  1  0  0  0  0
 60 62  1  0  0  0  0
 60 63  1  0  0  0  0
 60 64  1  0  0  0  0
M  END
$$$$

  -OEChem-05262216053D

 64 63  0     1  0  0  0  0  0999 V2000
    0.2243    7.5724   -5.8604 C   0  0  0  0  0  0  0  0  0  0  0  0
   -0.8928    7.1943   -6.1784 O   0  0  0  0  0  0  0  0  0  0  0  0
    0.9259    8.6504   -6.6641 C   0  0  0  0  0  0  0  0  0  0  0  0
    1.8270    8.2405   -7.1268 H   0  0  0  0  0  0  0  0  0  0  0  0
    0.2648    9.0261   -7.4498 H   0  0  0  0  0  0  0  0  0  0  0  0
    1.2055    9.4813   -6.0120 H   0  0  0  0  0  0  0  0  0  0  0  0
    0.8519    7.0160   -4.7688 N   0  0  0  0  0  0  0  0  0  0  0  0
    0.2439    6.0277   -3.8676 C   0  0  2  0  0  0  0  0  0  0  0  0
    0.8903    6.0682   -2.4633 C   0  0  0  0  0  0  0  0  0  0  0  0
    1.7502    6.9094   -2.2183 O   0  0  0  0  0  0  0  0  0  0  0  0
    0.3532    4.6342   -4.5014 C   0  0  0  0  0  0  0  0  0  0  0  0
    2.1044    4.0908   -4.6609 S   0  0  0  0  0  0  0  0  0  0  0  0
    1.7357    7.4254   -4.4681 H   0  0  0  0  0  0  0  0  0  0  0  0
   -0.8155    6.2686   -3.7340 H   0  0  0  0  0  0  0  0  0  0  0  0
   -0.1950    3.9169   -3.8883 H   0  0  0  0  0  0  0  0  0  0  0  0
   -0.1143    4.6373   -5.4913 H   0  0  0  0  0  0  0  0  0  0  0  0
    0.4930    5.2069   -1.4555 N   0  0  0  0  0  0  0  0  0  0  0  0
    1.1319    5.1694   -0.1460 C   0  0  0  0  0  0  0  0  0  0  0  0
   -0.1436    4.4437   -1.6974 H   0  0  0  0  0  0  0  0  0  0  0  0
    2.1959    4.9300   -0.2440 H   0  0  0  0  0  0  0  0  0  0  0  0
    1.0334    6.1355    0.3592 H   0  0  0  0  0  0  0  0  0  0  0  0
    0.6607    4.4048    0.4789 H   0  0  0  0  0  0  0  0  0  0  0  0
   -4.9822    2.0594   -1.5500 C   0  0  0  0  0  0  0  0  0  0  0  0
   -5.4998    1.0636   -2.0289 O   0  0  0  0  0  0  0  0  0  0  0  0
   -5.7263    2.8798   -0.5136 C   0  0  0  0  0  0  0  0  0  0  0  0
   -5.8834    3.8956   -0.8842 H   0  0  0  0  0  0  0  0  0  0  0  0
   -6.6997    2.4274   -0.3033 H   0  0  0  0  0  0  0  0  0  0  0  0
   -5.1501    2.9213    0.4139 H   0  0  0  0  0  0  0  0  0  0  0  0
   -3.7128    2.4322   -1.9388 N   0  0  0  0  0  0  0  0  0  0  0  0
   -2.8449    1.6235   -2.8064 C   0  0  2  0  0  0  0  0  0  0  0  0
   -1.3644    1.7155   -2.3846 C   0  0  0  0  0  0  0  0  0  0  0  0
   -0.9832    2.6824   -1.7300 O   0  0  0  0  0  0  0  0  0  0  0  0
   -3.0199    2.1106   -4.2473 C   0  0  0  0  0  0  0  0  0  0  0  0
   -3.2754    3.1966   -1.4274 H   0  0  0  0  0  0  0  0  0  0  0  0
   -3.1358    0.5690   -2.7449 H   0  0  0  0  0  0  0  0  0  0  0  0
   -2.7401    3.1655   -4.3324 H   0  0  0  0  0  0  0  0  0  0  0  0
   -2.3936    1.5275   -4.9298 H   0  0  0  0  0  0  0  0  0  0  0  0
   -4.0639    2.0015   -4.5589 H   0  0  0  0  0  0  0  0  0  0  0  0
   -0.4865    0.7015   -2.7279 N   0  0  0  0  0  0  0  0  0  0  0  0
    0.9408    0.6010   -2.3536 C   0  0  2  0  0  0  0  0  0  0  0  0
    1.0802    0.1926   -0.8685 C   0  0  0  0  0  0  0  0  0  0  0  0
    0.4044   -0.7357   -0.4405 O   0  0  0  0  0  0  0  0  0  0  0  0
    1.7647    1.8465   -2.7332 C   0  0  0  0  0  0  0  0  0  0  0  0
    1.8170    2.0287   -4.5602 S   0  0  0  0  0  0  0  0  0  0  0  0
   -0.9093   -0.1208   -3.1513 H   0  0  0  0  0  0  0  0  0  0  0  0
    1.3725   -0.2298   -2.9199 H   0  0  0  0  0  0  0  0  0  0  0  0
    1.3648    2.7484   -2.2692 H   0  0  0  0  0  0  0  0  0  0  0  0
    2.7947    1.7361   -2.3809 H   0  0  0  0  0  0  0  0  0  0  0  0
    1.9686    0.8167   -0.0110 N   0  0  0  0  0  0  0  0  0  0  0  0
    1.9780    0.6204    1.4453 C   0  0  2  0  0  0  0  0  0  0  0  0
    2.2736    1.9419    2.1846 C   0  0  0  0  0  0  0  0  0  0  0  0
    2.7092    2.9060    1.5649 O   0  0  0  0  0  0  0  0  0  0  0  0
    3.0292   -0.4386    1.7874 C   0  0  0  0  0  0  0  0  0  0  0  0
    2.3912    1.6840   -0.3420 H   0  0  0  0  0  0  0  0  0  0  0  0
    0.9948    0.2753    1.7830 H   0  0  0  0  0  0  0  0  0  0  0  0
    4.0223   -0.1105    1.4646 H   0  0  0  0  0  0  0  0  0  0  0  0
    3.0554   -0.6193    2.8661 H   0  0  0  0  0  0  0  0  0  0  0  0
    2.7926   -1.3821    1.2855 H   0  0  0  0  0  0  0  0  0  0  0  0
    2.0260    2.0635    3.5393 N   0  0  0  0  0  0  0  0  0  0  0  0
    2.2443    3.2977    4.2845 C   0  0  0  0  0  0  0  0  0  0  0  0
    1.6526    1.2536    4.0261 H   0  0  0  0  0  0  0  0  0  0  0  0
    3.2974    3.5938    4.2359 H   0  0  0  0  0  0  0  0  0  0  0  0
    1.6312    4.1069    3.8738 H   0  0  0  0  0  0  0  0  0  0  0  0
    1.9732    3.1586    5.3354 H   0  0  0  0  0  0  0  0  0  0  0  0
  1  2  2  0  0  0  0
  1  3  1  0  0  0  0
  1  7  1  0  0  0  0
  3  4  1  0  0  0  0
  3  5  1  0  0  0  0
  3  6  1  0  0  0  0
  7  8  1  0  0  0  0
  7 13  1  0  0  0  0
  8  9  1  0  0  0  0
  8 11  1  0  0  0  0
  8 14  1  0  0  0  0
  9 10  2  0  0  0  0
  9 17  1  0  0  0  0
 11 12  1  0  0  0  0
 11 15  1  0  0  0  0
 11 16  1  0  0  0  0
 12 44  1  0  0  0  0
 17 18  1  0  0  0  0
 17 19  1  0  0  0  0
 18 20  1  0  0  0  0
 18 21  1  0  0  0  0
 18 22  1  0  0  0  0
 23 24  2  0  0  0  0
 23 25  1  0  0  0  0
 23 29  1  0  0  0  0
 25 26  1  0  0  0  0
 25 27  1  0  0  0  0
 25 28  1  0  0  0  0
 29 30  1  0  0  0  0
 29 34  1  0  0  0  0
 30 31  1  0  0  0  0
 30 33  1  0  0  0  0
 30 35  1  0  0  0  0
 31 32  2  0  0  0  0
 31 39  1  0  0  0  0
 33 36  1  0  0  0  0
 33 37  1  0  0  0  0
 33 38  1  0  0  0  0
 39 40  1  0  0  0  0
 39 45  1  0  0  0  0
 40 41  1  0  0  0  0
 40 43  1  0  0  0  0
 40 46  1  0  0  0  0
 41 42  2  0  0  0  0
 41 49  1  0  0  0  0
 43 44  1  0  0  0  0
 43 47  1  0  0  0  0
 43 48  1  0  0  0  0
 49 50  1  0  0  0  0
 49 54  1  0  0  0  0
 50 51  1  0  0  0  0
 50 53  1  0  0  0  0
 50 55  1  0  0  0  0
 51 52  2  0  0  0  0
 51 59  1  0  0  0  0
 53 56  1  0  0  0  0
 53 57  1  0  0  0  0
 53 58  1  0  0  0  0
 59 60  1  0  0  0  0
 59 61  1  0  0  0  0
 60 62  1  0  0  0  0
 60 63  1  0  0  0  0
 60 64  1  0  0  0  0
M  END
$$$$

  -OEChem-05262216053D

 64 63  0     1  0  0  0  0  0999 V2000
    0.1841    7.4477   -6.0047 C   0  0  0  0  0  0  0  0  0  0  0  0
   -0.8832    6.9702   -6.3585 O   0  0  0  0  0  0  0  0  0  0  0  0
    0.8563    8.5194   -6.8423 C   0  0  0  0  0  0  0  0  0  0  0  0
    1.8416    8.1747   -7.1654 H   0  0  0  0  0  0  0  0  0  0  0  0
    0.2531    8.7409   -7.7271 H   0  0  0  0  0  0  0  0  0  0  0  0
    0.9709    9.4347   -6.2567 H   0  0  0  0  0  0  0  0  0  0  0  0
    0.7782    7.0106   -4.8411 N   0  0  0  0  0  0  0  0  0  0  0  0
    0.1853    6.0339   -3.9156 C   0  0  2  0  0  0  0  0  0  0  0  0
    0.7551    6.1764   -2.4850 C   0  0  0  0  0  0  0  0  0  0  0  0
    1.5341    7.0912   -2.2334 O   0  0  0  0  0  0  0  0  0  0  0  0
    0.3971    4.6178   -4.4684 C   0  0  0  0  0  0  0  0  0  0  0  0
    2.1739    4.1435   -4.5003 S   0  0  0  0  0  0  0  0  0  0  0  0
    1.6134    7.4995   -4.5202 H   0  0  0  0  0  0  0  0  0  0  0  0
   -0.8909    6.2226   -3.8430 H   0  0  0  0  0  0  0  0  0  0  0  0
   -0.1524    3.9075   -3.8498 H   0  0  0  0  0  0  0  0  0  0  0  0
   -0.0107    4.5480   -5.4816 H   0  0  0  0  0  0  0  0  0  0  0  0
    0.3647    5.3278   -1.4630 N   0  0  0  0  0  0  0  0  0  0  0  0
    0.9022    5.4057   -0.1105 C   0  0  0  0  0  0  0  0  0  0  0  0
   -0.2047    4.5128   -1.7028 H   0  0  0  0  0  0  0  0  0  0  0  0
    1.9613    5.1280   -0.1008 H   0  0  0  0  0  0  0  0  0  0  0  0
    0.7987    6.4196    0.2898 H   0  0  0  0  0  0  0  0  0  0  0  0
    0.3572    4.7225    0.5479 H   0  0  0  0  0  0  0  0  0  0  0  0
   -4.9694    2.1218   -1.6552 C   0  0  0  0  0  0  0  0  0  0  0  0
   -5.4651    1.1176   -2.1397 O   0  0  0  0  0  0  0  0  0  0  0  0
   -5.7385    2.9317   -0.6287 C   0  0  0  0  0  0  0  0  0  0  0  0
   -5.9249    3.9381   -1.0112 H   0  0  0  0  0  0  0  0  0  0  0  0
   -6.6979    2.4528   -0.4132 H   0  0  0  0  0  0  0  0  0  0  0  0
   -5.1645    3.0019    0.2985 H   0  0  0  0  0  0  0  0  0  0  0  0
   -3.7010    2.5146   -2.0273 N   0  0  0  0  0  0  0  0  0  0  0  0
   -2.8046    1.7180   -2.8769 C   0  0  2  0  0  0  0  0  0  0  0  0
   -1.3467    1.7708   -2.3771 C   0  0  0  0  0  0  0  0  0  0  0  0
   -0.9804    2.7179   -1.6865 O   0  0  0  0  0  0  0  0  0  0  0  0
   -2.8996    2.2583   -4.3061 C   0  0  0  0  0  0  0  0  0  0  0  0
   -3.2818    3.2802   -1.5027 H   0  0  0  0  0  0  0  0  0  0  0  0
   -3.1139    0.6670   -2.8683 H   0  0  0  0  0  0  0  0  0  0  0  0
   -2.6091    3.3132   -4.3397 H   0  0  0  0  0  0  0  0  0  0  0  0
   -2.2426    1.6945   -4.9757 H   0  0  0  0  0  0  0  0  0  0  0  0
   -3.9266    2.1694   -4.6744 H   0  0  0  0  0  0  0  0  0  0  0  0
   -0.4660    0.7530   -2.7007 N   0  0  0  0  0  0  0  0  0  0  0  0
    0.9433    0.6336   -2.2707 C   0  0  2  0  0  0  0  0  0  0  0  0
    1.0252    0.2026   -0.7902 C   0  0  0  0  0  0  0  0  0  0  0  0
    0.5322   -0.8683   -0.4582 O   0  0  0  0  0  0  0  0  0  0  0  0
    1.8016    1.8704   -2.6004 C   0  0  0  0  0  0  0  0  0  0  0  0
    1.9378    2.0735   -4.4212 S   0  0  0  0  0  0  0  0  0  0  0  0
   -0.8739   -0.0525   -3.1692 H   0  0  0  0  0  0  0  0  0  0  0  0
    1.3864   -0.1949   -2.8320 H   0  0  0  0  0  0  0  0  0  0  0  0
    1.3923    2.7746   -2.1472 H   0  0  0  0  0  0  0  0  0  0  0  0
    2.8113    1.7399   -2.1984 H   0  0  0  0  0  0  0  0  0  0  0  0
    1.6441    0.9813    0.1705 N   0  0  0  0  0  0  0  0  0  0  0  0
    1.6217    0.6917    1.6100 C   0  0  2  0  0  0  0  0  0  0  0  0
    1.6564    1.9880    2.4458 C   0  0  0  0  0  0  0  0  0  0  0  0
    1.9675    3.0502    1.9180 O   0  0  0  0  0  0  0  0  0  0  0  0
    2.8232   -0.1966    1.9440 C   0  0  0  0  0  0  0  0  0  0  0  0
    1.8765    1.9396   -0.0909 H   0  0  0  0  0  0  0  0  0  0  0  0
    0.6978    0.1627    1.8677 H   0  0  0  0  0  0  0  0  0  0  0  0
    3.7588    0.3175    1.7015 H   0  0  0  0  0  0  0  0  0  0  0  0
    2.8297   -0.4498    3.0083 H   0  0  0  0  0  0  0  0  0  0  0  0
    2.7772   -1.1267    1.3691 H   0  0  0  0  0  0  0  0  0  0  0  0
    1.3219    1.9707    3.7874 N   0  0  0  0  0  0  0  0  0  0  0  0
    1.3095    3.1652    4.6234 C   0  0  0  0  0  0  0  0  0  0  0  0
    1.0518    1.0805    4.1960 H   0  0  0  0  0  0  0  0  0  0  0  0
    2.3063    3.6169    4.6622 H   0  0  0  0  0  0  0  0  0  0  0  0
    0.6035    3.9021    4.2262 H   0  0  0  0  0  0  0  0  0  0  0  0
    1.0060    2.9111    5.6435 H   0  0  0  0  0  0  0  0  0  0  0  0
  1  2  2  0  0  0  0
  1  3  1  0  0  0  0
  1  7  1  0  0  0  0
  3  4  1  0  0  0  0
  3  5  1  0  0  0  0
  3  6  1  0  0  0  0
  7  8  1  0  0  0  0
  7 13  1  0  0  0  0
  8  9  1  0  0  0  0
  8 11  1  0  0  0  0
  8 14  1  0  0  0  0
  9 10  2  0  0  0  0
  9 17  1  0  0  0  0
 11 12  1  0  0  0  0
 11 15  1  0  0  0  0
 11 16  1  0  0  0  0
 12 44  1  0  0  0  0
 17 18  1  0  0  0  0
 17 19  1  0  0  0  0
 18 20  1  0  0  0  0
 18 21  1  0  0  0  0
 18 22  1  0  0  0  0
 23 24  2  0  0  0  0
 23 25  1  0  0  0  0
 23 29  1  0  0  0  0
 25 26  1  0  0  0  0
 25 27  1  0  0  0  0
 25 28  1  0  0  0  0
 29 30  1  0  0  0  0
 29 34  1  0  0  0  0
 30 31  1  0  0  0  0
 30 33  1  0  0  0  0
 30 35  1  0  0  0  0
 31 32  2  0  0  0  0
 31 39  1  0  0  0  0
 33 36  1  0  0  0  0
 33 37  1  0  0  0  0
 33 38  1  0  0  0  0
 39 40  1  0  0  0  0
 39 45  1  0  0  0  0
 40 41  1  0  0  0  0
 40 43  1  0  0  0  0
 40 46  1  0  0  0  0
 41 42  2  0  0  0  0
 41 49  1  0  0  0  0
 43 44  1  0  0  0  0
 43 47  1  0  0  0  0
 43 48  1  0  0  0  0
 49 50  1  0  0  0  0
 49 54  1  0  0  0  0
 50 51  1  0  0  0  0
 50 53  1  0  0  0  0
 50 55  1  0  0  0  0
 51 52  2  0  0  0  0
 51 59  1  0  0  0  0
 53 56  1  0  0  0  0
 53 57  1  0  0  0  0
 53 58  1  0  0  0  0
 59 60  1  0  0  0  0
 59 61  1  0  0  0  0
 60 62  1  0  0  0  0
 60 63  1  0  0  0  0
 60 64  1  0  0  0  0
M  END
$$$$

  -OEChem-05262216053D

 64 63  0     1  0  0  0  0  0999 V2000
    0.3039    7.3951   -6.0610 C   0  0  0  0  0  0  0  0  0  0  0  0
   -0.7774    6.9479   -6.4120 O   0  0  0  0  0  0  0  0  0  0  0  0
    1.0159    8.4274   -6.9136 C   0  0  0  0  0  0  0  0  0  0  0  0
    1.9519    8.0117   -7.2945 H   0  0  0  0  0  0  0  0  0  0  0  0
    0.3869    8.7154   -7.7604 H   0  0  0  0  0  0  0  0  0  0  0  0
    1.2345    9.3174   -6.3187 H   0  0  0  0  0  0  0  0  0  0  0  0
    0.8774    6.9585   -4.8874 N   0  0  0  0  0  0  0  0  0  0  0  0
    0.2451    6.0181   -3.9522 C   0  0  2  0  0  0  0  0  0  0  0  0
    0.7891    6.1766   -2.5140 C   0  0  0  0  0  0  0  0  0  0  0  0
    1.6099    7.0566   -2.2719 O   0  0  0  0  0  0  0  0  0  0  0  0
    0.4329    4.5887   -4.4739 C   0  0  0  0  0  0  0  0  0  0  0  0
    2.1995    4.0799   -4.4921 S   0  0  0  0  0  0  0  0  0  0  0  0
    1.7259    7.4246   -4.5680 H   0  0  0  0  0  0  0  0  0  0  0  0
   -0.8276    6.2320   -3.9046 H   0  0  0  0  0  0  0  0  0  0  0  0
   -0.1311    3.9025   -3.8421 H   0  0  0  0  0  0  0  0  0  0  0  0
    0.0263    4.5061   -5.4867 H   0  0  0  0  0  0  0  0  0  0  0  0
    0.3123    5.3946   -1.4757 N   0  0  0  0  0  0  0  0  0  0  0  0
    0.7716    5.5180   -0.0973 C   0  0  0  0  0  0  0  0  0  0  0  0
   -0.2810    4.5951   -1.7080 H   0  0  0  0  0  0  0  0  0  0  0  0
    1.7303    5.0063    0.0348 H   0  0  0  0  0  0  0  0  0  0  0  0
    0.8904    6.5689    0.1872 H   0  0  0  0  0  0  0  0  0  0  0  0
    0.0382    5.0698    0.5790 H   0  0  0  0  0  0  0  0  0  0  0  0
   -4.8883    1.9852   -1.4913 C   0  0  0  0  0  0  0  0  0  0  0  0
   -5.2539    0.8658   -1.8110 O   0  0  0  0  0  0  0  0  0  0  0  0
   -5.6469    2.7560   -0.4271 C   0  0  0  0  0  0  0  0  0  0  0  0
   -5.9503    3.7313   -0.8154 H   0  0  0  0  0  0  0  0  0  0  0  0
   -6.5423    2.2039   -0.1281 H   0  0  0  0  0  0  0  0  0  0  0  0
   -5.0129    2.9012    0.4510 H   0  0  0  0  0  0  0  0  0  0  0  0
   -3.7738    2.5476   -2.0796 N   0  0  0  0  0  0  0  0  0  0  0  0
   -2.8433    1.8153   -2.9522 C   0  0  2  0  0  0  0  0  0  0  0  0
   -1.4070    1.8167   -2.3906 C   0  0  0  0  0  0  0  0  0  0  0  0
   -1.0291    2.7562   -1.6958 O   0  0  0  0  0  0  0  0  0  0  0  0
   -2.8766    2.4760   -4.3320 C   0  0  0  0  0  0  0  0  0  0  0  0
   -3.4274    3.4056   -1.6558 H   0  0  0  0  0  0  0  0  0  0  0  0
   -3.1535    0.7700   -3.0569 H   0  0  0  0  0  0  0  0  0  0  0  0
   -2.5866    3.5292   -4.2625 H   0  0  0  0  0  0  0  0  0  0  0  0
   -2.1897    1.9691   -5.0170 H   0  0  0  0  0  0  0  0  0  0  0  0
   -3.8859    2.4207   -4.7521 H   0  0  0  0  0  0  0  0  0  0  0  0
   -0.5455    0.7766   -2.6940 N   0  0  0  0  0  0  0  0  0  0  0  0
    0.8551    0.6297   -2.2478 C   0  0  2  0  0  0  0  0  0  0  0  0
    0.9278    0.2120   -0.7657 C   0  0  0  0  0  0  0  0  0  0  0  0
    0.7111   -0.9569   -0.4727 O   0  0  0  0  0  0  0  0  0  0  0  0
    1.7474    1.8403   -2.5767 C   0  0  0  0  0  0  0  0  0  0  0  0
    1.9077    2.0193   -4.3979 S   0  0  0  0  0  0  0  0  0  0  0  0
   -0.9524   -0.0033   -3.2045 H   0  0  0  0  0  0  0  0  0  0  0  0
    1.2832   -0.2137   -2.7998 H   0  0  0  0  0  0  0  0  0  0  0  0
    1.3524    2.7590   -2.1398 H   0  0  0  0  0  0  0  0  0  0  0  0
    2.7465    1.6898   -2.1550 H   0  0  0  0  0  0  0  0  0  0  0  0
    1.2808    1.1043    0.2301 N   0  0  0  0  0  0  0  0  0  0  0  0
    1.3057    0.7699    1.6606 C   0  0  2  0  0  0  0  0  0  0  0  0
    0.8304    1.9440    2.5389 C   0  0  0  0  0  0  0  0  0  0  0  0
    0.8295    3.0863    2.0959 O   0  0  0  0  0  0  0  0  0  0  0  0
    2.7371    0.3730    2.0321 C   0  0  0  0  0  0  0  0  0  0  0  0
    1.2235    2.0959   -0.0056 H   0  0  0  0  0  0  0  0  0  0  0  0
    0.6337   -0.0716    1.8587 H   0  0  0  0  0  0  0  0  0  0  0  0
    3.4233    1.2071    1.8522 H   0  0  0  0  0  0  0  0  0  0  0  0
    2.7967    0.0937    3.0885 H   0  0  0  0  0  0  0  0  0  0  0  0
    3.0622   -0.4819    1.4308 H   0  0  0  0  0  0  0  0  0  0  0  0
    0.4028    1.7171    3.8338 N   0  0  0  0  0  0  0  0  0  0  0  0
   -0.0837    2.7718    4.7146 C   0  0  0  0  0  0  0  0  0  0  0  0
    0.3859    0.7557    4.1618 H   0  0  0  0  0  0  0  0  0  0  0  0
    0.6761    3.5508    4.8391 H   0  0  0  0  0  0  0  0  0  0  0  0
   -0.9912    3.2258    4.3030 H   0  0  0  0  0  0  0  0  0  0  0  0
   -0.3188    2.3607    5.7010 H   0  0  0  0  0  0  0  0  0  0  0  0
  1  2  2  0  0  0  0
  1  3  1  0  0  0  0
  1  7  1  0  0  0  0
  3  4  1  0  0  0  0
  3  5  1  0  0  0  0
  3  6  1  0  0  0  0
  7  8  1  0  0  0  0
  7 13  1  0  0  0  0
  8  9  1  0  0  0  0
  8 11  1  0  0  0  0
  8 14  1  0  0  0  0
  9 10  2  0  0  0  0
  9 17  1  0  0  0  0
 11 12  1  0  0  0  0
 11 15  1  0  0  0  0
 11 16  1  0  0  0  0
 12 44  1  0  0  0  0
 17 18  1  0  0  0  0
 17 19  1  0  0  0  0
 18 20  1  0  0  0  0
 18 21  1  0  0  0  0
 18 22  1  0  0  0  0
 23 24  2  0  0  0  0
 23 25  1  0  0  0  0
 23 29  1  0  0  0  0
 25 26  1  0  0  0  0
 25 27  1  0  0  0  0
 25 28  1  0  0  0  0
 29 30  1  0  0  0  0
 29 34  1  0  0  0  0
 30 31  1  0  0  0  0
 30 33  1  0  0  0  0
 30 35  1  0  0  0  0
 31 32  2  0  0  0  0
 31 39  1  0  0  0  0
 33 36  1  0  0  0  0
 33 37  1  0  0  0  0
 33 38  1  0  0  0  0
 39 40  1  0  0  0  0
 39 45  1  0  0  0  0
 40 41  1  0  0  0  0
 40 43  1  0  0  0  0
 40 46  1  0  0  0  0
 41 42  2  0  0  0  0
 41 49  1  0  0  0  0
 43 44  1  0  0  0  0
 43 47  1  0  0  0  0
 43 48  1  0  0  0  0
 49 50  1  0  0  0  0
 49 54  1  0  0  0  0
 50 51  1  0  0  0  0
 50 53  1  0  0  0  0
 50 55  1  0  0  0  0
 51 52  2  0  0  0  0
 51 59  1  0  0  0  0
 53 56  1  0  0  0  0
 53 57  1  0  0  0  0
 53 58  1  0  0  0  0
 59 60  1  0  0  0  0
 59 61  1  0  0  0  0
 60 62  1  0  0  0  0
 60 63  1  0  0  0  0
 60 64  1  0  0  0  0
M  END
$$$$

  -OEChem-05262216053D

 64 63  0     1  0  0  0  0  0999 V2000
    1.3483    7.2318   -6.7682 C   0  0  0  0  0  0  0  0  0  0  0  0
    0.1572    7.1706   -7.0306 O   0  0  0  0  0  0  0  0  0  0  0  0
    2.3099    7.9001   -7.7326 C   0  0  0  0  0  0  0  0  0  0  0  0
    3.0674    7.1836   -8.0600 H   0  0  0  0  0  0  0  0  0  0  0  0
    1.7708    8.2677   -8.6104 H   0  0  0  0  0  0  0  0  0  0  0  0
    2.8030    8.7434   -7.2430 H   0  0  0  0  0  0  0  0  0  0  0  0
    1.8213    6.6975   -5.5902 N   0  0  0  0  0  0  0  0  0  0  0  0
    0.9808    6.0859   -4.5512 C   0  0  2  0  0  0  0  0  0  0  0  0
    1.6500    6.1548   -3.1586 C   0  0  0  0  0  0  0  0  0  0  0  0
    2.7308    6.7224   -3.0257 O   0  0  0  0  0  0  0  0  0  0  0  0
    0.6597    4.6397   -4.9512 C   0  0  0  0  0  0  0  0  0  0  0  0
    2.1699    3.5895   -4.9934 S   0  0  0  0  0  0  0  0  0  0  0  0
    2.8024    6.8469   -5.3594 H   0  0  0  0  0  0  0  0  0  0  0  0
    0.0410    6.6430   -4.4755 H   0  0  0  0  0  0  0  0  0  0  0  0
   -0.0555    4.2189   -4.2418 H   0  0  0  0  0  0  0  0  0  0  0  0
    0.1832    4.6235   -5.9366 H   0  0  0  0  0  0  0  0  0  0  0  0
    1.0336    5.6316   -2.0355 N   0  0  0  0  0  0  0  0  0  0  0  0
    1.6295    5.6631   -0.7072 C   0  0  0  0  0  0  0  0  0  0  0  0
    0.1897    5.0683   -2.1732 H   0  0  0  0  0  0  0  0  0  0  0  0
    2.5453    5.0635   -0.6835 H   0  0  0  0  0  0  0  0  0  0  0  0
    1.8717    6.6911   -0.4176 H   0  0  0  0  0  0  0  0  0  0  0  0
    0.9263    5.2574    0.0258 H   0  0  0  0  0  0  0  0  0  0  0  0
   -3.8218    0.5081   -0.9570 C   0  0  0  0  0  0  0  0  0  0  0  0
   -3.7752   -0.0058   -2.0658 O   0  0  0  0  0  0  0  0  0  0  0  0
   -3.9306   -0.3593    0.2807 C   0  0  0  0  0  0  0  0  0  0  0  0
   -4.2824   -1.3588    0.0109 H   0  0  0  0  0  0  0  0  0  0  0  0
   -2.9511   -0.4444    0.7580 H   0  0  0  0  0  0  0  0  0  0  0  0
   -4.6361    0.0843    0.9871 H   0  0  0  0  0  0  0  0  0  0  0  0
   -3.6366    1.8693   -0.8368 N   0  0  0  0  0  0  0  0  0  0  0  0
   -3.2559    2.7258   -1.9710 C   0  0  2  0  0  0  0  0  0  0  0  0
   -1.7362    2.6200   -2.2266 C   0  0  0  0  0  0  0  0  0  0  0  0
   -0.9868    3.5489   -1.9361 O   0  0  0  0  0  0  0  0  0  0  0  0
   -3.7204    4.1496   -1.6447 C   0  0  0  0  0  0  0  0  0  0  0  0
   -3.3347    2.1759    0.0940 H   0  0  0  0  0  0  0  0  0  0  0  0
   -3.7706    2.4050   -2.8833 H   0  0  0  0  0  0  0  0  0  0  0  0
   -3.2491    4.5078   -0.7235 H   0  0  0  0  0  0  0  0  0  0  0  0
   -3.4577    4.8320   -2.4589 H   0  0  0  0  0  0  0  0  0  0  0  0
   -4.8061    4.1715   -1.5110 H   0  0  0  0  0  0  0  0  0  0  0  0
   -1.2193    1.3638   -2.4959 N   0  0  0  0  0  0  0  0  0  0  0  0
    0.1571    0.9292   -2.1991 C   0  0  2  0  0  0  0  0  0  0  0  0
    0.2501    0.6961   -0.6807 C   0  0  0  0  0  0  0  0  0  0  0  0
   -0.0301   -0.3946   -0.1983 O   0  0  0  0  0  0  0  0  0  0  0  0
    1.2981    1.7981   -2.7612 C   0  0  0  0  0  0  0  0  0  0  0  0
    1.2834    1.7446   -4.5972 S   0  0  0  0  0  0  0  0  0  0  0  0
   -1.9333    0.6307   -2.5639 H   0  0  0  0  0  0  0  0  0  0  0  0
    0.2861   -0.0562   -2.6594 H   0  0  0  0  0  0  0  0  0  0  0  0
    1.2347    2.8298   -2.4152 H   0  0  0  0  0  0  0  0  0  0  0  0
    2.2585    1.4067   -2.4116 H   0  0  0  0  0  0  0  0  0  0  0  0
    0.6139    1.7375    0.1531 N   0  0  0  0  0  0  0  0  0  0  0  0
    0.4572    1.6408    1.6109 C   0  0  2  0  0  0  0  0  0  0  0  0
   -1.0169    1.6590    2.0855 C   0  0  0  0  0  0  0  0  0  0  0  0
   -1.8946    2.2233    1.4367 O   0  0  0  0  0  0  0  0  0  0  0  0
    1.2218    2.8071    2.2395 C   0  0  0  0  0  0  0  0  0  0  0  0
    0.4905    2.6581   -0.2695 H   0  0  0  0  0  0  0  0  0  0  0  0
    0.9111    0.7045    1.9535 H   0  0  0  0  0  0  0  0  0  0  0  0
    0.7732    3.7613    1.9469 H   0  0  0  0  0  0  0  0  0  0  0  0
    1.1976    2.7342    3.3309 H   0  0  0  0  0  0  0  0  0  0  0  0
    2.2674    2.7972    1.9161 H   0  0  0  0  0  0  0  0  0  0  0  0
   -1.3556    1.0663    3.2883 N   0  0  0  0  0  0  0  0  0  0  0  0
   -2.7082    1.0502    3.8326 C   0  0  0  0  0  0  0  0  0  0  0  0
   -0.6266    0.5537    3.7768 H   0  0  0  0  0  0  0  0  0  0  0  0
   -3.0973    2.0693    3.9277 H   0  0  0  0  0  0  0  0  0  0  0  0
   -3.3765    0.4753    3.1844 H   0  0  0  0  0  0  0  0  0  0  0  0
   -2.7103    0.5893    4.8251 H   0  0  0  0  0  0  0  0  0  0  0  0
  1  2  2  0  0  0  0
  1  3  1  0  0  0  0
  1  7  1  0  0  0  0
  3  4  1  0  0  0  0
  3  5  1  0  0  0  0
  3  6  1  0  0  0  0
  7  8  1  0  0  0  0
  7 13  1  0  0  0  0
  8  9  1  0  0  0  0
  8 11  1  0  0  0  0
  8 14  1  0  0  0  0
  9 10  2  0  0  0  0
  9 17  1  0  0  0  0
 11 12  1  0  0  0  0
 11 15  1  0  0  0  0
 11 16  1  0  0  0  0
 12 44  1  0  0  0  0
 17 18  1  0  0  0  0
 17 19  1  0  0  0  0
 18 20  1  0  0  0  0
 18 21  1  0  0  0  0
 18 22  1  0  0  0  0
 23 24  2  0  0  0  0
 23 25  1  0  0  0  0
 23 29  1  0  0  0  0
 25 26  1  0  0  0  0
 25 27  1  0  0  0  0
 25 28  1  0  0  0  0
 29 30  1  0  0  0  0
 29 34  1  0  0  0  0
 30 31  1  0  0  0  0
 30 33  1  0  0  0  0
 30 35  1  0  0  0  0
 31 32  2  0  0  0  0
 31 39  1  0  0  0  0
 33 36  1  0  0  0  0
 33 37  1  0  0  0  0
 33 38  1  0  0  0  0
 39 40  1  0  0  0  0
 39 45  1  0  0  0  0
 40 41  1  0  0  0  0
 40 43  1  0  0  0  0
 40 46  1  0  0  0  0
 41 42  2  0  0  0  0
 41 49  1  0  0  0  0
 43 44  1  0  0  0  0
 43 47  1  0  0  0  0
 43 48  1  0  0  0  0
 49 50  1  0  0  0  0
 49 54  1  0  0  0  0
 50 51  1  0  0  0  0
 50 53  1  0  0  0  0
 50 55  1  0  0  0  0
 51 52  2  0  0  0  0
 51 59  1  0  0  0  0
 53 56  1  0  0  0  0
 53 57  1  0  0  0  0
 53 58  1  0  0  0  0
 59 60  1  0  0  0  0
 59 61  1  0  0  0  0
 60 62  1  0  0  0  0
 60 63  1  0  0  0  0
 60 64  1  0  0  0  0
M  END
$$$$

  -OEChem-05262216053D

 64 63  0     1  0  0  0  0  0999 V2000
    1.3733    7.2583   -6.6102 C   0  0  0  0  0  0  0  0  0  0  0  0
    0.1773    7.2369   -6.8561 O   0  0  0  0  0  0  0  0  0  0  0  0
    2.3375    7.9335   -7.5666 C   0  0  0  0  0  0  0  0  0  0  0  0
    3.0478    7.2007   -7.9573 H   0  0  0  0  0  0  0  0  0  0  0  0
    1.7899    8.3761   -8.4032 H   0  0  0  0  0  0  0  0  0  0  0  0
    2.8868    8.7227   -7.0477 H   0  0  0  0  0  0  0  0  0  0  0  0
    1.8481    6.6732   -5.4574 N   0  0  0  0  0  0  0  0  0  0  0  0
    1.0029    6.0610   -4.4228 C   0  0  2  0  0  0  0  0  0  0  0  0
    1.6815    6.0899   -3.0343 C   0  0  0  0  0  0  0  0  0  0  0  0
    2.7819    6.6182   -2.9015 O   0  0  0  0  0  0  0  0  0  0  0  0
    0.6524    4.6285   -4.8446 C   0  0  0  0  0  0  0  0  0  0  0  0
    2.1426    3.5516   -4.9156 S   0  0  0  0  0  0  0  0  0  0  0  0
    2.8356    6.7910   -5.2346 H   0  0  0  0  0  0  0  0  0  0  0  0
    0.0748    6.6349   -4.3312 H   0  0  0  0  0  0  0  0  0  0  0  0
   -0.0654    4.2099   -4.1363 H   0  0  0  0  0  0  0  0  0  0  0  0
    0.1694    4.6379   -5.8268 H   0  0  0  0  0  0  0  0  0  0  0  0
    1.0575    5.5639   -1.9167 N   0  0  0  0  0  0  0  0  0  0  0  0
    1.6821    5.5249   -0.6018 C   0  0  0  0  0  0  0  0  0  0  0  0
    0.1946    5.0319   -2.0581 H   0  0  0  0  0  0  0  0  0  0  0  0
    2.5635    4.8751   -0.6155 H   0  0  0  0  0  0  0  0  0  0  0  0
    1.9882    6.5295   -0.2909 H   0  0  0  0  0  0  0  0  0  0  0  0
    0.9741    5.1386    0.1365 H   0  0  0  0  0  0  0  0  0  0  0  0
   -4.0300    0.4916   -1.2645 C   0  0  0  0  0  0  0  0  0  0  0  0
   -3.8702    0.0487   -2.3932 O   0  0  0  0  0  0  0  0  0  0  0  0
   -4.2522   -0.4588   -0.1050 C   0  0  0  0  0  0  0  0  0  0  0  0
   -4.6179   -1.4212   -0.4727 H   0  0  0  0  0  0  0  0  0  0  0  0
   -3.3100   -0.6168    0.4258 H   0  0  0  0  0  0  0  0  0  0  0  0
   -4.9883   -0.0427    0.5869 H   0  0  0  0  0  0  0  0  0  0  0  0
   -3.8378    1.8384   -1.0362 N   0  0  0  0  0  0  0  0  0  0  0  0
   -3.3261    2.7590   -2.0654 C   0  0  2  0  0  0  0  0  0  0  0  0
   -1.7899    2.6287   -2.1878 C   0  0  0  0  0  0  0  0  0  0  0  0
   -1.0479    3.5394   -1.8255 O   0  0  0  0  0  0  0  0  0  0  0  0
   -3.7861    4.1714   -1.6837 C   0  0  0  0  0  0  0  0  0  0  0  0
   -3.6332    2.0773   -0.0599 H   0  0  0  0  0  0  0  0  0  0  0  0
   -3.7600    2.5175   -3.0421 H   0  0  0  0  0  0  0  0  0  0  0  0
   -3.3869    4.4555   -0.7042 H   0  0  0  0  0  0  0  0  0  0  0  0
   -3.4400    4.8982   -2.4255 H   0  0  0  0  0  0  0  0  0  0  0  0
   -4.8791    4.2152   -1.6402 H   0  0  0  0  0  0  0  0  0  0  0  0
   -1.2692    1.3681   -2.4273 N   0  0  0  0  0  0  0  0  0  0  0  0
    0.1021    0.9137   -2.1296 C   0  0  2  0  0  0  0  0  0  0  0  0
    0.2151    0.6989   -0.6106 C   0  0  0  0  0  0  0  0  0  0  0  0
    0.1705   -0.4249   -0.1262 O   0  0  0  0  0  0  0  0  0  0  0  0
    1.2434    1.7752   -2.6956 C   0  0  0  0  0  0  0  0  0  0  0  0
    1.2201    1.7238   -4.5313 S   0  0  0  0  0  0  0  0  0  0  0  0
   -1.9787    0.6479   -2.5993 H   0  0  0  0  0  0  0  0  0  0  0  0
    0.2202   -0.0756   -2.5851 H   0  0  0  0  0  0  0  0  0  0  0  0
    1.1819    2.8063   -2.3470 H   0  0  0  0  0  0  0  0  0  0  0  0
    2.2036    1.3805   -2.3492 H   0  0  0  0  0  0  0  0  0  0  0  0
    0.3008    1.8009    0.2203 N   0  0  0  0  0  0  0  0  0  0  0  0
    0.0771    1.6921    1.6672 C   0  0  2  0  0  0  0  0  0  0  0  0
   -1.3998    1.4237    2.0415 C   0  0  0  0  0  0  0  0  0  0  0  0
   -2.3198    1.9248    1.3992 O   0  0  0  0  0  0  0  0  0  0  0  0
    0.5492    2.9961    2.3120 C   0  0  0  0  0  0  0  0  0  0  0  0
    0.0277    2.6761   -0.2333 H   0  0  0  0  0  0  0  0  0  0  0  0
    0.6847    0.8706    2.0615 H   0  0  0  0  0  0  0  0  0  0  0  0
   -0.0558    3.8382    1.9599 H   0  0  0  0  0  0  0  0  0  0  0  0
    0.4592    2.9366    3.4011 H   0  0  0  0  0  0  0  0  0  0  0  0
    1.5973    3.1877    2.0617 H   0  0  0  0  0  0  0  0  0  0  0  0
   -1.6987    0.6505    3.1483 N   0  0  0  0  0  0  0  0  0  0  0  0
   -3.0567    0.3319    3.5727 C   0  0  0  0  0  0  0  0  0  0  0  0
   -0.9237    0.1771    3.6050 H   0  0  0  0  0  0  0  0  0  0  0  0
   -3.6716    1.2374    3.6149 H   0  0  0  0  0  0  0  0  0  0  0  0
   -3.5184   -0.3778    2.8793 H   0  0  0  0  0  0  0  0  0  0  0  0
   -3.0439   -0.1176    4.5706 H   0  0  0  0  0  0  0  0  0  0  0  0
  1  2  2  0  0  0  0
  1  3  1  0  0  0  0
  1  7  1  0  0  0  0
  3  4  1  0  0  0  0
  3  5  1  0  0  0  0
  3  6  1  0  0  0  0
  7  8  1  0  0  0  0
  7 13  1  0  0  0  0
  8  9  1  0  0  0  0
  8 11  1  0  0  0  0
  8 14  1  0  0  0  0
  9 10  2  0  0  0  0
  9 17  1  0  0  0  0
 11 12  1  0  0  0  0
 11 15  1  0  0  0  0
 11 16  1  0  0  0  0
 12 44  1  0  0  0  0
 17 18  1  0  0  0  0
 17 19  1  0  0  0  0
 18 20  1  0  0  0  0
 18 21  1  0  0  0  0
 18 22  1  0  0  0  0
 23 24  2  0  0  0  0
 23 25  1  0  0  0  0
 23 29  1  0  0  0  0
 25 26  1  0  0  0  0
 25 27  1  0  0  0  0
 25 28  1  0  0  0  0
 29 30  1  0  0  0  0
 29 34  1  0  0  0  0
 30 31  1  0  0  0  0
 30 33  1  0  0  0  0
 30 35  1  0  0  0  0
 31 32  2  0  0  0  0
 31 39  1  0  0  0  0
 33 36  1  0  0  0  0
 33 37  1  0  0  0  0
 33 38  1  0  0  0  0
 39 40  1  0  0  0  0
 39 45  1  0  0  0  0
 40 41  1  0  0  0  0
 40 43  1  0  0  0  0
 40 46  1  0  0  0  0
 41 42  2  0  0  0  0
 41 49  1  0  0  0  0
 43 44  1  0  0  0  0
 43 47  1  0  0  0  0
 43 48  1  0  0  0  0
 49 50  1  0  0  0  0
 49 54  1  0  0  0  0
 50 51  1  0  0  0  0
 50 53  1  0  0  0  0
 50 55  1  0  0  0  0
 51 52  2  0  0  0  0
 51 59  1  0  0  0  0
 53 56  1  0  0  0  0
 53 57  1  0  0  0  0
 53 58  1  0  0  0  0
 59 60  1  0  0  0  0
 59 61  1  0  0  0  0
 60 62  1  0  0  0  0
 60 63  1  0  0  0  0
 60 64  1  0  0  0  0
M  END
$$$$

  -OEChem-05262216053D

 64 63  0     1  0  0  0  0  0999 V2000
    1.1756    7.4069   -6.3937 C   0  0  0  0  0  0  0  0  0  0  0  0
   -0.0296    7.3850   -6.5898 O   0  0  0  0  0  0  0  0  0  0  0  0
    2.0895    8.1592   -7.3420 C   0  0  0  0  0  0  0  0  0  0  0  0
    2.8329    7.4772   -7.7626 H   0  0  0  0  0  0  0  0  0  0  0  0
    1.5079    8.5946   -8.1596 H   0  0  0  0  0  0  0  0  0  0  0  0
    2.6026    8.9626   -6.8077 H   0  0  0  0  0  0  0  0  0  0  0  0
    1.7059    6.7506   -5.3052 N   0  0  0  0  0  0  0  0  0  0  0  0
    0.9093    6.0721   -4.2730 C   0  0  2  0  0  0  0  0  0  0  0  0
    1.6470    6.0249   -2.9153 C   0  0  0  0  0  0  0  0  0  0  0  0
    2.7465    6.5583   -2.7969 O   0  0  0  0  0  0  0  0  0  0  0  0
    0.5393    4.6655   -4.7641 C   0  0  0  0  0  0  0  0  0  0  0  0
    2.0193    3.5861   -4.9370 S   0  0  0  0  0  0  0  0  0  0  0  0
    2.6981    6.8784   -5.1104 H   0  0  0  0  0  0  0  0  0  0  0  0
   -0.0142    6.6363   -4.1061 H   0  0  0  0  0  0  0  0  0  0  0  0
   -0.1595    4.2112   -4.0595 H   0  0  0  0  0  0  0  0  0  0  0  0
    0.0267    4.7319   -5.7294 H   0  0  0  0  0  0  0  0  0  0  0  0
    1.0723    5.4320   -1.8049 N   0  0  0  0  0  0  0  0  0  0  0  0
    1.7486    5.3183   -0.5199 C   0  0  0  0  0  0  0  0  0  0  0  0
    0.2021    4.9105   -1.9399 H   0  0  0  0  0  0  0  0  0  0  0  0
    2.6625    4.7235   -0.6189 H   0  0  0  0  0  0  0  0  0  0  0  0
    2.0110    6.3092   -0.1346 H   0  0  0  0  0  0  0  0  0  0  0  0
    1.0923    4.8292    0.2059 H   0  0  0  0  0  0  0  0  0  0  0  0
   -4.1820    0.4835   -1.4729 C   0  0  0  0  0  0  0  0  0  0  0  0
   -3.9387    0.0686   -2.5969 O   0  0  0  0  0  0  0  0  0  0  0  0
   -4.5702   -0.4875   -0.3760 C   0  0  0  0  0  0  0  0  0  0  0  0
   -5.1496    0.0269    0.3947 H   0  0  0  0  0  0  0  0  0  0  0  0
   -5.1754   -1.2987   -0.7894 H   0  0  0  0  0  0  0  0  0  0  0  0
   -3.6690   -0.9075    0.0772 H   0  0  0  0  0  0  0  0  0  0  0  0
   -3.9512    1.8110   -1.1796 N   0  0  0  0  0  0  0  0  0  0  0  0
   -3.3444    2.7508   -2.1365 C   0  0  2  0  0  0  0  0  0  0  0  0
   -1.8089    2.5783   -2.1703 C   0  0  0  0  0  0  0  0  0  0  0  0
   -1.0658    3.4619   -1.7506 O   0  0  0  0  0  0  0  0  0  0  0  0
   -3.7846    4.1640   -1.7333 C   0  0  0  0  0  0  0  0  0  0  0  0
   -3.8054    2.0009   -0.1828 H   0  0  0  0  0  0  0  0  0  0  0  0
   -3.7207    2.5580   -3.1473 H   0  0  0  0  0  0  0  0  0  0  0  0
   -3.4427    4.4011   -0.7203 H   0  0  0  0  0  0  0  0  0  0  0  0
   -3.3683    4.9043   -2.4236 H   0  0  0  0  0  0  0  0  0  0  0  0
   -4.8757    4.2436   -1.7597 H   0  0  0  0  0  0  0  0  0  0  0  0
   -1.3001    1.3181   -2.4333 N   0  0  0  0  0  0  0  0  0  0  0  0
    0.0727    0.8278   -2.1893 C   0  0  2  0  0  0  0  0  0  0  0  0
    0.2605    0.5805   -0.6809 C   0  0  0  0  0  0  0  0  0  0  0  0
    0.4336   -0.5506   -0.2462 O   0  0  0  0  0  0  0  0  0  0  0  0
    1.1965    1.7082   -2.7612 C   0  0  0  0  0  0  0  0  0  0  0  0
    1.1164    1.7367   -4.5965 S   0  0  0  0  0  0  0  0  0  0  0  0
   -2.0129    0.6221   -2.6771 H   0  0  0  0  0  0  0  0  0  0  0  0
    0.1651   -0.1485   -2.6771 H   0  0  0  0  0  0  0  0  0  0  0  0
    1.1488    2.7233   -2.3667 H   0  0  0  0  0  0  0  0  0  0  0  0
    2.1670    1.2985   -2.4634 H   0  0  0  0  0  0  0  0  0  0  0  0
    0.1044    1.6335    0.2020 N   0  0  0  0  0  0  0  0  0  0  0  0
   -0.1501    1.4331    1.6325 C   0  0  2  0  0  0  0  0  0  0  0  0
   -1.6201    1.0616    1.9351 C   0  0  0  0  0  0  0  0  0  0  0  0
   -2.5456    1.5805    1.3149 O   0  0  0  0  0  0  0  0  0  0  0  0
    0.2271    2.7281    2.3537 C   0  0  0  0  0  0  0  0  0  0  0  0
   -0.2643    2.4865   -0.2270 H   0  0  0  0  0  0  0  0  0  0  0  0
    0.4919    0.6293    2.0083 H   0  0  0  0  0  0  0  0  0  0  0  0
   -0.3901    3.5591    1.9968 H   0  0  0  0  0  0  0  0  0  0  0  0
    0.0765    2.6222    3.4325 H   0  0  0  0  0  0  0  0  0  0  0  0
    1.2791    2.9705    2.1730 H   0  0  0  0  0  0  0  0  0  0  0  0
   -1.9099    0.1749    2.9555 N   0  0  0  0  0  0  0  0  0  0  0  0
   -3.2615   -0.2405    3.3113 C   0  0  0  0  0  0  0  0  0  0  0  0
   -1.1243   -0.3013    3.3912 H   0  0  0  0  0  0  0  0  0  0  0  0
   -3.9162    0.6297    3.4276 H   0  0  0  0  0  0  0  0  0  0  0  0
   -3.6776   -0.8959    2.5401 H   0  0  0  0  0  0  0  0  0  0  0  0
   -3.2495   -0.7862    4.2597 H   0  0  0  0  0  0  0  0  0  0  0  0
  1  2  2  0  0  0  0
  1  3  1  0  0  0  0
  1  7  1  0  0  0  0
  3  4  1  0  0  0  0
  3  5  1  0  0  0  0
  3  6  1  0  0  0  0
  7  8  1  0  0  0  0
  7 13  1  0  0  0  0
  8  9  1  0  0  0  0
  8 11  1  0  0  0  0
  8 14  1  0  0  0  0
  9 10  2  0  0  0  0
  9 17  1  0  0  0  0
 11 12  1  0  0  0  0
 11 15  1  0  0  0  0
 11 16  1  0  0  0  0
 12 44  1  0  0  0  0
 17 18  1  0  0  0  0
 17 19  1  0  0  0  0
 18 20  1  0  0  0  0
 18 21  1  0  0  0  0
 18 22  1  0  0  0  0
 23 24  2  0  0  0  0
 23 25  1  0  0  0  0
 23 29  1  0  0  0  0
 25 26  1  0  0  0  0
 25 27  1  0  0  0  0
 25 28  1  0  0  0  0
 29 30  1  0  0  0  0
 29 34  1  0  0  0  0
 30 31  1  0  0  0  0
 30 33  1  0  0  0  0
 30 35  1  0  0  0  0
 31 32  2  0  0  0  0
 31 39  1  0  0  0  0
 33 36  1  0  0  0  0
 33 37  1  0  0  0  0
 33 38  1  0  0  0  0
 39 40  1  0  0  0  0
 39 45  1  0  0  0  0
 40 41  1  0  0  0  0
 40 43  1  0  0  0  0
 40 46  1  0  0  0  0
 41 42  2  0  0  0  0
 41 49  1  0  0  0  0
 43 44  1  0  0  0  0
 43 47  1  0  0  0  0
 43 48  1  0  0  0  0
 49 50  1  0  0  0  0
 49 54  1  0  0  0  0
 50 51  1  0  0  0  0
 50 53  1  0  0  0  0
 50 55  1  0  0  0  0
 51 52  2  0  0  0  0
 51 59  1  0  0  0  0
 53 56  1  0  0  0  0
 53 57  1  0  0  0  0
 53 58  1  0  0  0  0
 59 60  1  0  0  0  0
 59 61  1  0  0  0  0
 60 62  1  0  0  0  0
 60 63  1  0  0  0  0
 60 64  1  0  0  0  0
M  END
$$$$

  -OEChem-05262216053D

 64 63  0     1  0  0  0  0  0999 V2000
    1.1414    7.4757   -6.2446 C   0  0  0  0  0  0  0  0  0  0  0  0
   -0.0594    7.4527   -6.4663 O   0  0  0  0  0  0  0  0  0  0  0  0
    2.0754    8.2232   -7.1774 C   0  0  0  0  0  0  0  0  0  0  0  0
    2.8529    7.5493   -7.5452 H   0  0  0  0  0  0  0  0  0  0  0  0
    1.5186    8.6168   -8.0323 H   0  0  0  0  0  0  0  0  0  0  0  0
    2.5446    9.0554   -6.6472 H   0  0  0  0  0  0  0  0  0  0  0  0
    1.6489    6.8233   -5.1428 N   0  0  0  0  0  0  0  0  0  0  0  0
    0.8394    6.1071   -4.1468 C   0  0  2  0  0  0  0  0  0  0  0  0
    1.5675    5.9956   -2.7868 C   0  0  0  0  0  0  0  0  0  0  0  0
    2.6708    6.5136   -2.6390 O   0  0  0  0  0  0  0  0  0  0  0  0
    0.4655    4.7244   -4.7006 C   0  0  0  0  0  0  0  0  0  0  0  0
    1.9447    3.6562   -4.9397 S   0  0  0  0  0  0  0  0  0  0  0  0
    2.6405    6.9356   -4.9361 H   0  0  0  0  0  0  0  0  0  0  0  0
   -0.0823    6.6695   -3.9640 H   0  0  0  0  0  0  0  0  0  0  0  0
   -0.2258    4.2361   -4.0118 H   0  0  0  0  0  0  0  0  0  0  0  0
   -0.0564    4.8342   -5.6566 H   0  0  0  0  0  0  0  0  0  0  0  0
    0.9831    5.3562   -1.7076 N   0  0  0  0  0  0  0  0  0  0  0  0
    1.6585    5.1640   -0.4315 C   0  0  0  0  0  0  0  0  0  0  0  0
    0.1146    4.8411   -1.8727 H   0  0  0  0  0  0  0  0  0  0  0  0
    2.5740    4.5784   -0.5666 H   0  0  0  0  0  0  0  0  0  0  0  0
    1.9177    6.1297    0.0153 H   0  0  0  0  0  0  0  0  0  0  0  0
    1.0032    4.6281    0.2619 H   0  0  0  0  0  0  0  0  0  0  0  0
   -4.2292    0.3303   -1.7082 C   0  0  0  0  0  0  0  0  0  0  0  0
   -3.9199   -0.0328   -2.8338 O   0  0  0  0  0  0  0  0  0  0  0  0
   -4.6685   -0.6917   -0.6796 C   0  0  0  0  0  0  0  0  0  0  0  0
   -5.3216   -0.2236    0.0608 H   0  0  0  0  0  0  0  0  0  0  0  0
   -5.2140   -1.5041   -1.1669 H   0  0  0  0  0  0  0  0  0  0  0  0
   -3.7919   -1.1023   -0.1731 H   0  0  0  0  0  0  0  0  0  0  0  0
   -4.0321    1.6464   -1.3471 N   0  0  0  0  0  0  0  0  0  0  0  0
   -3.4089    2.6390   -2.2387 C   0  0  2  0  0  0  0  0  0  0  0  0
   -1.8691    2.5034   -2.2221 C   0  0  0  0  0  0  0  0  0  0  0  0
   -1.1621    3.3908   -1.7533 O   0  0  0  0  0  0  0  0  0  0  0  0
   -3.8978    4.0242   -1.7991 C   0  0  0  0  0  0  0  0  0  0  0  0
   -3.9514    1.8006   -0.3374 H   0  0  0  0  0  0  0  0  0  0  0  0
   -3.7422    2.4802   -3.2702 H   0  0  0  0  0  0  0  0  0  0  0  0
   -3.5944    4.2315   -0.7677 H   0  0  0  0  0  0  0  0  0  0  0  0
   -3.4778    4.7989   -2.4483 H   0  0  0  0  0  0  0  0  0  0  0  0
   -4.9890    4.0783   -1.8590 H   0  0  0  0  0  0  0  0  0  0  0  0
   -1.3238    1.2605   -2.4905 N   0  0  0  0  0  0  0  0  0  0  0  0
    0.0612    0.7880   -2.2714 C   0  0  2  0  0  0  0  0  0  0  0  0
    0.3103    0.5257   -0.7734 C   0  0  0  0  0  0  0  0  0  0  0  0
    0.7588   -0.5482   -0.3959 O   0  0  0  0  0  0  0  0  0  0  0  0
    1.1488    1.7142   -2.8342 C   0  0  0  0  0  0  0  0  0  0  0  0
    1.0448    1.7950   -4.6654 S   0  0  0  0  0  0  0  0  0  0  0  0
   -2.0108    0.5653   -2.8007 H   0  0  0  0  0  0  0  0  0  0  0  0
    0.1672   -0.1759   -2.7801 H   0  0  0  0  0  0  0  0  0  0  0  0
    1.0764    2.7140   -2.4053 H   0  0  0  0  0  0  0  0  0  0  0  0
    2.1348    1.3236   -2.5626 H   0  0  0  0  0  0  0  0  0  0  0  0
   -0.1177    1.4514    0.1601 N   0  0  0  0  0  0  0  0  0  0  0  0
   -0.3572    1.1409    1.5722 C   0  0  2  0  0  0  0  0  0  0  0  0
   -1.8170    0.7120    1.8387 C   0  0  0  0  0  0  0  0  0  0  0  0
   -2.7501    1.2283    1.2261 O   0  0  0  0  0  0  0  0  0  0  0  0
   -0.0123    2.3916    2.3823 C   0  0  0  0  0  0  0  0  0  0  0  0
   -0.6011    2.2617   -0.2347 H   0  0  0  0  0  0  0  0  0  0  0  0
    0.3030    0.3286    1.8943 H   0  0  0  0  0  0  0  0  0  0  0  0
   -0.6574    3.2274    2.0917 H   0  0  0  0  0  0  0  0  0  0  0  0
   -0.1477    2.2029    3.4518 H   0  0  0  0  0  0  0  0  0  0  0  0
    1.0299    2.6785    2.2105 H   0  0  0  0  0  0  0  0  0  0  0  0
   -2.0891   -0.2351    2.8082 N   0  0  0  0  0  0  0  0  0  0  0  0
   -3.4323   -0.6946    3.1381 C   0  0  0  0  0  0  0  0  0  0  0  0
   -1.2947   -0.6935    3.2474 H   0  0  0  0  0  0  0  0  0  0  0  0
   -4.0903    0.1566    3.3424 H   0  0  0  0  0  0  0  0  0  0  0  0
   -3.8524   -1.2773    2.3125 H   0  0  0  0  0  0  0  0  0  0  0  0
   -3.4055   -1.3279    4.0300 H   0  0  0  0  0  0  0  0  0  0  0  0
  1  2  2  0  0  0  0
  1  3  1  0  0  0  0
  1  7  1  0  0  0  0
  3  4  1  0  0  0  0
  3  5  1  0  0  0  0
  3  6  1  0  0  0  0
  7  8  1  0  0  0  0
  7 13  1  0  0  0  0
  8  9  1  0  0  0  0
  8 11  1  0  0  0  0
  8 14  1  0  0  0  0
  9 10  2  0  0  0  0
  9 17  1  0  0  0  0
 11 12  1  0  0  0  0
 11 15  1  0  0  0  0
 11 16  1  0  0  0  0
 12 44  1  0  0  0  0
 17 18  1  0  0  0  0
 17 19  1  0  0  0  0
 18 20  1  0  0  0  0
 18 21  1  0  0  0  0
 18 22  1  0  0  0  0
 23 24  2  0  0  0  0
 23 25  1  0  0  0  0
 23 29  1  0  0  0  0
 25 26  1  0  0  0  0
 25 27  1  0  0  0  0
 25 28  1  0  0  0  0
 29 30  1  0  0  0  0
 29 34  1  0  0  0  0
 30 31  1  0  0  0  0
 30 33  1  0  0  0  0
 30 35  1  0  0  0  0
 31 32  2  0  0  0  0
 31 39  1  0  0  0  0
 33 36  1  0  0  0  0
 33 37  1  0  0  0  0
 33 38  1  0  0  0  0
 39 40  1  0  0  0  0
 39 45  1  0  0  0  0
 40 41  1  0  0  0  0
 40 43  1  0  0  0  0
 40 46  1  0  0  0  0
 41 42  2  0  0  0  0
 41 49  1  0  0  0  0
 43 44  1  0  0  0  0
 43 47  1  0  0  0  0
 43 48  1  0  0  0  0
 49 50  1  0  0  0  0
 49 54  1  0  0  0  0
 50 51  1  0  0  0  0
 50 53  1  0  0  0  0
 50 55  1  0  0  0  0
 51 52  2  0  0  0  0
 51 59  1  0  0  0  0
 53 56  1  0  0  0  0
 53 57  1  0  0  0  0
 53 58  1  0  0  0  0
 59 60  1  0  0  0  0
 59 61  1  0  0  0  0
 60 62  1  0  0  0  0
 60 63  1  0  0  0  0
 60 64  1  0  0  0  0
M  END
$$$$

  -OEChem-05262216053D

 64 63  0     1  0  0  0  0  0999 V2000
    1.0265    7.5862   -6.0650 C   0  0  0  0  0  0  0  0  0  0  0  0
   -0.1718    7.5446   -6.2978 O   0  0  0  0  0  0  0  0  0  0  0  0
    1.9465    8.4174   -6.9388 C   0  0  0  0  0  0  0  0  0  0  0  0
    2.7574    7.7942   -7.3242 H   0  0  0  0  0  0  0  0  0  0  0  0
    1.3898    8.8338   -7.7830 H   0  0  0  0  0  0  0  0  0  0  0  0
    2.3721    9.2381   -6.3564 H   0  0  0  0  0  0  0  0  0  0  0  0
    1.5435    6.8817   -5.0006 N   0  0  0  0  0  0  0  0  0  0  0  0
    0.7449    6.0933   -4.0515 C   0  0  2  0  0  0  0  0  0  0  0  0
    1.4665    5.9307   -2.6931 C   0  0  0  0  0  0  0  0  0  0  0  0
    2.5644    6.4518   -2.5179 O   0  0  0  0  0  0  0  0  0  0  0  0
    0.4137    4.7321   -4.6807 C   0  0  0  0  0  0  0  0  0  0  0  0
    1.9259    3.7247   -4.9770 S   0  0  0  0  0  0  0  0  0  0  0  0
    2.5309    7.0051   -4.7798 H   0  0  0  0  0  0  0  0  0  0  0  0
   -0.1930    6.6210   -3.8479 H   0  0  0  0  0  0  0  0  0  0  0  0
   -0.2624    4.1863   -4.0206 H   0  0  0  0  0  0  0  0  0  0  0  0
   -0.1116    4.8792   -5.6297 H   0  0  0  0  0  0  0  0  0  0  0  0
    0.8785    5.2489   -1.6422 N   0  0  0  0  0  0  0  0  0  0  0  0
    1.5539    4.9998   -0.3759 C   0  0  0  0  0  0  0  0  0  0  0  0
    0.0182    4.7295   -1.8350 H   0  0  0  0  0  0  0  0  0  0  0  0
    2.4702    4.4219   -0.5372 H   0  0  0  0  0  0  0  0  0  0  0  0
    1.8122    5.9449    0.1130 H   0  0  0  0  0  0  0  0  0  0  0  0
    0.8993    4.4320    0.2926 H   0  0  0  0  0  0  0  0  0  0  0  0
   -4.1391    0.0391   -2.0156 C   0  0  0  0  0  0  0  0  0  0  0  0
   -3.7451   -0.2732   -3.1301 O   0  0  0  0  0  0  0  0  0  0  0  0
   -4.6196   -1.0308   -1.0544 C   0  0  0  0  0  0  0  0  0  0  0  0
   -5.3862   -0.6237   -0.3909 H   0  0  0  0  0  0  0  0  0  0  0  0
   -5.0454   -1.8701   -1.6110 H   0  0  0  0  0  0  0  0  0  0  0  0
   -3.7821   -1.3895   -0.4510 H   0  0  0  0  0  0  0  0  0  0  0  0
   -4.0158    1.3490   -1.6019 N   0  0  0  0  0  0  0  0  0  0  0  0
   -3.3928    2.4011   -2.4238 C   0  0  2  0  0  0  0  0  0  0  0  0
   -1.8506    2.3340   -2.3364 C   0  0  0  0  0  0  0  0  0  0  0  0
   -1.2076    3.2311   -1.8010 O   0  0  0  0  0  0  0  0  0  0  0  0
   -3.9649    3.7453   -1.9578 C   0  0  0  0  0  0  0  0  0  0  0  0
   -4.0060    1.4734   -0.5853 H   0  0  0  0  0  0  0  0  0  0  0  0
   -3.6677    2.2670   -3.4761 H   0  0  0  0  0  0  0  0  0  0  0  0
   -3.7286    3.9206   -0.9033 H   0  0  0  0  0  0  0  0  0  0  0  0
   -3.5436    4.5644   -2.5494 H   0  0  0  0  0  0  0  0  0  0  0  0
   -5.0526    3.7570   -2.0777 H   0  0  0  0  0  0  0  0  0  0  0  0
   -1.2384    1.1244   -2.6095 N   0  0  0  0  0  0  0  0  0  0  0  0
    0.1658    0.7127   -2.3803 C   0  0  2  0  0  0  0  0  0  0  0  0
    0.4281    0.4398   -0.8835 C   0  0  0  0  0  0  0  0  0  0  0  0
    1.1574   -0.4812   -0.5431 O   0  0  0  0  0  0  0  0  0  0  0  0
    1.2038    1.7079   -2.9181 C   0  0  0  0  0  0  0  0  0  0  0  0
    1.1098    1.8184   -4.7488 S   0  0  0  0  0  0  0  0  0  0  0  0
   -1.8770    0.4148   -2.9843 H   0  0  0  0  0  0  0  0  0  0  0  0
    0.3256   -0.2354   -2.9044 H   0  0  0  0  0  0  0  0  0  0  0  0
    1.0736    2.6930   -2.4707 H   0  0  0  0  0  0  0  0  0  0  0  0
    2.2082    1.3672   -2.6467 H   0  0  0  0  0  0  0  0  0  0  0  0
   -0.2849    1.1338    0.0769 N   0  0  0  0  0  0  0  0  0  0  0  0
   -0.5047    0.7006    1.4607 C   0  0  2  0  0  0  0  0  0  0  0  0
   -1.9982    0.4291    1.7511 C   0  0  0  0  0  0  0  0  0  0  0  0
   -2.8803    0.8971    1.0331 O   0  0  0  0  0  0  0  0  0  0  0  0
    0.0297    1.8020    2.3786 C   0  0  0  0  0  0  0  0  0  0  0  0
   -0.9009    1.8621   -0.2891 H   0  0  0  0  0  0  0  0  0  0  0  0
    0.0451   -0.2246    1.6620 H   0  0  0  0  0  0  0  0  0  0  0  0
   -0.5210    2.7346    2.2188 H   0  0  0  0  0  0  0  0  0  0  0  0
   -0.0744    1.5115    3.4283 H   0  0  0  0  0  0  0  0  0  0  0  0
    1.0897    1.9840    2.1742 H   0  0  0  0  0  0  0  0  0  0  0  0
   -2.3623   -0.3467    2.8359 N   0  0  0  0  0  0  0  0  0  0  0  0
   -3.7451   -0.6588    3.1776 C   0  0  0  0  0  0  0  0  0  0  0  0
   -1.6160   -0.7368    3.4056 H   0  0  0  0  0  0  0  0  0  0  0  0
   -4.3235    0.2606    3.3159 H   0  0  0  0  0  0  0  0  0  0  0  0
   -4.2105   -1.2540    2.3851 H   0  0  0  0  0  0  0  0  0  0  0  0
   -3.7849   -1.2316    4.1092 H   0  0  0  0  0  0  0  0  0  0  0  0
  1  2  2  0  0  0  0
  1  3  1  0  0  0  0
  1  7  1  0  0  0  0
  3  4  1  0  0  0  0
  3  5  1  0  0  0  0
  3  6  1  0  0  0  0
  7  8  1  0  0  0  0
  7 13  1  0  0  0  0
  8  9  1  0  0  0  0
  8 11  1  0  0  0  0
  8 14  1  0  0  0  0
  9 10  2  0  0  0  0
  9 17  1  0  0  0  0
 11 12  1  0  0  0  0
 11 15  1  0  0  0  0
 11 16  1  0  0  0  0
 12 44  1  0  0  0  0
 17 18  1  0  0  0  0
 17 19  1  0  0  0  0
 18 20  1  0  0  0  0
 18 21  1  0  0  0  0
 18 22  1  0  0  0  0
 23 24  2  0  0  0  0
 23 25  1  0  0  0  0
 23 29  1  0  0  0  0
 25 26  1  0  0  0  0
 25 27  1  0  0  0  0
 25 28  1  0  0  0  0
 29 30  1  0  0  0  0
 29 34  1  0  0  0  0
 30 31  1  0  0  0  0
 30 33  1  0  0  0  0
 30 35  1  0  0  0  0
 31 32  2  0  0  0  0
 31 39  1  0  0  0  0
 33 36  1  0  0  0  0
 33 37  1  0  0  0  0
 33 38  1  0  0  0  0
 39 40  1  0  0  0  0
 39 45  1  0  0  0  0
 40 41  1  0  0  0  0
 40 43  1  0  0  0  0
 40 46  1  0  0  0  0
 41 42  2  0  0  0  0
 41 49  1  0  0  0  0
 43 44  1  0  0  0  0
 43 47  1  0  0  0  0
 43 48  1  0  0  0  0
 49 50  1  0  0  0  0
 49 54  1  0  0  0  0
 50 51  1  0  0  0  0
 50 53  1  0  0  0  0
 50 55  1  0  0  0  0
 51 52  2  0  0  0  0
 51 59  1  0  0  0  0
 53 56  1  0  0  0  0
 53 57  1  0  0  0  0
 53 58  1  0  0  0  0
 59 60  1  0  0  0  0
 59 61  1  0  0  0  0
 60 62  1  0  0  0  0
 60 63  1  0  0  0  0
 60 64  1  0  0  0  0
M  END
$$$$

  -OEChem-05262216053D

 64 63  0     1  0  0  0  0  0999 V2000
    0.7800    7.6737   -5.9554 C   0  0  0  0  0  0  0  0  0  0  0  0
   -0.4185    7.5519   -6.1574 O   0  0  0  0  0  0  0  0  0  0  0  0
    1.6033    8.6239   -6.8033 C   0  0  0  0  0  0  0  0  0  0  0  0
    2.3204    8.0594   -7.4042 H   0  0  0  0  0  0  0  0  0  0  0  0
    0.9515    9.1926   -7.4721 H   0  0  0  0  0  0  0  0  0  0  0  0
    2.1456    9.3226   -6.1619 H   0  0  0  0  0  0  0  0  0  0  0  0
    1.3851    6.9488   -4.9526 N   0  0  0  0  0  0  0  0  0  0  0  0
    0.6712    6.0767   -4.0099 C   0  0  2  0  0  0  0  0  0  0  0  0
    1.4180    5.9526   -2.6615 C   0  0  0  0  0  0  0  0  0  0  0  0
    2.4629    6.5727   -2.4840 O   0  0  0  0  0  0  0  0  0  0  0  0
    0.4509    4.7065   -4.6653 C   0  0  0  0  0  0  0  0  0  0  0  0
    2.0312    3.7976   -4.9165 S   0  0  0  0  0  0  0  0  0  0  0  0
    2.3620    7.1496   -4.7421 H   0  0  0  0  0  0  0  0  0  0  0  0
   -0.3065    6.5157   -3.7856 H   0  0  0  0  0  0  0  0  0  0  0  0
   -0.2107    4.1110   -4.0348 H   0  0  0  0  0  0  0  0  0  0  0  0
   -0.0499    4.8325   -5.6306 H   0  0  0  0  0  0  0  0  0  0  0  0
    0.9104    5.1905   -1.6239 N   0  0  0  0  0  0  0  0  0  0  0  0
    1.6188    4.9774   -0.3689 C   0  0  0  0  0  0  0  0  0  0  0  0
    0.0896    4.6096   -1.8161 H   0  0  0  0  0  0  0  0  0  0  0  0
    2.5769    4.4787   -0.5493 H   0  0  0  0  0  0  0  0  0  0  0  0
    1.8056    5.9316    0.1345 H   0  0  0  0  0  0  0  0  0  0  0  0
    1.0200    4.3475    0.2960 H   0  0  0  0  0  0  0  0  0  0  0  0
   -3.9975   -0.1320   -2.2100 C   0  0  0  0  0  0  0  0  0  0  0  0
   -3.5578   -0.3943   -3.3203 O   0  0  0  0  0  0  0  0  0  0  0  0
   -4.5404   -1.2378   -1.3253 C   0  0  0  0  0  0  0  0  0  0  0  0
   -5.4439   -0.8985   -0.8132 H   0  0  0  0  0  0  0  0  0  0  0  0
   -4.7876   -2.1150   -1.9292 H   0  0  0  0  0  0  0  0  0  0  0  0
   -3.7940   -1.5198   -0.5794 H   0  0  0  0  0  0  0  0  0  0  0  0
   -3.8932    1.1602   -1.7384 N   0  0  0  0  0  0  0  0  0  0  0  0
   -3.2964    2.2670   -2.5090 C   0  0  2  0  0  0  0  0  0  0  0  0
   -1.7519    2.2379   -2.4335 C   0  0  0  0  0  0  0  0  0  0  0  0
   -1.1334    3.1211   -1.8510 O   0  0  0  0  0  0  0  0  0  0  0  0
   -3.9023    3.5707   -1.9747 C   0  0  0  0  0  0  0  0  0  0  0  0
   -3.9755    1.2645   -0.7226 H   0  0  0  0  0  0  0  0  0  0  0  0
   -3.5732    2.1784   -3.5654 H   0  0  0  0  0  0  0  0  0  0  0  0
   -3.6651    3.7005   -0.9135 H   0  0  0  0  0  0  0  0  0  0  0  0
   -3.5075    4.4295   -2.5269 H   0  0  0  0  0  0  0  0  0  0  0  0
   -4.9905    3.5572   -2.0896 H   0  0  0  0  0  0  0  0  0  0  0  0
   -1.1146    1.0520   -2.7511 N   0  0  0  0  0  0  0  0  0  0  0  0
    0.2854    0.6466   -2.4806 C   0  0  2  0  0  0  0  0  0  0  0  0
    0.4811    0.2907   -0.9896 C   0  0  0  0  0  0  0  0  0  0  0  0
    1.3998   -0.4342   -0.6337 O   0  0  0  0  0  0  0  0  0  0  0  0
    1.3340    1.6723   -2.9384 C   0  0  0  0  0  0  0  0  0  0  0  0
    1.3085    1.8461   -4.7676 S   0  0  0  0  0  0  0  0  0  0  0  0
   -1.7359    0.3465   -3.1618 H   0  0  0  0  0  0  0  0  0  0  0  0
    0.4761   -0.2749   -3.0402 H   0  0  0  0  0  0  0  0  0  0  0  0
    1.1718    2.6391   -2.4625 H   0  0  0  0  0  0  0  0  0  0  0  0
    2.3313    1.3350   -2.6380 H   0  0  0  0  0  0  0  0  0  0  0  0
   -0.4749    0.6696   -0.0669 N   0  0  0  0  0  0  0  0  0  0  0  0
   -0.6335    0.1539    1.2935 C   0  0  2  0  0  0  0  0  0  0  0  0
   -2.1287    0.0327    1.6672 C   0  0  0  0  0  0  0  0  0  0  0  0
   -2.9931    0.5910    0.9920 O   0  0  0  0  0  0  0  0  0  0  0  0
    0.0923    1.1021    2.2508 C   0  0  0  0  0  0  0  0  0  0  0  0
   -1.2068    1.2852   -0.4193 H   0  0  0  0  0  0  0  0  0  0  0  0
   -0.1889   -0.8444    1.3653 H   0  0  0  0  0  0  0  0  0  0  0  0
   -0.3407    2.1063    2.1969 H   0  0  0  0  0  0  0  0  0  0  0  0
    0.0141    0.7430    3.2813 H   0  0  0  0  0  0  0  0  0  0  0  0
    1.1529    1.1659    1.9870 H   0  0  0  0  0  0  0  0  0  0  0  0
   -2.5193   -0.7386    2.7458 N   0  0  0  0  0  0  0  0  0  0  0  0
   -3.9106   -0.9280    3.1384 C   0  0  0  0  0  0  0  0  0  0  0  0
   -1.7907   -1.2048    3.2801 H   0  0  0  0  0  0  0  0  0  0  0  0
   -4.3855    0.0370    3.3445 H   0  0  0  0  0  0  0  0  0  0  0  0
   -4.4673   -1.4335    2.3425 H   0  0  0  0  0  0  0  0  0  0  0  0
   -3.9686   -1.5407    4.0433 H   0  0  0  0  0  0  0  0  0  0  0  0
  1  2  2  0  0  0  0
  1  3  1  0  0  0  0
  1  7  1  0  0  0  0
  3  4  1  0  0  0  0
  3  5  1  0  0  0  0
  3  6  1  0  0  0  0
  7  8  1  0  0  0  0
  7 13  1  0  0  0  0
  8  9  1  0  0  0  0
  8 11  1  0  0  0  0
  8 14  1  0  0  0  0
  9 10  2  0  0  0  0
  9 17  1  0  0  0  0
 11 12  1  0  0  0  0
 11 15  1  0  0  0  0
 11 16  1  0  0  0  0
 12 44  1  0  0  0  0
 17 18  1  0  0  0  0
 17 19  1  0  0  0  0
 18 20  1  0  0  0  0
 18 21  1  0  0  0  0
 18 22  1  0  0  0  0
 23 24  2  0  0  0  0
 23 25  1  0  0  0  0
 23 29  1  0  0  0  0
 25 26  1  0  0  0  0
 25 27  1  0  0  0  0
 25 28  1  0  0  0  0
 29 30  1  0  0  0  0
 29 34  1  0  0  0  0
 30 31  1  0  0  0  0
 30 33  1  0  0  0  0
 30 35  1  0  0  0  0
 31 32  2  0  0  0  0
 31 39  1  0  0  0  0
 33 36  1  0  0  0  0
 33 37  1  0  0  0  0
 33 38  1  0  0  0  0
 39 40  1  0  0  0  0
 39 45  1  0  0  0  0
 40 41  1  0  0  0  0
 40 43  1  0  0  0  0
 40 46  1  0  0  0  0
 41 42  2  0  0  0  0
 41 49  1  0  0  0  0
 43 44  1  0  0  0  0
 43 47  1  0  0  0  0
 43 48  1  0  0  0  0
 49 50  1  0  0  0  0
 49 54  1  0  0  0  0
 50 51  1  0  0  0  0
 50 53  1  0  0  0  0
 50 55  1  0  0  0  0
 51 52  2  0  0  0  0
 51 59  1  0  0  0  0
 53 56  1  0  0  0  0
 53 57  1  0  0  0  0
 53 58  1  0  0  0  0
 59 60  1  0  0  0  0
 59 61  1  0  0  0  0
 60 62  1  0  0  0  0
 60 63  1  0  0  0  0
 60 64  1  0  0  0  0
M  END
$$$$

  -OEChem-05262216053D

 64 63  0     1  0  0  0  0  0999 V2000
    0.8658    7.8319   -5.6689 C   0  0  0  0  0  0  0  0  0  0  0  0
   -0.3313    7.7458   -5.8959 O   0  0  0  0  0  0  0  0  0  0  0  0
    1.7188    8.8174   -6.4444 C   0  0  0  0  0  0  0  0  0  0  0  0
    2.4940    8.2826   -6.9981 H   0  0  0  0  0  0  0  0  0  0  0  0
    1.0996    9.3743   -7.1531 H   0  0  0  0  0  0  0  0  0  0  0  0
    2.1919    9.5239   -5.7582 H   0  0  0  0  0  0  0  0  0  0  0  0
    1.4403    7.0360   -4.7027 N   0  0  0  0  0  0  0  0  0  0  0  0
    0.6989    6.1017   -3.8438 C   0  0  2  0  0  0  0  0  0  0  0  0
    1.4301    5.8428   -2.5061 C   0  0  0  0  0  0  0  0  0  0  0  0
    2.4835    6.4252   -2.2631 O   0  0  0  0  0  0  0  0  0  0  0  0
    0.4529    4.7982   -4.6163 C   0  0  0  0  0  0  0  0  0  0  0  0
    2.0158    3.8887   -4.9549 S   0  0  0  0  0  0  0  0  0  0  0  0
    2.4181    7.2004   -4.4670 H   0  0  0  0  0  0  0  0  0  0  0  0
   -0.2705    6.5426   -3.5888 H   0  0  0  0  0  0  0  0  0  0  0  0
   -0.2171    4.1604   -4.0380 H   0  0  0  0  0  0  0  0  0  0  0  0
   -0.0484    5.0158   -5.5647 H   0  0  0  0  0  0  0  0  0  0  0  0
    0.8956    5.0013   -1.5465 N   0  0  0  0  0  0  0  0  0  0  0  0
    1.5853    4.6587   -0.3103 C   0  0  0  0  0  0  0  0  0  0  0  0
    0.0737    4.4479   -1.8038 H   0  0  0  0  0  0  0  0  0  0  0  0
    2.5338    4.1560   -0.5266 H   0  0  0  0  0  0  0  0  0  0  0  0
    1.7877    5.5587    0.2795 H   0  0  0  0  0  0  0  0  0  0  0  0
    0.9650    3.9853    0.2893 H   0  0  0  0  0  0  0  0  0  0  0  0
   -3.9804   -0.3242   -2.3762 C   0  0  0  0  0  0  0  0  0  0  0  0
   -3.5837   -0.4943   -3.5199 O   0  0  0  0  0  0  0  0  0  0  0  0
   -4.4596   -1.5070   -1.5568 C   0  0  0  0  0  0  0  0  0  0  0  0
   -4.8913   -2.2670   -2.2139 H   0  0  0  0  0  0  0  0  0  0  0  0
   -3.6213   -1.9436   -1.0081 H   0  0  0  0  0  0  0  0  0  0  0  0
   -5.2216   -1.1862   -0.8422 H   0  0  0  0  0  0  0  0  0  0  0  0
   -3.8654    0.9301   -1.8125 N   0  0  0  0  0  0  0  0  0  0  0  0
   -3.3450    2.1117   -2.5278 C   0  0  2  0  0  0  0  0  0  0  0  0
   -1.7976    2.1208   -2.5629 C   0  0  0  0  0  0  0  0  0  0  0  0
   -1.1633    2.9816   -1.9655 O   0  0  0  0  0  0  0  0  0  0  0  0
   -3.9409    3.3532   -1.8519 C   0  0  0  0  0  0  0  0  0  0  0  0
   -3.9616    0.9715   -0.7935 H   0  0  0  0  0  0  0  0  0  0  0  0
   -3.6940    2.0982   -3.5662 H   0  0  0  0  0  0  0  0  0  0  0  0
   -3.6339    3.4075   -0.8023 H   0  0  0  0  0  0  0  0  0  0  0  0
   -3.6024    4.2617   -2.3600 H   0  0  0  0  0  0  0  0  0  0  0  0
   -5.0341    3.3221   -1.8937 H   0  0  0  0  0  0  0  0  0  0  0  0
   -1.1620    0.9741   -3.0076 N   0  0  0  0  0  0  0  0  0  0  0  0
    0.2436    0.5569   -2.7869 C   0  0  2  0  0  0  0  0  0  0  0  0
    0.4376    0.0574   -1.3362 C   0  0  0  0  0  0  0  0  0  0  0  0
    1.5161   -0.3672   -0.9448 O   0  0  0  0  0  0  0  0  0  0  0  0
    1.2896    1.6198   -3.1614 C   0  0  0  0  0  0  0  0  0  0  0  0
    1.2491    1.9496   -4.9687 S   0  0  0  0  0  0  0  0  0  0  0  0
   -1.7930    0.2897   -3.4391 H   0  0  0  0  0  0  0  0  0  0  0  0
    0.4334   -0.3087   -3.4290 H   0  0  0  0  0  0  0  0  0  0  0  0
    1.1335    2.5405   -2.6006 H   0  0  0  0  0  0  0  0  0  0  0  0
    2.2904    1.2593   -2.9018 H   0  0  0  0  0  0  0  0  0  0  0  0
   -0.6417    0.0581   -0.4721 N   0  0  0  0  0  0  0  0  0  0  0  0
   -0.6224   -0.2450    0.9602 C   0  0  2  0  0  0  0  0  0  0  0  0
   -2.0629   -0.3914    1.4998 C   0  0  0  0  0  0  0  0  0  0  0  0
   -3.0142    0.0710    0.8702 O   0  0  0  0  0  0  0  0  0  0  0  0
    0.0962    0.8850    1.7082 C   0  0  0  0  0  0  0  0  0  0  0  0
   -1.4880    0.4946   -0.8325 H   0  0  0  0  0  0  0  0  0  0  0  0
   -0.0932   -1.1890    1.1243 H   0  0  0  0  0  0  0  0  0  0  0  0
   -0.4061    1.8413    1.5283 H   0  0  0  0  0  0  0  0  0  0  0  0
    0.1004    0.6906    2.7849 H   0  0  0  0  0  0  0  0  0  0  0  0
    1.1347    0.9703    1.3733 H   0  0  0  0  0  0  0  0  0  0  0  0
   -2.3005   -1.0506    2.6912 N   0  0  0  0  0  0  0  0  0  0  0  0
   -3.6305   -1.2269    3.2623 C   0  0  0  0  0  0  0  0  0  0  0  0
   -1.4989   -1.4311    3.1876 H   0  0  0  0  0  0  0  0  0  0  0  0
   -4.1304   -0.2595    3.3793 H   0  0  0  0  0  0  0  0  0  0  0  0
   -4.2427   -1.8650    2.6165 H   0  0  0  0  0  0  0  0  0  0  0  0
   -3.5595   -1.6972    4.2479 H   0  0  0  0  0  0  0  0  0  0  0  0
  1  2  2  0  0  0  0
  1  3  1  0  0  0  0
  1  7  1  0  0  0  0
  3  4  1  0  0  0  0
  3  5  1  0  0  0  0
  3  6  1  0  0  0  0
  7  8  1  0  0  0  0
  7 13  1  0  0  0  0
  8  9  1  0  0  0  0
  8 11  1  0  0  0  0
  8 14  1  0  0  0  0
  9 10  2  0  0  0  0
  9 17  1  0  0  0  0
 11 12  1  0  0  0  0
 11 15  1  0  0  0  0
 11 16  1  0  0  0  0
 12 44  1  0  0  0  0
 17 18  1  0  0  0  0
 17 19  1  0  0  0  0
 18 20  1  0  0  0  0
 18 21  1  0  0  0  0
 18 22  1  0  0  0  0
 23 24  2  0  0  0  0
 23 25  1  0  0  0  0
 23 29  1  0  0  0  0
 25 26  1  0  0  0  0
 25 27  1  0  0  0  0
 25 28  1  0  0  0  0
 29 30  1  0  0  0  0
 29 34  1  0  0  0  0
 30 31  1  0  0  0  0
 30 33  1  0  0  0  0
 30 35  1  0  0  0  0
 31 32  2  0  0  0  0
 31 39  1  0  0  0  0
 33 36  1  0  0  0  0
 33 37  1  0  0  0  0
 33 38  1  0  0  0  0
 39 40  1  0  0  0  0
 39 45  1  0  0  0  0
 40 41  1  0  0  0  0
 40 43  1  0  0  0  0
 40 46  1  0  0  0  0
 41 42  2  0  0  0  0
 41 49  1  0  0  0  0
 43 44  1  0  0  0  0
 43 47  1  0  0  0  0
 43 48  1  0  0  0  0
 49 50  1  0  0  0  0
 49 54  1  0  0  0  0
 50 51  1  0  0  0  0
 50 53  1  0  0  0  0
 50 55  1  0  0  0  0
 51 52  2  0  0  0  0
 51 59  1  0  0  0  0
 53 56  1  0  0  0  0
 53 57  1  0  0  0  0
 53 58  1  0  0  0  0
 59 60  1  0  0  0  0
 59 61  1  0  0  0  0
 60 62  1  0  0  0  0
 60 63  1  0  0  0  0
 60 64  1  0  0  0  0
M  END
$$$$

  -OEChem-05262216053D

 64 63  0     1  0  0  0  0  0999 V2000
    0.0646    7.6000   -5.5062 C   0  0  0  0  0  0  0  0  0  0  0  0
   -1.0612    7.2357   -5.8102 O   0  0  0  0  0  0  0  0  0  0  0  0
    0.7342    8.7307   -6.2633 C   0  0  0  0  0  0  0  0  0  0  0  0
    1.6566    8.3722   -6.7267 H   0  0  0  0  0  0  0  0  0  0  0  0
    0.0687    9.1069   -7.0452 H   0  0  0  0  0  0  0  0  0  0  0  0
    0.9727    9.5488   -5.5795 H   0  0  0  0  0  0  0  0  0  0  0  0
    0.7277    6.9807   -4.4700 N   0  0  0  0  0  0  0  0  0  0  0  0
    0.1561    5.9194   -3.6296 C   0  0  2  0  0  0  0  0  0  0  0  0
    0.8473    5.8398   -2.2483 C   0  0  0  0  0  0  0  0  0  0  0  0
    1.7340    6.6403   -1.9660 O   0  0  0  0  0  0  0  0  0  0  0  0
    0.2399    4.5833   -4.3804 C   0  0  0  0  0  0  0  0  0  0  0  0
    1.9785    4.0495   -4.6597 S   0  0  0  0  0  0  0  0  0  0  0  0
    1.6259    7.3659   -4.1796 H   0  0  0  0  0  0  0  0  0  0  0  0
   -0.8978    6.1463   -3.4390 H   0  0  0  0  0  0  0  0  0  0  0  0
   -0.2812    3.8200   -3.8024 H   0  0  0  0  0  0  0  0  0  0  0  0
   -0.2703    4.6650   -5.3454 H   0  0  0  0  0  0  0  0  0  0  0  0
    0.4576    4.9122   -1.2969 N   0  0  0  0  0  0  0  0  0  0  0  0
    1.1525    4.7391   -0.0277 C   0  0  0  0  0  0  0  0  0  0  0  0
   -0.2069    4.1869   -1.5768 H   0  0  0  0  0  0  0  0  0  0  0  0
    2.1965    4.4559   -0.1984 H   0  0  0  0  0  0  0  0  0  0  0  0
    1.1282    5.6662    0.5547 H   0  0  0  0  0  0  0  0  0  0  0  0
    0.6718    3.9501    0.5592 H   0  0  0  0  0  0  0  0  0  0  0  0
   -5.1234    1.9695   -2.0533 C   0  0  0  0  0  0  0  0  0  0  0  0
   -5.6063    1.0727   -2.7252 O   0  0  0  0  0  0  0  0  0  0  0  0
   -5.9660    2.6771   -1.0089 C   0  0  0  0  0  0  0  0  0  0  0  0
   -6.0928    3.7274   -1.2816 H   0  0  0  0  0  0  0  0  0  0  0  0
   -6.9521    2.2086   -0.9418 H   0  0  0  0  0  0  0  0  0  0  0  0
   -5.4805    2.6166   -0.0318 H   0  0  0  0  0  0  0  0  0  0  0  0
   -3.8052    2.3322   -2.2375 N   0  0  0  0  0  0  0  0  0  0  0  0
   -2.8664    1.6107   -3.1076 C   0  0  2  0  0  0  0  0  0  0  0  0
   -1.4434    1.5763   -2.5136 C   0  0  0  0  0  0  0  0  0  0  0  0
   -1.1018    2.4352   -1.7064 O   0  0  0  0  0  0  0  0  0  0  0  0
   -2.8655    2.2884   -4.4811 C   0  0  0  0  0  0  0  0  0  0  0  0
   -3.4127    3.0097   -1.5863 H   0  0  0  0  0  0  0  0  0  0  0  0
   -3.1932    0.5714   -3.2230 H   0  0  0  0  0  0  0  0  0  0  0  0
   -2.6010    3.3464   -4.3894 H   0  0  0  0  0  0  0  0  0  0  0  0
   -2.1472    1.8050   -5.1508 H   0  0  0  0  0  0  0  0  0  0  0  0
   -3.8594    2.2194   -4.9351 H   0  0  0  0  0  0  0  0  0  0  0  0
   -0.5735    0.5570   -2.8668 N   0  0  0  0  0  0  0  0  0  0  0  0
    0.8625    0.4454   -2.5104 C   0  0  2  0  0  0  0  0  0  0  0  0
    1.0702    0.0359   -1.0328 C   0  0  0  0  0  0  0  0  0  0  0  0
    2.1773    0.0924   -0.5134 O   0  0  0  0  0  0  0  0  0  0  0  0
    1.6588    1.7165   -2.8553 C   0  0  0  0  0  0  0  0  0  0  0  0
    1.6866    1.9836   -4.6725 S   0  0  0  0  0  0  0  0  0  0  0  0
   -0.9200   -0.0818   -3.5790 H   0  0  0  0  0  0  0  0  0  0  0  0
    1.2915   -0.3700   -3.1006 H   0  0  0  0  0  0  0  0  0  0  0  0
    1.2502    2.5866   -2.3428 H   0  0  0  0  0  0  0  0  0  0  0  0
    2.6940    1.6106   -2.5148 H   0  0  0  0  0  0  0  0  0  0  0  0
    0.0191   -0.4768   -0.2977 N   0  0  0  0  0  0  0  0  0  0  0  0
    0.1133   -1.0312    1.0562 C   0  0  2  0  0  0  0  0  0  0  0  0
   -0.9914   -2.0807    1.3014 C   0  0  0  0  0  0  0  0  0  0  0  0
   -1.9156   -2.1972    0.5028 O   0  0  0  0  0  0  0  0  0  0  0  0
    0.0010    0.1197    2.0609 C   0  0  0  0  0  0  0  0  0  0  0  0
   -0.8737   -0.5834   -0.7772 H   0  0  0  0  0  0  0  0  0  0  0  0
    1.0794   -1.5310    1.1825 H   0  0  0  0  0  0  0  0  0  0  0  0
   -0.9624    0.6289    1.9526 H   0  0  0  0  0  0  0  0  0  0  0  0
    0.0867   -0.2550    3.0852 H   0  0  0  0  0  0  0  0  0  0  0  0
    0.8002    0.8490    1.8942 H   0  0  0  0  0  0  0  0  0  0  0  0
   -0.9422   -2.9107    2.4060 N   0  0  0  0  0  0  0  0  0  0  0  0
   -1.9319   -3.9490    2.6677 C   0  0  0  0  0  0  0  0  0  0  0  0
   -0.1539   -2.8100    3.0391 H   0  0  0  0  0  0  0  0  0  0  0  0
   -2.9341   -3.5137    2.7425 H   0  0  0  0  0  0  0  0  0  0  0  0
   -1.9298   -4.6915    1.8625 H   0  0  0  0  0  0  0  0  0  0  0  0
   -1.7065   -4.4592    3.6091 H   0  0  0  0  0  0  0  0  0  0  0  0
  1  2  2  0  0  0  0
  1  3  1  0  0  0  0
  1  7  1  0  0  0  0
  3  4  1  0  0  0  0
  3  5  1  0  0  0  0
  3  6  1  0  0  0  0
  7  8  1  0  0  0  0
  7 13  1  0  0  0  0
  8  9  1  0  0  0  0
  8 11  1  0  0  0  0
  8 14  1  0  0  0  0
  9 10  2  0  0  0  0
  9 17  1  0  0  0  0
 11 12  1  0  0  0  0
 11 15  1  0  0  0  0
 11 16  1  0  0  0  0
 12 44  1  0  0  0  0
 17 18  1  0  0  0  0
 17 19  1  0  0  0  0
 18 20  1  0  0  0  0
 18 21  1  0  0  0  0
 18 22  1  0  0  0  0
 23 24  2  0  0  0  0
 23 25  1  0  0  0  0
 23 29  1  0  0  0  0
 25 26  1  0  0  0  0
 25 27  1  0  0  0  0
 25 28  1  0  0  0  0
 29 30  1  0  0  0  0
 29 34  1  0  0  0  0
 30 31  1  0  0  0  0
 30 33  1  0  0  0  0
 30 35  1  0  0  0  0
 31 32  2  0  0  0  0
 31 39  1  0  0  0  0
 33 36  1  0  0  0  0
 33 37  1  0  0  0  0
 33 38  1  0  0  0  0
 39 40  1  0  0  0  0
 39 45  1  0  0  0  0
 40 41  1  0  0  0  0
 40 43  1  0  0  0  0
 40 46  1  0  0  0  0
 41 42  2  0  0  0  0
 41 49  1  0  0  0  0
 43 44  1  0  0  0  0
 43 47  1  0  0  0  0
 43 48  1  0  0  0  0
 49 50  1  0  0  0  0
 49 54  1  0  0  0  0
 50 51  1  0  0  0  0
 50 53  1  0  0  0  0
 50 55  1  0  0  0  0
 51 52  2  0  0  0  0
 51 59  1  0  0  0  0
 53 56  1  0  0  0  0
 53 57  1  0  0  0  0
 53 58  1  0  0  0  0
 59 60  1  0  0  0  0
 59 61  1  0  0  0  0
 60 62  1  0  0  0  0
 60 63  1  0  0  0  0
 60 64  1  0  0  0  0
M  END
$$$$

  -OEChem-05262216053D

 64 63  0     1  0  0  0  0  0999 V2000
    0.9088    7.4778   -6.0800 C   0  0  0  0  0  0  0  0  0  0  0  0
   -0.2584    7.2691   -6.3752 O   0  0  0  0  0  0  0  0  0  0  0  0
    1.7507    8.4176   -6.9219 C   0  0  0  0  0  0  0  0  0  0  0  0
    2.5394    7.8566   -7.4295 H   0  0  0  0  0  0  0  0  0  0  0  0
    1.1271    8.9106   -7.6728 H   0  0  0  0  0  0  0  0  0  0  0  0
    2.2066    9.1815   -6.2877 H   0  0  0  0  0  0  0  0  0  0  0  0
    1.4597    6.8579   -4.9802 N   0  0  0  0  0  0  0  0  0  0  0  0
    0.7125    6.0025   -4.0480 C   0  0  2  0  0  0  0  0  0  0  0  0
    1.3492    5.9905   -2.6389 C   0  0  0  0  0  0  0  0  0  0  0  0
    2.3461    6.6721   -2.4158 O   0  0  0  0  0  0  0  0  0  0  0  0
    0.6108    4.5892   -4.6384 C   0  0  0  0  0  0  0  0  0  0  0  0
    2.2341    3.7233   -4.6587 S   0  0  0  0  0  0  0  0  0  0  0  0
    2.3992    7.1340   -4.6968 H   0  0  0  0  0  0  0  0  0  0  0  0
   -0.2996    6.4031   -3.9292 H   0  0  0  0  0  0  0  0  0  0  0  0
   -0.0970    4.0080   -4.0476 H   0  0  0  0  0  0  0  0  0  0  0  0
    0.2152    4.6372   -5.6577 H   0  0  0  0  0  0  0  0  0  0  0  0
    0.7903    5.2619   -1.6043 N   0  0  0  0  0  0  0  0  0  0  0  0
    1.4230    5.1144   -0.3007 C   0  0  0  0  0  0  0  0  0  0  0  0
    0.0170    4.6306   -1.8310 H   0  0  0  0  0  0  0  0  0  0  0  0
    2.3931    4.6164   -0.3997 H   0  0  0  0  0  0  0  0  0  0  0  0
    1.5727    6.0925    0.1675 H   0  0  0  0  0  0  0  0  0  0  0  0
    0.7898    4.5100    0.3564 H   0  0  0  0  0  0  0  0  0  0  0  0
   -4.2564    0.6505   -1.4276 C   0  0  0  0  0  0  0  0  0  0  0  0
   -3.5061   -0.2120   -1.8629 O   0  0  0  0  0  0  0  0  0  0  0  0
   -5.2454    0.3224   -0.3258 C   0  0  0  0  0  0  0  0  0  0  0  0
   -6.2529    0.6212   -0.6258 H   0  0  0  0  0  0  0  0  0  0  0  0
   -5.2444   -0.7530   -0.1267 H   0  0  0  0  0  0  0  0  0  0  0  0
   -4.9728    0.8526    0.5900 H   0  0  0  0  0  0  0  0  0  0  0  0
   -4.1649    1.9393   -1.9134 N   0  0  0  0  0  0  0  0  0  0  0  0
   -3.2283    2.3516   -2.9691 C   0  0  2  0  0  0  0  0  0  0  0  0
   -1.7516    2.2413   -2.5225 C   0  0  0  0  0  0  0  0  0  0  0  0
   -1.2122    3.1665   -1.9268 O   0  0  0  0  0  0  0  0  0  0  0  0
   -3.5901    3.7805   -3.3926 C   0  0  0  0  0  0  0  0  0  0  0  0
   -4.7329    2.6511   -1.4615 H   0  0  0  0  0  0  0  0  0  0  0  0
   -3.3612    1.7015   -3.8408 H   0  0  0  0  0  0  0  0  0  0  0  0
   -3.4990    4.4710   -2.5477 H   0  0  0  0  0  0  0  0  0  0  0  0
   -2.9212    4.1196   -4.1902 H   0  0  0  0  0  0  0  0  0  0  0  0
   -4.6180    3.8194   -3.7657 H   0  0  0  0  0  0  0  0  0  0  0  0
   -1.0904    1.0463   -2.7446 N   0  0  0  0  0  0  0  0  0  0  0  0
    0.2588    0.6607   -2.2789 C   0  0  2  0  0  0  0  0  0  0  0  0
    0.2454    0.3289   -0.7682 C   0  0  0  0  0  0  0  0  0  0  0  0
    1.2629    0.4189   -0.0904 O   0  0  0  0  0  0  0  0  0  0  0  0
    1.3532    1.6785   -2.6555 C   0  0  0  0  0  0  0  0  0  0  0  0
    1.5490    1.7598   -4.4821 S   0  0  0  0  0  0  0  0  0  0  0  0
   -1.7086    0.2858   -3.0336 H   0  0  0  0  0  0  0  0  0  0  0  0
    0.5236   -0.2759   -2.7789 H   0  0  0  0  0  0  0  0  0  0  0  0
    1.1334    2.6632   -2.2448 H   0  0  0  0  0  0  0  0  0  0  0  0
    2.3117    1.3675   -2.2276 H   0  0  0  0  0  0  0  0  0  0  0  0
   -0.9001   -0.1879   -0.1846 N   0  0  0  0  0  0  0  0  0  0  0  0
   -0.8872   -0.8890    1.1055 C   0  0  2  0  0  0  0  0  0  0  0  0
   -0.5988   -2.3964    0.9403 C   0  0  0  0  0  0  0  0  0  0  0  0
   -1.0059   -3.0010   -0.0449 O   0  0  0  0  0  0  0  0  0  0  0  0
   -2.2496   -0.6779    1.7667 C   0  0  0  0  0  0  0  0  0  0  0  0
   -1.6587   -0.4184   -0.8303 H   0  0  0  0  0  0  0  0  0  0  0  0
   -0.1199   -0.4611    1.7592 H   0  0  0  0  0  0  0  0  0  0  0  0
   -3.0417   -1.1238    1.1570 H   0  0  0  0  0  0  0  0  0  0  0  0
   -2.2690   -1.1447    2.7562 H   0  0  0  0  0  0  0  0  0  0  0  0
   -2.4534    0.3910    1.8834 H   0  0  0  0  0  0  0  0  0  0  0  0
    0.0767   -3.0900    1.9276 N   0  0  0  0  0  0  0  0  0  0  0  0
    0.4183   -4.5026    1.8134 C   0  0  0  0  0  0  0  0  0  0  0  0
    0.4964   -2.5446    2.6746 H   0  0  0  0  0  0  0  0  0  0  0  0
   -0.4709   -5.0956    1.5736 H   0  0  0  0  0  0  0  0  0  0  0  0
    1.1645   -4.6523    1.0260 H   0  0  0  0  0  0  0  0  0  0  0  0
    0.8296   -4.8696    2.7587 H   0  0  0  0  0  0  0  0  0  0  0  0
  1  2  2  0  0  0  0
  1  3  1  0  0  0  0
  1  7  1  0  0  0  0
  3  4  1  0  0  0  0
  3  5  1  0  0  0  0
  3  6  1  0  0  0  0
  7  8  1  0  0  0  0
  7 13  1  0  0  0  0
  8  9  1  0  0  0  0
  8 11  1  0  0  0  0
  8 14  1  0  0  0  0
  9 10  2  0  0  0  0
  9 17  1  0  0  0  0
 11 12  1  0  0  0  0
 11 15  1  0  0  0  0
 11 16  1  0  0  0  0
 12 44  1  0  0  0  0
 17 18  1  0  0  0  0
 17 19  1  0  0  0  0
 18 20  1  0  0  0  0
 18 21  1  0  0  0  0
 18 22  1  0  0  0  0
 23 24  2  0  0  0  0
 23 25  1  0  0  0  0
 23 29  1  0  0  0  0
 25 26  1  0  0  0  0
 25 27  1  0  0  0  0
 25 28  1  0  0  0  0
 29 30  1  0  0  0  0
 29 34  1  0  0  0  0
 30 31  1  0  0  0  0
 30 33  1  0  0  0  0
 30 35  1  0  0  0  0
 31 32  2  0  0  0  0
 31 39  1  0  0  0  0
 33 36  1  0  0  0  0
 33 37  1  0  0  0  0
 33 38  1  0  0  0  0
 39 40  1  0  0  0  0
 39 45  1  0  0  0  0
 40 41  1  0  0  0  0
 40 43  1  0  0  0  0
 40 46  1  0  0  0  0
 41 42  2  0  0  0  0
 41 49  1  0  0  0  0
 43 44  1  0  0  0  0
 43 47  1  0  0  0  0
 43 48  1  0  0  0  0
 49 50  1  0  0  0  0
 49 54  1  0  0  0  0
 50 51  1  0  0  0  0
 50 53  1  0  0  0  0
 50 55  1  0  0  0  0
 51 52  2  0  0  0  0
 51 59  1  0  0  0  0
 53 56  1  0  0  0  0
 53 57  1  0  0  0  0
 53 58  1  0  0  0  0
 59 60  1  0  0  0  0
 59 61  1  0  0  0  0
 60 62  1  0  0  0  0
 60 63  1  0  0  0  0
 60 64  1  0  0  0  0
M  END
$$$$

  -OEChem-05262216053D

 64 63  0     1  0  0  0  0  0999 V2000
    0.9913    7.6400   -6.0257 C   0  0  0  0  0  0  0  0  0  0  0  0
   -0.1939    7.5242   -6.2988 O   0  0  0  0  0  0  0  0  0  0  0  0
    1.8638    8.6000   -6.8122 C   0  0  0  0  0  0  0  0  0  0  0  0
    2.7104    8.0638   -7.2478 H   0  0  0  0  0  0  0  0  0  0  0  0
    1.2862    9.0601   -7.6188 H   0  0  0  0  0  0  0  0  0  0  0  0
    2.2396    9.3870   -6.1540 H   0  0  0  0  0  0  0  0  0  0  0  0
    1.5344    6.9063   -4.9942 N   0  0  0  0  0  0  0  0  0  0  0  0
    0.7612    6.0437   -4.0898 C   0  0  2  0  0  0  0  0  0  0  0  0
    1.4243    5.9351   -2.6971 C   0  0  0  0  0  0  0  0  0  0  0  0
    2.4639    6.5480   -2.4685 O   0  0  0  0  0  0  0  0  0  0  0  0
    0.5780    4.6667   -4.7438 C   0  0  0  0  0  0  0  0  0  0  0  0
    2.1635    3.7414   -4.8766 S   0  0  0  0  0  0  0  0  0  0  0  0
    2.4936    7.1134   -4.7180 H   0  0  0  0  0  0  0  0  0  0  0  0
   -0.2275    6.4861   -3.9295 H   0  0  0  0  0  0  0  0  0  0  0  0
   -0.1290    4.0832   -4.1534 H   0  0  0  0  0  0  0  0  0  0  0  0
    0.1446    4.7838   -5.7418 H   0  0  0  0  0  0  0  0  0  0  0  0
    0.8433    5.1984   -1.6805 N   0  0  0  0  0  0  0  0  0  0  0  0
    1.4958    4.9552   -0.4006 C   0  0  0  0  0  0  0  0  0  0  0  0
    0.0398    4.6109   -1.9206 H   0  0  0  0  0  0  0  0  0  0  0  0
    2.4412    4.4222   -0.5464 H   0  0  0  0  0  0  0  0  0  0  0  0
    1.6973    5.9000    0.1146 H   0  0  0  0  0  0  0  0  0  0  0  0
    0.8504    4.3435    0.2378 H   0  0  0  0  0  0  0  0  0  0  0  0
   -4.1262    0.3460   -1.4932 C   0  0  0  0  0  0  0  0  0  0  0  0
   -3.3951   -0.4348   -2.0869 O   0  0  0  0  0  0  0  0  0  0  0  0
   -5.0070   -0.1425   -0.3593 C   0  0  0  0  0  0  0  0  0  0  0  0
   -6.0581    0.0356   -0.5991 H   0  0  0  0  0  0  0  0  0  0  0  0
   -4.8600   -1.2145   -0.2004 H   0  0  0  0  0  0  0  0  0  0  0  0
   -4.7558    0.3877    0.5622 H   0  0  0  0  0  0  0  0  0  0  0  0
   -4.1143    1.6855   -1.8293 N   0  0  0  0  0  0  0  0  0  0  0  0
   -3.2925    2.2639   -2.9040 C   0  0  2  0  0  0  0  0  0  0  0  0
   -1.7807    2.2202   -2.5802 C   0  0  0  0  0  0  0  0  0  0  0  0
   -1.2249    3.1759   -2.0524 O   0  0  0  0  0  0  0  0  0  0  0  0
   -3.7874    3.6935   -3.1562 C   0  0  0  0  0  0  0  0  0  0  0  0
   -4.6753    2.3128   -1.2593 H   0  0  0  0  0  0  0  0  0  0  0  0
   -3.4471    1.6909   -3.8245 H   0  0  0  0  0  0  0  0  0  0  0  0
   -3.6866    4.3042   -2.2531 H   0  0  0  0  0  0  0  0  0  0  0  0
   -3.2035    4.1612   -3.9556 H   0  0  0  0  0  0  0  0  0  0  0  0
   -4.8392    3.6857   -3.4572 H   0  0  0  0  0  0  0  0  0  0  0  0
   -1.1101    1.0351   -2.8186 N   0  0  0  0  0  0  0  0  0  0  0  0
    0.2669    0.6715   -2.4279 C   0  0  2  0  0  0  0  0  0  0  0  0
    0.3205    0.3658   -0.9127 C   0  0  0  0  0  0  0  0  0  0  0  0
    1.2686    0.7172   -0.2199 O   0  0  0  0  0  0  0  0  0  0  0  0
    1.3247    1.7034   -2.8637 C   0  0  0  0  0  0  0  0  0  0  0  0
    1.4298    1.7946   -4.6967 S   0  0  0  0  0  0  0  0  0  0  0  0
   -1.7386    0.2601   -3.0463 H   0  0  0  0  0  0  0  0  0  0  0  0
    0.5206   -0.2652   -2.9328 H   0  0  0  0  0  0  0  0  0  0  0  0
    1.1111    2.6835   -2.4415 H   0  0  0  0  0  0  0  0  0  0  0  0
    2.3076    1.4071   -2.4831 H   0  0  0  0  0  0  0  0  0  0  0  0
   -0.6650   -0.4254   -0.3455 N   0  0  0  0  0  0  0  0  0  0  0  0
   -0.5381   -1.0779    0.9653 C   0  0  2  0  0  0  0  0  0  0  0  0
   -0.1633   -2.5687    0.8297 C   0  0  0  0  0  0  0  0  0  0  0  0
   -0.5600   -3.2183   -0.1309 O   0  0  0  0  0  0  0  0  0  0  0  0
   -1.8753   -0.9282    1.6925 C   0  0  0  0  0  0  0  0  0  0  0  0
   -1.3501   -0.8182   -0.9930 H   0  0  0  0  0  0  0  0  0  0  0  0
    0.2351   -0.5878    1.5662 H   0  0  0  0  0  0  0  0  0  0  0  0
   -2.6701   -1.4360    1.1377 H   0  0  0  0  0  0  0  0  0  0  0  0
   -1.8161   -1.3666    2.6934 H   0  0  0  0  0  0  0  0  0  0  0  0
   -2.1364    0.1298    1.7927 H   0  0  0  0  0  0  0  0  0  0  0  0
    0.5845   -3.1953    1.8099 N   0  0  0  0  0  0  0  0  0  0  0  0
    1.0106   -4.5871    1.7205 C   0  0  0  0  0  0  0  0  0  0  0  0
    0.9707   -2.6123    2.5467 H   0  0  0  0  0  0  0  0  0  0  0  0
    0.1520   -5.2434    1.5424 H   0  0  0  0  0  0  0  0  0  0  0  0
    1.7276   -4.7163    0.9031 H   0  0  0  0  0  0  0  0  0  0  0  0
    1.4887   -4.8960    2.6549 H   0  0  0  0  0  0  0  0  0  0  0  0
  1  2  2  0  0  0  0
  1  3  1  0  0  0  0
  1  7  1  0  0  0  0
  3  4  1  0  0  0  0
  3  5  1  0  0  0  0
  3  6  1  0  0  0  0
  7  8  1  0  0  0  0
  7 13  1  0  0  0  0
  8  9  1  0  0  0  0
  8 11  1  0  0  0  0
  8 14  1  0  0  0  0
  9 10  2  0  0  0  0
  9 17  1  0  0  0  0
 11 12  1  0  0  0  0
 11 15  1  0  0  0  0
 11 16  1  0  0  0  0
 12 44  1  0  0  0  0
 17 18  1  0  0  0  0
 17 19  1  0  0  0  0
 18 20  1  0  0  0  0
 18 21  1  0  0  0  0
 18 22  1  0  0  0  0
 23 24  2  0  0  0  0
 23 25  1  0  0  0  0
 23 29  1  0  0  0  0
 25 26  1  0  0  0  0
 25 27  1  0  0  0  0
 25 28  1  0  0  0  0
 29 30  1  0  0  0  0
 29 34  1  0  0  0  0
 30 31  1  0  0  0  0
 30 33  1  0  0  0  0
 30 35  1  0  0  0  0
 31 32  2  0  0  0  0
 31 39  1  0  0  0  0
 33 36  1  0  0  0  0
 33 37  1  0  0  0  0
 33 38  1  0  0  0  0
 39 40  1  0  0  0  0
 39 45  1  0  0  0  0
 40 41  1  0  0  0  0
 40 43  1  0  0  0  0
 40 46  1  0  0  0  0
 41 42  2  0  0  0  0
 41 49  1  0  0  0  0
 43 44  1  0  0  0  0
 43 47  1  0  0  0  0
 43 48  1  0  0  0  0
 49 50  1  0  0  0  0
 49 54  1  0  0  0  0
 50 51  1  0  0  0  0
 50 53  1  0  0  0  0
 50 55  1  0  0  0  0
 51 52  2  0  0  0  0
 51 59  1  0  0  0  0
 53 56  1  0  0  0  0
 53 57  1  0  0  0  0
 53 58  1  0  0  0  0
 59 60  1  0  0  0  0
 59 61  1  0  0  0  0
 60 62  1  0  0  0  0
 60 63  1  0  0  0  0
 60 64  1  0  0  0  0
M  END
$$$$

  -OEChem-05262216053D

 64 63  0     1  0  0  0  0  0999 V2000
    0.9429    7.8231   -5.9207 C   0  0  0  0  0  0  0  0  0  0  0  0
   -0.2485    7.7295   -6.1740 O   0  0  0  0  0  0  0  0  0  0  0  0
    1.8059    8.8160   -6.6757 C   0  0  0  0  0  0  0  0  0  0  0  0
    2.6077    8.2903   -7.1999 H   0  0  0  0  0  0  0  0  0  0  0  0
    1.2022    9.3587   -7.4083 H   0  0  0  0  0  0  0  0  0  0  0  0
    2.2438    9.5344   -5.9786 H   0  0  0  0  0  0  0  0  0  0  0  0
    1.5020    7.0303   -4.9430 N   0  0  0  0  0  0  0  0  0  0  0  0
    0.7445    6.1148   -4.0779 C   0  0  2  0  0  0  0  0  0  0  0  0
    1.4395    5.9127   -2.7113 C   0  0  0  0  0  0  0  0  0  0  0  0
    2.5138    6.4653   -2.4884 O   0  0  0  0  0  0  0  0  0  0  0  0
    0.5381    4.7843   -4.8166 C   0  0  0  0  0  0  0  0  0  0  0  0
    2.1165    3.8673   -5.0585 S   0  0  0  0  0  0  0  0  0  0  0  0
    2.4738    7.2017   -4.6870 H   0  0  0  0  0  0  0  0  0  0  0  0
   -0.2372    6.5506   -3.8655 H   0  0  0  0  0  0  0  0  0  0  0  0
   -0.1547    4.1645   -4.2462 H   0  0  0  0  0  0  0  0  0  0  0  0
    0.0773    4.9690   -5.7919 H   0  0  0  0  0  0  0  0  0  0  0  0
    0.8516    5.1593   -1.7108 N   0  0  0  0  0  0  0  0  0  0  0  0
    1.5404    4.8105   -0.4747 C   0  0  0  0  0  0  0  0  0  0  0  0
    0.0268    4.6061   -1.9612 H   0  0  0  0  0  0  0  0  0  0  0  0
    2.4528    4.2446   -0.6908 H   0  0  0  0  0  0  0  0  0  0  0  0
    1.8063    5.7128    0.0856 H   0  0  0  0  0  0  0  0  0  0  0  0
    0.8931    4.1903    0.1534 H   0  0  0  0  0  0  0  0  0  0  0  0
   -3.9282    0.0390   -1.6503 C   0  0  0  0  0  0  0  0  0  0  0  0
   -3.2509   -0.6464   -2.4035 O   0  0  0  0  0  0  0  0  0  0  0  0
   -4.6320   -0.5954   -0.4663 C   0  0  0  0  0  0  0  0  0  0  0  0
   -5.7141   -0.4938   -0.5771 H   0  0  0  0  0  0  0  0  0  0  0  0
   -4.3825   -1.6584   -0.4043 H   0  0  0  0  0  0  0  0  0  0  0  0
   -4.3200   -0.1077    0.4602 H   0  0  0  0  0  0  0  0  0  0  0  0
   -3.9979    1.4039   -1.8502 N   0  0  0  0  0  0  0  0  0  0  0  0
   -3.2826    2.1156   -2.9222 C   0  0  2  0  0  0  0  0  0  0  0  0
   -1.7570    2.1651   -2.6685 C   0  0  0  0  0  0  0  0  0  0  0  0
   -1.2329    3.1586   -2.1791 O   0  0  0  0  0  0  0  0  0  0  0  0
   -3.9005    3.5124   -3.0596 C   0  0  0  0  0  0  0  0  0  0  0  0
   -4.4883    1.9529   -1.1489 H   0  0  0  0  0  0  0  0  0  0  0  0
   -3.4384    1.5915   -3.8716 H   0  0  0  0  0  0  0  0  0  0  0  0
   -3.7963    4.0764   -2.1271 H   0  0  0  0  0  0  0  0  0  0  0  0
   -3.4000    4.0693   -3.8583 H   0  0  0  0  0  0  0  0  0  0  0  0
   -4.9639    3.4371   -3.3065 H   0  0  0  0  0  0  0  0  0  0  0  0
   -1.0333    1.0142   -2.9219 N   0  0  0  0  0  0  0  0  0  0  0  0
    0.3760    0.7244   -2.5894 C   0  0  2  0  0  0  0  0  0  0  0  0
    0.5034    0.4413   -1.0757 C   0  0  0  0  0  0  0  0  0  0  0  0
    1.2653    1.0790   -0.3578 O   0  0  0  0  0  0  0  0  0  0  0  0
    1.3630    1.8054   -3.0646 C   0  0  0  0  0  0  0  0  0  0  0  0
    1.4011    1.9115   -4.8981 S   0  0  0  0  0  0  0  0  0  0  0  0
   -1.6288    0.2090   -3.1377 H   0  0  0  0  0  0  0  0  0  0  0  0
    0.6592   -0.2004   -3.1008 H   0  0  0  0  0  0  0  0  0  0  0  0
    1.1140    2.7719   -2.6333 H   0  0  0  0  0  0  0  0  0  0  0  0
    2.3713    1.5591   -2.7167 H   0  0  0  0  0  0  0  0  0  0  0  0
   -0.2062   -0.6133   -0.5282 N   0  0  0  0  0  0  0  0  0  0  0  0
    0.0047   -1.1519    0.8227 C   0  0  2  0  0  0  0  0  0  0  0  0
    0.2971   -2.6656    0.7958 C   0  0  0  0  0  0  0  0  0  0  0  0
   -0.1011   -3.3521   -0.1381 O   0  0  0  0  0  0  0  0  0  0  0  0
   -1.2555   -0.8662    1.6408 C   0  0  0  0  0  0  0  0  0  0  0  0
   -0.7278   -1.2005   -1.1795 H   0  0  0  0  0  0  0  0  0  0  0  0
    0.8578   -0.6634    1.3044 H   0  0  0  0  0  0  0  0  0  0  0  0
   -2.1189   -1.3767    1.2030 H   0  0  0  0  0  0  0  0  0  0  0  0
   -1.1298   -1.2155    2.6701 H   0  0  0  0  0  0  0  0  0  0  0  0
   -1.4574    0.2094    1.6620 H   0  0  0  0  0  0  0  0  0  0  0  0
    0.9858   -3.2637    1.8347 N   0  0  0  0  0  0  0  0  0  0  0  0
    1.3211   -4.6823    1.8584 C   0  0  0  0  0  0  0  0  0  0  0  0
    1.3484   -2.6608    2.5677 H   0  0  0  0  0  0  0  0  0  0  0  0
    0.4132   -5.2929    1.8079 H   0  0  0  0  0  0  0  0  0  0  0  0
    1.9651   -4.9384    1.0105 H   0  0  0  0  0  0  0  0  0  0  0  0
    1.8512   -4.9295    2.7832 H   0  0  0  0  0  0  0  0  0  0  0  0
  1  2  2  0  0  0  0
  1  3  1  0  0  0  0
  1  7  1  0  0  0  0
  3  4  1  0  0  0  0
  3  5  1  0  0  0  0
  3  6  1  0  0  0  0
  7  8  1  0  0  0  0
  7 13  1  0  0  0  0
  8  9  1  0  0  0  0
  8 11  1  0  0  0  0
  8 14  1  0  0  0  0
  9 10  2  0  0  0  0
  9 17  1  0  0  0  0
 11 12  1  0  0  0  0
 11 15  1  0  0  0  0
 11 16  1  0  0  0  0
 12 44  1  0  0  0  0
 17 18  1  0  0  0  0
 17 19  1  0  0  0  0
 18 20  1  0  0  0  0
 18 21  1  0  0  0  0
 18 22  1  0  0  0  0
 23 24  2  0  0  0  0
 23 25  1  0  0  0  0
 23 29  1  0  0  0  0
 25 26  1  0  0  0  0
 25 27  1  0  0  0  0
 25 28  1  0  0  0  0
 29 30  1  0  0  0  0
 29 34  1  0  0  0  0
 30 31  1  0  0  0  0
 30 33  1  0  0  0  0
 30 35  1  0  0  0  0
 31 32  2  0  0  0  0
 31 39  1  0  0  0  0
 33 36  1  0  0  0  0
 33 37  1  0  0  0  0
 33 38  1  0  0  0  0
 39 40  1  0  0  0  0
 39 45  1  0  0  0  0
 40 41  1  0  0  0  0
 40 43  1  0  0  0  0
 40 46  1  0  0  0  0
 41 42  2  0  0  0  0
 41 49  1  0  0  0  0
 43 44  1  0  0  0  0
 43 47  1  0  0  0  0
 43 48  1  0  0  0  0
 49 50  1  0  0  0  0
 49 54  1  0  0  0  0
 50 51  1  0  0  0  0
 50 53  1  0  0  0  0
 50 55  1  0  0  0  0
 51 52  2  0  0  0  0
 51 59  1  0  0  0  0
 53 56  1  0  0  0  0
 53 57  1  0  0  0  0
 53 58  1  0  0  0  0
 59 60  1  0  0  0  0
 59 61  1  0  0  0  0
 60 62  1  0  0  0  0
 60 63  1  0  0  0  0
 60 64  1  0  0  0  0
M  END
$$$$

  -OEChem-05262216053D

 64 63  0     1  0  0  0  0  0999 V2000
    0.8717    7.9442   -5.9294 C   0  0  0  0  0  0  0  0  0  0  0  0
   -0.3277    7.8773   -6.1506 O   0  0  0  0  0  0  0  0  0  0  0  0
    1.7278    8.9573   -6.6656 C   0  0  0  0  0  0  0  0  0  0  0  0
    2.4566    8.4412   -7.2952 H   0  0  0  0  0  0  0  0  0  0  0  0
    1.1011    9.5923   -7.2979 H   0  0  0  0  0  0  0  0  0  0  0  0
    2.2584    9.5886   -5.9486 H   0  0  0  0  0  0  0  0  0  0  0  0
    1.4486    7.1063   -5.0015 N   0  0  0  0  0  0  0  0  0  0  0  0
    0.7038    6.1807   -4.1361 C   0  0  2  0  0  0  0  0  0  0  0  0
    1.4239    5.9617   -2.7845 C   0  0  0  0  0  0  0  0  0  0  0  0
    2.4986    6.5178   -2.5717 O   0  0  0  0  0  0  0  0  0  0  0  0
    0.4820    4.8622   -4.8915 C   0  0  0  0  0  0  0  0  0  0  0  0
    2.0601    3.9700   -5.2135 S   0  0  0  0  0  0  0  0  0  0  0  0
    2.4259    7.2674   -4.7607 H   0  0  0  0  0  0  0  0  0  0  0  0
   -0.2738    6.6139   -3.9002 H   0  0  0  0  0  0  0  0  0  0  0  0
   -0.1820    4.2224   -4.3083 H   0  0  0  0  0  0  0  0  0  0  0  0
   -0.0177    5.0629   -5.8443 H   0  0  0  0  0  0  0  0  0  0  0  0
    0.8560    5.1975   -1.7807 N   0  0  0  0  0  0  0  0  0  0  0  0
    1.5606    4.8547   -0.5517 C   0  0  0  0  0  0  0  0  0  0  0  0
    0.0386    4.6309   -2.0251 H   0  0  0  0  0  0  0  0  0  0  0  0
    2.4780    4.3009   -0.7771 H   0  0  0  0  0  0  0  0  0  0  0  0
    1.8204    5.7587    0.0089 H   0  0  0  0  0  0  0  0  0  0  0  0
    0.9264    4.2256    0.0808 H   0  0  0  0  0  0  0  0  0  0  0  0
   -3.7349   -0.1774   -1.7137 C   0  0  0  0  0  0  0  0  0  0  0  0
   -3.1018   -0.7749   -2.5721 O   0  0  0  0  0  0  0  0  0  0  0  0
   -4.3409   -0.9325   -0.5461 C   0  0  0  0  0  0  0  0  0  0  0  0
   -5.4314   -0.8768   -0.5898 H   0  0  0  0  0  0  0  0  0  0  0  0
   -4.0397   -1.9837   -0.5800 H   0  0  0  0  0  0  0  0  0  0  0  0
   -3.9990   -0.5012    0.3975 H   0  0  0  0  0  0  0  0  0  0  0  0
   -3.8394    1.1976   -1.7838 N   0  0  0  0  0  0  0  0  0  0  0  0
   -3.2219    2.0159   -2.8401 C   0  0  2  0  0  0  0  0  0  0  0  0
   -1.6865    2.1226   -2.6715 C   0  0  0  0  0  0  0  0  0  0  0  0
   -1.1752    3.1426   -2.2258 O   0  0  0  0  0  0  0  0  0  0  0  0
   -3.9189    3.3825   -2.8378 C   0  0  0  0  0  0  0  0  0  0  0  0
   -4.2881    1.6717   -1.0046 H   0  0  0  0  0  0  0  0  0  0  0  0
   -3.4088    1.5528   -3.8151 H   0  0  0  0  0  0  0  0  0  0  0  0
   -3.7794    3.8883   -1.8770 H   0  0  0  0  0  0  0  0  0  0  0  0
   -3.5057    4.0198   -3.6264 H   0  0  0  0  0  0  0  0  0  0  0  0
   -4.9919    3.2634   -3.0176 H   0  0  0  0  0  0  0  0  0  0  0  0
   -0.9314    0.9996   -2.9618 N   0  0  0  0  0  0  0  0  0  0  0  0
    0.5031    0.7614   -2.7009 C   0  0  2  0  0  0  0  0  0  0  0  0
    0.7241    0.4823   -1.1986 C   0  0  0  0  0  0  0  0  0  0  0  0
    1.2808    1.2876   -0.4609 O   0  0  0  0  0  0  0  0  0  0  0  0
    1.4294    1.8787   -3.2098 C   0  0  0  0  0  0  0  0  0  0  0  0
    1.3805    2.0029   -5.0417 S   0  0  0  0  0  0  0  0  0  0  0  0
   -1.5046    0.1754   -3.1683 H   0  0  0  0  0  0  0  0  0  0  0  0
    0.7964   -0.1475   -3.2346 H   0  0  0  0  0  0  0  0  0  0  0  0
    1.1660    2.8323   -2.7585 H   0  0  0  0  0  0  0  0  0  0  0  0
    2.4594    1.6646   -2.9070 H   0  0  0  0  0  0  0  0  0  0  0  0
    0.3584   -0.7448   -0.6771 N   0  0  0  0  0  0  0  0  0  0  0  0
    0.6104   -1.1762    0.7029 C   0  0  2  0  0  0  0  0  0  0  0  0
    0.7474   -2.7085    0.8043 C   0  0  0  0  0  0  0  0  0  0  0  0
    0.2883   -3.4262   -0.0770 O   0  0  0  0  0  0  0  0  0  0  0  0
   -0.5444   -0.6824    1.5794 C   0  0  0  0  0  0  0  0  0  0  0  0
   -0.0439   -1.4341   -1.3128 H   0  0  0  0  0  0  0  0  0  0  0  0
    1.5491   -0.7388    1.0589 H   0  0  0  0  0  0  0  0  0  0  0  0
   -1.4913   -1.1169    1.2430 H   0  0  0  0  0  0  0  0  0  0  0  0
   -0.3813   -0.9652    2.6237 H   0  0  0  0  0  0  0  0  0  0  0  0
   -0.6219    0.4085    1.5264 H   0  0  0  0  0  0  0  0  0  0  0  0
    1.3947   -3.2832    1.8822 N   0  0  0  0  0  0  0  0  0  0  0  0
    1.6116   -4.7190    2.0110 C   0  0  0  0  0  0  0  0  0  0  0  0
    1.8035   -2.6608    2.5732 H   0  0  0  0  0  0  0  0  0  0  0  0
    0.6558   -5.2538    2.0120 H   0  0  0  0  0  0  0  0  0  0  0  0
    2.2227   -5.0902    1.1814 H   0  0  0  0  0  0  0  0  0  0  0  0
    2.1310   -4.9405    2.9484 H   0  0  0  0  0  0  0  0  0  0  0  0
  1  2  2  0  0  0  0
  1  3  1  0  0  0  0
  1  7  1  0  0  0  0
  3  4  1  0  0  0  0
  3  5  1  0  0  0  0
  3  6  1  0  0  0  0
  7  8  1  0  0  0  0
  7 13  1  0  0  0  0
  8  9  1  0  0  0  0
  8 11  1  0  0  0  0
  8 14  1  0  0  0  0
  9 10  2  0  0  0  0
  9 17  1  0  0  0  0
 11 12  1  0  0  0  0
 11 15  1  0  0  0  0
 11 16  1  0  0  0  0
 12 44  1  0  0  0  0
 17 18  1  0  0  0  0
 17 19  1  0  0  0  0
 18 20  1  0  0  0  0
 18 21  1  0  0  0  0
 18 22  1  0  0  0  0
 23 24  2  0  0  0  0
 23 25  1  0  0  0  0
 23 29  1  0  0  0  0
 25 26  1  0  0  0  0
 25 27  1  0  0  0  0
 25 28  1  0  0  0  0
 29 30  1  0  0  0  0
 29 34  1  0  0  0  0
 30 31  1  0  0  0  0
 30 33  1  0  0  0  0
 30 35  1  0  0  0  0
 31 32  2  0  0  0  0
 31 39  1  0  0  0  0
 33 36  1  0  0  0  0
 33 37  1  0  0  0  0
 33 38  1  0  0  0  0
 39 40  1  0  0  0  0
 39 45  1  0  0  0  0
 40 41  1  0  0  0  0
 40 43  1  0  0  0  0
 40 46  1  0  0  0  0
 41 42  2  0  0  0  0
 41 49  1  0  0  0  0
 43 44  1  0  0  0  0
 43 47  1  0  0  0  0
 43 48  1  0  0  0  0
 49 50  1  0  0  0  0
 49 54  1  0  0  0  0
 50 51  1  0  0  0  0
 50 53  1  0  0  0  0
 50 55  1  0  0  0  0
 51 52  2  0  0  0  0
 51 59  1  0  0  0  0
 53 56  1  0  0  0  0
 53 57  1  0  0  0  0
 53 58  1  0  0  0  0
 59 60  1  0  0  0  0
 59 61  1  0  0  0  0
 60 62  1  0  0  0  0
 60 63  1  0  0  0  0
 60 64  1  0  0  0  0
M  END
$$$$

  -OEChem-05262216053D

 64 63  0     1  0  0  0  0  0999 V2000
    0.8115    7.9512   -6.0134 C   0  0  0  0  0  0  0  0  0  0  0  0
   -0.3828    7.8369   -6.2428 O   0  0  0  0  0  0  0  0  0  0  0  0
    1.6335    8.9900   -6.7519 C   0  0  0  0  0  0  0  0  0  0  0  0
    2.4346    8.5016   -7.3117 H   0  0  0  0  0  0  0  0  0  0  0  0
    1.0008    9.5439   -7.4508 H   0  0  0  0  0  0  0  0  0  0  0  0
    2.0725    9.6934   -6.0404 H   0  0  0  0  0  0  0  0  0  0  0  0
    1.4138    7.1447   -5.0739 N   0  0  0  0  0  0  0  0  0  0  0  0
    0.6981    6.2058   -4.1990 C   0  0  2  0  0  0  0  0  0  0  0  0
    1.4285    6.0217   -2.8477 C   0  0  0  0  0  0  0  0  0  0  0  0
    2.4891    6.6082   -2.6452 O   0  0  0  0  0  0  0  0  0  0  0  0
    0.5096    4.8747   -4.9414 C   0  0  0  0  0  0  0  0  0  0  0  0
    2.1031    3.9985   -5.2277 S   0  0  0  0  0  0  0  0  0  0  0  0
    2.3840    7.3418   -4.8315 H   0  0  0  0  0  0  0  0  0  0  0  0
   -0.2908    6.6135   -3.9646 H   0  0  0  0  0  0  0  0  0  0  0  0
   -0.1531    4.2329   -4.3602 H   0  0  0  0  0  0  0  0  0  0  0  0
    0.0202    5.0544   -5.9036 H   0  0  0  0  0  0  0  0  0  0  0  0
    0.8823    5.2578   -1.8325 N   0  0  0  0  0  0  0  0  0  0  0  0
    1.5933    4.9513   -0.5982 C   0  0  0  0  0  0  0  0  0  0  0  0
    0.0755    4.6719   -2.0669 H   0  0  0  0  0  0  0  0  0  0  0  0
    2.5184    4.4067   -0.8133 H   0  0  0  0  0  0  0  0  0  0  0  0
    1.8402    5.8706   -0.0575 H   0  0  0  0  0  0  0  0  0  0  0  0
    0.9690    4.3269    0.0487 H   0  0  0  0  0  0  0  0  0  0  0  0
   -3.6241   -0.1038   -1.5594 C   0  0  0  0  0  0  0  0  0  0  0  0
   -3.0521   -0.7349   -2.4369 O   0  0  0  0  0  0  0  0  0  0  0  0
   -4.1299   -0.8088   -0.3157 C   0  0  0  0  0  0  0  0  0  0  0  0
   -5.2091   -0.6659   -0.2183 H   0  0  0  0  0  0  0  0  0  0  0  0
   -3.9202   -1.8805   -0.3793 H   0  0  0  0  0  0  0  0  0  0  0  0
   -3.6340   -0.4049    0.5705 H   0  0  0  0  0  0  0  0  0  0  0  0
   -3.7415    1.2667   -1.6762 N   0  0  0  0  0  0  0  0  0  0  0  0
   -3.1761    2.0430   -2.7910 C   0  0  2  0  0  0  0  0  0  0  0  0
   -1.6366    2.1616   -2.6843 C   0  0  0  0  0  0  0  0  0  0  0  0
   -1.1198    3.1971   -2.2839 O   0  0  0  0  0  0  0  0  0  0  0  0
   -3.8800    3.4058   -2.8187 C   0  0  0  0  0  0  0  0  0  0  0  0
   -4.1107    1.7720   -0.8750 H   0  0  0  0  0  0  0  0  0  0  0  0
   -3.3989    1.5385   -3.7378 H   0  0  0  0  0  0  0  0  0  0  0  0
   -3.6930    3.9589   -1.8926 H   0  0  0  0  0  0  0  0  0  0  0  0
   -3.5131    4.0040   -3.6591 H   0  0  0  0  0  0  0  0  0  0  0  0
   -4.9599    3.2738   -2.9349 H   0  0  0  0  0  0  0  0  0  0  0  0
   -0.8884    1.0332   -2.9738 N   0  0  0  0  0  0  0  0  0  0  0  0
    0.5450    0.7890   -2.7119 C   0  0  2  0  0  0  0  0  0  0  0  0
    0.7707    0.5098   -1.2102 C   0  0  0  0  0  0  0  0  0  0  0  0
    1.0663    1.4013   -0.4228 O   0  0  0  0  0  0  0  0  0  0  0  0
    1.4816    1.9004   -3.2145 C   0  0  0  0  0  0  0  0  0  0  0  0
    1.4379    2.0269   -5.0468 S   0  0  0  0  0  0  0  0  0  0  0  0
   -1.4696    0.2042   -3.1321 H   0  0  0  0  0  0  0  0  0  0  0  0
    0.8322   -0.1192   -3.2503 H   0  0  0  0  0  0  0  0  0  0  0  0
    1.2228    2.8562   -2.7641 H   0  0  0  0  0  0  0  0  0  0  0  0
    2.5087    1.6798   -2.9069 H   0  0  0  0  0  0  0  0  0  0  0  0
    0.7038   -0.7884   -0.7395 N   0  0  0  0  0  0  0  0  0  0  0  0
    0.9634   -1.1931    0.6477 C   0  0  2  0  0  0  0  0  0  0  0  0
    1.4163   -2.6650    0.7339 C   0  0  0  0  0  0  0  0  0  0  0  0
    1.2185   -3.4237   -0.2085 O   0  0  0  0  0  0  0  0  0  0  0  0
   -0.3177   -0.9839    1.4623 C   0  0  0  0  0  0  0  0  0  0  0  0
    0.5181   -1.5342   -1.4106 H   0  0  0  0  0  0  0  0  0  0  0  0
    1.7663   -0.5761    1.0652 H   0  0  0  0  0  0  0  0  0  0  0  0
   -1.1293   -1.6006    1.0623 H   0  0  0  0  0  0  0  0  0  0  0  0
   -0.1551   -1.2573    2.5092 H   0  0  0  0  0  0  0  0  0  0  0  0
   -0.6256    0.0660    1.4248 H   0  0  0  0  0  0  0  0  0  0  0  0
    2.0400   -3.1418    1.8722 N   0  0  0  0  0  0  0  0  0  0  0  0
    2.4996   -4.5183    2.0143 C   0  0  0  0  0  0  0  0  0  0  0  0
    2.2161   -2.4836    2.6260 H   0  0  0  0  0  0  0  0  0  0  0  0
    1.6604   -5.2147    1.9131 H   0  0  0  0  0  0  0  0  0  0  0  0
    3.2474   -4.7536    1.2495 H   0  0  0  0  0  0  0  0  0  0  0  0
    2.9538   -4.6667    2.9988 H   0  0  0  0  0  0  0  0  0  0  0  0
  1  2  2  0  0  0  0
  1  3  1  0  0  0  0
  1  7  1  0  0  0  0
  3  4  1  0  0  0  0
  3  5  1  0  0  0  0
  3  6  1  0  0  0  0
  7  8  1  0  0  0  0
  7 13  1  0  0  0  0
  8  9  1  0  0  0  0
  8 11  1  0  0  0  0
  8 14  1  0  0  0  0
  9 10  2  0  0  0  0
  9 17  1  0  0  0  0
 11 12  1  0  0  0  0
 11 15  1  0  0  0  0
 11 16  1  0  0  0  0
 12 44  1  0  0  0  0
 17 18  1  0  0  0  0
 17 19  1  0  0  0  0
 18 20  1  0  0  0  0
 18 21  1  0  0  0  0
 18 22  1  0  0  0  0
 23 24  2  0  0  0  0
 23 25  1  0  0  0  0
 23 29  1  0  0  0  0
 25 26  1  0  0  0  0
 25 27  1  0  0  0  0
 25 28  1  0  0  0  0
 29 30  1  0  0  0  0
 29 34  1  0  0  0  0
 30 31  1  0  0  0  0
 30 33  1  0  0  0  0
 30 35  1  0  0  0  0
 31 32  2  0  0  0  0
 31 39  1  0  0  0  0
 33 36  1  0  0  0  0
 33 37  1  0  0  0  0
 33 38  1  0  0  0  0
 39 40  1  0  0  0  0
 39 45  1  0  0  0  0
 40 41  1  0  0  0  0
 40 43  1  0  0  0  0
 40 46  1  0  0  0  0
 41 42  2  0  0  0  0
 41 49  1  0  0  0  0
 43 44  1  0  0  0  0
 43 47  1  0  0  0  0
 43 48  1  0  0  0  0
 49 50  1  0  0  0  0
 49 54  1  0  0  0  0
 50 51  1  0  0  0  0
 50 53  1  0  0  0  0
 50 55  1  0  0  0  0
 51 52  2  0  0  0  0
 51 59  1  0  0  0  0
 53 56  1  0  0  0  0
 53 57  1  0  0  0  0
 53 58  1  0  0  0  0
 59 60  1  0  0  0  0
 59 61  1  0  0  0  0
 60 62  1  0  0  0  0
 60 63  1  0  0  0  0
 60 64  1  0  0  0  0
M  END
$$$$

  -OEChem-05262216053D

 64 63  0     1  0  0  0  0  0999 V2000
    1.0653    7.9766   -6.1880 C   0  0  0  0  0  0  0  0  0  0  0  0
   -0.1165    7.9210   -6.4910 O   0  0  0  0  0  0  0  0  0  0  0  0
    1.9976    8.9151   -6.9296 C   0  0  0  0  0  0  0  0  0  0  0  0
    2.7072    8.3373   -7.5267 H   0  0  0  0  0  0  0  0  0  0  0  0
    1.4254    9.5683   -7.5940 H   0  0  0  0  0  0  0  0  0  0  0  0
    2.5495    9.5340   -6.2181 H   0  0  0  0  0  0  0  0  0  0  0  0
    1.5556    7.1865   -5.1724 N   0  0  0  0  0  0  0  0  0  0  0  0
    0.7344    6.3082   -4.3272 C   0  0  2  0  0  0  0  0  0  0  0  0
    1.3477    6.1286   -2.9185 C   0  0  0  0  0  0  0  0  0  0  0  0
    2.4053    6.6875   -2.6383 O   0  0  0  0  0  0  0  0  0  0  0  0
    0.5456    4.9637   -5.0434 C   0  0  0  0  0  0  0  0  0  0  0  0
    2.1303    4.0448   -5.2249 S   0  0  0  0  0  0  0  0  0  0  0  0
    2.5190    7.3361   -4.8763 H   0  0  0  0  0  0  0  0  0  0  0  0
   -0.2500    6.7649   -4.1818 H   0  0  0  0  0  0  0  0  0  0  0  0
   -0.1642    4.3542   -4.4816 H   0  0  0  0  0  0  0  0  0  0  0  0
    0.1126    5.1311   -6.0345 H   0  0  0  0  0  0  0  0  0  0  0  0
    0.7042    5.3871   -1.9441 N   0  0  0  0  0  0  0  0  0  0  0  0
    1.3078    5.0746   -0.6554 C   0  0  0  0  0  0  0  0  0  0  0  0
   -0.0876    4.8087   -2.2409 H   0  0  0  0  0  0  0  0  0  0  0  0
    2.2409    4.5188   -0.7934 H   0  0  0  0  0  0  0  0  0  0  0  0
    1.5199    5.9914   -0.0961 H   0  0  0  0  0  0  0  0  0  0  0  0
    0.6249    4.4581   -0.0626 H   0  0  0  0  0  0  0  0  0  0  0  0
   -3.4875   -0.1748   -1.3772 C   0  0  0  0  0  0  0  0  0  0  0  0
   -2.9711   -0.7971   -2.2943 O   0  0  0  0  0  0  0  0  0  0  0  0
   -3.8724   -0.8843   -0.0932 C   0  0  0  0  0  0  0  0  0  0  0  0
   -4.9317   -0.7219    0.1204 H   0  0  0  0  0  0  0  0  0  0  0  0
   -3.6941   -1.9592   -0.1884 H   0  0  0  0  0  0  0  0  0  0  0  0
   -3.2776   -0.5005    0.7392 H   0  0  0  0  0  0  0  0  0  0  0  0
   -3.6636    1.1889   -1.4953 N   0  0  0  0  0  0  0  0  0  0  0  0
   -3.2460    1.9756   -2.6671 C   0  0  2  0  0  0  0  0  0  0  0  0
   -1.7121    2.1799   -2.7075 C   0  0  0  0  0  0  0  0  0  0  0  0
   -1.2232    3.2724   -2.4469 O   0  0  0  0  0  0  0  0  0  0  0  0
   -4.0252    3.2968   -2.6364 C   0  0  0  0  0  0  0  0  0  0  0  0
   -3.9767    1.6888   -0.6674 H   0  0  0  0  0  0  0  0  0  0  0  0
   -3.5285    1.4462   -3.5838 H   0  0  0  0  0  0  0  0  0  0  0  0
   -3.7874    3.8660   -1.7320 H   0  0  0  0  0  0  0  0  0  0  0  0
   -3.7684    3.9090   -3.5069 H   0  0  0  0  0  0  0  0  0  0  0  0
   -5.1023    3.1051   -2.6558 H   0  0  0  0  0  0  0  0  0  0  0  0
   -0.9333    1.0673   -2.9791 N   0  0  0  0  0  0  0  0  0  0  0  0
    0.5031    0.8679   -2.6947 C   0  0  2  0  0  0  0  0  0  0  0  0
    0.7250    0.6079   -1.1893 C   0  0  0  0  0  0  0  0  0  0  0  0
    0.6632    1.5119   -0.3644 O   0  0  0  0  0  0  0  0  0  0  0  0
    1.4265    1.9923   -3.1886 C   0  0  0  0  0  0  0  0  0  0  0  0
    1.4116    2.0959   -5.0224 S   0  0  0  0  0  0  0  0  0  0  0  0
   -1.4947    0.2132   -3.0531 H   0  0  0  0  0  0  0  0  0  0  0  0
    0.8162   -0.0362   -3.2255 H   0  0  0  0  0  0  0  0  0  0  0  0
    1.1432    2.9477   -2.7517 H   0  0  0  0  0  0  0  0  0  0  0  0
    2.4521    1.7941   -2.8631 H   0  0  0  0  0  0  0  0  0  0  0  0
    1.0059   -0.6711   -0.7461 N   0  0  0  0  0  0  0  0  0  0  0  0
    1.2589   -1.0413    0.6518 C   0  0  2  0  0  0  0  0  0  0  0  0
    2.0658   -2.3528    0.7499 C   0  0  0  0  0  0  0  0  0  0  0  0
    2.1723   -3.0822   -0.2298 O   0  0  0  0  0  0  0  0  0  0  0  0
   -0.0878   -1.1889    1.3698 C   0  0  0  0  0  0  0  0  0  0  0  0
    1.1153   -1.4086   -1.4429 H   0  0  0  0  0  0  0  0  0  0  0  0
    1.8470   -0.2552    1.1375 H   0  0  0  0  0  0  0  0  0  0  0  0
   -0.6952   -1.9617    0.8876 H   0  0  0  0  0  0  0  0  0  0  0  0
    0.0632   -1.4670    2.4171 H   0  0  0  0  0  0  0  0  0  0  0  0
   -0.6396   -0.2442    1.3422 H   0  0  0  0  0  0  0  0  0  0  0  0
    2.6786   -2.7134    1.9359 N   0  0  0  0  0  0  0  0  0  0  0  0
    3.4690   -3.9289    2.0908 C   0  0  0  0  0  0  0  0  0  0  0  0
    2.5907   -2.0799    2.7252 H   0  0  0  0  0  0  0  0  0  0  0  0
    2.8386   -4.8150    1.9622 H   0  0  0  0  0  0  0  0  0  0  0  0
    4.2753   -3.9596    1.3502 H   0  0  0  0  0  0  0  0  0  0  0  0
    3.9168   -3.9642    3.0886 H   0  0  0  0  0  0  0  0  0  0  0  0
  1  2  2  0  0  0  0
  1  3  1  0  0  0  0
  1  7  1  0  0  0  0
  3  4  1  0  0  0  0
  3  5  1  0  0  0  0
  3  6  1  0  0  0  0
  7  8  1  0  0  0  0
  7 13  1  0  0  0  0
  8  9  1  0  0  0  0
  8 11  1  0  0  0  0
  8 14  1  0  0  0  0
  9 10  2  0  0  0  0
  9 17  1  0  0  0  0
 11 12  1  0  0  0  0
 11 15  1  0  0  0  0
 11 16  1  0  0  0  0
 12 44  1  0  0  0  0
 17 18  1  0  0  0  0
 17 19  1  0  0  0  0
 18 20  1  0  0  0  0
 18 21  1  0  0  0  0
 18 22  1  0  0  0  0
 23 24  2  0  0  0  0
 23 25  1  0  0  0  0
 23 29  1  0  0  0  0
 25 26  1  0  0  0  0
 25 27  1  0  0  0  0
 25 28  1  0  0  0  0
 29 30  1  0  0  0  0
 29 34  1  0  0  0  0
 30 31  1  0  0  0  0
 30 33  1  0  0  0  0
 30 35  1  0  0  0  0
 31 32  2  0  0  0  0
 31 39  1  0  0  0  0
 33 36  1  0  0  0  0
 33 37  1  0  0  0  0
 33 38  1  0  0  0  0
 39 40  1  0  0  0  0
 39 45  1  0  0  0  0
 40 41  1  0  0  0  0
 40 43  1  0  0  0  0
 40 46  1  0  0  0  0
 41 42  2  0  0  0  0
 41 49  1  0  0  0  0
 43 44  1  0  0  0  0
 43 47  1  0  0  0  0
 43 48  1  0  0  0  0
 49 50  1  0  0  0  0
 49 54  1  0  0  0  0
 50 51  1  0  0  0  0
 50 53  1  0  0  0  0
 50 55  1  0  0  0  0
 51 52  2  0  0  0  0
 51 59  1  0  0  0  0
 53 56  1  0  0  0  0
 53 57  1  0  0  0  0
 53 58  1  0  0  0  0
 59 60  1  0  0  0  0
 59 61  1  0  0  0  0
 60 62  1  0  0  0  0
 60 63  1  0  0  0  0
 60 64  1  0  0  0  0
M  END
$$$$

  -OEChem-05262216053D

 64 63  0     1  0  0  0  0  0999 V2000
    1.2050    7.9010   -6.1747 C   0  0  0  0  0  0  0  0  0  0  0  0
    0.0277    7.8781   -6.4990 O   0  0  0  0  0  0  0  0  0  0  0  0
    2.1699    8.8375   -6.8770 C   0  0  0  0  0  0  0  0  0  0  0  0
    2.9356    8.2587   -7.3993 H   0  0  0  0  0  0  0  0  0  0  0  0
    1.6340    9.4530   -7.6050 H   0  0  0  0  0  0  0  0  0  0  0  0
    2.6519    9.4935   -6.1478 H   0  0  0  0  0  0  0  0  0  0  0  0
    1.6584    7.0822   -5.1644 N   0  0  0  0  0  0  0  0  0  0  0  0
    0.7988    6.2239   -4.3365 C   0  0  2  0  0  0  0  0  0  0  0  0
    1.3845    6.0273   -2.9183 C   0  0  0  0  0  0  0  0  0  0  0  0
    2.4645    6.5363   -2.6281 O   0  0  0  0  0  0  0  0  0  0  0  0
    0.5832    4.8864   -5.0596 C   0  0  0  0  0  0  0  0  0  0  0  0
    2.1416    3.9184   -5.2128 S   0  0  0  0  0  0  0  0  0  0  0  0
    2.6202    7.2037   -4.8501 H   0  0  0  0  0  0  0  0  0  0  0  0
   -0.1749    6.7075   -4.2052 H   0  0  0  0  0  0  0  0  0  0  0  0
   -0.1556    4.2981   -4.5135 H   0  0  0  0  0  0  0  0  0  0  0  0
    0.1738    5.0689   -6.0580 H   0  0  0  0  0  0  0  0  0  0  0  0
    0.6904    5.3323   -1.9447 N   0  0  0  0  0  0  0  0  0  0  0  0
    1.2553    5.0144   -0.6398 C   0  0  0  0  0  0  0  0  0  0  0  0
   -0.1237    4.7890   -2.2480 H   0  0  0  0  0  0  0  0  0  0  0  0
    2.1745    4.4304   -0.7519 H   0  0  0  0  0  0  0  0  0  0  0  0
    1.4821    5.9306   -0.0853 H   0  0  0  0  0  0  0  0  0  0  0  0
    0.5416    4.4240   -0.0564 H   0  0  0  0  0  0  0  0  0  0  0  0
   -3.6433   -0.0264   -1.3225 C   0  0  0  0  0  0  0  0  0  0  0  0
   -3.1596   -0.7084   -2.2150 O   0  0  0  0  0  0  0  0  0  0  0  0
   -3.9991   -0.6532    0.0118 C   0  0  0  0  0  0  0  0  0  0  0  0
   -5.0511   -0.4697    0.2430 H   0  0  0  0  0  0  0  0  0  0  0  0
   -3.8303   -1.7331   -0.0219 H   0  0  0  0  0  0  0  0  0  0  0  0
   -3.3782   -0.2240    0.8021 H   0  0  0  0  0  0  0  0  0  0  0  0
   -3.7956    1.3321   -1.5124 N   0  0  0  0  0  0  0  0  0  0  0  0
   -3.3407    2.0442   -2.7169 C   0  0  2  0  0  0  0  0  0  0  0  0
   -1.8014    2.2041   -2.7374 C   0  0  0  0  0  0  0  0  0  0  0  0
   -1.2887    3.2940   -2.5132 O   0  0  0  0  0  0  0  0  0  0  0  0
   -4.0835    3.3851   -2.7712 C   0  0  0  0  0  0  0  0  0  0  0  0
   -4.0528    1.8844   -0.6985 H   0  0  0  0  0  0  0  0  0  0  0  0
   -3.6220    1.4748   -3.6097 H   0  0  0  0  0  0  0  0  0  0  0  0
   -3.8413    3.9974   -1.8966 H   0  0  0  0  0  0  0  0  0  0  0  0
   -3.7985    3.9392   -3.6713 H   0  0  0  0  0  0  0  0  0  0  0  0
   -5.1651    3.2212   -2.7954 H   0  0  0  0  0  0  0  0  0  0  0  0
   -1.0466    1.0640   -2.9612 N   0  0  0  0  0  0  0  0  0  0  0  0
    0.3815    0.8430   -2.6491 C   0  0  2  0  0  0  0  0  0  0  0  0
    0.6009    0.6264   -1.1356 C   0  0  0  0  0  0  0  0  0  0  0  0
    0.2800    1.4743   -0.3107 O   0  0  0  0  0  0  0  0  0  0  0  0
    1.3405    1.9305   -3.1556 C   0  0  0  0  0  0  0  0  0  0  0  0
    1.3655    1.9930   -4.9910 S   0  0  0  0  0  0  0  0  0  0  0  0
   -1.6273    0.2209   -3.0031 H   0  0  0  0  0  0  0  0  0  0  0  0
    0.6755   -0.0836   -3.1506 H   0  0  0  0  0  0  0  0  0  0  0  0
    1.0747    2.9021   -2.7451 H   0  0  0  0  0  0  0  0  0  0  0  0
    2.3556    1.7133   -2.8089 H   0  0  0  0  0  0  0  0  0  0  0  0
    1.1576   -0.5546   -0.6812 N   0  0  0  0  0  0  0  0  0  0  0  0
    1.5337   -0.8202    0.7133 C   0  0  2  0  0  0  0  0  0  0  0  0
    2.6877   -1.8407    0.7969 C   0  0  0  0  0  0  0  0  0  0  0  0
    2.9929   -2.5027   -0.1890 O   0  0  0  0  0  0  0  0  0  0  0  0
    0.3034   -1.3402    1.4639 C   0  0  0  0  0  0  0  0  0  0  0  0
    1.4987   -1.2193   -1.3763 H   0  0  0  0  0  0  0  0  0  0  0  0
    1.8808    0.1064    1.1831 H   0  0  0  0  0  0  0  0  0  0  0  0
   -0.0597   -2.2663    1.0065 H   0  0  0  0  0  0  0  0  0  0  0  0
    0.5486   -1.5411    2.5112 H   0  0  0  0  0  0  0  0  0  0  0  0
   -0.5007   -0.5982    1.4357 H   0  0  0  0  0  0  0  0  0  0  0  0
    3.3961   -2.0053    1.9727 N   0  0  0  0  0  0  0  0  0  0  0  0
    4.5135   -2.9318    2.1085 C   0  0  0  0  0  0  0  0  0  0  0  0
    3.1416   -1.4214    2.7641 H   0  0  0  0  0  0  0  0  0  0  0  0
    4.1840   -3.9594    1.9219 H   0  0  0  0  0  0  0  0  0  0  0  0
    5.3079   -2.6819    1.3972 H   0  0  0  0  0  0  0  0  0  0  0  0
    4.9272   -2.8803    3.1203 H   0  0  0  0  0  0  0  0  0  0  0  0
  1  2  2  0  0  0  0
  1  3  1  0  0  0  0
  1  7  1  0  0  0  0
  3  4  1  0  0  0  0
  3  5  1  0  0  0  0
  3  6  1  0  0  0  0
  7  8  1  0  0  0  0
  7 13  1  0  0  0  0
  8  9  1  0  0  0  0
  8 11  1  0  0  0  0
  8 14  1  0  0  0  0
  9 10  2  0  0  0  0
  9 17  1  0  0  0  0
 11 12  1  0  0  0  0
 11 15  1  0  0  0  0
 11 16  1  0  0  0  0
 12 44  1  0  0  0  0
 17 18  1  0  0  0  0
 17 19  1  0  0  0  0
 18 20  1  0  0  0  0
 18 21  1  0  0  0  0
 18 22  1  0  0  0  0
 23 24  2  0  0  0  0
 23 25  1  0  0  0  0
 23 29  1  0  0  0  0
 25 26  1  0  0  0  0
 25 27  1  0  0  0  0
 25 28  1  0  0  0  0
 29 30  1  0  0  0  0
 29 34  1  0  0  0  0
 30 31  1  0  0  0  0
 30 33  1  0  0  0  0
 30 35  1  0  0  0  0
 31 32  2  0  0  0  0
 31 39  1  0  0  0  0
 33 36  1  0  0  0  0
 33 37  1  0  0  0  0
 33 38  1  0  0  0  0
 39 40  1  0  0  0  0
 39 45  1  0  0  0  0
 40 41  1  0  0  0  0
 40 43  1  0  0  0  0
 40 46  1  0  0  0  0
 41 42  2  0  0  0  0
 41 49  1  0  0  0  0
 43 44  1  0  0  0  0
 43 47  1  0  0  0  0
 43 48  1  0  0  0  0
 49 50  1  0  0  0  0
 49 54  1  0  0  0  0
 50 51  1  0  0  0  0
 50 53  1  0  0  0  0
 50 55  1  0  0  0  0
 51 52  2  0  0  0  0
 51 59  1  0  0  0  0
 53 56  1  0  0  0  0
 53 57  1  0  0  0  0
 53 58  1  0  0  0  0
 59 60  1  0  0  0  0
 59 61  1  0  0  0  0
 60 62  1  0  0  0  0
 60 63  1  0  0  0  0
 60 64  1  0  0  0  0
M  END
$$$$

  -OEChem-05262216053D

 64 63  0     1  0  0  0  0  0999 V2000
    0.3718    7.6858   -5.8348 C   0  0  0  0  0  0  0  0  0  0  0  0
   -0.7800    7.3978   -6.1225 O   0  0  0  0  0  0  0  0  0  0  0  0
    1.0966    8.7811   -6.5938 C   0  0  0  0  0  0  0  0  0  0  0  0
    1.9825    8.3697   -7.0836 H   0  0  0  0  0  0  0  0  0  0  0  0
    0.4397    9.2102   -7.3556 H   0  0  0  0  0  0  0  0  0  0  0  0
    1.4026    9.5733   -5.9060 H   0  0  0  0  0  0  0  0  0  0  0  0
    1.0132    7.0160   -4.8165 N   0  0  0  0  0  0  0  0  0  0  0  0
    0.3772    6.0155   -3.9477 C   0  0  2  0  0  0  0  0  0  0  0  0
    1.0485    5.9561   -2.5554 C   0  0  0  0  0  0  0  0  0  0  0  0
    1.9914    6.7012   -2.3031 O   0  0  0  0  0  0  0  0  0  0  0  0
    0.3999    4.6531   -4.6553 C   0  0  0  0  0  0  0  0  0  0  0  0
    2.1058    3.9827   -4.8219 S   0  0  0  0  0  0  0  0  0  0  0  0
    1.9325    7.3517   -4.5314 H   0  0  0  0  0  0  0  0  0  0  0  0
   -0.6664    6.2994   -3.7770 H   0  0  0  0  0  0  0  0  0  0  0  0
   -0.2098    3.9476   -4.0904 H   0  0  0  0  0  0  0  0  0  0  0  0
   -0.0500    4.7425   -5.6490 H   0  0  0  0  0  0  0  0  0  0  0  0
    0.5764    5.1177   -1.5619 N   0  0  0  0  0  0  0  0  0  0  0  0
    1.2216    4.9658   -0.2651 C   0  0  0  0  0  0  0  0  0  0  0  0
   -0.1361    4.4284   -1.8191 H   0  0  0  0  0  0  0  0  0  0  0  0
    2.2642    4.6549   -0.3878 H   0  0  0  0  0  0  0  0  0  0  0  0
    1.1952    5.9094    0.2893 H   0  0  0  0  0  0  0  0  0  0  0  0
    0.7021    4.2025    0.3231 H   0  0  0  0  0  0  0  0  0  0  0  0
   -4.7080    1.6587   -1.2015 C   0  0  0  0  0  0  0  0  0  0  0  0
   -4.8153    0.4479   -1.3184 O   0  0  0  0  0  0  0  0  0  0  0  0
   -5.4310    2.3798   -0.0788 C   0  0  0  0  0  0  0  0  0  0  0  0
   -6.0387    3.1920   -0.4853 H   0  0  0  0  0  0  0  0  0  0  0  0
   -6.0859    1.6856    0.4553 H   0  0  0  0  0  0  0  0  0  0  0  0
   -4.7058    2.7931    0.6268 H   0  0  0  0  0  0  0  0  0  0  0  0
   -3.9221    2.3748   -2.0815 N   0  0  0  0  0  0  0  0  0  0  0  0
   -3.0016    1.7457   -3.0399 C   0  0  2  0  0  0  0  0  0  0  0  0
   -1.5393    1.8061   -2.5550 C   0  0  0  0  0  0  0  0  0  0  0  0
   -1.1387    2.8420   -2.0360 O   0  0  0  0  0  0  0  0  0  0  0  0
   -3.1464    2.4742   -4.3787 C   0  0  0  0  0  0  0  0  0  0  0  0
   -3.7208    3.3357   -1.8148 H   0  0  0  0  0  0  0  0  0  0  0  0
   -3.2658    0.6943   -3.1936 H   0  0  0  0  0  0  0  0  0  0  0  0
   -2.8921    3.5337   -4.2728 H   0  0  0  0  0  0  0  0  0  0  0  0
   -2.4824    2.0324   -5.1285 H   0  0  0  0  0  0  0  0  0  0  0  0
   -4.1764    2.3988   -4.7406 H   0  0  0  0  0  0  0  0  0  0  0  0
   -0.6926    0.7401   -2.8195 N   0  0  0  0  0  0  0  0  0  0  0  0
    0.7366    0.5944   -2.4558 C   0  0  2  0  0  0  0  0  0  0  0  0
    0.9684    0.2829   -0.9594 C   0  0  0  0  0  0  0  0  0  0  0  0
    0.3654    0.8720   -0.0725 O   0  0  0  0  0  0  0  0  0  0  0  0
    1.6076    1.7908   -2.8680 C   0  0  0  0  0  0  0  0  0  0  0  0
    1.6671    1.9469   -4.6979 S   0  0  0  0  0  0  0  0  0  0  0  0
   -1.1497   -0.0761   -3.2157 H   0  0  0  0  0  0  0  0  0  0  0  0
    1.1145   -0.2696   -3.0099 H   0  0  0  0  0  0  0  0  0  0  0  0
    1.2433    2.7121   -2.4151 H   0  0  0  0  0  0  0  0  0  0  0  0
    2.6296    1.6472   -2.5032 H   0  0  0  0  0  0  0  0  0  0  0  0
    1.8693   -0.7032   -0.6013 N   0  0  0  0  0  0  0  0  0  0  0  0
    2.2660   -1.0124    0.7786 C   0  0  2  0  0  0  0  0  0  0  0  0
    3.7115   -1.5499    0.8336 C   0  0  0  0  0  0  0  0  0  0  0  0
    4.2914   -1.8510   -0.2046 O   0  0  0  0  0  0  0  0  0  0  0  0
    1.2851   -2.0415    1.3495 C   0  0  0  0  0  0  0  0  0  0  0  0
    2.4624   -1.0924   -1.3345 H   0  0  0  0  0  0  0  0  0  0  0  0
    2.2314   -0.1030    1.3880 H   0  0  0  0  0  0  0  0  0  0  0  0
    1.3048   -2.9607    0.7549 H   0  0  0  0  0  0  0  0  0  0  0  0
    1.5446   -2.2891    2.3833 H   0  0  0  0  0  0  0  0  0  0  0  0
    0.2664   -1.6409    1.3385 H   0  0  0  0  0  0  0  0  0  0  0  0
    4.3699   -1.6818    2.0423 N   0  0  0  0  0  0  0  0  0  0  0  0
    5.7401   -2.1664    2.1569 C   0  0  0  0  0  0  0  0  0  0  0  0
    3.8717   -1.4087    2.8848 H   0  0  0  0  0  0  0  0  0  0  0  0
    5.8229   -3.1801    1.7510 H   0  0  0  0  0  0  0  0  0  0  0  0
    6.4253   -1.5105    1.6096 H   0  0  0  0  0  0  0  0  0  0  0  0
    6.0479   -2.1881    3.2067 H   0  0  0  0  0  0  0  0  0  0  0  0
  1  2  2  0  0  0  0
  1  3  1  0  0  0  0
  1  7  1  0  0  0  0
  3  4  1  0  0  0  0
  3  5  1  0  0  0  0
  3  6  1  0  0  0  0
  7  8  1  0  0  0  0
  7 13  1  0  0  0  0
  8  9  1  0  0  0  0
  8 11  1  0  0  0  0
  8 14  1  0  0  0  0
  9 10  2  0  0  0  0
  9 17  1  0  0  0  0
 11 12  1  0  0  0  0
 11 15  1  0  0  0  0
 11 16  1  0  0  0  0
 12 44  1  0  0  0  0
 17 18  1  0  0  0  0
 17 19  1  0  0  0  0
 18 20  1  0  0  0  0
 18 21  1  0  0  0  0
 18 22  1  0  0  0  0
 23 24  2  0  0  0  0
 23 25  1  0  0  0  0
 23 29  1  0  0  0  0
 25 26  1  0  0  0  0
 25 27  1  0  0  0  0
 25 28  1  0  0  0  0
 29 30  1  0  0  0  0
 29 34  1  0  0  0  0
 30 31  1  0  0  0  0
 30 33  1  0  0  0  0
 30 35  1  0  0  0  0
 31 32  2  0  0  0  0
 31 39  1  0  0  0  0
 33 36  1  0  0  0  0
 33 37  1  0  0  0  0
 33 38  1  0  0  0  0
 39 40  1  0  0  0  0
 39 45  1  0  0  0  0
 40 41  1  0  0  0  0
 40 43  1  0  0  0  0
 40 46  1  0  0  0  0
 41 42  2  0  0  0  0
 41 49  1  0  0  0  0
 43 44  1  0  0  0  0
 43 47  1  0  0  0  0
 43 48  1  0  0  0  0
 49 50  1  0  0  0  0
 49 54  1  0  0  0  0
 50 51  1  0  0  0  0
 50 53  1  0  0  0  0
 50 55  1  0  0  0  0
 51 52  2  0  0  0  0
 51 59  1  0  0  0  0
 53 56  1  0  0  0  0
 53 57  1  0  0  0  0
 53 58  1  0  0  0  0
 59 60  1  0  0  0  0
 59 61  1  0  0  0  0
 60 62  1  0  0  0  0
 60 63  1  0  0  0  0
 60 64  1  0  0  0  0
M  END
$$$$

  -OEChem-05262216053D

 64 63  0     1  0  0  0  0  0999 V2000
    0.3965    7.6213   -5.9536 C   0  0  0  0  0  0  0  0  0  0  0  0
   -0.7361    7.2912   -6.2700 O   0  0  0  0  0  0  0  0  0  0  0  0
    1.1221    8.7019   -6.7322 C   0  0  0  0  0  0  0  0  0  0  0  0
    2.0259    8.2897   -7.1872 H   0  0  0  0  0  0  0  0  0  0  0  0
    0.4771    9.0950   -7.5229 H   0  0  0  0  0  0  0  0  0  0  0  0
    1.3999    9.5208   -6.0644 H   0  0  0  0  0  0  0  0  0  0  0  0
    1.0156    7.0153   -4.8829 N   0  0  0  0  0  0  0  0  0  0  0  0
    0.3670    6.0483   -3.9862 C   0  0  2  0  0  0  0  0  0  0  0  0
    0.9842    6.0750   -2.5687 C   0  0  0  0  0  0  0  0  0  0  0  0
    1.8669    6.8866   -2.3042 O   0  0  0  0  0  0  0  0  0  0  0  0
    0.4424    4.6513   -4.6157 C   0  0  0  0  0  0  0  0  0  0  0  0
    2.1690    4.0218   -4.7025 S   0  0  0  0  0  0  0  0  0  0  0  0
    1.9116    7.3932   -4.5776 H   0  0  0  0  0  0  0  0  0  0  0  0
   -0.6875    6.3189   -3.8695 H   0  0  0  0  0  0  0  0  0  0  0  0
   -0.1640    3.9618   -4.0271 H   0  0  0  0  0  0  0  0  0  0  0  0
    0.0170    4.6752   -5.6238 H   0  0  0  0  0  0  0  0  0  0  0  0
    0.5232    5.2397   -1.5667 N   0  0  0  0  0  0  0  0  0  0  0  0
    1.0986    5.1970   -0.2295 C   0  0  0  0  0  0  0  0  0  0  0  0
   -0.1363    4.5004   -1.8259 H   0  0  0  0  0  0  0  0  0  0  0  0
    2.1614    4.9378   -0.2763 H   0  0  0  0  0  0  0  0  0  0  0  0
    0.9909    6.1672    0.2667 H   0  0  0  0  0  0  0  0  0  0  0  0
    0.5847    4.4422    0.3738 H   0  0  0  0  0  0  0  0  0  0  0  0
   -4.9193    1.8556   -1.3165 C   0  0  0  0  0  0  0  0  0  0  0  0
   -5.3490    0.7858   -1.7177 O   0  0  0  0  0  0  0  0  0  0  0  0
   -5.5870    2.5514   -0.1458 C   0  0  0  0  0  0  0  0  0  0  0  0
   -5.8847    3.5629   -0.4322 H   0  0  0  0  0  0  0  0  0  0  0  0
   -6.4773    1.9968    0.1634 H   0  0  0  0  0  0  0  0  0  0  0  0
   -4.8948    2.6074    0.6980 H   0  0  0  0  0  0  0  0  0  0  0  0
   -3.8179    2.4303   -1.9153 N   0  0  0  0  0  0  0  0  0  0  0  0
   -2.9614    1.7458   -2.8940 C   0  0  2  0  0  0  0  0  0  0  0  0
   -1.4760    1.8161   -2.4866 C   0  0  0  0  0  0  0  0  0  0  0  0
   -1.0651    2.8346   -1.9386 O   0  0  0  0  0  0  0  0  0  0  0  0
   -3.1765    2.4096   -4.2569 C   0  0  0  0  0  0  0  0  0  0  0  0
   -3.4172    3.2403   -1.4456 H   0  0  0  0  0  0  0  0  0  0  0  0
   -3.2337    0.6877   -2.9682 H   0  0  0  0  0  0  0  0  0  0  0  0
   -2.9157    3.4721   -4.2147 H   0  0  0  0  0  0  0  0  0  0  0  0
   -2.5561    1.9300   -5.0203 H   0  0  0  0  0  0  0  0  0  0  0  0
   -4.2254    2.3209   -4.5572 H   0  0  0  0  0  0  0  0  0  0  0  0
   -0.6328    0.7571   -2.7885 N   0  0  0  0  0  0  0  0  0  0  0  0
    0.7884    0.6000   -2.3997 C   0  0  2  0  0  0  0  0  0  0  0  0
    0.9870    0.2238   -0.9133 C   0  0  0  0  0  0  0  0  0  0  0  0
    0.1408    0.4720   -0.0639 O   0  0  0  0  0  0  0  0  0  0  0  0
    1.6757    1.8006   -2.7682 C   0  0  0  0  0  0  0  0  0  0  0  0
    1.7650    1.9794   -4.5948 S   0  0  0  0  0  0  0  0  0  0  0  0
   -1.0957   -0.0608   -3.1745 H   0  0  0  0  0  0  0  0  0  0  0  0
    1.1717   -0.2507   -2.9706 H   0  0  0  0  0  0  0  0  0  0  0  0
    1.3103    2.7193   -2.3081 H   0  0  0  0  0  0  0  0  0  0  0  0
    2.6906    1.6443   -2.3892 H   0  0  0  0  0  0  0  0  0  0  0  0
    2.0839   -0.5335   -0.5456 N   0  0  0  0  0  0  0  0  0  0  0  0
    2.4333   -0.8736    0.8400 C   0  0  2  0  0  0  0  0  0  0  0  0
    3.9634   -0.9065    1.0355 C   0  0  0  0  0  0  0  0  0  0  0  0
    4.7035   -0.8778    0.0579 O   0  0  0  0  0  0  0  0  0  0  0  0
    1.8137   -2.2331    1.1766 C   0  0  0  0  0  0  0  0  0  0  0  0
    2.8305   -0.6438   -1.2323 H   0  0  0  0  0  0  0  0  0  0  0  0
    2.0346   -0.1164    1.5234 H   0  0  0  0  0  0  0  0  0  0  0  0
    2.2031   -3.0084    0.5091 H   0  0  0  0  0  0  0  0  0  0  0  0
    2.0422   -2.5155    2.2086 H   0  0  0  0  0  0  0  0  0  0  0  0
    0.7256   -2.1911    1.0646 H   0  0  0  0  0  0  0  0  0  0  0  0
    4.5116   -0.9440    2.3043 N   0  0  0  0  0  0  0  0  0  0  0  0
    5.9474   -0.9373    2.5560 C   0  0  0  0  0  0  0  0  0  0  0  0
    3.8740   -0.9443    3.0952 H   0  0  0  0  0  0  0  0  0  0  0  0
    6.4228   -1.8054    2.0878 H   0  0  0  0  0  0  0  0  0  0  0  0
    6.4028   -0.0262    2.1544 H   0  0  0  0  0  0  0  0  0  0  0  0
    6.1433   -0.9756    3.6317 H   0  0  0  0  0  0  0  0  0  0  0  0
  1  2  2  0  0  0  0
  1  3  1  0  0  0  0
  1  7  1  0  0  0  0
  3  4  1  0  0  0  0
  3  5  1  0  0  0  0
  3  6  1  0  0  0  0
  7  8  1  0  0  0  0
  7 13  1  0  0  0  0
  8  9  1  0  0  0  0
  8 11  1  0  0  0  0
  8 14  1  0  0  0  0
  9 10  2  0  0  0  0
  9 17  1  0  0  0  0
 11 12  1  0  0  0  0
 11 15  1  0  0  0  0
 11 16  1  0  0  0  0
 12 44  1  0  0  0  0
 17 18  1  0  0  0  0
 17 19  1  0  0  0  0
 18 20  1  0  0  0  0
 18 21  1  0  0  0  0
 18 22  1  0  0  0  0
 23 24  2  0  0  0  0
 23 25  1  0  0  0  0
 23 29  1  0  0  0  0
 25 26  1  0  0  0  0
 25 27  1  0  0  0  0
 25 28  1  0  0  0  0
 29 30  1  0  0  0  0
 29 34  1  0  0  0  0
 30 31  1  0  0  0  0
 30 33  1  0  0  0  0
 30 35  1  0  0  0  0
 31 32  2  0  0  0  0
 31 39  1  0  0  0  0
 33 36  1  0  0  0  0
 33 37  1  0  0  0  0
 33 38  1  0  0  0  0
 39 40  1  0  0  0  0
 39 45  1  0  0  0  0
 40 41  1  0  0  0  0
 40 43  1  0  0  0  0
 40 46  1  0  0  0  0
 41 42  2  0  0  0  0
 41 49  1  0  0  0  0
 43 44  1  0  0  0  0
 43 47  1  0  0  0  0
 43 48  1  0  0  0  0
 49 50  1  0  0  0  0
 49 54  1  0  0  0  0
 50 51  1  0  0  0  0
 50 53  1  0  0  0  0
 50 55  1  0  0  0  0
 51 52  2  0  0  0  0
 51 59  1  0  0  0  0
 53 56  1  0  0  0  0
 53 57  1  0  0  0  0
 53 58  1  0  0  0  0
 59 60  1  0  0  0  0
 59 61  1  0  0  0  0
 60 62  1  0  0  0  0
 60 63  1  0  0  0  0
 60 64  1  0  0  0  0
M  END
$$$$

  -OEChem-05262216053D

 64 63  0     1  0  0  0  0  0999 V2000
    0.3436    7.5667   -6.0078 C   0  0  0  0  0  0  0  0  0  0  0  0
   -0.7612    7.1702   -6.3454 O   0  0  0  0  0  0  0  0  0  0  0  0
    1.0443    8.6464   -6.8108 C   0  0  0  0  0  0  0  0  0  0  0  0
    2.0175    8.2853   -7.1519 H   0  0  0  0  0  0  0  0  0  0  0  0
    0.4429    8.9160   -7.6834 H   0  0  0  0  0  0  0  0  0  0  0  0
    1.1897    9.5362   -6.1935 H   0  0  0  0  0  0  0  0  0  0  0  0
    0.9505    7.0388   -4.8895 N   0  0  0  0  0  0  0  0  0  0  0  0
    0.3235    6.0684   -3.9803 C   0  0  2  0  0  0  0  0  0  0  0  0
    0.9340    6.1311   -2.5610 C   0  0  0  0  0  0  0  0  0  0  0  0
    1.7842    6.9781   -2.3014 O   0  0  0  0  0  0  0  0  0  0  0  0
    0.4387    4.6614   -4.5823 C   0  0  0  0  0  0  0  0  0  0  0  0
    2.1812    4.0749   -4.6454 S   0  0  0  0  0  0  0  0  0  0  0  0
    1.8226    7.4640   -4.5769 H   0  0  0  0  0  0  0  0  0  0  0  0
   -0.7382    6.3140   -3.8744 H   0  0  0  0  0  0  0  0  0  0  0  0
   -0.1528    3.9667   -3.9843 H   0  0  0  0  0  0  0  0  0  0  0  0
    0.0197    4.6531   -5.5933 H   0  0  0  0  0  0  0  0  0  0  0  0
    0.5079    5.2831   -1.5538 N   0  0  0  0  0  0  0  0  0  0  0  0
    1.0981    5.2648   -0.2227 C   0  0  0  0  0  0  0  0  0  0  0  0
   -0.1253    4.5190   -1.8058 H   0  0  0  0  0  0  0  0  0  0  0  0
    2.1581    4.9968   -0.2784 H   0  0  0  0  0  0  0  0  0  0  0  0
    1.0053    6.2469    0.2525 H   0  0  0  0  0  0  0  0  0  0  0  0
    0.5863    4.5282    0.4046 H   0  0  0  0  0  0  0  0  0  0  0  0
   -4.9726    1.9794   -1.3941 C   0  0  0  0  0  0  0  0  0  0  0  0
   -5.4675    0.9781   -1.8868 O   0  0  0  0  0  0  0  0  0  0  0  0
   -5.6765    2.6931   -0.2553 C   0  0  0  0  0  0  0  0  0  0  0  0
   -5.8807    3.7297   -0.5333 H   0  0  0  0  0  0  0  0  0  0  0  0
   -6.6240    2.1964   -0.0282 H   0  0  0  0  0  0  0  0  0  0  0  0
   -5.0484    2.6789    0.6387 H   0  0  0  0  0  0  0  0  0  0  0  0
   -3.7677    2.4585   -1.8647 N   0  0  0  0  0  0  0  0  0  0  0  0
   -2.9169    1.7435   -2.8261 C   0  0  2  0  0  0  0  0  0  0  0  0
   -1.4270    1.8211   -2.4381 C   0  0  0  0  0  0  0  0  0  0  0  0
   -1.0165    2.8238   -1.8606 O   0  0  0  0  0  0  0  0  0  0  0  0
   -3.1381    2.3553   -4.2116 C   0  0  0  0  0  0  0  0  0  0  0  0
   -3.3346    3.2166   -1.3403 H   0  0  0  0  0  0  0  0  0  0  0  0
   -3.1925    0.6840   -2.8543 H   0  0  0  0  0  0  0  0  0  0  0  0
   -2.8715    3.4171   -4.2109 H   0  0  0  0  0  0  0  0  0  0  0  0
   -2.5244    1.8427   -4.9587 H   0  0  0  0  0  0  0  0  0  0  0  0
   -4.1890    2.2604   -4.5028 H   0  0  0  0  0  0  0  0  0  0  0  0
   -0.5811    0.7730   -2.7666 N   0  0  0  0  0  0  0  0  0  0  0  0
    0.8380    0.6160   -2.3717 C   0  0  2  0  0  0  0  0  0  0  0  0
    1.0136    0.2022   -0.8913 C   0  0  0  0  0  0  0  0  0  0  0  0
    0.0594    0.1445   -0.1249 O   0  0  0  0  0  0  0  0  0  0  0  0
    1.7235    1.8258   -2.7226 C   0  0  0  0  0  0  0  0  0  0  0  0
    1.8210    2.0237   -4.5473 S   0  0  0  0  0  0  0  0  0  0  0  0
   -1.0449   -0.0478   -3.1458 H   0  0  0  0  0  0  0  0  0  0  0  0
    1.2301   -0.2241   -2.9523 H   0  0  0  0  0  0  0  0  0  0  0  0
    1.3492    2.7383   -2.2579 H   0  0  0  0  0  0  0  0  0  0  0  0
    2.7381    1.6752   -2.3409 H   0  0  0  0  0  0  0  0  0  0  0  0
    2.2330   -0.2807   -0.4536 N   0  0  0  0  0  0  0  0  0  0  0  0
    2.5364   -0.6280    0.9413 C   0  0  2  0  0  0  0  0  0  0  0  0
    3.9767   -0.2204    1.3160 C   0  0  0  0  0  0  0  0  0  0  0  0
    4.7699    0.0957    0.4356 O   0  0  0  0  0  0  0  0  0  0  0  0
    2.3374   -2.1368    1.1149 C   0  0  0  0  0  0  0  0  0  0  0  0
    3.0392   -0.1351   -1.0615 H   0  0  0  0  0  0  0  0  0  0  0  0
    1.8610   -0.0935    1.6181 H   0  0  0  0  0  0  0  0  0  0  0  0
    3.0163   -2.6901    0.4579 H   0  0  0  0  0  0  0  0  0  0  0  0
    2.5333   -2.4347    2.1493 H   0  0  0  0  0  0  0  0  0  0  0  0
    1.3081   -2.4147    0.8661 H   0  0  0  0  0  0  0  0  0  0  0  0
    4.3792   -0.1909    2.6385 N   0  0  0  0  0  0  0  0  0  0  0  0
    5.7141    0.2177    3.0590 C   0  0  0  0  0  0  0  0  0  0  0  0
    3.6938   -0.4375    3.3469 H   0  0  0  0  0  0  0  0  0  0  0  0
    6.4721   -0.4397    2.6205 H   0  0  0  0  0  0  0  0  0  0  0  0
    5.9163    1.2474    2.7458 H   0  0  0  0  0  0  0  0  0  0  0  0
    5.8002    0.1654    4.1484 H   0  0  0  0  0  0  0  0  0  0  0  0
  1  2  2  0  0  0  0
  1  3  1  0  0  0  0
  1  7  1  0  0  0  0
  3  4  1  0  0  0  0
  3  5  1  0  0  0  0
  3  6  1  0  0  0  0
  7  8  1  0  0  0  0
  7 13  1  0  0  0  0
  8  9  1  0  0  0  0
  8 11  1  0  0  0  0
  8 14  1  0  0  0  0
  9 10  2  0  0  0  0
  9 17  1  0  0  0  0
 11 12  1  0  0  0  0
 11 15  1  0  0  0  0
 11 16  1  0  0  0  0
 12 44  1  0  0  0  0
 17 18  1  0  0  0  0
 17 19  1  0  0  0  0
 18 20  1  0  0  0  0
 18 21  1  0  0  0  0
 18 22  1  0  0  0  0
 23 24  2  0  0  0  0
 23 25  1  0  0  0  0
 23 29  1  0  0  0  0
 25 26  1  0  0  0  0
 25 27  1  0  0  0  0
 25 28  1  0  0  0  0
 29 30  1  0  0  0  0
 29 34  1  0  0  0  0
 30 31  1  0  0  0  0
 30 33  1  0  0  0  0
 30 35  1  0  0  0  0
 31 32  2  0  0  0  0
 31 39  1  0  0  0  0
 33 36  1  0  0  0  0
 33 37  1  0  0  0  0
 33 38  1  0  0  0  0
 39 40  1  0  0  0  0
 39 45  1  0  0  0  0
 40 41  1  0  0  0  0
 40 43  1  0  0  0  0
 40 46  1  0  0  0  0
 41 42  2  0  0  0  0
 41 49  1  0  0  0  0
 43 44  1  0  0  0  0
 43 47  1  0  0  0  0
 43 48  1  0  0  0  0
 49 50  1  0  0  0  0
 49 54  1  0  0  0  0
 50 51  1  0  0  0  0
 50 53  1  0  0  0  0
 50 55  1  0  0  0  0
 51 52  2  0  0  0  0
 51 59  1  0  0  0  0
 53 56  1  0  0  0  0
 53 57  1  0  0  0  0
 53 58  1  0  0  0  0
 59 60  1  0  0  0  0
 59 61  1  0  0  0  0
 60 62  1  0  0  0  0
 60 63  1  0  0  0  0
 60 64  1  0  0  0  0
M  END
$$$$

  -OEChem-05262216053D

 64 63  0     1  0  0  0  0  0999 V2000
    0.0289    8.3441   -4.0585 C   0  0  0  0  0  0  0  0  0  0  0  0
   -1.0952    8.0685   -4.4491 O   0  0  0  0  0  0  0  0  0  0  0  0
    0.7376    9.5800   -4.5800 C   0  0  0  0  0  0  0  0  0  0  0  0
    1.6408    9.2904   -5.1226 H   0  0  0  0  0  0  0  0  0  0  0  0
    0.0811   10.1328   -5.2578 H   0  0  0  0  0  0  0  0  0  0  0  0
    1.0150   10.2316   -3.7479 H   0  0  0  0  0  0  0  0  0  0  0  0
    0.6558    7.5286   -3.1425 N   0  0  0  0  0  0  0  0  0  0  0  0
    0.0348    6.3572   -2.5079 C   0  0  2  0  0  0  0  0  0  0  0  0
    0.6711    6.0423   -1.1341 C   0  0  0  0  0  0  0  0  0  0  0  0
    1.5226    6.7961   -0.6712 O   0  0  0  0  0  0  0  0  0  0  0  0
    0.1235    5.1602   -3.4643 C   0  0  0  0  0  0  0  0  0  0  0  0
    1.8577    4.5958   -3.7087 S   0  0  0  0  0  0  0  0  0  0  0  0
    1.5423    7.8461   -2.7524 H   0  0  0  0  0  0  0  0  0  0  0  0
   -1.0220    6.5724   -2.3192 H   0  0  0  0  0  0  0  0  0  0  0  0
   -0.4706    4.3383   -3.0646 H   0  0  0  0  0  0  0  0  0  0  0  0
   -0.3092    5.4266   -4.4338 H   0  0  0  0  0  0  0  0  0  0  0  0
    0.2653    4.9532   -0.3830 N   0  0  0  0  0  0  0  0  0  0  0  0
    0.8814    4.5848    0.8849 C   0  0  0  0  0  0  0  0  0  0  0  0
   -0.3594    4.2745   -0.8270 H   0  0  0  0  0  0  0  0  0  0  0  0
    1.9465    4.3705    0.7467 H   0  0  0  0  0  0  0  0  0  0  0  0
    0.7759    5.3949    1.6140 H   0  0  0  0  0  0  0  0  0  0  0  0
    0.3973    3.6911    1.2907 H   0  0  0  0  0  0  0  0  0  0  0  0
   -5.2307    1.9677   -1.3339 C   0  0  0  0  0  0  0  0  0  0  0  0
   -5.7397    1.0487   -1.9554 O   0  0  0  0  0  0  0  0  0  0  0  0
   -6.0059    2.6594   -0.2287 C   0  0  0  0  0  0  0  0  0  0  0  0
   -6.1382    3.7167   -0.4709 H   0  0  0  0  0  0  0  0  0  0  0  0
   -6.9907    2.1976   -0.1141 H   0  0  0  0  0  0  0  0  0  0  0  0
   -5.4652    2.5727    0.7169 H   0  0  0  0  0  0  0  0  0  0  0  0
   -3.9431    2.3665   -1.6250 N   0  0  0  0  0  0  0  0  0  0  0  0
   -3.0524    1.6581   -2.5540 C   0  0  2  0  0  0  0  0  0  0  0  0
   -1.5779    1.7249   -2.1066 C   0  0  0  0  0  0  0  0  0  0  0  0
   -1.2191    2.6401   -1.3707 O   0  0  0  0  0  0  0  0  0  0  0  0
   -3.2138    2.2786   -3.9448 C   0  0  0  0  0  0  0  0  0  0  0  0
   -3.5172    3.0579   -1.0103 H   0  0  0  0  0  0  0  0  0  0  0  0
   -3.3316    0.5996   -2.5965 H   0  0  0  0  0  0  0  0  0  0  0  0
   -2.9447    3.3397   -3.9262 H   0  0  0  0  0  0  0  0  0  0  0  0
   -2.5720    1.7690   -4.6701 H   0  0  0  0  0  0  0  0  0  0  0  0
   -4.2519    2.1890   -4.2806 H   0  0  0  0  0  0  0  0  0  0  0  0
   -0.7017    0.7322   -2.5149 N   0  0  0  0  0  0  0  0  0  0  0  0
    0.7511    0.6201   -2.2437 C   0  0  2  0  0  0  0  0  0  0  0  0
    1.0380   -0.1589   -0.9374 C   0  0  0  0  0  0  0  0  0  0  0  0
    0.1300   -0.7060   -0.3222 O   0  0  0  0  0  0  0  0  0  0  0  0
    1.5360    1.9440   -2.3347 C   0  0  0  0  0  0  0  0  0  0  0  0
    1.4966    2.5726   -4.0621 S   0  0  0  0  0  0  0  0  0  0  0  0
   -1.1386   -0.0583   -2.9809 H   0  0  0  0  0  0  0  0  0  0  0  0
    1.1615   -0.0126   -3.0363 H   0  0  0  0  0  0  0  0  0  0  0  0
    1.1475    2.6886   -1.6404 H   0  0  0  0  0  0  0  0  0  0  0  0
    2.5833    1.7848   -2.0628 H   0  0  0  0  0  0  0  0  0  0  0  0
    2.3364   -0.3700   -0.5099 N   0  0  0  0  0  0  0  0  0  0  0  0
    2.6939   -0.9698    0.7830 C   0  0  2  0  0  0  0  0  0  0  0  0
    3.8859   -0.2316    1.4263 C   0  0  0  0  0  0  0  0  0  0  0  0
    4.5486    0.5550    0.7584 O   0  0  0  0  0  0  0  0  0  0  0  0
    3.0287   -2.4456    0.5524 C   0  0  0  0  0  0  0  0  0  0  0  0
    3.0685    0.1803   -0.9588 H   0  0  0  0  0  0  0  0  0  0  0  0
    1.8531   -0.8964    1.4809 H   0  0  0  0  0  0  0  0  0  0  0  0
    3.8765   -2.5428   -0.1334 H   0  0  0  0  0  0  0  0  0  0  0  0
    3.2867   -2.9349    1.4966 H   0  0  0  0  0  0  0  0  0  0  0  0
    2.1672   -2.9645    0.1200 H   0  0  0  0  0  0  0  0  0  0  0  0
    4.2032   -0.4319    2.7569 N   0  0  0  0  0  0  0  0  0  0  0  0
    5.2994    0.2548    3.4302 C   0  0  0  0  0  0  0  0  0  0  0  0
    3.6198   -1.0698    3.2909 H   0  0  0  0  0  0  0  0  0  0  0  0
    6.2548    0.0142    2.9521 H   0  0  0  0  0  0  0  0  0  0  0  0
    5.1517    1.3393    3.3952 H   0  0  0  0  0  0  0  0  0  0  0  0
    5.3513   -0.0535    4.4788 H   0  0  0  0  0  0  0  0  0  0  0  0
  1  2  2  0  0  0  0
  1  3  1  0  0  0  0
  1  7  1  0  0  0  0
  3  4  1  0  0  0  0
  3  5  1  0  0  0  0
  3  6  1  0  0  0  0
  7  8  1  0  0  0  0
  7 13  1  0  0  0  0
  8  9  1  0  0  0  0
  8 11  1  0  0  0  0
  8 14  1  0  0  0  0
  9 10  2  0  0  0  0
  9 17  1  0  0  0  0
 11 12  1  0  0  0  0
 11 15  1  0  0  0  0
 11 16  1  0  0  0  0
 12 44  1  0  0  0  0
 17 18  1  0  0  0  0
 17 19  1  0  0  0  0
 18 20  1  0  0  0  0
 18 21  1  0  0  0  0
 18 22  1  0  0  0  0
 23 24  2  0  0  0  0
 23 25  1  0  0  0  0
 23 29  1  0  0  0  0
 25 26  1  0  0  0  0
 25 27  1  0  0  0  0
 25 28  1  0  0  0  0
 29 30  1  0  0  0  0
 29 34  1  0  0  0  0
 30 31  1  0  0  0  0
 30 33  1  0  0  0  0
 30 35  1  0  0  0  0
 31 32  2  0  0  0  0
 31 39  1  0  0  0  0
 33 36  1  0  0  0  0
 33 37  1  0  0  0  0
 33 38  1  0  0  0  0
 39 40  1  0  0  0  0
 39 45  1  0  0  0  0
 40 41  1  0  0  0  0
 40 43  1  0  0  0  0
 40 46  1  0  0  0  0
 41 42  2  0  0  0  0
 41 49  1  0  0  0  0
 43 44  1  0  0  0  0
 43 47  1  0  0  0  0
 43 48  1  0  0  0  0
 49 50  1  0  0  0  0
 49 54  1  0  0  0  0
 50 51  1  0  0  0  0
 50 53  1  0  0  0  0
 50 55  1  0  0  0  0
 51 52  2  0  0  0  0
 51 59  1  0  0  0  0
 53 56  1  0  0  0  0
 53 57  1  0  0  0  0
 53 58  1  0  0  0  0
 59 60  1  0  0  0  0
 59 61  1  0  0  0  0
 60 62  1  0  0  0  0
 60 63  1  0  0  0  0
 60 64  1  0  0  0  0
M  END
$$$$

  -OEChem-05262216053D

 64 63  0     1  0  0  0  0  0999 V2000
    0.0227    8.3040   -3.6207 C   0  0  0  0  0  0  0  0  0  0  0  0
   -1.1591    8.1166   -3.8663 O   0  0  0  0  0  0  0  0  0  0  0  0
    0.7055    9.5781   -4.0806 C   0  0  0  0  0  0  0  0  0  0  0  0
    1.5120    9.3372   -4.7774 H   0  0  0  0  0  0  0  0  0  0  0  0
   -0.0134   10.2301   -4.5843 H   0  0  0  0  0  0  0  0  0  0  0  0
    1.1215   10.1098   -3.2213 H   0  0  0  0  0  0  0  0  0  0  0  0
    0.7360    7.3588   -2.9174 N   0  0  0  0  0  0  0  0  0  0  0  0
    0.1474    6.1575   -2.3087 C   0  0  2  0  0  0  0  0  0  0  0  0
    0.9309    5.7149   -1.0512 C   0  0  0  0  0  0  0  0  0  0  0  0
    1.8835    6.3861   -0.6642 O   0  0  0  0  0  0  0  0  0  0  0  0
    0.0777    5.0458   -3.3656 C   0  0  0  0  0  0  0  0  0  0  0  0
    1.7466    4.4392   -3.8511 S   0  0  0  0  0  0  0  0  0  0  0  0
    1.6823    7.6012   -2.6252 H   0  0  0  0  0  0  0  0  0  0  0  0
   -0.8707    6.3854   -1.9760 H   0  0  0  0  0  0  0  0  0  0  0  0
   -0.5063    4.2146   -2.9712 H   0  0  0  0  0  0  0  0  0  0  0  0
   -0.4457    5.4131   -4.2541 H   0  0  0  0  0  0  0  0  0  0  0  0
    0.5591    4.5991   -0.3222 N   0  0  0  0  0  0  0  0  0  0  0  0
    1.3587    4.0733    0.7778 C   0  0  0  0  0  0  0  0  0  0  0  0
   -0.1687    3.9957   -0.7148 H   0  0  0  0  0  0  0  0  0  0  0  0
    2.3935    3.9115    0.4576 H   0  0  0  0  0  0  0  0  0  0  0  0
    1.3558    4.7703    1.6219 H   0  0  0  0  0  0  0  0  0  0  0  0
    0.9511    3.1157    1.1164 H   0  0  0  0  0  0  0  0  0  0  0  0
   -5.2725    2.1370   -1.3730 C   0  0  0  0  0  0  0  0  0  0  0  0
   -5.8372    1.2100   -1.9314 O   0  0  0  0  0  0  0  0  0  0  0  0
   -6.0264    3.0011   -0.3806 C   0  0  0  0  0  0  0  0  0  0  0  0
   -6.0112    4.0433   -0.7080 H   0  0  0  0  0  0  0  0  0  0  0  0
   -7.0663    2.6706   -0.3075 H   0  0  0  0  0  0  0  0  0  0  0  0
   -5.5623    2.9288    0.6059 H   0  0  0  0  0  0  0  0  0  0  0  0
   -3.9456    2.3986   -1.6429 N   0  0  0  0  0  0  0  0  0  0  0  0
   -3.0973    1.5636   -2.5037 C   0  0  2  0  0  0  0  0  0  0  0  0
   -1.6181    1.5807   -2.0657 C   0  0  0  0  0  0  0  0  0  0  0  0
   -1.2195    2.4744   -1.3231 O   0  0  0  0  0  0  0  0  0  0  0  0
   -3.2246    2.0737   -3.9433 C   0  0  0  0  0  0  0  0  0  0  0  0
   -3.4828    3.1111   -1.0815 H   0  0  0  0  0  0  0  0  0  0  0  0
   -3.4392    0.5238   -2.4563 H   0  0  0  0  0  0  0  0  0  0  0  0
   -2.8829    3.1116   -4.0137 H   0  0  0  0  0  0  0  0  0  0  0  0
   -2.6231    1.4631   -4.6237 H   0  0  0  0  0  0  0  0  0  0  0  0
   -4.2681    2.0272   -4.2719 H   0  0  0  0  0  0  0  0  0  0  0  0
   -0.7739    0.5772   -2.5123 N   0  0  0  0  0  0  0  0  0  0  0  0
    0.6939    0.4618   -2.3463 C   0  0  2  0  0  0  0  0  0  0  0  0
    1.0547   -0.2936   -1.0424 C   0  0  0  0  0  0  0  0  0  0  0  0
    0.2212   -0.9992   -0.4859 O   0  0  0  0  0  0  0  0  0  0  0  0
    1.4581    1.7930   -2.4977 C   0  0  0  0  0  0  0  0  0  0  0  0
    1.2945    2.4330   -4.2121 S   0  0  0  0  0  0  0  0  0  0  0  0
   -1.2381   -0.1979   -2.9779 H   0  0  0  0  0  0  0  0  0  0  0  0
    1.0557   -0.1801   -3.1549 H   0  0  0  0  0  0  0  0  0  0  0  0
    1.1186    2.5295   -1.7732 H   0  0  0  0  0  0  0  0  0  0  0  0
    2.5247    1.6438   -2.3095 H   0  0  0  0  0  0  0  0  0  0  0  0
    2.3375   -0.2547   -0.5245 N   0  0  0  0  0  0  0  0  0  0  0  0
    2.6717   -0.6464    0.8526 C   0  0  2  0  0  0  0  0  0  0  0  0
    3.2227    0.5592    1.6410 C   0  0  0  0  0  0  0  0  0  0  0  0
    3.6441    1.5391    1.0360 O   0  0  0  0  0  0  0  0  0  0  0  0
    3.7080   -1.7699    0.7855 C   0  0  0  0  0  0  0  0  0  0  0  0
    2.9509    0.4528   -0.9264 H   0  0  0  0  0  0  0  0  0  0  0  0
    1.7874   -1.0118    1.3849 H   0  0  0  0  0  0  0  0  0  0  0  0
    4.6159   -1.4254    0.2800 H   0  0  0  0  0  0  0  0  0  0  0  0
    3.9761   -2.1063    1.7917 H   0  0  0  0  0  0  0  0  0  0  0  0
    3.3037   -2.6235    0.2325 H   0  0  0  0  0  0  0  0  0  0  0  0
    3.2440    0.5534    3.0230 N   0  0  0  0  0  0  0  0  0  0  0  0
    3.7441    1.6692    3.8174 C   0  0  0  0  0  0  0  0  0  0  0  0
    2.8577   -0.2567    3.4993 H   0  0  0  0  0  0  0  0  0  0  0  0
    4.7872    1.8849    3.5622 H   0  0  0  0  0  0  0  0  0  0  0  0
    3.1438    2.5671    3.6360 H   0  0  0  0  0  0  0  0  0  0  0  0
    3.6941    1.4276    4.8837 H   0  0  0  0  0  0  0  0  0  0  0  0
  1  2  2  0  0  0  0
  1  3  1  0  0  0  0
  1  7  1  0  0  0  0
  3  4  1  0  0  0  0
  3  5  1  0  0  0  0
  3  6  1  0  0  0  0
  7  8  1  0  0  0  0
  7 13  1  0  0  0  0
  8  9  1  0  0  0  0
  8 11  1  0  0  0  0
  8 14  1  0  0  0  0
  9 10  2  0  0  0  0
  9 17  1  0  0  0  0
 11 12  1  0  0  0  0
 11 15  1  0  0  0  0
 11 16  1  0  0  0  0
 12 44  1  0  0  0  0
 17 18  1  0  0  0  0
 17 19  1  0  0  0  0
 18 20  1  0  0  0  0
 18 21  1  0  0  0  0
 18 22  1  0  0  0  0
 23 24  2  0  0  0  0
 23 25  1  0  0  0  0
 23 29  1  0  0  0  0
 25 26  1  0  0  0  0
 25 27  1  0  0  0  0
 25 28  1  0  0  0  0
 29 30  1  0  0  0  0
 29 34  1  0  0  0  0
 30 31  1  0  0  0  0
 30 33  1  0  0  0  0
 30 35  1  0  0  0  0
 31 32  2  0  0  0  0
 31 39  1  0  0  0  0
 33 36  1  0  0  0  0
 33 37  1  0  0  0  0
 33 38  1  0  0  0  0
 39 40  1  0  0  0  0
 39 45  1  0  0  0  0
 40 41  1  0  0  0  0
 40 43  1  0  0  0  0
 40 46  1  0  0  0  0
 41 42  2  0  0  0  0
 41 49  1  0  0  0  0
 43 44  1  0  0  0  0
 43 47  1  0  0  0  0
 43 48  1  0  0  0  0
 49 50  1  0  0  0  0
 49 54  1  0  0  0  0
 50 51  1  0  0  0  0
 50 53  1  0  0  0  0
 50 55  1  0  0  0  0
 51 52  2  0  0  0  0
 51 59  1  0  0  0  0
 53 56  1  0  0  0  0
 53 57  1  0  0  0  0
 53 58  1  0  0  0  0
 59 60  1  0  0  0  0
 59 61  1  0  0  0  0
 60 62  1  0  0  0  0
 60 63  1  0  0  0  0
 60 64  1  0  0  0  0
M  END
$$$$

  -OEChem-05262216053D

 64 63  0     1  0  0  0  0  0999 V2000
    0.0566    8.3592   -3.9813 C   0  0  0  0  0  0  0  0  0  0  0  0
   -1.0768    8.1083   -4.3610 O   0  0  0  0  0  0  0  0  0  0  0  0
    0.7721    9.6016   -4.4766 C   0  0  0  0  0  0  0  0  0  0  0  0
    1.6959    9.3196   -4.9872 H   0  0  0  0  0  0  0  0  0  0  0  0
    0.1362   10.1495   -5.1773 H   0  0  0  0  0  0  0  0  0  0  0  0
    1.0139   10.2541   -3.6339 H   0  0  0  0  0  0  0  0  0  0  0  0
    0.6884    7.5148   -3.0958 N   0  0  0  0  0  0  0  0  0  0  0  0
    0.0667    6.3390   -2.4704 C   0  0  2  0  0  0  0  0  0  0  0  0
    0.7519    5.9788   -1.1317 C   0  0  0  0  0  0  0  0  0  0  0  0
    1.6468    6.6981   -0.6964 O   0  0  0  0  0  0  0  0  0  0  0  0
    0.1018    5.1639   -3.4578 C   0  0  0  0  0  0  0  0  0  0  0  0
    1.8197    4.5957   -3.7949 S   0  0  0  0  0  0  0  0  0  0  0  0
    1.5861    7.8128   -2.7155 H   0  0  0  0  0  0  0  0  0  0  0  0
   -0.9785    6.5673   -2.2374 H   0  0  0  0  0  0  0  0  0  0  0  0
   -0.4793    4.3357   -3.0506 H   0  0  0  0  0  0  0  0  0  0  0  0
   -0.3721    5.4562   -4.4001 H   0  0  0  0  0  0  0  0  0  0  0  0
    0.3584    4.8778   -0.3916 N   0  0  0  0  0  0  0  0  0  0  0  0
    1.0600    4.4356    0.8078 C   0  0  0  0  0  0  0  0  0  0  0  0
   -0.3100    4.2312   -0.8190 H   0  0  0  0  0  0  0  0  0  0  0  0
    2.1211    4.2688    0.5942 H   0  0  0  0  0  0  0  0  0  0  0  0
    0.9740    5.1839    1.6022 H   0  0  0  0  0  0  0  0  0  0  0  0
    0.6308    3.4959    1.1697 H   0  0  0  0  0  0  0  0  0  0  0  0
   -5.2193    1.8462   -1.2997 C   0  0  0  0  0  0  0  0  0  0  0  0
   -5.7030    0.9015   -1.9024 O   0  0  0  0  0  0  0  0  0  0  0  0
   -6.0071    2.5274   -0.1965 C   0  0  0  0  0  0  0  0  0  0  0  0
   -6.1503    3.5835   -0.4373 H   0  0  0  0  0  0  0  0  0  0  0  0
   -6.9876    2.0554   -0.0867 H   0  0  0  0  0  0  0  0  0  0  0  0
   -5.4694    2.4455    0.7512 H   0  0  0  0  0  0  0  0  0  0  0  0
   -3.9493    2.2856   -1.6114 N   0  0  0  0  0  0  0  0  0  0  0  0
   -3.0487    1.6053   -2.5527 C   0  0  2  0  0  0  0  0  0  0  0  0
   -1.5741    1.6853   -2.1082 C   0  0  0  0  0  0  0  0  0  0  0  0
   -1.2196    2.5984   -1.3676 O   0  0  0  0  0  0  0  0  0  0  0  0
   -3.2201    2.2470   -3.9323 C   0  0  0  0  0  0  0  0  0  0  0  0
   -3.5424    3.0017   -1.0124 H   0  0  0  0  0  0  0  0  0  0  0  0
   -3.3124    0.5439   -2.6140 H   0  0  0  0  0  0  0  0  0  0  0  0
   -2.9638    3.3107   -3.8969 H   0  0  0  0  0  0  0  0  0  0  0  0
   -2.5731    1.7573   -4.6664 H   0  0  0  0  0  0  0  0  0  0  0  0
   -4.2574    2.1502   -4.2680 H   0  0  0  0  0  0  0  0  0  0  0  0
   -0.6861    0.7060   -2.5218 N   0  0  0  0  0  0  0  0  0  0  0  0
    0.7726    0.6267   -2.2779 C   0  0  2  0  0  0  0  0  0  0  0  0
    1.0662   -0.1355   -0.9634 C   0  0  0  0  0  0  0  0  0  0  0  0
    0.3455   -1.0717   -0.6374 O   0  0  0  0  0  0  0  0  0  0  0  0
    1.5264    1.9658   -2.4031 C   0  0  0  0  0  0  0  0  0  0  0  0
    1.4408    2.5736   -4.1351 S   0  0  0  0  0  0  0  0  0  0  0  0
   -1.1080   -0.0882   -2.9968 H   0  0  0  0  0  0  0  0  0  0  0  0
    1.1886   -0.0111   -3.0633 H   0  0  0  0  0  0  0  0  0  0  0  0
    1.1416    2.7090   -1.7066 H   0  0  0  0  0  0  0  0  0  0  0  0
    2.5841    1.8270   -2.1616 H   0  0  0  0  0  0  0  0  0  0  0  0
    2.1806    0.1428   -0.1915 N   0  0  0  0  0  0  0  0  0  0  0  0
    2.4017   -0.3960    1.1583 C   0  0  2  0  0  0  0  0  0  0  0  0
    2.7400    0.7294    2.1583 C   0  0  0  0  0  0  0  0  0  0  0  0
    3.0082    1.8531    1.7468 O   0  0  0  0  0  0  0  0  0  0  0  0
    3.5408   -1.4141    1.0765 C   0  0  0  0  0  0  0  0  0  0  0  0
    2.6515    1.0253   -0.3887 H   0  0  0  0  0  0  0  0  0  0  0  0
    1.5005   -0.8958    1.5288 H   0  0  0  0  0  0  0  0  0  0  0  0
    4.4618   -0.9311    0.7345 H   0  0  0  0  0  0  0  0  0  0  0  0
    3.7258   -1.8647    2.0561 H   0  0  0  0  0  0  0  0  0  0  0  0
    3.2826   -2.2122    0.3733 H   0  0  0  0  0  0  0  0  0  0  0  0
    2.7383    0.4873    3.5194 N   0  0  0  0  0  0  0  0  0  0  0  0
    3.0501    1.5074    4.5136 C   0  0  0  0  0  0  0  0  0  0  0  0
    2.4978   -0.4489    3.8328 H   0  0  0  0  0  0  0  0  0  0  0  0
    4.0603    1.9004    4.3579 H   0  0  0  0  0  0  0  0  0  0  0  0
    2.3365    2.3354    4.4494 H   0  0  0  0  0  0  0  0  0  0  0  0
    2.9981    1.0825    5.5205 H   0  0  0  0  0  0  0  0  0  0  0  0
  1  2  2  0  0  0  0
  1  3  1  0  0  0  0
  1  7  1  0  0  0  0
  3  4  1  0  0  0  0
  3  5  1  0  0  0  0
  3  6  1  0  0  0  0
  7  8  1  0  0  0  0
  7 13  1  0  0  0  0
  8  9  1  0  0  0  0
  8 11  1  0  0  0  0
  8 14  1  0  0  0  0
  9 10  2  0  0  0  0
  9 17  1  0  0  0  0
 11 12  1  0  0  0  0
 11 15  1  0  0  0  0
 11 16  1  0  0  0  0
 12 44  1  0  0  0  0
 17 18  1  0  0  0  0
 17 19  1  0  0  0  0
 18 20  1  0  0  0  0
 18 21  1  0  0  0  0
 18 22  1  0  0  0  0
 23 24  2  0  0  0  0
 23 25  1  0  0  0  0
 23 29  1  0  0  0  0
 25 26  1  0  0  0  0
 25 27  1  0  0  0  0
 25 28  1  0  0  0  0
 29 30  1  0  0  0  0
 29 34  1  0  0  0  0
 30 31  1  0  0  0  0
 30 33  1  0  0  0  0
 30 35  1  0  0  0  0
 31 32  2  0  0  0  0
 31 39  1  0  0  0  0
 33 36  1  0  0  0  0
 33 37  1  0  0  0  0
 33 38  1  0  0  0  0
 39 40  1  0  0  0  0
 39 45  1  0  0  0  0
 40 41  1  0  0  0  0
 40 43  1  0  0  0  0
 40 46  1  0  0  0  0
 41 42  2  0  0  0  0
 41 49  1  0  0  0  0
 43 44  1  0  0  0  0
 43 47  1  0  0  0  0
 43 48  1  0  0  0  0
 49 50  1  0  0  0  0
 49 54  1  0  0  0  0
 50 51  1  0  0  0  0
 50 53  1  0  0  0  0
 50 55  1  0  0  0  0
 51 52  2  0  0  0  0
 51 59  1  0  0  0  0
 53 56  1  0  0  0  0
 53 57  1  0  0  0  0
 53 58  1  0  0  0  0
 59 60  1  0  0  0  0
 59 61  1  0  0  0  0
 60 62  1  0  0  0  0
 60 63  1  0  0  0  0
 60 64  1  0  0  0  0
M  END
$$$$

  -OEChem-05262216053D

 64 63  0     1  0  0  0  0  0999 V2000
    0.0746    8.3645   -4.0505 C   0  0  0  0  0  0  0  0  0  0  0  0
   -1.0521    8.1038   -4.4433 O   0  0  0  0  0  0  0  0  0  0  0  0
    0.7798    9.6181   -4.5325 C   0  0  0  0  0  0  0  0  0  0  0  0
    1.7258    9.3527   -5.0106 H   0  0  0  0  0  0  0  0  0  0  0  0
    0.1554   10.1472   -5.2581 H   0  0  0  0  0  0  0  0  0  0  0  0
    0.9793   10.2820   -3.6876 H   0  0  0  0  0  0  0  0  0  0  0  0
    0.7021    7.5246   -3.1573 N   0  0  0  0  0  0  0  0  0  0  0  0
    0.0674    6.3588   -2.5252 C   0  0  2  0  0  0  0  0  0  0  0  0
    0.7078    6.0299   -1.1567 C   0  0  0  0  0  0  0  0  0  0  0  0
    1.5772    6.7681   -0.7021 O   0  0  0  0  0  0  0  0  0  0  0  0
    0.1296    5.1638   -3.4860 C   0  0  0  0  0  0  0  0  0  0  0  0
    1.8558    4.5961   -3.7715 S   0  0  0  0  0  0  0  0  0  0  0  0
    1.5895    7.8330   -2.7615 H   0  0  0  0  0  0  0  0  0  0  0  0
   -0.9845    6.5890   -2.3272 H   0  0  0  0  0  0  0  0  0  0  0  0
   -0.4588    4.3419   -3.0750 H   0  0  0  0  0  0  0  0  0  0  0  0
   -0.3215    5.4352   -4.4456 H   0  0  0  0  0  0  0  0  0  0  0  0
    0.2833    4.9512   -0.4004 N   0  0  0  0  0  0  0  0  0  0  0  0
    0.8842    4.5876    0.8768 C   0  0  0  0  0  0  0  0  0  0  0  0
   -0.3655    4.2874   -0.8312 H   0  0  0  0  0  0  0  0  0  0  0  0
    1.9575    4.4045    0.7595 H   0  0  0  0  0  0  0  0  0  0  0  0
    0.7408    5.3872    1.6107 H   0  0  0  0  0  0  0  0  0  0  0  0
    0.4186    3.6763    1.2643 H   0  0  0  0  0  0  0  0  0  0  0  0
   -5.2202    1.8133   -1.3299 C   0  0  0  0  0  0  0  0  0  0  0  0
   -5.6810    0.8545   -1.9279 O   0  0  0  0  0  0  0  0  0  0  0  0
   -6.0195    2.4752   -0.2238 C   0  0  0  0  0  0  0  0  0  0  0  0
   -6.1990    3.5248   -0.4689 H   0  0  0  0  0  0  0  0  0  0  0  0
   -6.9829    1.9720   -0.1026 H   0  0  0  0  0  0  0  0  0  0  0  0
   -5.4705    2.4160    0.7191 H   0  0  0  0  0  0  0  0  0  0  0  0
   -3.9614    2.2822   -1.6434 N   0  0  0  0  0  0  0  0  0  0  0  0
   -3.0405    1.6139   -2.5739 C   0  0  2  0  0  0  0  0  0  0  0  0
   -1.5744    1.6999   -2.1023 C   0  0  0  0  0  0  0  0  0  0  0  0
   -1.2358    2.6152   -1.3567 O   0  0  0  0  0  0  0  0  0  0  0  0
   -3.1906    2.2625   -3.9529 C   0  0  0  0  0  0  0  0  0  0  0  0
   -3.5708    3.0050   -1.0419 H   0  0  0  0  0  0  0  0  0  0  0  0
   -3.2965    0.5514   -2.6476 H   0  0  0  0  0  0  0  0  0  0  0  0
   -2.9355    3.3263   -3.9076 H   0  0  0  0  0  0  0  0  0  0  0  0
   -2.5307    1.7775   -4.6791 H   0  0  0  0  0  0  0  0  0  0  0  0
   -4.2224    2.1660   -4.3060 H   0  0  0  0  0  0  0  0  0  0  0  0
   -0.6763    0.7207   -2.4932 N   0  0  0  0  0  0  0  0  0  0  0  0
    0.7772    0.6491   -2.2240 C   0  0  2  0  0  0  0  0  0  0  0  0
    1.0454   -0.1013   -0.9006 C   0  0  0  0  0  0  0  0  0  0  0  0
    0.4780   -1.1680   -0.6980 O   0  0  0  0  0  0  0  0  0  0  0  0
    1.5329    1.9865   -2.3515 C   0  0  0  0  0  0  0  0  0  0  0  0
    1.4771    2.5715   -4.0927 S   0  0  0  0  0  0  0  0  0  0  0  0
   -1.0851   -0.0758   -2.9760 H   0  0  0  0  0  0  0  0  0  0  0  0
    1.2081    0.0044   -2.9963 H   0  0  0  0  0  0  0  0  0  0  0  0
    1.1317    2.7421   -1.6762 H   0  0  0  0  0  0  0  0  0  0  0  0
    2.5846    1.8485   -2.0823 H   0  0  0  0  0  0  0  0  0  0  0  0
    1.9458    0.3649    0.0407 N   0  0  0  0  0  0  0  0  0  0  0  0
    2.1176   -0.2162    1.3796 C   0  0  2  0  0  0  0  0  0  0  0  0
    2.2278    0.8810    2.4582 C   0  0  0  0  0  0  0  0  0  0  0  0
    2.4963    2.0326    2.1340 O   0  0  0  0  0  0  0  0  0  0  0  0
    3.3782   -1.0841    1.3643 C   0  0  0  0  0  0  0  0  0  0  0  0
    2.2679    1.3261   -0.0702 H   0  0  0  0  0  0  0  0  0  0  0  0
    1.2544   -0.8385    1.6383 H   0  0  0  0  0  0  0  0  0  0  0  0
    4.2556   -0.4804    1.1104 H   0  0  0  0  0  0  0  0  0  0  0  0
    3.5419   -1.5410    2.3449 H   0  0  0  0  0  0  0  0  0  0  0  0
    3.2777   -1.8832    0.6231 H   0  0  0  0  0  0  0  0  0  0  0  0
    2.0161    0.5819    3.7913 N   0  0  0  0  0  0  0  0  0  0  0  0
    2.0889    1.5765    4.8551 C   0  0  0  0  0  0  0  0  0  0  0  0
    1.7702   -0.3755    4.0276 H   0  0  0  0  0  0  0  0  0  0  0  0
    3.0856    2.0287    4.8897 H   0  0  0  0  0  0  0  0  0  0  0  0
    1.3487    2.3671    4.6927 H   0  0  0  0  0  0  0  0  0  0  0  0
    1.8885    1.1094    5.8240 H   0  0  0  0  0  0  0  0  0  0  0  0
  1  2  2  0  0  0  0
  1  3  1  0  0  0  0
  1  7  1  0  0  0  0
  3  4  1  0  0  0  0
  3  5  1  0  0  0  0
  3  6  1  0  0  0  0
  7  8  1  0  0  0  0
  7 13  1  0  0  0  0
  8  9  1  0  0  0  0
  8 11  1  0  0  0  0
  8 14  1  0  0  0  0
  9 10  2  0  0  0  0
  9 17  1  0  0  0  0
 11 12  1  0  0  0  0
 11 15  1  0  0  0  0
 11 16  1  0  0  0  0
 12 44  1  0  0  0  0
 17 18  1  0  0  0  0
 17 19  1  0  0  0  0
 18 20  1  0  0  0  0
 18 21  1  0  0  0  0
 18 22  1  0  0  0  0
 23 24  2  0  0  0  0
 23 25  1  0  0  0  0
 23 29  1  0  0  0  0
 25 26  1  0  0  0  0
 25 27  1  0  0  0  0
 25 28  1  0  0  0  0
 29 30  1  0  0  0  0
 29 34  1  0  0  0  0
 30 31  1  0  0  0  0
 30 33  1  0  0  0  0
 30 35  1  0  0  0  0
 31 32  2  0  0  0  0
 31 39  1  0  0  0  0
 33 36  1  0  0  0  0
 33 37  1  0  0  0  0
 33 38  1  0  0  0  0
 39 40  1  0  0  0  0
 39 45  1  0  0  0  0
 40 41  1  0  0  0  0
 40 43  1  0  0  0  0
 40 46  1  0  0  0  0
 41 42  2  0  0  0  0
 41 49  1  0  0  0  0
 43 44  1  0  0  0  0
 43 47  1  0  0  0  0
 43 48  1  0  0  0  0
 49 50  1  0  0  0  0
 49 54  1  0  0  0  0
 50 51  1  0  0  0  0
 50 53  1  0  0  0  0
 50 55  1  0  0  0  0
 51 52  2  0  0  0  0
 51 59  1  0  0  0  0
 53 56  1  0  0  0  0
 53 57  1  0  0  0  0
 53 58  1  0  0  0  0
 59 60  1  0  0  0  0
 59 61  1  0  0  0  0
 60 62  1  0  0  0  0
 60 63  1  0  0  0  0
 60 64  1  0  0  0  0
M  END
$$$$

  -OEChem-05262216053D

 64 63  0     1  0  0  0  0  0999 V2000
    0.0459    8.3181   -4.1476 C   0  0  0  0  0  0  0  0  0  0  0  0
   -1.0561    8.0175   -4.5806 O   0  0  0  0  0  0  0  0  0  0  0  0
    0.7510    9.5627   -4.6518 C   0  0  0  0  0  0  0  0  0  0  0  0
    1.7043    9.2901   -5.1110 H   0  0  0  0  0  0  0  0  0  0  0  0
    0.1323   10.0698   -5.3974 H   0  0  0  0  0  0  0  0  0  0  0  0
    0.9369   10.2487   -3.8218 H   0  0  0  0  0  0  0  0  0  0  0  0
    0.6469    7.5287   -3.1923 N   0  0  0  0  0  0  0  0  0  0  0  0
    0.0109    6.3698   -2.5506 C   0  0  2  0  0  0  0  0  0  0  0  0
    0.5975    6.0989   -1.1464 C   0  0  0  0  0  0  0  0  0  0  0  0
    1.4300    6.8702   -0.6783 O   0  0  0  0  0  0  0  0  0  0  0  0
    0.1440    5.1474   -3.4675 C   0  0  0  0  0  0  0  0  0  0  0  0
    1.8950    4.6203   -3.6634 S   0  0  0  0  0  0  0  0  0  0  0  0
    1.5098    7.8690   -2.7695 H   0  0  0  0  0  0  0  0  0  0  0  0
   -1.0534    6.5815   -2.4066 H   0  0  0  0  0  0  0  0  0  0  0  0
   -0.4385    4.3237   -3.0531 H   0  0  0  0  0  0  0  0  0  0  0  0
   -0.2742    5.3745   -4.4531 H   0  0  0  0  0  0  0  0  0  0  0  0
    0.1564    5.0384   -0.3748 N   0  0  0  0  0  0  0  0  0  0  0  0
    0.6911    4.7350    0.9467 C   0  0  0  0  0  0  0  0  0  0  0  0
   -0.4488    4.3424   -0.8174 H   0  0  0  0  0  0  0  0  0  0  0  0
    1.7315    4.4022    0.8731 H   0  0  0  0  0  0  0  0  0  0  0  0
    0.6487    5.6165    1.5950 H   0  0  0  0  0  0  0  0  0  0  0  0
    0.1022    3.9397    1.4139 H   0  0  0  0  0  0  0  0  0  0  0  0
   -5.1885    1.8379   -1.3684 C   0  0  0  0  0  0  0  0  0  0  0  0
   -5.6267    0.8515   -1.9378 O   0  0  0  0  0  0  0  0  0  0  0  0
   -6.0042    2.5149   -0.2833 C   0  0  0  0  0  0  0  0  0  0  0  0
   -6.1831    3.5599   -0.5478 H   0  0  0  0  0  0  0  0  0  0  0  0
   -6.9680    2.0112   -0.1666 H   0  0  0  0  0  0  0  0  0  0  0  0
   -5.4677    2.4733    0.6677 H   0  0  0  0  0  0  0  0  0  0  0  0
   -3.9436    2.3307   -1.6997 N   0  0  0  0  0  0  0  0  0  0  0  0
   -3.0081    1.6675   -2.6190 C   0  0  2  0  0  0  0  0  0  0  0  0
   -1.5540    1.7265   -2.1068 C   0  0  0  0  0  0  0  0  0  0  0  0
   -1.2249    2.6231   -1.3353 O   0  0  0  0  0  0  0  0  0  0  0  0
   -3.1206    2.3517   -3.9834 C   0  0  0  0  0  0  0  0  0  0  0  0
   -3.5723    3.0810   -1.1202 H   0  0  0  0  0  0  0  0  0  0  0  0
   -3.2732    0.6099   -2.7257 H   0  0  0  0  0  0  0  0  0  0  0  0
   -2.8653    3.4135   -3.9038 H   0  0  0  0  0  0  0  0  0  0  0  0
   -2.4444    1.8836   -4.7051 H   0  0  0  0  0  0  0  0  0  0  0  0
   -4.1435    2.2672   -4.3640 H   0  0  0  0  0  0  0  0  0  0  0  0
   -0.6525    0.7458   -2.4850 N   0  0  0  0  0  0  0  0  0  0  0  0
    0.7919    0.6658   -2.1750 C   0  0  2  0  0  0  0  0  0  0  0  0
    1.0221   -0.0987   -0.8547 C   0  0  0  0  0  0  0  0  0  0  0  0
    0.6511   -1.2631   -0.7756 O   0  0  0  0  0  0  0  0  0  0  0  0
    1.5654    1.9950   -2.2688 C   0  0  0  0  0  0  0  0  0  0  0  0
    1.5682    2.5917   -4.0069 S   0  0  0  0  0  0  0  0  0  0  0  0
   -1.0437   -0.0260   -3.0200 H   0  0  0  0  0  0  0  0  0  0  0  0
    1.2385    0.0254   -2.9422 H   0  0  0  0  0  0  0  0  0  0  0  0
    1.1507    2.7519   -1.6022 H   0  0  0  0  0  0  0  0  0  0  0  0
    2.6053    1.8395   -1.9642 H   0  0  0  0  0  0  0  0  0  0  0  0
    1.6469    0.4819    0.2345 N   0  0  0  0  0  0  0  0  0  0  0  0
    1.7680   -0.1546    1.5536 C   0  0  2  0  0  0  0  0  0  0  0  0
    1.6043    0.8705    2.6940 C   0  0  0  0  0  0  0  0  0  0  0  0
    1.7371    2.0677    2.4661 O   0  0  0  0  0  0  0  0  0  0  0  0
    3.1362   -0.8365    1.6341 C   0  0  0  0  0  0  0  0  0  0  0  0
    1.7707    1.4941    0.2101 H   0  0  0  0  0  0  0  0  0  0  0  0
    0.9826   -0.9071    1.6807 H   0  0  0  0  0  0  0  0  0  0  0  0
    3.9385   -0.1003    1.5207 H   0  0  0  0  0  0  0  0  0  0  0  0
    3.2590   -1.3399    2.5978 H   0  0  0  0  0  0  0  0  0  0  0  0
    3.2330   -1.5836    0.8400 H   0  0  0  0  0  0  0  0  0  0  0  0
    1.2899    0.4536    3.9741 N   0  0  0  0  0  0  0  0  0  0  0  0
    1.0799    1.3738    5.0853 C   0  0  0  0  0  0  0  0  0  0  0  0
    1.1562   -0.5420    4.1271 H   0  0  0  0  0  0  0  0  0  0  0  0
    1.9814    1.9688    5.2654 H   0  0  0  0  0  0  0  0  0  0  0  0
    0.2472    2.0514    4.8695 H   0  0  0  0  0  0  0  0  0  0  0  0
    0.8449    0.8178    5.9980 H   0  0  0  0  0  0  0  0  0  0  0  0
  1  2  2  0  0  0  0
  1  3  1  0  0  0  0
  1  7  1  0  0  0  0
  3  4  1  0  0  0  0
  3  5  1  0  0  0  0
  3  6  1  0  0  0  0
  7  8  1  0  0  0  0
  7 13  1  0  0  0  0
  8  9  1  0  0  0  0
  8 11  1  0  0  0  0
  8 14  1  0  0  0  0
  9 10  2  0  0  0  0
  9 17  1  0  0  0  0
 11 12  1  0  0  0  0
 11 15  1  0  0  0  0
 11 16  1  0  0  0  0
 12 44  1  0  0  0  0
 17 18  1  0  0  0  0
 17 19  1  0  0  0  0
 18 20  1  0  0  0  0
 18 21  1  0  0  0  0
 18 22  1  0  0  0  0
 23 24  2  0  0  0  0
 23 25  1  0  0  0  0
 23 29  1  0  0  0  0
 25 26  1  0  0  0  0
 25 27  1  0  0  0  0
 25 28  1  0  0  0  0
 29 30  1  0  0  0  0
 29 34  1  0  0  0  0
 30 31  1  0  0  0  0
 30 33  1  0  0  0  0
 30 35  1  0  0  0  0
 31 32  2  0  0  0  0
 31 39  1  0  0  0  0
 33 36  1  0  0  0  0
 33 37  1  0  0  0  0
 33 38  1  0  0  0  0
 39 40  1  0  0  0  0
 39 45  1  0  0  0  0
 40 41  1  0  0  0  0
 40 43  1  0  0  0  0
 40 46  1  0  0  0  0
 41 42  2  0  0  0  0
 41 49  1  0  0  0  0
 43 44  1  0  0  0  0
 43 47  1  0  0  0  0
 43 48  1  0  0  0  0
 49 50  1  0  0  0  0
 49 54  1  0  0  0  0
 50 51  1  0  0  0  0
 50 53  1  0  0  0  0
 50 55  1  0  0  0  0
 51 52  2  0  0  0  0
 51 59  1  0  0  0  0
 53 56  1  0  0  0  0
 53 57  1  0  0  0  0
 53 58  1  0  0  0  0
 59 60  1  0  0  0  0
 59 61  1  0  0  0  0
 60 62  1  0  0  0  0
 60 63  1  0  0  0  0
 60 64  1  0  0  0  0
M  END
$$$$

  -OEChem-05262216053D

 64 63  0     1  0  0  0  0  0999 V2000
    0.0900    8.2818   -4.2004 C   0  0  0  0  0  0  0  0  0  0  0  0
   -1.0113    7.9797   -4.6342 O   0  0  0  0  0  0  0  0  0  0  0  0
    0.8033    9.5129   -4.7257 C   0  0  0  0  0  0  0  0  0  0  0  0
    1.7370    9.2225   -5.2133 H   0  0  0  0  0  0  0  0  0  0  0  0
    0.1717   10.0325   -5.4519 H   0  0  0  0  0  0  0  0  0  0  0  0
    1.0272   10.1955   -3.9025 H   0  0  0  0  0  0  0  0  0  0  0  0
    0.6799    7.5050   -3.2277 N   0  0  0  0  0  0  0  0  0  0  0  0
    0.0286    6.3603   -2.5760 C   0  0  2  0  0  0  0  0  0  0  0  0
    0.5833    6.1048   -1.1560 C   0  0  0  0  0  0  0  0  0  0  0  0
    1.4310    6.8608   -0.6903 O   0  0  0  0  0  0  0  0  0  0  0  0
    0.1696    5.1224   -3.4698 C   0  0  0  0  0  0  0  0  0  0  0  0
    1.9185    4.5770   -3.6265 S   0  0  0  0  0  0  0  0  0  0  0  0
    1.5432    7.8444   -2.8052 H   0  0  0  0  0  0  0  0  0  0  0  0
   -1.0368    6.5811   -2.4541 H   0  0  0  0  0  0  0  0  0  0  0  0
   -0.4245    4.3099   -3.0507 H   0  0  0  0  0  0  0  0  0  0  0  0
   -0.2313    5.3360   -4.4655 H   0  0  0  0  0  0  0  0  0  0  0  0
    0.0826    5.0826   -0.3683 N   0  0  0  0  0  0  0  0  0  0  0  0
    0.5426    4.8089    0.9872 C   0  0  0  0  0  0  0  0  0  0  0  0
   -0.5268    4.3911   -0.8119 H   0  0  0  0  0  0  0  0  0  0  0  0
    1.5073    4.2925    0.9674 H   0  0  0  0  0  0  0  0  0  0  0  0
    0.6497    5.7355    1.5604 H   0  0  0  0  0  0  0  0  0  0  0  0
   -0.1849    4.1760    1.5035 H   0  0  0  0  0  0  0  0  0  0  0  0
   -5.0866    1.7244   -1.2972 C   0  0  0  0  0  0  0  0  0  0  0  0
   -5.3988    0.6312   -1.7403 O   0  0  0  0  0  0  0  0  0  0  0  0
   -5.9097    2.3557   -0.1902 C   0  0  0  0  0  0  0  0  0  0  0  0
   -6.2477    3.3490   -0.4954 H   0  0  0  0  0  0  0  0  0  0  0  0
   -6.7858    1.7383    0.0270 H   0  0  0  0  0  0  0  0  0  0  0  0
   -5.3077    2.4446    0.7173 H   0  0  0  0  0  0  0  0  0  0  0  0
   -3.9788    2.3839   -1.7893 N   0  0  0  0  0  0  0  0  0  0  0  0
   -3.0030    1.7819   -2.7112 C   0  0  2  0  0  0  0  0  0  0  0  0
   -1.5817    1.7556   -2.1148 C   0  0  0  0  0  0  0  0  0  0  0  0
   -1.2460    2.6282   -1.3194 O   0  0  0  0  0  0  0  0  0  0  0  0
   -3.0164    2.5933   -4.0084 C   0  0  0  0  0  0  0  0  0  0  0  0
   -3.6774    3.2060   -1.2706 H   0  0  0  0  0  0  0  0  0  0  0  0
   -3.2806    0.7486   -2.9447 H   0  0  0  0  0  0  0  0  0  0  0  0
   -2.7445    3.6359   -3.8155 H   0  0  0  0  0  0  0  0  0  0  0  0
   -2.3057    2.1757   -4.7288 H   0  0  0  0  0  0  0  0  0  0  0  0
   -4.0151    2.5715   -4.4557 H   0  0  0  0  0  0  0  0  0  0  0  0
   -0.7035    0.7499   -2.4805 N   0  0  0  0  0  0  0  0  0  0  0  0
    0.7339    0.6409   -2.1538 C   0  0  2  0  0  0  0  0  0  0  0  0
    0.9373   -0.1182   -0.8289 C   0  0  0  0  0  0  0  0  0  0  0  0
    0.8177   -1.3367   -0.8222 O   0  0  0  0  0  0  0  0  0  0  0  0
    1.5385    1.9521   -2.2364 C   0  0  0  0  0  0  0  0  0  0  0  0
    1.5770    2.5508   -3.9733 S   0  0  0  0  0  0  0  0  0  0  0  0
   -1.0954    0.0146   -3.0644 H   0  0  0  0  0  0  0  0  0  0  0  0
    1.1763   -0.0098   -2.9155 H   0  0  0  0  0  0  0  0  0  0  0  0
    1.1335    2.7199   -1.5755 H   0  0  0  0  0  0  0  0  0  0  0  0
    2.5690    1.7700   -1.9149 H   0  0  0  0  0  0  0  0  0  0  0  0
    1.2784    0.5367    0.3406 N   0  0  0  0  0  0  0  0  0  0  0  0
    1.3876   -0.1210    1.6500 C   0  0  2  0  0  0  0  0  0  0  0  0
    0.8235    0.7562    2.7851 C   0  0  0  0  0  0  0  0  0  0  0  0
    0.6896    1.9636    2.6240 O   0  0  0  0  0  0  0  0  0  0  0  0
    2.8644   -0.4364    1.9000 C   0  0  0  0  0  0  0  0  0  0  0  0
    1.1547    1.5497    0.3496 H   0  0  0  0  0  0  0  0  0  0  0  0
    0.8149   -1.0544    1.6512 H   0  0  0  0  0  0  0  0  0  0  0  0
    3.4543    0.4857    1.9243 H   0  0  0  0  0  0  0  0  0  0  0  0
    2.9903   -0.9556    2.8548 H   0  0  0  0  0  0  0  0  0  0  0  0
    3.2536   -1.0791    1.1038 H   0  0  0  0  0  0  0  0  0  0  0  0
    0.4608    0.1868    3.9913 N   0  0  0  0  0  0  0  0  0  0  0  0
   -0.1109    0.9459    5.0965 C   0  0  0  0  0  0  0  0  0  0  0  0
    0.5559   -0.8205    4.0839 H   0  0  0  0  0  0  0  0  0  0  0  0
    0.5838    1.7251    5.4275 H   0  0  0  0  0  0  0  0  0  0  0  0
   -1.0510    1.4174    4.7912 H   0  0  0  0  0  0  0  0  0  0  0  0
   -0.3149    0.2835    5.9434 H   0  0  0  0  0  0  0  0  0  0  0  0
  1  2  2  0  0  0  0
  1  3  1  0  0  0  0
  1  7  1  0  0  0  0
  3  4  1  0  0  0  0
  3  5  1  0  0  0  0
  3  6  1  0  0  0  0
  7  8  1  0  0  0  0
  7 13  1  0  0  0  0
  8  9  1  0  0  0  0
  8 11  1  0  0  0  0
  8 14  1  0  0  0  0
  9 10  2  0  0  0  0
  9 17  1  0  0  0  0
 11 12  1  0  0  0  0
 11 15  1  0  0  0  0
 11 16  1  0  0  0  0
 12 44  1  0  0  0  0
 17 18  1  0  0  0  0
 17 19  1  0  0  0  0
 18 20  1  0  0  0  0
 18 21  1  0  0  0  0
 18 22  1  0  0  0  0
 23 24  2  0  0  0  0
 23 25  1  0  0  0  0
 23 29  1  0  0  0  0
 25 26  1  0  0  0  0
 25 27  1  0  0  0  0
 25 28  1  0  0  0  0
 29 30  1  0  0  0  0
 29 34  1  0  0  0  0
 30 31  1  0  0  0  0
 30 33  1  0  0  0  0
 30 35  1  0  0  0  0
 31 32  2  0  0  0  0
 31 39  1  0  0  0  0
 33 36  1  0  0  0  0
 33 37  1  0  0  0  0
 33 38  1  0  0  0  0
 39 40  1  0  0  0  0
 39 45  1  0  0  0  0
 40 41  1  0  0  0  0
 40 43  1  0  0  0  0
 40 46  1  0  0  0  0
 41 42  2  0  0  0  0
 41 49  1  0  0  0  0
 43 44  1  0  0  0  0
 43 47  1  0  0  0  0
 43 48  1  0  0  0  0
 49 50  1  0  0  0  0
 49 54  1  0  0  0  0
 50 51  1  0  0  0  0
 50 53  1  0  0  0  0
 50 55  1  0  0  0  0
 51 52  2  0  0  0  0
 51 59  1  0  0  0  0
 53 56  1  0  0  0  0
 53 57  1  0  0  0  0
 53 58  1  0  0  0  0
 59 60  1  0  0  0  0
 59 61  1  0  0  0  0
 60 62  1  0  0  0  0
 60 63  1  0  0  0  0
 60 64  1  0  0  0  0
M  END
$$$$

  -OEChem-05262216053D

 64 63  0     1  0  0  0  0  0999 V2000
    1.4753    8.3939   -4.7517 C   0  0  0  0  0  0  0  0  0  0  0  0
    0.3369    8.4827   -5.1844 O   0  0  0  0  0  0  0  0  0  0  0  0
    2.5711    9.2877   -5.3005 C   0  0  0  0  0  0  0  0  0  0  0  0
    3.3635    8.6780   -5.7413 H   0  0  0  0  0  0  0  0  0  0  0  0
    2.1665    9.9500   -6.0709 H   0  0  0  0  0  0  0  0  0  0  0  0
    2.9925    9.8971   -4.4973 H   0  0  0  0  0  0  0  0  0  0  0  0
    1.7641    7.4891   -3.7542 N   0  0  0  0  0  0  0  0  0  0  0  0
    0.7703    6.6348   -3.0883 C   0  0  2  0  0  0  0  0  0  0  0  0
    1.2239    6.2268   -1.6678 C   0  0  0  0  0  0  0  0  0  0  0  0
    2.2746    6.6665   -1.2088 O   0  0  0  0  0  0  0  0  0  0  0  0
    0.4805    5.4093   -3.9656 C   0  0  0  0  0  0  0  0  0  0  0  0
    1.9733    4.3613   -4.2043 S   0  0  0  0  0  0  0  0  0  0  0  0
    2.6967    7.5148   -3.3446 H   0  0  0  0  0  0  0  0  0  0  0  0
   -0.1604    7.1987   -2.9663 H   0  0  0  0  0  0  0  0  0  0  0  0
   -0.3132    4.8154   -3.5079 H   0  0  0  0  0  0  0  0  0  0  0  0
    0.1142    5.7345   -4.9443 H   0  0  0  0  0  0  0  0  0  0  0  0
    0.4326    5.4286   -0.8610 N   0  0  0  0  0  0  0  0  0  0  0  0
    0.7970    5.0489    0.4963 C   0  0  0  0  0  0  0  0  0  0  0  0
   -0.3694    4.9611   -1.2948 H   0  0  0  0  0  0  0  0  0  0  0  0
    1.7044    4.4361    0.4936 H   0  0  0  0  0  0  0  0  0  0  0  0
    0.9728    5.9389    1.1099 H   0  0  0  0  0  0  0  0  0  0  0  0
   -0.0143    4.4726    0.9514 H   0  0  0  0  0  0  0  0  0  0  0  0
   -3.7615   -0.2037   -1.0188 C   0  0  0  0  0  0  0  0  0  0  0  0
   -3.6849   -0.5458   -2.1898 O   0  0  0  0  0  0  0  0  0  0  0  0
   -3.7206   -1.2482    0.0790 C   0  0  0  0  0  0  0  0  0  0  0  0
   -4.4357   -0.9950    0.8648 H   0  0  0  0  0  0  0  0  0  0  0  0
   -3.9774   -2.2306   -0.3269 H   0  0  0  0  0  0  0  0  0  0  0  0
   -2.7164   -1.2941    0.5080 H   0  0  0  0  0  0  0  0  0  0  0  0
   -3.7366    1.1406   -0.7094 N   0  0  0  0  0  0  0  0  0  0  0  0
   -3.5168    2.1913   -1.7195 C   0  0  2  0  0  0  0  0  0  0  0  0
   -2.0073    2.3467   -2.0187 C   0  0  0  0  0  0  0  0  0  0  0  0
   -1.4153    3.3782   -1.7180 O   0  0  0  0  0  0  0  0  0  0  0  0
   -4.1677    3.4751   -1.1912 C   0  0  0  0  0  0  0  0  0  0  0  0
   -3.4454    1.3522    0.2503 H   0  0  0  0  0  0  0  0  0  0  0  0
   -4.0138    1.9267   -2.6594 H   0  0  0  0  0  0  0  0  0  0  0  0
   -3.7106    3.7765   -0.2430 H   0  0  0  0  0  0  0  0  0  0  0  0
   -4.0435    4.2891   -1.9124 H   0  0  0  0  0  0  0  0  0  0  0  0
   -5.2381    3.3170   -1.0280 H   0  0  0  0  0  0  0  0  0  0  0  0
   -1.3114    1.1925   -2.3337 N   0  0  0  0  0  0  0  0  0  0  0  0
    0.1316    0.9353   -2.1800 C   0  0  2  0  0  0  0  0  0  0  0  0
    0.3337    0.3527   -0.7722 C   0  0  0  0  0  0  0  0  0  0  0  0
    0.1825   -0.8443   -0.5617 O   0  0  0  0  0  0  0  0  0  0  0  0
    1.1185    2.0710   -2.5063 C   0  0  0  0  0  0  0  0  0  0  0  0
    1.0458    2.4967   -4.2906 S   0  0  0  0  0  0  0  0  0  0  0  0
   -1.9142    0.3722   -2.4564 H   0  0  0  0  0  0  0  0  0  0  0  0
    0.3817    0.1296   -2.8781 H   0  0  0  0  0  0  0  0  0  0  0  0
    0.9309    2.9561   -1.8983 H   0  0  0  0  0  0  0  0  0  0  0  0
    2.1365    1.7418   -2.2755 H   0  0  0  0  0  0  0  0  0  0  0  0
    0.5707    1.2102    0.2872 N   0  0  0  0  0  0  0  0  0  0  0  0
    0.4213    0.7764    1.6831 C   0  0  2  0  0  0  0  0  0  0  0  0
   -1.0519    0.7059    2.1529 C   0  0  0  0  0  0  0  0  0  0  0  0
   -1.9417    1.3223    1.5710 O   0  0  0  0  0  0  0  0  0  0  0  0
    1.2108    1.7506    2.5605 C   0  0  0  0  0  0  0  0  0  0  0  0
    0.3632    2.1859    0.0807 H   0  0  0  0  0  0  0  0  0  0  0  0
    0.8593   -0.2209    1.7988 H   0  0  0  0  0  0  0  0  0  0  0  0
    0.7711    2.7514    2.5149 H   0  0  0  0  0  0  0  0  0  0  0  0
    1.2038    1.4178    3.6029 H   0  0  0  0  0  0  0  0  0  0  0  0
    2.2510    1.8094    2.2246 H   0  0  0  0  0  0  0  0  0  0  0  0
   -1.3802   -0.0420    3.2687 N   0  0  0  0  0  0  0  0  0  0  0  0
   -2.7296   -0.1402    3.8119 C   0  0  0  0  0  0  0  0  0  0  0  0
   -0.6370   -0.5788    3.7073 H   0  0  0  0  0  0  0  0  0  0  0  0
   -3.1353    0.8556    4.0198 H   0  0  0  0  0  0  0  0  0  0  0  0
   -3.3903   -0.6515    3.1054 H   0  0  0  0  0  0  0  0  0  0  0  0
   -2.7191   -0.7071    4.7478 H   0  0  0  0  0  0  0  0  0  0  0  0
  1  2  2  0  0  0  0
  1  3  1  0  0  0  0
  1  7  1  0  0  0  0
  3  4  1  0  0  0  0
  3  5  1  0  0  0  0
  3  6  1  0  0  0  0
  7  8  1  0  0  0  0
  7 13  1  0  0  0  0
  8  9  1  0  0  0  0
  8 11  1  0  0  0  0
  8 14  1  0  0  0  0
  9 10  2  0  0  0  0
  9 17  1  0  0  0  0
 11 12  1  0  0  0  0
 11 15  1  0  0  0  0
 11 16  1  0  0  0  0
 12 44  1  0  0  0  0
 17 18  1  0  0  0  0
 17 19  1  0  0  0  0
 18 20  1  0  0  0  0
 18 21  1  0  0  0  0
 18 22  1  0  0  0  0
 23 24  2  0  0  0  0
 23 25  1  0  0  0  0
 23 29  1  0  0  0  0
 25 26  1  0  0  0  0
 25 27  1  0  0  0  0
 25 28  1  0  0  0  0
 29 30  1  0  0  0  0
 29 34  1  0  0  0  0
 30 31  1  0  0  0  0
 30 33  1  0  0  0  0
 30 35  1  0  0  0  0
 31 32  2  0  0  0  0
 31 39  1  0  0  0  0
 33 36  1  0  0  0  0
 33 37  1  0  0  0  0
 33 38  1  0  0  0  0
 39 40  1  0  0  0  0
 39 45  1  0  0  0  0
 40 41  1  0  0  0  0
 40 43  1  0  0  0  0
 40 46  1  0  0  0  0
 41 42  2  0  0  0  0
 41 49  1  0  0  0  0
 43 44  1  0  0  0  0
 43 47  1  0  0  0  0
 43 48  1  0  0  0  0
 49 50  1  0  0  0  0
 49 54  1  0  0  0  0
 50 51  1  0  0  0  0
 50 53  1  0  0  0  0
 50 55  1  0  0  0  0
 51 52  2  0  0  0  0
 51 59  1  0  0  0  0
 53 56  1  0  0  0  0
 53 57  1  0  0  0  0
 53 58  1  0  0  0  0
 59 60  1  0  0  0  0
 59 61  1  0  0  0  0
 60 62  1  0  0  0  0
 60 63  1  0  0  0  0
 60 64  1  0  0  0  0
M  END
$$$$

  -OEChem-05262216053D

 64 63  0     1  0  0  0  0  0999 V2000
    1.3210    8.3825   -4.6312 C   0  0  0  0  0  0  0  0  0  0  0  0
    0.1603    8.4653   -5.0018 O   0  0  0  0  0  0  0  0  0  0  0  0
    2.3744    9.3079   -5.2102 C   0  0  0  0  0  0  0  0  0  0  0  0
    3.1033    8.7302   -5.7841 H   0  0  0  0  0  0  0  0  0  0  0  0
    1.9068   10.0427   -5.8716 H   0  0  0  0  0  0  0  0  0  0  0  0
    2.8913    9.8364   -4.4053 H   0  0  0  0  0  0  0  0  0  0  0  0
    1.6740    7.4544   -3.6771 N   0  0  0  0  0  0  0  0  0  0  0  0
    0.7261    6.5761   -2.9765 C   0  0  2  0  0  0  0  0  0  0  0  0
    1.2454    6.1722   -1.5780 C   0  0  0  0  0  0  0  0  0  0  0  0
    2.3081    6.6269   -1.1641 O   0  0  0  0  0  0  0  0  0  0  0  0
    0.4305    5.3485   -3.8488 C   0  0  0  0  0  0  0  0  0  0  0  0
    1.9360    4.3325   -4.1437 S   0  0  0  0  0  0  0  0  0  0  0  0
    2.6250    7.4876   -3.3124 H   0  0  0  0  0  0  0  0  0  0  0  0
   -0.2117    7.1173   -2.8136 H   0  0  0  0  0  0  0  0  0  0  0  0
   -0.3332    4.7352   -3.3658 H   0  0  0  0  0  0  0  0  0  0  0  0
    0.0230    5.6709   -4.8124 H   0  0  0  0  0  0  0  0  0  0  0  0
    0.5003    5.3605   -0.7416 N   0  0  0  0  0  0  0  0  0  0  0  0
    0.9453    4.9551    0.5839 C   0  0  0  0  0  0  0  0  0  0  0  0
   -0.3075    4.8780   -1.1458 H   0  0  0  0  0  0  0  0  0  0  0  0
    1.8020    4.2774    0.5101 H   0  0  0  0  0  0  0  0  0  0  0  0
    1.2345    5.8288    1.1777 H   0  0  0  0  0  0  0  0  0  0  0  0
    0.1339    4.4400    1.1061 H   0  0  0  0  0  0  0  0  0  0  0  0
   -3.9718   -0.1639   -1.3200 C   0  0  0  0  0  0  0  0  0  0  0  0
   -3.7440   -0.4597   -2.4843 O   0  0  0  0  0  0  0  0  0  0  0  0
   -4.1744   -1.2530   -0.2855 C   0  0  0  0  0  0  0  0  0  0  0  0
   -4.3866   -2.2060   -0.7776 H   0  0  0  0  0  0  0  0  0  0  0  0
   -3.2709   -1.3609    0.3189 H   0  0  0  0  0  0  0  0  0  0  0  0
   -5.0143   -0.9986    0.3653 H   0  0  0  0  0  0  0  0  0  0  0  0
   -3.9096    1.1594   -0.9358 N   0  0  0  0  0  0  0  0  0  0  0  0
   -3.5069    2.2419   -1.8498 C   0  0  2  0  0  0  0  0  0  0  0  0
   -1.9666    2.3189   -1.9543 C   0  0  0  0  0  0  0  0  0  0  0  0
   -1.3555    3.2824   -1.5027 O   0  0  0  0  0  0  0  0  0  0  0  0
   -4.1457    3.5378   -1.3344 C   0  0  0  0  0  0  0  0  0  0  0  0
   -3.7208    1.3022    0.0614 H   0  0  0  0  0  0  0  0  0  0  0  0
   -3.8967    2.0523   -2.8558 H   0  0  0  0  0  0  0  0  0  0  0  0
   -3.7898    3.7682   -0.3248 H   0  0  0  0  0  0  0  0  0  0  0  0
   -3.8928    4.3754   -1.9920 H   0  0  0  0  0  0  0  0  0  0  0  0
   -5.2350    3.4382   -1.3058 H   0  0  0  0  0  0  0  0  0  0  0  0
   -1.2926    1.1538   -2.2730 N   0  0  0  0  0  0  0  0  0  0  0  0
    0.1479    0.8674   -2.1386 C   0  0  2  0  0  0  0  0  0  0  0  0
    0.3543    0.2860   -0.7320 C   0  0  0  0  0  0  0  0  0  0  0  0
    0.4518   -0.9214   -0.5560 O   0  0  0  0  0  0  0  0  0  0  0  0
    1.1418    1.9970   -2.4621 C   0  0  0  0  0  0  0  0  0  0  0  0
    1.0472    2.4482   -4.2399 S   0  0  0  0  0  0  0  0  0  0  0  0
   -1.9058    0.3740   -2.5324 H   0  0  0  0  0  0  0  0  0  0  0  0
    0.3804    0.0607   -2.8420 H   0  0  0  0  0  0  0  0  0  0  0  0
    0.9751    2.8742   -1.8373 H   0  0  0  0  0  0  0  0  0  0  0  0
    2.1589    1.6519   -2.2518 H   0  0  0  0  0  0  0  0  0  0  0  0
    0.3072    1.1454    0.3518 N   0  0  0  0  0  0  0  0  0  0  0  0
    0.0914    0.6607    1.7223 C   0  0  2  0  0  0  0  0  0  0  0  0
   -1.4036    0.4679    2.0690 C   0  0  0  0  0  0  0  0  0  0  0  0
   -2.2854    1.0691    1.4596 O   0  0  0  0  0  0  0  0  0  0  0  0
    0.7327    1.6634    2.6841 C   0  0  0  0  0  0  0  0  0  0  0  0
   -0.0714    2.0658    0.1230 H   0  0  0  0  0  0  0  0  0  0  0  0
    0.5952   -0.3029    1.8539 H   0  0  0  0  0  0  0  0  0  0  0  0
    0.2206    2.6288    2.6310 H   0  0  0  0  0  0  0  0  0  0  0  0
    0.6718    1.2970    3.7136 H   0  0  0  0  0  0  0  0  0  0  0  0
    1.7880    1.8107    2.4328 H   0  0  0  0  0  0  0  0  0  0  0  0
   -1.7660   -0.3663    3.1103 N   0  0  0  0  0  0  0  0  0  0  0  0
   -3.1424   -0.5652    3.5486 C   0  0  0  0  0  0  0  0  0  0  0  0
   -1.0235   -0.8744    3.5835 H   0  0  0  0  0  0  0  0  0  0  0  0
   -3.6096    0.3930    3.8001 H   0  0  0  0  0  0  0  0  0  0  0  0
   -3.7305   -1.0493    2.7627 H   0  0  0  0  0  0  0  0  0  0  0  0
   -3.1659   -1.2013    4.4388 H   0  0  0  0  0  0  0  0  0  0  0  0
  1  2  2  0  0  0  0
  1  3  1  0  0  0  0
  1  7  1  0  0  0  0
  3  4  1  0  0  0  0
  3  5  1  0  0  0  0
  3  6  1  0  0  0  0
  7  8  1  0  0  0  0
  7 13  1  0  0  0  0
  8  9  1  0  0  0  0
  8 11  1  0  0  0  0
  8 14  1  0  0  0  0
  9 10  2  0  0  0  0
  9 17  1  0  0  0  0
 11 12  1  0  0  0  0
 11 15  1  0  0  0  0
 11 16  1  0  0  0  0
 12 44  1  0  0  0  0
 17 18  1  0  0  0  0
 17 19  1  0  0  0  0
 18 20  1  0  0  0  0
 18 21  1  0  0  0  0
 18 22  1  0  0  0  0
 23 24  2  0  0  0  0
 23 25  1  0  0  0  0
 23 29  1  0  0  0  0
 25 26  1  0  0  0  0
 25 27  1  0  0  0  0
 25 28  1  0  0  0  0
 29 30  1  0  0  0  0
 29 34  1  0  0  0  0
 30 31  1  0  0  0  0
 30 33  1  0  0  0  0
 30 35  1  0  0  0  0
 31 32  2  0  0  0  0
 31 39  1  0  0  0  0
 33 36  1  0  0  0  0
 33 37  1  0  0  0  0
 33 38  1  0  0  0  0
 39 40  1  0  0  0  0
 39 45  1  0  0  0  0
 40 41  1  0  0  0  0
 40 43  1  0  0  0  0
 40 46  1  0  0  0  0
 41 42  2  0  0  0  0
 41 49  1  0  0  0  0
 43 44  1  0  0  0  0
 43 47  1  0  0  0  0
 43 48  1  0  0  0  0
 49 50  1  0  0  0  0
 49 54  1  0  0  0  0
 50 51  1  0  0  0  0
 50 53  1  0  0  0  0
 50 55  1  0  0  0  0
 51 52  2  0  0  0  0
 51 59  1  0  0  0  0
 53 56  1  0  0  0  0
 53 57  1  0  0  0  0
 53 58  1  0  0  0  0
 59 60  1  0  0  0  0
 59 61  1  0  0  0  0
 60 62  1  0  0  0  0
 60 63  1  0  0  0  0
 60 64  1  0  0  0  0
M  END
$$$$

  -OEChem-05262216053D

 64 63  0     1  0  0  0  0  0999 V2000
    0.9569    8.3926   -4.4661 C   0  0  0  0  0  0  0  0  0  0  0  0
   -0.2441    8.4262   -4.6855 O   0  0  0  0  0  0  0  0  0  0  0  0
    1.8779    9.4086   -5.1140 C   0  0  0  0  0  0  0  0  0  0  0  0
    2.6549    8.8962   -5.6863 H   0  0  0  0  0  0  0  0  0  0  0  0
    1.3102   10.0538   -5.7903 H   0  0  0  0  0  0  0  0  0  0  0  0
    2.3484   10.0281   -4.3465 H   0  0  0  0  0  0  0  0  0  0  0  0
    1.4738    7.4398   -3.6165 N   0  0  0  0  0  0  0  0  0  0  0  0
    0.6610    6.4916   -2.8420 C   0  0  2  0  0  0  0  0  0  0  0  0
    1.3723    6.0536   -1.5414 C   0  0  0  0  0  0  0  0  0  0  0  0
    2.4580    6.5434   -1.2426 O   0  0  0  0  0  0  0  0  0  0  0  0
    0.3015    5.2906   -3.7275 C   0  0  0  0  0  0  0  0  0  0  0  0
    1.7779    4.2905   -4.1792 S   0  0  0  0  0  0  0  0  0  0  0  0
    2.4587    7.5122   -3.3647 H   0  0  0  0  0  0  0  0  0  0  0  0
   -0.2677    6.9842   -2.5352 H   0  0  0  0  0  0  0  0  0  0  0  0
   -0.4140    4.6584   -3.2000 H   0  0  0  0  0  0  0  0  0  0  0  0
   -0.1893    5.6378   -4.6422 H   0  0  0  0  0  0  0  0  0  0  0  0
    0.7820    5.1606   -0.6649 N   0  0  0  0  0  0  0  0  0  0  0  0
    1.4254    4.6987    0.5573 C   0  0  0  0  0  0  0  0  0  0  0  0
   -0.0678    4.6816   -0.9759 H   0  0  0  0  0  0  0  0  0  0  0  0
    2.3248    4.1204    0.3226 H   0  0  0  0  0  0  0  0  0  0  0  0
    1.7059    5.5476    1.1895 H   0  0  0  0  0  0  0  0  0  0  0  0
    0.7391    4.0623    1.1223 H   0  0  0  0  0  0  0  0  0  0  0  0
   -4.2286    0.0533   -1.4913 C   0  0  0  0  0  0  0  0  0  0  0  0
   -3.9708   -0.1768   -2.6640 O   0  0  0  0  0  0  0  0  0  0  0  0
   -4.5525   -1.0911   -0.5516 C   0  0  0  0  0  0  0  0  0  0  0  0
   -5.1483   -0.7311    0.2904 H   0  0  0  0  0  0  0  0  0  0  0  0
   -5.1195   -1.8615   -1.0798 H   0  0  0  0  0  0  0  0  0  0  0  0
   -3.6261   -1.5277   -0.1709 H   0  0  0  0  0  0  0  0  0  0  0  0
   -4.0702    1.3344   -1.0048 N   0  0  0  0  0  0  0  0  0  0  0  0
   -3.5262    2.4376   -1.8156 C   0  0  2  0  0  0  0  0  0  0  0  0
   -1.9824    2.3728   -1.8569 C   0  0  0  0  0  0  0  0  0  0  0  0
   -1.2991    3.2249   -1.2961 O   0  0  0  0  0  0  0  0  0  0  0  0
   -4.0610    3.7494   -1.2289 C   0  0  0  0  0  0  0  0  0  0  0  0
   -3.9138    1.3795    0.0063 H   0  0  0  0  0  0  0  0  0  0  0  0
   -3.8870    2.3619   -2.8473 H   0  0  0  0  0  0  0  0  0  0  0  0
   -3.7429    3.8654   -0.1878 H   0  0  0  0  0  0  0  0  0  0  0  0
   -3.6884    4.6028   -1.8039 H   0  0  0  0  0  0  0  0  0  0  0  0
   -5.1546    3.7620   -1.2625 H   0  0  0  0  0  0  0  0  0  0  0  0
   -1.4012    1.1789   -2.2419 N   0  0  0  0  0  0  0  0  0  0  0  0
    0.0249    0.7960   -2.2155 C   0  0  2  0  0  0  0  0  0  0  0  0
    0.3005    0.1682   -0.8410 C   0  0  0  0  0  0  0  0  0  0  0  0
    0.5920   -1.0145   -0.7243 O   0  0  0  0  0  0  0  0  0  0  0  0
    1.0544    1.8843   -2.5637 C   0  0  0  0  0  0  0  0  0  0  0  0
    0.8669    2.4177   -4.3113 S   0  0  0  0  0  0  0  0  0  0  0  0
   -2.0686    0.4863   -2.5969 H   0  0  0  0  0  0  0  0  0  0  0  0
    0.1620    0.0001   -2.9553 H   0  0  0  0  0  0  0  0  0  0  0  0
    0.9743    2.7400   -1.8937 H   0  0  0  0  0  0  0  0  0  0  0  0
    2.0634    1.4794   -2.4359 H   0  0  0  0  0  0  0  0  0  0  0  0
    0.0792    0.9495    0.2790 N   0  0  0  0  0  0  0  0  0  0  0  0
   -0.1293    0.3848    1.6173 C   0  0  2  0  0  0  0  0  0  0  0  0
   -1.6114    0.0519    1.9046 C   0  0  0  0  0  0  0  0  0  0  0  0
   -2.5209    0.6766    1.3628 O   0  0  0  0  0  0  0  0  0  0  0  0
    0.3868    1.4041    2.6345 C   0  0  0  0  0  0  0  0  0  0  0  0
   -0.3856    1.8368    0.0721 H   0  0  0  0  0  0  0  0  0  0  0  0
    0.4532   -0.5361    1.7258 H   0  0  0  0  0  0  0  0  0  0  0  0
   -0.1980    2.3279    2.5808 H   0  0  0  0  0  0  0  0  0  0  0  0
    0.3092    1.0034    3.6497 H   0  0  0  0  0  0  0  0  0  0  0  0
    1.4367    1.6418    2.4365 H   0  0  0  0  0  0  0  0  0  0  0  0
   -1.9273   -0.9282    2.8273 N   0  0  0  0  0  0  0  0  0  0  0  0
   -3.2910   -1.3018    3.1846 C   0  0  0  0  0  0  0  0  0  0  0  0
   -1.1565   -1.4610    3.2218 H   0  0  0  0  0  0  0  0  0  0  0  0
   -3.8911   -0.4142    3.4116 H   0  0  0  0  0  0  0  0  0  0  0  0
   -3.7655   -1.8487    2.3642 H   0  0  0  0  0  0  0  0  0  0  0  0
   -3.2849   -1.9430    4.0714 H   0  0  0  0  0  0  0  0  0  0  0  0
  1  2  2  0  0  0  0
  1  3  1  0  0  0  0
  1  7  1  0  0  0  0
  3  4  1  0  0  0  0
  3  5  1  0  0  0  0
  3  6  1  0  0  0  0
  7  8  1  0  0  0  0
  7 13  1  0  0  0  0
  8  9  1  0  0  0  0
  8 11  1  0  0  0  0
  8 14  1  0  0  0  0
  9 10  2  0  0  0  0
  9 17  1  0  0  0  0
 11 12  1  0  0  0  0
 11 15  1  0  0  0  0
 11 16  1  0  0  0  0
 12 44  1  0  0  0  0
 17 18  1  0  0  0  0
 17 19  1  0  0  0  0
 18 20  1  0  0  0  0
 18 21  1  0  0  0  0
 18 22  1  0  0  0  0
 23 24  2  0  0  0  0
 23 25  1  0  0  0  0
 23 29  1  0  0  0  0
 25 26  1  0  0  0  0
 25 27  1  0  0  0  0
 25 28  1  0  0  0  0
 29 30  1  0  0  0  0
 29 34  1  0  0  0  0
 30 31  1  0  0  0  0
 30 33  1  0  0  0  0
 30 35  1  0  0  0  0
 31 32  2  0  0  0  0
 31 39  1  0  0  0  0
 33 36  1  0  0  0  0
 33 37  1  0  0  0  0
 33 38  1  0  0  0  0
 39 40  1  0  0  0  0
 39 45  1  0  0  0  0
 40 41  1  0  0  0  0
 40 43  1  0  0  0  0
 40 46  1  0  0  0  0
 41 42  2  0  0  0  0
 41 49  1  0  0  0  0
 43 44  1  0  0  0  0
 43 47  1  0  0  0  0
 43 48  1  0  0  0  0
 49 50  1  0  0  0  0
 49 54  1  0  0  0  0
 50 51  1  0  0  0  0
 50 53  1  0  0  0  0
 50 55  1  0  0  0  0
 51 52  2  0  0  0  0
 51 59  1  0  0  0  0
 53 56  1  0  0  0  0
 53 57  1  0  0  0  0
 53 58  1  0  0  0  0
 59 60  1  0  0  0  0
 59 61  1  0  0  0  0
 60 62  1  0  0  0  0
 60 63  1  0  0  0  0
 60 64  1  0  0  0  0
M  END
$$$$

  -OEChem-05262216053D

 64 63  0     1  0  0  0  0  0999 V2000
    0.9702    8.3927   -4.3684 C   0  0  0  0  0  0  0  0  0  0  0  0
   -0.2263    8.4542   -4.6059 O   0  0  0  0  0  0  0  0  0  0  0  0
    1.9287    9.3670   -5.0258 C   0  0  0  0  0  0  0  0  0  0  0  0
    2.7175    8.8187   -5.5468 H   0  0  0  0  0  0  0  0  0  0  0  0
    1.3956    9.9898   -5.7496 H   0  0  0  0  0  0  0  0  0  0  0  0
    2.3804   10.0129   -4.2690 H   0  0  0  0  0  0  0  0  0  0  0  0
    1.4495    7.4445   -3.4919 N   0  0  0  0  0  0  0  0  0  0  0  0
    0.6092    6.5025   -2.7388 C   0  0  2  0  0  0  0  0  0  0  0  0
    1.3124    6.0042   -1.4548 C   0  0  0  0  0  0  0  0  0  0  0  0
    2.4200    6.4411   -1.1549 O   0  0  0  0  0  0  0  0  0  0  0  0
    0.2097    5.3360   -3.6544 C   0  0  0  0  0  0  0  0  0  0  0  0
    1.6682    4.3541   -4.1967 S   0  0  0  0  0  0  0  0  0  0  0  0
    2.4375    7.4801   -3.2440 H   0  0  0  0  0  0  0  0  0  0  0  0
   -0.3004    7.0188   -2.4144 H   0  0  0  0  0  0  0  0  0  0  0  0
   -0.4901    4.6861   -3.1267 H   0  0  0  0  0  0  0  0  0  0  0  0
   -0.3111    5.7192   -4.5373 H   0  0  0  0  0  0  0  0  0  0  0  0
    0.6944    5.1117   -0.5965 N   0  0  0  0  0  0  0  0  0  0  0  0
    1.3374    4.5722    0.5939 C   0  0  0  0  0  0  0  0  0  0  0  0
   -0.1683    4.6649   -0.9190 H   0  0  0  0  0  0  0  0  0  0  0  0
    2.2368    4.0098    0.3227 H   0  0  0  0  0  0  0  0  0  0  0  0
    1.6172    5.3791    1.2793 H   0  0  0  0  0  0  0  0  0  0  0  0
    0.6516    3.8988    1.1166 H   0  0  0  0  0  0  0  0  0  0  0  0
   -4.2718   -0.0316   -1.7964 C   0  0  0  0  0  0  0  0  0  0  0  0
   -3.9248   -0.1720   -2.9601 O   0  0  0  0  0  0  0  0  0  0  0  0
   -4.6784   -1.2421   -0.9800 C   0  0  0  0  0  0  0  0  0  0  0  0
   -5.3876   -0.9510   -0.2015 H   0  0  0  0  0  0  0  0  0  0  0  0
   -5.1494   -1.9884   -1.6254 H   0  0  0  0  0  0  0  0  0  0  0  0
   -3.7957   -1.6826   -0.5110 H   0  0  0  0  0  0  0  0  0  0  0  0
   -4.1457    1.2066   -1.2017 N   0  0  0  0  0  0  0  0  0  0  0  0
   -3.5734    2.3748   -1.8944 C   0  0  2  0  0  0  0  0  0  0  0  0
   -2.0276    2.3342   -1.8644 C   0  0  0  0  0  0  0  0  0  0  0  0
   -1.3849    3.1881   -1.2618 O   0  0  0  0  0  0  0  0  0  0  0  0
   -4.1602    3.6314   -1.2392 C   0  0  0  0  0  0  0  0  0  0  0  0
   -4.0615    1.1766   -0.1819 H   0  0  0  0  0  0  0  0  0  0  0  0
   -3.8799    2.3751   -2.9463 H   0  0  0  0  0  0  0  0  0  0  0  0
   -3.8734    3.6876   -0.1842 H   0  0  0  0  0  0  0  0  0  0  0  0
   -3.7968    4.5305   -1.7470 H   0  0  0  0  0  0  0  0  0  0  0  0
   -5.2526    3.6176   -1.3030 H   0  0  0  0  0  0  0  0  0  0  0  0
   -1.4059    1.1577   -2.2401 N   0  0  0  0  0  0  0  0  0  0  0  0
    0.0330    0.8130   -2.2303 C   0  0  2  0  0  0  0  0  0  0  0  0
    0.3752    0.2051   -0.8596 C   0  0  0  0  0  0  0  0  0  0  0  0
    0.9378   -0.8774   -0.7691 O   0  0  0  0  0  0  0  0  0  0  0  0
    1.0105    1.9419   -2.5883 C   0  0  0  0  0  0  0  0  0  0  0  0
    0.7755    2.4739   -4.3302 S   0  0  0  0  0  0  0  0  0  0  0  0
   -2.0423    0.4804   -2.6726 H   0  0  0  0  0  0  0  0  0  0  0  0
    0.1877    0.0224   -2.9719 H   0  0  0  0  0  0  0  0  0  0  0  0
    0.9028    2.7889   -1.9114 H   0  0  0  0  0  0  0  0  0  0  0  0
    2.0382    1.5800   -2.4778 H   0  0  0  0  0  0  0  0  0  0  0  0
   -0.1130    0.8344    0.2718 N   0  0  0  0  0  0  0  0  0  0  0  0
   -0.3302    0.1570    1.5546 C   0  0  2  0  0  0  0  0  0  0  0  0
   -1.7962   -0.2975    1.7332 C   0  0  0  0  0  0  0  0  0  0  0  0
   -2.7192    0.3151    1.1992 O   0  0  0  0  0  0  0  0  0  0  0  0
    0.0623    1.1333    2.6647 C   0  0  0  0  0  0  0  0  0  0  0  0
   -0.7028    1.6452    0.0706 H   0  0  0  0  0  0  0  0  0  0  0  0
    0.3127   -0.7264    1.6298 H   0  0  0  0  0  0  0  0  0  0  0  0
   -0.5719    2.0252    2.6331 H   0  0  0  0  0  0  0  0  0  0  0  0
   -0.0498    0.6610    3.6453 H   0  0  0  0  0  0  0  0  0  0  0  0
    1.1059    1.4420    2.5468 H   0  0  0  0  0  0  0  0  0  0  0  0
   -2.0864   -1.3868    2.5333 N   0  0  0  0  0  0  0  0  0  0  0  0
   -3.4362   -1.8846    2.7708 C   0  0  0  0  0  0  0  0  0  0  0  0
   -1.3008   -1.9038    2.9198 H   0  0  0  0  0  0  0  0  0  0  0  0
   -4.1022   -1.0695    3.0741 H   0  0  0  0  0  0  0  0  0  0  0  0
   -3.8381   -2.3516    1.8661 H   0  0  0  0  0  0  0  0  0  0  0  0
   -3.4266   -2.6317    3.5707 H   0  0  0  0  0  0  0  0  0  0  0  0
  1  2  2  0  0  0  0
  1  3  1  0  0  0  0
  1  7  1  0  0  0  0
  3  4  1  0  0  0  0
  3  5  1  0  0  0  0
  3  6  1  0  0  0  0
  7  8  1  0  0  0  0
  7 13  1  0  0  0  0
  8  9  1  0  0  0  0
  8 11  1  0  0  0  0
  8 14  1  0  0  0  0
  9 10  2  0  0  0  0
  9 17  1  0  0  0  0
 11 12  1  0  0  0  0
 11 15  1  0  0  0  0
 11 16  1  0  0  0  0
 12 44  1  0  0  0  0
 17 18  1  0  0  0  0
 17 19  1  0  0  0  0
 18 20  1  0  0  0  0
 18 21  1  0  0  0  0
 18 22  1  0  0  0  0
 23 24  2  0  0  0  0
 23 25  1  0  0  0  0
 23 29  1  0  0  0  0
 25 26  1  0  0  0  0
 25 27  1  0  0  0  0
 25 28  1  0  0  0  0
 29 30  1  0  0  0  0
 29 34  1  0  0  0  0
 30 31  1  0  0  0  0
 30 33  1  0  0  0  0
 30 35  1  0  0  0  0
 31 32  2  0  0  0  0
 31 39  1  0  0  0  0
 33 36  1  0  0  0  0
 33 37  1  0  0  0  0
 33 38  1  0  0  0  0
 39 40  1  0  0  0  0
 39 45  1  0  0  0  0
 40 41  1  0  0  0  0
 40 43  1  0  0  0  0
 40 46  1  0  0  0  0
 41 42  2  0  0  0  0
 41 49  1  0  0  0  0
 43 44  1  0  0  0  0
 43 47  1  0  0  0  0
 43 48  1  0  0  0  0
 49 50  1  0  0  0  0
 49 54  1  0  0  0  0
 50 51  1  0  0  0  0
 50 53  1  0  0  0  0
 50 55  1  0  0  0  0
 51 52  2  0  0  0  0
 51 59  1  0  0  0  0
 53 56  1  0  0  0  0
 53 57  1  0  0  0  0
 53 58  1  0  0  0  0
 59 60  1  0  0  0  0
 59 61  1  0  0  0  0
 60 62  1  0  0  0  0
 60 63  1  0  0  0  0
 60 64  1  0  0  0  0
M  END
$$$$

  -OEChem-05262216053D

 64 63  0     1  0  0  0  0  0999 V2000
    0.7427    8.4222   -4.2023 C   0  0  0  0  0  0  0  0  0  0  0  0
   -0.4634    8.4349   -4.3942 O   0  0  0  0  0  0  0  0  0  0  0  0
    1.6219    9.4996   -4.8081 C   0  0  0  0  0  0  0  0  0  0  0  0
    2.3842    9.0438   -5.4444 H   0  0  0  0  0  0  0  0  0  0  0  0
    1.0189   10.1815   -5.4142 H   0  0  0  0  0  0  0  0  0  0  0  0
    2.1119   10.0707   -4.0158 H   0  0  0  0  0  0  0  0  0  0  0  0
    1.3043    7.4335   -3.4250 N   0  0  0  0  0  0  0  0  0  0  0  0
    0.5368    6.4155   -2.6938 C   0  0  2  0  0  0  0  0  0  0  0  0
    1.2800    5.9334   -1.4266 C   0  0  0  0  0  0  0  0  0  0  0  0
    2.3751    6.4099   -1.1418 O   0  0  0  0  0  0  0  0  0  0  0  0
    0.2130    5.2523   -3.6420 C   0  0  0  0  0  0  0  0  0  0  0  0
    1.7244    4.3422   -4.1672 S   0  0  0  0  0  0  0  0  0  0  0  0
    2.2949    7.5121   -3.1987 H   0  0  0  0  0  0  0  0  0  0  0  0
   -0.4051    6.8557   -2.3508 H   0  0  0  0  0  0  0  0  0  0  0  0
   -0.4696    4.5635   -3.1429 H   0  0  0  0  0  0  0  0  0  0  0  0
   -0.3037    5.6309   -4.5295 H   0  0  0  0  0  0  0  0  0  0  0  0
    0.7127    5.0069   -0.5695 N   0  0  0  0  0  0  0  0  0  0  0  0
    1.4108    4.4581    0.5859 C   0  0  0  0  0  0  0  0  0  0  0  0
   -0.1391    4.5333   -0.8830 H   0  0  0  0  0  0  0  0  0  0  0  0
    2.3290    3.9488    0.2749 H   0  0  0  0  0  0  0  0  0  0  0  0
    1.6702    5.2539    1.2920 H   0  0  0  0  0  0  0  0  0  0  0  0
    0.7715    3.7337    1.0999 H   0  0  0  0  0  0  0  0  0  0  0  0
   -4.1978   -0.1320   -2.0273 C   0  0  0  0  0  0  0  0  0  0  0  0
   -3.6755   -0.3426   -3.1126 O   0  0  0  0  0  0  0  0  0  0  0  0
   -4.8545   -1.2708   -1.2708 C   0  0  0  0  0  0  0  0  0  0  0  0
   -5.7793   -1.5625   -1.7741 H   0  0  0  0  0  0  0  0  0  0  0  0
   -4.1804   -2.1301   -1.2323 H   0  0  0  0  0  0  0  0  0  0  0  0
   -5.0915   -0.9645   -0.2493 H   0  0  0  0  0  0  0  0  0  0  0  0
   -4.1288    1.1343   -1.4835 N   0  0  0  0  0  0  0  0  0  0  0  0
   -3.4631    2.2693   -2.1466 C   0  0  2  0  0  0  0  0  0  0  0  0
   -1.9295    2.2237   -1.9548 C   0  0  0  0  0  0  0  0  0  0  0  0
   -1.3478    3.0766   -1.2931 O   0  0  0  0  0  0  0  0  0  0  0  0
   -4.0982    3.5544   -1.6021 C   0  0  0  0  0  0  0  0  0  0  0  0
   -4.2517    1.1764   -0.4709 H   0  0  0  0  0  0  0  0  0  0  0  0
   -3.6559    2.2333   -3.2247 H   0  0  0  0  0  0  0  0  0  0  0  0
   -3.9372    3.6369   -0.5225 H   0  0  0  0  0  0  0  0  0  0  0  0
   -3.6580    4.4309   -2.0879 H   0  0  0  0  0  0  0  0  0  0  0  0
   -5.1751    3.5576   -1.7953 H   0  0  0  0  0  0  0  0  0  0  0  0
   -1.2675    1.0566   -2.2838 N   0  0  0  0  0  0  0  0  0  0  0  0
    0.1790    0.7434   -2.2208 C   0  0  2  0  0  0  0  0  0  0  0  0
    0.5116    0.1681   -0.8308 C   0  0  0  0  0  0  0  0  0  0  0  0
    1.3089   -0.7511   -0.7056 O   0  0  0  0  0  0  0  0  0  0  0  0
    1.1280    1.9021   -2.5620 C   0  0  0  0  0  0  0  0  0  0  0  0
    0.9350    2.4148   -4.3154 S   0  0  0  0  0  0  0  0  0  0  0  0
   -1.8668    0.3717   -2.7571 H   0  0  0  0  0  0  0  0  0  0  0  0
    0.3780   -0.0530   -2.9454 H   0  0  0  0  0  0  0  0  0  0  0  0
    0.9687    2.7487   -1.8963 H   0  0  0  0  0  0  0  0  0  0  0  0
    2.1628    1.5764   -2.4135 H   0  0  0  0  0  0  0  0  0  0  0  0
   -0.2405    0.5850    0.2525 N   0  0  0  0  0  0  0  0  0  0  0  0
   -0.4764   -0.2030    1.4647 C   0  0  2  0  0  0  0  0  0  0  0  0
   -1.9553   -0.6373    1.5731 C   0  0  0  0  0  0  0  0  0  0  0  0
   -2.8456    0.0088    1.0226 O   0  0  0  0  0  0  0  0  0  0  0  0
   -0.0783    0.6597    2.6631 C   0  0  0  0  0  0  0  0  0  0  0  0
   -0.9426    1.2908    0.0235 H   0  0  0  0  0  0  0  0  0  0  0  0
    0.1424   -1.1065    1.4593 H   0  0  0  0  0  0  0  0  0  0  0  0
   -0.6869    1.5691    2.7003 H   0  0  0  0  0  0  0  0  0  0  0  0
   -0.2192    0.1073    3.5969 H   0  0  0  0  0  0  0  0  0  0  0  0
    0.9749    0.9477    2.5867 H   0  0  0  0  0  0  0  0  0  0  0  0
   -2.2924   -1.7633    2.3006 N   0  0  0  0  0  0  0  0  0  0  0  0
   -3.6532   -2.2721    2.4219 C   0  0  0  0  0  0  0  0  0  0  0  0
   -1.5321   -2.2999    2.7096 H   0  0  0  0  0  0  0  0  0  0  0  0
   -4.3227   -1.4955    2.8066 H   0  0  0  0  0  0  0  0  0  0  0  0
   -4.0240   -2.6100    1.4489 H   0  0  0  0  0  0  0  0  0  0  0  0
   -3.6785   -3.1197    3.1139 H   0  0  0  0  0  0  0  0  0  0  0  0
  1  2  2  0  0  0  0
  1  3  1  0  0  0  0
  1  7  1  0  0  0  0
  3  4  1  0  0  0  0
  3  5  1  0  0  0  0
  3  6  1  0  0  0  0
  7  8  1  0  0  0  0
  7 13  1  0  0  0  0
  8  9  1  0  0  0  0
  8 11  1  0  0  0  0
  8 14  1  0  0  0  0
  9 10  2  0  0  0  0
  9 17  1  0  0  0  0
 11 12  1  0  0  0  0
 11 15  1  0  0  0  0
 11 16  1  0  0  0  0
 12 44  1  0  0  0  0
 17 18  1  0  0  0  0
 17 19  1  0  0  0  0
 18 20  1  0  0  0  0
 18 21  1  0  0  0  0
 18 22  1  0  0  0  0
 23 24  2  0  0  0  0
 23 25  1  0  0  0  0
 23 29  1  0  0  0  0
 25 26  1  0  0  0  0
 25 27  1  0  0  0  0
 25 28  1  0  0  0  0
 29 30  1  0  0  0  0
 29 34  1  0  0  0  0
 30 31  1  0  0  0  0
 30 33  1  0  0  0  0
 30 35  1  0  0  0  0
 31 32  2  0  0  0  0
 31 39  1  0  0  0  0
 33 36  1  0  0  0  0
 33 37  1  0  0  0  0
 33 38  1  0  0  0  0
 39 40  1  0  0  0  0
 39 45  1  0  0  0  0
 40 41  1  0  0  0  0
 40 43  1  0  0  0  0
 40 46  1  0  0  0  0
 41 42  2  0  0  0  0
 41 49  1  0  0  0  0
 43 44  1  0  0  0  0
 43 47  1  0  0  0  0
 43 48  1  0  0  0  0
 49 50  1  0  0  0  0
 49 54  1  0  0  0  0
 50 51  1  0  0  0  0
 50 53  1  0  0  0  0
 50 55  1  0  0  0  0
 51 52  2  0  0  0  0
 51 59  1  0  0  0  0
 53 56  1  0  0  0  0
 53 57  1  0  0  0  0
 53 58  1  0  0  0  0
 59 60  1  0  0  0  0
 59 61  1  0  0  0  0
 60 62  1  0  0  0  0
 60 63  1  0  0  0  0
 60 64  1  0  0  0  0
M  END
$$$$

  -OEChem-05262216053D

 64 63  0     1  0  0  0  0  0999 V2000
    0.9501    8.6020   -3.8040 C   0  0  0  0  0  0  0  0  0  0  0  0
   -0.2081    8.6424   -4.1897 O   0  0  0  0  0  0  0  0  0  0  0  0
    1.9226    9.6977   -4.1970 C   0  0  0  0  0  0  0  0  0  0  0  0
    2.7708    9.2672   -4.7349 H   0  0  0  0  0  0  0  0  0  0  0  0
    1.4276   10.4264   -4.8451 H   0  0  0  0  0  0  0  0  0  0  0  0
    2.2877   10.2099   -3.3036 H   0  0  0  0  0  0  0  0  0  0  0  0
    1.3737    7.5640   -3.0039 N   0  0  0  0  0  0  0  0  0  0  0  0
    0.5035    6.4950   -2.4941 C   0  0  2  0  0  0  0  0  0  0  0  0
    1.0436    5.8928   -1.1762 C   0  0  0  0  0  0  0  0  0  0  0  0
    2.0692    6.3433   -0.6730 O   0  0  0  0  0  0  0  0  0  0  0  0
    0.3298    5.4252   -3.5812 C   0  0  0  0  0  0  0  0  0  0  0  0
    1.9085    4.5637   -3.9705 S   0  0  0  0  0  0  0  0  0  0  0  0
    2.3147    7.6152   -2.6159 H   0  0  0  0  0  0  0  0  0  0  0  0
   -0.4806    6.9152   -2.2621 H   0  0  0  0  0  0  0  0  0  0  0  0
   -0.4093    4.6943   -3.2512 H   0  0  0  0  0  0  0  0  0  0  0  0
   -0.0601    5.8858   -4.4941 H   0  0  0  0  0  0  0  0  0  0  0  0
    0.3610    4.8891   -0.5120 N   0  0  0  0  0  0  0  0  0  0  0  0
    0.8696    4.2390    0.6884 C   0  0  0  0  0  0  0  0  0  0  0  0
   -0.4108    4.4354   -1.0092 H   0  0  0  0  0  0  0  0  0  0  0  0
    1.8199    3.7365    0.4795 H   0  0  0  0  0  0  0  0  0  0  0  0
    1.0246    4.9724    1.4867 H   0  0  0  0  0  0  0  0  0  0  0  0
    0.1526    3.4913    1.0412 H   0  0  0  0  0  0  0  0  0  0  0  0
   -3.9554   -0.5312   -2.4176 C   0  0  0  0  0  0  0  0  0  0  0  0
   -3.4574   -0.6501   -3.5277 O   0  0  0  0  0  0  0  0  0  0  0  0
   -4.4347   -1.7559   -1.6627 C   0  0  0  0  0  0  0  0  0  0  0  0
   -4.7801   -2.5182   -2.3659 H   0  0  0  0  0  0  0  0  0  0  0  0
   -3.6185   -2.1666   -1.0641 H   0  0  0  0  0  0  0  0  0  0  0  0
   -5.2618   -1.4894   -1.0000 H   0  0  0  0  0  0  0  0  0  0  0  0
   -3.9848    0.7172   -1.8314 N   0  0  0  0  0  0  0  0  0  0  0  0
   -3.5161    1.9499   -2.4939 C   0  0  2  0  0  0  0  0  0  0  0  0
   -1.9794    2.1031   -2.3943 C   0  0  0  0  0  0  0  0  0  0  0  0
   -1.4854    3.0054   -1.7303 O   0  0  0  0  0  0  0  0  0  0  0  0
   -4.2863    3.1193   -1.8674 C   0  0  0  0  0  0  0  0  0  0  0  0
   -4.1354    0.7292   -0.8198 H   0  0  0  0  0  0  0  0  0  0  0  0
   -3.7695    1.9177   -3.5595 H   0  0  0  0  0  0  0  0  0  0  0  0
   -4.0724    3.1941   -0.7962 H   0  0  0  0  0  0  0  0  0  0  0  0
   -4.0022    4.0623   -2.3450 H   0  0  0  0  0  0  0  0  0  0  0  0
   -5.3635    2.9776   -1.9987 H   0  0  0  0  0  0  0  0  0  0  0  0
   -1.2119    1.0165   -2.7746 N   0  0  0  0  0  0  0  0  0  0  0  0
    0.2359    0.7598   -2.5768 C   0  0  2  0  0  0  0  0  0  0  0  0
    0.4445    0.0309   -1.2331 C   0  0  0  0  0  0  0  0  0  0  0  0
    1.4775   -0.5744   -0.9841 O   0  0  0  0  0  0  0  0  0  0  0  0
    1.1682    1.9765   -2.6847 C   0  0  0  0  0  0  0  0  0  0  0  0
    1.1535    2.6628   -4.3884 S   0  0  0  0  0  0  0  0  0  0  0  0
   -1.7491    0.2877   -3.2569 H   0  0  0  0  0  0  0  0  0  0  0  0
    0.5518    0.0600   -3.3575 H   0  0  0  0  0  0  0  0  0  0  0  0
    0.8989    2.7430   -1.9595 H   0  0  0  0  0  0  0  0  0  0  0  0
    2.1927    1.6700   -2.4493 H   0  0  0  0  0  0  0  0  0  0  0  0
   -0.5920    0.0194   -0.3200 N   0  0  0  0  0  0  0  0  0  0  0  0
   -0.6427   -0.6883    0.9583 C   0  0  2  0  0  0  0  0  0  0  0  0
   -2.1100   -0.8901    1.4005 C   0  0  0  0  0  0  0  0  0  0  0  0
   -3.0211   -0.2740    0.8472 O   0  0  0  0  0  0  0  0  0  0  0  0
    0.1281    0.1245    2.0042 C   0  0  0  0  0  0  0  0  0  0  0  0
   -1.4150    0.5612   -0.5812 H   0  0  0  0  0  0  0  0  0  0  0  0
   -0.1804   -1.6750    0.8475 H   0  0  0  0  0  0  0  0  0  0  0  0
   -0.3174    1.1177    2.1203 H   0  0  0  0  0  0  0  0  0  0  0  0
    0.1112   -0.3809    2.9745 H   0  0  0  0  0  0  0  0  0  0  0  0
    1.1725    0.2458    1.6994 H   0  0  0  0  0  0  0  0  0  0  0  0
   -2.4217   -1.7956    2.3967 N   0  0  0  0  0  0  0  0  0  0  0  0
   -3.7828   -2.0583    2.8487 C   0  0  0  0  0  0  0  0  0  0  0  0
   -1.6540   -2.3016    2.8304 H   0  0  0  0  0  0  0  0  0  0  0  0
   -4.2515   -1.1379    3.2130 H   0  0  0  0  0  0  0  0  0  0  0  0
   -4.3870   -2.4621    2.0297 H   0  0  0  0  0  0  0  0  0  0  0  0
   -3.7759   -2.7872    3.6650 H   0  0  0  0  0  0  0  0  0  0  0  0
  1  2  2  0  0  0  0
  1  3  1  0  0  0  0
  1  7  1  0  0  0  0
  3  4  1  0  0  0  0
  3  5  1  0  0  0  0
  3  6  1  0  0  0  0
  7  8  1  0  0  0  0
  7 13  1  0  0  0  0
  8  9  1  0  0  0  0
  8 11  1  0  0  0  0
  8 14  1  0  0  0  0
  9 10  2  0  0  0  0
  9 17  1  0  0  0  0
 11 12  1  0  0  0  0
 11 15  1  0  0  0  0
 11 16  1  0  0  0  0
 12 44  1  0  0  0  0
 17 18  1  0  0  0  0
 17 19  1  0  0  0  0
 18 20  1  0  0  0  0
 18 21  1  0  0  0  0
 18 22  1  0  0  0  0
 23 24  2  0  0  0  0
 23 25  1  0  0  0  0
 23 29  1  0  0  0  0
 25 26  1  0  0  0  0
 25 27  1  0  0  0  0
 25 28  1  0  0  0  0
 29 30  1  0  0  0  0
 29 34  1  0  0  0  0
 30 31  1  0  0  0  0
 30 33  1  0  0  0  0
 30 35  1  0  0  0  0
 31 32  2  0  0  0  0
 31 39  1  0  0  0  0
 33 36  1  0  0  0  0
 33 37  1  0  0  0  0
 33 38  1  0  0  0  0
 39 40  1  0  0  0  0
 39 45  1  0  0  0  0
 40 41  1  0  0  0  0
 40 43  1  0  0  0  0
 40 46  1  0  0  0  0
 41 42  2  0  0  0  0
 41 49  1  0  0  0  0
 43 44  1  0  0  0  0
 43 47  1  0  0  0  0
 43 48  1  0  0  0  0
 49 50  1  0  0  0  0
 49 54  1  0  0  0  0
 50 51  1  0  0  0  0
 50 53  1  0  0  0  0
 50 55  1  0  0  0  0
 51 52  2  0  0  0  0
 51 59  1  0  0  0  0
 53 56  1  0  0  0  0
 53 57  1  0  0  0  0
 53 58  1  0  0  0  0
 59 60  1  0  0  0  0
 59 61  1  0  0  0  0
 60 62  1  0  0  0  0
 60 63  1  0  0  0  0
 60 64  1  0  0  0  0
M  END
$$$$

  -OEChem-05262216053D

 64 63  0     1  0  0  0  0  0999 V2000
   -0.0243    8.2914   -3.8326 C   0  0  0  0  0  0  0  0  0  0  0  0
   -1.1629    8.0512   -4.2041 O   0  0  0  0  0  0  0  0  0  0  0  0
    0.7041    9.5166   -4.3498 C   0  0  0  0  0  0  0  0  0  0  0  0
    1.5908    9.2116   -4.9111 H   0  0  0  0  0  0  0  0  0  0  0  0
    0.0498   10.0927   -5.0098 H   0  0  0  0  0  0  0  0  0  0  0  0
    1.0088   10.1516   -3.5144 H   0  0  0  0  0  0  0  0  0  0  0  0
    0.6009    7.4410   -2.9477 N   0  0  0  0  0  0  0  0  0  0  0  0
   -0.0239    6.2524   -2.3507 C   0  0  2  0  0  0  0  0  0  0  0  0
    0.6487    5.8564   -1.0157 C   0  0  0  0  0  0  0  0  0  0  0  0
    1.5576    6.5466   -0.5638 O   0  0  0  0  0  0  0  0  0  0  0  0
    0.0142    5.1017   -3.3663 C   0  0  0  0  0  0  0  0  0  0  0  0
    1.7328    4.5583   -3.7329 S   0  0  0  0  0  0  0  0  0  0  0  0
    1.5135    7.7140   -2.5843 H   0  0  0  0  0  0  0  0  0  0  0  0
   -1.0700    6.4778   -2.1188 H   0  0  0  0  0  0  0  0  0  0  0  0
   -0.5549    4.2592   -2.9729 H   0  0  0  0  0  0  0  0  0  0  0  0
   -0.4692    5.4113   -4.2982 H   0  0  0  0  0  0  0  0  0  0  0  0
    0.2186    4.7591   -0.2896 N   0  0  0  0  0  0  0  0  0  0  0  0
    0.8955    4.2883    0.9117 C   0  0  0  0  0  0  0  0  0  0  0  0
   -0.4568    4.1302   -0.7315 H   0  0  0  0  0  0  0  0  0  0  0  0
    1.9236    3.9911    0.6803 H   0  0  0  0  0  0  0  0  0  0  0  0
    0.9171    5.0730    1.6749 H   0  0  0  0  0  0  0  0  0  0  0  0
    0.3691    3.4215    1.3227 H   0  0  0  0  0  0  0  0  0  0  0  0
   -5.3691    1.9938   -1.7659 C   0  0  0  0  0  0  0  0  0  0  0  0
   -5.8223    1.1449   -2.5161 O   0  0  0  0  0  0  0  0  0  0  0  0
   -6.2482    2.6086   -0.6932 C   0  0  0  0  0  0  0  0  0  0  0  0
   -6.3436    3.6841   -0.8599 H   0  0  0  0  0  0  0  0  0  0  0  0
   -7.2444    2.1577   -0.7194 H   0  0  0  0  0  0  0  0  0  0  0  0
   -5.8109    2.4364    0.2932 H   0  0  0  0  0  0  0  0  0  0  0  0
   -4.0515    2.3848   -1.8875 N   0  0  0  0  0  0  0  0  0  0  0  0
   -3.0815    1.7436   -2.7870 C   0  0  2  0  0  0  0  0  0  0  0  0
   -1.6693    1.6803   -2.1710 C   0  0  0  0  0  0  0  0  0  0  0  0
   -1.3540    2.4776   -1.2931 O   0  0  0  0  0  0  0  0  0  0  0  0
   -3.0524    2.5245   -4.1036 C   0  0  0  0  0  0  0  0  0  0  0  0
   -3.6870    3.0217   -1.1816 H   0  0  0  0  0  0  0  0  0  0  0  0
   -3.3929    0.7124   -2.9891 H   0  0  0  0  0  0  0  0  0  0  0  0
   -2.7812    3.5699   -3.9261 H   0  0  0  0  0  0  0  0  0  0  0  0
   -2.3249    2.0877   -4.7946 H   0  0  0  0  0  0  0  0  0  0  0  0
   -4.0378    2.4977   -4.5792 H   0  0  0  0  0  0  0  0  0  0  0  0
   -0.8013    0.6697   -2.5515 N   0  0  0  0  0  0  0  0  0  0  0  0
    0.6576    0.5799   -2.2876 C   0  0  2  0  0  0  0  0  0  0  0  0
    0.9600   -0.1387   -0.9547 C   0  0  0  0  0  0  0  0  0  0  0  0
    2.1143   -0.3666   -0.6186 O   0  0  0  0  0  0  0  0  0  0  0  0
    1.4155    1.9146   -2.3939 C   0  0  0  0  0  0  0  0  0  0  0  0
    1.3612    2.5429   -4.1197 S   0  0  0  0  0  0  0  0  0  0  0  0
   -1.1645    0.0516   -3.2740 H   0  0  0  0  0  0  0  0  0  0  0  0
    1.0819   -0.0695   -3.0596 H   0  0  0  0  0  0  0  0  0  0  0  0
    1.0176    2.6531   -1.7001 H   0  0  0  0  0  0  0  0  0  0  0  0
    2.4652    1.7653   -2.1205 H   0  0  0  0  0  0  0  0  0  0  0  0
   -0.0759   -0.6059   -0.1704 N   0  0  0  0  0  0  0  0  0  0  0  0
    0.0589   -1.5720    0.9246 C   0  0  2  0  0  0  0  0  0  0  0  0
   -1.0584   -2.6352    0.8591 C   0  0  0  0  0  0  0  0  0  0  0  0
   -2.0181   -2.4722    0.1120 O   0  0  0  0  0  0  0  0  0  0  0  0
    0.0014   -0.7992    2.2443 C   0  0  0  0  0  0  0  0  0  0  0  0
   -1.0118   -0.4879   -0.5566 H   0  0  0  0  0  0  0  0  0  0  0  0
    1.0179   -2.0966    0.8530 H   0  0  0  0  0  0  0  0  0  0  0  0
   -0.9620   -0.2897    2.3480 H   0  0  0  0  0  0  0  0  0  0  0  0
    0.1312   -1.4770    3.0930 H   0  0  0  0  0  0  0  0  0  0  0  0
    0.7971   -0.0482    2.2768 H   0  0  0  0  0  0  0  0  0  0  0  0
   -0.9869   -3.7807    1.6299 N   0  0  0  0  0  0  0  0  0  0  0  0
   -1.9994   -4.8298    1.6002 C   0  0  0  0  0  0  0  0  0  0  0  0
   -0.1711   -3.9003    2.2234 H   0  0  0  0  0  0  0  0  0  0  0  0
   -2.9796   -4.4257    1.8747 H   0  0  0  0  0  0  0  0  0  0  0  0
   -2.0678   -5.2687    0.5993 H   0  0  0  0  0  0  0  0  0  0  0  0
   -1.7428   -5.6232    2.3087 H   0  0  0  0  0  0  0  0  0  0  0  0
  1  2  2  0  0  0  0
  1  3  1  0  0  0  0
  1  7  1  0  0  0  0
  3  4  1  0  0  0  0
  3  5  1  0  0  0  0
  3  6  1  0  0  0  0
  7  8  1  0  0  0  0
  7 13  1  0  0  0  0
  8  9  1  0  0  0  0
  8 11  1  0  0  0  0
  8 14  1  0  0  0  0
  9 10  2  0  0  0  0
  9 17  1  0  0  0  0
 11 12  1  0  0  0  0
 11 15  1  0  0  0  0
 11 16  1  0  0  0  0
 12 44  1  0  0  0  0
 17 18  1  0  0  0  0
 17 19  1  0  0  0  0
 18 20  1  0  0  0  0
 18 21  1  0  0  0  0
 18 22  1  0  0  0  0
 23 24  2  0  0  0  0
 23 25  1  0  0  0  0
 23 29  1  0  0  0  0
 25 26  1  0  0  0  0
 25 27  1  0  0  0  0
 25 28  1  0  0  0  0
 29 30  1  0  0  0  0
 29 34  1  0  0  0  0
 30 31  1  0  0  0  0
 30 33  1  0  0  0  0
 30 35  1  0  0  0  0
 31 32  2  0  0  0  0
 31 39  1  0  0  0  0
 33 36  1  0  0  0  0
 33 37  1  0  0  0  0
 33 38  1  0  0  0  0
 39 40  1  0  0  0  0
 39 45  1  0  0  0  0
 40 41  1  0  0  0  0
 40 43  1  0  0  0  0
 40 46  1  0  0  0  0
 41 42  2  0  0  0  0
 41 49  1  0  0  0  0
 43 44  1  0  0  0  0
 43 47  1  0  0  0  0
 43 48  1  0  0  0  0
 49 50  1  0  0  0  0
 49 54  1  0  0  0  0
 50 51  1  0  0  0  0
 50 53  1  0  0  0  0
 50 55  1  0  0  0  0
 51 52  2  0  0  0  0
 51 59  1  0  0  0  0
 53 56  1  0  0  0  0
 53 57  1  0  0  0  0
 53 58  1  0  0  0  0
 59 60  1  0  0  0  0
 59 61  1  0  0  0  0
 60 62  1  0  0  0  0
 60 63  1  0  0  0  0
 60 64  1  0  0  0  0
M  END
$$$$

  -OEChem-05262216053D

 64 63  0     1  0  0  0  0  0999 V2000
    0.8353    8.2310   -4.4339 C   0  0  0  0  0  0  0  0  0  0  0  0
   -0.2979    8.0986   -4.8709 O   0  0  0  0  0  0  0  0  0  0  0  0
    1.7449    9.3115   -4.9863 C   0  0  0  0  0  0  0  0  0  0  0  0
    2.6671    8.8636   -5.3650 H   0  0  0  0  0  0  0  0  0  0  0  0
    1.2478    9.8411   -5.8039 H   0  0  0  0  0  0  0  0  0  0  0  0
    1.9921   10.0287   -4.2000 H   0  0  0  0  0  0  0  0  0  0  0  0
    1.2878    7.3984   -3.4344 N   0  0  0  0  0  0  0  0  0  0  0  0
    0.4662    6.3832   -2.7606 C   0  0  2  0  0  0  0  0  0  0  0  0
    0.9738    6.0887   -1.3300 C   0  0  0  0  0  0  0  0  0  0  0  0
    1.9119    6.7358   -0.8724 O   0  0  0  0  0  0  0  0  0  0  0  0
    0.4289    5.1161   -3.6250 C   0  0  0  0  0  0  0  0  0  0  0  0
    2.0527    4.2536   -3.6713 S   0  0  0  0  0  0  0  0  0  0  0  0
    2.1956    7.6035   -3.0187 H   0  0  0  0  0  0  0  0  0  0  0  0
   -0.5559    6.7618   -2.6567 H   0  0  0  0  0  0  0  0  0  0  0  0
   -0.3265    4.4380   -3.2293 H   0  0  0  0  0  0  0  0  0  0  0  0
    0.1281    5.3699   -4.6461 H   0  0  0  0  0  0  0  0  0  0  0  0
    0.3657    5.1375   -0.5305 N   0  0  0  0  0  0  0  0  0  0  0  0
    0.8801    4.7527    0.7768 C   0  0  0  0  0  0  0  0  0  0  0  0
   -0.3429    4.5370   -0.9619 H   0  0  0  0  0  0  0  0  0  0  0  0
    1.9082    4.3859    0.6912 H   0  0  0  0  0  0  0  0  0  0  0  0
    0.8650    5.6063    1.4623 H   0  0  0  0  0  0  0  0  0  0  0  0
    0.2632    3.9555    1.2027 H   0  0  0  0  0  0  0  0  0  0  0  0
   -4.4703    0.7016   -1.0928 C   0  0  0  0  0  0  0  0  0  0  0  0
   -3.7471   -0.1857   -1.5240 O   0  0  0  0  0  0  0  0  0  0  0  0
   -5.4018    0.4322    0.0733 C   0  0  0  0  0  0  0  0  0  0  0  0
   -6.4197    0.7358   -0.1823 H   0  0  0  0  0  0  0  0  0  0  0  0
   -5.4057   -0.6344    0.3147 H   0  0  0  0  0  0  0  0  0  0  0  0
   -5.0711    0.9926    0.9516 H   0  0  0  0  0  0  0  0  0  0  0  0
   -4.3824    1.9691   -1.6317 N   0  0  0  0  0  0  0  0  0  0  0  0
   -3.4237    2.3327   -2.6840 C   0  0  2  0  0  0  0  0  0  0  0  0
   -1.9614    2.2176   -2.1980 C   0  0  0  0  0  0  0  0  0  0  0  0
   -1.4852    3.0940   -1.4862 O   0  0  0  0  0  0  0  0  0  0  0  0
   -3.7506    3.7528   -3.1593 C   0  0  0  0  0  0  0  0  0  0  0  0
   -4.8893    2.7125   -1.1591 H   0  0  0  0  0  0  0  0  0  0  0  0
   -3.5499    1.6569   -3.5367 H   0  0  0  0  0  0  0  0  0  0  0  0
   -3.6718    4.4686   -2.3345 H   0  0  0  0  0  0  0  0  0  0  0  0
   -3.0546    4.0570   -3.9476 H   0  0  0  0  0  0  0  0  0  0  0  0
   -4.7677    3.7951   -3.5612 H   0  0  0  0  0  0  0  0  0  0  0  0
   -1.2728    1.0471   -2.4674 N   0  0  0  0  0  0  0  0  0  0  0  0
    0.1028    0.6725   -2.0700 C   0  0  2  0  0  0  0  0  0  0  0  0
    0.1130   -0.0444   -0.7002 C   0  0  0  0  0  0  0  0  0  0  0  0
    1.1677   -0.2492   -0.1104 O   0  0  0  0  0  0  0  0  0  0  0  0
    1.1466    1.8031   -2.1717 C   0  0  0  0  0  0  0  0  0  0  0  0
    1.3633    2.3015   -3.9293 S   0  0  0  0  0  0  0  0  0  0  0  0
   -1.8521    0.3056   -2.8628 H   0  0  0  0  0  0  0  0  0  0  0  0
    0.4329   -0.0912   -2.7807 H   0  0  0  0  0  0  0  0  0  0  0  0
    0.8736    2.6581   -1.5537 H   0  0  0  0  0  0  0  0  0  0  0  0
    2.1135    1.4483   -1.8008 H   0  0  0  0  0  0  0  0  0  0  0  0
   -1.0597   -0.5388   -0.1519 N   0  0  0  0  0  0  0  0  0  0  0  0
   -1.0564   -1.5601    0.9018 C   0  0  2  0  0  0  0  0  0  0  0  0
   -0.7596   -2.9690    0.3422 C   0  0  0  0  0  0  0  0  0  0  0  0
   -1.2084   -3.3117   -0.7460 O   0  0  0  0  0  0  0  0  0  0  0  0
   -2.4261   -1.5391    1.5826 C   0  0  0  0  0  0  0  0  0  0  0  0
   -1.8833   -0.5007   -0.7573 H   0  0  0  0  0  0  0  0  0  0  0  0
   -0.2952   -1.3162    1.6500 H   0  0  0  0  0  0  0  0  0  0  0  0
   -3.2112   -1.8066    0.8680 H   0  0  0  0  0  0  0  0  0  0  0  0
   -2.4514   -2.2562    2.4089 H   0  0  0  0  0  0  0  0  0  0  0  0
   -2.6378   -0.5423    1.9809 H   0  0  0  0  0  0  0  0  0  0  0  0
   -0.0166   -3.8719    1.0810 N   0  0  0  0  0  0  0  0  0  0  0  0
    0.3528   -5.1904    0.5800 C   0  0  0  0  0  0  0  0  0  0  0  0
    0.4427   -3.5205    1.9161 H   0  0  0  0  0  0  0  0  0  0  0  0
   -0.5424   -5.7719    0.3352 H   0  0  0  0  0  0  0  0  0  0  0  0
    0.9715   -5.0992   -0.3191 H   0  0  0  0  0  0  0  0  0  0  0  0
    0.9211   -5.7375    1.3381 H   0  0  0  0  0  0  0  0  0  0  0  0
  1  2  2  0  0  0  0
  1  3  1  0  0  0  0
  1  7  1  0  0  0  0
  3  4  1  0  0  0  0
  3  5  1  0  0  0  0
  3  6  1  0  0  0  0
  7  8  1  0  0  0  0
  7 13  1  0  0  0  0
  8  9  1  0  0  0  0
  8 11  1  0  0  0  0
  8 14  1  0  0  0  0
  9 10  2  0  0  0  0
  9 17  1  0  0  0  0
 11 12  1  0  0  0  0
 11 15  1  0  0  0  0
 11 16  1  0  0  0  0
 12 44  1  0  0  0  0
 17 18  1  0  0  0  0
 17 19  1  0  0  0  0
 18 20  1  0  0  0  0
 18 21  1  0  0  0  0
 18 22  1  0  0  0  0
 23 24  2  0  0  0  0
 23 25  1  0  0  0  0
 23 29  1  0  0  0  0
 25 26  1  0  0  0  0
 25 27  1  0  0  0  0
 25 28  1  0  0  0  0
 29 30  1  0  0  0  0
 29 34  1  0  0  0  0
 30 31  1  0  0  0  0
 30 33  1  0  0  0  0
 30 35  1  0  0  0  0
 31 32  2  0  0  0  0
 31 39  1  0  0  0  0
 33 36  1  0  0  0  0
 33 37  1  0  0  0  0
 33 38  1  0  0  0  0
 39 40  1  0  0  0  0
 39 45  1  0  0  0  0
 40 41  1  0  0  0  0
 40 43  1  0  0  0  0
 40 46  1  0  0  0  0
 41 42  2  0  0  0  0
 41 49  1  0  0  0  0
 43 44  1  0  0  0  0
 43 47  1  0  0  0  0
 43 48  1  0  0  0  0
 49 50  1  0  0  0  0
 49 54  1  0  0  0  0
 50 51  1  0  0  0  0
 50 53  1  0  0  0  0
 50 55  1  0  0  0  0
 51 52  2  0  0  0  0
 51 59  1  0  0  0  0
 53 56  1  0  0  0  0
 53 57  1  0  0  0  0
 53 58  1  0  0  0  0
 59 60  1  0  0  0  0
 59 61  1  0  0  0  0
 60 62  1  0  0  0  0
 60 63  1  0  0  0  0
 60 64  1  0  0  0  0
M  END
$$$$

  -OEChem-05262216053D

 64 63  0     1  0  0  0  0  0999 V2000
    1.0250    8.3944   -4.2678 C   0  0  0  0  0  0  0  0  0  0  0  0
   -0.1190    8.3778   -4.6960 O   0  0  0  0  0  0  0  0  0  0  0  0
    1.9979    9.4601   -4.7340 C   0  0  0  0  0  0  0  0  0  0  0  0
    2.8303    8.9953   -5.2680 H   0  0  0  0  0  0  0  0  0  0  0  0
    1.4947   10.1621   -5.4050 H   0  0  0  0  0  0  0  0  0  0  0  0
    2.3872   10.0115   -3.8748 H   0  0  0  0  0  0  0  0  0  0  0  0
    1.4309    7.4510   -3.3504 N   0  0  0  0  0  0  0  0  0  0  0  0
    0.5474    6.4479   -2.7403 C   0  0  2  0  0  0  0  0  0  0  0  0
    1.0578    6.0064   -1.3485 C   0  0  0  0  0  0  0  0  0  0  0  0
    2.0594    6.5341   -0.8724 O   0  0  0  0  0  0  0  0  0  0  0  0
    0.4023    5.2578   -3.6987 C   0  0  0  0  0  0  0  0  0  0  0  0
    1.9779    4.3290   -3.8989 S   0  0  0  0  0  0  0  0  0  0  0  0
    2.3559    7.5578   -2.9358 H   0  0  0  0  0  0  0  0  0  0  0  0
   -0.4417    6.8909   -2.5838 H   0  0  0  0  0  0  0  0  0  0  0  0
   -0.3674    4.5852   -3.3197 H   0  0  0  0  0  0  0  0  0  0  0  0
    0.0666    5.6095   -4.6791 H   0  0  0  0  0  0  0  0  0  0  0  0
    0.3804    5.0608   -0.5995 N   0  0  0  0  0  0  0  0  0  0  0  0
    0.8967    4.5209    0.6513 C   0  0  0  0  0  0  0  0  0  0  0  0
   -0.3720    4.5439   -1.0635 H   0  0  0  0  0  0  0  0  0  0  0  0
    1.8562    4.0201    0.4851 H   0  0  0  0  0  0  0  0  0  0  0  0
    1.0364    5.3195    1.3870 H   0  0  0  0  0  0  0  0  0  0  0  0
    0.1926    3.7911    1.0630 H   0  0  0  0  0  0  0  0  0  0  0  0
   -4.3633    0.2494   -1.3598 C   0  0  0  0  0  0  0  0  0  0  0  0
   -3.5971   -0.4845   -1.9693 O   0  0  0  0  0  0  0  0  0  0  0  0
   -5.2524   -0.3134   -0.2677 C   0  0  0  0  0  0  0  0  0  0  0  0
   -6.2915   -0.0240   -0.4435 H   0  0  0  0  0  0  0  0  0  0  0  0
   -5.1906   -1.4053   -0.2560 H   0  0  0  0  0  0  0  0  0  0  0  0
   -4.9352    0.0686    0.7057 H   0  0  0  0  0  0  0  0  0  0  0  0
   -4.3770    1.6024   -1.6347 N   0  0  0  0  0  0  0  0  0  0  0  0
   -3.5390    2.2442   -2.6595 C   0  0  2  0  0  0  0  0  0  0  0  0
   -2.0373    2.2231   -2.2897 C   0  0  0  0  0  0  0  0  0  0  0  0
   -1.5417    3.1449   -1.6534 O   0  0  0  0  0  0  0  0  0  0  0  0
   -4.0651    3.6695   -2.8696 C   0  0  0  0  0  0  0  0  0  0  0  0
   -4.9567    2.1925   -1.0436 H   0  0  0  0  0  0  0  0  0  0  0  0
   -3.6508    1.7067   -3.6074 H   0  0  0  0  0  0  0  0  0  0  0  0
   -4.0078    4.2470   -1.9409 H   0  0  0  0  0  0  0  0  0  0  0  0
   -3.4715    4.1830   -3.6329 H   0  0  0  0  0  0  0  0  0  0  0  0
   -5.1076    3.6462   -3.2020 H   0  0  0  0  0  0  0  0  0  0  0  0
   -1.3269    1.0724   -2.5807 N   0  0  0  0  0  0  0  0  0  0  0  0
    0.0765    0.7298   -2.2645 C   0  0  2  0  0  0  0  0  0  0  0  0
    0.1590    0.0293   -0.8885 C   0  0  0  0  0  0  0  0  0  0  0  0
    1.1825    0.0674   -0.2154 O   0  0  0  0  0  0  0  0  0  0  0  0
    1.0840    1.8862   -2.4153 C   0  0  0  0  0  0  0  0  0  0  0  0
    1.1988    2.4128   -4.1734 S   0  0  0  0  0  0  0  0  0  0  0  0
   -1.9211    0.3048   -2.9028 H   0  0  0  0  0  0  0  0  0  0  0  0
    0.3886   -0.0293   -2.9881 H   0  0  0  0  0  0  0  0  0  0  0  0
    0.8220    2.7253   -1.7728 H   0  0  0  0  0  0  0  0  0  0  0  0
    2.0782    1.5529   -2.1007 H   0  0  0  0  0  0  0  0  0  0  0  0
   -0.9049   -0.7336   -0.4346 N   0  0  0  0  0  0  0  0  0  0  0  0
   -0.7882   -1.6977    0.6661 C   0  0  2  0  0  0  0  0  0  0  0  0
   -0.3557   -3.0932    0.1682 C   0  0  0  0  0  0  0  0  0  0  0  0
   -0.7925   -3.5345   -0.8883 O   0  0  0  0  0  0  0  0  0  0  0  0
   -2.1470   -1.7770    1.3625 C   0  0  0  0  0  0  0  0  0  0  0  0
   -1.6748   -0.8687   -1.0930 H   0  0  0  0  0  0  0  0  0  0  0  0
   -0.0504   -1.3489    1.3960 H   0  0  0  0  0  0  0  0  0  0  0  0
   -2.9091   -2.1491    0.6703 H   0  0  0  0  0  0  0  0  0  0  0  0
   -2.0958   -2.4549    2.2201 H   0  0  0  0  0  0  0  0  0  0  0  0
   -2.4481   -0.7875    1.7196 H   0  0  0  0  0  0  0  0  0  0  0  0
    0.4914   -3.8766    0.9303 N   0  0  0  0  0  0  0  0  0  0  0  0
    0.9779   -5.1793    0.4922 C   0  0  0  0  0  0  0  0  0  0  0  0
    0.9240   -3.4407    1.7394 H   0  0  0  0  0  0  0  0  0  0  0  0
    0.1390   -5.8412    0.2522 H   0  0  0  0  0  0  0  0  0  0  0  0
    1.6088   -5.0733   -0.3967 H   0  0  0  0  0  0  0  0  0  0  0  0
    1.5689   -5.6486    1.2846 H   0  0  0  0  0  0  0  0  0  0  0  0
  1  2  2  0  0  0  0
  1  3  1  0  0  0  0
  1  7  1  0  0  0  0
  3  4  1  0  0  0  0
  3  5  1  0  0  0  0
  3  6  1  0  0  0  0
  7  8  1  0  0  0  0
  7 13  1  0  0  0  0
  8  9  1  0  0  0  0
  8 11  1  0  0  0  0
  8 14  1  0  0  0  0
  9 10  2  0  0  0  0
  9 17  1  0  0  0  0
 11 12  1  0  0  0  0
 11 15  1  0  0  0  0
 11 16  1  0  0  0  0
 12 44  1  0  0  0  0
 17 18  1  0  0  0  0
 17 19  1  0  0  0  0
 18 20  1  0  0  0  0
 18 21  1  0  0  0  0
 18 22  1  0  0  0  0
 23 24  2  0  0  0  0
 23 25  1  0  0  0  0
 23 29  1  0  0  0  0
 25 26  1  0  0  0  0
 25 27  1  0  0  0  0
 25 28  1  0  0  0  0
 29 30  1  0  0  0  0
 29 34  1  0  0  0  0
 30 31  1  0  0  0  0
 30 33  1  0  0  0  0
 30 35  1  0  0  0  0
 31 32  2  0  0  0  0
 31 39  1  0  0  0  0
 33 36  1  0  0  0  0
 33 37  1  0  0  0  0
 33 38  1  0  0  0  0
 39 40  1  0  0  0  0
 39 45  1  0  0  0  0
 40 41  1  0  0  0  0
 40 43  1  0  0  0  0
 40 46  1  0  0  0  0
 41 42  2  0  0  0  0
 41 49  1  0  0  0  0
 43 44  1  0  0  0  0
 43 47  1  0  0  0  0
 43 48  1  0  0  0  0
 49 50  1  0  0  0  0
 49 54  1  0  0  0  0
 50 51  1  0  0  0  0
 50 53  1  0  0  0  0
 50 55  1  0  0  0  0
 51 52  2  0  0  0  0
 51 59  1  0  0  0  0
 53 56  1  0  0  0  0
 53 57  1  0  0  0  0
 53 58  1  0  0  0  0
 59 60  1  0  0  0  0
 59 61  1  0  0  0  0
 60 62  1  0  0  0  0
 60 63  1  0  0  0  0
 60 64  1  0  0  0  0
M  END
$$$$

  -OEChem-05262216053D

 64 63  0     1  0  0  0  0  0999 V2000
    0.9664    8.5793   -4.0548 C   0  0  0  0  0  0  0  0  0  0  0  0
   -0.1965    8.6091   -4.4276 O   0  0  0  0  0  0  0  0  0  0  0  0
    1.9133    9.7072   -4.4185 C   0  0  0  0  0  0  0  0  0  0  0  0
    2.7249    9.3255   -5.0427 H   0  0  0  0  0  0  0  0  0  0  0  0
    1.3788   10.4853   -4.9704 H   0  0  0  0  0  0  0  0  0  0  0  0
    2.3357   10.1465   -3.5113 H   0  0  0  0  0  0  0  0  0  0  0  0
    1.4165    7.5312   -3.2835 N   0  0  0  0  0  0  0  0  0  0  0  0
    0.5551    6.4789   -2.7266 C   0  0  2  0  0  0  0  0  0  0  0  0
    1.1168    5.9347   -1.3919 C   0  0  0  0  0  0  0  0  0  0  0  0
    2.1611    6.3963   -0.9384 O   0  0  0  0  0  0  0  0  0  0  0  0
    0.3742    5.3687   -3.7724 C   0  0  0  0  0  0  0  0  0  0  0  0
    1.9390    4.4581   -4.1042 S   0  0  0  0  0  0  0  0  0  0  0  0
    2.3553    7.6018   -2.8928 H   0  0  0  0  0  0  0  0  0  0  0  0
   -0.4285    6.9027   -2.4990 H   0  0  0  0  0  0  0  0  0  0  0  0
   -0.3837    4.6669   -3.4229 H   0  0  0  0  0  0  0  0  0  0  0  0
    0.0052    5.8003   -4.7080 H   0  0  0  0  0  0  0  0  0  0  0  0
    0.4364    4.9768   -0.6620 N   0  0  0  0  0  0  0  0  0  0  0  0
    1.0038    4.3299    0.5145 C   0  0  0  0  0  0  0  0  0  0  0  0
   -0.3487    4.5089   -1.1241 H   0  0  0  0  0  0  0  0  0  0  0  0
    1.9311    3.8083    0.2552 H   0  0  0  0  0  0  0  0  0  0  0  0
    1.2175    5.0671    1.2951 H   0  0  0  0  0  0  0  0  0  0  0  0
    0.2976    3.5966    0.9156 H   0  0  0  0  0  0  0  0  0  0  0  0
   -4.1610   -0.0445   -1.6177 C   0  0  0  0  0  0  0  0  0  0  0  0
   -3.4180   -0.6682   -2.3630 O   0  0  0  0  0  0  0  0  0  0  0  0
   -4.9435   -0.7703   -0.5402 C   0  0  0  0  0  0  0  0  0  0  0  0
   -6.0140   -0.5964   -0.6743 H   0  0  0  0  0  0  0  0  0  0  0  0
   -4.7535   -1.8461   -0.5968 H   0  0  0  0  0  0  0  0  0  0  0  0
   -4.6434   -0.4105    0.4471 H   0  0  0  0  0  0  0  0  0  0  0  0
   -4.2437    1.3298   -1.7289 N   0  0  0  0  0  0  0  0  0  0  0  0
   -3.5025    2.1247   -2.7212 C   0  0  2  0  0  0  0  0  0  0  0  0
   -1.9885    2.1853   -2.4086 C   0  0  0  0  0  0  0  0  0  0  0  0
   -1.5136    3.1379   -1.8025 O   0  0  0  0  0  0  0  0  0  0  0  0
   -4.1453    3.5161   -2.7837 C   0  0  0  0  0  0  0  0  0  0  0  0
   -4.7947    1.8218   -1.0305 H   0  0  0  0  0  0  0  0  0  0  0  0
   -3.6137    1.6653   -3.7096 H   0  0  0  0  0  0  0  0  0  0  0  0
   -4.0881    4.0156   -1.8110 H   0  0  0  0  0  0  0  0  0  0  0  0
   -3.6293    4.1384   -3.5223 H   0  0  0  0  0  0  0  0  0  0  0  0
   -5.1974    3.4374   -3.0747 H   0  0  0  0  0  0  0  0  0  0  0  0
   -1.2382    1.0638   -2.7109 N   0  0  0  0  0  0  0  0  0  0  0  0
    0.1907    0.7832   -2.4553 C   0  0  2  0  0  0  0  0  0  0  0  0
    0.3372    0.1116   -1.0700 C   0  0  0  0  0  0  0  0  0  0  0  0
    1.2332    0.4268   -0.2957 O   0  0  0  0  0  0  0  0  0  0  0  0
    1.1398    1.9826   -2.6410 C   0  0  0  0  0  0  0  0  0  0  0  0
    1.1724    2.5369   -4.3929 S   0  0  0  0  0  0  0  0  0  0  0  0
   -1.8108    0.2753   -3.0255 H   0  0  0  0  0  0  0  0  0  0  0  0
    0.5121    0.0336   -3.1848 H   0  0  0  0  0  0  0  0  0  0  0  0
    0.8636    2.8020   -1.9823 H   0  0  0  0  0  0  0  0  0  0  0  0
    2.1579    1.6906   -2.3634 H   0  0  0  0  0  0  0  0  0  0  0  0
   -0.5289   -0.9081   -0.7101 N   0  0  0  0  0  0  0  0  0  0  0  0
   -0.3473   -1.7811    0.4580 C   0  0  2  0  0  0  0  0  0  0  0  0
    0.0357   -3.2188    0.0528 C   0  0  0  0  0  0  0  0  0  0  0  0
   -0.3794   -3.6951   -0.9973 O   0  0  0  0  0  0  0  0  0  0  0  0
   -1.6597   -1.7833    1.2423 C   0  0  0  0  0  0  0  0  0  0  0  0
   -1.1834   -1.2237   -1.4268 H   0  0  0  0  0  0  0  0  0  0  0  0
    0.4443   -1.3966    1.1089 H   0  0  0  0  0  0  0  0  0  0  0  0
   -2.4686   -2.1901    0.6277 H   0  0  0  0  0  0  0  0  0  0  0  0
   -1.5652   -2.3966    2.1437 H   0  0  0  0  0  0  0  0  0  0  0  0
   -1.9232   -0.7645    1.5426 H   0  0  0  0  0  0  0  0  0  0  0  0
    0.8107   -3.9970    0.8931 N   0  0  0  0  0  0  0  0  0  0  0  0
    1.2303   -5.3536    0.5630 C   0  0  0  0  0  0  0  0  0  0  0  0
    1.1924   -3.5538    1.7239 H   0  0  0  0  0  0  0  0  0  0  0  0
    0.3593   -5.9909    0.3772 H   0  0  0  0  0  0  0  0  0  0  0  0
    1.8625   -5.3517   -0.3310 H   0  0  0  0  0  0  0  0  0  0  0  0
    1.8010   -5.7845    1.3913 H   0  0  0  0  0  0  0  0  0  0  0  0
  1  2  2  0  0  0  0
  1  3  1  0  0  0  0
  1  7  1  0  0  0  0
  3  4  1  0  0  0  0
  3  5  1  0  0  0  0
  3  6  1  0  0  0  0
  7  8  1  0  0  0  0
  7 13  1  0  0  0  0
  8  9  1  0  0  0  0
  8 11  1  0  0  0  0
  8 14  1  0  0  0  0
  9 10  2  0  0  0  0
  9 17  1  0  0  0  0
 11 12  1  0  0  0  0
 11 15  1  0  0  0  0
 11 16  1  0  0  0  0
 12 44  1  0  0  0  0
 17 18  1  0  0  0  0
 17 19  1  0  0  0  0
 18 20  1  0  0  0  0
 18 21  1  0  0  0  0
 18 22  1  0  0  0  0
 23 24  2  0  0  0  0
 23 25  1  0  0  0  0
 23 29  1  0  0  0  0
 25 26  1  0  0  0  0
 25 27  1  0  0  0  0
 25 28  1  0  0  0  0
 29 30  1  0  0  0  0
 29 34  1  0  0  0  0
 30 31  1  0  0  0  0
 30 33  1  0  0  0  0
 30 35  1  0  0  0  0
 31 32  2  0  0  0  0
 31 39  1  0  0  0  0
 33 36  1  0  0  0  0
 33 37  1  0  0  0  0
 33 38  1  0  0  0  0
 39 40  1  0  0  0  0
 39 45  1  0  0  0  0
 40 41  1  0  0  0  0
 40 43  1  0  0  0  0
 40 46  1  0  0  0  0
 41 42  2  0  0  0  0
 41 49  1  0  0  0  0
 43 44  1  0  0  0  0
 43 47  1  0  0  0  0
 43 48  1  0  0  0  0
 49 50  1  0  0  0  0
 49 54  1  0  0  0  0
 50 51  1  0  0  0  0
 50 53  1  0  0  0  0
 50 55  1  0  0  0  0
 51 52  2  0  0  0  0
 51 59  1  0  0  0  0
 53 56  1  0  0  0  0
 53 57  1  0  0  0  0
 53 58  1  0  0  0  0
 59 60  1  0  0  0  0
 59 61  1  0  0  0  0
 60 62  1  0  0  0  0
 60 63  1  0  0  0  0
 60 64  1  0  0  0  0
M  END
$$$$

  -OEChem-05262216053D

 64 63  0     1  0  0  0  0  0999 V2000
    0.6977    8.7541   -4.0501 C   0  0  0  0  0  0  0  0  0  0  0  0
   -0.4805    8.7358   -4.3719 O   0  0  0  0  0  0  0  0  0  0  0  0
    1.6033    9.8704   -4.5344 C   0  0  0  0  0  0  0  0  0  0  0  0
    2.4732    9.4495   -5.0448 H   0  0  0  0  0  0  0  0  0  0  0  0
    1.0640   10.5170   -5.2322 H   0  0  0  0  0  0  0  0  0  0  0  0
    1.9415   10.4699   -3.6858 H   0  0  0  0  0  0  0  0  0  0  0  0
    1.2065    7.7625   -3.2415 N   0  0  0  0  0  0  0  0  0  0  0  0
    0.4203    6.6642   -2.6622 C   0  0  2  0  0  0  0  0  0  0  0  0
    1.0884    6.0975   -1.3872 C   0  0  0  0  0  0  0  0  0  0  0  0
    2.1358    6.5921   -0.9786 O   0  0  0  0  0  0  0  0  0  0  0  0
    0.2102    5.5773   -3.7273 C   0  0  0  0  0  0  0  0  0  0  0  0
    1.7957    4.8078   -4.2563 S   0  0  0  0  0  0  0  0  0  0  0  0
    2.1684    7.8568   -2.9181 H   0  0  0  0  0  0  0  0  0  0  0  0
   -0.5594    7.0467   -2.3579 H   0  0  0  0  0  0  0  0  0  0  0  0
   -0.4521    4.8068   -3.3303 H   0  0  0  0  0  0  0  0  0  0  0  0
   -0.2868    6.0069   -4.6025 H   0  0  0  0  0  0  0  0  0  0  0  0
    0.5027    5.0758   -0.6612 N   0  0  0  0  0  0  0  0  0  0  0  0
    1.1696    4.4162    0.4545 C   0  0  0  0  0  0  0  0  0  0  0  0
   -0.2754    4.5770   -1.1017 H   0  0  0  0  0  0  0  0  0  0  0  0
    2.0912    3.9302    0.1175 H   0  0  0  0  0  0  0  0  0  0  0  0
    1.4168    5.1384    1.2395 H   0  0  0  0  0  0  0  0  0  0  0  0
    0.5145    3.6513    0.8830 H   0  0  0  0  0  0  0  0  0  0  0  0
   -3.5851   -0.5972   -2.1307 C   0  0  0  0  0  0  0  0  0  0  0  0
   -2.9610   -0.8257   -3.1570 O   0  0  0  0  0  0  0  0  0  0  0  0
   -4.0361   -1.7385   -1.2398 C   0  0  0  0  0  0  0  0  0  0  0  0
   -5.1191   -1.7034   -1.1011 H   0  0  0  0  0  0  0  0  0  0  0  0
   -3.7702   -2.6980   -1.6933 H   0  0  0  0  0  0  0  0  0  0  0  0
   -3.5456   -1.6684   -0.2658 H   0  0  0  0  0  0  0  0  0  0  0  0
   -3.7887    0.7148   -1.7465 N   0  0  0  0  0  0  0  0  0  0  0  0
   -3.3108    1.8879   -2.5033 C   0  0  2  0  0  0  0  0  0  0  0  0
   -1.7880    2.1168   -2.3302 C   0  0  0  0  0  0  0  0  0  0  0  0
   -1.3592    3.0917   -1.7252 O   0  0  0  0  0  0  0  0  0  0  0  0
   -4.1490    3.0952   -2.0637 C   0  0  0  0  0  0  0  0  0  0  0  0
   -4.2347    0.8693   -0.8462 H   0  0  0  0  0  0  0  0  0  0  0  0
   -3.4926    1.7299   -3.5722 H   0  0  0  0  0  0  0  0  0  0  0  0
   -4.0083    3.2959   -0.9967 H   0  0  0  0  0  0  0  0  0  0  0  0
   -3.8521    3.9875   -2.6247 H   0  0  0  0  0  0  0  0  0  0  0  0
   -5.2117    2.9098   -2.2480 H   0  0  0  0  0  0  0  0  0  0  0  0
   -0.9531    1.0924   -2.7353 N   0  0  0  0  0  0  0  0  0  0  0  0
    0.5121    0.9484   -2.6260 C   0  0  2  0  0  0  0  0  0  0  0  0
    0.8353    0.2603   -1.2830 C   0  0  0  0  0  0  0  0  0  0  0  0
    1.6167    0.7487   -0.4754 O   0  0  0  0  0  0  0  0  0  0  0  0
    1.3210    2.2388   -2.8439 C   0  0  0  0  0  0  0  0  0  0  0  0
    1.1336    2.8531   -4.5647 S   0  0  0  0  0  0  0  0  0  0  0  0
   -1.4606    0.3116   -3.1637 H   0  0  0  0  0  0  0  0  0  0  0  0
    0.8357    0.2566   -3.4095 H   0  0  0  0  0  0  0  0  0  0  0  0
    1.0261    3.0046   -2.1297 H   0  0  0  0  0  0  0  0  0  0  0  0
    2.3827    2.0397   -2.6665 H   0  0  0  0  0  0  0  0  0  0  0  0
    0.3235   -1.0013   -1.0363 N   0  0  0  0  0  0  0  0  0  0  0  0
    0.4991   -1.7656    0.2058 C   0  0  2  0  0  0  0  0  0  0  0  0
   -0.0813   -3.1856    0.0554 C   0  0  0  0  0  0  0  0  0  0  0  0
   -1.0484   -3.3737   -0.6754 O   0  0  0  0  0  0  0  0  0  0  0  0
   -0.2130   -1.0617    1.3705 C   0  0  0  0  0  0  0  0  0  0  0  0
   -0.3514   -1.3687   -1.7079 H   0  0  0  0  0  0  0  0  0  0  0  0
    1.5679   -1.8499    0.4276 H   0  0  0  0  0  0  0  0  0  0  0  0
   -1.2745   -0.9232    1.1423 H   0  0  0  0  0  0  0  0  0  0  0  0
   -0.1281   -1.6567    2.2850 H   0  0  0  0  0  0  0  0  0  0  0  0
    0.2314   -0.0810    1.5636 H   0  0  0  0  0  0  0  0  0  0  0  0
    0.4589   -4.2463    0.7583 N   0  0  0  0  0  0  0  0  0  0  0  0
   -0.0272   -5.6153    0.6367 C   0  0  0  0  0  0  0  0  0  0  0  0
    1.2793   -4.0656    1.3302 H   0  0  0  0  0  0  0  0  0  0  0  0
   -1.0810   -5.6761    0.9282 H   0  0  0  0  0  0  0  0  0  0  0  0
    0.0739   -5.9671   -0.3953 H   0  0  0  0  0  0  0  0  0  0  0  0
    0.5494   -6.2807    1.2865 H   0  0  0  0  0  0  0  0  0  0  0  0
  1  2  2  0  0  0  0
  1  3  1  0  0  0  0
  1  7  1  0  0  0  0
  3  4  1  0  0  0  0
  3  5  1  0  0  0  0
  3  6  1  0  0  0  0
  7  8  1  0  0  0  0
  7 13  1  0  0  0  0
  8  9  1  0  0  0  0
  8 11  1  0  0  0  0
  8 14  1  0  0  0  0
  9 10  2  0  0  0  0
  9 17  1  0  0  0  0
 11 12  1  0  0  0  0
 11 15  1  0  0  0  0
 11 16  1  0  0  0  0
 12 44  1  0  0  0  0
 17 18  1  0  0  0  0
 17 19  1  0  0  0  0
 18 20  1  0  0  0  0
 18 21  1  0  0  0  0
 18 22  1  0  0  0  0
 23 24  2  0  0  0  0
 23 25  1  0  0  0  0
 23 29  1  0  0  0  0
 25 26  1  0  0  0  0
 25 27  1  0  0  0  0
 25 28  1  0  0  0  0
 29 30  1  0  0  0  0
 29 34  1  0  0  0  0
 30 31  1  0  0  0  0
 30 33  1  0  0  0  0
 30 35  1  0  0  0  0
 31 32  2  0  0  0  0
 31 39  1  0  0  0  0
 33 36  1  0  0  0  0
 33 37  1  0  0  0  0
 33 38  1  0  0  0  0
 39 40  1  0  0  0  0
 39 45  1  0  0  0  0
 40 41  1  0  0  0  0
 40 43  1  0  0  0  0
 40 46  1  0  0  0  0
 41 42  2  0  0  0  0
 41 49  1  0  0  0  0
 43 44  1  0  0  0  0
 43 47  1  0  0  0  0
 43 48  1  0  0  0  0
 49 50  1  0  0  0  0
 49 54  1  0  0  0  0
 50 51  1  0  0  0  0
 50 53  1  0  0  0  0
 50 55  1  0  0  0  0
 51 52  2  0  0  0  0
 51 59  1  0  0  0  0
 53 56  1  0  0  0  0
 53 57  1  0  0  0  0
 53 58  1  0  0  0  0
 59 60  1  0  0  0  0
 59 61  1  0  0  0  0
 60 62  1  0  0  0  0
 60 63  1  0  0  0  0
 60 64  1  0  0  0  0
M  END
$$$$

  -OEChem-05262216053D

 64 63  0     1  0  0  0  0  0999 V2000
    0.7063    8.7928   -3.9937 C   0  0  0  0  0  0  0  0  0  0  0  0
   -0.4874    8.8059   -4.2526 O   0  0  0  0  0  0  0  0  0  0  0  0
    1.5886    9.9549   -4.4082 C   0  0  0  0  0  0  0  0  0  0  0  0
    2.3018    9.6264   -5.1680 H   0  0  0  0  0  0  0  0  0  0  0  0
    0.9783   10.7629   -4.8209 H   0  0  0  0  0  0  0  0  0  0  0  0
    2.1370   10.3353   -3.5431 H   0  0  0  0  0  0  0  0  0  0  0  0
    1.2530    7.7254   -3.3163 N   0  0  0  0  0  0  0  0  0  0  0  0
    0.4749    6.6196   -2.7391 C   0  0  2  0  0  0  0  0  0  0  0  0
    1.1486    6.0497   -1.4692 C   0  0  0  0  0  0  0  0  0  0  0  0
    2.2113    6.5267   -1.0791 O   0  0  0  0  0  0  0  0  0  0  0  0
    0.2634    5.5410   -3.8112 C   0  0  0  0  0  0  0  0  0  0  0  0
    1.8376    4.7240   -4.3056 S   0  0  0  0  0  0  0  0  0  0  0  0
    2.2227    7.8046   -3.0122 H   0  0  0  0  0  0  0  0  0  0  0  0
   -0.5060    6.9929   -2.4270 H   0  0  0  0  0  0  0  0  0  0  0  0
   -0.4287    4.7887   -3.4310 H   0  0  0  0  0  0  0  0  0  0  0  0
   -0.2014    5.9882   -4.6954 H   0  0  0  0  0  0  0  0  0  0  0  0
    0.5493    5.0484   -0.7266 N   0  0  0  0  0  0  0  0  0  0  0  0
    1.2160    4.3845    0.3864 C   0  0  0  0  0  0  0  0  0  0  0  0
   -0.2445    4.5620   -1.1535 H   0  0  0  0  0  0  0  0  0  0  0  0
    2.1415    3.9057    0.0496 H   0  0  0  0  0  0  0  0  0  0  0  0
    1.4556    5.1037    1.1762 H   0  0  0  0  0  0  0  0  0  0  0  0
    0.5640    3.6125    0.8066 H   0  0  0  0  0  0  0  0  0  0  0  0
   -3.7925   -0.3698   -1.8450 C   0  0  0  0  0  0  0  0  0  0  0  0
   -3.1284   -0.8058   -2.7742 O   0  0  0  0  0  0  0  0  0  0  0  0
   -4.3851   -1.3163   -0.8187 C   0  0  0  0  0  0  0  0  0  0  0  0
   -5.4683   -1.1808   -0.7672 H   0  0  0  0  0  0  0  0  0  0  0  0
   -4.1737   -2.3532   -1.0959 H   0  0  0  0  0  0  0  0  0  0  0  0
   -3.9522   -1.1196    0.1653 H   0  0  0  0  0  0  0  0  0  0  0  0
   -3.9410    0.9953   -1.7007 N   0  0  0  0  0  0  0  0  0  0  0  0
   -3.3462    1.9904   -2.6080 C   0  0  2  0  0  0  0  0  0  0  0  0
   -1.8212    2.1442   -2.3880 C   0  0  0  0  0  0  0  0  0  0  0  0
   -1.3704    3.1287   -1.8152 O   0  0  0  0  0  0  0  0  0  0  0  0
   -4.1113    3.3063   -2.4171 C   0  0  0  0  0  0  0  0  0  0  0  0
   -4.4161    1.3268   -0.8654 H   0  0  0  0  0  0  0  0  0  0  0  0
   -3.4922    1.6718   -3.6461 H   0  0  0  0  0  0  0  0  0  0  0  0
   -4.0064    3.6701   -1.3898 H   0  0  0  0  0  0  0  0  0  0  0  0
   -3.7231    4.0718   -3.0966 H   0  0  0  0  0  0  0  0  0  0  0  0
   -5.1752    3.1640   -2.6309 H   0  0  0  0  0  0  0  0  0  0  0  0
   -1.0157    1.0822   -2.7608 N   0  0  0  0  0  0  0  0  0  0  0  0
    0.4464    0.9099   -2.6270 C   0  0  2  0  0  0  0  0  0  0  0  0
    0.7580    0.2490   -1.2667 C   0  0  0  0  0  0  0  0  0  0  0  0
    1.2556    0.8797   -0.3409 O   0  0  0  0  0  0  0  0  0  0  0  0
    1.2877    2.1785   -2.8570 C   0  0  0  0  0  0  0  0  0  0  0  0
    1.1457    2.7730   -4.5900 S   0  0  0  0  0  0  0  0  0  0  0  0
   -1.5491    0.2694   -3.0859 H   0  0  0  0  0  0  0  0  0  0  0  0
    0.7648    0.1995   -3.3954 H   0  0  0  0  0  0  0  0  0  0  0  0
    1.0026    2.9633   -2.1611 H   0  0  0  0  0  0  0  0  0  0  0  0
    2.3407    1.9558   -2.6575 H   0  0  0  0  0  0  0  0  0  0  0  0
    0.5120   -1.1003   -1.0881 N   0  0  0  0  0  0  0  0  0  0  0  0
    0.7847   -1.8477    0.1461 C   0  0  2  0  0  0  0  0  0  0  0  0
    0.9753   -3.3532   -0.1291 C   0  0  0  0  0  0  0  0  0  0  0  0
    0.5713   -3.8428   -1.1777 O   0  0  0  0  0  0  0  0  0  0  0  0
   -0.3832   -1.6320    1.1145 C   0  0  0  0  0  0  0  0  0  0  0  0
    0.1399   -1.6290   -1.8775 H   0  0  0  0  0  0  0  0  0  0  0  0
    1.7090   -1.4764    0.6014 H   0  0  0  0  0  0  0  0  0  0  0  0
   -1.3176   -1.9908    0.6714 H   0  0  0  0  0  0  0  0  0  0  0  0
   -0.2107   -2.1729    2.0496 H   0  0  0  0  0  0  0  0  0  0  0  0
   -0.4936   -0.5683    1.3478 H   0  0  0  0  0  0  0  0  0  0  0  0
    1.5947   -4.1634    0.8047 N   0  0  0  0  0  0  0  0  0  0  0  0
    1.8239   -5.5883    0.5990 C   0  0  0  0  0  0  0  0  0  0  0  0
    1.9496   -3.7248    1.6496 H   0  0  0  0  0  0  0  0  0  0  0  0
    0.8724   -6.1139    0.4658 H   0  0  0  0  0  0  0  0  0  0  0  0
    2.4443   -5.7525   -0.2884 H   0  0  0  0  0  0  0  0  0  0  0  0
    2.3379   -6.0186    1.4640 H   0  0  0  0  0  0  0  0  0  0  0  0
  1  2  2  0  0  0  0
  1  3  1  0  0  0  0
  1  7  1  0  0  0  0
  3  4  1  0  0  0  0
  3  5  1  0  0  0  0
  3  6  1  0  0  0  0
  7  8  1  0  0  0  0
  7 13  1  0  0  0  0
  8  9  1  0  0  0  0
  8 11  1  0  0  0  0
  8 14  1  0  0  0  0
  9 10  2  0  0  0  0
  9 17  1  0  0  0  0
 11 12  1  0  0  0  0
 11 15  1  0  0  0  0
 11 16  1  0  0  0  0
 12 44  1  0  0  0  0
 17 18  1  0  0  0  0
 17 19  1  0  0  0  0
 18 20  1  0  0  0  0
 18 21  1  0  0  0  0
 18 22  1  0  0  0  0
 23 24  2  0  0  0  0
 23 25  1  0  0  0  0
 23 29  1  0  0  0  0
 25 26  1  0  0  0  0
 25 27  1  0  0  0  0
 25 28  1  0  0  0  0
 29 30  1  0  0  0  0
 29 34  1  0  0  0  0
 30 31  1  0  0  0  0
 30 33  1  0  0  0  0
 30 35  1  0  0  0  0
 31 32  2  0  0  0  0
 31 39  1  0  0  0  0
 33 36  1  0  0  0  0
 33 37  1  0  0  0  0
 33 38  1  0  0  0  0
 39 40  1  0  0  0  0
 39 45  1  0  0  0  0
 40 41  1  0  0  0  0
 40 43  1  0  0  0  0
 40 46  1  0  0  0  0
 41 42  2  0  0  0  0
 41 49  1  0  0  0  0
 43 44  1  0  0  0  0
 43 47  1  0  0  0  0
 43 48  1  0  0  0  0
 49 50  1  0  0  0  0
 49 54  1  0  0  0  0
 50 51  1  0  0  0  0
 50 53  1  0  0  0  0
 50 55  1  0  0  0  0
 51 52  2  0  0  0  0
 51 59  1  0  0  0  0
 53 56  1  0  0  0  0
 53 57  1  0  0  0  0
 53 58  1  0  0  0  0
 59 60  1  0  0  0  0
 59 61  1  0  0  0  0
 60 62  1  0  0  0  0
 60 63  1  0  0  0  0
 60 64  1  0  0  0  0
M  END
$$$$

  -OEChem-05262216053D

 64 63  0     1  0  0  0  0  0999 V2000
    0.7753    8.7799   -4.1127 C   0  0  0  0  0  0  0  0  0  0  0  0
   -0.4057    8.7891   -4.4239 O   0  0  0  0  0  0  0  0  0  0  0  0
    1.6714    9.9420   -4.4960 C   0  0  0  0  0  0  0  0  0  0  0  0
    2.5230    9.5805   -5.0772 H   0  0  0  0  0  0  0  0  0  0  0  0
    1.1141   10.6648   -5.0983 H   0  0  0  0  0  0  0  0  0  0  0  0
    2.0386   10.4415   -3.5963 H   0  0  0  0  0  0  0  0  0  0  0  0
    1.2913    7.7241   -3.3947 N   0  0  0  0  0  0  0  0  0  0  0  0
    0.4859    6.6344   -2.8244 C   0  0  2  0  0  0  0  0  0  0  0  0
    1.1190    6.0803   -1.5264 C   0  0  0  0  0  0  0  0  0  0  0  0
    2.1741    6.5564   -1.1146 O   0  0  0  0  0  0  0  0  0  0  0  0
    0.2895    5.5425   -3.8862 C   0  0  0  0  0  0  0  0  0  0  0  0
    1.8650    4.6982   -4.3259 S   0  0  0  0  0  0  0  0  0  0  0  0
    2.2481    7.8080   -3.0531 H   0  0  0  0  0  0  0  0  0  0  0  0
   -0.4988    7.0234   -2.5454 H   0  0  0  0  0  0  0  0  0  0  0  0
   -0.4238    4.8054   -3.5155 H   0  0  0  0  0  0  0  0  0  0  0  0
   -0.1447    5.9824   -4.7894 H   0  0  0  0  0  0  0  0  0  0  0  0
    0.4886    5.1033   -0.7774 N   0  0  0  0  0  0  0  0  0  0  0  0
    1.1112    4.4637    0.3754 C   0  0  0  0  0  0  0  0  0  0  0  0
   -0.2946    4.6118   -1.2183 H   0  0  0  0  0  0  0  0  0  0  0  0
    2.0469    3.9753    0.0840 H   0  0  0  0  0  0  0  0  0  0  0  0
    1.3246    5.1987    1.1581 H   0  0  0  0  0  0  0  0  0  0  0  0
    0.4414    3.7034    0.7894 H   0  0  0  0  0  0  0  0  0  0  0  0
   -3.7707   -0.3260   -1.6885 C   0  0  0  0  0  0  0  0  0  0  0  0
   -3.1541   -0.7976   -2.6331 O   0  0  0  0  0  0  0  0  0  0  0  0
   -4.2834   -1.2282   -0.5827 C   0  0  0  0  0  0  0  0  0  0  0  0
   -5.3670   -1.1245   -0.4895 H   0  0  0  0  0  0  0  0  0  0  0  0
   -4.0482   -2.2729   -0.8062 H   0  0  0  0  0  0  0  0  0  0  0  0
   -3.8151   -0.9576    0.3669 H   0  0  0  0  0  0  0  0  0  0  0  0
   -3.9329    1.0418   -1.5984 N   0  0  0  0  0  0  0  0  0  0  0  0
   -3.3791    2.0010   -2.5673 C   0  0  2  0  0  0  0  0  0  0  0  0
   -1.8501    2.1765   -2.3981 C   0  0  0  0  0  0  0  0  0  0  0  0
   -1.3967    3.1930   -1.8880 O   0  0  0  0  0  0  0  0  0  0  0  0
   -4.1541    3.3160   -2.4100 C   0  0  0  0  0  0  0  0  0  0  0  0
   -4.3481    1.4052   -0.7446 H   0  0  0  0  0  0  0  0  0  0  0  0
   -3.5522    1.6359   -3.5857 H   0  0  0  0  0  0  0  0  0  0  0  0
   -4.0347    3.7175   -1.3984 H   0  0  0  0  0  0  0  0  0  0  0  0
   -3.7862    4.0610   -3.1230 H   0  0  0  0  0  0  0  0  0  0  0  0
   -5.2200    3.1560   -2.5993 H   0  0  0  0  0  0  0  0  0  0  0  0
   -1.0447    1.1044   -2.7436 N   0  0  0  0  0  0  0  0  0  0  0  0
    0.4161    0.9315   -2.5963 C   0  0  2  0  0  0  0  0  0  0  0  0
    0.7283    0.2986   -1.2240 C   0  0  0  0  0  0  0  0  0  0  0  0
    0.9653    0.9891   -0.2396 O   0  0  0  0  0  0  0  0  0  0  0  0
    1.2720    2.1866   -2.8385 C   0  0  0  0  0  0  0  0  0  0  0  0
    1.1510    2.7520   -4.5825 S   0  0  0  0  0  0  0  0  0  0  0  0
   -1.5801    0.2734   -3.0144 H   0  0  0  0  0  0  0  0  0  0  0  0
    0.7334    0.2092   -3.3542 H   0  0  0  0  0  0  0  0  0  0  0  0
    0.9879    2.9856   -2.1573 H   0  0  0  0  0  0  0  0  0  0  0  0
    2.3208    1.9570   -2.6262 H   0  0  0  0  0  0  0  0  0  0  0  0
    0.7865   -1.0765   -1.0937 N   0  0  0  0  0  0  0  0  0  0  0  0
    1.1485   -1.7879    0.1390 C   0  0  2  0  0  0  0  0  0  0  0  0
    1.7038   -3.1950   -0.1635 C   0  0  0  0  0  0  0  0  0  0  0  0
    1.5488   -3.6918   -1.2737 O   0  0  0  0  0  0  0  0  0  0  0  0
   -0.0923   -1.8819    1.0352 C   0  0  0  0  0  0  0  0  0  0  0  0
    0.6521   -1.6450   -1.9302 H   0  0  0  0  0  0  0  0  0  0  0  0
    1.9331   -1.2333    0.6644 H   0  0  0  0  0  0  0  0  0  0  0  0
   -0.8902   -2.4340    0.5282 H   0  0  0  0  0  0  0  0  0  0  0  0
    0.1478   -2.3954    1.9710 H   0  0  0  0  0  0  0  0  0  0  0  0
   -0.4622   -0.8812    1.2795 H   0  0  0  0  0  0  0  0  0  0  0  0
    2.3868   -3.9027    0.8084 N   0  0  0  0  0  0  0  0  0  0  0  0
    2.9526   -5.2270    0.5819 C   0  0  0  0  0  0  0  0  0  0  0  0
    2.5294   -3.4531    1.7082 H   0  0  0  0  0  0  0  0  0  0  0  0
    2.1665   -5.9352    0.2994 H   0  0  0  0  0  0  0  0  0  0  0  0
    3.6999   -5.1926   -0.2176 H   0  0  0  0  0  0  0  0  0  0  0  0
    3.4372   -5.5937    1.4919 H   0  0  0  0  0  0  0  0  0  0  0  0
  1  2  2  0  0  0  0
  1  3  1  0  0  0  0
  1  7  1  0  0  0  0
  3  4  1  0  0  0  0
  3  5  1  0  0  0  0
  3  6  1  0  0  0  0
  7  8  1  0  0  0  0
  7 13  1  0  0  0  0
  8  9  1  0  0  0  0
  8 11  1  0  0  0  0
  8 14  1  0  0  0  0
  9 10  2  0  0  0  0
  9 17  1  0  0  0  0
 11 12  1  0  0  0  0
 11 15  1  0  0  0  0
 11 16  1  0  0  0  0
 12 44  1  0  0  0  0
 17 18  1  0  0  0  0
 17 19  1  0  0  0  0
 18 20  1  0  0  0  0
 18 21  1  0  0  0  0
 18 22  1  0  0  0  0
 23 24  2  0  0  0  0
 23 25  1  0  0  0  0
 23 29  1  0  0  0  0
 25 26  1  0  0  0  0
 25 27  1  0  0  0  0
 25 28  1  0  0  0  0
 29 30  1  0  0  0  0
 29 34  1  0  0  0  0
 30 31  1  0  0  0  0
 30 33  1  0  0  0  0
 30 35  1  0  0  0  0
 31 32  2  0  0  0  0
 31 39  1  0  0  0  0
 33 36  1  0  0  0  0
 33 37  1  0  0  0  0
 33 38  1  0  0  0  0
 39 40  1  0  0  0  0
 39 45  1  0  0  0  0
 40 41  1  0  0  0  0
 40 43  1  0  0  0  0
 40 46  1  0  0  0  0
 41 42  2  0  0  0  0
 41 49  1  0  0  0  0
 43 44  1  0  0  0  0
 43 47  1  0  0  0  0
 43 48  1  0  0  0  0
 49 50  1  0  0  0  0
 49 54  1  0  0  0  0
 50 51  1  0  0  0  0
 50 53  1  0  0  0  0
 50 55  1  0  0  0  0
 51 52  2  0  0  0  0
 51 59  1  0  0  0  0
 53 56  1  0  0  0  0
 53 57  1  0  0  0  0
 53 58  1  0  0  0  0
 59 60  1  0  0  0  0
 59 61  1  0  0  0  0
 60 62  1  0  0  0  0
 60 63  1  0  0  0  0
 60 64  1  0  0  0  0
M  END
$$$$

  -OEChem-05262216053D

 64 63  0     1  0  0  0  0  0999 V2000
    1.1081    8.7814   -4.1527 C   0  0  0  0  0  0  0  0  0  0  0  0
   -0.0399    8.8871   -4.5556 O   0  0  0  0  0  0  0  0  0  0  0  0
    2.1352    9.8428   -4.4971 C   0  0  0  0  0  0  0  0  0  0  0  0
    2.8958    9.4215   -5.1588 H   0  0  0  0  0  0  0  0  0  0  0  0
    1.6530   10.6844   -5.0022 H   0  0  0  0  0  0  0  0  0  0  0  0
    2.6152   10.2080   -3.5861 H   0  0  0  0  0  0  0  0  0  0  0  0
    1.4722    7.7012   -3.3800 N   0  0  0  0  0  0  0  0  0  0  0  0
    0.5393    6.6790   -2.8848 C   0  0  2  0  0  0  0  0  0  0  0  0
    1.0076    6.0832   -1.5364 C   0  0  0  0  0  0  0  0  0  0  0  0
    2.0443    6.4905   -1.0180 O   0  0  0  0  0  0  0  0  0  0  0  0
    0.3576    5.6013   -3.9630 C   0  0  0  0  0  0  0  0  0  0  0  0
    1.9177    4.6889   -4.3125 S   0  0  0  0  0  0  0  0  0  0  0  0
    2.4046    7.7050   -2.9686 H   0  0  0  0  0  0  0  0  0  0  0  0
   -0.4344    7.1420   -2.6944 H   0  0  0  0  0  0  0  0  0  0  0  0
   -0.4108    4.8966   -3.6424 H   0  0  0  0  0  0  0  0  0  0  0  0
    0.0010    6.0651   -4.8880 H   0  0  0  0  0  0  0  0  0  0  0  0
    0.2446    5.1485   -0.8600 N   0  0  0  0  0  0  0  0  0  0  0  0
    0.6978    4.4838    0.3554 C   0  0  0  0  0  0  0  0  0  0  0  0
   -0.5094    4.6962   -1.3856 H   0  0  0  0  0  0  0  0  0  0  0  0
    1.6159    3.9184    0.1649 H   0  0  0  0  0  0  0  0  0  0  0  0
    0.8895    5.2157    1.1466 H   0  0  0  0  0  0  0  0  0  0  0  0
   -0.0683    3.7861    0.7082 H   0  0  0  0  0  0  0  0  0  0  0  0
   -3.6802   -0.3699   -1.4853 C   0  0  0  0  0  0  0  0  0  0  0  0
   -3.1333   -0.8865   -2.4494 O   0  0  0  0  0  0  0  0  0  0  0  0
   -4.0299   -1.2040   -0.2683 C   0  0  0  0  0  0  0  0  0  0  0  0
   -5.0942   -1.1068   -0.0408 H   0  0  0  0  0  0  0  0  0  0  0  0
   -3.8057   -2.2576   -0.4572 H   0  0  0  0  0  0  0  0  0  0  0  0
   -3.4473   -0.8684    0.5932 H   0  0  0  0  0  0  0  0  0  0  0  0
   -3.9082    0.9915   -1.4831 N   0  0  0  0  0  0  0  0  0  0  0  0
   -3.4876    1.8961   -2.5657 C   0  0  2  0  0  0  0  0  0  0  0  0
   -1.9634    2.1650   -2.5261 C   0  0  0  0  0  0  0  0  0  0  0  0
   -1.5375    3.2487   -2.1470 O   0  0  0  0  0  0  0  0  0  0  0  0
   -4.3295    3.1740   -2.4531 C   0  0  0  0  0  0  0  0  0  0  0  0
   -4.2308    1.4040   -0.6118 H   0  0  0  0  0  0  0  0  0  0  0  0
   -3.7112    1.4382   -3.5355 H   0  0  0  0  0  0  0  0  0  0  0  0
   -4.1516    3.6723   -1.4946 H   0  0  0  0  0  0  0  0  0  0  0  0
   -4.0717    3.8699   -3.2579 H   0  0  0  0  0  0  0  0  0  0  0  0
   -5.3947    2.9365   -2.5313 H   0  0  0  0  0  0  0  0  0  0  0  0
   -1.1290    1.0997   -2.8223 N   0  0  0  0  0  0  0  0  0  0  0  0
    0.3280    0.9620   -2.6140 C   0  0  2  0  0  0  0  0  0  0  0  0
    0.6031    0.3612   -1.2203 C   0  0  0  0  0  0  0  0  0  0  0  0
    0.4718    1.0330   -0.2034 O   0  0  0  0  0  0  0  0  0  0  0  0
    1.1841    2.2189   -2.8296 C   0  0  0  0  0  0  0  0  0  0  0  0
    1.1403    2.7695   -4.5813 S   0  0  0  0  0  0  0  0  0  0  0  0
   -1.6463    0.2296   -2.9826 H   0  0  0  0  0  0  0  0  0  0  0  0
    0.6833    0.2346   -3.3499 H   0  0  0  0  0  0  0  0  0  0  0  0
    0.8617    3.0207   -2.1694 H   0  0  0  0  0  0  0  0  0  0  0  0
    2.2237    1.9991   -2.5671 H   0  0  0  0  0  0  0  0  0  0  0  0
    0.9953   -0.9580   -1.0959 N   0  0  0  0  0  0  0  0  0  0  0  0
    1.3733   -1.6030    0.1673 C   0  0  2  0  0  0  0  0  0  0  0  0
    2.3782   -2.7495   -0.0680 C   0  0  0  0  0  0  0  0  0  0  0  0
    2.5386   -3.2034   -1.1958 O   0  0  0  0  0  0  0  0  0  0  0  0
    0.1034   -2.1303    0.8436 C   0  0  0  0  0  0  0  0  0  0  0  0
    1.1708   -1.4881   -1.9498 H   0  0  0  0  0  0  0  0  0  0  0  0
    1.8582   -0.8725    0.8238 H   0  0  0  0  0  0  0  0  0  0  0  0
   -0.4021   -2.8548    0.1967 H   0  0  0  0  0  0  0  0  0  0  0  0
    0.3476   -2.6198    1.7911 H   0  0  0  0  0  0  0  0  0  0  0  0
   -0.5868   -1.3064    1.0497 H   0  0  0  0  0  0  0  0  0  0  0  0
    3.1149   -3.2639    0.9828 N   0  0  0  0  0  0  0  0  0  0  0  0
    4.0999   -4.3265    0.8221 C   0  0  0  0  0  0  0  0  0  0  0  0
    2.9889   -2.8436    1.8991 H   0  0  0  0  0  0  0  0  0  0  0  0
    3.6299   -5.2231    0.4042 H   0  0  0  0  0  0  0  0  0  0  0  0
    4.9046   -4.0050    0.1525 H   0  0  0  0  0  0  0  0  0  0  0  0
    4.5384   -4.5863    1.7904 H   0  0  0  0  0  0  0  0  0  0  0  0
  1  2  2  0  0  0  0
  1  3  1  0  0  0  0
  1  7  1  0  0  0  0
  3  4  1  0  0  0  0
  3  5  1  0  0  0  0
  3  6  1  0  0  0  0
  7  8  1  0  0  0  0
  7 13  1  0  0  0  0
  8  9  1  0  0  0  0
  8 11  1  0  0  0  0
  8 14  1  0  0  0  0
  9 10  2  0  0  0  0
  9 17  1  0  0  0  0
 11 12  1  0  0  0  0
 11 15  1  0  0  0  0
 11 16  1  0  0  0  0
 12 44  1  0  0  0  0
 17 18  1  0  0  0  0
 17 19  1  0  0  0  0
 18 20  1  0  0  0  0
 18 21  1  0  0  0  0
 18 22  1  0  0  0  0
 23 24  2  0  0  0  0
 23 25  1  0  0  0  0
 23 29  1  0  0  0  0
 25 26  1  0  0  0  0
 25 27  1  0  0  0  0
 25 28  1  0  0  0  0
 29 30  1  0  0  0  0
 29 34  1  0  0  0  0
 30 31  1  0  0  0  0
 30 33  1  0  0  0  0
 30 35  1  0  0  0  0
 31 32  2  0  0  0  0
 31 39  1  0  0  0  0
 33 36  1  0  0  0  0
 33 37  1  0  0  0  0
 33 38  1  0  0  0  0
 39 40  1  0  0  0  0
 39 45  1  0  0  0  0
 40 41  1  0  0  0  0
 40 43  1  0  0  0  0
 40 46  1  0  0  0  0
 41 42  2  0  0  0  0
 41 49  1  0  0  0  0
 43 44  1  0  0  0  0
 43 47  1  0  0  0  0
 43 48  1  0  0  0  0
 49 50  1  0  0  0  0
 49 54  1  0  0  0  0
 50 51  1  0  0  0  0
 50 53  1  0  0  0  0
 50 55  1  0  0  0  0
 51 52  2  0  0  0  0
 51 59  1  0  0  0  0
 53 56  1  0  0  0  0
 53 57  1  0  0  0  0
 53 58  1  0  0  0  0
 59 60  1  0  0  0  0
 59 61  1  0  0  0  0
 60 62  1  0  0  0  0
 60 63  1  0  0  0  0
 60 64  1  0  0  0  0
M  END
$$$$

  -OEChem-05262216053D

 64 63  0     1  0  0  0  0  0999 V2000
    0.1586    8.4448   -3.7687 C   0  0  0  0  0  0  0  0  0  0  0  0
   -1.0157    8.3077   -4.0757 O   0  0  0  0  0  0  0  0  0  0  0  0
    0.9143    9.6935   -4.1800 C   0  0  0  0  0  0  0  0  0  0  0  0
    1.7582    9.4228   -4.8190 H   0  0  0  0  0  0  0  0  0  0  0  0
    0.2543   10.3681   -4.7325 H   0  0  0  0  0  0  0  0  0  0  0  0
    1.2882   10.2127   -3.2941 H   0  0  0  0  0  0  0  0  0  0  0  0
    0.7974    7.4643   -3.0431 N   0  0  0  0  0  0  0  0  0  0  0  0
    0.1358    6.2733   -2.4927 C   0  0  2  0  0  0  0  0  0  0  0  0
    0.8433    5.7655   -1.2143 C   0  0  0  0  0  0  0  0  0  0  0  0
    1.8561    6.3341   -0.8146 O   0  0  0  0  0  0  0  0  0  0  0  0
    0.0625    5.1948   -3.5835 C   0  0  0  0  0  0  0  0  0  0  0  0
    1.7222    4.5485   -4.0483 S   0  0  0  0  0  0  0  0  0  0  0  0
    1.7423    7.6559   -2.7123 H   0  0  0  0  0  0  0  0  0  0  0  0
   -0.8853    6.5351   -2.1970 H   0  0  0  0  0  0  0  0  0  0  0  0
   -0.5576    4.3717   -3.2295 H   0  0  0  0  0  0  0  0  0  0  0  0
   -0.4248    5.6033   -4.4743 H   0  0  0  0  0  0  0  0  0  0  0  0
    0.3239    4.7218   -0.4695 N   0  0  0  0  0  0  0  0  0  0  0  0
    1.0100    4.1472    0.6810 C   0  0  0  0  0  0  0  0  0  0  0  0
   -0.4222    4.1645   -0.8960 H   0  0  0  0  0  0  0  0  0  0  0  0
    1.9926    3.7620    0.3900 H   0  0  0  0  0  0  0  0  0  0  0  0
    1.1417    4.8997    1.4653 H   0  0  0  0  0  0  0  0  0  0  0  0
    0.4244    3.3184    1.0914 H   0  0  0  0  0  0  0  0  0  0  0  0
   -4.9662    1.4832   -1.0995 C   0  0  0  0  0  0  0  0  0  0  0  0
   -5.0345    0.2752   -1.2635 O   0  0  0  0  0  0  0  0  0  0  0  0
   -5.7571    2.1452    0.0128 C   0  0  0  0  0  0  0  0  0  0  0  0
   -6.3875    2.9379   -0.3975 H   0  0  0  0  0  0  0  0  0  0  0  0
   -6.3959    1.4099    0.5101 H   0  0  0  0  0  0  0  0  0  0  0  0
   -5.0746    2.5758    0.7497 H   0  0  0  0  0  0  0  0  0  0  0  0
   -4.1603    2.2507   -1.9153 N   0  0  0  0  0  0  0  0  0  0  0  0
   -3.1865    1.6782   -2.8559 C   0  0  2  0  0  0  0  0  0  0  0  0
   -1.7468    1.7193   -2.3030 C   0  0  0  0  0  0  0  0  0  0  0  0
   -1.4037    2.6829   -1.6271 O   0  0  0  0  0  0  0  0  0  0  0  0
   -3.2731    2.4748   -4.1601 C   0  0  0  0  0  0  0  0  0  0  0  0
   -3.9918    3.2036   -1.6022 H   0  0  0  0  0  0  0  0  0  0  0  0
   -3.4351    0.6348   -3.0756 H   0  0  0  0  0  0  0  0  0  0  0  0
   -3.0282    3.5276   -3.9862 H   0  0  0  0  0  0  0  0  0  0  0  0
   -2.5732    2.0738   -4.9001 H   0  0  0  0  0  0  0  0  0  0  0  0
   -4.2849    2.4161   -4.5737 H   0  0  0  0  0  0  0  0  0  0  0  0
   -0.8688    0.6997   -2.6395 N   0  0  0  0  0  0  0  0  0  0  0  0
    0.5991    0.6362   -2.4447 C   0  0  2  0  0  0  0  0  0  0  0  0
    0.9775    0.0215   -1.0804 C   0  0  0  0  0  0  0  0  0  0  0  0
    0.6770    0.5743   -0.0302 O   0  0  0  0  0  0  0  0  0  0  0  0
    1.3480    1.9635   -2.6374 C   0  0  0  0  0  0  0  0  0  0  0  0
    1.2268    2.5465   -4.3751 S   0  0  0  0  0  0  0  0  0  0  0  0
   -1.2918   -0.0664   -3.1559 H   0  0  0  0  0  0  0  0  0  0  0  0
    0.9889   -0.0418   -3.2093 H   0  0  0  0  0  0  0  0  0  0  0  0
    0.9762    2.7205   -1.9507 H   0  0  0  0  0  0  0  0  0  0  0  0
    2.4071    1.8229   -2.3989 H   0  0  0  0  0  0  0  0  0  0  0  0
    1.7432   -1.1283   -1.0284 N   0  0  0  0  0  0  0  0  0  0  0  0
    2.3003   -1.7066    0.2010 C   0  0  2  0  0  0  0  0  0  0  0  0
    3.5682   -2.5341   -0.0984 C   0  0  0  0  0  0  0  0  0  0  0  0
    3.8727   -2.7889   -1.2592 O   0  0  0  0  0  0  0  0  0  0  0  0
    1.2276   -2.5794    0.8616 C   0  0  0  0  0  0  0  0  0  0  0  0
    2.1029   -1.5041   -1.9058 H   0  0  0  0  0  0  0  0  0  0  0  0
    2.5877   -0.9037    0.8882 H   0  0  0  0  0  0  0  0  0  0  0  0
    0.9294   -3.3921    0.1916 H   0  0  0  0  0  0  0  0  0  0  0  0
    1.6040   -3.0143    1.7922 H   0  0  0  0  0  0  0  0  0  0  0  0
    0.3422   -1.9804    1.0975 H   0  0  0  0  0  0  0  0  0  0  0  0
    4.3786   -2.9785    0.9300 N   0  0  0  0  0  0  0  0  0  0  0  0
    5.5946   -3.7534    0.7135 C   0  0  0  0  0  0  0  0  0  0  0  0
    4.1107   -2.7381    1.8801 H   0  0  0  0  0  0  0  0  0  0  0  0
    5.3664   -4.6839    0.1831 H   0  0  0  0  0  0  0  0  0  0  0  0
    6.3158   -3.1785    0.1231 H   0  0  0  0  0  0  0  0  0  0  0  0
    6.0575   -4.0074    1.6719 H   0  0  0  0  0  0  0  0  0  0  0  0
  1  2  2  0  0  0  0
  1  3  1  0  0  0  0
  1  7  1  0  0  0  0
  3  4  1  0  0  0  0
  3  5  1  0  0  0  0
  3  6  1  0  0  0  0
  7  8  1  0  0  0  0
  7 13  1  0  0  0  0
  8  9  1  0  0  0  0
  8 11  1  0  0  0  0
  8 14  1  0  0  0  0
  9 10  2  0  0  0  0
  9 17  1  0  0  0  0
 11 12  1  0  0  0  0
 11 15  1  0  0  0  0
 11 16  1  0  0  0  0
 12 44  1  0  0  0  0
 17 18  1  0  0  0  0
 17 19  1  0  0  0  0
 18 20  1  0  0  0  0
 18 21  1  0  0  0  0
 18 22  1  0  0  0  0
 23 24  2  0  0  0  0
 23 25  1  0  0  0  0
 23 29  1  0  0  0  0
 25 26  1  0  0  0  0
 25 27  1  0  0  0  0
 25 28  1  0  0  0  0
 29 30  1  0  0  0  0
 29 34  1  0  0  0  0
 30 31  1  0  0  0  0
 30 33  1  0  0  0  0
 30 35  1  0  0  0  0
 31 32  2  0  0  0  0
 31 39  1  0  0  0  0
 33 36  1  0  0  0  0
 33 37  1  0  0  0  0
 33 38  1  0  0  0  0
 39 40  1  0  0  0  0
 39 45  1  0  0  0  0
 40 41  1  0  0  0  0
 40 43  1  0  0  0  0
 40 46  1  0  0  0  0
 41 42  2  0  0  0  0
 41 49  1  0  0  0  0
 43 44  1  0  0  0  0
 43 47  1  0  0  0  0
 43 48  1  0  0  0  0
 49 50  1  0  0  0  0
 49 54  1  0  0  0  0
 50 51  1  0  0  0  0
 50 53  1  0  0  0  0
 50 55  1  0  0  0  0
 51 52  2  0  0  0  0
 51 59  1  0  0  0  0
 53 56  1  0  0  0  0
 53 57  1  0  0  0  0
 53 58  1  0  0  0  0
 59 60  1  0  0  0  0
 59 61  1  0  0  0  0
 60 62  1  0  0  0  0
 60 63  1  0  0  0  0
 60 64  1  0  0  0  0
M  END
$$$$

  -OEChem-05262216053D

 64 63  0     1  0  0  0  0  0999 V2000
    0.0896    8.3973   -4.0557 C   0  0  0  0  0  0  0  0  0  0  0  0
   -1.0372    8.1416   -4.4521 O   0  0  0  0  0  0  0  0  0  0  0  0
    0.8089    9.6352   -4.5577 C   0  0  0  0  0  0  0  0  0  0  0  0
    1.7357    9.3500   -5.0611 H   0  0  0  0  0  0  0  0  0  0  0  0
    0.1754   10.1755   -5.2665 H   0  0  0  0  0  0  0  0  0  0  0  0
    1.0454   10.2963   -3.7207 H   0  0  0  0  0  0  0  0  0  0  0  0
    0.7064    7.5586   -3.1531 N   0  0  0  0  0  0  0  0  0  0  0  0
    0.0703    6.3832   -2.5406 C   0  0  2  0  0  0  0  0  0  0  0  0
    0.7016    6.0311   -1.1737 C   0  0  0  0  0  0  0  0  0  0  0  0
    1.5801    6.7499   -0.7054 O   0  0  0  0  0  0  0  0  0  0  0  0
    0.1399    5.2038   -3.5203 C   0  0  0  0  0  0  0  0  0  0  0  0
    1.8622    4.6079   -3.7719 S   0  0  0  0  0  0  0  0  0  0  0  0
    1.5970    7.8567   -2.7572 H   0  0  0  0  0  0  0  0  0  0  0  0
   -0.9833    6.6094   -2.3475 H   0  0  0  0  0  0  0  0  0  0  0  0
   -0.4727    4.3862   -3.1392 H   0  0  0  0  0  0  0  0  0  0  0  0
   -0.2826    5.4979   -4.4863 H   0  0  0  0  0  0  0  0  0  0  0  0
    0.2625    4.9463   -0.4363 N   0  0  0  0  0  0  0  0  0  0  0  0
    0.8745    4.5292    0.8177 C   0  0  0  0  0  0  0  0  0  0  0  0
   -0.3824    4.2923   -0.8891 H   0  0  0  0  0  0  0  0  0  0  0  0
    1.9300    4.2804    0.6664 H   0  0  0  0  0  0  0  0  0  0  0  0
    0.8019    5.3263    1.5649 H   0  0  0  0  0  0  0  0  0  0  0  0
    0.3628    3.6426    1.2060 H   0  0  0  0  0  0  0  0  0  0  0  0
   -5.2073    1.7733   -1.2390 C   0  0  0  0  0  0  0  0  0  0  0  0
   -5.6616    0.8034   -1.8249 O   0  0  0  0  0  0  0  0  0  0  0  0
   -5.9789    2.4012   -0.0935 C   0  0  0  0  0  0  0  0  0  0  0  0
   -6.1764    3.4538   -0.3102 H   0  0  0  0  0  0  0  0  0  0  0  0
   -6.9333    1.8855    0.0465 H   0  0  0  0  0  0  0  0  0  0  0  0
   -5.4002    2.3277    0.8305 H   0  0  0  0  0  0  0  0  0  0  0  0
   -3.9865    2.2955   -1.6124 N   0  0  0  0  0  0  0  0  0  0  0  0
   -3.0839    1.6693   -2.5884 C   0  0  2  0  0  0  0  0  0  0  0  0
   -1.6107    1.7465   -2.1404 C   0  0  0  0  0  0  0  0  0  0  0  0
   -1.2555    2.6961   -1.4502 O   0  0  0  0  0  0  0  0  0  0  0  0
   -3.2656    2.3795   -3.9324 C   0  0  0  0  0  0  0  0  0  0  0  0
   -3.5918    3.0235   -1.0191 H   0  0  0  0  0  0  0  0  0  0  0  0
   -3.3357    0.6096   -2.7046 H   0  0  0  0  0  0  0  0  0  0  0  0
   -3.0172    3.4423   -3.8423 H   0  0  0  0  0  0  0  0  0  0  0  0
   -2.6171    1.9337   -4.6932 H   0  0  0  0  0  0  0  0  0  0  0  0
   -4.3038    2.2917   -4.2681 H   0  0  0  0  0  0  0  0  0  0  0  0
   -0.7334    0.7460   -2.5307 N   0  0  0  0  0  0  0  0  0  0  0  0
    0.7244    0.6499   -2.2808 C   0  0  2  0  0  0  0  0  0  0  0  0
    1.0566   -0.0819   -0.9629 C   0  0  0  0  0  0  0  0  0  0  0  0
    0.4161    0.1235    0.0597 O   0  0  0  0  0  0  0  0  0  0  0  0
    1.5100    1.9669   -2.3878 C   0  0  0  0  0  0  0  0  0  0  0  0
    1.4552    2.5919   -4.1161 S   0  0  0  0  0  0  0  0  0  0  0  0
   -1.1602   -0.0156   -3.0503 H   0  0  0  0  0  0  0  0  0  0  0  0
    1.1207    0.0115   -3.0757 H   0  0  0  0  0  0  0  0  0  0  0  0
    1.1285    2.7139   -1.6913 H   0  0  0  0  0  0  0  0  0  0  0  0
    2.5567    1.7955   -2.1173 H   0  0  0  0  0  0  0  0  0  0  0  0
    2.0560   -1.0372   -0.9391 N   0  0  0  0  0  0  0  0  0  0  0  0
    2.5187   -1.7299    0.2705 C   0  0  2  0  0  0  0  0  0  0  0  0
    4.0127   -2.1007    0.1620 C   0  0  0  0  0  0  0  0  0  0  0  0
    4.5827   -2.0282   -0.9217 O   0  0  0  0  0  0  0  0  0  0  0  0
    1.6629   -2.9848    0.4696 C   0  0  0  0  0  0  0  0  0  0  0  0
    2.6577   -1.1168   -1.7594 H   0  0  0  0  0  0  0  0  0  0  0  0
    2.4066   -1.0742    1.1406 H   0  0  0  0  0  0  0  0  0  0  0  0
    1.7670   -3.6591   -0.3866 H   0  0  0  0  0  0  0  0  0  0  0  0
    1.9685   -3.5196    1.3740 H   0  0  0  0  0  0  0  0  0  0  0  0
    0.6078   -2.7116    0.5723 H   0  0  0  0  0  0  0  0  0  0  0  0
    4.7231   -2.4974    1.2797 N   0  0  0  0  0  0  0  0  0  0  0  0
    6.1423   -2.8306    1.2489 C   0  0  0  0  0  0  0  0  0  0  0  0
    4.2294   -2.5287    2.1672 H   0  0  0  0  0  0  0  0  0  0  0  0
    6.3227   -3.6766    0.5777 H   0  0  0  0  0  0  0  0  0  0  0  0
    6.7304   -1.9745    0.9020 H   0  0  0  0  0  0  0  0  0  0  0  0
    6.4888   -3.1035    2.2503 H   0  0  0  0  0  0  0  0  0  0  0  0
  1  2  2  0  0  0  0
  1  3  1  0  0  0  0
  1  7  1  0  0  0  0
  3  4  1  0  0  0  0
  3  5  1  0  0  0  0
  3  6  1  0  0  0  0
  7  8  1  0  0  0  0
  7 13  1  0  0  0  0
  8  9  1  0  0  0  0
  8 11  1  0  0  0  0
  8 14  1  0  0  0  0
  9 10  2  0  0  0  0
  9 17  1  0  0  0  0
 11 12  1  0  0  0  0
 11 15  1  0  0  0  0
 11 16  1  0  0  0  0
 12 44  1  0  0  0  0
 17 18  1  0  0  0  0
 17 19  1  0  0  0  0
 18 20  1  0  0  0  0
 18 21  1  0  0  0  0
 18 22  1  0  0  0  0
 23 24  2  0  0  0  0
 23 25  1  0  0  0  0
 23 29  1  0  0  0  0
 25 26  1  0  0  0  0
 25 27  1  0  0  0  0
 25 28  1  0  0  0  0
 29 30  1  0  0  0  0
 29 34  1  0  0  0  0
 30 31  1  0  0  0  0
 30 33  1  0  0  0  0
 30 35  1  0  0  0  0
 31 32  2  0  0  0  0
 31 39  1  0  0  0  0
 33 36  1  0  0  0  0
 33 37  1  0  0  0  0
 33 38  1  0  0  0  0
 39 40  1  0  0  0  0
 39 45  1  0  0  0  0
 40 41  1  0  0  0  0
 40 43  1  0  0  0  0
 40 46  1  0  0  0  0
 41 42  2  0  0  0  0
 41 49  1  0  0  0  0
 43 44  1  0  0  0  0
 43 47  1  0  0  0  0
 43 48  1  0  0  0  0
 49 50  1  0  0  0  0
 49 54  1  0  0  0  0
 50 51  1  0  0  0  0
 50 53  1  0  0  0  0
 50 55  1  0  0  0  0
 51 52  2  0  0  0  0
 51 59  1  0  0  0  0
 53 56  1  0  0  0  0
 53 57  1  0  0  0  0
 53 58  1  0  0  0  0
 59 60  1  0  0  0  0
 59 61  1  0  0  0  0
 60 62  1  0  0  0  0
 60 63  1  0  0  0  0
 60 64  1  0  0  0  0
M  END
$$$$

  -OEChem-05262216053D

 64 63  0     1  0  0  0  0  0999 V2000
    0.1124    8.3648   -4.1026 C   0  0  0  0  0  0  0  0  0  0  0  0
   -1.0034    8.0955   -4.5202 O   0  0  0  0  0  0  0  0  0  0  0  0
    0.8223    9.6163   -4.5820 C   0  0  0  0  0  0  0  0  0  0  0  0
    1.7455    9.3455   -5.0998 H   0  0  0  0  0  0  0  0  0  0  0  0
    0.1811   10.1721   -5.2720 H   0  0  0  0  0  0  0  0  0  0  0  0
    1.0639   10.2580   -3.7312 H   0  0  0  0  0  0  0  0  0  0  0  0
    0.7208    7.5374   -3.1844 N   0  0  0  0  0  0  0  0  0  0  0  0
    0.0731    6.3753   -2.5592 C   0  0  2  0  0  0  0  0  0  0  0  0
    0.6766    6.0543   -1.1721 C   0  0  0  0  0  0  0  0  0  0  0  0
    1.5286    6.7972   -0.6925 O   0  0  0  0  0  0  0  0  0  0  0  0
    0.1603    5.1744   -3.5104 C   0  0  0  0  0  0  0  0  0  0  0  0
    1.8881    4.5827   -3.7281 S   0  0  0  0  0  0  0  0  0  0  0  0
    1.5973    7.8519   -2.7702 H   0  0  0  0  0  0  0  0  0  0  0  0
   -0.9839    6.6059   -2.3905 H   0  0  0  0  0  0  0  0  0  0  0  0
   -0.4524    4.3628   -3.1176 H   0  0  0  0  0  0  0  0  0  0  0  0
   -0.2521    5.4430   -4.4878 H   0  0  0  0  0  0  0  0  0  0  0  0
    0.2338    4.9768   -0.4256 N   0  0  0  0  0  0  0  0  0  0  0  0
    0.7994    4.6107    0.8654 C   0  0  0  0  0  0  0  0  0  0  0  0
   -0.3888    4.3037   -0.8819 H   0  0  0  0  0  0  0  0  0  0  0  0
    1.8638    4.3757    0.7650 H   0  0  0  0  0  0  0  0  0  0  0  0
    0.6830    5.4308    1.5814 H   0  0  0  0  0  0  0  0  0  0  0  0
    0.2860    3.7298    1.2634 H   0  0  0  0  0  0  0  0  0  0  0  0
   -5.2196    1.8489   -1.2479 C   0  0  0  0  0  0  0  0  0  0  0  0
   -5.7002    0.8978   -1.8437 O   0  0  0  0  0  0  0  0  0  0  0  0
   -5.9791    2.4929   -0.1035 C   0  0  0  0  0  0  0  0  0  0  0  0
   -6.1178    3.5586   -0.3000 H   0  0  0  0  0  0  0  0  0  0  0  0
   -6.9612    2.0248    0.0070 H   0  0  0  0  0  0  0  0  0  0  0  0
   -5.4229    2.3700    0.8291 H   0  0  0  0  0  0  0  0  0  0  0  0
   -3.9761    2.3279   -1.6030 N   0  0  0  0  0  0  0  0  0  0  0  0
   -3.0846    1.6709   -2.5685 C   0  0  2  0  0  0  0  0  0  0  0  0
   -1.6095    1.7422   -2.1263 C   0  0  0  0  0  0  0  0  0  0  0  0
   -1.2470    2.6866   -1.4316 O   0  0  0  0  0  0  0  0  0  0  0  0
   -3.2628    2.3510   -3.9286 C   0  0  0  0  0  0  0  0  0  0  0  0
   -3.5624    3.0388   -1.0021 H   0  0  0  0  0  0  0  0  0  0  0  0
   -3.3492    0.6118   -2.6578 H   0  0  0  0  0  0  0  0  0  0  0  0
   -2.9998    3.4119   -3.8643 H   0  0  0  0  0  0  0  0  0  0  0  0
   -2.6233    1.8792   -4.6810 H   0  0  0  0  0  0  0  0  0  0  0  0
   -4.3035    2.2693   -4.2587 H   0  0  0  0  0  0  0  0  0  0  0  0
   -0.7374    0.7372   -2.5139 N   0  0  0  0  0  0  0  0  0  0  0  0
    0.7161    0.6300   -2.2453 C   0  0  2  0  0  0  0  0  0  0  0  0
    1.0277   -0.1131   -0.9276 C   0  0  0  0  0  0  0  0  0  0  0  0
    0.2154   -0.1632   -0.0125 O   0  0  0  0  0  0  0  0  0  0  0  0
    1.5157    1.9417   -2.3434 C   0  0  0  0  0  0  0  0  0  0  0  0
    1.4886    2.5652   -4.0729 S   0  0  0  0  0  0  0  0  0  0  0  0
   -1.1716   -0.0411   -3.0020 H   0  0  0  0  0  0  0  0  0  0  0  0
    1.1154   -0.0128   -3.0354 H   0  0  0  0  0  0  0  0  0  0  0  0
    1.1349    2.6945   -1.6524 H   0  0  0  0  0  0  0  0  0  0  0  0
    2.5584    1.7631   -2.0621 H   0  0  0  0  0  0  0  0  0  0  0  0
    2.2015   -0.8338   -0.8093 N   0  0  0  0  0  0  0  0  0  0  0  0
    2.6486   -1.4997    0.4209 C   0  0  2  0  0  0  0  0  0  0  0  0
    4.1857   -1.4562    0.5457 C   0  0  0  0  0  0  0  0  0  0  0  0
    4.8662   -1.1108   -0.4146 O   0  0  0  0  0  0  0  0  0  0  0  0
    2.1450   -2.9465    0.3989 C   0  0  0  0  0  0  0  0  0  0  0  0
    2.9149   -0.6939   -1.5256 H   0  0  0  0  0  0  0  0  0  0  0  0
    2.2353   -0.9857    1.2955 H   0  0  0  0  0  0  0  0  0  0  0  0
    2.5627   -3.4847   -0.4583 H   0  0  0  0  0  0  0  0  0  0  0  0
    2.4362   -3.4695    1.3147 H   0  0  0  0  0  0  0  0  0  0  0  0
    1.0529   -2.9664    0.3243 H   0  0  0  0  0  0  0  0  0  0  0  0
    4.8061   -1.7804    1.7377 N   0  0  0  0  0  0  0  0  0  0  0  0
    6.2502   -1.7200    1.9271 C   0  0  0  0  0  0  0  0  0  0  0  0
    4.2161   -2.0331    2.5252 H   0  0  0  0  0  0  0  0  0  0  0  0
    6.7568   -2.3844    1.2191 H   0  0  0  0  0  0  0  0  0  0  0  0
    6.6141   -0.6984    1.7750 H   0  0  0  0  0  0  0  0  0  0  0  0
    6.5126   -2.0328    2.9423 H   0  0  0  0  0  0  0  0  0  0  0  0
  1  2  2  0  0  0  0
  1  3  1  0  0  0  0
  1  7  1  0  0  0  0
  3  4  1  0  0  0  0
  3  5  1  0  0  0  0
  3  6  1  0  0  0  0
  7  8  1  0  0  0  0
  7 13  1  0  0  0  0
  8  9  1  0  0  0  0
  8 11  1  0  0  0  0
  8 14  1  0  0  0  0
  9 10  2  0  0  0  0
  9 17  1  0  0  0  0
 11 12  1  0  0  0  0
 11 15  1  0  0  0  0
 11 16  1  0  0  0  0
 12 44  1  0  0  0  0
 17 18  1  0  0  0  0
 17 19  1  0  0  0  0
 18 20  1  0  0  0  0
 18 21  1  0  0  0  0
 18 22  1  0  0  0  0
 23 24  2  0  0  0  0
 23 25  1  0  0  0  0
 23 29  1  0  0  0  0
 25 26  1  0  0  0  0
 25 27  1  0  0  0  0
 25 28  1  0  0  0  0
 29 30  1  0  0  0  0
 29 34  1  0  0  0  0
 30 31  1  0  0  0  0
 30 33  1  0  0  0  0
 30 35  1  0  0  0  0
 31 32  2  0  0  0  0
 31 39  1  0  0  0  0
 33 36  1  0  0  0  0
 33 37  1  0  0  0  0
 33 38  1  0  0  0  0
 39 40  1  0  0  0  0
 39 45  1  0  0  0  0
 40 41  1  0  0  0  0
 40 43  1  0  0  0  0
 40 46  1  0  0  0  0
 41 42  2  0  0  0  0
 41 49  1  0  0  0  0
 43 44  1  0  0  0  0
 43 47  1  0  0  0  0
 43 48  1  0  0  0  0
 49 50  1  0  0  0  0
 49 54  1  0  0  0  0
 50 51  1  0  0  0  0
 50 53  1  0  0  0  0
 50 55  1  0  0  0  0
 51 52  2  0  0  0  0
 51 59  1  0  0  0  0
 53 56  1  0  0  0  0
 53 57  1  0  0  0  0
 53 58  1  0  0  0  0
 59 60  1  0  0  0  0
 59 61  1  0  0  0  0
 60 62  1  0  0  0  0
 60 63  1  0  0  0  0
 60 64  1  0  0  0  0
M  END
$$$$

  -OEChem-05262216053D

 64 63  0     1  0  0  0  0  0999 V2000
    0.0604    8.3515   -4.1201 C   0  0  0  0  0  0  0  0  0  0  0  0
   -1.0527    8.0659   -4.5343 O   0  0  0  0  0  0  0  0  0  0  0  0
    0.7719    9.5879   -4.6381 C   0  0  0  0  0  0  0  0  0  0  0  0
    1.7165    9.3049   -5.1087 H   0  0  0  0  0  0  0  0  0  0  0  0
    0.1492   10.0988   -5.3779 H   0  0  0  0  0  0  0  0  0  0  0  0
    0.9757   10.2761   -3.8143 H   0  0  0  0  0  0  0  0  0  0  0  0
    0.6686    7.5495   -3.1790 N   0  0  0  0  0  0  0  0  0  0  0  0
    0.0348    6.3849   -2.5421 C   0  0  2  0  0  0  0  0  0  0  0  0
    0.6403    6.0877   -1.1502 C   0  0  0  0  0  0  0  0  0  0  0  0
    1.4788    6.8498   -0.6770 O   0  0  0  0  0  0  0  0  0  0  0  0
    0.1432    5.1738   -3.4787 C   0  0  0  0  0  0  0  0  0  0  0  0
    1.8794    4.5999   -3.6770 S   0  0  0  0  0  0  0  0  0  0  0  0
    1.5429    7.8772   -2.7700 H   0  0  0  0  0  0  0  0  0  0  0  0
   -1.0262    6.6017   -2.3792 H   0  0  0  0  0  0  0  0  0  0  0  0
   -0.4617    4.3585   -3.0809 H   0  0  0  0  0  0  0  0  0  0  0  0
   -0.2658    5.4269   -4.4617 H   0  0  0  0  0  0  0  0  0  0  0  0
    0.2218    5.0047   -0.3969 N   0  0  0  0  0  0  0  0  0  0  0  0
    0.8135    4.6476    0.8857 C   0  0  0  0  0  0  0  0  0  0  0  0
   -0.3869    4.3168   -0.8493 H   0  0  0  0  0  0  0  0  0  0  0  0
    1.8737    4.4030    0.7635 H   0  0  0  0  0  0  0  0  0  0  0  0
    0.7209    5.4743    1.5979 H   0  0  0  0  0  0  0  0  0  0  0  0
    0.3024    3.7746    1.3034 H   0  0  0  0  0  0  0  0  0  0  0  0
   -5.2330    1.9173   -1.2910 C   0  0  0  0  0  0  0  0  0  0  0  0
   -5.7254    0.9883   -1.9110 O   0  0  0  0  0  0  0  0  0  0  0  0
   -6.0199    2.5978   -0.1872 C   0  0  0  0  0  0  0  0  0  0  0  0
   -6.1311    3.6614   -0.4105 H   0  0  0  0  0  0  0  0  0  0  0  0
   -7.0138    2.1499   -0.1025 H   0  0  0  0  0  0  0  0  0  0  0  0
   -5.5000    2.4846    0.7671 H   0  0  0  0  0  0  0  0  0  0  0  0
   -3.9571    2.3461   -1.5915 N   0  0  0  0  0  0  0  0  0  0  0  0
   -3.0610    1.6702   -2.5393 C   0  0  2  0  0  0  0  0  0  0  0  0
   -1.5874    1.7397   -2.0908 C   0  0  0  0  0  0  0  0  0  0  0  0
   -1.2272    2.6718   -1.3777 O   0  0  0  0  0  0  0  0  0  0  0  0
   -3.2258    2.3297   -3.9110 C   0  0  0  0  0  0  0  0  0  0  0  0
   -3.5428    3.0483   -0.9813 H   0  0  0  0  0  0  0  0  0  0  0  0
   -3.3323    0.6114   -2.6126 H   0  0  0  0  0  0  0  0  0  0  0  0
   -2.9643    3.3916   -3.8599 H   0  0  0  0  0  0  0  0  0  0  0  0
   -2.5788    1.8468   -4.6495 H   0  0  0  0  0  0  0  0  0  0  0  0
   -4.2627    2.2423   -4.2508 H   0  0  0  0  0  0  0  0  0  0  0  0
   -0.7131    0.7420   -2.4918 N   0  0  0  0  0  0  0  0  0  0  0  0
    0.7387    0.6268   -2.2187 C   0  0  2  0  0  0  0  0  0  0  0  0
    1.0369   -0.1429   -0.9119 C   0  0  0  0  0  0  0  0  0  0  0  0
    0.1398   -0.4564   -0.1385 O   0  0  0  0  0  0  0  0  0  0  0  0
    1.5335    1.9442   -2.3039 C   0  0  0  0  0  0  0  0  0  0  0  0
    1.5055    2.5788   -4.0297 S   0  0  0  0  0  0  0  0  0  0  0  0
   -1.1516   -0.0464   -2.9589 H   0  0  0  0  0  0  0  0  0  0  0  0
    1.1442   -0.0077   -3.0129 H   0  0  0  0  0  0  0  0  0  0  0  0
    1.1464    2.6903   -1.6090 H   0  0  0  0  0  0  0  0  0  0  0  0
    2.5771    1.7726   -2.0231 H   0  0  0  0  0  0  0  0  0  0  0  0
    2.3137   -0.6105   -0.6617 N   0  0  0  0  0  0  0  0  0  0  0  0
    2.7269   -1.2651    0.5865 C   0  0  2  0  0  0  0  0  0  0  0  0
    4.1557   -0.8457    0.9896 C   0  0  0  0  0  0  0  0  0  0  0  0
    4.8708   -0.2607    0.1831 O   0  0  0  0  0  0  0  0  0  0  0  0
    2.6406   -2.7803    0.3833 C   0  0  0  0  0  0  0  0  0  0  0  0
    3.0671   -0.2625   -1.2550 H   0  0  0  0  0  0  0  0  0  0  0  0
    2.0595   -0.9714    1.4039 H   0  0  0  0  0  0  0  0  0  0  0  0
    3.3141   -3.0972   -0.4197 H   0  0  0  0  0  0  0  0  0  0  0  0
    2.9180   -3.3084    1.3004 H   0  0  0  0  0  0  0  0  0  0  0  0
    1.6189   -3.0689    0.1160 H   0  0  0  0  0  0  0  0  0  0  0  0
    4.6343   -1.1081    2.2598 N   0  0  0  0  0  0  0  0  0  0  0  0
    5.9647   -0.7164    2.7090 C   0  0  0  0  0  0  0  0  0  0  0  0
    4.0112   -1.5738    2.9133 H   0  0  0  0  0  0  0  0  0  0  0  0
    6.7330   -1.1902    2.0892 H   0  0  0  0  0  0  0  0  0  0  0  0
    6.0855    0.3705    2.6504 H   0  0  0  0  0  0  0  0  0  0  0  0
    6.1195   -1.0252    3.7472 H   0  0  0  0  0  0  0  0  0  0  0  0
  1  2  2  0  0  0  0
  1  3  1  0  0  0  0
  1  7  1  0  0  0  0
  3  4  1  0  0  0  0
  3  5  1  0  0  0  0
  3  6  1  0  0  0  0
  7  8  1  0  0  0  0
  7 13  1  0  0  0  0
  8  9  1  0  0  0  0
  8 11  1  0  0  0  0
  8 14  1  0  0  0  0
  9 10  2  0  0  0  0
  9 17  1  0  0  0  0
 11 12  1  0  0  0  0
 11 15  1  0  0  0  0
 11 16  1  0  0  0  0
 12 44  1  0  0  0  0
 17 18  1  0  0  0  0
 17 19  1  0  0  0  0
 18 20  1  0  0  0  0
 18 21  1  0  0  0  0
 18 22  1  0  0  0  0
 23 24  2  0  0  0  0
 23 25  1  0  0  0  0
 23 29  1  0  0  0  0
 25 26  1  0  0  0  0
 25 27  1  0  0  0  0
 25 28  1  0  0  0  0
 29 30  1  0  0  0  0
 29 34  1  0  0  0  0
 30 31  1  0  0  0  0
 30 33  1  0  0  0  0
 30 35  1  0  0  0  0
 31 32  2  0  0  0  0
 31 39  1  0  0  0  0
 33 36  1  0  0  0  0
 33 37  1  0  0  0  0
 33 38  1  0  0  0  0
 39 40  1  0  0  0  0
 39 45  1  0  0  0  0
 40 41  1  0  0  0  0
 40 43  1  0  0  0  0
 40 46  1  0  0  0  0
 41 42  2  0  0  0  0
 41 49  1  0  0  0  0
 43 44  1  0  0  0  0
 43 47  1  0  0  0  0
 43 48  1  0  0  0  0
 49 50  1  0  0  0  0
 49 54  1  0  0  0  0
 50 51  1  0  0  0  0
 50 53  1  0  0  0  0
 50 55  1  0  0  0  0
 51 52  2  0  0  0  0
 51 59  1  0  0  0  0
 53 56  1  0  0  0  0
 53 57  1  0  0  0  0
 53 58  1  0  0  0  0
 59 60  1  0  0  0  0
 59 61  1  0  0  0  0
 60 62  1  0  0  0  0
 60 63  1  0  0  0  0
 60 64  1  0  0  0  0
M  END
$$$$

  -OEChem-05262216053D

 64 63  0     1  0  0  0  0  0999 V2000
   -0.1604    8.6508   -1.9921 C   0  0  0  0  0  0  0  0  0  0  0  0
   -1.2842    8.5214   -2.4528 O   0  0  0  0  0  0  0  0  0  0  0  0
    0.5650    9.9775   -2.1117 C   0  0  0  0  0  0  0  0  0  0  0  0
    1.4804    9.8499   -2.6946 H   0  0  0  0  0  0  0  0  0  0  0  0
   -0.0728   10.7118   -2.6115 H   0  0  0  0  0  0  0  0  0  0  0  0
    0.8226   10.3525   -1.1182 H   0  0  0  0  0  0  0  0  0  0  0  0
    0.4455    7.5935   -1.3497 N   0  0  0  0  0  0  0  0  0  0  0  0
   -0.2167    6.3150   -1.0523 C   0  0  2  0  0  0  0  0  0  0  0  0
    0.3858    5.6321    0.1975 C   0  0  0  0  0  0  0  0  0  0  0  0
    1.2179    6.2306    0.8734 O   0  0  0  0  0  0  0  0  0  0  0  0
   -0.1480    5.4108   -2.2899 C   0  0  0  0  0  0  0  0  0  0  0  0
    1.5685    4.8586   -2.6553 S   0  0  0  0  0  0  0  0  0  0  0  0
    1.3270    7.7745   -0.8712 H   0  0  0  0  0  0  0  0  0  0  0  0
   -1.2703    6.5049   -0.8228 H   0  0  0  0  0  0  0  0  0  0  0  0
   -0.7839    4.5395   -2.1324 H   0  0  0  0  0  0  0  0  0  0  0  0
   -0.5457    5.9431   -3.1597 H   0  0  0  0  0  0  0  0  0  0  0  0
   -0.0292    4.3776    0.6089 N   0  0  0  0  0  0  0  0  0  0  0  0
    0.5692    3.6731    1.7354 C   0  0  0  0  0  0  0  0  0  0  0  0
   -0.6227    3.8414   -0.0305 H   0  0  0  0  0  0  0  0  0  0  0  0
    1.6337    3.4921    1.5520 H   0  0  0  0  0  0  0  0  0  0  0  0
    0.4633    4.2583    2.6550 H   0  0  0  0  0  0  0  0  0  0  0  0
    0.0734    2.7082    1.8812 H   0  0  0  0  0  0  0  0  0  0  0  0
   -5.4482    1.8092   -1.1580 C   0  0  0  0  0  0  0  0  0  0  0  0
   -5.9469    0.8769   -1.7678 O   0  0  0  0  0  0  0  0  0  0  0  0
   -6.2613    2.5677   -0.1263 C   0  0  0  0  0  0  0  0  0  0  0  0
   -6.2924    3.6294   -0.3823 H   0  0  0  0  0  0  0  0  0  0  0  0
   -7.2843    2.1826   -0.0967 H   0  0  0  0  0  0  0  0  0  0  0  0
   -5.8117    2.4509    0.8626 H   0  0  0  0  0  0  0  0  0  0  0  0
   -4.1389    2.1680   -1.3998 N   0  0  0  0  0  0  0  0  0  0  0  0
   -3.2264    1.4250   -2.2800 C   0  0  2  0  0  0  0  0  0  0  0  0
   -1.7556    1.5376   -1.8274 C   0  0  0  0  0  0  0  0  0  0  0  0
   -1.4444    2.4173   -1.0299 O   0  0  0  0  0  0  0  0  0  0  0  0
   -3.3778    1.9688   -3.7042 C   0  0  0  0  0  0  0  0  0  0  0  0
   -3.7272    2.8772   -0.7958 H   0  0  0  0  0  0  0  0  0  0  0  0
   -3.4915    0.3620   -2.2672 H   0  0  0  0  0  0  0  0  0  0  0  0
   -3.1115    3.0302   -3.7396 H   0  0  0  0  0  0  0  0  0  0  0  0
   -2.7274    1.4238   -4.3950 H   0  0  0  0  0  0  0  0  0  0  0  0
   -4.4120    1.8572   -4.0451 H   0  0  0  0  0  0  0  0  0  0  0  0
   -0.8360    0.6113   -2.2934 N   0  0  0  0  0  0  0  0  0  0  0  0
    0.6371    0.5777   -2.1226 C   0  0  2  0  0  0  0  0  0  0  0  0
    1.0697   -0.4831   -1.0835 C   0  0  0  0  0  0  0  0  0  0  0  0
    0.2510   -1.2622   -0.6092 O   0  0  0  0  0  0  0  0  0  0  0  0
    1.3333    1.9388   -1.9161 C   0  0  0  0  0  0  0  0  0  0  0  0
    1.1490    2.9678   -3.4298 S   0  0  0  0  0  0  0  0  0  0  0  0
   -1.2449   -0.1803   -2.7833 H   0  0  0  0  0  0  0  0  0  0  0  0
    1.0361    0.2030   -3.0702 H   0  0  0  0  0  0  0  0  0  0  0  0
    0.9438    2.4545   -1.0381 H   0  0  0  0  0  0  0  0  0  0  0  0
    2.4035    1.7977   -1.7411 H   0  0  0  0  0  0  0  0  0  0  0  0
    2.4058   -0.6696   -0.7807 N   0  0  0  0  0  0  0  0  0  0  0  0
    2.8952   -1.5431    0.2943 C   0  0  2  0  0  0  0  0  0  0  0  0
    4.0085   -0.8489    1.1064 C   0  0  0  0  0  0  0  0  0  0  0  0
    4.5053    0.1937    0.6933 O   0  0  0  0  0  0  0  0  0  0  0  0
    3.4051   -2.8386   -0.3413 C   0  0  0  0  0  0  0  0  0  0  0  0
    3.0515    0.0604   -1.0817 H   0  0  0  0  0  0  0  0  0  0  0  0
    2.0855   -1.7803    0.9928 H   0  0  0  0  0  0  0  0  0  0  0  0
    4.2318   -2.6293   -1.0278 H   0  0  0  0  0  0  0  0  0  0  0  0
    3.7568   -3.5324    0.4280 H   0  0  0  0  0  0  0  0  0  0  0  0
    2.6003   -3.3250   -0.9016 H   0  0  0  0  0  0  0  0  0  0  0  0
    4.4368   -1.3775    2.3098 N   0  0  0  0  0  0  0  0  0  0  0  0
    5.4446   -0.7390    3.1481 C   0  0  0  0  0  0  0  0  0  0  0  0
    3.9822   -2.2228    2.6435 H   0  0  0  0  0  0  0  0  0  0  0  0
    6.3839   -0.6209    2.5976 H   0  0  0  0  0  0  0  0  0  0  0  0
    5.1011    0.2485    3.4742 H   0  0  0  0  0  0  0  0  0  0  0  0
    5.6396   -1.3483    4.0358 H   0  0  0  0  0  0  0  0  0  0  0  0
  1  2  2  0  0  0  0
  1  3  1  0  0  0  0
  1  7  1  0  0  0  0
  3  4  1  0  0  0  0
  3  5  1  0  0  0  0
  3  6  1  0  0  0  0
  7  8  1  0  0  0  0
  7 13  1  0  0  0  0
  8  9  1  0  0  0  0
  8 11  1  0  0  0  0
  8 14  1  0  0  0  0
  9 10  2  0  0  0  0
  9 17  1  0  0  0  0
 11 12  1  0  0  0  0
 11 15  1  0  0  0  0
 11 16  1  0  0  0  0
 12 44  1  0  0  0  0
 17 18  1  0  0  0  0
 17 19  1  0  0  0  0
 18 20  1  0  0  0  0
 18 21  1  0  0  0  0
 18 22  1  0  0  0  0
 23 24  2  0  0  0  0
 23 25  1  0  0  0  0
 23 29  1  0  0  0  0
 25 26  1  0  0  0  0
 25 27  1  0  0  0  0
 25 28  1  0  0  0  0
 29 30  1  0  0  0  0
 29 34  1  0  0  0  0
 30 31  1  0  0  0  0
 30 33  1  0  0  0  0
 30 35  1  0  0  0  0
 31 32  2  0  0  0  0
 31 39  1  0  0  0  0
 33 36  1  0  0  0  0
 33 37  1  0  0  0  0
 33 38  1  0  0  0  0
 39 40  1  0  0  0  0
 39 45  1  0  0  0  0
 40 41  1  0  0  0  0
 40 43  1  0  0  0  0
 40 46  1  0  0  0  0
 41 42  2  0  0  0  0
 41 49  1  0  0  0  0
 43 44  1  0  0  0  0
 43 47  1  0  0  0  0
 43 48  1  0  0  0  0
 49 50  1  0  0  0  0
 49 54  1  0  0  0  0
 50 51  1  0  0  0  0
 50 53  1  0  0  0  0
 50 55  1  0  0  0  0
 51 52  2  0  0  0  0
 51 59  1  0  0  0  0
 53 56  1  0  0  0  0
 53 57  1  0  0  0  0
 53 58  1  0  0  0  0
 59 60  1  0  0  0  0
 59 61  1  0  0  0  0
 60 62  1  0  0  0  0
 60 63  1  0  0  0  0
 60 64  1  0  0  0  0
M  END
$$$$

  -OEChem-05262216053D

 64 63  0     1  0  0  0  0  0999 V2000
   -0.1209    8.5658   -1.7227 C   0  0  0  0  0  0  0  0  0  0  0  0
   -1.2866    8.4635   -2.0728 O   0  0  0  0  0  0  0  0  0  0  0  0
    0.6025    9.8913   -1.8623 C   0  0  0  0  0  0  0  0  0  0  0  0
    1.4754    9.7721   -2.5085 H   0  0  0  0  0  0  0  0  0  0  0  0
   -0.0626   10.6395   -2.3025 H   0  0  0  0  0  0  0  0  0  0  0  0
    0.9292   10.2430   -0.8808 H   0  0  0  0  0  0  0  0  0  0  0  0
    0.5369    7.4767   -1.1948 N   0  0  0  0  0  0  0  0  0  0  0  0
   -0.0924    6.1775   -0.9185 C   0  0  2  0  0  0  0  0  0  0  0  0
    0.6434    5.4117    0.2060 C   0  0  0  0  0  0  0  0  0  0  0  0
    1.5733    5.9524    0.7983 O   0  0  0  0  0  0  0  0  0  0  0  0
   -0.1579    5.3642   -2.2190 C   0  0  0  0  0  0  0  0  0  0  0  0
    1.5072    4.8408   -2.8021 S   0  0  0  0  0  0  0  0  0  0  0  0
    1.4669    7.6264   -0.8051 H   0  0  0  0  0  0  0  0  0  0  0  0
   -1.1144    6.3447   -0.5632 H   0  0  0  0  0  0  0  0  0  0  0  0
   -0.7781    4.4828   -2.0590 H   0  0  0  0  0  0  0  0  0  0  0  0
   -0.6419    5.9559   -3.0023 H   0  0  0  0  0  0  0  0  0  0  0  0
    0.2505    4.1427    0.5941 N   0  0  0  0  0  0  0  0  0  0  0  0
    1.0001    3.3442    1.5575 C   0  0  0  0  0  0  0  0  0  0  0  0
   -0.4424    3.6642    0.0117 H   0  0  0  0  0  0  0  0  0  0  0  0
    2.0501    3.2634    1.2567 H   0  0  0  0  0  0  0  0  0  0  0  0
    0.9533    3.7983    2.5524 H   0  0  0  0  0  0  0  0  0  0  0  0
    0.5815    2.3346    1.6169 H   0  0  0  0  0  0  0  0  0  0  0  0
   -5.4434    1.8038   -1.0936 C   0  0  0  0  0  0  0  0  0  0  0  0
   -5.9687    0.8561   -1.6557 O   0  0  0  0  0  0  0  0  0  0  0  0
   -6.2253    2.6152   -0.0777 C   0  0  0  0  0  0  0  0  0  0  0  0
   -6.2484    3.6665   -0.3753 H   0  0  0  0  0  0  0  0  0  0  0  0
   -7.2524    2.2454   -0.0112 H   0  0  0  0  0  0  0  0  0  0  0  0
   -5.7572    2.5318    0.9060 H   0  0  0  0  0  0  0  0  0  0  0  0
   -4.1325    2.1289   -1.3729 N   0  0  0  0  0  0  0  0  0  0  0  0
   -3.2516    1.3432   -2.2484 C   0  0  2  0  0  0  0  0  0  0  0  0
   -1.7643    1.4677   -1.8527 C   0  0  0  0  0  0  0  0  0  0  0  0
   -1.4277    2.3333   -1.0493 O   0  0  0  0  0  0  0  0  0  0  0  0
   -3.4559    1.8234   -3.6896 C   0  0  0  0  0  0  0  0  0  0  0  0
   -3.6991    2.8592   -0.8110 H   0  0  0  0  0  0  0  0  0  0  0  0
   -3.5194    0.2831   -2.1792 H   0  0  0  0  0  0  0  0  0  0  0  0
   -3.1928    2.8824   -3.7804 H   0  0  0  0  0  0  0  0  0  0  0  0
   -2.8320    1.2493   -4.3815 H   0  0  0  0  0  0  0  0  0  0  0  0
   -4.5021    1.6974   -3.9872 H   0  0  0  0  0  0  0  0  0  0  0  0
   -0.8550    0.5558   -2.3653 N   0  0  0  0  0  0  0  0  0  0  0  0
    0.6261    0.5470   -2.2794 C   0  0  2  0  0  0  0  0  0  0  0  0
    1.1092   -0.5093   -1.2550 C   0  0  0  0  0  0  0  0  0  0  0  0
    0.3634   -1.4237   -0.9226 O   0  0  0  0  0  0  0  0  0  0  0  0
    1.3045    1.9217   -2.1039 C   0  0  0  0  0  0  0  0  0  0  0  0
    1.0201    2.9688   -3.5887 S   0  0  0  0  0  0  0  0  0  0  0  0
   -1.2750   -0.2391   -2.8405 H   0  0  0  0  0  0  0  0  0  0  0  0
    0.9863    0.1782   -3.2446 H   0  0  0  0  0  0  0  0  0  0  0  0
    0.9582    2.4179   -1.1995 H   0  0  0  0  0  0  0  0  0  0  0  0
    2.3860    1.8029   -1.9970 H   0  0  0  0  0  0  0  0  0  0  0  0
    2.4052   -0.5041   -0.7696 N   0  0  0  0  0  0  0  0  0  0  0  0
    2.8229   -1.2458    0.4300 C   0  0  2  0  0  0  0  0  0  0  0  0
    3.2636   -0.2741    1.5450 C   0  0  0  0  0  0  0  0  0  0  0  0
    3.4959    0.8987    1.2720 O   0  0  0  0  0  0  0  0  0  0  0  0
    3.9696   -2.1770    0.0322 C   0  0  0  0  0  0  0  0  0  0  0  0
    2.9283    0.3537   -0.9398 H   0  0  0  0  0  0  0  0  0  0  0  0
    2.0012   -1.8507    0.8273 H   0  0  0  0  0  0  0  0  0  0  0  0
    4.8184   -1.6005   -0.3500 H   0  0  0  0  0  0  0  0  0  0  0  0
    4.3054   -2.7619    0.8939 H   0  0  0  0  0  0  0  0  0  0  0  0
    3.6385   -2.8702   -0.7477 H   0  0  0  0  0  0  0  0  0  0  0  0
    3.3932   -0.7039    2.8524 N   0  0  0  0  0  0  0  0  0  0  0  0
    3.7882    0.1774    3.9452 C   0  0  0  0  0  0  0  0  0  0  0  0
    3.1580   -1.6704    3.0596 H   0  0  0  0  0  0  0  0  0  0  0  0
    4.7580    0.6401    3.7332 H   0  0  0  0  0  0  0  0  0  0  0  0
    3.0446    0.9687    4.0875 H   0  0  0  0  0  0  0  0  0  0  0  0
    3.8742   -0.3891    4.8775 H   0  0  0  0  0  0  0  0  0  0  0  0
  1  2  2  0  0  0  0
  1  3  1  0  0  0  0
  1  7  1  0  0  0  0
  3  4  1  0  0  0  0
  3  5  1  0  0  0  0
  3  6  1  0  0  0  0
  7  8  1  0  0  0  0
  7 13  1  0  0  0  0
  8  9  1  0  0  0  0
  8 11  1  0  0  0  0
  8 14  1  0  0  0  0
  9 10  2  0  0  0  0
  9 17  1  0  0  0  0
 11 12  1  0  0  0  0
 11 15  1  0  0  0  0
 11 16  1  0  0  0  0
 12 44  1  0  0  0  0
 17 18  1  0  0  0  0
 17 19  1  0  0  0  0
 18 20  1  0  0  0  0
 18 21  1  0  0  0  0
 18 22  1  0  0  0  0
 23 24  2  0  0  0  0
 23 25  1  0  0  0  0
 23 29  1  0  0  0  0
 25 26  1  0  0  0  0
 25 27  1  0  0  0  0
 25 28  1  0  0  0  0
 29 30  1  0  0  0  0
 29 34  1  0  0  0  0
 30 31  1  0  0  0  0
 30 33  1  0  0  0  0
 30 35  1  0  0  0  0
 31 32  2  0  0  0  0
 31 39  1  0  0  0  0
 33 36  1  0  0  0  0
 33 37  1  0  0  0  0
 33 38  1  0  0  0  0
 39 40  1  0  0  0  0
 39 45  1  0  0  0  0
 40 41  1  0  0  0  0
 40 43  1  0  0  0  0
 40 46  1  0  0  0  0
 41 42  2  0  0  0  0
 41 49  1  0  0  0  0
 43 44  1  0  0  0  0
 43 47  1  0  0  0  0
 43 48  1  0  0  0  0
 49 50  1  0  0  0  0
 49 54  1  0  0  0  0
 50 51  1  0  0  0  0
 50 53  1  0  0  0  0
 50 55  1  0  0  0  0
 51 52  2  0  0  0  0
 51 59  1  0  0  0  0
 53 56  1  0  0  0  0
 53 57  1  0  0  0  0
 53 58  1  0  0  0  0
 59 60  1  0  0  0  0
 59 61  1  0  0  0  0
 60 62  1  0  0  0  0
 60 63  1  0  0  0  0
 60 64  1  0  0  0  0
M  END
$$$$

  -OEChem-05262216053D

 64 63  0     1  0  0  0  0  0999 V2000
   -0.1773    8.6402   -1.8639 C   0  0  0  0  0  0  0  0  0  0  0  0
   -1.3365    8.5365   -2.2345 O   0  0  0  0  0  0  0  0  0  0  0  0
    0.5481    9.9664   -1.9890 C   0  0  0  0  0  0  0  0  0  0  0  0
    1.4544    9.8401   -2.5863 H   0  0  0  0  0  0  0  0  0  0  0  0
   -0.0959   10.7040   -2.4761 H   0  0  0  0  0  0  0  0  0  0  0  0
    0.8214   10.3363   -0.9979 H   0  0  0  0  0  0  0  0  0  0  0  0
    0.4718    7.5528   -1.3225 N   0  0  0  0  0  0  0  0  0  0  0  0
   -0.1756    6.2681   -1.0185 C   0  0  2  0  0  0  0  0  0  0  0  0
    0.5053    5.5561    0.1733 C   0  0  0  0  0  0  0  0  0  0  0  0
    1.3965    6.1317    0.7915 O   0  0  0  0  0  0  0  0  0  0  0  0
   -0.1858    5.3966   -2.2821 C   0  0  0  0  0  0  0  0  0  0  0  0
    1.5057    4.8723   -2.7833 S   0  0  0  0  0  0  0  0  0  0  0  0
    1.3843    7.7142   -0.8975 H   0  0  0  0  0  0  0  0  0  0  0  0
   -1.2125    6.4513   -0.7177 H   0  0  0  0  0  0  0  0  0  0  0  0
   -0.8011    4.5142   -2.1040 H   0  0  0  0  0  0  0  0  0  0  0  0
   -0.6488    5.9484   -3.1063 H   0  0  0  0  0  0  0  0  0  0  0  0
    0.0999    4.3024    0.5965 N   0  0  0  0  0  0  0  0  0  0  0  0
    0.7769    3.5701    1.6605 C   0  0  0  0  0  0  0  0  0  0  0  0
   -0.5517    3.7863   -0.0009 H   0  0  0  0  0  0  0  0  0  0  0  0
    1.8430    3.4631    1.4349 H   0  0  0  0  0  0  0  0  0  0  0  0
    0.6708    4.0941    2.6157 H   0  0  0  0  0  0  0  0  0  0  0  0
    0.3450    2.5699    1.7648 H   0  0  0  0  0  0  0  0  0  0  0  0
   -5.4476    1.6986   -1.1983 C   0  0  0  0  0  0  0  0  0  0  0  0
   -5.9225    0.7735   -1.8373 O   0  0  0  0  0  0  0  0  0  0  0  0
   -6.2874    2.4147   -0.1579 C   0  0  0  0  0  0  0  0  0  0  0  0
   -6.3611    3.4765   -0.4052 H   0  0  0  0  0  0  0  0  0  0  0  0
   -7.2944    1.9888   -0.1283 H   0  0  0  0  0  0  0  0  0  0  0  0
   -5.8308    2.3068    0.8288 H   0  0  0  0  0  0  0  0  0  0  0  0
   -4.1426    2.0878   -1.4172 N   0  0  0  0  0  0  0  0  0  0  0  0
   -3.2102    1.3879   -2.3118 C   0  0  2  0  0  0  0  0  0  0  0  0
   -1.7460    1.4943   -1.8354 C   0  0  0  0  0  0  0  0  0  0  0  0
   -1.4421    2.3611   -1.0203 O   0  0  0  0  0  0  0  0  0  0  0  0
   -3.3484    1.9877   -3.7150 C   0  0  0  0  0  0  0  0  0  0  0  0
   -3.7533    2.7985   -0.8004 H   0  0  0  0  0  0  0  0  0  0  0  0
   -3.4661    0.3231   -2.3463 H   0  0  0  0  0  0  0  0  0  0  0  0
   -3.0863    3.0508   -3.7051 H   0  0  0  0  0  0  0  0  0  0  0  0
   -2.6880    1.4732   -4.4198 H   0  0  0  0  0  0  0  0  0  0  0  0
   -4.3782    1.8862   -4.0724 H   0  0  0  0  0  0  0  0  0  0  0  0
   -0.8152    0.5811   -2.3047 N   0  0  0  0  0  0  0  0  0  0  0  0
    0.6611    0.5899   -2.1713 C   0  0  2  0  0  0  0  0  0  0  0  0
    1.1165   -0.4442   -1.1143 C   0  0  0  0  0  0  0  0  0  0  0  0
    0.4983   -1.4962   -0.9989 O   0  0  0  0  0  0  0  0  0  0  0  0
    1.3186    1.9763   -2.0113 C   0  0  0  0  0  0  0  0  0  0  0  0
    1.0683    2.9753   -3.5344 S   0  0  0  0  0  0  0  0  0  0  0  0
   -1.2076   -0.2050   -2.8178 H   0  0  0  0  0  0  0  0  0  0  0  0
    1.0561    0.2022   -3.1151 H   0  0  0  0  0  0  0  0  0  0  0  0
    0.9432    2.4954   -1.1300 H   0  0  0  0  0  0  0  0  0  0  0  0
    2.3983    1.8671   -1.8759 H   0  0  0  0  0  0  0  0  0  0  0  0
    2.2614   -0.2575   -0.3598 N   0  0  0  0  0  0  0  0  0  0  0  0
    2.6328   -1.0849    0.7973 C   0  0  2  0  0  0  0  0  0  0  0  0
    2.8285   -0.2173    2.0587 C   0  0  0  0  0  0  0  0  0  0  0  0
    2.9353    0.9997    1.9522 O   0  0  0  0  0  0  0  0  0  0  0  0
    3.9251   -1.8245    0.4446 C   0  0  0  0  0  0  0  0  0  0  0  0
    2.6318    0.6919   -0.3468 H   0  0  0  0  0  0  0  0  0  0  0  0
    1.8509   -1.8179    1.0227 H   0  0  0  0  0  0  0  0  0  0  0  0
    4.7291   -1.1117    0.2345 H   0  0  0  0  0  0  0  0  0  0  0  0
    4.2383   -2.4690    1.2715 H   0  0  0  0  0  0  0  0  0  0  0  0
    3.7727   -2.4492   -0.4410 H   0  0  0  0  0  0  0  0  0  0  0  0
    2.8884   -0.7951    3.3131 N   0  0  0  0  0  0  0  0  0  0  0  0
    3.0780   -0.0267    4.5379 C   0  0  0  0  0  0  0  0  0  0  0  0
    2.7843   -1.8038    3.3754 H   0  0  0  0  0  0  0  0  0  0  0  0
    4.0399    0.4965    4.5168 H   0  0  0  0  0  0  0  0  0  0  0  0
    2.2781    0.7120    4.6549 H   0  0  0  0  0  0  0  0  0  0  0  0
    3.0644   -0.6906    5.4076 H   0  0  0  0  0  0  0  0  0  0  0  0
  1  2  2  0  0  0  0
  1  3  1  0  0  0  0
  1  7  1  0  0  0  0
  3  4  1  0  0  0  0
  3  5  1  0  0  0  0
  3  6  1  0  0  0  0
  7  8  1  0  0  0  0
  7 13  1  0  0  0  0
  8  9  1  0  0  0  0
  8 11  1  0  0  0  0
  8 14  1  0  0  0  0
  9 10  2  0  0  0  0
  9 17  1  0  0  0  0
 11 12  1  0  0  0  0
 11 15  1  0  0  0  0
 11 16  1  0  0  0  0
 12 44  1  0  0  0  0
 17 18  1  0  0  0  0
 17 19  1  0  0  0  0
 18 20  1  0  0  0  0
 18 21  1  0  0  0  0
 18 22  1  0  0  0  0
 23 24  2  0  0  0  0
 23 25  1  0  0  0  0
 23 29  1  0  0  0  0
 25 26  1  0  0  0  0
 25 27  1  0  0  0  0
 25 28  1  0  0  0  0
 29 30  1  0  0  0  0
 29 34  1  0  0  0  0
 30 31  1  0  0  0  0
 30 33  1  0  0  0  0
 30 35  1  0  0  0  0
 31 32  2  0  0  0  0
 31 39  1  0  0  0  0
 33 36  1  0  0  0  0
 33 37  1  0  0  0  0
 33 38  1  0  0  0  0
 39 40  1  0  0  0  0
 39 45  1  0  0  0  0
 40 41  1  0  0  0  0
 40 43  1  0  0  0  0
 40 46  1  0  0  0  0
 41 42  2  0  0  0  0
 41 49  1  0  0  0  0
 43 44  1  0  0  0  0
 43 47  1  0  0  0  0
 43 48  1  0  0  0  0
 49 50  1  0  0  0  0
 49 54  1  0  0  0  0
 50 51  1  0  0  0  0
 50 53  1  0  0  0  0
 50 55  1  0  0  0  0
 51 52  2  0  0  0  0
 51 59  1  0  0  0  0
 53 56  1  0  0  0  0
 53 57  1  0  0  0  0
 53 58  1  0  0  0  0
 59 60  1  0  0  0  0
 59 61  1  0  0  0  0
 60 62  1  0  0  0  0
 60 63  1  0  0  0  0
 60 64  1  0  0  0  0
M  END
$$$$

  -OEChem-05262216053D

 64 63  0     1  0  0  0  0  0999 V2000
   -0.1901    8.6733   -1.9607 C   0  0  0  0  0  0  0  0  0  0  0  0
   -1.3253    8.5571   -2.3964 O   0  0  0  0  0  0  0  0  0  0  0  0
    0.5473    9.9930   -2.0897 C   0  0  0  0  0  0  0  0  0  0  0  0
    1.4302    9.8652   -2.7207 H   0  0  0  0  0  0  0  0  0  0  0  0
   -0.1043   10.7455   -2.5421 H   0  0  0  0  0  0  0  0  0  0  0  0
    0.8610   10.3451   -1.1038 H   0  0  0  0  0  0  0  0  0  0  0  0
    0.4225    7.6039   -1.3459 N   0  0  0  0  0  0  0  0  0  0  0  0
   -0.2384    6.3255   -1.0466 C   0  0  2  0  0  0  0  0  0  0  0  0
    0.3830    5.6419    0.1931 C   0  0  0  0  0  0  0  0  0  0  0  0
    1.2333    6.2377    0.8487 O   0  0  0  0  0  0  0  0  0  0  0  0
   -0.1818    5.4250   -2.2876 C   0  0  0  0  0  0  0  0  0  0  0  0
    1.5380    4.9184   -2.7011 S   0  0  0  0  0  0  0  0  0  0  0  0
    1.3145    7.7744   -0.8829 H   0  0  0  0  0  0  0  0  0  0  0  0
   -1.2894    6.5130   -0.8035 H   0  0  0  0  0  0  0  0  0  0  0  0
   -0.7924    4.5377   -2.1167 H   0  0  0  0  0  0  0  0  0  0  0  0
   -0.6145    5.9505   -3.1444 H   0  0  0  0  0  0  0  0  0  0  0  0
   -0.0318    4.3911    0.6152 N   0  0  0  0  0  0  0  0  0  0  0  0
    0.5734    3.6946    1.7437 C   0  0  0  0  0  0  0  0  0  0  0  0
   -0.6417    3.8549   -0.0078 H   0  0  0  0  0  0  0  0  0  0  0  0
    1.6493    3.5676    1.5845 H   0  0  0  0  0  0  0  0  0  0  0  0
    0.4186    4.2562    2.6707 H   0  0  0  0  0  0  0  0  0  0  0  0
    0.1222    2.7045    1.8608 H   0  0  0  0  0  0  0  0  0  0  0  0
   -5.4157    1.6733   -1.2209 C   0  0  0  0  0  0  0  0  0  0  0  0
   -5.8694    0.7297   -1.8481 O   0  0  0  0  0  0  0  0  0  0  0  0
   -6.2633    2.3674   -0.1713 C   0  0  0  0  0  0  0  0  0  0  0  0
   -6.3481    3.4320   -0.4023 H   0  0  0  0  0  0  0  0  0  0  0  0
   -7.2662    1.9319   -0.1486 H   0  0  0  0  0  0  0  0  0  0  0  0
   -5.8062    2.2494    0.8140 H   0  0  0  0  0  0  0  0  0  0  0  0
   -4.1230    2.0957   -1.4524 N   0  0  0  0  0  0  0  0  0  0  0  0
   -3.1739    1.4065   -2.3385 C   0  0  2  0  0  0  0  0  0  0  0  0
   -1.7169    1.5267   -1.8439 C   0  0  0  0  0  0  0  0  0  0  0  0
   -1.4327    2.3867   -1.0152 O   0  0  0  0  0  0  0  0  0  0  0  0
   -3.3064    2.0018   -3.7442 C   0  0  0  0  0  0  0  0  0  0  0  0
   -3.7473    2.8140   -0.8359 H   0  0  0  0  0  0  0  0  0  0  0  0
   -3.4166    0.3388   -2.3753 H   0  0  0  0  0  0  0  0  0  0  0  0
   -3.0567    3.0678   -3.7355 H   0  0  0  0  0  0  0  0  0  0  0  0
   -2.6345    1.4925   -4.4416 H   0  0  0  0  0  0  0  0  0  0  0  0
   -4.3320    1.8877   -4.1100 H   0  0  0  0  0  0  0  0  0  0  0  0
   -0.7720    0.6214   -2.2984 N   0  0  0  0  0  0  0  0  0  0  0  0
    0.6991    0.6339   -2.1255 C   0  0  2  0  0  0  0  0  0  0  0  0
    1.1205   -0.4104   -1.0687 C   0  0  0  0  0  0  0  0  0  0  0  0
    0.6508   -1.5402   -1.1337 O   0  0  0  0  0  0  0  0  0  0  0  0
    1.3580    2.0158   -1.9408 C   0  0  0  0  0  0  0  0  0  0  0  0
    1.1495    3.0184   -3.4678 S   0  0  0  0  0  0  0  0  0  0  0  0
   -1.1459   -0.1508   -2.8454 H   0  0  0  0  0  0  0  0  0  0  0  0
    1.1189    0.2532   -3.0618 H   0  0  0  0  0  0  0  0  0  0  0  0
    0.9596    2.5370   -1.0697 H   0  0  0  0  0  0  0  0  0  0  0  0
    2.4326    1.8953   -1.7735 H   0  0  0  0  0  0  0  0  0  0  0  0
    2.0394   -0.1220   -0.0755 N   0  0  0  0  0  0  0  0  0  0  0  0
    2.3180   -0.9976    1.0711 C   0  0  2  0  0  0  0  0  0  0  0  0
    2.3244   -0.1974    2.3905 C   0  0  0  0  0  0  0  0  0  0  0  0
    2.4063    1.0258    2.3619 O   0  0  0  0  0  0  0  0  0  0  0  0
    3.6716   -1.6712    0.8348 C   0  0  0  0  0  0  0  0  0  0  0  0
    2.2610    0.8640    0.0621 H   0  0  0  0  0  0  0  0  0  0  0  0
    1.5451   -1.7678    1.1632 H   0  0  0  0  0  0  0  0  0  0  0  0
    4.4637   -0.9201    0.7506 H   0  0  0  0  0  0  0  0  0  0  0  0
    3.9149   -2.3445    1.6619 H   0  0  0  0  0  0  0  0  0  0  0  0
    3.6460   -2.2564   -0.0900 H   0  0  0  0  0  0  0  0  0  0  0  0
    2.2142   -0.8412    3.6089 N   0  0  0  0  0  0  0  0  0  0  0  0
    2.1670   -0.1340    4.8832 C   0  0  0  0  0  0  0  0  0  0  0  0
    2.1141   -1.8524    3.6028 H   0  0  0  0  0  0  0  0  0  0  0  0
    3.0889    0.4361    5.0394 H   0  0  0  0  0  0  0  0  0  0  0  0
    1.3169    0.5561    4.9072 H   0  0  0  0  0  0  0  0  0  0  0  0
    2.0572   -0.8453    5.7072 H   0  0  0  0  0  0  0  0  0  0  0  0
  1  2  2  0  0  0  0
  1  3  1  0  0  0  0
  1  7  1  0  0  0  0
  3  4  1  0  0  0  0
  3  5  1  0  0  0  0
  3  6  1  0  0  0  0
  7  8  1  0  0  0  0
  7 13  1  0  0  0  0
  8  9  1  0  0  0  0
  8 11  1  0  0  0  0
  8 14  1  0  0  0  0
  9 10  2  0  0  0  0
  9 17  1  0  0  0  0
 11 12  1  0  0  0  0
 11 15  1  0  0  0  0
 11 16  1  0  0  0  0
 12 44  1  0  0  0  0
 17 18  1  0  0  0  0
 17 19  1  0  0  0  0
 18 20  1  0  0  0  0
 18 21  1  0  0  0  0
 18 22  1  0  0  0  0
 23 24  2  0  0  0  0
 23 25  1  0  0  0  0
 23 29  1  0  0  0  0
 25 26  1  0  0  0  0
 25 27  1  0  0  0  0
 25 28  1  0  0  0  0
 29 30  1  0  0  0  0
 29 34  1  0  0  0  0
 30 31  1  0  0  0  0
 30 33  1  0  0  0  0
 30 35  1  0  0  0  0
 31 32  2  0  0  0  0
 31 39  1  0  0  0  0
 33 36  1  0  0  0  0
 33 37  1  0  0  0  0
 33 38  1  0  0  0  0
 39 40  1  0  0  0  0
 39 45  1  0  0  0  0
 40 41  1  0  0  0  0
 40 43  1  0  0  0  0
 40 46  1  0  0  0  0
 41 42  2  0  0  0  0
 41 49  1  0  0  0  0
 43 44  1  0  0  0  0
 43 47  1  0  0  0  0
 43 48  1  0  0  0  0
 49 50  1  0  0  0  0
 49 54  1  0  0  0  0
 50 51  1  0  0  0  0
 50 53  1  0  0  0  0
 50 55  1  0  0  0  0
 51 52  2  0  0  0  0
 51 59  1  0  0  0  0
 53 56  1  0  0  0  0
 53 57  1  0  0  0  0
 53 58  1  0  0  0  0
 59 60  1  0  0  0  0
 59 61  1  0  0  0  0
 60 62  1  0  0  0  0
 60 63  1  0  0  0  0
 60 64  1  0  0  0  0
M  END
$$$$

  -OEChem-05262216053D

 64 63  0     1  0  0  0  0  0999 V2000
   -0.1589    8.6737   -2.0634 C   0  0  0  0  0  0  0  0  0  0  0  0
   -1.2695    8.5386   -2.5536 O   0  0  0  0  0  0  0  0  0  0  0  0
    0.5710    9.9984   -2.1799 C   0  0  0  0  0  0  0  0  0  0  0  0
    1.5095    9.8594   -2.7222 H   0  0  0  0  0  0  0  0  0  0  0  0
   -0.0454   10.7220   -2.7206 H   0  0  0  0  0  0  0  0  0  0  0  0
    0.7884   10.3945   -1.1848 H   0  0  0  0  0  0  0  0  0  0  0  0
    0.4283    7.6242   -1.3922 N   0  0  0  0  0  0  0  0  0  0  0  0
   -0.2399    6.3489   -1.0966 C   0  0  2  0  0  0  0  0  0  0  0  0
    0.3360    5.6853    0.1754 C   0  0  0  0  0  0  0  0  0  0  0  0
    1.1783    6.2813    0.8408 O   0  0  0  0  0  0  0  0  0  0  0  0
   -0.1387    5.4273   -2.3185 C   0  0  0  0  0  0  0  0  0  0  0  0
    1.5937    4.9090   -2.6557 S   0  0  0  0  0  0  0  0  0  0  0  0
    1.2954    7.8112   -0.8900 H   0  0  0  0  0  0  0  0  0  0  0  0
   -1.2991    6.5387   -0.8942 H   0  0  0  0  0  0  0  0  0  0  0  0
   -0.7568    4.5441   -2.1536 H   0  0  0  0  0  0  0  0  0  0  0  0
   -0.5383    5.9377   -3.2003 H   0  0  0  0  0  0  0  0  0  0  0  0
   -0.1227    4.4584    0.6209 N   0  0  0  0  0  0  0  0  0  0  0  0
    0.4085    3.7921    1.8035 C   0  0  0  0  0  0  0  0  0  0  0  0
   -0.7199    3.9154   -0.0082 H   0  0  0  0  0  0  0  0  0  0  0  0
    1.4625    3.5349    1.6579 H   0  0  0  0  0  0  0  0  0  0  0  0
    0.3225    4.4384    2.6833 H   0  0  0  0  0  0  0  0  0  0  0  0
   -0.1505    2.8717    1.9981 H   0  0  0  0  0  0  0  0  0  0  0  0
   -5.4061    1.6229   -1.2566 C   0  0  0  0  0  0  0  0  0  0  0  0
   -5.8259    0.6754   -1.9010 O   0  0  0  0  0  0  0  0  0  0  0  0
   -6.2724    2.2607   -0.1875 C   0  0  0  0  0  0  0  0  0  0  0  0
   -6.4223    3.3193   -0.4122 H   0  0  0  0  0  0  0  0  0  0  0  0
   -7.2478    1.7675   -0.1492 H   0  0  0  0  0  0  0  0  0  0  0  0
   -5.7908    2.1664    0.7889 H   0  0  0  0  0  0  0  0  0  0  0  0
   -4.1380    2.1103   -1.4932 N   0  0  0  0  0  0  0  0  0  0  0  0
   -3.1681    1.4853   -2.4030 C   0  0  2  0  0  0  0  0  0  0  0  0
   -1.7248    1.5726   -1.8647 C   0  0  0  0  0  0  0  0  0  0  0  0
   -1.4511    2.4200   -1.0198 O   0  0  0  0  0  0  0  0  0  0  0  0
   -3.2706    2.1836   -3.7614 C   0  0  0  0  0  0  0  0  0  0  0  0
   -3.7871    2.8247   -0.8581 H   0  0  0  0  0  0  0  0  0  0  0  0
   -3.4059    0.4231   -2.5259 H   0  0  0  0  0  0  0  0  0  0  0  0
   -3.0341    3.2483   -3.6645 H   0  0  0  0  0  0  0  0  0  0  0  0
   -2.5743    1.7355   -4.4769 H   0  0  0  0  0  0  0  0  0  0  0  0
   -4.2855    2.0871   -4.1606 H   0  0  0  0  0  0  0  0  0  0  0  0
   -0.7827    0.6504   -2.2909 N   0  0  0  0  0  0  0  0  0  0  0  0
    0.6824    0.6433   -2.0754 C   0  0  2  0  0  0  0  0  0  0  0  0
    1.0610   -0.4006   -1.0057 C   0  0  0  0  0  0  0  0  0  0  0  0
    0.7798   -1.5758   -1.2056 O   0  0  0  0  0  0  0  0  0  0  0  0
    1.3627    2.0123   -1.8809 C   0  0  0  0  0  0  0  0  0  0  0  0
    1.2180    3.0063   -3.4211 S   0  0  0  0  0  0  0  0  0  0  0  0
   -1.1457   -0.0935   -2.8827 H   0  0  0  0  0  0  0  0  0  0  0  0
    1.1219    0.2515   -2.9986 H   0  0  0  0  0  0  0  0  0  0  0  0
    0.9452    2.5507   -1.0290 H   0  0  0  0  0  0  0  0  0  0  0  0
    2.4279    1.8686   -1.6742 H   0  0  0  0  0  0  0  0  0  0  0  0
    1.7029   -0.0509    0.1688 N   0  0  0  0  0  0  0  0  0  0  0  0
    1.9381   -0.9729    1.2885 C   0  0  2  0  0  0  0  0  0  0  0  0
    1.6817   -0.2910    2.6480 C   0  0  0  0  0  0  0  0  0  0  0  0
    1.6522    0.9320    2.7238 O   0  0  0  0  0  0  0  0  0  0  0  0
    3.3834   -1.4678    1.1966 C   0  0  0  0  0  0  0  0  0  0  0  0
    1.7510    0.9437    0.3892 H   0  0  0  0  0  0  0  0  0  0  0  0
    1.2596   -1.8300    1.2233 H   0  0  0  0  0  0  0  0  0  0  0  0
    4.0814   -0.6275    1.2728 H   0  0  0  0  0  0  0  0  0  0  0  0
    3.6002   -2.1754    2.0026 H   0  0  0  0  0  0  0  0  0  0  0  0
    3.5494   -1.9736    0.2399 H   0  0  0  0  0  0  0  0  0  0  0  0
    1.4684   -1.0466    3.7859 N   0  0  0  0  0  0  0  0  0  0  0  0
    1.1800   -0.4629    5.0906 C   0  0  0  0  0  0  0  0  0  0  0  0
    1.4695   -2.0580    3.6888 H   0  0  0  0  0  0  0  0  0  0  0  0
    2.0083    0.1747    5.4172 H   0  0  0  0  0  0  0  0  0  0  0  0
    0.2666    0.1400    5.0471 H   0  0  0  0  0  0  0  0  0  0  0  0
    1.0377   -1.2520    5.8355 H   0  0  0  0  0  0  0  0  0  0  0  0
  1  2  2  0  0  0  0
  1  3  1  0  0  0  0
  1  7  1  0  0  0  0
  3  4  1  0  0  0  0
  3  5  1  0  0  0  0
  3  6  1  0  0  0  0
  7  8  1  0  0  0  0
  7 13  1  0  0  0  0
  8  9  1  0  0  0  0
  8 11  1  0  0  0  0
  8 14  1  0  0  0  0
  9 10  2  0  0  0  0
  9 17  1  0  0  0  0
 11 12  1  0  0  0  0
 11 15  1  0  0  0  0
 11 16  1  0  0  0  0
 12 44  1  0  0  0  0
 17 18  1  0  0  0  0
 17 19  1  0  0  0  0
 18 20  1  0  0  0  0
 18 21  1  0  0  0  0
 18 22  1  0  0  0  0
 23 24  2  0  0  0  0
 23 25  1  0  0  0  0
 23 29  1  0  0  0  0
 25 26  1  0  0  0  0
 25 27  1  0  0  0  0
 25 28  1  0  0  0  0
 29 30  1  0  0  0  0
 29 34  1  0  0  0  0
 30 31  1  0  0  0  0
 30 33  1  0  0  0  0
 30 35  1  0  0  0  0
 31 32  2  0  0  0  0
 31 39  1  0  0  0  0
 33 36  1  0  0  0  0
 33 37  1  0  0  0  0
 33 38  1  0  0  0  0
 39 40  1  0  0  0  0
 39 45  1  0  0  0  0
 40 41  1  0  0  0  0
 40 43  1  0  0  0  0
 40 46  1  0  0  0  0
 41 42  2  0  0  0  0
 41 49  1  0  0  0  0
 43 44  1  0  0  0  0
 43 47  1  0  0  0  0
 43 48  1  0  0  0  0
 49 50  1  0  0  0  0
 49 54  1  0  0  0  0
 50 51  1  0  0  0  0
 50 53  1  0  0  0  0
 50 55  1  0  0  0  0
 51 52  2  0  0  0  0
 51 59  1  0  0  0  0
 53 56  1  0  0  0  0
 53 57  1  0  0  0  0
 53 58  1  0  0  0  0
 59 60  1  0  0  0  0
 59 61  1  0  0  0  0
 60 62  1  0  0  0  0
 60 63  1  0  0  0  0
 60 64  1  0  0  0  0
M  END
$$$$

  -OEChem-05262216053D

 64 63  0     1  0  0  0  0  0999 V2000
   -0.1392    8.6438   -2.1048 C   0  0  0  0  0  0  0  0  0  0  0  0
   -1.2561    8.5127   -2.5823 O   0  0  0  0  0  0  0  0  0  0  0  0
    0.5973    9.9639   -2.2317 C   0  0  0  0  0  0  0  0  0  0  0  0
    1.5341    9.8157   -2.7742 H   0  0  0  0  0  0  0  0  0  0  0  0
   -0.0152   10.6882   -2.7758 H   0  0  0  0  0  0  0  0  0  0  0  0
    0.8177   10.3646   -1.2394 H   0  0  0  0  0  0  0  0  0  0  0  0
    0.4491    7.5919   -1.4377 N   0  0  0  0  0  0  0  0  0  0  0  0
   -0.2268    6.3229   -1.1322 C   0  0  2  0  0  0  0  0  0  0  0  0
    0.3338    5.6659    0.1498 C   0  0  0  0  0  0  0  0  0  0  0  0
    1.1972    6.2468    0.8011 O   0  0  0  0  0  0  0  0  0  0  0  0
   -0.1222    5.3909   -2.3451 C   0  0  0  0  0  0  0  0  0  0  0  0
    1.6103    4.8634   -2.6663 S   0  0  0  0  0  0  0  0  0  0  0  0
    1.3261    7.7715   -0.9497 H   0  0  0  0  0  0  0  0  0  0  0  0
   -1.2861    6.5208   -0.9379 H   0  0  0  0  0  0  0  0  0  0  0  0
   -0.7438    4.5117   -2.1749 H   0  0  0  0  0  0  0  0  0  0  0  0
   -0.5140    5.8953   -3.2340 H   0  0  0  0  0  0  0  0  0  0  0  0
   -0.1763    4.4708    0.6254 N   0  0  0  0  0  0  0  0  0  0  0  0
    0.2867    3.8284    1.8487 C   0  0  0  0  0  0  0  0  0  0  0  0
   -0.7888    3.9332    0.0068 H   0  0  0  0  0  0  0  0  0  0  0  0
    1.2788    3.3904    1.7011 H   0  0  0  0  0  0  0  0  0  0  0  0
    0.3376    4.5485    2.6719 H   0  0  0  0  0  0  0  0  0  0  0  0
   -0.4083    3.0342    2.1370 H   0  0  0  0  0  0  0  0  0  0  0  0
   -5.2233    1.4339   -1.1352 C   0  0  0  0  0  0  0  0  0  0  0  0
   -5.4346    0.3101   -1.5616 O   0  0  0  0  0  0  0  0  0  0  0  0
   -6.1070    2.0091   -0.0446 C   0  0  0  0  0  0  0  0  0  0  0  0
   -6.5018    2.9791   -0.3566 H   0  0  0  0  0  0  0  0  0  0  0  0
   -6.9455    1.3358    0.1540 H   0  0  0  0  0  0  0  0  0  0  0  0
   -5.5310    2.1358    0.8752 H   0  0  0  0  0  0  0  0  0  0  0  0
   -4.1791    2.1846   -1.6355 N   0  0  0  0  0  0  0  0  0  0  0  0
   -3.1521    1.6593   -2.5485 C   0  0  2  0  0  0  0  0  0  0  0  0
   -1.7549    1.6158   -1.8966 C   0  0  0  0  0  0  0  0  0  0  0  0
   -1.4781    2.4237   -1.0156 O   0  0  0  0  0  0  0  0  0  0  0  0
   -3.1266    2.5564   -3.7884 C   0  0  0  0  0  0  0  0  0  0  0  0
   -3.9470    3.0287   -1.1172 H   0  0  0  0  0  0  0  0  0  0  0  0
   -3.4014    0.6409   -2.8637 H   0  0  0  0  0  0  0  0  0  0  0  0
   -2.8753    3.5865   -3.5158 H   0  0  0  0  0  0  0  0  0  0  0  0
   -2.3827    2.1966   -4.5061 H   0  0  0  0  0  0  0  0  0  0  0  0
   -4.1068    2.5545   -4.2757 H   0  0  0  0  0  0  0  0  0  0  0  0
   -0.8391    0.6612   -2.3069 N   0  0  0  0  0  0  0  0  0  0  0  0
    0.6213    0.6191   -2.0696 C   0  0  2  0  0  0  0  0  0  0  0  0
    0.9659   -0.4222   -0.9889 C   0  0  0  0  0  0  0  0  0  0  0  0
    0.9256   -1.6109   -1.2792 O   0  0  0  0  0  0  0  0  0  0  0  0
    1.3322    1.9718   -1.8704 C   0  0  0  0  0  0  0  0  0  0  0  0
    1.2314    2.9574   -3.4203 S   0  0  0  0  0  0  0  0  0  0  0  0
   -1.2042   -0.0347   -2.9529 H   0  0  0  0  0  0  0  0  0  0  0  0
    1.0637    0.2131   -2.9856 H   0  0  0  0  0  0  0  0  0  0  0  0
    0.9164    2.5279   -1.0287 H   0  0  0  0  0  0  0  0  0  0  0  0
    2.3895    1.8008   -1.6437 H   0  0  0  0  0  0  0  0  0  0  0  0
    1.3157   -0.0486    0.2958 N   0  0  0  0  0  0  0  0  0  0  0  0
    1.5094   -0.9937    1.4049 C   0  0  2  0  0  0  0  0  0  0  0  0
    0.9173   -0.4563    2.7236 C   0  0  0  0  0  0  0  0  0  0  0  0
    0.7058    0.7436    2.8567 O   0  0  0  0  0  0  0  0  0  0  0  0
    3.0111   -1.2479    1.5545 C   0  0  0  0  0  0  0  0  0  0  0  0
    1.1394    0.9226    0.5541 H   0  0  0  0  0  0  0  0  0  0  0  0
    1.0045   -1.9408    1.1866 H   0  0  0  0  0  0  0  0  0  0  0  0
    3.5364   -0.3154    1.7859 H   0  0  0  0  0  0  0  0  0  0  0  0
    3.2009   -1.9643    2.3596 H   0  0  0  0  0  0  0  0  0  0  0  0
    3.4189   -1.6569    0.6246 H   0  0  0  0  0  0  0  0  0  0  0  0
    0.6141   -1.3174    3.7622 N   0  0  0  0  0  0  0  0  0  0  0  0
    0.0107   -0.8773    5.0144 C   0  0  0  0  0  0  0  0  0  0  0  0
    0.7676   -2.3106    3.6127 H   0  0  0  0  0  0  0  0  0  0  0  0
    0.6565   -0.1497    5.5170 H   0  0  0  0  0  0  0  0  0  0  0  0
   -0.9636   -0.4135    4.8278 H   0  0  0  0  0  0  0  0  0  0  0  0
   -0.1354   -1.7298    5.6845 H   0  0  0  0  0  0  0  0  0  0  0  0
  1  2  2  0  0  0  0
  1  3  1  0  0  0  0
  1  7  1  0  0  0  0
  3  4  1  0  0  0  0
  3  5  1  0  0  0  0
  3  6  1  0  0  0  0
  7  8  1  0  0  0  0
  7 13  1  0  0  0  0
  8  9  1  0  0  0  0
  8 11  1  0  0  0  0
  8 14  1  0  0  0  0
  9 10  2  0  0  0  0
  9 17  1  0  0  0  0
 11 12  1  0  0  0  0
 11 15  1  0  0  0  0
 11 16  1  0  0  0  0
 12 44  1  0  0  0  0
 17 18  1  0  0  0  0
 17 19  1  0  0  0  0
 18 20  1  0  0  0  0
 18 21  1  0  0  0  0
 18 22  1  0  0  0  0
 23 24  2  0  0  0  0
 23 25  1  0  0  0  0
 23 29  1  0  0  0  0
 25 26  1  0  0  0  0
 25 27  1  0  0  0  0
 25 28  1  0  0  0  0
 29 30  1  0  0  0  0
 29 34  1  0  0  0  0
 30 31  1  0  0  0  0
 30 33  1  0  0  0  0
 30 35  1  0  0  0  0
 31 32  2  0  0  0  0
 31 39  1  0  0  0  0
 33 36  1  0  0  0  0
 33 37  1  0  0  0  0
 33 38  1  0  0  0  0
 39 40  1  0  0  0  0
 39 45  1  0  0  0  0
 40 41  1  0  0  0  0
 40 43  1  0  0  0  0
 40 46  1  0  0  0  0
 41 42  2  0  0  0  0
 41 49  1  0  0  0  0
 43 44  1  0  0  0  0
 43 47  1  0  0  0  0
 43 48  1  0  0  0  0
 49 50  1  0  0  0  0
 49 54  1  0  0  0  0
 50 51  1  0  0  0  0
 50 53  1  0  0  0  0
 50 55  1  0  0  0  0
 51 52  2  0  0  0  0
 51 59  1  0  0  0  0
 53 56  1  0  0  0  0
 53 57  1  0  0  0  0
 53 58  1  0  0  0  0
 59 60  1  0  0  0  0
 59 61  1  0  0  0  0
 60 62  1  0  0  0  0
 60 63  1  0  0  0  0
 60 64  1  0  0  0  0
M  END
$$$$

  -OEChem-05262216053D

 64 63  0     1  0  0  0  0  0999 V2000
    0.0093    8.6393   -2.0866 C   0  0  0  0  0  0  0  0  0  0  0  0
   -1.0914    8.5342   -2.6061 O   0  0  0  0  0  0  0  0  0  0  0  0
    0.7872    9.9358   -2.2084 C   0  0  0  0  0  0  0  0  0  0  0  0
    1.7426    9.7525   -2.7065 H   0  0  0  0  0  0  0  0  0  0  0  0
    0.2180   10.6623   -2.7953 H   0  0  0  0  0  0  0  0  0  0  0  0
    0.9750   10.3535   -1.2163 H   0  0  0  0  0  0  0  0  0  0  0  0
    0.5412    7.5795   -1.3854 N   0  0  0  0  0  0  0  0  0  0  0  0
   -0.1685    6.3201   -1.1204 C   0  0  2  0  0  0  0  0  0  0  0  0
    0.3452    5.6242    0.1612 C   0  0  0  0  0  0  0  0  0  0  0  0
    1.2176    6.1639    0.8360 O   0  0  0  0  0  0  0  0  0  0  0  0
   -0.0584    5.4081   -2.3484 C   0  0  0  0  0  0  0  0  0  0  0  0
    1.6644    4.8370   -2.6431 S   0  0  0  0  0  0  0  0  0  0  0  0
    1.4065    7.7356   -0.8696 H   0  0  0  0  0  0  0  0  0  0  0  0
   -1.2277    6.5382   -0.9489 H   0  0  0  0  0  0  0  0  0  0  0  0
   -0.7068    4.5436   -2.2089 H   0  0  0  0  0  0  0  0  0  0  0  0
   -0.4163    5.9373   -3.2370 H   0  0  0  0  0  0  0  0  0  0  0  0
   -0.2233    4.4455    0.6119 N   0  0  0  0  0  0  0  0  0  0  0  0
    0.1757    3.7725    1.8420 C   0  0  0  0  0  0  0  0  0  0  0  0
   -0.8460    3.9429   -0.0263 H   0  0  0  0  0  0  0  0  0  0  0  0
    1.0911    3.1939    1.6842 H   0  0  0  0  0  0  0  0  0  0  0  0
    0.3490    4.4934    2.6478 H   0  0  0  0  0  0  0  0  0  0  0  0
   -0.6188    3.0942    2.1650 H   0  0  0  0  0  0  0  0  0  0  0  0
   -4.8962    1.0556   -1.0234 C   0  0  0  0  0  0  0  0  0  0  0  0
   -4.6984   -0.1165   -1.3025 O   0  0  0  0  0  0  0  0  0  0  0  0
   -5.8001    1.4229    0.1378 C   0  0  0  0  0  0  0  0  0  0  0  0
   -6.6277    2.0437   -0.2139 H   0  0  0  0  0  0  0  0  0  0  0  0
   -6.2084    0.5188    0.5979 H   0  0  0  0  0  0  0  0  0  0  0  0
   -5.2330    1.9753    0.8910 H   0  0  0  0  0  0  0  0  0  0  0  0
   -4.2684    2.0490   -1.7462 N   0  0  0  0  0  0  0  0  0  0  0  0
   -3.1889    1.7624   -2.7005 C   0  0  2  0  0  0  0  0  0  0  0  0
   -1.8106    1.6728   -2.0121 C   0  0  0  0  0  0  0  0  0  0  0  0
   -1.5311    2.4697   -1.1218 O   0  0  0  0  0  0  0  0  0  0  0  0
   -3.1830    2.8720   -3.7545 C   0  0  0  0  0  0  0  0  0  0  0  0
   -4.3055    2.9822   -1.3454 H   0  0  0  0  0  0  0  0  0  0  0  0
   -3.3831    0.8118   -3.2089 H   0  0  0  0  0  0  0  0  0  0  0  0
   -2.9974    3.8456   -3.2896 H   0  0  0  0  0  0  0  0  0  0  0  0
   -2.3997    2.6880   -4.4967 H   0  0  0  0  0  0  0  0  0  0  0  0
   -4.1471    2.9099   -4.2712 H   0  0  0  0  0  0  0  0  0  0  0  0
   -0.9129    0.6901   -2.3943 N   0  0  0  0  0  0  0  0  0  0  0  0
    0.5416    0.6221   -2.1299 C   0  0  2  0  0  0  0  0  0  0  0  0
    0.8431   -0.4078   -1.0284 C   0  0  0  0  0  0  0  0  0  0  0  0
    1.0770   -1.5688   -1.3378 O   0  0  0  0  0  0  0  0  0  0  0  0
    1.2834    1.9533   -1.9096 C   0  0  0  0  0  0  0  0  0  0  0  0
    1.2448    2.9601   -3.4475 S   0  0  0  0  0  0  0  0  0  0  0  0
   -1.2845   -0.0040   -3.0389 H   0  0  0  0  0  0  0  0  0  0  0  0
    0.9929    0.2032   -3.0355 H   0  0  0  0  0  0  0  0  0  0  0  0
    0.8671    2.5127   -1.0708 H   0  0  0  0  0  0  0  0  0  0  0  0
    2.3298    1.7486   -1.6614 H   0  0  0  0  0  0  0  0  0  0  0  0
    0.8701   -0.0344    0.3022 N   0  0  0  0  0  0  0  0  0  0  0  0
    1.0040   -0.9808    1.4178 C   0  0  2  0  0  0  0  0  0  0  0  0
    0.1131   -0.5871    2.6132 C   0  0  0  0  0  0  0  0  0  0  0  0
   -0.2979    0.5624    2.7229 O   0  0  0  0  0  0  0  0  0  0  0  0
    2.4759   -1.0198    1.8358 C   0  0  0  0  0  0  0  0  0  0  0  0
    0.4694    0.8782    0.5246 H   0  0  0  0  0  0  0  0  0  0  0  0
    0.6938   -1.9818    1.0998 H   0  0  0  0  0  0  0  0  0  0  0  0
    2.8046   -0.0312    2.1729 H   0  0  0  0  0  0  0  0  0  0  0  0
    2.6245   -1.7339    2.6514 H   0  0  0  0  0  0  0  0  0  0  0  0
    3.1006   -1.3265    0.9908 H   0  0  0  0  0  0  0  0  0  0  0  0
   -0.2287   -1.5235    3.5709 N   0  0  0  0  0  0  0  0  0  0  0  0
   -1.0985   -1.2269    4.7022 C   0  0  0  0  0  0  0  0  0  0  0  0
    0.0912   -2.4778    3.4320 H   0  0  0  0  0  0  0  0  0  0  0  0
   -0.6700   -0.4282    5.3165 H   0  0  0  0  0  0  0  0  0  0  0  0
   -2.0865   -0.9108    4.3518 H   0  0  0  0  0  0  0  0  0  0  0  0
   -1.2210   -2.1153    5.3290 H   0  0  0  0  0  0  0  0  0  0  0  0
  1  2  2  0  0  0  0
  1  3  1  0  0  0  0
  1  7  1  0  0  0  0
  3  4  1  0  0  0  0
  3  5  1  0  0  0  0
  3  6  1  0  0  0  0
  7  8  1  0  0  0  0
  7 13  1  0  0  0  0
  8  9  1  0  0  0  0
  8 11  1  0  0  0  0
  8 14  1  0  0  0  0
  9 10  2  0  0  0  0
  9 17  1  0  0  0  0
 11 12  1  0  0  0  0
 11 15  1  0  0  0  0
 11 16  1  0  0  0  0
 12 44  1  0  0  0  0
 17 18  1  0  0  0  0
 17 19  1  0  0  0  0
 18 20  1  0  0  0  0
 18 21  1  0  0  0  0
 18 22  1  0  0  0  0
 23 24  2  0  0  0  0
 23 25  1  0  0  0  0
 23 29  1  0  0  0  0
 25 26  1  0  0  0  0
 25 27  1  0  0  0  0
 25 28  1  0  0  0  0
 29 30  1  0  0  0  0
 29 34  1  0  0  0  0
 30 31  1  0  0  0  0
 30 33  1  0  0  0  0
 30 35  1  0  0  0  0
 31 32  2  0  0  0  0
 31 39  1  0  0  0  0
 33 36  1  0  0  0  0
 33 37  1  0  0  0  0
 33 38  1  0  0  0  0
 39 40  1  0  0  0  0
 39 45  1  0  0  0  0
 40 41  1  0  0  0  0
 40 43  1  0  0  0  0
 40 46  1  0  0  0  0
 41 42  2  0  0  0  0
 41 49  1  0  0  0  0
 43 44  1  0  0  0  0
 43 47  1  0  0  0  0
 43 48  1  0  0  0  0
 49 50  1  0  0  0  0
 49 54  1  0  0  0  0
 50 51  1  0  0  0  0
 50 53  1  0  0  0  0
 50 55  1  0  0  0  0
 51 52  2  0  0  0  0
 51 59  1  0  0  0  0
 53 56  1  0  0  0  0
 53 57  1  0  0  0  0
 53 58  1  0  0  0  0
 59 60  1  0  0  0  0
 59 61  1  0  0  0  0
 60 62  1  0  0  0  0
 60 63  1  0  0  0  0
 60 64  1  0  0  0  0
M  END
$$$$

  -OEChem-05262216053D

 64 63  0     1  0  0  0  0  0999 V2000
    1.2883    8.8696   -2.3286 C   0  0  0  0  0  0  0  0  0  0  0  0
    0.1871    9.1382   -2.7827 O   0  0  0  0  0  0  0  0  0  0  0  0
    2.4386    9.8452   -2.4905 C   0  0  0  0  0  0  0  0  0  0  0  0
    3.2667    9.3606   -3.0133 H   0  0  0  0  0  0  0  0  0  0  0  0
    2.1159   10.7139   -3.0709 H   0  0  0  0  0  0  0  0  0  0  0  0
    2.7837   10.1836   -1.5106 H   0  0  0  0  0  0  0  0  0  0  0  0
    1.4873    7.6801   -1.6638 N   0  0  0  0  0  0  0  0  0  0  0  0
    0.4372    6.6881   -1.3902 C   0  0  2  0  0  0  0  0  0  0  0  0
    0.7694    5.8296   -0.1478 C   0  0  0  0  0  0  0  0  0  0  0  0
    1.7759    6.0705    0.5132 O   0  0  0  0  0  0  0  0  0  0  0  0
    0.2141    5.8238   -2.6394 C   0  0  0  0  0  0  0  0  0  0  0  0
    1.7287    4.8971   -3.1216 S   0  0  0  0  0  0  0  0  0  0  0  0
    2.3879    7.5340   -1.2106 H   0  0  0  0  0  0  0  0  0  0  0  0
   -0.4975    7.2110   -1.1624 H   0  0  0  0  0  0  0  0  0  0  0  0
   -0.6021    5.1220   -2.4572 H   0  0  0  0  0  0  0  0  0  0  0  0
   -0.0926    6.4606   -3.4751 H   0  0  0  0  0  0  0  0  0  0  0  0
   -0.0872    4.8357    0.2912 N   0  0  0  0  0  0  0  0  0  0  0  0
    0.1756    4.0160    1.4657 C   0  0  0  0  0  0  0  0  0  0  0  0
   -0.8192    4.5271   -0.3558 H   0  0  0  0  0  0  0  0  0  0  0  0
    1.0867    3.4254    1.3256 H   0  0  0  0  0  0  0  0  0  0  0  0
    0.2957    4.6450    2.3540 H   0  0  0  0  0  0  0  0  0  0  0  0
   -0.6615    3.3326    1.6388 H   0  0  0  0  0  0  0  0  0  0  0  0
   -3.7866   -0.7278   -1.6043 C   0  0  0  0  0  0  0  0  0  0  0  0
   -3.5343   -0.8157   -2.7967 O   0  0  0  0  0  0  0  0  0  0  0  0
   -3.8012   -1.9758   -0.7440 C   0  0  0  0  0  0  0  0  0  0  0  0
   -3.9146   -2.8635   -1.3725 H   0  0  0  0  0  0  0  0  0  0  0  0
   -2.8635   -2.0547   -0.1889 H   0  0  0  0  0  0  0  0  0  0  0  0
   -4.6342   -1.9347   -0.0387 H   0  0  0  0  0  0  0  0  0  0  0  0
   -3.8943    0.5222   -1.0305 N   0  0  0  0  0  0  0  0  0  0  0  0
   -3.6518    1.7717   -1.7755 C   0  0  2  0  0  0  0  0  0  0  0  0
   -2.1366    2.0745   -1.8701 C   0  0  0  0  0  0  0  0  0  0  0  0
   -1.6753    3.0993   -1.3811 O   0  0  0  0  0  0  0  0  0  0  0  0
   -4.4484    2.8786   -1.0731 C   0  0  0  0  0  0  0  0  0  0  0  0
   -3.7208    0.5428   -0.0210 H   0  0  0  0  0  0  0  0  0  0  0  0
   -4.0335    1.6818   -2.7983 H   0  0  0  0  0  0  0  0  0  0  0  0
   -4.0932    3.0182   -0.0468 H   0  0  0  0  0  0  0  0  0  0  0  0
   -4.3392    3.8256   -1.6107 H   0  0  0  0  0  0  0  0  0  0  0  0
   -5.5111    2.6205   -1.0419 H   0  0  0  0  0  0  0  0  0  0  0  0
   -1.3086    1.0225   -2.2205 N   0  0  0  0  0  0  0  0  0  0  0  0
    0.1596    0.9014   -2.1391 C   0  0  2  0  0  0  0  0  0  0  0  0
    0.4534   -0.0079   -0.9372 C   0  0  0  0  0  0  0  0  0  0  0  0
    0.6672   -1.2034   -1.0854 O   0  0  0  0  0  0  0  0  0  0  0  0
    1.0129    2.1807   -2.1239 C   0  0  0  0  0  0  0  0  0  0  0  0
    0.8603    3.0938   -3.7105 S   0  0  0  0  0  0  0  0  0  0  0  0
   -1.8167    0.2038   -2.5700 H   0  0  0  0  0  0  0  0  0  0  0  0
    0.4805    0.3491   -3.0287 H   0  0  0  0  0  0  0  0  0  0  0  0
    0.7378    2.8257   -1.2895 H   0  0  0  0  0  0  0  0  0  0  0  0
    2.0646    1.9118   -1.9839 H   0  0  0  0  0  0  0  0  0  0  0  0
    0.3032    0.5252    0.3308 N   0  0  0  0  0  0  0  0  0  0  0  0
    0.0859   -0.3038    1.5252 C   0  0  2  0  0  0  0  0  0  0  0  0
   -1.4120   -0.4435    1.8866 C   0  0  0  0  0  0  0  0  0  0  0  0
   -2.2633    0.2692    1.3598 O   0  0  0  0  0  0  0  0  0  0  0  0
    0.8636    0.3366    2.6773 C   0  0  0  0  0  0  0  0  0  0  0  0
   -0.1468    1.4401    0.3299 H   0  0  0  0  0  0  0  0  0  0  0  0
    0.4839   -1.3116    1.3645 H   0  0  0  0  0  0  0  0  0  0  0  0
    0.4611    1.3269    2.9118 H   0  0  0  0  0  0  0  0  0  0  0  0
    0.8000   -0.2858    3.5752 H   0  0  0  0  0  0  0  0  0  0  0  0
    1.9194    0.4437    2.4074 H   0  0  0  0  0  0  0  0  0  0  0  0
   -1.8201   -1.3816    2.8168 N   0  0  0  0  0  0  0  0  0  0  0  0
   -3.2078   -1.5619    3.2298 C   0  0  0  0  0  0  0  0  0  0  0  0
   -1.1057   -1.9741    3.2315 H   0  0  0  0  0  0  0  0  0  0  0  0
   -3.6276   -0.6189    3.5967 H   0  0  0  0  0  0  0  0  0  0  0  0
   -3.8156   -1.9151    2.3909 H   0  0  0  0  0  0  0  0  0  0  0  0
   -3.2694   -2.3005    4.0352 H   0  0  0  0  0  0  0  0  0  0  0  0
  1  2  2  0  0  0  0
  1  3  1  0  0  0  0
  1  7  1  0  0  0  0
  3  4  1  0  0  0  0
  3  5  1  0  0  0  0
  3  6  1  0  0  0  0
  7  8  1  0  0  0  0
  7 13  1  0  0  0  0
  8  9  1  0  0  0  0
  8 11  1  0  0  0  0
  8 14  1  0  0  0  0
  9 10  2  0  0  0  0
  9 17  1  0  0  0  0
 11 12  1  0  0  0  0
 11 15  1  0  0  0  0
 11 16  1  0  0  0  0
 12 44  1  0  0  0  0
 17 18  1  0  0  0  0
 17 19  1  0  0  0  0
 18 20  1  0  0  0  0
 18 21  1  0  0  0  0
 18 22  1  0  0  0  0
 23 24  2  0  0  0  0
 23 25  1  0  0  0  0
 23 29  1  0  0  0  0
 25 26  1  0  0  0  0
 25 27  1  0  0  0  0
 25 28  1  0  0  0  0
 29 30  1  0  0  0  0
 29 34  1  0  0  0  0
 30 31  1  0  0  0  0
 30 33  1  0  0  0  0
 30 35  1  0  0  0  0
 31 32  2  0  0  0  0
 31 39  1  0  0  0  0
 33 36  1  0  0  0  0
 33 37  1  0  0  0  0
 33 38  1  0  0  0  0
 39 40  1  0  0  0  0
 39 45  1  0  0  0  0
 40 41  1  0  0  0  0
 40 43  1  0  0  0  0
 40 46  1  0  0  0  0
 41 42  2  0  0  0  0
 41 49  1  0  0  0  0
 43 44  1  0  0  0  0
 43 47  1  0  0  0  0
 43 48  1  0  0  0  0
 49 50  1  0  0  0  0
 49 54  1  0  0  0  0
 50 51  1  0  0  0  0
 50 53  1  0  0  0  0
 50 55  1  0  0  0  0
 51 52  2  0  0  0  0
 51 59  1  0  0  0  0
 53 56  1  0  0  0  0
 53 57  1  0  0  0  0
 53 58  1  0  0  0  0
 59 60  1  0  0  0  0
 59 61  1  0  0  0  0
 60 62  1  0  0  0  0
 60 63  1  0  0  0  0
 60 64  1  0  0  0  0
M  END
$$$$

  -OEChem-05262216053D

 64 63  0     1  0  0  0  0  0999 V2000
    0.9872    8.7621   -2.6027 C   0  0  0  0  0  0  0  0  0  0  0  0
   -0.1782    8.9221   -2.9312 O   0  0  0  0  0  0  0  0  0  0  0  0
    2.0337    9.7961   -2.9733 C   0  0  0  0  0  0  0  0  0  0  0  0
    2.8413    9.3239   -3.5381 H   0  0  0  0  0  0  0  0  0  0  0  0
    1.5867   10.5816   -3.5886 H   0  0  0  0  0  0  0  0  0  0  0  0
    2.4476   10.2488   -2.0692 H   0  0  0  0  0  0  0  0  0  0  0  0
    1.3533    7.6441   -1.8864 N   0  0  0  0  0  0  0  0  0  0  0  0
    0.4209    6.6127   -1.4083 C   0  0  2  0  0  0  0  0  0  0  0  0
    0.9765    5.8656   -0.1734 C   0  0  0  0  0  0  0  0  0  0  0  0
    2.0442    6.2147    0.3224 O   0  0  0  0  0  0  0  0  0  0  0  0
    0.1000    5.6473   -2.5576 C   0  0  0  0  0  0  0  0  0  0  0  0
    1.5966    4.7512   -3.1430 S   0  0  0  0  0  0  0  0  0  0  0  0
    2.3123    7.5905   -1.5457 H   0  0  0  0  0  0  0  0  0  0  0  0
   -0.5107    7.0918   -1.0893 H   0  0  0  0  0  0  0  0  0  0  0  0
   -0.6514    4.9278   -2.2279 H   0  0  0  0  0  0  0  0  0  0  0  0
   -0.3339    6.2026   -3.3952 H   0  0  0  0  0  0  0  0  0  0  0  0
    0.2680    4.8412    0.4299 N   0  0  0  0  0  0  0  0  0  0  0  0
    0.7794    4.0803    1.5625 C   0  0  0  0  0  0  0  0  0  0  0  0
   -0.5361    4.4620   -0.0782 H   0  0  0  0  0  0  0  0  0  0  0  0
    1.6817    3.5286    1.2786 H   0  0  0  0  0  0  0  0  0  0  0  0
    1.0207    4.7468    2.3974 H   0  0  0  0  0  0  0  0  0  0  0  0
    0.0255    3.3640    1.9020 H   0  0  0  0  0  0  0  0  0  0  0  0
   -4.2145   -0.3864   -1.5656 C   0  0  0  0  0  0  0  0  0  0  0  0
   -3.6531   -0.5919   -2.6325 O   0  0  0  0  0  0  0  0  0  0  0  0
   -4.8444   -1.5358   -0.8029 C   0  0  0  0  0  0  0  0  0  0  0  0
   -5.9110   -1.5916   -1.0325 H   0  0  0  0  0  0  0  0  0  0  0  0
   -4.3686   -2.4781   -1.0874 H   0  0  0  0  0  0  0  0  0  0  0  0
   -4.7209   -1.3905    0.2725 H   0  0  0  0  0  0  0  0  0  0  0  0
   -4.2528    0.8982   -1.0628 N   0  0  0  0  0  0  0  0  0  0  0  0
   -3.6397    2.0553   -1.7370 C   0  0  2  0  0  0  0  0  0  0  0  0
   -2.1085    2.1073   -1.5226 C   0  0  0  0  0  0  0  0  0  0  0  0
   -1.5921    3.0094   -0.8704 O   0  0  0  0  0  0  0  0  0  0  0  0
   -4.3613    3.3139   -1.2393 C   0  0  0  0  0  0  0  0  0  0  0  0
   -4.4824    0.9817   -0.0744 H   0  0  0  0  0  0  0  0  0  0  0  0
   -3.8096    1.9828   -2.8168 H   0  0  0  0  0  0  0  0  0  0  0  0
   -4.2247    3.4366   -0.1602 H   0  0  0  0  0  0  0  0  0  0  0  0
   -3.9661    4.2024   -1.7427 H   0  0  0  0  0  0  0  0  0  0  0  0
   -5.4331    3.2462   -1.4504 H   0  0  0  0  0  0  0  0  0  0  0  0
   -1.3634    0.9949   -1.8661 N   0  0  0  0  0  0  0  0  0  0  0  0
    0.1034    0.8149   -1.8752 C   0  0  2  0  0  0  0  0  0  0  0  0
    0.4626   -0.0337   -0.6497 C   0  0  0  0  0  0  0  0  0  0  0  0
    0.9177   -1.1645   -0.7625 O   0  0  0  0  0  0  0  0  0  0  0  0
    0.9856    2.0694   -1.9777 C   0  0  0  0  0  0  0  0  0  0  0  0
    0.7378    2.9050   -3.5952 S   0  0  0  0  0  0  0  0  0  0  0  0
   -1.9194    0.2540   -2.3070 H   0  0  0  0  0  0  0  0  0  0  0  0
    0.3462    0.2077   -2.7539 H   0  0  0  0  0  0  0  0  0  0  0  0
    0.7903    2.7578   -1.1558 H   0  0  0  0  0  0  0  0  0  0  0  0
    2.0381    1.7785   -1.9013 H   0  0  0  0  0  0  0  0  0  0  0  0
    0.1303    0.4679    0.5954 N   0  0  0  0  0  0  0  0  0  0  0  0
   -0.0729   -0.4190    1.7446 C   0  0  2  0  0  0  0  0  0  0  0  0
   -1.4625   -1.0935    1.7082 C   0  0  0  0  0  0  0  0  0  0  0  0
   -2.4567   -0.4623    1.3564 O   0  0  0  0  0  0  0  0  0  0  0  0
    0.0871    0.4120    3.0188 C   0  0  0  0  0  0  0  0  0  0  0  0
   -0.4647    1.2959    0.5477 H   0  0  0  0  0  0  0  0  0  0  0  0
    0.6933   -1.2014    1.7488 H   0  0  0  0  0  0  0  0  0  0  0  0
   -0.6734    1.1985    3.0633 H   0  0  0  0  0  0  0  0  0  0  0  0
   -0.0192   -0.2238    3.9034 H   0  0  0  0  0  0  0  0  0  0  0  0
    1.0766    0.8792    3.0453 H   0  0  0  0  0  0  0  0  0  0  0  0
   -1.5962   -2.4130    2.0986 N   0  0  0  0  0  0  0  0  0  0  0  0
   -2.8467   -3.1563    2.0147 C   0  0  0  0  0  0  0  0  0  0  0  0
   -0.7369   -2.9307    2.2635 H   0  0  0  0  0  0  0  0  0  0  0  0
   -3.6643   -2.5927    2.4765 H   0  0  0  0  0  0  0  0  0  0  0  0
   -3.1004   -3.3583    0.9694 H   0  0  0  0  0  0  0  0  0  0  0  0
   -2.7524   -4.1120    2.5397 H   0  0  0  0  0  0  0  0  0  0  0  0
  1  2  2  0  0  0  0
  1  3  1  0  0  0  0
  1  7  1  0  0  0  0
  3  4  1  0  0  0  0
  3  5  1  0  0  0  0
  3  6  1  0  0  0  0
  7  8  1  0  0  0  0
  7 13  1  0  0  0  0
  8  9  1  0  0  0  0
  8 11  1  0  0  0  0
  8 14  1  0  0  0  0
  9 10  2  0  0  0  0
  9 17  1  0  0  0  0
 11 12  1  0  0  0  0
 11 15  1  0  0  0  0
 11 16  1  0  0  0  0
 12 44  1  0  0  0  0
 17 18  1  0  0  0  0
 17 19  1  0  0  0  0
 18 20  1  0  0  0  0
 18 21  1  0  0  0  0
 18 22  1  0  0  0  0
 23 24  2  0  0  0  0
 23 25  1  0  0  0  0
 23 29  1  0  0  0  0
 25 26  1  0  0  0  0
 25 27  1  0  0  0  0
 25 28  1  0  0  0  0
 29 30  1  0  0  0  0
 29 34  1  0  0  0  0
 30 31  1  0  0  0  0
 30 33  1  0  0  0  0
 30 35  1  0  0  0  0
 31 32  2  0  0  0  0
 31 39  1  0  0  0  0
 33 36  1  0  0  0  0
 33 37  1  0  0  0  0
 33 38  1  0  0  0  0
 39 40  1  0  0  0  0
 39 45  1  0  0  0  0
 40 41  1  0  0  0  0
 40 43  1  0  0  0  0
 40 46  1  0  0  0  0
 41 42  2  0  0  0  0
 41 49  1  0  0  0  0
 43 44  1  0  0  0  0
 43 47  1  0  0  0  0
 43 48  1  0  0  0  0
 49 50  1  0  0  0  0
 49 54  1  0  0  0  0
 50 51  1  0  0  0  0
 50 53  1  0  0  0  0
 50 55  1  0  0  0  0
 51 52  2  0  0  0  0
 51 59  1  0  0  0  0
 53 56  1  0  0  0  0
 53 57  1  0  0  0  0
 53 58  1  0  0  0  0
 59 60  1  0  0  0  0
 59 61  1  0  0  0  0
 60 62  1  0  0  0  0
 60 63  1  0  0  0  0
 60 64  1  0  0  0  0
M  END
$$$$

  -OEChem-05262216053D

 64 63  0     1  0  0  0  0  0999 V2000
    0.8429    8.7646   -2.3809 C   0  0  0  0  0  0  0  0  0  0  0  0
   -0.3297    8.9003   -2.6944 O   0  0  0  0  0  0  0  0  0  0  0  0
    1.8514    9.8480   -2.7135 C   0  0  0  0  0  0  0  0  0  0  0  0
    2.6927    9.4184   -3.2629 H   0  0  0  0  0  0  0  0  0  0  0  0
    1.3846   10.6197   -3.3320 H   0  0  0  0  0  0  0  0  0  0  0  0
    2.2224   10.3080   -1.7945 H   0  0  0  0  0  0  0  0  0  0  0  0
    1.2508    7.6274   -1.7197 N   0  0  0  0  0  0  0  0  0  0  0  0
    0.3570    6.5414   -1.2923 C   0  0  2  0  0  0  0  0  0  0  0  0
    0.9455    5.7505   -0.1004 C   0  0  0  0  0  0  0  0  0  0  0  0
    2.0102    6.1022    0.4001 O   0  0  0  0  0  0  0  0  0  0  0  0
    0.0597    5.6292   -2.4917 C   0  0  0  0  0  0  0  0  0  0  0  0
    1.5732    4.7872   -3.1141 S   0  0  0  0  0  0  0  0  0  0  0  0
    2.2128    7.5897   -1.3855 H   0  0  0  0  0  0  0  0  0  0  0  0
   -0.5871    6.9727   -0.9436 H   0  0  0  0  0  0  0  0  0  0  0  0
   -0.6811    4.8822   -2.2036 H   0  0  0  0  0  0  0  0  0  0  0  0
   -0.3792    6.2182   -3.3032 H   0  0  0  0  0  0  0  0  0  0  0  0
    0.2691    4.6817    0.4611 N   0  0  0  0  0  0  0  0  0  0  0  0
    0.8221    3.8671    1.5350 C   0  0  0  0  0  0  0  0  0  0  0  0
   -0.5330    4.3100   -0.0556 H   0  0  0  0  0  0  0  0  0  0  0  0
    1.7377    3.3668    1.2030 H   0  0  0  0  0  0  0  0  0  0  0  0
    1.0532    4.4862    2.4081 H   0  0  0  0  0  0  0  0  0  0  0  0
    0.0990    3.1035    1.8369 H   0  0  0  0  0  0  0  0  0  0  0  0
   -4.1923   -0.4184   -1.9664 C   0  0  0  0  0  0  0  0  0  0  0  0
   -3.5840   -0.5342   -3.0209 O   0  0  0  0  0  0  0  0  0  0  0  0
   -4.8420   -1.6305   -1.3269 C   0  0  0  0  0  0  0  0  0  0  0  0
   -5.8680   -1.7330   -1.6876 H   0  0  0  0  0  0  0  0  0  0  0  0
   -4.2804   -2.5328   -1.5826 H   0  0  0  0  0  0  0  0  0  0  0  0
   -4.8584   -1.5247   -0.2400 H   0  0  0  0  0  0  0  0  0  0  0  0
   -4.2510    0.8193   -1.3590 N   0  0  0  0  0  0  0  0  0  0  0  0
   -3.6202    2.0314   -1.9104 C   0  0  2  0  0  0  0  0  0  0  0  0
   -2.0980    2.0726   -1.6340 C   0  0  0  0  0  0  0  0  0  0  0  0
   -1.6074    2.9379   -0.9166 O   0  0  0  0  0  0  0  0  0  0  0  0
   -4.3698    3.2390   -1.3340 C   0  0  0  0  0  0  0  0  0  0  0  0
   -4.5102    0.8164   -0.3742 H   0  0  0  0  0  0  0  0  0  0  0  0
   -3.7486    2.0495   -2.9982 H   0  0  0  0  0  0  0  0  0  0  0  0
   -4.2788    3.2665   -0.2434 H   0  0  0  0  0  0  0  0  0  0  0  0
   -3.9611    4.1698   -1.7400 H   0  0  0  0  0  0  0  0  0  0  0  0
   -5.4312    3.1867   -1.5947 H   0  0  0  0  0  0  0  0  0  0  0  0
   -1.3417    0.9696   -1.9811 N   0  0  0  0  0  0  0  0  0  0  0  0
    0.1282    0.7931   -1.9850 C   0  0  2  0  0  0  0  0  0  0  0  0
    0.5020   -0.0643   -0.7674 C   0  0  0  0  0  0  0  0  0  0  0  0
    1.1948   -1.0662   -0.8805 O   0  0  0  0  0  0  0  0  0  0  0  0
    0.9972    2.0584   -2.0496 C   0  0  0  0  0  0  0  0  0  0  0  0
    0.7573    2.9406   -3.6431 S   0  0  0  0  0  0  0  0  0  0  0  0
   -1.8821    0.2654   -2.4956 H   0  0  0  0  0  0  0  0  0  0  0  0
    0.3815    0.2041   -2.8726 H   0  0  0  0  0  0  0  0  0  0  0  0
    0.7873    2.7205   -1.2108 H   0  0  0  0  0  0  0  0  0  0  0  0
    2.0520    1.7758   -1.9707 H   0  0  0  0  0  0  0  0  0  0  0  0
   -0.0911    0.2508    0.4413 N   0  0  0  0  0  0  0  0  0  0  0  0
   -0.2957   -0.7269    1.5137 C   0  0  2  0  0  0  0  0  0  0  0  0
   -1.7099   -1.3443    1.4527 C   0  0  0  0  0  0  0  0  0  0  0  0
   -2.6579   -0.6956    1.0150 O   0  0  0  0  0  0  0  0  0  0  0  0
   -0.0816   -0.0052    2.8452 C   0  0  0  0  0  0  0  0  0  0  0  0
   -0.7916    0.9899    0.3641 H   0  0  0  0  0  0  0  0  0  0  0  0
    0.4367   -1.5371    1.4365 H   0  0  0  0  0  0  0  0  0  0  0  0
   -0.8042    0.8095    2.9610 H   0  0  0  0  0  0  0  0  0  0  0  0
   -0.2038   -0.6997    3.6821 H   0  0  0  0  0  0  0  0  0  0  0  0
    0.9282    0.4146    2.8885 H   0  0  0  0  0  0  0  0  0  0  0  0
   -1.9255   -2.6286    1.9170 N   0  0  0  0  0  0  0  0  0  0  0  0
   -3.2146   -3.3052    1.8474 C   0  0  0  0  0  0  0  0  0  0  0  0
   -1.1095   -3.1632    2.2035 H   0  0  0  0  0  0  0  0  0  0  0  0
   -4.0006   -2.6848    2.2909 H   0  0  0  0  0  0  0  0  0  0  0  0
   -3.4774   -3.5200    0.8066 H   0  0  0  0  0  0  0  0  0  0  0  0
   -3.1744   -4.2504    2.3975 H   0  0  0  0  0  0  0  0  0  0  0  0
  1  2  2  0  0  0  0
  1  3  1  0  0  0  0
  1  7  1  0  0  0  0
  3  4  1  0  0  0  0
  3  5  1  0  0  0  0
  3  6  1  0  0  0  0
  7  8  1  0  0  0  0
  7 13  1  0  0  0  0
  8  9  1  0  0  0  0
  8 11  1  0  0  0  0
  8 14  1  0  0  0  0
  9 10  2  0  0  0  0
  9 17  1  0  0  0  0
 11 12  1  0  0  0  0
 11 15  1  0  0  0  0
 11 16  1  0  0  0  0
 12 44  1  0  0  0  0
 17 18  1  0  0  0  0
 17 19  1  0  0  0  0
 18 20  1  0  0  0  0
 18 21  1  0  0  0  0
 18 22  1  0  0  0  0
 23 24  2  0  0  0  0
 23 25  1  0  0  0  0
 23 29  1  0  0  0  0
 25 26  1  0  0  0  0
 25 27  1  0  0  0  0
 25 28  1  0  0  0  0
 29 30  1  0  0  0  0
 29 34  1  0  0  0  0
 30 31  1  0  0  0  0
 30 33  1  0  0  0  0
 30 35  1  0  0  0  0
 31 32  2  0  0  0  0
 31 39  1  0  0  0  0
 33 36  1  0  0  0  0
 33 37  1  0  0  0  0
 33 38  1  0  0  0  0
 39 40  1  0  0  0  0
 39 45  1  0  0  0  0
 40 41  1  0  0  0  0
 40 43  1  0  0  0  0
 40 46  1  0  0  0  0
 41 42  2  0  0  0  0
 41 49  1  0  0  0  0
 43 44  1  0  0  0  0
 43 47  1  0  0  0  0
 43 48  1  0  0  0  0
 49 50  1  0  0  0  0
 49 54  1  0  0  0  0
 50 51  1  0  0  0  0
 50 53  1  0  0  0  0
 50 55  1  0  0  0  0
 51 52  2  0  0  0  0
 51 59  1  0  0  0  0
 53 56  1  0  0  0  0
 53 57  1  0  0  0  0
 53 58  1  0  0  0  0
 59 60  1  0  0  0  0
 59 61  1  0  0  0  0
 60 62  1  0  0  0  0
 60 63  1  0  0  0  0
 60 64  1  0  0  0  0
M  END
$$$$

  -OEChem-05262216053D

 64 63  0     1  0  0  0  0  0999 V2000
   -0.1587    8.5546   -1.9324 C   0  0  0  0  0  0  0  0  0  0  0  0
   -1.3180    8.4547   -2.3037 O   0  0  0  0  0  0  0  0  0  0  0  0
    0.5921    9.8595   -2.1180 C   0  0  0  0  0  0  0  0  0  0  0  0
    1.4776    9.6957   -2.7370 H   0  0  0  0  0  0  0  0  0  0  0  0
   -0.0497   10.5961   -2.6091 H   0  0  0  0  0  0  0  0  0  0  0  0
    0.9019   10.2534   -1.1470 H   0  0  0  0  0  0  0  0  0  0  0  0
    0.4641    7.4813   -1.3347 N   0  0  0  0  0  0  0  0  0  0  0  0
   -0.1995    6.2103   -1.0108 C   0  0  2  0  0  0  0  0  0  0  0  0
    0.4843    5.4900    0.1743 C   0  0  0  0  0  0  0  0  0  0  0  0
    1.4260    6.0259    0.7515 O   0  0  0  0  0  0  0  0  0  0  0  0
   -0.2451    5.3280   -2.2660 C   0  0  0  0  0  0  0  0  0  0  0  0
    1.4340    4.8244   -2.8247 S   0  0  0  0  0  0  0  0  0  0  0  0
    1.3908    7.6303   -0.9370 H   0  0  0  0  0  0  0  0  0  0  0  0
   -1.2278    6.4157   -0.6959 H   0  0  0  0  0  0  0  0  0  0  0  0
   -0.8390    4.4379   -2.0569 H   0  0  0  0  0  0  0  0  0  0  0  0
   -0.7453    5.8652   -3.0779 H   0  0  0  0  0  0  0  0  0  0  0  0
    0.0196    4.2740    0.6449 N   0  0  0  0  0  0  0  0  0  0  0  0
    0.6700    3.5368    1.7204 C   0  0  0  0  0  0  0  0  0  0  0  0
   -0.6722    3.7787    0.0761 H   0  0  0  0  0  0  0  0  0  0  0  0
    1.7082    3.3097    1.4571 H   0  0  0  0  0  0  0  0  0  0  0  0
    0.6601    4.1207    2.6467 H   0  0  0  0  0  0  0  0  0  0  0  0
    0.1441    2.5940    1.9003 H   0  0  0  0  0  0  0  0  0  0  0  0
   -5.5081    1.6298   -1.4742 C   0  0  0  0  0  0  0  0  0  0  0  0
   -5.9138    0.8873   -2.3540 O   0  0  0  0  0  0  0  0  0  0  0  0
   -6.4282    2.0444   -0.3421 C   0  0  0  0  0  0  0  0  0  0  0  0
   -6.5868    3.1253   -0.3670 H   0  0  0  0  0  0  0  0  0  0  0  0
   -7.3949    1.5428   -0.4410 H   0  0  0  0  0  0  0  0  0  0  0  0
   -5.9860    1.7687    0.6183 H   0  0  0  0  0  0  0  0  0  0  0  0
   -4.2075    2.0881   -1.5044 N   0  0  0  0  0  0  0  0  0  0  0  0
   -3.1939    1.6207   -2.4592 C   0  0  2  0  0  0  0  0  0  0  0  0
   -1.7905    1.5604   -1.8258 C   0  0  0  0  0  0  0  0  0  0  0  0
   -1.5090    2.3074   -0.8934 O   0  0  0  0  0  0  0  0  0  0  0  0
   -3.1871    2.5643   -3.6649 C   0  0  0  0  0  0  0  0  0  0  0  0
   -3.8825    2.6215   -0.7004 H   0  0  0  0  0  0  0  0  0  0  0  0
   -3.4457    0.6090   -2.7964 H   0  0  0  0  0  0  0  0  0  0  0  0
   -2.9513    3.5867   -3.3528 H   0  0  0  0  0  0  0  0  0  0  0  0
   -2.4410    2.2438   -4.3986 H   0  0  0  0  0  0  0  0  0  0  0  0
   -4.1691    2.5664   -4.1488 H   0  0  0  0  0  0  0  0  0  0  0  0
   -0.9014    0.5728   -2.2101 N   0  0  0  0  0  0  0  0  0  0  0  0
    0.5791    0.5825   -2.0996 C   0  0  2  0  0  0  0  0  0  0  0  0
    1.0343   -0.3207   -0.9408 C   0  0  0  0  0  0  0  0  0  0  0  0
    2.0633   -0.9756   -1.0296 O   0  0  0  0  0  0  0  0  0  0  0  0
    1.2497    1.9612   -2.0012 C   0  0  0  0  0  0  0  0  0  0  0  0
    0.9934    2.9182   -3.5490 S   0  0  0  0  0  0  0  0  0  0  0  0
   -1.2825   -0.0792   -2.8924 H   0  0  0  0  0  0  0  0  0  0  0  0
    0.9722    0.1205   -3.0113 H   0  0  0  0  0  0  0  0  0  0  0  0
    0.8851    2.5161   -1.1375 H   0  0  0  0  0  0  0  0  0  0  0  0
    2.3271    1.8293   -1.8565 H   0  0  0  0  0  0  0  0  0  0  0  0
    0.2004   -0.4731    0.1489 N   0  0  0  0  0  0  0  0  0  0  0  0
    0.2035   -1.6445    1.0311 C   0  0  2  0  0  0  0  0  0  0  0  0
   -1.1349   -2.4068    0.9260 C   0  0  0  0  0  0  0  0  0  0  0  0
   -2.1080   -1.8724    0.4021 O   0  0  0  0  0  0  0  0  0  0  0  0
    0.4409   -1.1517    2.4600 C   0  0  0  0  0  0  0  0  0  0  0  0
   -0.6985    0.0013    0.0484 H   0  0  0  0  0  0  0  0  0  0  0  0
    1.0054   -2.3373    0.7549 H   0  0  0  0  0  0  0  0  0  0  0  0
   -0.3565   -0.4670    2.7669 H   0  0  0  0  0  0  0  0  0  0  0  0
    0.4652   -1.9934    3.1586 H   0  0  0  0  0  0  0  0  0  0  0  0
    1.3977   -0.6233    2.5221 H   0  0  0  0  0  0  0  0  0  0  0  0
   -1.2503   -3.6952    1.4131 N   0  0  0  0  0  0  0  0  0  0  0  0
   -2.4777   -4.4766    1.3198 C   0  0  0  0  0  0  0  0  0  0  0  0
   -0.4215   -4.1255    1.8134 H   0  0  0  0  0  0  0  0  0  0  0  0
   -3.3012   -3.9571    1.8211 H   0  0  0  0  0  0  0  0  0  0  0  0
   -2.7503   -4.6388    0.2714 H   0  0  0  0  0  0  0  0  0  0  0  0
   -2.3438   -5.4519    1.7980 H   0  0  0  0  0  0  0  0  0  0  0  0
  1  2  2  0  0  0  0
  1  3  1  0  0  0  0
  1  7  1  0  0  0  0
  3  4  1  0  0  0  0
  3  5  1  0  0  0  0
  3  6  1  0  0  0  0
  7  8  1  0  0  0  0
  7 13  1  0  0  0  0
  8  9  1  0  0  0  0
  8 11  1  0  0  0  0
  8 14  1  0  0  0  0
  9 10  2  0  0  0  0
  9 17  1  0  0  0  0
 11 12  1  0  0  0  0
 11 15  1  0  0  0  0
 11 16  1  0  0  0  0
 12 44  1  0  0  0  0
 17 18  1  0  0  0  0
 17 19  1  0  0  0  0
 18 20  1  0  0  0  0
 18 21  1  0  0  0  0
 18 22  1  0  0  0  0
 23 24  2  0  0  0  0
 23 25  1  0  0  0  0
 23 29  1  0  0  0  0
 25 26  1  0  0  0  0
 25 27  1  0  0  0  0
 25 28  1  0  0  0  0
 29 30  1  0  0  0  0
 29 34  1  0  0  0  0
 30 31  1  0  0  0  0
 30 33  1  0  0  0  0
 30 35  1  0  0  0  0
 31 32  2  0  0  0  0
 31 39  1  0  0  0  0
 33 36  1  0  0  0  0
 33 37  1  0  0  0  0
 33 38  1  0  0  0  0
 39 40  1  0  0  0  0
 39 45  1  0  0  0  0
 40 41  1  0  0  0  0
 40 43  1  0  0  0  0
 40 46  1  0  0  0  0
 41 42  2  0  0  0  0
 41 49  1  0  0  0  0
 43 44  1  0  0  0  0
 43 47  1  0  0  0  0
 43 48  1  0  0  0  0
 49 50  1  0  0  0  0
 49 54  1  0  0  0  0
 50 51  1  0  0  0  0
 50 53  1  0  0  0  0
 50 55  1  0  0  0  0
 51 52  2  0  0  0  0
 51 59  1  0  0  0  0
 53 56  1  0  0  0  0
 53 57  1  0  0  0  0
 53 58  1  0  0  0  0
 59 60  1  0  0  0  0
 59 61  1  0  0  0  0
 60 62  1  0  0  0  0
 60 63  1  0  0  0  0
 60 64  1  0  0  0  0
M  END
$$$$

  -OEChem-05262216053D

 64 63  0     1  0  0  0  0  0999 V2000
   -0.2609    8.5372   -1.9677 C   0  0  0  0  0  0  0  0  0  0  0  0
   -1.4165    8.4096   -2.3424 O   0  0  0  0  0  0  0  0  0  0  0  0
    0.4714    9.8481   -2.1823 C   0  0  0  0  0  0  0  0  0  0  0  0
    1.3517    9.6846   -2.8087 H   0  0  0  0  0  0  0  0  0  0  0  0
   -0.1846   10.5693   -2.6775 H   0  0  0  0  0  0  0  0  0  0  0  0
    0.7880   10.2611   -1.2215 H   0  0  0  0  0  0  0  0  0  0  0  0
    0.3771    7.4880   -1.3439 N   0  0  0  0  0  0  0  0  0  0  0  0
   -0.2629    6.2099   -1.0020 C   0  0  2  0  0  0  0  0  0  0  0  0
    0.4318    5.5211    0.1957 C   0  0  0  0  0  0  0  0  0  0  0  0
    1.3477    6.0930    0.7798 O   0  0  0  0  0  0  0  0  0  0  0  0
   -0.2873    5.3085   -2.2441 C   0  0  0  0  0  0  0  0  0  0  0  0
    1.4011    4.8019   -2.7693 S   0  0  0  0  0  0  0  0  0  0  0  0
    1.2991    7.6612   -0.9453 H   0  0  0  0  0  0  0  0  0  0  0  0
   -1.2960    6.4000   -0.6937 H   0  0  0  0  0  0  0  0  0  0  0  0
   -0.8810    4.4196   -2.0300 H   0  0  0  0  0  0  0  0  0  0  0  0
   -0.7773    5.8311   -3.0718 H   0  0  0  0  0  0  0  0  0  0  0  0
    0.0075    4.2898    0.6644 N   0  0  0  0  0  0  0  0  0  0  0  0
    0.6837    3.5724    1.7376 C   0  0  0  0  0  0  0  0  0  0  0  0
   -0.6653    3.7711    0.0937 H   0  0  0  0  0  0  0  0  0  0  0  0
    1.7257    3.3712    1.4676 H   0  0  0  0  0  0  0  0  0  0  0  0
    0.6639    4.1571    2.6632 H   0  0  0  0  0  0  0  0  0  0  0  0
    0.1848    2.6162    1.9224 H   0  0  0  0  0  0  0  0  0  0  0  0
   -5.5609    2.0480   -1.4948 C   0  0  0  0  0  0  0  0  0  0  0  0
   -6.0315    1.2417   -2.2805 O   0  0  0  0  0  0  0  0  0  0  0  0
   -6.4486    2.7038   -0.4538 C   0  0  0  0  0  0  0  0  0  0  0  0
   -6.4411    3.7883   -0.5859 H   0  0  0  0  0  0  0  0  0  0  0  0
   -7.4768    2.3447   -0.5556 H   0  0  0  0  0  0  0  0  0  0  0  0
   -6.0888    2.4626    0.5496 H   0  0  0  0  0  0  0  0  0  0  0  0
   -4.2151    2.3483   -1.5418 N   0  0  0  0  0  0  0  0  0  0  0  0
   -3.2468    1.6660   -2.4119 C   0  0  2  0  0  0  0  0  0  0  0  0
   -1.8487    1.5689   -1.7677 C   0  0  0  0  0  0  0  0  0  0  0  0
   -1.5547    2.3084   -0.8333 O   0  0  0  0  0  0  0  0  0  0  0  0
   -3.1615    2.4314   -3.7356 C   0  0  0  0  0  0  0  0  0  0  0  0
   -3.8432    2.9492   -0.8089 H   0  0  0  0  0  0  0  0  0  0  0  0
   -3.5876    0.6432   -2.6093 H   0  0  0  0  0  0  0  0  0  0  0  0
   -2.8176    3.4569   -3.5668 H   0  0  0  0  0  0  0  0  0  0  0  0
   -2.4636    1.9396   -4.4203 H   0  0  0  0  0  0  0  0  0  0  0  0
   -4.1451    2.4686   -4.2146 H   0  0  0  0  0  0  0  0  0  0  0  0
   -0.9723    0.5781   -2.1768 N   0  0  0  0  0  0  0  0  0  0  0  0
    0.5082    0.5595   -2.0520 C   0  0  2  0  0  0  0  0  0  0  0  0
    0.9652   -0.3854   -0.9243 C   0  0  0  0  0  0  0  0  0  0  0  0
    2.1107   -0.8136   -0.9068 O   0  0  0  0  0  0  0  0  0  0  0  0
    1.1990    1.9290   -1.9396 C   0  0  0  0  0  0  0  0  0  0  0  0
    0.9676    2.8919   -3.4890 S   0  0  0  0  0  0  0  0  0  0  0  0
   -1.3582   -0.0467   -2.8820 H   0  0  0  0  0  0  0  0  0  0  0  0
    0.8938    0.1103   -2.9730 H   0  0  0  0  0  0  0  0  0  0  0  0
    0.8366    2.4852   -1.0760 H   0  0  0  0  0  0  0  0  0  0  0  0
    2.2735    1.7833   -1.7873 H   0  0  0  0  0  0  0  0  0  0  0  0
    0.0480   -0.8309    0.0071 N   0  0  0  0  0  0  0  0  0  0  0  0
    0.1871   -2.0833    0.7598 C   0  0  2  0  0  0  0  0  0  0  0  0
   -0.9237   -3.0842    0.3724 C   0  0  0  0  0  0  0  0  0  0  0  0
   -1.8744   -2.7145   -0.3105 O   0  0  0  0  0  0  0  0  0  0  0  0
    0.1225   -1.7442    2.2503 C   0  0  0  0  0  0  0  0  0  0  0  0
   -0.9091   -0.5330   -0.1801 H   0  0  0  0  0  0  0  0  0  0  0  0
    1.1499   -2.5598    0.5474 H   0  0  0  0  0  0  0  0  0  0  0  0
   -0.8444   -1.2961    2.5005 H   0  0  0  0  0  0  0  0  0  0  0  0
    0.2558   -2.6458    2.8554 H   0  0  0  0  0  0  0  0  0  0  0  0
    0.9137   -1.0341    2.5108 H   0  0  0  0  0  0  0  0  0  0  0  0
   -0.8591   -4.4014    0.7878 N   0  0  0  0  0  0  0  0  0  0  0  0
   -1.8748   -5.3959    0.4628 C   0  0  0  0  0  0  0  0  0  0  0  0
   -0.0534   -4.6835    1.3387 H   0  0  0  0  0  0  0  0  0  0  0  0
   -2.8486   -5.0951    0.8640 H   0  0  0  0  0  0  0  0  0  0  0  0
   -1.9622   -5.5164   -0.6224 H   0  0  0  0  0  0  0  0  0  0  0  0
   -1.6069   -6.3642    0.8970 H   0  0  0  0  0  0  0  0  0  0  0  0
  1  2  2  0  0  0  0
  1  3  1  0  0  0  0
  1  7  1  0  0  0  0
  3  4  1  0  0  0  0
  3  5  1  0  0  0  0
  3  6  1  0  0  0  0
  7  8  1  0  0  0  0
  7 13  1  0  0  0  0
  8  9  1  0  0  0  0
  8 11  1  0  0  0  0
  8 14  1  0  0  0  0
  9 10  2  0  0  0  0
  9 17  1  0  0  0  0
 11 12  1  0  0  0  0
 11 15  1  0  0  0  0
 11 16  1  0  0  0  0
 12 44  1  0  0  0  0
 17 18  1  0  0  0  0
 17 19  1  0  0  0  0
 18 20  1  0  0  0  0
 18 21  1  0  0  0  0
 18 22  1  0  0  0  0
 23 24  2  0  0  0  0
 23 25  1  0  0  0  0
 23 29  1  0  0  0  0
 25 26  1  0  0  0  0
 25 27  1  0  0  0  0
 25 28  1  0  0  0  0
 29 30  1  0  0  0  0
 29 34  1  0  0  0  0
 30 31  1  0  0  0  0
 30 33  1  0  0  0  0
 30 35  1  0  0  0  0
 31 32  2  0  0  0  0
 31 39  1  0  0  0  0
 33 36  1  0  0  0  0
 33 37  1  0  0  0  0
 33 38  1  0  0  0  0
 39 40  1  0  0  0  0
 39 45  1  0  0  0  0
 40 41  1  0  0  0  0
 40 43  1  0  0  0  0
 40 46  1  0  0  0  0
 41 42  2  0  0  0  0
 41 49  1  0  0  0  0
 43 44  1  0  0  0  0
 43 47  1  0  0  0  0
 43 48  1  0  0  0  0
 49 50  1  0  0  0  0
 49 54  1  0  0  0  0
 50 51  1  0  0  0  0
 50 53  1  0  0  0  0
 50 55  1  0  0  0  0
 51 52  2  0  0  0  0
 51 59  1  0  0  0  0
 53 56  1  0  0  0  0
 53 57  1  0  0  0  0
 53 58  1  0  0  0  0
 59 60  1  0  0  0  0
 59 61  1  0  0  0  0
 60 62  1  0  0  0  0
 60 63  1  0  0  0  0
 60 64  1  0  0  0  0
M  END
$$$$

  -OEChem-05262216053D

 64 63  0     1  0  0  0  0  0999 V2000
   -0.2581    8.5151   -2.0321 C   0  0  0  0  0  0  0  0  0  0  0  0
   -1.4110    8.3818   -2.4130 O   0  0  0  0  0  0  0  0  0  0  0  0
    0.4698    9.8280   -2.2466 C   0  0  0  0  0  0  0  0  0  0  0  0
    1.3430    9.6698   -2.8842 H   0  0  0  0  0  0  0  0  0  0  0  0
   -0.1929   10.5519   -2.7288 H   0  0  0  0  0  0  0  0  0  0  0  0
    0.7964   10.2346   -1.2864 H   0  0  0  0  0  0  0  0  0  0  0  0
    0.3776    7.4736   -1.3935 N   0  0  0  0  0  0  0  0  0  0  0  0
   -0.2682    6.2044   -1.0318 C   0  0  2  0  0  0  0  0  0  0  0  0
    0.4180    5.5369    0.1821 C   0  0  0  0  0  0  0  0  0  0  0  0
    1.3291    6.1204    0.7623 O   0  0  0  0  0  0  0  0  0  0  0  0
   -0.2880    5.2799   -2.2564 C   0  0  0  0  0  0  0  0  0  0  0  0
    1.4022    4.7614   -2.7631 S   0  0  0  0  0  0  0  0  0  0  0  0
    1.2931    7.6556   -0.9836 H   0  0  0  0  0  0  0  0  0  0  0  0
   -1.3024    6.4030   -0.7325 H   0  0  0  0  0  0  0  0  0  0  0  0
   -0.8839    4.3965   -2.0276 H   0  0  0  0  0  0  0  0  0  0  0  0
   -0.7735    5.7866   -3.0964 H   0  0  0  0  0  0  0  0  0  0  0  0
   -0.0066    4.3120    0.6663 N   0  0  0  0  0  0  0  0  0  0  0  0
    0.6704    3.6086    1.7474 C   0  0  0  0  0  0  0  0  0  0  0  0
   -0.6737    3.7828    0.0986 H   0  0  0  0  0  0  0  0  0  0  0  0
    1.7153    3.4156    1.4834 H   0  0  0  0  0  0  0  0  0  0  0  0
    0.6408    4.1994    2.6685 H   0  0  0  0  0  0  0  0  0  0  0  0
    0.1793    2.6493    1.9364 H   0  0  0  0  0  0  0  0  0  0  0  0
   -5.5598    2.1254   -1.4293 C   0  0  0  0  0  0  0  0  0  0  0  0
   -6.0467    1.3138   -2.1995 O   0  0  0  0  0  0  0  0  0  0  0  0
   -6.4268    2.7896   -0.3768 C   0  0  0  0  0  0  0  0  0  0  0  0
   -6.4068    3.8746   -0.5050 H   0  0  0  0  0  0  0  0  0  0  0  0
   -7.4602    2.4430   -0.4684 H   0  0  0  0  0  0  0  0  0  0  0  0
   -6.0593    2.5396    0.6214 H   0  0  0  0  0  0  0  0  0  0  0  0
   -4.2136    2.4190   -1.5000 N   0  0  0  0  0  0  0  0  0  0  0  0
   -3.2633    1.7215   -2.3777 C   0  0  2  0  0  0  0  0  0  0  0  0
   -1.8672    1.5849   -1.7369 C   0  0  0  0  0  0  0  0  0  0  0  0
   -1.5576    2.3134   -0.7995 O   0  0  0  0  0  0  0  0  0  0  0  0
   -3.1628    2.4973   -3.6939 C   0  0  0  0  0  0  0  0  0  0  0  0
   -3.8265    3.0166   -0.7720 H   0  0  0  0  0  0  0  0  0  0  0  0
   -3.6281    0.7091   -2.5838 H   0  0  0  0  0  0  0  0  0  0  0  0
   -2.8032    3.5155   -3.5141 H   0  0  0  0  0  0  0  0  0  0  0  0
   -2.4709    2.0007   -4.3814 H   0  0  0  0  0  0  0  0  0  0  0  0
   -4.1449    2.5550   -4.1742 H   0  0  0  0  0  0  0  0  0  0  0  0
   -1.0135    0.5797   -2.1606 N   0  0  0  0  0  0  0  0  0  0  0  0
    0.4676    0.5318   -2.0381 C   0  0  2  0  0  0  0  0  0  0  0  0
    0.9172   -0.4342   -0.9222 C   0  0  0  0  0  0  0  0  0  0  0  0
    2.1027   -0.6959   -0.7702 O   0  0  0  0  0  0  0  0  0  0  0  0
    1.1816    1.8919   -1.9299 C   0  0  0  0  0  0  0  0  0  0  0  0
    0.9620    2.8530   -3.4825 S   0  0  0  0  0  0  0  0  0  0  0  0
   -1.4069   -0.0088   -2.8931 H   0  0  0  0  0  0  0  0  0  0  0  0
    0.8403    0.0798   -2.9625 H   0  0  0  0  0  0  0  0  0  0  0  0
    0.8310    2.4564   -1.0666 H   0  0  0  0  0  0  0  0  0  0  0  0
    2.2550    1.7326   -1.7810 H   0  0  0  0  0  0  0  0  0  0  0  0
   -0.0321   -1.1176   -0.1877 N   0  0  0  0  0  0  0  0  0  0  0  0
    0.2052   -2.4062    0.4729 C   0  0  2  0  0  0  0  0  0  0  0  0
   -0.6596   -3.5132   -0.1671 C   0  0  0  0  0  0  0  0  0  0  0  0
   -1.5603   -3.2160   -0.9466 O   0  0  0  0  0  0  0  0  0  0  0  0
   -0.1254   -2.2384    1.9580 C   0  0  0  0  0  0  0  0  0  0  0  0
   -0.9911   -0.9468   -0.4861 H   0  0  0  0  0  0  0  0  0  0  0  0
    1.2533   -2.7074    0.3757 H   0  0  0  0  0  0  0  0  0  0  0  0
   -1.1773   -1.9645    2.0889 H   0  0  0  0  0  0  0  0  0  0  0  0
    0.0625   -3.1688    2.5029 H   0  0  0  0  0  0  0  0  0  0  0  0
    0.4970   -1.4505    2.3945 H   0  0  0  0  0  0  0  0  0  0  0  0
   -0.4286   -4.8438    0.1272 N   0  0  0  0  0  0  0  0  0  0  0  0
   -1.2026   -5.9366   -0.4494 C   0  0  0  0  0  0  0  0  0  0  0  0
    0.3351   -5.0619    0.7607 H   0  0  0  0  0  0  0  0  0  0  0  0
   -2.2597   -5.8423   -0.1791 H   0  0  0  0  0  0  0  0  0  0  0  0
   -1.1165   -5.9338   -1.5413 H   0  0  0  0  0  0  0  0  0  0  0  0
   -0.8358   -6.8979   -0.0767 H   0  0  0  0  0  0  0  0  0  0  0  0
  1  2  2  0  0  0  0
  1  3  1  0  0  0  0
  1  7  1  0  0  0  0
  3  4  1  0  0  0  0
  3  5  1  0  0  0  0
  3  6  1  0  0  0  0
  7  8  1  0  0  0  0
  7 13  1  0  0  0  0
  8  9  1  0  0  0  0
  8 11  1  0  0  0  0
  8 14  1  0  0  0  0
  9 10  2  0  0  0  0
  9 17  1  0  0  0  0
 11 12  1  0  0  0  0
 11 15  1  0  0  0  0
 11 16  1  0  0  0  0
 12 44  1  0  0  0  0
 17 18  1  0  0  0  0
 17 19  1  0  0  0  0
 18 20  1  0  0  0  0
 18 21  1  0  0  0  0
 18 22  1  0  0  0  0
 23 24  2  0  0  0  0
 23 25  1  0  0  0  0
 23 29  1  0  0  0  0
 25 26  1  0  0  0  0
 25 27  1  0  0  0  0
 25 28  1  0  0  0  0
 29 30  1  0  0  0  0
 29 34  1  0  0  0  0
 30 31  1  0  0  0  0
 30 33  1  0  0  0  0
 30 35  1  0  0  0  0
 31 32  2  0  0  0  0
 31 39  1  0  0  0  0
 33 36  1  0  0  0  0
 33 37  1  0  0  0  0
 33 38  1  0  0  0  0
 39 40  1  0  0  0  0
 39 45  1  0  0  0  0
 40 41  1  0  0  0  0
 40 43  1  0  0  0  0
 40 46  1  0  0  0  0
 41 42  2  0  0  0  0
 41 49  1  0  0  0  0
 43 44  1  0  0  0  0
 43 47  1  0  0  0  0
 43 48  1  0  0  0  0
 49 50  1  0  0  0  0
 49 54  1  0  0  0  0
 50 51  1  0  0  0  0
 50 53  1  0  0  0  0
 50 55  1  0  0  0  0
 51 52  2  0  0  0  0
 51 59  1  0  0  0  0
 53 56  1  0  0  0  0
 53 57  1  0  0  0  0
 53 58  1  0  0  0  0
 59 60  1  0  0  0  0
 59 61  1  0  0  0  0
 60 62  1  0  0  0  0
 60 63  1  0  0  0  0
 60 64  1  0  0  0  0
M  END
$$$$

  -OEChem-05262216053D

 64 63  0     1  0  0  0  0  0999 V2000
    1.0350    8.7410   -2.4170 C   0  0  0  0  0  0  0  0  0  0  0  0
   -0.0473    8.8890   -2.9634 O   0  0  0  0  0  0  0  0  0  0  0  0
    2.1077    9.8052   -2.5520 C   0  0  0  0  0  0  0  0  0  0  0  0
    2.9819    9.3897   -3.0591 H   0  0  0  0  0  0  0  0  0  0  0  0
    1.7304   10.6502   -3.1348 H   0  0  0  0  0  0  0  0  0  0  0  0
    2.4042   10.1638   -1.5634 H   0  0  0  0  0  0  0  0  0  0  0  0
    1.2822    7.6098   -1.6711 N   0  0  0  0  0  0  0  0  0  0  0  0
    0.2899    6.5628   -1.3878 C   0  0  2  0  0  0  0  0  0  0  0  0
    0.6018    5.8180   -0.0688 C   0  0  0  0  0  0  0  0  0  0  0  0
    1.5065    6.2207    0.6576 O   0  0  0  0  0  0  0  0  0  0  0  0
    0.2147    5.6005   -2.5810 C   0  0  0  0  0  0  0  0  0  0  0  0
    1.7758    4.6547   -2.8115 S   0  0  0  0  0  0  0  0  0  0  0  0
    2.1499    7.5744   -1.1379 H   0  0  0  0  0  0  0  0  0  0  0  0
   -0.6930    7.0273   -1.2560 H   0  0  0  0  0  0  0  0  0  0  0  0
   -0.6113    4.9052   -2.4294 H   0  0  0  0  0  0  0  0  0  0  0  0
   -0.0022    6.1607   -3.4960 H   0  0  0  0  0  0  0  0  0  0  0  0
   -0.1527    4.7340    0.3442 N   0  0  0  0  0  0  0  0  0  0  0  0
    0.1719    3.9461    1.5257 C   0  0  0  0  0  0  0  0  0  0  0  0
   -0.8043    4.3281   -0.3339 H   0  0  0  0  0  0  0  0  0  0  0  0
    1.1661    3.4977    1.4268 H   0  0  0  0  0  0  0  0  0  0  0  0
    0.1538    4.5726    2.4235 H   0  0  0  0  0  0  0  0  0  0  0  0
   -0.5600    3.1423    1.6508 H   0  0  0  0  0  0  0  0  0  0  0  0
   -4.5070    0.0511   -1.1310 C   0  0  0  0  0  0  0  0  0  0  0  0
   -3.7237   -0.6499   -1.7563 O   0  0  0  0  0  0  0  0  0  0  0  0
   -5.3442   -0.5510   -0.0197 C   0  0  0  0  0  0  0  0  0  0  0  0
   -6.3646   -0.1621   -0.0623 H   0  0  0  0  0  0  0  0  0  0  0  0
   -5.3805   -1.6390   -0.1258 H   0  0  0  0  0  0  0  0  0  0  0  0
   -4.9064   -0.3029    0.9503 H   0  0  0  0  0  0  0  0  0  0  0  0
   -4.5703    1.4038   -1.3998 N   0  0  0  0  0  0  0  0  0  0  0  0
   -3.7454    2.0753   -2.4164 C   0  0  2  0  0  0  0  0  0  0  0  0
   -2.2493    2.1083   -2.0247 C   0  0  0  0  0  0  0  0  0  0  0  0
   -1.8147    3.0253   -1.3390 O   0  0  0  0  0  0  0  0  0  0  0  0
   -4.3157    3.4816   -2.6355 C   0  0  0  0  0  0  0  0  0  0  0  0
   -5.1442    1.9752   -0.7854 H   0  0  0  0  0  0  0  0  0  0  0  0
   -3.8265    1.5328   -3.3648 H   0  0  0  0  0  0  0  0  0  0  0  0
   -4.3000    4.0567   -1.7037 H   0  0  0  0  0  0  0  0  0  0  0  0
   -3.7213    4.0175   -3.3829 H   0  0  0  0  0  0  0  0  0  0  0  0
   -5.3482    3.4234   -2.9937 H   0  0  0  0  0  0  0  0  0  0  0  0
   -1.4874    0.9933   -2.3298 N   0  0  0  0  0  0  0  0  0  0  0  0
   -0.0599    0.7048   -2.0587 C   0  0  2  0  0  0  0  0  0  0  0  0
    0.0826   -0.3044   -0.8951 C   0  0  0  0  0  0  0  0  0  0  0  0
    1.1745   -0.5156   -0.3807 O   0  0  0  0  0  0  0  0  0  0  0  0
    0.8712    1.9243   -1.9079 C   0  0  0  0  0  0  0  0  0  0  0  0
    0.9783    2.8508   -3.4943 S   0  0  0  0  0  0  0  0  0  0  0  0
   -2.0398    0.2220   -2.7114 H   0  0  0  0  0  0  0  0  0  0  0  0
    0.3146    0.1680   -2.9356 H   0  0  0  0  0  0  0  0  0  0  0  0
    0.5411    2.5709   -1.0955 H   0  0  0  0  0  0  0  0  0  0  0  0
    1.8808    1.5891   -1.6490 H   0  0  0  0  0  0  0  0  0  0  0  0
   -1.0053   -1.0451   -0.4595 N   0  0  0  0  0  0  0  0  0  0  0  0
   -0.8529   -2.2585    0.3519 C   0  0  2  0  0  0  0  0  0  0  0  0
   -0.4867   -3.4835   -0.5129 C   0  0  0  0  0  0  0  0  0  0  0  0
   -1.0257   -3.6568   -1.5999 O   0  0  0  0  0  0  0  0  0  0  0  0
   -2.1710   -2.5031    1.0887 C   0  0  0  0  0  0  0  0  0  0  0  0
   -1.8510   -0.9748   -1.0300 H   0  0  0  0  0  0  0  0  0  0  0  0
   -0.0647   -2.1117    1.0978 H   0  0  0  0  0  0  0  0  0  0  0  0
   -2.9792   -2.6912    0.3743 H   0  0  0  0  0  0  0  0  0  0  0  0
   -2.0819   -3.3718    1.7484 H   0  0  0  0  0  0  0  0  0  0  0  0
   -2.4345   -1.6320    1.6960 H   0  0  0  0  0  0  0  0  0  0  0  0
    0.4253   -4.4153   -0.0535 N   0  0  0  0  0  0  0  0  0  0  0  0
    0.8659   -5.5507   -0.8551 C   0  0  0  0  0  0  0  0  0  0  0  0
    0.9497   -4.1746    0.7827 H   0  0  0  0  0  0  0  0  0  0  0  0
    0.0083   -6.1576   -1.1649 H   0  0  0  0  0  0  0  0  0  0  0  0
    1.3933   -5.2049   -1.7503 H   0  0  0  0  0  0  0  0  0  0  0  0
    1.5435   -6.1844   -0.2751 H   0  0  0  0  0  0  0  0  0  0  0  0
  1  2  2  0  0  0  0
  1  3  1  0  0  0  0
  1  7  1  0  0  0  0
  3  4  1  0  0  0  0
  3  5  1  0  0  0  0
  3  6  1  0  0  0  0
  7  8  1  0  0  0  0
  7 13  1  0  0  0  0
  8  9  1  0  0  0  0
  8 11  1  0  0  0  0
  8 14  1  0  0  0  0
  9 10  2  0  0  0  0
  9 17  1  0  0  0  0
 11 12  1  0  0  0  0
 11 15  1  0  0  0  0
 11 16  1  0  0  0  0
 12 44  1  0  0  0  0
 17 18  1  0  0  0  0
 17 19  1  0  0  0  0
 18 20  1  0  0  0  0
 18 21  1  0  0  0  0
 18 22  1  0  0  0  0
 23 24  2  0  0  0  0
 23 25  1  0  0  0  0
 23 29  1  0  0  0  0
 25 26  1  0  0  0  0
 25 27  1  0  0  0  0
 25 28  1  0  0  0  0
 29 30  1  0  0  0  0
 29 34  1  0  0  0  0
 30 31  1  0  0  0  0
 30 33  1  0  0  0  0
 30 35  1  0  0  0  0
 31 32  2  0  0  0  0
 31 39  1  0  0  0  0
 33 36  1  0  0  0  0
 33 37  1  0  0  0  0
 33 38  1  0  0  0  0
 39 40  1  0  0  0  0
 39 45  1  0  0  0  0
 40 41  1  0  0  0  0
 40 43  1  0  0  0  0
 40 46  1  0  0  0  0
 41 42  2  0  0  0  0
 41 49  1  0  0  0  0
 43 44  1  0  0  0  0
 43 47  1  0  0  0  0
 43 48  1  0  0  0  0
 49 50  1  0  0  0  0
 49 54  1  0  0  0  0
 50 51  1  0  0  0  0
 50 53  1  0  0  0  0
 50 55  1  0  0  0  0
 51 52  2  0  0  0  0
 51 59  1  0  0  0  0
 53 56  1  0  0  0  0
 53 57  1  0  0  0  0
 53 58  1  0  0  0  0
 59 60  1  0  0  0  0
 59 61  1  0  0  0  0
 60 62  1  0  0  0  0
 60 63  1  0  0  0  0
 60 64  1  0  0  0  0
M  END
$$$$

  -OEChem-05262216053D

 64 63  0     1  0  0  0  0  0999 V2000
    1.1553    8.6091   -2.2739 C   0  0  0  0  0  0  0  0  0  0  0  0
    0.0565    8.7677   -2.7837 O   0  0  0  0  0  0  0  0  0  0  0  0
    2.2245    9.6753   -2.4206 C   0  0  0  0  0  0  0  0  0  0  0  0
    3.0793    9.2716   -2.9685 H   0  0  0  0  0  0  0  0  0  0  0  0
    1.8281   10.5341   -2.9690 H   0  0  0  0  0  0  0  0  0  0  0  0
    2.5570   10.0094   -1.4348 H   0  0  0  0  0  0  0  0  0  0  0  0
    1.4243    7.4622   -1.5596 N   0  0  0  0  0  0  0  0  0  0  0  0
    0.4396    6.4095   -1.2689 C   0  0  2  0  0  0  0  0  0  0  0  0
    0.8027    5.6197    0.0100 C   0  0  0  0  0  0  0  0  0  0  0  0
    1.7530    5.9814    0.6990 O   0  0  0  0  0  0  0  0  0  0  0  0
    0.3081    5.4869   -2.4884 C   0  0  0  0  0  0  0  0  0  0  0  0
    1.8406    4.5177   -2.7987 S   0  0  0  0  0  0  0  0  0  0  0  0
    2.3076    7.4152   -1.0536 H   0  0  0  0  0  0  0  0  0  0  0  0
   -0.5334    6.8749   -1.0800 H   0  0  0  0  0  0  0  0  0  0  0  0
   -0.5277    4.8044   -2.3336 H   0  0  0  0  0  0  0  0  0  0  0  0
    0.0753    6.0801   -3.3779 H   0  0  0  0  0  0  0  0  0  0  0  0
    0.0460    4.5398    0.4294 N   0  0  0  0  0  0  0  0  0  0  0  0
    0.4010    3.7220    1.5814 C   0  0  0  0  0  0  0  0  0  0  0  0
   -0.6485    4.1674   -0.2247 H   0  0  0  0  0  0  0  0  0  0  0  0
    1.3686    3.2347    1.4219 H   0  0  0  0  0  0  0  0  0  0  0  0
    0.4587    4.3368    2.4857 H   0  0  0  0  0  0  0  0  0  0  0  0
   -0.3558    2.9475    1.7385 H   0  0  0  0  0  0  0  0  0  0  0  0
   -4.5435   -0.1133   -1.5363 C   0  0  0  0  0  0  0  0  0  0  0  0
   -3.7234   -0.7082   -2.2239 O   0  0  0  0  0  0  0  0  0  0  0  0
   -5.5033   -0.8907   -0.6563 C   0  0  0  0  0  0  0  0  0  0  0  0
   -6.5325   -0.5899   -0.8674 H   0  0  0  0  0  0  0  0  0  0  0  0
   -5.4064   -1.9634   -0.8470 H   0  0  0  0  0  0  0  0  0  0  0  0
   -5.2842   -0.6989    0.3969 H   0  0  0  0  0  0  0  0  0  0  0  0
   -4.5584    1.2682   -1.5230 N   0  0  0  0  0  0  0  0  0  0  0  0
   -3.7136    2.1265   -2.3717 C   0  0  2  0  0  0  0  0  0  0  0  0
   -2.2172    2.0782   -1.9776 C   0  0  0  0  0  0  0  0  0  0  0  0
   -1.7330    2.9290   -1.2421 O   0  0  0  0  0  0  0  0  0  0  0  0
   -4.2849    3.5485   -2.3074 C   0  0  0  0  0  0  0  0  0  0  0  0
   -5.2150    1.7170   -0.8893 H   0  0  0  0  0  0  0  0  0  0  0  0
   -3.7863    1.7875   -3.4109 H   0  0  0  0  0  0  0  0  0  0  0  0
   -4.2658    3.9287   -1.2808 H   0  0  0  0  0  0  0  0  0  0  0  0
   -3.6943    4.2226   -2.9363 H   0  0  0  0  0  0  0  0  0  0  0  0
   -5.3187    3.5616   -2.6659 H   0  0  0  0  0  0  0  0  0  0  0  0
   -1.5071    0.9576   -2.3666 N   0  0  0  0  0  0  0  0  0  0  0  0
   -0.0893    0.5897   -2.1638 C   0  0  2  0  0  0  0  0  0  0  0  0
    0.0199   -0.4908   -1.0643 C   0  0  0  0  0  0  0  0  0  0  0  0
    1.0540   -0.6514   -0.4260 O   0  0  0  0  0  0  0  0  0  0  0  0
    0.8997    1.7587   -1.9822 C   0  0  0  0  0  0  0  0  0  0  0  0
    0.9866    2.7574   -3.5259 S   0  0  0  0  0  0  0  0  0  0  0  0
   -2.0992    0.2535   -2.8143 H   0  0  0  0  0  0  0  0  0  0  0  0
    0.2315    0.0857   -3.0805 H   0  0  0  0  0  0  0  0  0  0  0  0
    0.6236    2.3780   -1.1282 H   0  0  0  0  0  0  0  0  0  0  0  0
    1.9019    1.3698   -1.7751 H   0  0  0  0  0  0  0  0  0  0  0  0
   -1.0154   -1.3919   -0.8695 N   0  0  0  0  0  0  0  0  0  0  0  0
   -1.0002   -2.4775    0.1220 C   0  0  2  0  0  0  0  0  0  0  0  0
   -0.2111   -3.7147   -0.3700 C   0  0  0  0  0  0  0  0  0  0  0  0
   -0.7422   -4.8122   -0.4913 O   0  0  0  0  0  0  0  0  0  0  0  0
   -2.4605   -2.7967    0.4654 C   0  0  0  0  0  0  0  0  0  0  0  0
   -1.8632   -1.2581   -1.4239 H   0  0  0  0  0  0  0  0  0  0  0  0
   -0.5102   -2.1290    1.0376 H   0  0  0  0  0  0  0  0  0  0  0  0
   -2.9931   -3.1553   -0.4214 H   0  0  0  0  0  0  0  0  0  0  0  0
   -2.5096   -3.5723    1.2362 H   0  0  0  0  0  0  0  0  0  0  0  0
   -2.9661   -1.9036    0.8432 H   0  0  0  0  0  0  0  0  0  0  0  0
    1.1286   -3.5779   -0.6766 N   0  0  0  0  0  0  0  0  0  0  0  0
    1.9660   -4.6607   -1.1745 C   0  0  0  0  0  0  0  0  0  0  0  0
    1.5220   -2.6390   -0.5802 H   0  0  0  0  0  0  0  0  0  0  0  0
    1.9831   -5.4910   -0.4607 H   0  0  0  0  0  0  0  0  0  0  0  0
    1.5863   -5.0275   -2.1337 H   0  0  0  0  0  0  0  0  0  0  0  0
    2.9921   -4.3089   -1.3195 H   0  0  0  0  0  0  0  0  0  0  0  0
  1  2  2  0  0  0  0
  1  3  1  0  0  0  0
  1  7  1  0  0  0  0
  3  4  1  0  0  0  0
  3  5  1  0  0  0  0
  3  6  1  0  0  0  0
  7  8  1  0  0  0  0
  7 13  1  0  0  0  0
  8  9  1  0  0  0  0
  8 11  1  0  0  0  0
  8 14  1  0  0  0  0
  9 10  2  0  0  0  0
  9 17  1  0  0  0  0
 11 12  1  0  0  0  0
 11 15  1  0  0  0  0
 11 16  1  0  0  0  0
 12 44  1  0  0  0  0
 17 18  1  0  0  0  0
 17 19  1  0  0  0  0
 18 20  1  0  0  0  0
 18 21  1  0  0  0  0
 18 22  1  0  0  0  0
 23 24  2  0  0  0  0
 23 25  1  0  0  0  0
 23 29  1  0  0  0  0
 25 26  1  0  0  0  0
 25 27  1  0  0  0  0
 25 28  1  0  0  0  0
 29 30  1  0  0  0  0
 29 34  1  0  0  0  0
 30 31  1  0  0  0  0
 30 33  1  0  0  0  0
 30 35  1  0  0  0  0
 31 32  2  0  0  0  0
 31 39  1  0  0  0  0
 33 36  1  0  0  0  0
 33 37  1  0  0  0  0
 33 38  1  0  0  0  0
 39 40  1  0  0  0  0
 39 45  1  0  0  0  0
 40 41  1  0  0  0  0
 40 43  1  0  0  0  0
 40 46  1  0  0  0  0
 41 42  2  0  0  0  0
 41 49  1  0  0  0  0
 43 44  1  0  0  0  0
 43 47  1  0  0  0  0
 43 48  1  0  0  0  0
 49 50  1  0  0  0  0
 49 54  1  0  0  0  0
 50 51  1  0  0  0  0
 50 53  1  0  0  0  0
 50 55  1  0  0  0  0
 51 52  2  0  0  0  0
 51 59  1  0  0  0  0
 53 56  1  0  0  0  0
 53 57  1  0  0  0  0
 53 58  1  0  0  0  0
 59 60  1  0  0  0  0
 59 61  1  0  0  0  0
 60 62  1  0  0  0  0
 60 63  1  0  0  0  0
 60 64  1  0  0  0  0
M  END
$$$$

  -OEChem-05262216053D

 64 63  0     1  0  0  0  0  0999 V2000
    0.6288    9.0278   -1.9720 C   0  0  0  0  0  0  0  0  0  0  0  0
   -0.5286    9.1456   -2.3438 O   0  0  0  0  0  0  0  0  0  0  0  0
    1.5925   10.1923   -2.0961 C   0  0  0  0  0  0  0  0  0  0  0  0
    2.4680    9.8903   -2.6759 H   0  0  0  0  0  0  0  0  0  0  0  0
    1.1073   11.0317   -2.6016 H   0  0  0  0  0  0  0  0  0  0  0  0
    1.9149   10.5158   -1.1036 H   0  0  0  0  0  0  0  0  0  0  0  0
    1.0603    7.8397   -1.4261 N   0  0  0  0  0  0  0  0  0  0  0  0
    0.2008    6.6777   -1.1593 C   0  0  2  0  0  0  0  0  0  0  0  0
    0.7760    5.7956   -0.0264 C   0  0  0  0  0  0  0  0  0  0  0  0
    1.7799    6.1639    0.5779 O   0  0  0  0  0  0  0  0  0  0  0  0
    0.0040    5.8823   -2.4576 C   0  0  0  0  0  0  0  0  0  0  0  0
    1.5836    5.1825   -3.0901 S   0  0  0  0  0  0  0  0  0  0  0  0
    1.9982    7.8133   -1.0281 H   0  0  0  0  0  0  0  0  0  0  0  0
   -0.7781    7.0282   -0.8161 H   0  0  0  0  0  0  0  0  0  0  0  0
   -0.7078    5.0746   -2.2819 H   0  0  0  0  0  0  0  0  0  0  0  0
   -0.4302    6.5305   -3.2250 H   0  0  0  0  0  0  0  0  0  0  0  0
    0.1545    4.6230    0.3651 N   0  0  0  0  0  0  0  0  0  0  0  0
    0.7319    3.7121    1.3453 C   0  0  0  0  0  0  0  0  0  0  0  0
   -0.5780    4.2540   -0.2481 H   0  0  0  0  0  0  0  0  0  0  0  0
    1.7141    3.3609    1.0121 H   0  0  0  0  0  0  0  0  0  0  0  0
    0.8440    4.2099    2.3138 H   0  0  0  0  0  0  0  0  0  0  0  0
    0.0815    2.8422    1.4772 H   0  0  0  0  0  0  0  0  0  0  0  0
   -3.7987   -0.6260   -2.4088 C   0  0  0  0  0  0  0  0  0  0  0  0
   -3.0850   -0.6945   -3.3992 O   0  0  0  0  0  0  0  0  0  0  0  0
   -4.3698   -1.8845   -1.7861 C   0  0  0  0  0  0  0  0  0  0  0  0
   -5.4585   -1.8153   -1.7308 H   0  0  0  0  0  0  0  0  0  0  0  0
   -4.1014   -2.7574   -2.3885 H   0  0  0  0  0  0  0  0  0  0  0  0
   -3.9656   -2.0206   -0.7801 H   0  0  0  0  0  0  0  0  0  0  0  0
   -4.0139    0.6071   -1.8231 N   0  0  0  0  0  0  0  0  0  0  0  0
   -3.4839    1.8815   -2.3439 C   0  0  2  0  0  0  0  0  0  0  0  0
   -1.9751    2.0655   -2.0390 C   0  0  0  0  0  0  0  0  0  0  0  0
   -1.5864    2.9502   -1.2861 O   0  0  0  0  0  0  0  0  0  0  0  0
   -4.3529    3.0089   -1.7712 C   0  0  0  0  0  0  0  0  0  0  0  0
   -4.5517    0.6228   -0.9607 H   0  0  0  0  0  0  0  0  0  0  0  0
   -3.5947    1.9005   -3.4338 H   0  0  0  0  0  0  0  0  0  0  0  0
   -4.2796    3.0380   -0.6793 H   0  0  0  0  0  0  0  0  0  0  0  0
   -4.0271    3.9769   -2.1653 H   0  0  0  0  0  0  0  0  0  0  0  0
   -5.4011    2.8605   -2.0483 H   0  0  0  0  0  0  0  0  0  0  0  0
   -1.1164    1.0951   -2.5224 N   0  0  0  0  0  0  0  0  0  0  0  0
    0.3578    0.9930   -2.4785 C   0  0  2  0  0  0  0  0  0  0  0  0
    0.7564   -0.0522   -1.4139 C   0  0  0  0  0  0  0  0  0  0  0  0
    1.7006    0.1253   -0.6541 O   0  0  0  0  0  0  0  0  0  0  0  0
    1.1295    2.3181   -2.3475 C   0  0  0  0  0  0  0  0  0  0  0  0
    0.8804    3.3657   -3.8375 S   0  0  0  0  0  0  0  0  0  0  0  0
   -1.6003    0.3993   -3.0986 H   0  0  0  0  0  0  0  0  0  0  0  0
    0.6752    0.5682   -3.4355 H   0  0  0  0  0  0  0  0  0  0  0  0
    0.8358    2.8489   -1.4432 H   0  0  0  0  0  0  0  0  0  0  0  0
    2.2007    2.1127   -2.2555 H   0  0  0  0  0  0  0  0  0  0  0  0
    0.0814   -1.2596   -1.3609 N   0  0  0  0  0  0  0  0  0  0  0  0
    0.3203   -2.3213   -0.3749 C   0  0  2  0  0  0  0  0  0  0  0  0
   -0.3886   -3.6287   -0.7805 C   0  0  0  0  0  0  0  0  0  0  0  0
   -1.4372   -3.5847   -1.4153 O   0  0  0  0  0  0  0  0  0  0  0  0
   -0.1976   -1.8751    0.9990 C   0  0  0  0  0  0  0  0  0  0  0  0
   -0.7125   -1.3812   -1.9904 H   0  0  0  0  0  0  0  0  0  0  0  0
    1.3955   -2.5194   -0.3131 H   0  0  0  0  0  0  0  0  0  0  0  0
   -1.2662   -1.6437    0.9464 H   0  0  0  0  0  0  0  0  0  0  0  0
   -0.0486   -2.6674    1.7390 H   0  0  0  0  0  0  0  0  0  0  0  0
    0.3348   -0.9832    1.3434 H   0  0  0  0  0  0  0  0  0  0  0  0
    0.1268   -4.8530   -0.3975 N   0  0  0  0  0  0  0  0  0  0  0  0
   -0.4986   -6.1267   -0.7317 C   0  0  0  0  0  0  0  0  0  0  0  0
    1.0034   -4.8560    0.1163 H   0  0  0  0  0  0  0  0  0  0  0  0
   -1.5040   -6.1843   -0.3015 H   0  0  0  0  0  0  0  0  0  0  0  0
   -0.5720   -6.2459   -1.8179 H   0  0  0  0  0  0  0  0  0  0  0  0
    0.0948   -6.9554   -0.3329 H   0  0  0  0  0  0  0  0  0  0  0  0
  1  2  2  0  0  0  0
  1  3  1  0  0  0  0
  1  7  1  0  0  0  0
  3  4  1  0  0  0  0
  3  5  1  0  0  0  0
  3  6  1  0  0  0  0
  7  8  1  0  0  0  0
  7 13  1  0  0  0  0
  8  9  1  0  0  0  0
  8 11  1  0  0  0  0
  8 14  1  0  0  0  0
  9 10  2  0  0  0  0
  9 17  1  0  0  0  0
 11 12  1  0  0  0  0
 11 15  1  0  0  0  0
 11 16  1  0  0  0  0
 12 44  1  0  0  0  0
 17 18  1  0  0  0  0
 17 19  1  0  0  0  0
 18 20  1  0  0  0  0
 18 21  1  0  0  0  0
 18 22  1  0  0  0  0
 23 24  2  0  0  0  0
 23 25  1  0  0  0  0
 23 29  1  0  0  0  0
 25 26  1  0  0  0  0
 25 27  1  0  0  0  0
 25 28  1  0  0  0  0
 29 30  1  0  0  0  0
 29 34  1  0  0  0  0
 30 31  1  0  0  0  0
 30 33  1  0  0  0  0
 30 35  1  0  0  0  0
 31 32  2  0  0  0  0
 31 39  1  0  0  0  0
 33 36  1  0  0  0  0
 33 37  1  0  0  0  0
 33 38  1  0  0  0  0
 39 40  1  0  0  0  0
 39 45  1  0  0  0  0
 40 41  1  0  0  0  0
 40 43  1  0  0  0  0
 40 46  1  0  0  0  0
 41 42  2  0  0  0  0
 41 49  1  0  0  0  0
 43 44  1  0  0  0  0
 43 47  1  0  0  0  0
 43 48  1  0  0  0  0
 49 50  1  0  0  0  0
 49 54  1  0  0  0  0
 50 51  1  0  0  0  0
 50 53  1  0  0  0  0
 50 55  1  0  0  0  0
 51 52  2  0  0  0  0
 51 59  1  0  0  0  0
 53 56  1  0  0  0  0
 53 57  1  0  0  0  0
 53 58  1  0  0  0  0
 59 60  1  0  0  0  0
 59 61  1  0  0  0  0
 60 62  1  0  0  0  0
 60 63  1  0  0  0  0
 60 64  1  0  0  0  0
M  END
$$$$

  -OEChem-05262216053D

 64 63  0     1  0  0  0  0  0999 V2000
    0.6720    9.0518   -1.9404 C   0  0  0  0  0  0  0  0  0  0  0  0
   -0.4849    9.2035   -2.3015 O   0  0  0  0  0  0  0  0  0  0  0  0
    1.6722   10.1821   -2.0879 C   0  0  0  0  0  0  0  0  0  0  0  0
    2.4578    9.8927   -2.7903 H   0  0  0  0  0  0  0  0  0  0  0  0
    1.1744   11.0799   -2.4645 H   0  0  0  0  0  0  0  0  0  0  0  0
    2.1248   10.4092   -1.1196 H   0  0  0  0  0  0  0  0  0  0  0  0
    1.0763    7.8512   -1.4018 N   0  0  0  0  0  0  0  0  0  0  0  0
    0.1958    6.7000   -1.1593 C   0  0  2  0  0  0  0  0  0  0  0  0
    0.7469    5.7894   -0.0367 C   0  0  0  0  0  0  0  0  0  0  0  0
    1.7590    6.1239    0.5740 O   0  0  0  0  0  0  0  0  0  0  0  0
   -0.0034    5.9334   -2.4751 C   0  0  0  0  0  0  0  0  0  0  0  0
    1.5744    5.2362   -3.1180 S   0  0  0  0  0  0  0  0  0  0  0  0
    2.0196    7.7948   -1.0204 H   0  0  0  0  0  0  0  0  0  0  0  0
   -0.7794    7.0611   -0.8166 H   0  0  0  0  0  0  0  0  0  0  0  0
   -0.7225    5.1280   -2.3214 H   0  0  0  0  0  0  0  0  0  0  0  0
   -0.4297    6.6032   -3.2282 H   0  0  0  0  0  0  0  0  0  0  0  0
    0.0919    4.6303    0.3405 N   0  0  0  0  0  0  0  0  0  0  0  0
    0.6455    3.6905    1.3081 C   0  0  0  0  0  0  0  0  0  0  0  0
   -0.6391    4.2822   -0.2868 H   0  0  0  0  0  0  0  0  0  0  0  0
    1.6221    3.3230    0.9747 H   0  0  0  0  0  0  0  0  0  0  0  0
    0.7626    4.1698    2.2855 H   0  0  0  0  0  0  0  0  0  0  0  0
   -0.0239    2.8320    1.4209 H   0  0  0  0  0  0  0  0  0  0  0  0
   -3.7675   -0.6366   -2.3397 C   0  0  0  0  0  0  0  0  0  0  0  0
   -3.0499   -0.7594   -3.3215 O   0  0  0  0  0  0  0  0  0  0  0  0
   -4.2884   -1.8636   -1.6165 C   0  0  0  0  0  0  0  0  0  0  0  0
   -5.3810   -1.8651   -1.6204 H   0  0  0  0  0  0  0  0  0  0  0  0
   -3.9329   -2.7716   -2.1129 H   0  0  0  0  0  0  0  0  0  0  0  0
   -3.9336   -1.8690   -0.5830 H   0  0  0  0  0  0  0  0  0  0  0  0
   -4.0183    0.6278   -1.8430 N   0  0  0  0  0  0  0  0  0  0  0  0
   -3.4892    1.8714   -2.4318 C   0  0  2  0  0  0  0  0  0  0  0  0
   -1.9889    2.0867   -2.1073 C   0  0  0  0  0  0  0  0  0  0  0  0
   -1.6296    3.0063   -1.3826 O   0  0  0  0  0  0  0  0  0  0  0  0
   -4.3789    3.0231   -1.9462 C   0  0  0  0  0  0  0  0  0  0  0  0
   -4.5487    0.6910   -0.9782 H   0  0  0  0  0  0  0  0  0  0  0  0
   -3.5765    1.8237   -3.5229 H   0  0  0  0  0  0  0  0  0  0  0  0
   -4.3230    3.1220   -0.8574 H   0  0  0  0  0  0  0  0  0  0  0  0
   -4.0556    3.9675   -2.3961 H   0  0  0  0  0  0  0  0  0  0  0  0
   -5.4212    2.8460   -2.2288 H   0  0  0  0  0  0  0  0  0  0  0  0
   -1.1041    1.1166   -2.5434 N   0  0  0  0  0  0  0  0  0  0  0  0
    0.3709    1.0466   -2.4695 C   0  0  2  0  0  0  0  0  0  0  0  0
    0.7640    0.0453   -1.3631 C   0  0  0  0  0  0  0  0  0  0  0  0
    1.4684    0.3725   -0.4152 O   0  0  0  0  0  0  0  0  0  0  0  0
    1.1173    2.3871   -2.3497 C   0  0  0  0  0  0  0  0  0  0  0  0
    0.8852    3.4098   -3.8588 S   0  0  0  0  0  0  0  0  0  0  0  0
   -1.5690    0.3698   -3.0691 H   0  0  0  0  0  0  0  0  0  0  0  0
    0.7191    0.6056   -3.4084 H   0  0  0  0  0  0  0  0  0  0  0  0
    0.7944    2.9275   -1.4624 H   0  0  0  0  0  0  0  0  0  0  0  0
    2.1887    2.1985   -2.2273 H   0  0  0  0  0  0  0  0  0  0  0  0
    0.3523   -1.2721   -1.4566 N   0  0  0  0  0  0  0  0  0  0  0  0
    0.6288   -2.3124   -0.4580 C   0  0  2  0  0  0  0  0  0  0  0  0
    0.4029   -3.7232   -1.0368 C   0  0  0  0  0  0  0  0  0  0  0  0
   -0.3524   -3.8810   -1.9894 O   0  0  0  0  0  0  0  0  0  0  0  0
   -0.2854   -2.1020    0.7557 C   0  0  0  0  0  0  0  0  0  0  0  0
   -0.2298   -1.5358   -2.2525 H   0  0  0  0  0  0  0  0  0  0  0  0
    1.6753   -2.2417   -0.1432 H   0  0  0  0  0  0  0  0  0  0  0  0
   -1.3363   -2.1538    0.4551 H   0  0  0  0  0  0  0  0  0  0  0  0
   -0.1010   -2.8706    1.5123 H   0  0  0  0  0  0  0  0  0  0  0  0
   -0.1015   -1.1242    1.2110 H   0  0  0  0  0  0  0  0  0  0  0  0
    1.0268   -4.8208   -0.4735 N   0  0  0  0  0  0  0  0  0  0  0  0
    0.8687   -6.1774   -0.9832 C   0  0  0  0  0  0  0  0  0  0  0  0
    1.6686   -4.6558    0.2968 H   0  0  0  0  0  0  0  0  0  0  0  0
   -0.1852   -6.4745   -0.9620 H   0  0  0  0  0  0  0  0  0  0  0  0
    1.2328   -6.2438   -2.0137 H   0  0  0  0  0  0  0  0  0  0  0  0
    1.4384   -6.8814   -0.3691 H   0  0  0  0  0  0  0  0  0  0  0  0
  1  2  2  0  0  0  0
  1  3  1  0  0  0  0
  1  7  1  0  0  0  0
  3  4  1  0  0  0  0
  3  5  1  0  0  0  0
  3  6  1  0  0  0  0
  7  8  1  0  0  0  0
  7 13  1  0  0  0  0
  8  9  1  0  0  0  0
  8 11  1  0  0  0  0
  8 14  1  0  0  0  0
  9 10  2  0  0  0  0
  9 17  1  0  0  0  0
 11 12  1  0  0  0  0
 11 15  1  0  0  0  0
 11 16  1  0  0  0  0
 12 44  1  0  0  0  0
 17 18  1  0  0  0  0
 17 19  1  0  0  0  0
 18 20  1  0  0  0  0
 18 21  1  0  0  0  0
 18 22  1  0  0  0  0
 23 24  2  0  0  0  0
 23 25  1  0  0  0  0
 23 29  1  0  0  0  0
 25 26  1  0  0  0  0
 25 27  1  0  0  0  0
 25 28  1  0  0  0  0
 29 30  1  0  0  0  0
 29 34  1  0  0  0  0
 30 31  1  0  0  0  0
 30 33  1  0  0  0  0
 30 35  1  0  0  0  0
 31 32  2  0  0  0  0
 31 39  1  0  0  0  0
 33 36  1  0  0  0  0
 33 37  1  0  0  0  0
 33 38  1  0  0  0  0
 39 40  1  0  0  0  0
 39 45  1  0  0  0  0
 40 41  1  0  0  0  0
 40 43  1  0  0  0  0
 40 46  1  0  0  0  0
 41 42  2  0  0  0  0
 41 49  1  0  0  0  0
 43 44  1  0  0  0  0
 43 47  1  0  0  0  0
 43 48  1  0  0  0  0
 49 50  1  0  0  0  0
 49 54  1  0  0  0  0
 50 51  1  0  0  0  0
 50 53  1  0  0  0  0
 50 55  1  0  0  0  0
 51 52  2  0  0  0  0
 51 59  1  0  0  0  0
 53 56  1  0  0  0  0
 53 57  1  0  0  0  0
 53 58  1  0  0  0  0
 59 60  1  0  0  0  0
 59 61  1  0  0  0  0
 60 62  1  0  0  0  0
 60 63  1  0  0  0  0
 60 64  1  0  0  0  0
M  END
$$$$

  -OEChem-05262216053D

 64 63  0     1  0  0  0  0  0999 V2000
    0.7106    9.0738   -1.9478 C   0  0  0  0  0  0  0  0  0  0  0  0
   -0.4391    9.2353   -2.3269 O   0  0  0  0  0  0  0  0  0  0  0  0
    1.6883   10.2333   -1.9632 C   0  0  0  0  0  0  0  0  0  0  0  0
    2.5104   10.0155   -2.6492 H   0  0  0  0  0  0  0  0  0  0  0  0
    1.1858   11.1471   -2.2923 H   0  0  0  0  0  0  0  0  0  0  0  0
    2.0921   10.3958   -0.9607 H   0  0  0  0  0  0  0  0  0  0  0  0
    1.1217    7.8403   -1.4948 N   0  0  0  0  0  0  0  0  0  0  0  0
    0.2302    6.6898   -1.2893 C   0  0  2  0  0  0  0  0  0  0  0  0
    0.7273    5.7849   -0.1371 C   0  0  0  0  0  0  0  0  0  0  0  0
    1.7254    6.1105    0.5009 O   0  0  0  0  0  0  0  0  0  0  0  0
    0.0836    5.9233   -2.6115 C   0  0  0  0  0  0  0  0  0  0  0  0
    1.6665    5.1650   -3.1652 S   0  0  0  0  0  0  0  0  0  0  0  0
    2.0456    7.7798   -1.0689 H   0  0  0  0  0  0  0  0  0  0  0  0
   -0.7598    7.0501   -0.9909 H   0  0  0  0  0  0  0  0  0  0  0  0
   -0.6705    5.1445   -2.4947 H   0  0  0  0  0  0  0  0  0  0  0  0
   -0.2769    6.6025   -3.3904 H   0  0  0  0  0  0  0  0  0  0  0  0
    0.0304    4.6523    0.2440 N   0  0  0  0  0  0  0  0  0  0  0  0
    0.5272    3.7205    1.2495 C   0  0  0  0  0  0  0  0  0  0  0  0
   -0.6808    4.3053   -0.4061 H   0  0  0  0  0  0  0  0  0  0  0  0
    1.4796    3.2831    0.9328 H   0  0  0  0  0  0  0  0  0  0  0  0
    0.6733    4.2296    2.2074 H   0  0  0  0  0  0  0  0  0  0  0  0
   -0.1915    2.9085    1.3960 H   0  0  0  0  0  0  0  0  0  0  0  0
   -3.8356   -0.5701   -1.9660 C   0  0  0  0  0  0  0  0  0  0  0  0
   -3.1318   -0.8763   -2.9177 O   0  0  0  0  0  0  0  0  0  0  0  0
   -4.3675   -1.6423   -1.0346 C   0  0  0  0  0  0  0  0  0  0  0  0
   -5.4603   -1.6313   -1.0366 H   0  0  0  0  0  0  0  0  0  0  0  0
   -4.0246   -2.6282   -1.3617 H   0  0  0  0  0  0  0  0  0  0  0  0
   -4.0090   -1.4661   -0.0173 H   0  0  0  0  0  0  0  0  0  0  0  0
   -4.0760    0.7635   -1.7010 N   0  0  0  0  0  0  0  0  0  0  0  0
   -3.5234    1.8745   -2.4936 C   0  0  2  0  0  0  0  0  0  0  0  0
   -2.0211    2.1088   -2.1991 C   0  0  0  0  0  0  0  0  0  0  0  0
   -1.6591    3.0789   -1.5454 O   0  0  0  0  0  0  0  0  0  0  0  0
   -4.3893    3.1113   -2.2220 C   0  0  0  0  0  0  0  0  0  0  0  0
   -4.5699    0.9842   -0.8402 H   0  0  0  0  0  0  0  0  0  0  0  0
   -3.6098    1.6407   -3.5604 H   0  0  0  0  0  0  0  0  0  0  0  0
   -4.3527    3.3862   -1.1629 H   0  0  0  0  0  0  0  0  0  0  0  0
   -4.0315    3.9610   -2.8124 H   0  0  0  0  0  0  0  0  0  0  0  0
   -5.4303    2.9153   -2.4971 H   0  0  0  0  0  0  0  0  0  0  0  0
   -1.1416    1.1101   -2.5800 N   0  0  0  0  0  0  0  0  0  0  0  0
    0.3296    1.0218   -2.4591 C   0  0  2  0  0  0  0  0  0  0  0  0
    0.6850    0.0511   -1.3139 C   0  0  0  0  0  0  0  0  0  0  0  0
    1.0944    0.4555   -0.2316 O   0  0  0  0  0  0  0  0  0  0  0  0
    1.1041    2.3465   -2.3520 C   0  0  0  0  0  0  0  0  0  0  0  0
    0.9492    3.3415   -3.8899 S   0  0  0  0  0  0  0  0  0  0  0  0
   -1.6164    0.2993   -2.9892 H   0  0  0  0  0  0  0  0  0  0  0  0
    0.6947    0.5526   -3.3775 H   0  0  0  0  0  0  0  0  0  0  0  0
    0.7664    2.9170   -1.4898 H   0  0  0  0  0  0  0  0  0  0  0  0
    2.1655    2.1343   -2.1893 H   0  0  0  0  0  0  0  0  0  0  0  0
    0.5477   -1.3114   -1.5046 N   0  0  0  0  0  0  0  0  0  0  0  0
    0.9063   -2.3376   -0.5182 C   0  0  2  0  0  0  0  0  0  0  0  0
    1.3194   -3.6596   -1.1974 C   0  0  0  0  0  0  0  0  0  0  0  0
    1.0078   -3.8741   -2.3634 O   0  0  0  0  0  0  0  0  0  0  0  0
   -0.2989   -2.5639    0.4001 C   0  0  0  0  0  0  0  0  0  0  0  0
    0.2535   -1.6395   -2.4248 H   0  0  0  0  0  0  0  0  0  0  0  0
    1.7585   -1.9941    0.0778 H   0  0  0  0  0  0  0  0  0  0  0  0
   -1.1619   -2.9071   -0.1799 H   0  0  0  0  0  0  0  0  0  0  0  0
   -0.0670   -3.3169    1.1593 H   0  0  0  0  0  0  0  0  0  0  0  0
   -0.5684   -1.6329    0.9091 H   0  0  0  0  0  0  0  0  0  0  0  0
    2.0429   -4.6106   -0.5014 N   0  0  0  0  0  0  0  0  0  0  0  0
    2.4840   -5.8688   -1.0918 C   0  0  0  0  0  0  0  0  0  0  0  0
    2.3172   -4.3915    0.4519 H   0  0  0  0  0  0  0  0  0  0  0  0
    1.6225   -6.4673   -1.4061 H   0  0  0  0  0  0  0  0  0  0  0  0
    3.1198   -5.6815   -1.9637 H   0  0  0  0  0  0  0  0  0  0  0  0
    3.0594   -6.4479   -0.3631 H   0  0  0  0  0  0  0  0  0  0  0  0
  1  2  2  0  0  0  0
  1  3  1  0  0  0  0
  1  7  1  0  0  0  0
  3  4  1  0  0  0  0
  3  5  1  0  0  0  0
  3  6  1  0  0  0  0
  7  8  1  0  0  0  0
  7 13  1  0  0  0  0
  8  9  1  0  0  0  0
  8 11  1  0  0  0  0
  8 14  1  0  0  0  0
  9 10  2  0  0  0  0
  9 17  1  0  0  0  0
 11 12  1  0  0  0  0
 11 15  1  0  0  0  0
 11 16  1  0  0  0  0
 12 44  1  0  0  0  0
 17 18  1  0  0  0  0
 17 19  1  0  0  0  0
 18 20  1  0  0  0  0
 18 21  1  0  0  0  0
 18 22  1  0  0  0  0
 23 24  2  0  0  0  0
 23 25  1  0  0  0  0
 23 29  1  0  0  0  0
 25 26  1  0  0  0  0
 25 27  1  0  0  0  0
 25 28  1  0  0  0  0
 29 30  1  0  0  0  0
 29 34  1  0  0  0  0
 30 31  1  0  0  0  0
 30 33  1  0  0  0  0
 30 35  1  0  0  0  0
 31 32  2  0  0  0  0
 31 39  1  0  0  0  0
 33 36  1  0  0  0  0
 33 37  1  0  0  0  0
 33 38  1  0  0  0  0
 39 40  1  0  0  0  0
 39 45  1  0  0  0  0
 40 41  1  0  0  0  0
 40 43  1  0  0  0  0
 40 46  1  0  0  0  0
 41 42  2  0  0  0  0
 41 49  1  0  0  0  0
 43 44  1  0  0  0  0
 43 47  1  0  0  0  0
 43 48  1  0  0  0  0
 49 50  1  0  0  0  0
 49 54  1  0  0  0  0
 50 51  1  0  0  0  0
 50 53  1  0  0  0  0
 50 55  1  0  0  0  0
 51 52  2  0  0  0  0
 51 59  1  0  0  0  0
 53 56  1  0  0  0  0
 53 57  1  0  0  0  0
 53 58  1  0  0  0  0
 59 60  1  0  0  0  0
 59 61  1  0  0  0  0
 60 62  1  0  0  0  0
 60 63  1  0  0  0  0
 60 64  1  0  0  0  0
M  END
$$$$

  -OEChem-05262216053D

 64 63  0     1  0  0  0  0  0999 V2000
    0.9452    9.1094   -1.9622 C   0  0  0  0  0  0  0  0  0  0  0  0
   -0.1575    9.3624   -2.4222 O   0  0  0  0  0  0  0  0  0  0  0  0
    2.0113   10.1870   -1.9017 C   0  0  0  0  0  0  0  0  0  0  0  0
    2.8451    9.9215   -2.5558 H   0  0  0  0  0  0  0  0  0  0  0  0
    1.5973   11.1452   -2.2274 H   0  0  0  0  0  0  0  0  0  0  0  0
    2.3791   10.2924   -0.8781 H   0  0  0  0  0  0  0  0  0  0  0  0
    1.2201    7.8485   -1.4818 N   0  0  0  0  0  0  0  0  0  0  0  0
    0.2302    6.7684   -1.3577 C   0  0  2  0  0  0  0  0  0  0  0  0
    0.5792    5.8112   -0.1944 C   0  0  0  0  0  0  0  0  0  0  0  0
    1.5481    6.0533    0.5212 O   0  0  0  0  0  0  0  0  0  0  0  0
    0.1122    6.0305   -2.6991 C   0  0  0  0  0  0  0  0  0  0  0  0
    1.6888    5.2164   -3.1887 S   0  0  0  0  0  0  0  0  0  0  0  0
    2.1047    7.7115   -0.9945 H   0  0  0  0  0  0  0  0  0  0  0  0
   -0.7462    7.2013   -1.1167 H   0  0  0  0  0  0  0  0  0  0  0  0
   -0.6801    5.2829   -2.6342 H   0  0  0  0  0  0  0  0  0  0  0  0
   -0.1792    6.7388   -3.4811 H   0  0  0  0  0  0  0  0  0  0  0  0
   -0.2230    4.7260    0.1097 N   0  0  0  0  0  0  0  0  0  0  0  0
    0.1273    3.7502    1.1351 C   0  0  0  0  0  0  0  0  0  0  0  0
   -0.8892    4.4290   -0.6093 H   0  0  0  0  0  0  0  0  0  0  0  0
    1.1027    3.3000    0.9221 H   0  0  0  0  0  0  0  0  0  0  0  0
    0.1641    4.2241    2.1214 H   0  0  0  0  0  0  0  0  0  0  0  0
   -0.6203    2.9513    1.1624 H   0  0  0  0  0  0  0  0  0  0  0  0
   -3.6589   -0.6631   -1.7209 C   0  0  0  0  0  0  0  0  0  0  0  0
   -3.0165   -1.0221   -2.6973 O   0  0  0  0  0  0  0  0  0  0  0  0
   -4.0367   -1.6642   -0.6462 C   0  0  0  0  0  0  0  0  0  0  0  0
   -5.1235   -1.7063   -0.5402 H   0  0  0  0  0  0  0  0  0  0  0  0
   -3.6706   -2.6595   -0.9134 H   0  0  0  0  0  0  0  0  0  0  0  0
   -3.5944   -1.3719    0.3095 H   0  0  0  0  0  0  0  0  0  0  0  0
   -3.9741    0.6723   -1.5682 N   0  0  0  0  0  0  0  0  0  0  0  0
   -3.5669    1.7306   -2.5080 C   0  0  2  0  0  0  0  0  0  0  0  0
   -2.0692    2.0961   -2.3573 C   0  0  0  0  0  0  0  0  0  0  0  0
   -1.7406    3.1563   -1.8397 O   0  0  0  0  0  0  0  0  0  0  0  0
   -4.5028    2.9257   -2.2840 C   0  0  0  0  0  0  0  0  0  0  0  0
   -4.4053    0.9487   -0.6901 H   0  0  0  0  0  0  0  0  0  0  0  0
   -3.7134    1.3832   -3.5365 H   0  0  0  0  0  0  0  0  0  0  0  0
   -4.3988    3.3131   -1.2654 H   0  0  0  0  0  0  0  0  0  0  0  0
   -4.2640    3.7310   -2.9862 H   0  0  0  0  0  0  0  0  0  0  0  0
   -5.5447    2.6293   -2.4400 H   0  0  0  0  0  0  0  0  0  0  0  0
   -1.1500    1.1159   -2.6921 N   0  0  0  0  0  0  0  0  0  0  0  0
    0.3177    1.0736   -2.5161 C   0  0  2  0  0  0  0  0  0  0  0  0
    0.6509    0.1297   -1.3440 C   0  0  0  0  0  0  0  0  0  0  0  0
    0.6935    0.5408   -0.1902 O   0  0  0  0  0  0  0  0  0  0  0  0
    1.0640    2.4111   -2.3831 C   0  0  0  0  0  0  0  0  0  0  0  0
    0.9535    3.4050   -3.9250 S   0  0  0  0  0  0  0  0  0  0  0  0
   -1.5975    0.2354   -2.9670 H   0  0  0  0  0  0  0  0  0  0  0  0
    0.7280    0.6075   -3.4165 H   0  0  0  0  0  0  0  0  0  0  0  0
    0.6769    2.9770   -1.5382 H   0  0  0  0  0  0  0  0  0  0  0  0
    2.1209    2.2187   -2.1741 H   0  0  0  0  0  0  0  0  0  0  0  0
    0.8648   -1.2158   -1.5770 N   0  0  0  0  0  0  0  0  0  0  0  0
    1.2018   -2.2028   -0.5440 C   0  0  2  0  0  0  0  0  0  0  0  0
    2.0399   -3.3622   -1.1211 C   0  0  0  0  0  0  0  0  0  0  0  0
    2.0778   -3.5494   -2.3322 O   0  0  0  0  0  0  0  0  0  0  0  0
   -0.1040   -2.7316    0.0581 C   0  0  0  0  0  0  0  0  0  0  0  0
    0.8824   -1.5393   -2.5444 H   0  0  0  0  0  0  0  0  0  0  0  0
    1.7984   -1.7261    0.2414 H   0  0  0  0  0  0  0  0  0  0  0  0
   -0.7138   -3.2105   -0.7149 H   0  0  0  0  0  0  0  0  0  0  0  0
    0.1036   -3.4648    0.8430 H   0  0  0  0  0  0  0  0  0  0  0  0
   -0.6794   -1.9106    0.4971 H   0  0  0  0  0  0  0  0  0  0  0  0
    2.7581   -4.1933   -0.2814 N   0  0  0  0  0  0  0  0  0  0  0  0
    3.5874   -5.2928   -0.7601 C   0  0  0  0  0  0  0  0  0  0  0  0
    2.7328   -3.9946    0.7145 H   0  0  0  0  0  0  0  0  0  0  0  0
    2.9745   -6.0390   -1.2768 H   0  0  0  0  0  0  0  0  0  0  0  0
    4.3525   -4.9245   -1.4520 H   0  0  0  0  0  0  0  0  0  0  0  0
    4.0897   -5.7811    0.0807 H   0  0  0  0  0  0  0  0  0  0  0  0
  1  2  2  0  0  0  0
  1  3  1  0  0  0  0
  1  7  1  0  0  0  0
  3  4  1  0  0  0  0
  3  5  1  0  0  0  0
  3  6  1  0  0  0  0
  7  8  1  0  0  0  0
  7 13  1  0  0  0  0
  8  9  1  0  0  0  0
  8 11  1  0  0  0  0
  8 14  1  0  0  0  0
  9 10  2  0  0  0  0
  9 17  1  0  0  0  0
 11 12  1  0  0  0  0
 11 15  1  0  0  0  0
 11 16  1  0  0  0  0
 12 44  1  0  0  0  0
 17 18  1  0  0  0  0
 17 19  1  0  0  0  0
 18 20  1  0  0  0  0
 18 21  1  0  0  0  0
 18 22  1  0  0  0  0
 23 24  2  0  0  0  0
 23 25  1  0  0  0  0
 23 29  1  0  0  0  0
 25 26  1  0  0  0  0
 25 27  1  0  0  0  0
 25 28  1  0  0  0  0
 29 30  1  0  0  0  0
 29 34  1  0  0  0  0
 30 31  1  0  0  0  0
 30 33  1  0  0  0  0
 30 35  1  0  0  0  0
 31 32  2  0  0  0  0
 31 39  1  0  0  0  0
 33 36  1  0  0  0  0
 33 37  1  0  0  0  0
 33 38  1  0  0  0  0
 39 40  1  0  0  0  0
 39 45  1  0  0  0  0
 40 41  1  0  0  0  0
 40 43  1  0  0  0  0
 40 46  1  0  0  0  0
 41 42  2  0  0  0  0
 41 49  1  0  0  0  0
 43 44  1  0  0  0  0
 43 47  1  0  0  0  0
 43 48  1  0  0  0  0
 49 50  1  0  0  0  0
 49 54  1  0  0  0  0
 50 51  1  0  0  0  0
 50 53  1  0  0  0  0
 50 55  1  0  0  0  0
 51 52  2  0  0  0  0
 51 59  1  0  0  0  0
 53 56  1  0  0  0  0
 53 57  1  0  0  0  0
 53 58  1  0  0  0  0
 59 60  1  0  0  0  0
 59 61  1  0  0  0  0
 60 62  1  0  0  0  0
 60 63  1  0  0  0  0
 60 64  1  0  0  0  0
M  END
$$$$

  -OEChem-05262216053D

 64 63  0     1  0  0  0  0  0999 V2000
   -0.1772    8.6566   -1.8426 C   0  0  0  0  0  0  0  0  0  0  0  0
   -1.3407    8.5635   -2.2030 O   0  0  0  0  0  0  0  0  0  0  0  0
    0.5531    9.9807   -1.9633 C   0  0  0  0  0  0  0  0  0  0  0  0
    1.3980    9.8793   -2.6487 H   0  0  0  0  0  0  0  0  0  0  0  0
   -0.1224   10.7500   -2.3478 H   0  0  0  0  0  0  0  0  0  0  0  0
    0.9219   10.2936   -0.9835 H   0  0  0  0  0  0  0  0  0  0  0  0
    0.4696    7.5591   -1.3178 N   0  0  0  0  0  0  0  0  0  0  0  0
   -0.1733    6.2652   -1.0456 C   0  0  2  0  0  0  0  0  0  0  0  0
    0.5324    5.5014    0.0991 C   0  0  0  0  0  0  0  0  0  0  0  0
    1.4821    6.0200    0.6801 O   0  0  0  0  0  0  0  0  0  0  0  0
   -0.2201    5.4434   -2.3411 C   0  0  0  0  0  0  0  0  0  0  0  0
    1.4539    4.9282   -2.9052 S   0  0  0  0  0  0  0  0  0  0  0  0
    1.3982    7.6998   -0.9219 H   0  0  0  0  0  0  0  0  0  0  0  0
   -1.2012    6.4404   -0.7116 H   0  0  0  0  0  0  0  0  0  0  0  0
   -0.8361    4.5591   -2.1805 H   0  0  0  0  0  0  0  0  0  0  0  0
   -0.7000    6.0275   -3.1325 H   0  0  0  0  0  0  0  0  0  0  0  0
    0.0778    4.2673    0.5282 N   0  0  0  0  0  0  0  0  0  0  0  0
    0.7641    3.4762    1.5417 C   0  0  0  0  0  0  0  0  0  0  0  0
   -0.6069    3.7854   -0.0613 H   0  0  0  0  0  0  0  0  0  0  0  0
    1.8043    3.2964    1.2507 H   0  0  0  0  0  0  0  0  0  0  0  0
    0.7506    3.9938    2.5065 H   0  0  0  0  0  0  0  0  0  0  0  0
    0.2685    2.5073    1.6605 H   0  0  0  0  0  0  0  0  0  0  0  0
   -5.3592    1.4349   -1.1681 C   0  0  0  0  0  0  0  0  0  0  0  0
   -5.6877    0.4032   -1.7318 O   0  0  0  0  0  0  0  0  0  0  0  0
   -6.1932    1.9712   -0.0204 C   0  0  0  0  0  0  0  0  0  0  0  0
   -6.4468    3.0190   -0.1997 H   0  0  0  0  0  0  0  0  0  0  0  0
   -7.1190    1.3965    0.0731 H   0  0  0  0  0  0  0  0  0  0  0  0
   -5.6333    1.8930    0.9146 H   0  0  0  0  0  0  0  0  0  0  0  0
   -4.2223    2.1098   -1.5621 N   0  0  0  0  0  0  0  0  0  0  0  0
   -3.2419    1.5851   -2.5233 C   0  0  2  0  0  0  0  0  0  0  0  0
   -1.8086    1.5982   -1.9538 C   0  0  0  0  0  0  0  0  0  0  0  0
   -1.5136    2.4406   -1.1131 O   0  0  0  0  0  0  0  0  0  0  0  0
   -3.3168    2.4463   -3.7862 C   0  0  0  0  0  0  0  0  0  0  0  0
   -3.9126    2.8702   -0.9600 H   0  0  0  0  0  0  0  0  0  0  0  0
   -3.4815    0.5499   -2.7876 H   0  0  0  0  0  0  0  0  0  0  0  0
   -3.0642    3.4868   -3.5572 H   0  0  0  0  0  0  0  0  0  0  0  0
   -2.6186    2.0781   -4.5444 H   0  0  0  0  0  0  0  0  0  0  0  0
   -4.3284    2.4168   -4.2041 H   0  0  0  0  0  0  0  0  0  0  0  0
   -0.9006    0.6475   -2.3944 N   0  0  0  0  0  0  0  0  0  0  0  0
    0.5784    0.6580   -2.2876 C   0  0  2  0  0  0  0  0  0  0  0  0
    1.0675   -0.3101   -1.1905 C   0  0  0  0  0  0  0  0  0  0  0  0
    1.0186    0.0009   -0.0073 O   0  0  0  0  0  0  0  0  0  0  0  0
    1.2524    2.0334   -2.1461 C   0  0  0  0  0  0  0  0  0  0  0  0
    0.9928    3.0390   -3.6636 S   0  0  0  0  0  0  0  0  0  0  0  0
   -1.2959   -0.0336   -3.0365 H   0  0  0  0  0  0  0  0  0  0  0  0
    0.9566    0.2567   -3.2325 H   0  0  0  0  0  0  0  0  0  0  0  0
    0.8879    2.5570   -1.2637 H   0  0  0  0  0  0  0  0  0  0  0  0
    2.3295    1.9001   -2.0026 H   0  0  0  0  0  0  0  0  0  0  0  0
    1.6418   -1.5181   -1.5401 N   0  0  0  0  0  0  0  0  0  0  0  0
    2.2861   -2.4456   -0.6018 C   0  0  2  0  0  0  0  0  0  0  0  0
    3.3552   -3.2975   -1.3182 C   0  0  0  0  0  0  0  0  0  0  0  0
    3.4134   -3.2984   -2.5437 O   0  0  0  0  0  0  0  0  0  0  0  0
    1.2094   -3.3432    0.0180 C   0  0  0  0  0  0  0  0  0  0  0  0
    1.7901   -1.7084   -2.5311 H   0  0  0  0  0  0  0  0  0  0  0  0
    2.7882   -1.8802    0.1906 H   0  0  0  0  0  0  0  0  0  0  0  0
    0.7080   -3.9315   -0.7575 H   0  0  0  0  0  0  0  0  0  0  0  0
    1.6525   -4.0307    0.7449 H   0  0  0  0  0  0  0  0  0  0  0  0
    0.4586   -2.7359    0.5340 H   0  0  0  0  0  0  0  0  0  0  0  0
    4.2603   -4.0523   -0.5957 N   0  0  0  0  0  0  0  0  0  0  0  0
    5.2998   -4.8636   -1.2182 C   0  0  0  0  0  0  0  0  0  0  0  0
    4.2000   -4.0217    0.4181 H   0  0  0  0  0  0  0  0  0  0  0  0
    4.8542   -5.6284   -1.8633 H   0  0  0  0  0  0  0  0  0  0  0  0
    5.9652   -4.2377   -1.8224 H   0  0  0  0  0  0  0  0  0  0  0  0
    5.8993   -5.3645   -0.4519 H   0  0  0  0  0  0  0  0  0  0  0  0
  1  2  2  0  0  0  0
  1  3  1  0  0  0  0
  1  7  1  0  0  0  0
  3  4  1  0  0  0  0
  3  5  1  0  0  0  0
  3  6  1  0  0  0  0
  7  8  1  0  0  0  0
  7 13  1  0  0  0  0
  8  9  1  0  0  0  0
  8 11  1  0  0  0  0
  8 14  1  0  0  0  0
  9 10  2  0  0  0  0
  9 17  1  0  0  0  0
 11 12  1  0  0  0  0
 11 15  1  0  0  0  0
 11 16  1  0  0  0  0
 12 44  1  0  0  0  0
 17 18  1  0  0  0  0
 17 19  1  0  0  0  0
 18 20  1  0  0  0  0
 18 21  1  0  0  0  0
 18 22  1  0  0  0  0
 23 24  2  0  0  0  0
 23 25  1  0  0  0  0
 23 29  1  0  0  0  0
 25 26  1  0  0  0  0
 25 27  1  0  0  0  0
 25 28  1  0  0  0  0
 29 30  1  0  0  0  0
 29 34  1  0  0  0  0
 30 31  1  0  0  0  0
 30 33  1  0  0  0  0
 30 35  1  0  0  0  0
 31 32  2  0  0  0  0
 31 39  1  0  0  0  0
 33 36  1  0  0  0  0
 33 37  1  0  0  0  0
 33 38  1  0  0  0  0
 39 40  1  0  0  0  0
 39 45  1  0  0  0  0
 40 41  1  0  0  0  0
 40 43  1  0  0  0  0
 40 46  1  0  0  0  0
 41 42  2  0  0  0  0
 41 49  1  0  0  0  0
 43 44  1  0  0  0  0
 43 47  1  0  0  0  0
 43 48  1  0  0  0  0
 49 50  1  0  0  0  0
 49 54  1  0  0  0  0
 50 51  1  0  0  0  0
 50 53  1  0  0  0  0
 50 55  1  0  0  0  0
 51 52  2  0  0  0  0
 51 59  1  0  0  0  0
 53 56  1  0  0  0  0
 53 57  1  0  0  0  0
 53 58  1  0  0  0  0
 59 60  1  0  0  0  0
 59 61  1  0  0  0  0
 60 62  1  0  0  0  0
 60 63  1  0  0  0  0
 60 64  1  0  0  0  0
M  END
$$$$

  -OEChem-05262216053D

 64 63  0     1  0  0  0  0  0999 V2000
   -0.0345    8.6780   -1.7590 C   0  0  0  0  0  0  0  0  0  0  0  0
   -1.2062    8.6434   -2.1023 O   0  0  0  0  0  0  0  0  0  0  0  0
    0.7452    9.9765   -1.8422 C   0  0  0  0  0  0  0  0  0  0  0  0
    1.5819    9.8652   -2.5360 H   0  0  0  0  0  0  0  0  0  0  0  0
    0.0972   10.7828   -2.1970 H   0  0  0  0  0  0  0  0  0  0  0  0
    1.1306   10.2438   -0.8554 H   0  0  0  0  0  0  0  0  0  0  0  0
    0.5753    7.5390   -1.2810 N   0  0  0  0  0  0  0  0  0  0  0  0
   -0.1204    6.2688   -1.0289 C   0  0  2  0  0  0  0  0  0  0  0  0
    0.5648    5.4514    0.0913 C   0  0  0  0  0  0  0  0  0  0  0  0
    1.5493    5.9117    0.6635 O   0  0  0  0  0  0  0  0  0  0  0  0
   -0.2200    5.4803   -2.3426 C   0  0  0  0  0  0  0  0  0  0  0  0
    1.4241    4.9220   -2.9525 S   0  0  0  0  0  0  0  0  0  0  0  0
    1.5143    7.6296   -0.8951 H   0  0  0  0  0  0  0  0  0  0  0  0
   -1.1354    6.4819   -0.6777 H   0  0  0  0  0  0  0  0  0  0  0  0
   -0.8648    4.6142   -2.1933 H   0  0  0  0  0  0  0  0  0  0  0  0
   -0.6928    6.1017   -3.1096 H   0  0  0  0  0  0  0  0  0  0  0  0
    0.0548    4.2356    0.5109 N   0  0  0  0  0  0  0  0  0  0  0  0
    0.7191    3.3936    1.4983 C   0  0  0  0  0  0  0  0  0  0  0  0
   -0.6549    3.7948   -0.0813 H   0  0  0  0  0  0  0  0  0  0  0  0
    1.7523    3.1896    1.1986 H   0  0  0  0  0  0  0  0  0  0  0  0
    0.7241    3.8821    2.4780 H   0  0  0  0  0  0  0  0  0  0  0  0
    0.1941    2.4373    1.5898 H   0  0  0  0  0  0  0  0  0  0  0  0
   -5.5196    1.6023   -1.1918 C   0  0  0  0  0  0  0  0  0  0  0  0
   -5.9560    0.6170   -1.7654 O   0  0  0  0  0  0  0  0  0  0  0  0
   -6.3634    2.3126   -0.1502 C   0  0  0  0  0  0  0  0  0  0  0  0
   -6.6058    3.3215   -0.4926 H   0  0  0  0  0  0  0  0  0  0  0  0
   -7.2943    1.7640    0.0181 H   0  0  0  0  0  0  0  0  0  0  0  0
   -5.8180    2.3765    0.7944 H   0  0  0  0  0  0  0  0  0  0  0  0
   -4.2561    2.0679   -1.4898 N   0  0  0  0  0  0  0  0  0  0  0  0
   -3.3135    1.3850   -2.3864 C   0  0  2  0  0  0  0  0  0  0  0  0
   -1.8486    1.5421   -1.9279 C   0  0  0  0  0  0  0  0  0  0  0  0
   -1.5578    2.4669   -1.1763 O   0  0  0  0  0  0  0  0  0  0  0  0
   -3.4898    1.9591   -3.7954 C   0  0  0  0  0  0  0  0  0  0  0  0
   -3.8859    2.8225   -0.9143 H   0  0  0  0  0  0  0  0  0  0  0  0
   -3.5353    0.3126   -2.4043 H   0  0  0  0  0  0  0  0  0  0  0  0
   -3.2682    3.0313   -3.8025 H   0  0  0  0  0  0  0  0  0  0  0  0
   -2.8185    1.4612   -4.5017 H   0  0  0  0  0  0  0  0  0  0  0  0
   -4.5195    1.8136   -4.1376 H   0  0  0  0  0  0  0  0  0  0  0  0
   -0.9157    0.6070   -2.3520 N   0  0  0  0  0  0  0  0  0  0  0  0
    0.5648    0.6550   -2.2740 C   0  0  2  0  0  0  0  0  0  0  0  0
    1.0982   -0.2666   -1.1578 C   0  0  0  0  0  0  0  0  0  0  0  0
    0.7895   -0.0766    0.0115 O   0  0  0  0  0  0  0  0  0  0  0  0
    1.2112    2.0443   -2.1626 C   0  0  0  0  0  0  0  0  0  0  0  0
    0.9079    3.0346   -3.6816 S   0  0  0  0  0  0  0  0  0  0  0  0
   -1.3088   -0.1454   -2.9100 H   0  0  0  0  0  0  0  0  0  0  0  0
    0.9340    0.2403   -3.2165 H   0  0  0  0  0  0  0  0  0  0  0  0
    0.8500    2.5676   -1.2795 H   0  0  0  0  0  0  0  0  0  0  0  0
    2.2933    1.9350   -2.0373 H   0  0  0  0  0  0  0  0  0  0  0  0
    1.9592   -1.3057   -1.4582 N   0  0  0  0  0  0  0  0  0  0  0  0
    2.6089   -2.1672   -0.4615 C   0  0  2  0  0  0  0  0  0  0  0  0
    3.9273   -2.7552   -1.0069 C   0  0  0  0  0  0  0  0  0  0  0  0
    4.1939   -2.6521   -2.1997 O   0  0  0  0  0  0  0  0  0  0  0  0
    1.6394   -3.2907   -0.0768 C   0  0  0  0  0  0  0  0  0  0  0  0
    2.3095   -1.3784   -2.4136 H   0  0  0  0  0  0  0  0  0  0  0  0
    2.8544   -1.5794    0.4295 H   0  0  0  0  0  0  0  0  0  0  0  0
    1.3856   -3.8945   -0.9541 H   0  0  0  0  0  0  0  0  0  0  0  0
    2.0868   -3.9442    0.6783 H   0  0  0  0  0  0  0  0  0  0  0  0
    0.7159   -2.8727    0.3367 H   0  0  0  0  0  0  0  0  0  0  0  0
    4.8204   -3.3886   -0.1626 N   0  0  0  0  0  0  0  0  0  0  0  0
    6.0864   -3.9533   -0.6150 C   0  0  0  0  0  0  0  0  0  0  0  0
    4.5799   -3.4467    0.8229 H   0  0  0  0  0  0  0  0  0  0  0  0
    5.9126   -4.7405   -1.3562 H   0  0  0  0  0  0  0  0  0  0  0  0
    6.7136   -3.1772   -1.0661 H   0  0  0  0  0  0  0  0  0  0  0  0
    6.6301   -4.3883    0.2292 H   0  0  0  0  0  0  0  0  0  0  0  0
  1  2  2  0  0  0  0
  1  3  1  0  0  0  0
  1  7  1  0  0  0  0
  3  4  1  0  0  0  0
  3  5  1  0  0  0  0
  3  6  1  0  0  0  0
  7  8  1  0  0  0  0
  7 13  1  0  0  0  0
  8  9  1  0  0  0  0
  8 11  1  0  0  0  0
  8 14  1  0  0  0  0
  9 10  2  0  0  0  0
  9 17  1  0  0  0  0
 11 12  1  0  0  0  0
 11 15  1  0  0  0  0
 11 16  1  0  0  0  0
 12 44  1  0  0  0  0
 17 18  1  0  0  0  0
 17 19  1  0  0  0  0
 18 20  1  0  0  0  0
 18 21  1  0  0  0  0
 18 22  1  0  0  0  0
 23 24  2  0  0  0  0
 23 25  1  0  0  0  0
 23 29  1  0  0  0  0
 25 26  1  0  0  0  0
 25 27  1  0  0  0  0
 25 28  1  0  0  0  0
 29 30  1  0  0  0  0
 29 34  1  0  0  0  0
 30 31  1  0  0  0  0
 30 33  1  0  0  0  0
 30 35  1  0  0  0  0
 31 32  2  0  0  0  0
 31 39  1  0  0  0  0
 33 36  1  0  0  0  0
 33 37  1  0  0  0  0
 33 38  1  0  0  0  0
 39 40  1  0  0  0  0
 39 45  1  0  0  0  0
 40 41  1  0  0  0  0
 40 43  1  0  0  0  0
 40 46  1  0  0  0  0
 41 42  2  0  0  0  0
 41 49  1  0  0  0  0
 43 44  1  0  0  0  0
 43 47  1  0  0  0  0
 43 48  1  0  0  0  0
 49 50  1  0  0  0  0
 49 54  1  0  0  0  0
 50 51  1  0  0  0  0
 50 53  1  0  0  0  0
 50 55  1  0  0  0  0
 51 52  2  0  0  0  0
 51 59  1  0  0  0  0
 53 56  1  0  0  0  0
 53 57  1  0  0  0  0
 53 58  1  0  0  0  0
 59 60  1  0  0  0  0
 59 61  1  0  0  0  0
 60 62  1  0  0  0  0
 60 63  1  0  0  0  0
 60 64  1  0  0  0  0
M  END
$$$$

  -OEChem-05262216053D

 64 63  0     1  0  0  0  0  0999 V2000
   -0.1251    8.6577   -1.9836 C   0  0  0  0  0  0  0  0  0  0  0  0
   -1.2528    8.5437   -2.4390 O   0  0  0  0  0  0  0  0  0  0  0  0
    0.6210    9.9713   -2.1196 C   0  0  0  0  0  0  0  0  0  0  0  0
    1.5538    9.8151   -2.6669 H   0  0  0  0  0  0  0  0  0  0  0  0
    0.0105   10.6966   -2.6647 H   0  0  0  0  0  0  0  0  0  0  0  0
    0.8490   10.3753   -1.1302 H   0  0  0  0  0  0  0  0  0  0  0  0
    0.4675    7.5947   -1.3382 N   0  0  0  0  0  0  0  0  0  0  0  0
   -0.2019    6.3172   -1.0533 C   0  0  2  0  0  0  0  0  0  0  0  0
    0.4160    5.6033    0.1716 C   0  0  0  0  0  0  0  0  0  0  0  0
    1.2876    6.1669    0.8282 O   0  0  0  0  0  0  0  0  0  0  0  0
   -0.1665    5.4343   -2.3086 C   0  0  0  0  0  0  0  0  0  0  0  0
    1.5366    4.8771   -2.7236 S   0  0  0  0  0  0  0  0  0  0  0  0
    1.3570    7.7608   -0.8691 H   0  0  0  0  0  0  0  0  0  0  0  0
   -1.2487    6.5136   -0.7997 H   0  0  0  0  0  0  0  0  0  0  0  0
   -0.8042    4.5641   -2.1531 H   0  0  0  0  0  0  0  0  0  0  0  0
   -0.5796    5.9842   -3.1598 H   0  0  0  0  0  0  0  0  0  0  0  0
   -0.0295    4.3589    0.5806 N   0  0  0  0  0  0  0  0  0  0  0  0
    0.5781    3.6139    1.6752 C   0  0  0  0  0  0  0  0  0  0  0  0
   -0.6538    3.8489   -0.0511 H   0  0  0  0  0  0  0  0  0  0  0  0
    1.6337    3.4143    1.4645 H   0  0  0  0  0  0  0  0  0  0  0  0
    0.5042    4.1769    2.6114 H   0  0  0  0  0  0  0  0  0  0  0  0
    0.0652    2.6558    1.8049 H   0  0  0  0  0  0  0  0  0  0  0  0
   -5.4671    1.6987   -1.1789 C   0  0  0  0  0  0  0  0  0  0  0  0
   -5.9351    0.7801   -1.8327 O   0  0  0  0  0  0  0  0  0  0  0  0
   -6.2946    2.3632   -0.0950 C   0  0  0  0  0  0  0  0  0  0  0  0
   -6.3568    3.4388   -0.2775 H   0  0  0  0  0  0  0  0  0  0  0  0
   -7.3065    1.9491   -0.0882 H   0  0  0  0  0  0  0  0  0  0  0  0
   -5.8361    2.1912    0.8819 H   0  0  0  0  0  0  0  0  0  0  0  0
   -4.1768    2.1231   -1.4159 N   0  0  0  0  0  0  0  0  0  0  0  0
   -3.2439    1.4614   -2.3386 C   0  0  2  0  0  0  0  0  0  0  0  0
   -1.7836    1.5542   -1.8494 C   0  0  0  0  0  0  0  0  0  0  0  0
   -1.4810    2.4461   -1.0637 O   0  0  0  0  0  0  0  0  0  0  0  0
   -3.3812    2.1189   -3.7152 C   0  0  0  0  0  0  0  0  0  0  0  0
   -3.7850    2.8106   -0.7743 H   0  0  0  0  0  0  0  0  0  0  0  0
   -3.4963    0.3984   -2.4182 H   0  0  0  0  0  0  0  0  0  0  0  0
   -3.1427    3.1857   -3.6556 H   0  0  0  0  0  0  0  0  0  0  0  0
   -2.7026    1.6508   -4.4345 H   0  0  0  0  0  0  0  0  0  0  0  0
   -4.4056    2.0122   -4.0863 H   0  0  0  0  0  0  0  0  0  0  0  0
   -0.8655    0.6104   -2.2847 N   0  0  0  0  0  0  0  0  0  0  0  0
    0.6110    0.6074   -2.1422 C   0  0  2  0  0  0  0  0  0  0  0  0
    1.0906   -0.3808   -1.0585 C   0  0  0  0  0  0  0  0  0  0  0  0
    0.5202   -0.4621    0.0216 O   0  0  0  0  0  0  0  0  0  0  0  0
    1.3003    1.9714   -1.9728 C   0  0  0  0  0  0  0  0  0  0  0  0
    1.0888    2.9888   -3.4906 S   0  0  0  0  0  0  0  0  0  0  0  0
   -1.2633   -0.1277   -2.8581 H   0  0  0  0  0  0  0  0  0  0  0  0
    0.9955    0.2123   -3.0870 H   0  0  0  0  0  0  0  0  0  0  0  0
    0.9214    2.4941   -1.0944 H   0  0  0  0  0  0  0  0  0  0  0  0
    2.3726    1.8244   -1.8086 H   0  0  0  0  0  0  0  0  0  0  0  0
    2.1636   -1.2157   -1.3097 N   0  0  0  0  0  0  0  0  0  0  0  0
    2.7720   -2.1136   -0.3192 C   0  0  2  0  0  0  0  0  0  0  0  0
    4.2713   -2.3307   -0.6145 C   0  0  0  0  0  0  0  0  0  0  0  0
    4.7474   -1.9387   -1.6747 O   0  0  0  0  0  0  0  0  0  0  0  0
    2.0170   -3.4471   -0.3387 C   0  0  0  0  0  0  0  0  0  0  0  0
    2.7058   -1.0510   -2.1585 H   0  0  0  0  0  0  0  0  0  0  0  0
    2.6955   -1.6685    0.6787 H   0  0  0  0  0  0  0  0  0  0  0  0
    2.0958   -3.9173   -1.3241 H   0  0  0  0  0  0  0  0  0  0  0  0
    2.4274   -4.1330    0.4083 H   0  0  0  0  0  0  0  0  0  0  0  0
    0.9577   -3.2880   -0.1127 H   0  0  0  0  0  0  0  0  0  0  0  0
    5.0929   -2.9428    0.3139 N   0  0  0  0  0  0  0  0  0  0  0  0
    6.5243   -3.1352    0.1111 C   0  0  0  0  0  0  0  0  0  0  0  0
    4.6774   -3.2341    1.1940 H   0  0  0  0  0  0  0  0  0  0  0  0
    6.7086   -3.7248   -0.7933 H   0  0  0  0  0  0  0  0  0  0  0  0
    7.0304   -2.1690    0.0114 H   0  0  0  0  0  0  0  0  0  0  0  0
    6.9594   -3.6671    0.9629 H   0  0  0  0  0  0  0  0  0  0  0  0
  1  2  2  0  0  0  0
  1  3  1  0  0  0  0
  1  7  1  0  0  0  0
  3  4  1  0  0  0  0
  3  5  1  0  0  0  0
  3  6  1  0  0  0  0
  7  8  1  0  0  0  0
  7 13  1  0  0  0  0
  8  9  1  0  0  0  0
  8 11  1  0  0  0  0
  8 14  1  0  0  0  0
  9 10  2  0  0  0  0
  9 17  1  0  0  0  0
 11 12  1  0  0  0  0
 11 15  1  0  0  0  0
 11 16  1  0  0  0  0
 12 44  1  0  0  0  0
 17 18  1  0  0  0  0
 17 19  1  0  0  0  0
 18 20  1  0  0  0  0
 18 21  1  0  0  0  0
 18 22  1  0  0  0  0
 23 24  2  0  0  0  0
 23 25  1  0  0  0  0
 23 29  1  0  0  0  0
 25 26  1  0  0  0  0
 25 27  1  0  0  0  0
 25 28  1  0  0  0  0
 29 30  1  0  0  0  0
 29 34  1  0  0  0  0
 30 31  1  0  0  0  0
 30 33  1  0  0  0  0
 30 35  1  0  0  0  0
 31 32  2  0  0  0  0
 31 39  1  0  0  0  0
 33 36  1  0  0  0  0
 33 37  1  0  0  0  0
 33 38  1  0  0  0  0
 39 40  1  0  0  0  0
 39 45  1  0  0  0  0
 40 41  1  0  0  0  0
 40 43  1  0  0  0  0
 40 46  1  0  0  0  0
 41 42  2  0  0  0  0
 41 49  1  0  0  0  0
 43 44  1  0  0  0  0
 43 47  1  0  0  0  0
 43 48  1  0  0  0  0
 49 50  1  0  0  0  0
 49 54  1  0  0  0  0
 50 51  1  0  0  0  0
 50 53  1  0  0  0  0
 50 55  1  0  0  0  0
 51 52  2  0  0  0  0
 51 59  1  0  0  0  0
 53 56  1  0  0  0  0
 53 57  1  0  0  0  0
 53 58  1  0  0  0  0
 59 60  1  0  0  0  0
 59 61  1  0  0  0  0
 60 62  1  0  0  0  0
 60 63  1  0  0  0  0
 60 64  1  0  0  0  0
M  END
$$$$

  -OEChem-05262216053D

 64 63  0     1  0  0  0  0  0999 V2000
   -0.1256    8.6451   -2.0336 C   0  0  0  0  0  0  0  0  0  0  0  0
   -1.2365    8.5115   -2.5234 O   0  0  0  0  0  0  0  0  0  0  0  0
    0.6126    9.9629   -2.1708 C   0  0  0  0  0  0  0  0  0  0  0  0
    1.5766    9.8011   -2.6589 H   0  0  0  0  0  0  0  0  0  0  0  0
    0.0258   10.6622   -2.7727 H   0  0  0  0  0  0  0  0  0  0  0  0
    0.7794   10.4012   -1.1840 H   0  0  0  0  0  0  0  0  0  0  0  0
    0.4522    7.6012   -1.3447 N   0  0  0  0  0  0  0  0  0  0  0  0
   -0.2190    6.3260   -1.0532 C   0  0  2  0  0  0  0  0  0  0  0  0
    0.3650    5.6392    0.2036 C   0  0  0  0  0  0  0  0  0  0  0  0
    1.2025    6.2259    0.8835 O   0  0  0  0  0  0  0  0  0  0  0  0
   -0.1420    5.4187   -2.2883 C   0  0  0  0  0  0  0  0  0  0  0  0
    1.5748    4.8581   -2.6363 S   0  0  0  0  0  0  0  0  0  0  0  0
    1.3264    7.7828   -0.8532 H   0  0  0  0  0  0  0  0  0  0  0  0
   -1.2743    6.5215   -0.8360 H   0  0  0  0  0  0  0  0  0  0  0  0
   -0.7830    4.5507   -2.1350 H   0  0  0  0  0  0  0  0  0  0  0  0
   -0.5292    5.9492   -3.1638 H   0  0  0  0  0  0  0  0  0  0  0  0
   -0.0798    4.3963    0.6182 N   0  0  0  0  0  0  0  0  0  0  0  0
    0.4795    3.6872    1.7615 C   0  0  0  0  0  0  0  0  0  0  0  0
   -0.6724    3.8668   -0.0277 H   0  0  0  0  0  0  0  0  0  0  0  0
    1.5354    3.4544    1.5900 H   0  0  0  0  0  0  0  0  0  0  0  0
    0.3945    4.2926    2.6699 H   0  0  0  0  0  0  0  0  0  0  0  0
   -0.0614    2.7491    1.9207 H   0  0  0  0  0  0  0  0  0  0  0  0
   -5.4656    1.7853   -1.1762 C   0  0  0  0  0  0  0  0  0  0  0  0
   -5.9565    0.8676   -1.8141 O   0  0  0  0  0  0  0  0  0  0  0  0
   -6.2866    2.5077   -0.1248 C   0  0  0  0  0  0  0  0  0  0  0  0
   -6.3157    3.5777   -0.3443 H   0  0  0  0  0  0  0  0  0  0  0  0
   -7.3101    2.1227   -0.1173 H   0  0  0  0  0  0  0  0  0  0  0  0
   -5.8454    2.3560    0.8635 H   0  0  0  0  0  0  0  0  0  0  0  0
   -4.1585    2.1603   -1.4045 N   0  0  0  0  0  0  0  0  0  0  0  0
   -3.2355    1.4450   -2.2960 C   0  0  2  0  0  0  0  0  0  0  0  0
   -1.7711    1.5512   -1.8229 C   0  0  0  0  0  0  0  0  0  0  0  0
   -1.4665    2.4425   -1.0366 O   0  0  0  0  0  0  0  0  0  0  0  0
   -3.3758    2.0270   -3.7060 C   0  0  0  0  0  0  0  0  0  0  0  0
   -3.7541    2.8568   -0.7812 H   0  0  0  0  0  0  0  0  0  0  0  0
   -3.4970    0.3815   -2.3152 H   0  0  0  0  0  0  0  0  0  0  0  0
   -3.1226    3.0922   -3.7079 H   0  0  0  0  0  0  0  0  0  0  0  0
   -2.7097    1.5103   -4.4039 H   0  0  0  0  0  0  0  0  0  0  0  0
   -4.4047    1.9136   -4.0625 H   0  0  0  0  0  0  0  0  0  0  0  0
   -0.8520    0.6126   -2.2658 N   0  0  0  0  0  0  0  0  0  0  0  0
    0.6211    0.5878   -2.0926 C   0  0  2  0  0  0  0  0  0  0  0  0
    1.0749   -0.4368   -1.0303 C   0  0  0  0  0  0  0  0  0  0  0  0
    0.3277   -0.7911   -0.1271 O   0  0  0  0  0  0  0  0  0  0  0  0
    1.3223    1.9429   -1.8924 C   0  0  0  0  0  0  0  0  0  0  0  0
    1.1465    2.9688   -3.4092 S   0  0  0  0  0  0  0  0  0  0  0  0
   -1.2543   -0.1491   -2.8042 H   0  0  0  0  0  0  0  0  0  0  0  0
    1.0160    0.2043   -3.0383 H   0  0  0  0  0  0  0  0  0  0  0  0
    0.9301    2.4627   -1.0175 H   0  0  0  0  0  0  0  0  0  0  0  0
    2.3902    1.7878   -1.7082 H   0  0  0  0  0  0  0  0  0  0  0  0
    2.3103   -1.0467   -1.1459 N   0  0  0  0  0  0  0  0  0  0  0  0
    2.8892   -1.9505   -0.1431 C   0  0  2  0  0  0  0  0  0  0  0  0
    4.4244   -1.8057   -0.0883 C   0  0  0  0  0  0  0  0  0  0  0  0
    5.0095   -1.1702   -0.9591 O   0  0  0  0  0  0  0  0  0  0  0  0
    2.4911   -3.3866   -0.4959 C   0  0  0  0  0  0  0  0  0  0  0  0
    2.9629   -0.6629   -1.8304 H   0  0  0  0  0  0  0  0  0  0  0  0
    2.5019   -1.7015    0.8508 H   0  0  0  0  0  0  0  0  0  0  0  0
    2.8852   -3.6620   -1.4793 H   0  0  0  0  0  0  0  0  0  0  0  0
    2.8830   -4.0888    0.2458 H   0  0  0  0  0  0  0  0  0  0  0  0
    1.4009   -3.4822   -0.5173 H   0  0  0  0  0  0  0  0  0  0  0  0
    5.1486   -2.3687    0.9457 N   0  0  0  0  0  0  0  0  0  0  0  0
    6.5946   -2.2334    1.0745 C   0  0  0  0  0  0  0  0  0  0  0  0
    4.6347   -2.8682    1.6658 H   0  0  0  0  0  0  0  0  0  0  0  0
    7.0976   -2.6389    0.1903 H   0  0  0  0  0  0  0  0  0  0  0  0
    6.8732   -1.1802    1.1862 H   0  0  0  0  0  0  0  0  0  0  0  0
    6.9491   -2.7793    1.9541 H   0  0  0  0  0  0  0  0  0  0  0  0
  1  2  2  0  0  0  0
  1  3  1  0  0  0  0
  1  7  1  0  0  0  0
  3  4  1  0  0  0  0
  3  5  1  0  0  0  0
  3  6  1  0  0  0  0
  7  8  1  0  0  0  0
  7 13  1  0  0  0  0
  8  9  1  0  0  0  0
  8 11  1  0  0  0  0
  8 14  1  0  0  0  0
  9 10  2  0  0  0  0
  9 17  1  0  0  0  0
 11 12  1  0  0  0  0
 11 15  1  0  0  0  0
 11 16  1  0  0  0  0
 12 44  1  0  0  0  0
 17 18  1  0  0  0  0
 17 19  1  0  0  0  0
 18 20  1  0  0  0  0
 18 21  1  0  0  0  0
 18 22  1  0  0  0  0
 23 24  2  0  0  0  0
 23 25  1  0  0  0  0
 23 29  1  0  0  0  0
 25 26  1  0  0  0  0
 25 27  1  0  0  0  0
 25 28  1  0  0  0  0
 29 30  1  0  0  0  0
 29 34  1  0  0  0  0
 30 31  1  0  0  0  0
 30 33  1  0  0  0  0
 30 35  1  0  0  0  0
 31 32  2  0  0  0  0
 31 39  1  0  0  0  0
 33 36  1  0  0  0  0
 33 37  1  0  0  0  0
 33 38  1  0  0  0  0
 39 40  1  0  0  0  0
 39 45  1  0  0  0  0
 40 41  1  0  0  0  0
 40 43  1  0  0  0  0
 40 46  1  0  0  0  0
 41 42  2  0  0  0  0
 41 49  1  0  0  0  0
 43 44  1  0  0  0  0
 43 47  1  0  0  0  0
 43 48  1  0  0  0  0
 49 50  1  0  0  0  0
 49 54  1  0  0  0  0
 50 51  1  0  0  0  0
 50 53  1  0  0  0  0
 50 55  1  0  0  0  0
 51 52  2  0  0  0  0
 51 59  1  0  0  0  0
 53 56  1  0  0  0  0
 53 57  1  0  0  0  0
 53 58  1  0  0  0  0
 59 60  1  0  0  0  0
 59 61  1  0  0  0  0
 60 62  1  0  0  0  0
 60 63  1  0  0  0  0
 60 64  1  0  0  0  0
M  END
$$$$

  -OEChem-05262216053D

 64 63  0     1  0  0  0  0  0999 V2000
   -0.1604    8.6374   -2.0495 C   0  0  0  0  0  0  0  0  0  0  0  0
   -1.2749    8.4959   -2.5289 O   0  0  0  0  0  0  0  0  0  0  0  0
    0.5668    9.9605   -2.1923 C   0  0  0  0  0  0  0  0  0  0  0  0
    1.5314    9.8048   -2.6816 H   0  0  0  0  0  0  0  0  0  0  0  0
   -0.0262   10.6532   -2.7958 H   0  0  0  0  0  0  0  0  0  0  0  0
    0.7314   10.4028   -1.2068 H   0  0  0  0  0  0  0  0  0  0  0  0
    0.4312    7.5977   -1.3661 N   0  0  0  0  0  0  0  0  0  0  0  0
   -0.2323    6.3211   -1.0634 C   0  0  2  0  0  0  0  0  0  0  0  0
    0.3552    5.6484    0.1991 C   0  0  0  0  0  0  0  0  0  0  0  0
    1.1962    6.2420    0.8684 O   0  0  0  0  0  0  0  0  0  0  0  0
   -0.1503    5.4032   -2.2896 C   0  0  0  0  0  0  0  0  0  0  0  0
    1.5704    4.8522   -2.6335 S   0  0  0  0  0  0  0  0  0  0  0  0
    1.3067    7.7869   -0.8796 H   0  0  0  0  0  0  0  0  0  0  0  0
   -1.2888    6.5125   -0.8484 H   0  0  0  0  0  0  0  0  0  0  0  0
   -0.7846    4.5324   -2.1260 H   0  0  0  0  0  0  0  0  0  0  0  0
   -0.5429    5.9224   -3.1694 H   0  0  0  0  0  0  0  0  0  0  0  0
   -0.0899    4.4114    0.6316 N   0  0  0  0  0  0  0  0  0  0  0  0
    0.4699    3.7225    1.7868 C   0  0  0  0  0  0  0  0  0  0  0  0
   -0.6816    3.8714   -0.0064 H   0  0  0  0  0  0  0  0  0  0  0  0
    1.5325    3.5112    1.6290 H   0  0  0  0  0  0  0  0  0  0  0  0
    0.3604    4.3331    2.6891 H   0  0  0  0  0  0  0  0  0  0  0  0
   -0.0525    2.7744    1.9476 H   0  0  0  0  0  0  0  0  0  0  0  0
   -5.4616    1.8357   -1.1711 C   0  0  0  0  0  0  0  0  0  0  0  0
   -5.9647    0.9199   -1.8021 O   0  0  0  0  0  0  0  0  0  0  0  0
   -6.2785    2.5905   -0.1395 C   0  0  0  0  0  0  0  0  0  0  0  0
   -6.2905    3.6562   -0.3801 H   0  0  0  0  0  0  0  0  0  0  0  0
   -7.3077    2.2205   -0.1296 H   0  0  0  0  0  0  0  0  0  0  0  0
   -5.8443    2.4530    0.8538 H   0  0  0  0  0  0  0  0  0  0  0  0
   -4.1451    2.1816   -1.3911 N   0  0  0  0  0  0  0  0  0  0  0  0
   -3.2297    1.4422   -2.2708 C   0  0  2  0  0  0  0  0  0  0  0  0
   -1.7624    1.5461   -1.8041 C   0  0  0  0  0  0  0  0  0  0  0  0
   -1.4547    2.4317   -1.0122 O   0  0  0  0  0  0  0  0  0  0  0  0
   -3.3689    1.9997   -3.6910 C   0  0  0  0  0  0  0  0  0  0  0  0
   -3.7333    2.8784   -0.7730 H   0  0  0  0  0  0  0  0  0  0  0  0
   -3.5002    0.3806   -2.2688 H   0  0  0  0  0  0  0  0  0  0  0  0
   -3.1049    3.0622   -3.7132 H   0  0  0  0  0  0  0  0  0  0  0  0
   -2.7105    1.4636   -4.3812 H   0  0  0  0  0  0  0  0  0  0  0  0
   -4.3996    1.8891   -4.0431 H   0  0  0  0  0  0  0  0  0  0  0  0
   -0.8424    0.6115   -2.2539 N   0  0  0  0  0  0  0  0  0  0  0  0
    0.6310    0.5796   -2.0760 C   0  0  2  0  0  0  0  0  0  0  0  0
    1.0766   -0.4608   -1.0237 C   0  0  0  0  0  0  0  0  0  0  0  0
    0.2564   -1.0542   -0.3337 O   0  0  0  0  0  0  0  0  0  0  0  0
    1.3319    1.9376   -1.8765 C   0  0  0  0  0  0  0  0  0  0  0  0
    1.1590    2.9558   -3.3988 S   0  0  0  0  0  0  0  0  0  0  0  0
   -1.2483   -0.1666   -2.7664 H   0  0  0  0  0  0  0  0  0  0  0  0
    1.0291    0.1969   -3.0209 H   0  0  0  0  0  0  0  0  0  0  0  0
    0.9376    2.4624   -1.0054 H   0  0  0  0  0  0  0  0  0  0  0  0
    2.3997    1.7884   -1.6901 H   0  0  0  0  0  0  0  0  0  0  0  0
    2.4024   -0.8466   -0.9488 N   0  0  0  0  0  0  0  0  0  0  0  0
    2.9456   -1.7624    0.0632 C   0  0  2  0  0  0  0  0  0  0  0  0
    4.3470   -1.3135    0.5261 C   0  0  0  0  0  0  0  0  0  0  0  0
    4.9464   -0.4450   -0.0986 O   0  0  0  0  0  0  0  0  0  0  0  0
    2.9992   -3.1675   -0.5420 C   0  0  0  0  0  0  0  0  0  0  0  0
    3.0861   -0.2706   -1.4405 H   0  0  0  0  0  0  0  0  0  0  0  0
    2.2984   -1.7745    0.9466 H   0  0  0  0  0  0  0  0  0  0  0  0
    3.6582   -3.1827   -1.4162 H   0  0  0  0  0  0  0  0  0  0  0  0
    3.3755   -3.8876    0.1907 H   0  0  0  0  0  0  0  0  0  0  0  0
    1.9984   -3.4838   -0.8532 H   0  0  0  0  0  0  0  0  0  0  0  0
    4.9309   -1.8711    1.6482 N   0  0  0  0  0  0  0  0  0  0  0  0
    6.2366   -1.4642    2.1533 C   0  0  0  0  0  0  0  0  0  0  0  0
    4.4019   -2.5723    2.1587 H   0  0  0  0  0  0  0  0  0  0  0  0
    7.0045   -1.5972    1.3836 H   0  0  0  0  0  0  0  0  0  0  0  0
    6.2186   -0.4114    2.4550 H   0  0  0  0  0  0  0  0  0  0  0  0
    6.5122   -2.0693    3.0225 H   0  0  0  0  0  0  0  0  0  0  0  0
  1  2  2  0  0  0  0
  1  3  1  0  0  0  0
  1  7  1  0  0  0  0
  3  4  1  0  0  0  0
  3  5  1  0  0  0  0
  3  6  1  0  0  0  0
  7  8  1  0  0  0  0
  7 13  1  0  0  0  0
  8  9  1  0  0  0  0
  8 11  1  0  0  0  0
  8 14  1  0  0  0  0
  9 10  2  0  0  0  0
  9 17  1  0  0  0  0
 11 12  1  0  0  0  0
 11 15  1  0  0  0  0
 11 16  1  0  0  0  0
 12 44  1  0  0  0  0
 17 18  1  0  0  0  0
 17 19  1  0  0  0  0
 18 20  1  0  0  0  0
 18 21  1  0  0  0  0
 18 22  1  0  0  0  0
 23 24  2  0  0  0  0
 23 25  1  0  0  0  0
 23 29  1  0  0  0  0
 25 26  1  0  0  0  0
 25 27  1  0  0  0  0
 25 28  1  0  0  0  0
 29 30  1  0  0  0  0
 29 34  1  0  0  0  0
 30 31  1  0  0  0  0
 30 33  1  0  0  0  0
 30 35  1  0  0  0  0
 31 32  2  0  0  0  0
 31 39  1  0  0  0  0
 33 36  1  0  0  0  0
 33 37  1  0  0  0  0
 33 38  1  0  0  0  0
 39 40  1  0  0  0  0
 39 45  1  0  0  0  0
 40 41  1  0  0  0  0
 40 43  1  0  0  0  0
 40 46  1  0  0  0  0
 41 42  2  0  0  0  0
 41 49  1  0  0  0  0
 43 44  1  0  0  0  0
 43 47  1  0  0  0  0
 43 48  1  0  0  0  0
 49 50  1  0  0  0  0
 49 54  1  0  0  0  0
 50 51  1  0  0  0  0
 50 53  1  0  0  0  0
 50 55  1  0  0  0  0
 51 52  2  0  0  0  0
 51 59  1  0  0  0  0
 53 56  1  0  0  0  0
 53 57  1  0  0  0  0
 53 58  1  0  0  0  0
 59 60  1  0  0  0  0
 59 61  1  0  0  0  0
 60 62  1  0  0  0  0
 60 63  1  0  0  0  0
 60 64  1  0  0  0  0
M  END
$$$$

  -OEChem-05262216053D

 64 63  0     1  0  0  0  0  0999 V2000
   -0.1486    8.3147    0.3185 C   0  0  0  0  0  0  0  0  0  0  0  0
   -1.2837    8.4197   -0.1206 O   0  0  0  0  0  0  0  0  0  0  0  0
    0.6786    9.5561    0.5920 C   0  0  0  0  0  0  0  0  0  0  0  0
    1.5775    9.5490   -0.0291 H   0  0  0  0  0  0  0  0  0  0  0  0
    0.0978   10.4534    0.3612 H   0  0  0  0  0  0  0  0  0  0  0  0
    0.9704    9.5858    1.6445 H   0  0  0  0  0  0  0  0  0  0  0  0
    0.3779    7.0675    0.5732 N   0  0  0  0  0  0  0  0  0  0  0  0
   -0.3760    5.8111    0.4564 C   0  0  2  0  0  0  0  0  0  0  0  0
    0.1829    4.7142    1.3919 C   0  0  0  0  0  0  0  0  0  0  0  0
    1.0567    4.9979    2.2065 O   0  0  0  0  0  0  0  0  0  0  0  0
   -0.3925    5.3663   -1.0125 C   0  0  0  0  0  0  0  0  0  0  0  0
    1.2746    4.8765   -1.6181 S   0  0  0  0  0  0  0  0  0  0  0  0
    1.2749    7.0212    1.0549 H   0  0  0  0  0  0  0  0  0  0  0  0
   -1.4094    5.9864    0.7731 H   0  0  0  0  0  0  0  0  0  0  0  0
   -1.0822    4.5305   -1.1276 H   0  0  0  0  0  0  0  0  0  0  0  0
   -0.7730    6.1794   -1.6384 H   0  0  0  0  0  0  0  0  0  0  0  0
   -0.3261    3.4276    1.3809 N   0  0  0  0  0  0  0  0  0  0  0  0
    0.2156    2.3534    2.2035 C   0  0  0  0  0  0  0  0  0  0  0  0
   -0.9330    3.1697    0.5974 H   0  0  0  0  0  0  0  0  0  0  0  0
    1.2841    2.2178    2.0044 H   0  0  0  0  0  0  0  0  0  0  0  0
    0.0794    2.5782    3.2662 H   0  0  0  0  0  0  0  0  0  0  0  0
   -0.2997    1.4140    1.9801 H   0  0  0  0  0  0  0  0  0  0  0  0
   -5.6777    1.5618   -1.1083 C   0  0  0  0  0  0  0  0  0  0  0  0
   -6.1522    0.5431   -1.5845 O   0  0  0  0  0  0  0  0  0  0  0  0
   -6.5350    2.4716   -0.2485 C   0  0  0  0  0  0  0  0  0  0  0  0
   -6.5785    3.4700   -0.6906 H   0  0  0  0  0  0  0  0  0  0  0  0
   -7.5514    2.0742   -0.1777 H   0  0  0  0  0  0  0  0  0  0  0  0
   -6.1138    2.5425    0.7572 H   0  0  0  0  0  0  0  0  0  0  0  0
   -4.3611    1.8888   -1.3569 N   0  0  0  0  0  0  0  0  0  0  0  0
   -3.4210    1.0447   -2.1092 C   0  0  2  0  0  0  0  0  0  0  0  0
   -1.9515    1.2837   -1.6944 C   0  0  0  0  0  0  0  0  0  0  0  0
   -1.6997    2.1640   -0.8777 O   0  0  0  0  0  0  0  0  0  0  0  0
   -3.6057    1.3345   -3.6035 C   0  0  0  0  0  0  0  0  0  0  0  0
   -3.9712    2.6841   -0.8543 H   0  0  0  0  0  0  0  0  0  0  0  0
   -3.6458   -0.0102   -1.9171 H   0  0  0  0  0  0  0  0  0  0  0  0
   -3.3849    2.3848   -3.8199 H   0  0  0  0  0  0  0  0  0  0  0  0
   -2.9405    0.7073   -4.2047 H   0  0  0  0  0  0  0  0  0  0  0  0
   -4.6370    1.1265   -3.9066 H   0  0  0  0  0  0  0  0  0  0  0  0
   -0.9670    0.4403   -2.1864 N   0  0  0  0  0  0  0  0  0  0  0  0
    0.5131    0.5305   -2.1013 C   0  0  2  0  0  0  0  0  0  0  0  0
    1.1090   -0.6951   -1.3684 C   0  0  0  0  0  0  0  0  0  0  0  0
    0.3884   -1.6293   -1.0362 O   0  0  0  0  0  0  0  0  0  0  0  0
    1.1157    1.8603   -1.6029 C   0  0  0  0  0  0  0  0  0  0  0  0
    0.7559    3.2246   -2.7858 S   0  0  0  0  0  0  0  0  0  0  0  0
   -1.3242   -0.3839   -2.6635 H   0  0  0  0  0  0  0  0  0  0  0  0
    0.8723    0.4353   -3.1302 H   0  0  0  0  0  0  0  0  0  0  0  0
    0.7364    2.0986   -0.6094 H   0  0  0  0  0  0  0  0  0  0  0  0
    2.2028    1.7806   -1.5127 H   0  0  0  0  0  0  0  0  0  0  0  0
    2.4732   -0.8159   -1.1764 N   0  0  0  0  0  0  0  0  0  0  0  0
    3.0947   -1.8123   -0.2926 C   0  0  2  0  0  0  0  0  0  0  0  0
    4.1405   -1.1489    0.6276 C   0  0  0  0  0  0  0  0  0  0  0  0
    4.5298   -0.0116    0.3843 O   0  0  0  0  0  0  0  0  0  0  0  0
    3.7422   -2.8917   -1.1630 C   0  0  0  0  0  0  0  0  0  0  0  0
    3.0319    0.0203   -1.3472 H   0  0  0  0  0  0  0  0  0  0  0  0
    2.3413   -2.2773    0.3521 H   0  0  0  0  0  0  0  0  0  0  0  0
    4.5192   -2.4566   -1.7998 H   0  0  0  0  0  0  0  0  0  0  0  0
    4.1975   -3.6662   -0.5382 H   0  0  0  0  0  0  0  0  0  0  0  0
    2.9890   -3.3625   -1.8028 H   0  0  0  0  0  0  0  0  0  0  0  0
    4.6298   -1.8148    1.7356 N   0  0  0  0  0  0  0  0  0  0  0  0
    5.5889   -1.2258    2.6626 C   0  0  0  0  0  0  0  0  0  0  0  0
    4.2684   -2.7449    1.9263 H   0  0  0  0  0  0  0  0  0  0  0  0
    6.5203   -0.9753    2.1438 H   0  0  0  0  0  0  0  0  0  0  0  0
    5.1788   -0.3148    3.1114 H   0  0  0  0  0  0  0  0  0  0  0  0
    5.8202   -1.9319    3.4658 H   0  0  0  0  0  0  0  0  0  0  0  0
  1  2  2  0  0  0  0
  1  3  1  0  0  0  0
  1  7  1  0  0  0  0
  3  4  1  0  0  0  0
  3  5  1  0  0  0  0
  3  6  1  0  0  0  0
  7  8  1  0  0  0  0
  7 13  1  0  0  0  0
  8  9  1  0  0  0  0
  8 11  1  0  0  0  0
  8 14  1  0  0  0  0
  9 10  2  0  0  0  0
  9 17  1  0  0  0  0
 11 12  1  0  0  0  0
 11 15  1  0  0  0  0
 11 16  1  0  0  0  0
 12 44  1  0  0  0  0
 17 18  1  0  0  0  0
 17 19  1  0  0  0  0
 18 20  1  0  0  0  0
 18 21  1  0  0  0  0
 18 22  1  0  0  0  0
 23 24  2  0  0  0  0
 23 25  1  0  0  0  0
 23 29  1  0  0  0  0
 25 26  1  0  0  0  0
 25 27  1  0  0  0  0
 25 28  1  0  0  0  0
 29 30  1  0  0  0  0
 29 34  1  0  0  0  0
 30 31  1  0  0  0  0
 30 33  1  0  0  0  0
 30 35  1  0  0  0  0
 31 32  2  0  0  0  0
 31 39  1  0  0  0  0
 33 36  1  0  0  0  0
 33 37  1  0  0  0  0
 33 38  1  0  0  0  0
 39 40  1  0  0  0  0
 39 45  1  0  0  0  0
 40 41  1  0  0  0  0
 40 43  1  0  0  0  0
 40 46  1  0  0  0  0
 41 42  2  0  0  0  0
 41 49  1  0  0  0  0
 43 44  1  0  0  0  0
 43 47  1  0  0  0  0
 43 48  1  0  0  0  0
 49 50  1  0  0  0  0
 49 54  1  0  0  0  0
 50 51  1  0  0  0  0
 50 53  1  0  0  0  0
 50 55  1  0  0  0  0
 51 52  2  0  0  0  0
 51 59  1  0  0  0  0
 53 56  1  0  0  0  0
 53 57  1  0  0  0  0
 53 58  1  0  0  0  0
 59 60  1  0  0  0  0
 59 61  1  0  0  0  0
 60 62  1  0  0  0  0
 60 63  1  0  0  0  0
 60 64  1  0  0  0  0
M  END
$$$$

  -OEChem-05262216053D

 64 63  0     1  0  0  0  0  0999 V2000
   -0.2787    8.2772    0.3548 C   0  0  0  0  0  0  0  0  0  0  0  0
   -1.4419    8.3186   -0.0157 O   0  0  0  0  0  0  0  0  0  0  0  0
    0.4892    9.5620    0.5984 C   0  0  0  0  0  0  0  0  0  0  0  0
    1.3499    9.6119   -0.0724 H   0  0  0  0  0  0  0  0  0  0  0  0
   -0.1541   10.4262    0.4122 H   0  0  0  0  0  0  0  0  0  0  0  0
    0.8392    9.5995    1.6327 H   0  0  0  0  0  0  0  0  0  0  0  0
    0.3388    7.0618    0.5515 N   0  0  0  0  0  0  0  0  0  0  0  0
   -0.3444    5.7631    0.4669 C   0  0  2  0  0  0  0  0  0  0  0  0
    0.3328    4.6989    1.3616 C   0  0  0  0  0  0  0  0  0  0  0  0
    1.2294    5.0389    2.1286 O   0  0  0  0  0  0  0  0  0  0  0  0
   -0.4167    5.3245   -1.0023 C   0  0  0  0  0  0  0  0  0  0  0  0
    1.2362    4.9111   -1.6977 S   0  0  0  0  0  0  0  0  0  0  0  0
    1.2600    7.0653    0.9876 H   0  0  0  0  0  0  0  0  0  0  0  0
   -1.3666    5.8751    0.8426 H   0  0  0  0  0  0  0  0  0  0  0  0
   -1.0734    4.4591   -1.0854 H   0  0  0  0  0  0  0  0  0  0  0  0
   -0.8655    6.1211   -1.6038 H   0  0  0  0  0  0  0  0  0  0  0  0
   -0.0866    3.3797    1.3663 N   0  0  0  0  0  0  0  0  0  0  0  0
    0.5912    2.3413    2.1346 C   0  0  0  0  0  0  0  0  0  0  0  0
   -0.7257    3.0854    0.6223 H   0  0  0  0  0  0  0  0  0  0  0  0
    1.6510    2.2917    1.8622 H   0  0  0  0  0  0  0  0  0  0  0  0
    0.5124    2.5452    3.2075 H   0  0  0  0  0  0  0  0  0  0  0  0
    0.1375    1.3658    1.9337 H   0  0  0  0  0  0  0  0  0  0  0  0
   -5.5757    1.4781   -0.9903 C   0  0  0  0  0  0  0  0  0  0  0  0
   -6.0640    0.4803   -1.4962 O   0  0  0  0  0  0  0  0  0  0  0  0
   -6.3960    2.3331   -0.0435 C   0  0  0  0  0  0  0  0  0  0  0  0
   -6.4288    3.3635   -0.4058 H   0  0  0  0  0  0  0  0  0  0  0  0
   -7.4182    1.9501    0.0199 H   0  0  0  0  0  0  0  0  0  0  0  0
   -5.9503    2.3179    0.9540 H   0  0  0  0  0  0  0  0  0  0  0  0
   -4.2734    1.8297   -1.2759 N   0  0  0  0  0  0  0  0  0  0  0  0
   -3.3522    1.0178   -2.0835 C   0  0  2  0  0  0  0  0  0  0  0  0
   -1.8755    1.2423   -1.6892 C   0  0  0  0  0  0  0  0  0  0  0  0
   -1.6055    2.0786   -0.8320 O   0  0  0  0  0  0  0  0  0  0  0  0
   -3.5680    1.3692   -3.5599 C   0  0  0  0  0  0  0  0  0  0  0  0
   -3.8680    2.5959   -0.7412 H   0  0  0  0  0  0  0  0  0  0  0  0
   -3.5723   -0.0443   -1.9288 H   0  0  0  0  0  0  0  0  0  0  0  0
   -3.3291    2.4221   -3.7402 H   0  0  0  0  0  0  0  0  0  0  0  0
   -2.9320    0.7519   -4.2013 H   0  0  0  0  0  0  0  0  0  0  0  0
   -4.6105    1.1950   -3.8444 H   0  0  0  0  0  0  0  0  0  0  0  0
   -0.8992    0.4289   -2.2423 N   0  0  0  0  0  0  0  0  0  0  0  0
    0.5794    0.5521   -2.2207 C   0  0  2  0  0  0  0  0  0  0  0  0
    1.2112   -0.6832   -1.5345 C   0  0  0  0  0  0  0  0  0  0  0  0
    0.5593   -1.7155   -1.4204 O   0  0  0  0  0  0  0  0  0  0  0  0
    1.1687    1.8910   -1.7269 C   0  0  0  0  0  0  0  0  0  0  0  0
    0.7211    3.2618   -2.8718 S   0  0  0  0  0  0  0  0  0  0  0  0
   -1.2588   -0.3763   -2.7503 H   0  0  0  0  0  0  0  0  0  0  0  0
    0.9014    0.4794   -3.2638 H   0  0  0  0  0  0  0  0  0  0  0  0
    0.8354    2.1038   -0.7115 H   0  0  0  0  0  0  0  0  0  0  0  0
    2.2603    1.8420   -1.6959 H   0  0  0  0  0  0  0  0  0  0  0  0
    2.5289   -0.6792   -1.1133 N   0  0  0  0  0  0  0  0  0  0  0  0
    3.0702   -1.6505   -0.1510 C   0  0  2  0  0  0  0  0  0  0  0  0
    3.3558   -0.9748    1.2069 C   0  0  0  0  0  0  0  0  0  0  0  0
    3.4274    0.2475    1.2752 O   0  0  0  0  0  0  0  0  0  0  0  0
    4.3512   -2.2355   -0.7484 C   0  0  0  0  0  0  0  0  0  0  0  0
    2.9665    0.2398   -1.0806 H   0  0  0  0  0  0  0  0  0  0  0  0
    2.3634   -2.4672    0.0268 H   0  0  0  0  0  0  0  0  0  0  0  0
    5.0918   -1.4468   -0.9160 H   0  0  0  0  0  0  0  0  0  0  0  0
    4.7837   -2.9817   -0.0750 H   0  0  0  0  0  0  0  0  0  0  0  0
    4.1339   -2.7198   -1.7056 H   0  0  0  0  0  0  0  0  0  0  0  0
    3.5330   -1.7293    2.3515 N   0  0  0  0  0  0  0  0  0  0  0  0
    3.8016   -1.1439    3.6598 C   0  0  0  0  0  0  0  0  0  0  0  0
    3.4437   -2.7382    2.2730 H   0  0  0  0  0  0  0  0  0  0  0  0
    4.7416   -0.5822    3.6424 H   0  0  0  0  0  0  0  0  0  0  0  0
    2.9919   -0.4665    3.9515 H   0  0  0  0  0  0  0  0  0  0  0  0
    3.8835   -1.9299    4.4166 H   0  0  0  0  0  0  0  0  0  0  0  0
  1  2  2  0  0  0  0
  1  3  1  0  0  0  0
  1  7  1  0  0  0  0
  3  4  1  0  0  0  0
  3  5  1  0  0  0  0
  3  6  1  0  0  0  0
  7  8  1  0  0  0  0
  7 13  1  0  0  0  0
  8  9  1  0  0  0  0
  8 11  1  0  0  0  0
  8 14  1  0  0  0  0
  9 10  2  0  0  0  0
  9 17  1  0  0  0  0
 11 12  1  0  0  0  0
 11 15  1  0  0  0  0
 11 16  1  0  0  0  0
 12 44  1  0  0  0  0
 17 18  1  0  0  0  0
 17 19  1  0  0  0  0
 18 20  1  0  0  0  0
 18 21  1  0  0  0  0
 18 22  1  0  0  0  0
 23 24  2  0  0  0  0
 23 25  1  0  0  0  0
 23 29  1  0  0  0  0
 25 26  1  0  0  0  0
 25 27  1  0  0  0  0
 25 28  1  0  0  0  0
 29 30  1  0  0  0  0
 29 34  1  0  0  0  0
 30 31  1  0  0  0  0
 30 33  1  0  0  0  0
 30 35  1  0  0  0  0
 31 32  2  0  0  0  0
 31 39  1  0  0  0  0
 33 36  1  0  0  0  0
 33 37  1  0  0  0  0
 33 38  1  0  0  0  0
 39 40  1  0  0  0  0
 39 45  1  0  0  0  0
 40 41  1  0  0  0  0
 40 43  1  0  0  0  0
 40 46  1  0  0  0  0
 41 42  2  0  0  0  0
 41 49  1  0  0  0  0
 43 44  1  0  0  0  0
 43 47  1  0  0  0  0
 43 48  1  0  0  0  0
 49 50  1  0  0  0  0
 49 54  1  0  0  0  0
 50 51  1  0  0  0  0
 50 53  1  0  0  0  0
 50 55  1  0  0  0  0
 51 52  2  0  0  0  0
 51 59  1  0  0  0  0
 53 56  1  0  0  0  0
 53 57  1  0  0  0  0
 53 58  1  0  0  0  0
 59 60  1  0  0  0  0
 59 61  1  0  0  0  0
 60 62  1  0  0  0  0
 60 63  1  0  0  0  0
 60 64  1  0  0  0  0
M  END
$$$$

  -OEChem-05262216053D

 64 63  0     1  0  0  0  0  0999 V2000
   -0.3143    8.3847    0.2195 C   0  0  0  0  0  0  0  0  0  0  0  0
   -1.4611    8.4304   -0.1986 O   0  0  0  0  0  0  0  0  0  0  0  0
    0.4599    9.6654    0.4652 C   0  0  0  0  0  0  0  0  0  0  0  0
    1.3412    9.6972   -0.1797 H   0  0  0  0  0  0  0  0  0  0  0  0
   -0.1684   10.5333    0.2470 H   0  0  0  0  0  0  0  0  0  0  0  0
    0.7788    9.7133    1.5091 H   0  0  0  0  0  0  0  0  0  0  0  0
    0.2769    7.1679    0.4773 N   0  0  0  0  0  0  0  0  0  0  0  0
   -0.4179    5.8746    0.4026 C   0  0  2  0  0  0  0  0  0  0  0  0
    0.2105    4.8319    1.3561 C   0  0  0  0  0  0  0  0  0  0  0  0
    1.0821    5.1849    2.1454 O   0  0  0  0  0  0  0  0  0  0  0  0
   -0.4297    5.3929   -1.0545 C   0  0  0  0  0  0  0  0  0  0  0  0
    1.2530    4.9659   -1.6664 S   0  0  0  0  0  0  0  0  0  0  0  0
    1.1811    7.1733    0.9476 H   0  0  0  0  0  0  0  0  0  0  0  0
   -1.4543    6.0065    0.7294 H   0  0  0  0  0  0  0  0  0  0  0  0
   -1.0808    4.5230   -1.1404 H   0  0  0  0  0  0  0  0  0  0  0  0
   -0.8542    6.1713   -1.6964 H   0  0  0  0  0  0  0  0  0  0  0  0
   -0.2217    3.5173    1.3810 N   0  0  0  0  0  0  0  0  0  0  0  0
    0.4120    2.4927    2.2033 C   0  0  0  0  0  0  0  0  0  0  0  0
   -0.8402    3.2095    0.6254 H   0  0  0  0  0  0  0  0  0  0  0  0
    1.4834    2.4341    1.9855 H   0  0  0  0  0  0  0  0  0  0  0  0
    0.2813    2.7172    3.2666 H   0  0  0  0  0  0  0  0  0  0  0  0
   -0.0349    1.5148    1.9986 H   0  0  0  0  0  0  0  0  0  0  0  0
   -5.5790    1.3925   -1.0726 C   0  0  0  0  0  0  0  0  0  0  0  0
   -6.0271    0.4359   -1.6839 O   0  0  0  0  0  0  0  0  0  0  0  0
   -6.4352    2.1131   -0.0485 C   0  0  0  0  0  0  0  0  0  0  0  0
   -6.4832    3.1788   -0.2854 H   0  0  0  0  0  0  0  0  0  0  0  0
   -7.4502    1.7059   -0.0517 H   0  0  0  0  0  0  0  0  0  0  0  0
   -6.0077    1.9867    0.9493 H   0  0  0  0  0  0  0  0  0  0  0  0
   -4.2848    1.8104   -1.2995 N   0  0  0  0  0  0  0  0  0  0  0  0
   -3.3235    1.1085   -2.1621 C   0  0  2  0  0  0  0  0  0  0  0  0
   -1.8657    1.3110   -1.6946 C   0  0  0  0  0  0  0  0  0  0  0  0
   -1.6285    2.1426   -0.8233 O   0  0  0  0  0  0  0  0  0  0  0  0
   -3.4951    1.6239   -3.5948 C   0  0  0  0  0  0  0  0  0  0  0  0
   -3.9152    2.5401   -0.6927 H   0  0  0  0  0  0  0  0  0  0  0  0
   -3.5273    0.0323   -2.1386 H   0  0  0  0  0  0  0  0  0  0  0  0
   -3.2885    2.6980   -3.6421 H   0  0  0  0  0  0  0  0  0  0  0  0
   -2.8118    1.1076   -4.2758 H   0  0  0  0  0  0  0  0  0  0  0  0
   -4.5190    1.4508   -3.9409 H   0  0  0  0  0  0  0  0  0  0  0  0
   -0.8720    0.4845   -2.1956 N   0  0  0  0  0  0  0  0  0  0  0  0
    0.6040    0.6033   -2.1059 C   0  0  2  0  0  0  0  0  0  0  0  0
    1.1899   -0.6289   -1.3776 C   0  0  0  0  0  0  0  0  0  0  0  0
    0.6529   -1.7207   -1.5281 O   0  0  0  0  0  0  0  0  0  0  0  0
    1.1789    1.9490   -1.6188 C   0  0  0  0  0  0  0  0  0  0  0  0
    0.7922    3.2886   -2.8203 S   0  0  0  0  0  0  0  0  0  0  0  0
   -1.2103   -0.3054   -2.7416 H   0  0  0  0  0  0  0  0  0  0  0  0
    0.9747    0.5093   -3.1312 H   0  0  0  0  0  0  0  0  0  0  0  0
    0.8009    2.1910   -0.6259 H   0  0  0  0  0  0  0  0  0  0  0  0
    2.2682    1.8909   -1.5413 H   0  0  0  0  0  0  0  0  0  0  0  0
    2.3494   -0.5507   -0.6267 N   0  0  0  0  0  0  0  0  0  0  0  0
    2.8176   -1.6133    0.2755 C   0  0  2  0  0  0  0  0  0  0  0  0
    2.9153   -1.1031    1.7291 C   0  0  0  0  0  0  0  0  0  0  0  0
    2.8707    0.1010    1.9561 O   0  0  0  0  0  0  0  0  0  0  0  0
    4.1839   -2.0822   -0.2294 C   0  0  0  0  0  0  0  0  0  0  0  0
    2.6412    0.3912   -0.3685 H   0  0  0  0  0  0  0  0  0  0  0  0
    2.1277   -2.4634    0.2731 H   0  0  0  0  0  0  0  0  0  0  0  0
    4.9016   -1.2554   -0.2198 H   0  0  0  0  0  0  0  0  0  0  0  0
    4.5721   -2.8870    0.4020 H   0  0  0  0  0  0  0  0  0  0  0  0
    4.0986   -2.4580   -1.2540 H   0  0  0  0  0  0  0  0  0  0  0  0
    3.0557   -1.9868    2.7832 N   0  0  0  0  0  0  0  0  0  0  0  0
    3.1589   -1.5611    4.1743 C   0  0  0  0  0  0  0  0  0  0  0  0
    3.0639   -2.9802    2.5706 H   0  0  0  0  0  0  0  0  0  0  0  0
    4.0117   -0.8865    4.3053 H   0  0  0  0  0  0  0  0  0  0  0  0
    2.2468   -1.0412    4.4859 H   0  0  0  0  0  0  0  0  0  0  0  0
    3.3024   -2.4282    4.8262 H   0  0  0  0  0  0  0  0  0  0  0  0
  1  2  2  0  0  0  0
  1  3  1  0  0  0  0
  1  7  1  0  0  0  0
  3  4  1  0  0  0  0
  3  5  1  0  0  0  0
  3  6  1  0  0  0  0
  7  8  1  0  0  0  0
  7 13  1  0  0  0  0
  8  9  1  0  0  0  0
  8 11  1  0  0  0  0
  8 14  1  0  0  0  0
  9 10  2  0  0  0  0
  9 17  1  0  0  0  0
 11 12  1  0  0  0  0
 11 15  1  0  0  0  0
 11 16  1  0  0  0  0
 12 44  1  0  0  0  0
 17 18  1  0  0  0  0
 17 19  1  0  0  0  0
 18 20  1  0  0  0  0
 18 21  1  0  0  0  0
 18 22  1  0  0  0  0
 23 24  2  0  0  0  0
 23 25  1  0  0  0  0
 23 29  1  0  0  0  0
 25 26  1  0  0  0  0
 25 27  1  0  0  0  0
 25 28  1  0  0  0  0
 29 30  1  0  0  0  0
 29 34  1  0  0  0  0
 30 31  1  0  0  0  0
 30 33  1  0  0  0  0
 30 35  1  0  0  0  0
 31 32  2  0  0  0  0
 31 39  1  0  0  0  0
 33 36  1  0  0  0  0
 33 37  1  0  0  0  0
 33 38  1  0  0  0  0
 39 40  1  0  0  0  0
 39 45  1  0  0  0  0
 40 41  1  0  0  0  0
 40 43  1  0  0  0  0
 40 46  1  0  0  0  0
 41 42  2  0  0  0  0
 41 49  1  0  0  0  0
 43 44  1  0  0  0  0
 43 47  1  0  0  0  0
 43 48  1  0  0  0  0
 49 50  1  0  0  0  0
 49 54  1  0  0  0  0
 50 51  1  0  0  0  0
 50 53  1  0  0  0  0
 50 55  1  0  0  0  0
 51 52  2  0  0  0  0
 51 59  1  0  0  0  0
 53 56  1  0  0  0  0
 53 57  1  0  0  0  0
 53 58  1  0  0  0  0
 59 60  1  0  0  0  0
 59 61  1  0  0  0  0
 60 62  1  0  0  0  0
 60 63  1  0  0  0  0
 60 64  1  0  0  0  0
M  END
$$$$

  -OEChem-05262216053D

 64 63  0     1  0  0  0  0  0999 V2000
   -0.3337    8.4298    0.1560 C   0  0  0  0  0  0  0  0  0  0  0  0
   -1.4632    8.4770   -0.3063 O   0  0  0  0  0  0  0  0  0  0  0  0
    0.4398    9.7091    0.4139 C   0  0  0  0  0  0  0  0  0  0  0  0
    1.3413    9.7294   -0.2034 H   0  0  0  0  0  0  0  0  0  0  0  0
   -0.1766   10.5785    0.1687 H   0  0  0  0  0  0  0  0  0  0  0  0
    0.7257    9.7665    1.4671 H   0  0  0  0  0  0  0  0  0  0  0  0
    0.2356    7.2131    0.4595 N   0  0  0  0  0  0  0  0  0  0  0  0
   -0.4700    5.9253    0.3931 C   0  0  2  0  0  0  0  0  0  0  0  0
    0.1232    4.8989    1.3858 C   0  0  0  0  0  0  0  0  0  0  0  0
    0.9775    5.2617    2.1898 O   0  0  0  0  0  0  0  0  0  0  0  0
   -0.4429    5.4084   -1.0506 C   0  0  0  0  0  0  0  0  0  0  0  0
    1.2589    4.9763   -1.6005 S   0  0  0  0  0  0  0  0  0  0  0  0
    1.1227    7.2206    0.9612 H   0  0  0  0  0  0  0  0  0  0  0  0
   -1.5143    6.0735    0.6873 H   0  0  0  0  0  0  0  0  0  0  0  0
   -1.0864    4.5321   -1.1313 H   0  0  0  0  0  0  0  0  0  0  0  0
   -0.8535    6.1687   -1.7224 H   0  0  0  0  0  0  0  0  0  0  0  0
   -0.3213    3.5888    1.4275 N   0  0  0  0  0  0  0  0  0  0  0  0
    0.2550    2.5862    2.3155 C   0  0  0  0  0  0  0  0  0  0  0  0
   -0.9185    3.2653    0.6617 H   0  0  0  0  0  0  0  0  0  0  0  0
    1.3378    2.5185    2.1682 H   0  0  0  0  0  0  0  0  0  0  0  0
    0.0574    2.8419    3.3614 H   0  0  0  0  0  0  0  0  0  0  0  0
   -0.1822    1.6041    2.1107 H   0  0  0  0  0  0  0  0  0  0  0  0
   -5.5923    1.4026   -1.1874 C   0  0  0  0  0  0  0  0  0  0  0  0
   -6.0114    0.4557   -1.8336 O   0  0  0  0  0  0  0  0  0  0  0  0
   -6.4905    2.0957   -0.1809 C   0  0  0  0  0  0  0  0  0  0  0  0
   -6.5720    3.1581   -0.4225 H   0  0  0  0  0  0  0  0  0  0  0  0
   -7.4901    1.6529   -0.2013 H   0  0  0  0  0  0  0  0  0  0  0  0
   -6.0767    1.9870    0.8245 H   0  0  0  0  0  0  0  0  0  0  0  0
   -4.2933    1.8319   -1.3593 N   0  0  0  0  0  0  0  0  0  0  0  0
   -3.3027    1.1522   -2.2059 C   0  0  2  0  0  0  0  0  0  0  0  0
   -1.8620    1.3286   -1.6800 C   0  0  0  0  0  0  0  0  0  0  0  0
   -1.6457    2.1413   -0.7855 O   0  0  0  0  0  0  0  0  0  0  0  0
   -3.4202    1.7115   -3.6274 C   0  0  0  0  0  0  0  0  0  0  0  0
   -3.9485    2.5504   -0.7249 H   0  0  0  0  0  0  0  0  0  0  0  0
   -3.5133    0.0771   -2.2225 H   0  0  0  0  0  0  0  0  0  0  0  0
   -3.2003    2.7838   -3.6362 H   0  0  0  0  0  0  0  0  0  0  0  0
   -2.7197    1.2069   -4.2994 H   0  0  0  0  0  0  0  0  0  0  0  0
   -4.4341    1.5609   -4.0119 H   0  0  0  0  0  0  0  0  0  0  0  0
   -0.8609    0.5001   -2.1621 N   0  0  0  0  0  0  0  0  0  0  0  0
    0.6112    0.6143   -2.0342 C   0  0  2  0  0  0  0  0  0  0  0  0
    1.1734   -0.6218   -1.3001 C   0  0  0  0  0  0  0  0  0  0  0  0
    0.7925   -1.7346   -1.6440 O   0  0  0  0  0  0  0  0  0  0  0  0
    1.1820    1.9564   -1.5344 C   0  0  0  0  0  0  0  0  0  0  0  0
    0.8307    3.2908   -2.7526 S   0  0  0  0  0  0  0  0  0  0  0  0
   -1.1856   -0.2576   -2.7596 H   0  0  0  0  0  0  0  0  0  0  0  0
    1.0062    0.5207   -3.0505 H   0  0  0  0  0  0  0  0  0  0  0  0
    0.7802    2.2076   -0.5520 H   0  0  0  0  0  0  0  0  0  0  0  0
    2.2689    1.8856   -1.4289 H   0  0  0  0  0  0  0  0  0  0  0  0
    2.1134   -0.5119   -0.2911 N   0  0  0  0  0  0  0  0  0  0  0  0
    2.5106   -1.6194    0.5898 C   0  0  2  0  0  0  0  0  0  0  0  0
    2.4014   -1.2157    2.0749 C   0  0  0  0  0  0  0  0  0  0  0  0
    2.2700   -0.0353    2.3791 O   0  0  0  0  0  0  0  0  0  0  0  0
    3.9476   -2.0067    0.2347 C   0  0  0  0  0  0  0  0  0  0  0  0
    2.2435    0.4219    0.0974 H   0  0  0  0  0  0  0  0  0  0  0  0
    1.8597   -2.4871    0.4405 H   0  0  0  0  0  0  0  0  0  0  0  0
    4.6235   -1.1605    0.3957 H   0  0  0  0  0  0  0  0  0  0  0  0
    4.2844   -2.8445    0.8525 H   0  0  0  0  0  0  0  0  0  0  0  0
    4.0082   -2.3068   -0.8164 H   0  0  0  0  0  0  0  0  0  0  0  0
    2.4409   -2.1725    3.0718 N   0  0  0  0  0  0  0  0  0  0  0  0
    2.3258   -1.8532    4.4898 C   0  0  0  0  0  0  0  0  0  0  0  0
    2.5241   -3.1455    2.7915 H   0  0  0  0  0  0  0  0  0  0  0  0
    3.1148   -1.1561    4.7918 H   0  0  0  0  0  0  0  0  0  0  0  0
    1.3529   -1.3976    4.7026 H   0  0  0  0  0  0  0  0  0  0  0  0
    2.4213   -2.7623    5.0915 H   0  0  0  0  0  0  0  0  0  0  0  0
  1  2  2  0  0  0  0
  1  3  1  0  0  0  0
  1  7  1  0  0  0  0
  3  4  1  0  0  0  0
  3  5  1  0  0  0  0
  3  6  1  0  0  0  0
  7  8  1  0  0  0  0
  7 13  1  0  0  0  0
  8  9  1  0  0  0  0
  8 11  1  0  0  0  0
  8 14  1  0  0  0  0
  9 10  2  0  0  0  0
  9 17  1  0  0  0  0
 11 12  1  0  0  0  0
 11 15  1  0  0  0  0
 11 16  1  0  0  0  0
 12 44  1  0  0  0  0
 17 18  1  0  0  0  0
 17 19  1  0  0  0  0
 18 20  1  0  0  0  0
 18 21  1  0  0  0  0
 18 22  1  0  0  0  0
 23 24  2  0  0  0  0
 23 25  1  0  0  0  0
 23 29  1  0  0  0  0
 25 26  1  0  0  0  0
 25 27  1  0  0  0  0
 25 28  1  0  0  0  0
 29 30  1  0  0  0  0
 29 34  1  0  0  0  0
 30 31  1  0  0  0  0
 30 33  1  0  0  0  0
 30 35  1  0  0  0  0
 31 32  2  0  0  0  0
 31 39  1  0  0  0  0
 33 36  1  0  0  0  0
 33 37  1  0  0  0  0
 33 38  1  0  0  0  0
 39 40  1  0  0  0  0
 39 45  1  0  0  0  0
 40 41  1  0  0  0  0
 40 43  1  0  0  0  0
 40 46  1  0  0  0  0
 41 42  2  0  0  0  0
 41 49  1  0  0  0  0
 43 44  1  0  0  0  0
 43 47  1  0  0  0  0
 43 48  1  0  0  0  0
 49 50  1  0  0  0  0
 49 54  1  0  0  0  0
 50 51  1  0  0  0  0
 50 53  1  0  0  0  0
 50 55  1  0  0  0  0
 51 52  2  0  0  0  0
 51 59  1  0  0  0  0
 53 56  1  0  0  0  0
 53 57  1  0  0  0  0
 53 58  1  0  0  0  0
 59 60  1  0  0  0  0
 59 61  1  0  0  0  0
 60 62  1  0  0  0  0
 60 63  1  0  0  0  0
 60 64  1  0  0  0  0
M  END
$$$$

  -OEChem-05262216053D

 64 63  0     1  0  0  0  0  0999 V2000
   -0.2343    8.4621    0.1295 C   0  0  0  0  0  0  0  0  0  0  0  0
   -1.3565    8.5430   -0.3461 O   0  0  0  0  0  0  0  0  0  0  0  0
    0.5676    9.7187    0.4107 C   0  0  0  0  0  0  0  0  0  0  0  0
    1.4498    9.7484   -0.2329 H   0  0  0  0  0  0  0  0  0  0  0  0
   -0.0418   10.6055    0.2170 H   0  0  0  0  0  0  0  0  0  0  0  0
    0.8871    9.7331    1.4556 H   0  0  0  0  0  0  0  0  0  0  0  0
    0.2999    7.2275    0.4252 N   0  0  0  0  0  0  0  0  0  0  0  0
   -0.4469    5.9636    0.3523 C   0  0  2  0  0  0  0  0  0  0  0  0
    0.0848    4.9269    1.3678 C   0  0  0  0  0  0  0  0  0  0  0  0
    0.9272    5.2654    2.1944 O   0  0  0  0  0  0  0  0  0  0  0  0
   -0.4086    5.4322   -1.0859 C   0  0  0  0  0  0  0  0  0  0  0  0
    1.2912    4.9604   -1.6078 S   0  0  0  0  0  0  0  0  0  0  0  0
    1.1768    7.2076    0.9442 H   0  0  0  0  0  0  0  0  0  0  0  0
   -1.4916    6.1495    0.6216 H   0  0  0  0  0  0  0  0  0  0  0  0
   -1.0683    4.5675   -1.1681 H   0  0  0  0  0  0  0  0  0  0  0  0
   -0.7942    6.1947   -1.7706 H   0  0  0  0  0  0  0  0  0  0  0  0
   -0.4161    3.6381    1.4121 N   0  0  0  0  0  0  0  0  0  0  0  0
    0.0610    2.6310    2.3509 C   0  0  0  0  0  0  0  0  0  0  0  0
   -0.9999    3.3270    0.6312 H   0  0  0  0  0  0  0  0  0  0  0  0
    1.1406    2.4846    2.2418 H   0  0  0  0  0  0  0  0  0  0  0  0
   -0.1511    2.9345    3.3813 H   0  0  0  0  0  0  0  0  0  0  0  0
   -0.4389    1.6755    2.1632 H   0  0  0  0  0  0  0  0  0  0  0  0
   -5.6198    1.2840   -1.2557 C   0  0  0  0  0  0  0  0  0  0  0  0
   -5.9887    0.3678   -1.9726 O   0  0  0  0  0  0  0  0  0  0  0  0
   -6.5558    1.8529   -0.2062 C   0  0  0  0  0  0  0  0  0  0  0  0
   -6.7239    2.9163   -0.3925 H   0  0  0  0  0  0  0  0  0  0  0  0
   -7.5176    1.3333   -0.2387 H   0  0  0  0  0  0  0  0  0  0  0  0
   -6.1221    1.7279    0.7888 H   0  0  0  0  0  0  0  0  0  0  0  0
   -4.3448    1.7921   -1.3907 N   0  0  0  0  0  0  0  0  0  0  0  0
   -3.3204    1.2293   -2.2816 C   0  0  2  0  0  0  0  0  0  0  0  0
   -1.8967    1.3652   -1.7021 C   0  0  0  0  0  0  0  0  0  0  0  0
   -1.6898    2.1716   -0.8001 O   0  0  0  0  0  0  0  0  0  0  0  0
   -3.4089    1.9482   -3.6308 C   0  0  0  0  0  0  0  0  0  0  0  0
   -4.0415    2.4865   -0.7106 H   0  0  0  0  0  0  0  0  0  0  0  0
   -3.5106    0.1608   -2.4306 H   0  0  0  0  0  0  0  0  0  0  0  0
   -3.2123    3.0184   -3.5087 H   0  0  0  0  0  0  0  0  0  0  0  0
   -2.6778    1.5385   -4.3345 H   0  0  0  0  0  0  0  0  0  0  0  0
   -4.4077    1.8235   -4.0614 H   0  0  0  0  0  0  0  0  0  0  0  0
   -0.9012    0.5143   -2.1559 N   0  0  0  0  0  0  0  0  0  0  0  0
    0.5694    0.6100   -2.0048 C   0  0  2  0  0  0  0  0  0  0  0  0
    1.1035   -0.6205   -1.2443 C   0  0  0  0  0  0  0  0  0  0  0  0
    0.8999   -1.7330   -1.7146 O   0  0  0  0  0  0  0  0  0  0  0  0
    1.1516    1.9480   -1.5105 C   0  0  0  0  0  0  0  0  0  0  0  0
    0.8397    3.2735   -2.7484 S   0  0  0  0  0  0  0  0  0  0  0  0
   -1.2234   -0.2170   -2.7866 H   0  0  0  0  0  0  0  0  0  0  0  0
    0.9791    0.4986   -3.0140 H   0  0  0  0  0  0  0  0  0  0  0  0
    0.7358    2.2183   -0.5390 H   0  0  0  0  0  0  0  0  0  0  0  0
    2.2347    1.8570   -1.3829 H   0  0  0  0  0  0  0  0  0  0  0  0
    1.7808   -0.5066   -0.0434 N   0  0  0  0  0  0  0  0  0  0  0  0
    2.1304   -1.6437    0.8207 C   0  0  2  0  0  0  0  0  0  0  0  0
    1.8039   -1.3479    2.2996 C   0  0  0  0  0  0  0  0  0  0  0  0
    1.5900   -0.1957    2.6590 O   0  0  0  0  0  0  0  0  0  0  0  0
    3.6234   -1.9313    0.6435 C   0  0  0  0  0  0  0  0  0  0  0  0
    1.7451    0.4043    0.4143 H   0  0  0  0  0  0  0  0  0  0  0  0
    1.5576   -2.5320    0.5343 H   0  0  0  0  0  0  0  0  0  0  0  0
    4.2197   -1.0641    0.9458 H   0  0  0  0  0  0  0  0  0  0  0  0
    3.9246   -2.7900    1.2513 H   0  0  0  0  0  0  0  0  0  0  0  0
    3.8427   -2.1572   -0.4049 H   0  0  0  0  0  0  0  0  0  0  0  0
    1.7375   -2.3705    3.2280 N   0  0  0  0  0  0  0  0  0  0  0  0
    1.4193   -2.1539    4.6346 C   0  0  0  0  0  0  0  0  0  0  0  0
    1.9070   -3.3177    2.9019 H   0  0  0  0  0  0  0  0  0  0  0  0
    2.1820   -1.5256    5.1065 H   0  0  0  0  0  0  0  0  0  0  0  0
    0.4451   -1.6641    4.7373 H   0  0  0  0  0  0  0  0  0  0  0  0
    1.3811   -3.1096    5.1660 H   0  0  0  0  0  0  0  0  0  0  0  0
  1  2  2  0  0  0  0
  1  3  1  0  0  0  0
  1  7  1  0  0  0  0
  3  4  1  0  0  0  0
  3  5  1  0  0  0  0
  3  6  1  0  0  0  0
  7  8  1  0  0  0  0
  7 13  1  0  0  0  0
  8  9  1  0  0  0  0
  8 11  1  0  0  0  0
  8 14  1  0  0  0  0
  9 10  2  0  0  0  0
  9 17  1  0  0  0  0
 11 12  1  0  0  0  0
 11 15  1  0  0  0  0
 11 16  1  0  0  0  0
 12 44  1  0  0  0  0
 17 18  1  0  0  0  0
 17 19  1  0  0  0  0
 18 20  1  0  0  0  0
 18 21  1  0  0  0  0
 18 22  1  0  0  0  0
 23 24  2  0  0  0  0
 23 25  1  0  0  0  0
 23 29  1  0  0  0  0
 25 26  1  0  0  0  0
 25 27  1  0  0  0  0
 25 28  1  0  0  0  0
 29 30  1  0  0  0  0
 29 34  1  0  0  0  0
 30 31  1  0  0  0  0
 30 33  1  0  0  0  0
 30 35  1  0  0  0  0
 31 32  2  0  0  0  0
 31 39  1  0  0  0  0
 33 36  1  0  0  0  0
 33 37  1  0  0  0  0
 33 38  1  0  0  0  0
 39 40  1  0  0  0  0
 39 45  1  0  0  0  0
 40 41  1  0  0  0  0
 40 43  1  0  0  0  0
 40 46  1  0  0  0  0
 41 42  2  0  0  0  0
 41 49  1  0  0  0  0
 43 44  1  0  0  0  0
 43 47  1  0  0  0  0
 43 48  1  0  0  0  0
 49 50  1  0  0  0  0
 49 54  1  0  0  0  0
 50 51  1  0  0  0  0
 50 53  1  0  0  0  0
 50 55  1  0  0  0  0
 51 52  2  0  0  0  0
 51 59  1  0  0  0  0
 53 56  1  0  0  0  0
 53 57  1  0  0  0  0
 53 58  1  0  0  0  0
 59 60  1  0  0  0  0
 59 61  1  0  0  0  0
 60 62  1  0  0  0  0
 60 63  1  0  0  0  0
 60 64  1  0  0  0  0
M  END
$$$$

  -OEChem-05262216053D

 64 63  0     1  0  0  0  0  0999 V2000
   -0.1860    8.4440    0.0585 C   0  0  0  0  0  0  0  0  0  0  0  0
   -1.2626    8.5491   -0.5088 O   0  0  0  0  0  0  0  0  0  0  0  0
    0.6560    9.6766    0.3270 C   0  0  0  0  0  0  0  0  0  0  0  0
    1.6114    9.5969   -0.1974 H   0  0  0  0  0  0  0  0  0  0  0  0
    0.1352   10.5721   -0.0236 H   0  0  0  0  0  0  0  0  0  0  0  0
    0.8430    9.7742    1.3990 H   0  0  0  0  0  0  0  0  0  0  0  0
    0.2612    7.2047    0.4600 N   0  0  0  0  0  0  0  0  0  0  0  0
   -0.5088    5.9590    0.3340 C   0  0  2  0  0  0  0  0  0  0  0  0
   -0.0624    4.9007    1.3696 C   0  0  0  0  0  0  0  0  0  0  0  0
    0.7723    5.1999    2.2190 O   0  0  0  0  0  0  0  0  0  0  0  0
   -0.3912    5.4336   -1.1021 C   0  0  0  0  0  0  0  0  0  0  0  0
    1.3298    4.9348   -1.5182 S   0  0  0  0  0  0  0  0  0  0  0  0
    1.1072    7.1646    1.0271 H   0  0  0  0  0  0  0  0  0  0  0  0
   -1.5633    6.1707    0.5398 H   0  0  0  0  0  0  0  0  0  0  0  0
   -1.0608    4.5831   -1.2302 H   0  0  0  0  0  0  0  0  0  0  0  0
   -0.7180    6.2056   -1.8054 H   0  0  0  0  0  0  0  0  0  0  0  0
   -0.6308    3.6393    1.4039 N   0  0  0  0  0  0  0  0  0  0  0  0
   -0.2347    2.6104    2.3578 C   0  0  0  0  0  0  0  0  0  0  0  0
   -1.1942    3.3515    0.5990 H   0  0  0  0  0  0  0  0  0  0  0  0
    0.7989    2.2976    2.1790 H   0  0  0  0  0  0  0  0  0  0  0  0
   -0.3169    2.9806    3.3848 H   0  0  0  0  0  0  0  0  0  0  0  0
   -0.8857    1.7365    2.2573 H   0  0  0  0  0  0  0  0  0  0  0  0
   -5.2030    0.9669   -1.0398 C   0  0  0  0  0  0  0  0  0  0  0  0
   -5.1218   -0.2214   -1.3065 O   0  0  0  0  0  0  0  0  0  0  0  0
   -6.1609    1.4404    0.0369 C   0  0  0  0  0  0  0  0  0  0  0  0
   -6.7913    2.2447   -0.3499 H   0  0  0  0  0  0  0  0  0  0  0  0
   -6.8027    0.6155    0.3585 H   0  0  0  0  0  0  0  0  0  0  0  0
   -5.5999    1.8080    0.8996 H   0  0  0  0  0  0  0  0  0  0  0  0
   -4.4082    1.8810   -1.7005 N   0  0  0  0  0  0  0  0  0  0  0  0
   -3.2964    1.4887   -2.5796 C   0  0  2  0  0  0  0  0  0  0  0  0
   -1.9392    1.4673   -1.8453 C   0  0  0  0  0  0  0  0  0  0  0  0
   -1.7559    2.2334   -0.9049 O   0  0  0  0  0  0  0  0  0  0  0  0
   -3.2474    2.4853   -3.7397 C   0  0  0  0  0  0  0  0  0  0  0  0
   -4.3723    2.8120   -1.2941 H   0  0  0  0  0  0  0  0  0  0  0  0
   -3.4756    0.4909   -2.9939 H   0  0  0  0  0  0  0  0  0  0  0  0
   -3.0536    3.4973   -3.3696 H   0  0  0  0  0  0  0  0  0  0  0  0
   -2.4527    2.2156   -4.4425 H   0  0  0  0  0  0  0  0  0  0  0  0
   -4.2001    2.4866   -4.2788 H   0  0  0  0  0  0  0  0  0  0  0  0
   -0.9583    0.5752   -2.2487 N   0  0  0  0  0  0  0  0  0  0  0  0
    0.5026    0.6175   -2.0059 C   0  0  2  0  0  0  0  0  0  0  0  0
    0.9513   -0.6292   -1.2237 C   0  0  0  0  0  0  0  0  0  0  0  0
    1.0121   -1.7041   -1.8067 O   0  0  0  0  0  0  0  0  0  0  0  0
    1.1092    1.9259   -1.4639 C   0  0  0  0  0  0  0  0  0  0  0  0
    0.9256    3.2704   -2.7075 S   0  0  0  0  0  0  0  0  0  0  0  0
   -1.2670   -0.1126   -2.9326 H   0  0  0  0  0  0  0  0  0  0  0  0
    0.9689    0.4982   -2.9892 H   0  0  0  0  0  0  0  0  0  0  0  0
    0.6475    2.2107   -0.5175 H   0  0  0  0  0  0  0  0  0  0  0  0
    2.1774    1.7853   -1.2679 H   0  0  0  0  0  0  0  0  0  0  0  0
    1.2704   -0.5645    0.1197 N   0  0  0  0  0  0  0  0  0  0  0  0
    1.5666   -1.7357    0.9550 C   0  0  2  0  0  0  0  0  0  0  0  0
    1.0507   -1.5563    2.3976 C   0  0  0  0  0  0  0  0  0  0  0  0
    0.6993   -0.4505    2.7932 O   0  0  0  0  0  0  0  0  0  0  0  0
    3.0821   -1.9525    0.9449 C   0  0  0  0  0  0  0  0  0  0  0  0
    1.0197    0.2929    0.6124 H   0  0  0  0  0  0  0  0  0  0  0  0
    1.0719   -2.6226    0.5445 H   0  0  0  0  0  0  0  0  0  0  0  0
    3.5961   -1.0826    1.3664 H   0  0  0  0  0  0  0  0  0  0  0  0
    3.3490   -2.8348    1.5338 H   0  0  0  0  0  0  0  0  0  0  0  0
    3.4361   -2.1028   -0.0800 H   0  0  0  0  0  0  0  0  0  0  0  0
    0.9696   -2.6399    3.2520 N   0  0  0  0  0  0  0  0  0  0  0  0
    0.4654   -2.5482    4.6169 C   0  0  0  0  0  0  0  0  0  0  0  0
    1.2424   -3.5483    2.8883 H   0  0  0  0  0  0  0  0  0  0  0  0
    1.0583   -1.8339    5.1981 H   0  0  0  0  0  0  0  0  0  0  0  0
   -0.5800   -2.2222    4.6190 H   0  0  0  0  0  0  0  0  0  0  0  0
    0.5238   -3.5247    5.1073 H   0  0  0  0  0  0  0  0  0  0  0  0
  1  2  2  0  0  0  0
  1  3  1  0  0  0  0
  1  7  1  0  0  0  0
  3  4  1  0  0  0  0
  3  5  1  0  0  0  0
  3  6  1  0  0  0  0
  7  8  1  0  0  0  0
  7 13  1  0  0  0  0
  8  9  1  0  0  0  0
  8 11  1  0  0  0  0
  8 14  1  0  0  0  0
  9 10  2  0  0  0  0
  9 17  1  0  0  0  0
 11 12  1  0  0  0  0
 11 15  1  0  0  0  0
 11 16  1  0  0  0  0
 12 44  1  0  0  0  0
 17 18  1  0  0  0  0
 17 19  1  0  0  0  0
 18 20  1  0  0  0  0
 18 21  1  0  0  0  0
 18 22  1  0  0  0  0
 23 24  2  0  0  0  0
 23 25  1  0  0  0  0
 23 29  1  0  0  0  0
 25 26  1  0  0  0  0
 25 27  1  0  0  0  0
 25 28  1  0  0  0  0
 29 30  1  0  0  0  0
 29 34  1  0  0  0  0
 30 31  1  0  0  0  0
 30 33  1  0  0  0  0
 30 35  1  0  0  0  0
 31 32  2  0  0  0  0
 31 39  1  0  0  0  0
 33 36  1  0  0  0  0
 33 37  1  0  0  0  0
 33 38  1  0  0  0  0
 39 40  1  0  0  0  0
 39 45  1  0  0  0  0
 40 41  1  0  0  0  0
 40 43  1  0  0  0  0
 40 46  1  0  0  0  0
 41 42  2  0  0  0  0
 41 49  1  0  0  0  0
 43 44  1  0  0  0  0
 43 47  1  0  0  0  0
 43 48  1  0  0  0  0
 49 50  1  0  0  0  0
 49 54  1  0  0  0  0
 50 51  1  0  0  0  0
 50 53  1  0  0  0  0
 50 55  1  0  0  0  0
 51 52  2  0  0  0  0
 51 59  1  0  0  0  0
 53 56  1  0  0  0  0
 53 57  1  0  0  0  0
 53 58  1  0  0  0  0
 59 60  1  0  0  0  0
 59 61  1  0  0  0  0
 60 62  1  0  0  0  0
 60 63  1  0  0  0  0
 60 64  1  0  0  0  0
M  END
$$$$

  -OEChem-05262216053D

 64 63  0     1  0  0  0  0  0999 V2000
   -0.2701    8.3647    0.0349 C   0  0  0  0  0  0  0  0  0  0  0  0
   -1.3634    8.4254   -0.5069 O   0  0  0  0  0  0  0  0  0  0  0  0
    0.5269    9.6313    0.2831 C   0  0  0  0  0  0  0  0  0  0  0  0
    1.4568    9.6043   -0.2904 H   0  0  0  0  0  0  0  0  0  0  0  0
   -0.0515   10.5072   -0.0249 H   0  0  0  0  0  0  0  0  0  0  0  0
    0.7639    9.7213    1.3461 H   0  0  0  0  0  0  0  0  0  0  0  0
    0.2371    7.1443    0.4240 N   0  0  0  0  0  0  0  0  0  0  0  0
   -0.4932    5.8729    0.3250 C   0  0  2  0  0  0  0  0  0  0  0  0
    0.0054    4.8355    1.3568 C   0  0  0  0  0  0  0  0  0  0  0  0
    0.8592    5.1573    2.1782 O   0  0  0  0  0  0  0  0  0  0  0  0
   -0.3935    5.3418   -1.1104 C   0  0  0  0  0  0  0  0  0  0  0  0
    1.3242    4.8563   -1.5552 S   0  0  0  0  0  0  0  0  0  0  0  0
    1.0962    7.1390    0.9725 H   0  0  0  0  0  0  0  0  0  0  0  0
   -1.5487    6.0520    0.5549 H   0  0  0  0  0  0  0  0  0  0  0  0
   -1.0557    4.4839   -1.2217 H   0  0  0  0  0  0  0  0  0  0  0  0
   -0.7413    6.1052   -1.8130 H   0  0  0  0  0  0  0  0  0  0  0  0
   -0.5551    3.5727    1.4291 N   0  0  0  0  0  0  0  0  0  0  0  0
   -0.1647    2.5727    2.4145 C   0  0  0  0  0  0  0  0  0  0  0  0
   -1.1475    3.2702    0.6509 H   0  0  0  0  0  0  0  0  0  0  0  0
    0.8256    2.1675    2.1833 H   0  0  0  0  0  0  0  0  0  0  0  0
   -0.1426    3.0054    3.4201 H   0  0  0  0  0  0  0  0  0  0  0  0
   -0.8886    1.7526    2.4144 H   0  0  0  0  0  0  0  0  0  0  0  0
   -5.1572    0.9486   -1.1802 C   0  0  0  0  0  0  0  0  0  0  0  0
   -5.0155   -0.2068   -1.5488 O   0  0  0  0  0  0  0  0  0  0  0  0
   -6.1273    1.2819   -0.0635 C   0  0  0  0  0  0  0  0  0  0  0  0
   -6.8209    2.0609   -0.3892 H   0  0  0  0  0  0  0  0  0  0  0  0
   -6.6999    0.3928    0.2148 H   0  0  0  0  0  0  0  0  0  0  0  0
   -5.5773    1.6364    0.8116 H   0  0  0  0  0  0  0  0  0  0  0  0
   -4.4020    1.9516   -1.7512 N   0  0  0  0  0  0  0  0  0  0  0  0
   -3.2559    1.6723   -2.6267 C   0  0  2  0  0  0  0  0  0  0  0  0
   -1.9466    1.4779   -1.8346 C   0  0  0  0  0  0  0  0  0  0  0  0
   -1.7462    2.1563   -0.8324 O   0  0  0  0  0  0  0  0  0  0  0  0
   -3.1080    2.8478   -3.5954 C   0  0  0  0  0  0  0  0  0  0  0  0
   -4.4161    2.8467   -1.2701 H   0  0  0  0  0  0  0  0  0  0  0  0
   -3.4435    0.7663   -3.2129 H   0  0  0  0  0  0  0  0  0  0  0  0
   -2.9167    3.7771   -3.0485 H   0  0  0  0  0  0  0  0  0  0  0  0
   -2.2737    2.6724   -4.2818 H   0  0  0  0  0  0  0  0  0  0  0  0
   -4.0211    2.9715   -4.1859 H   0  0  0  0  0  0  0  0  0  0  0  0
   -1.0169    0.5405   -2.2531 N   0  0  0  0  0  0  0  0  0  0  0  0
    0.4494    0.5507   -2.0432 C   0  0  2  0  0  0  0  0  0  0  0  0
    0.8873   -0.6898   -1.2475 C   0  0  0  0  0  0  0  0  0  0  0  0
    1.1781   -1.7177   -1.8450 O   0  0  0  0  0  0  0  0  0  0  0  0
    1.0938    1.8461   -1.5139 C   0  0  0  0  0  0  0  0  0  0  0  0
    0.9110    3.1972   -2.7505 S   0  0  0  0  0  0  0  0  0  0  0  0
   -1.3463   -0.0723   -2.9958 H   0  0  0  0  0  0  0  0  0  0  0  0
    0.8933    0.4139   -3.0353 H   0  0  0  0  0  0  0  0  0  0  0  0
    0.6629    2.1384   -0.5548 H   0  0  0  0  0  0  0  0  0  0  0  0
    2.1625    1.6805   -1.3438 H   0  0  0  0  0  0  0  0  0  0  0  0
    0.9380   -0.6622    0.1331 N   0  0  0  0  0  0  0  0  0  0  0  0
    1.1938   -1.8397    0.9726 C   0  0  2  0  0  0  0  0  0  0  0  0
    0.3936   -1.7883    2.2900 C   0  0  0  0  0  0  0  0  0  0  0  0
   -0.0703   -0.7256    2.6872 O   0  0  0  0  0  0  0  0  0  0  0  0
    2.6965   -1.9031    1.2589 C   0  0  0  0  0  0  0  0  0  0  0  0
    0.5016    0.1389    0.5908 H   0  0  0  0  0  0  0  0  0  0  0  0
    0.8873   -2.7480    0.4431 H   0  0  0  0  0  0  0  0  0  0  0  0
    3.0197   -1.0098    1.8033 H   0  0  0  0  0  0  0  0  0  0  0  0
    2.9369   -2.7846    1.8609 H   0  0  0  0  0  0  0  0  0  0  0  0
    3.2585   -1.9624    0.3213 H   0  0  0  0  0  0  0  0  0  0  0  0
    0.1884   -2.9371    3.0312 N   0  0  0  0  0  0  0  0  0  0  0  0
   -0.5874   -2.9657    4.2656 C   0  0  0  0  0  0  0  0  0  0  0  0
    0.5507   -3.8097    2.6579 H   0  0  0  0  0  0  0  0  0  0  0  0
   -0.1586   -2.2814    5.0055 H   0  0  0  0  0  0  0  0  0  0  0  0
   -1.6248   -2.6723    4.0729 H   0  0  0  0  0  0  0  0  0  0  0  0
   -0.5864   -3.9747    4.6891 H   0  0  0  0  0  0  0  0  0  0  0  0
  1  2  2  0  0  0  0
  1  3  1  0  0  0  0
  1  7  1  0  0  0  0
  3  4  1  0  0  0  0
  3  5  1  0  0  0  0
  3  6  1  0  0  0  0
  7  8  1  0  0  0  0
  7 13  1  0  0  0  0
  8  9  1  0  0  0  0
  8 11  1  0  0  0  0
  8 14  1  0  0  0  0
  9 10  2  0  0  0  0
  9 17  1  0  0  0  0
 11 12  1  0  0  0  0
 11 15  1  0  0  0  0
 11 16  1  0  0  0  0
 12 44  1  0  0  0  0
 17 18  1  0  0  0  0
 17 19  1  0  0  0  0
 18 20  1  0  0  0  0
 18 21  1  0  0  0  0
 18 22  1  0  0  0  0
 23 24  2  0  0  0  0
 23 25  1  0  0  0  0
 23 29  1  0  0  0  0
 25 26  1  0  0  0  0
 25 27  1  0  0  0  0
 25 28  1  0  0  0  0
 29 30  1  0  0  0  0
 29 34  1  0  0  0  0
 30 31  1  0  0  0  0
 30 33  1  0  0  0  0
 30 35  1  0  0  0  0
 31 32  2  0  0  0  0
 31 39  1  0  0  0  0
 33 36  1  0  0  0  0
 33 37  1  0  0  0  0
 33 38  1  0  0  0  0
 39 40  1  0  0  0  0
 39 45  1  0  0  0  0
 40 41  1  0  0  0  0
 40 43  1  0  0  0  0
 40 46  1  0  0  0  0
 41 42  2  0  0  0  0
 41 49  1  0  0  0  0
 43 44  1  0  0  0  0
 43 47  1  0  0  0  0
 43 48  1  0  0  0  0
 49 50  1  0  0  0  0
 49 54  1  0  0  0  0
 50 51  1  0  0  0  0
 50 53  1  0  0  0  0
 50 55  1  0  0  0  0
 51 52  2  0  0  0  0
 51 59  1  0  0  0  0
 53 56  1  0  0  0  0
 53 57  1  0  0  0  0
 53 58  1  0  0  0  0
 59 60  1  0  0  0  0
 59 61  1  0  0  0  0
 60 62  1  0  0  0  0
 60 63  1  0  0  0  0
 60 64  1  0  0  0  0
M  END
$$$$

  -OEChem-05262216053D

 64 63  0     1  0  0  0  0  0999 V2000
    1.1047    8.6426    0.0420 C   0  0  0  0  0  0  0  0  0  0  0  0
    0.0131    9.0514   -0.3218 O   0  0  0  0  0  0  0  0  0  0  0  0
    2.2256    9.6231    0.3317 C   0  0  0  0  0  0  0  0  0  0  0  0
    3.0602    9.4482   -0.3513 H   0  0  0  0  0  0  0  0  0  0  0  0
    1.8706   10.6490    0.2001 H   0  0  0  0  0  0  0  0  0  0  0  0
    2.5729    9.5003    1.3604 H   0  0  0  0  0  0  0  0  0  0  0  0
    1.3124    7.2916    0.2137 N   0  0  0  0  0  0  0  0  0  0  0  0
    0.2585    6.2713    0.1103 C   0  0  2  0  0  0  0  0  0  0  0  0
    0.5305    5.0665    1.0400 C   0  0  0  0  0  0  0  0  0  0  0  0
    1.5019    5.0762    1.7914 O   0  0  0  0  0  0  0  0  0  0  0  0
    0.1011    5.8502   -1.3569 C   0  0  0  0  0  0  0  0  0  0  0  0
    1.6157    5.0470   -2.0255 S   0  0  0  0  0  0  0  0  0  0  0  0
    2.1916    7.0006    0.6380 H   0  0  0  0  0  0  0  0  0  0  0  0
   -0.6914    6.7029    0.4429 H   0  0  0  0  0  0  0  0  0  0  0  0
   -0.7468    5.1701   -1.4519 H   0  0  0  0  0  0  0  0  0  0  0  0
   -0.1283    6.7310   -1.9649 H   0  0  0  0  0  0  0  0  0  0  0  0
   -0.3569    4.0087    1.1218 N   0  0  0  0  0  0  0  0  0  0  0  0
   -0.1786    2.8815    2.0267 C   0  0  0  0  0  0  0  0  0  0  0  0
   -1.0435    3.9166    0.3663 H   0  0  0  0  0  0  0  0  0  0  0  0
    0.7743    2.3786    1.8318 H   0  0  0  0  0  0  0  0  0  0  0  0
   -0.1912    3.2214    3.0675 H   0  0  0  0  0  0  0  0  0  0  0  0
   -0.9899    2.1591    1.8900 H   0  0  0  0  0  0  0  0  0  0  0  0
   -3.8269   -0.9043   -1.9564 C   0  0  0  0  0  0  0  0  0  0  0  0
   -3.5286   -0.7902   -3.1352 O   0  0  0  0  0  0  0  0  0  0  0  0
   -3.9269   -2.2820   -1.3331 C   0  0  0  0  0  0  0  0  0  0  0  0
   -4.7209   -2.2970   -0.5829 H   0  0  0  0  0  0  0  0  0  0  0  0
   -4.1554   -3.0252   -2.1020 H   0  0  0  0  0  0  0  0  0  0  0  0
   -2.9785   -2.5442   -0.8588 H   0  0  0  0  0  0  0  0  0  0  0  0
   -3.9352    0.2311   -1.1808 N   0  0  0  0  0  0  0  0  0  0  0  0
   -3.7003    1.5904   -1.7048 C   0  0  2  0  0  0  0  0  0  0  0  0
   -2.1916    1.9379   -1.7179 C   0  0  0  0  0  0  0  0  0  0  0  0
   -1.7797    2.9245   -1.1213 O   0  0  0  0  0  0  0  0  0  0  0  0
   -4.5372    2.5511   -0.8499 C   0  0  0  0  0  0  0  0  0  0  0  0
   -3.7934    0.0817   -0.1788 H   0  0  0  0  0  0  0  0  0  0  0  0
   -4.0593    1.6635   -2.7373 H   0  0  0  0  0  0  0  0  0  0  0  0
   -4.2077    2.5251    0.1940 H   0  0  0  0  0  0  0  0  0  0  0  0
   -4.4377    3.5760   -1.2213 H   0  0  0  0  0  0  0  0  0  0  0  0
   -5.5946    2.2724   -0.8898 H   0  0  0  0  0  0  0  0  0  0  0  0
   -1.3239    0.9374   -2.1163 N   0  0  0  0  0  0  0  0  0  0  0  0
    0.1511    0.8727   -2.1140 C   0  0  2  0  0  0  0  0  0  0  0  0
    0.5230   -0.3087   -1.2078 C   0  0  0  0  0  0  0  0  0  0  0  0
    0.7278   -1.4233   -1.6685 O   0  0  0  0  0  0  0  0  0  0  0  0
    0.9706    2.1337   -1.7857 C   0  0  0  0  0  0  0  0  0  0  0  0
    0.7501    3.4476   -3.0529 S   0  0  0  0  0  0  0  0  0  0  0  0
   -1.8054    0.1564   -2.5723 H   0  0  0  0  0  0  0  0  0  0  0  0
    0.4538    0.5906   -3.1277 H   0  0  0  0  0  0  0  0  0  0  0  0
    0.6922    2.5194   -0.8043 H   0  0  0  0  0  0  0  0  0  0  0  0
    2.0335    1.8755   -1.7419 H   0  0  0  0  0  0  0  0  0  0  0  0
    0.3974   -0.1272    0.1577 N   0  0  0  0  0  0  0  0  0  0  0  0
    0.1646   -1.2375    1.0906 C   0  0  2  0  0  0  0  0  0  0  0  0
   -1.3374   -1.4510    1.3960 C   0  0  0  0  0  0  0  0  0  0  0  0
   -2.1781   -0.6084    1.0868 O   0  0  0  0  0  0  0  0  0  0  0  0
    0.9327   -0.9259    2.3769 C   0  0  0  0  0  0  0  0  0  0  0  0
   -0.0409    0.7589    0.4026 H   0  0  0  0  0  0  0  0  0  0  0  0
    0.5579   -2.1707    0.6739 H   0  0  0  0  0  0  0  0  0  0  0  0
    0.5388   -0.0218    2.8513 H   0  0  0  0  0  0  0  0  0  0  0  0
    0.8466   -1.7553    3.0853 H   0  0  0  0  0  0  0  0  0  0  0  0
    1.9935   -0.7710    2.1560 H   0  0  0  0  0  0  0  0  0  0  0  0
   -1.7520   -2.5957    2.0517 N   0  0  0  0  0  0  0  0  0  0  0  0
   -3.1262   -2.8357    2.4770 C   0  0  0  0  0  0  0  0  0  0  0  0
   -1.0392   -3.2776    2.2978 H   0  0  0  0  0  0  0  0  0  0  0  0
   -3.4771   -2.0221    3.1205 H   0  0  0  0  0  0  0  0  0  0  0  0
   -3.7906   -2.9123    1.6113 H   0  0  0  0  0  0  0  0  0  0  0  0
   -3.1879   -3.7708    3.0420 H   0  0  0  0  0  0  0  0  0  0  0  0
  1  2  2  0  0  0  0
  1  3  1  0  0  0  0
  1  7  1  0  0  0  0
  3  4  1  0  0  0  0
  3  5  1  0  0  0  0
  3  6  1  0  0  0  0
  7  8  1  0  0  0  0
  7 13  1  0  0  0  0
  8  9  1  0  0  0  0
  8 11  1  0  0  0  0
  8 14  1  0  0  0  0
  9 10  2  0  0  0  0
  9 17  1  0  0  0  0
 11 12  1  0  0  0  0
 11 15  1  0  0  0  0
 11 16  1  0  0  0  0
 12 44  1  0  0  0  0
 17 18  1  0  0  0  0
 17 19  1  0  0  0  0
 18 20  1  0  0  0  0
 18 21  1  0  0  0  0
 18 22  1  0  0  0  0
 23 24  2  0  0  0  0
 23 25  1  0  0  0  0
 23 29  1  0  0  0  0
 25 26  1  0  0  0  0
 25 27  1  0  0  0  0
 25 28  1  0  0  0  0
 29 30  1  0  0  0  0
 29 34  1  0  0  0  0
 30 31  1  0  0  0  0
 30 33  1  0  0  0  0
 30 35  1  0  0  0  0
 31 32  2  0  0  0  0
 31 39  1  0  0  0  0
 33 36  1  0  0  0  0
 33 37  1  0  0  0  0
 33 38  1  0  0  0  0
 39 40  1  0  0  0  0
 39 45  1  0  0  0  0
 40 41  1  0  0  0  0
 40 43  1  0  0  0  0
 40 46  1  0  0  0  0
 41 42  2  0  0  0  0
 41 49  1  0  0  0  0
 43 44  1  0  0  0  0
 43 47  1  0  0  0  0
 43 48  1  0  0  0  0
 49 50  1  0  0  0  0
 49 54  1  0  0  0  0
 50 51  1  0  0  0  0
 50 53  1  0  0  0  0
 50 55  1  0  0  0  0
 51 52  2  0  0  0  0
 51 59  1  0  0  0  0
 53 56  1  0  0  0  0
 53 57  1  0  0  0  0
 53 58  1  0  0  0  0
 59 60  1  0  0  0  0
 59 61  1  0  0  0  0
 60 62  1  0  0  0  0
 60 63  1  0  0  0  0
 60 64  1  0  0  0  0
M  END
$$$$

  -OEChem-05262216053D

 64 63  0     1  0  0  0  0  0999 V2000
   -0.1852    8.2888    0.2565 C   0  0  0  0  0  0  0  0  0  0  0  0
   -1.3520    8.3799   -0.0932 O   0  0  0  0  0  0  0  0  0  0  0  0
    0.6480    9.5395    0.4627 C   0  0  0  0  0  0  0  0  0  0  0  0
    1.4684    9.5629   -0.2587 H   0  0  0  0  0  0  0  0  0  0  0  0
    0.0299   10.4309    0.3231 H   0  0  0  0  0  0  0  0  0  0  0  0
    1.0604    9.5513    1.4745 H   0  0  0  0  0  0  0  0  0  0  0  0
    0.3737    7.0473    0.4677 N   0  0  0  0  0  0  0  0  0  0  0  0
   -0.3675    5.7800    0.3913 C   0  0  2  0  0  0  0  0  0  0  0  0
    0.2478    4.6915    1.3006 C   0  0  0  0  0  0  0  0  0  0  0  0
    1.2122    4.9616    2.0106 O   0  0  0  0  0  0  0  0  0  0  0  0
   -0.4477    5.3328   -1.0747 C   0  0  0  0  0  0  0  0  0  0  0  0
    1.2043    4.9193   -1.7717 S   0  0  0  0  0  0  0  0  0  0  0  0
    1.3102    7.0098    0.8679 H   0  0  0  0  0  0  0  0  0  0  0  0
   -1.3867    5.9415    0.7575 H   0  0  0  0  0  0  0  0  0  0  0  0
   -1.1047    4.4663   -1.1523 H   0  0  0  0  0  0  0  0  0  0  0  0
   -0.8975    6.1288   -1.6764 H   0  0  0  0  0  0  0  0  0  0  0  0
   -0.3211    3.4340    1.4006 N   0  0  0  0  0  0  0  0  0  0  0  0
    0.2118    2.3817    2.2562 C   0  0  0  0  0  0  0  0  0  0  0  0
   -1.0092    3.1710    0.6896 H   0  0  0  0  0  0  0  0  0  0  0  0
    1.2188    2.0967    1.9343 H   0  0  0  0  0  0  0  0  0  0  0  0
    0.2560    2.7206    3.2966 H   0  0  0  0  0  0  0  0  0  0  0  0
   -0.4319    1.4975    2.2097 H   0  0  0  0  0  0  0  0  0  0  0  0
   -5.6387    1.2099   -1.3680 C   0  0  0  0  0  0  0  0  0  0  0  0
   -5.9695    0.3716   -2.1916 O   0  0  0  0  0  0  0  0  0  0  0  0
   -6.5944    1.6032   -0.2571 C   0  0  0  0  0  0  0  0  0  0  0  0
   -6.8139    2.6721   -0.3157 H   0  0  0  0  0  0  0  0  0  0  0  0
   -7.5303    1.0453   -0.3511 H   0  0  0  0  0  0  0  0  0  0  0  0
   -6.1491    1.3815    0.7160 H   0  0  0  0  0  0  0  0  0  0  0  0
   -4.3946    1.8016   -1.4477 N   0  0  0  0  0  0  0  0  0  0  0  0
   -3.3439    1.3915   -2.3901 C   0  0  2  0  0  0  0  0  0  0  0  0
   -1.9490    1.3747   -1.7335 C   0  0  0  0  0  0  0  0  0  0  0  0
   -1.7231    2.0967   -0.7675 O   0  0  0  0  0  0  0  0  0  0  0  0
   -3.3565    2.3619   -3.5739 C   0  0  0  0  0  0  0  0  0  0  0  0
   -4.1186    2.4073   -0.6771 H   0  0  0  0  0  0  0  0  0  0  0  0
   -3.5453    0.3791   -2.7568 H   0  0  0  0  0  0  0  0  0  0  0  0
   -3.1443    3.3821   -3.2377 H   0  0  0  0  0  0  0  0  0  0  0  0
   -2.6016    2.0762   -4.3128 H   0  0  0  0  0  0  0  0  0  0  0  0
   -4.3374    2.3515   -4.0598 H   0  0  0  0  0  0  0  0  0  0  0  0
   -0.9999    0.4588   -2.1534 N   0  0  0  0  0  0  0  0  0  0  0  0
    0.4768    0.5795   -2.0903 C   0  0  2  0  0  0  0  0  0  0  0  0
    1.0429   -0.5549   -1.2258 C   0  0  0  0  0  0  0  0  0  0  0  0
    1.7909   -1.3941   -1.7077 O   0  0  0  0  0  0  0  0  0  0  0  0
    1.0804    1.9297   -1.6687 C   0  0  0  0  0  0  0  0  0  0  0  0
    0.7004    3.2389   -2.9026 S   0  0  0  0  0  0  0  0  0  0  0  0
   -1.3457   -0.1885   -2.8581 H   0  0  0  0  0  0  0  0  0  0  0  0
    0.8495    0.4008   -3.1046 H   0  0  0  0  0  0  0  0  0  0  0  0
    0.7250    2.2207   -0.6802 H   0  0  0  0  0  0  0  0  0  0  0  0
    2.1689    1.8339   -1.5975 H   0  0  0  0  0  0  0  0  0  0  0  0
    0.6350   -0.6409    0.0909 N   0  0  0  0  0  0  0  0  0  0  0  0
    0.7976   -1.8378    0.9251 C   0  0  2  0  0  0  0  0  0  0  0  0
   -0.5724   -2.4090    1.3460 C   0  0  0  0  0  0  0  0  0  0  0  0
   -1.5620   -1.6841    1.3539 O   0  0  0  0  0  0  0  0  0  0  0  0
    1.6161   -1.4439    2.1561 C   0  0  0  0  0  0  0  0  0  0  0  0
   -0.1593   -0.0421    0.3236 H   0  0  0  0  0  0  0  0  0  0  0  0
    1.3325   -2.6222    0.3792 H   0  0  0  0  0  0  0  0  0  0  0  0
    1.0893   -0.6819    2.7392 H   0  0  0  0  0  0  0  0  0  0  0  0
    1.7882   -2.3141    2.7967 H   0  0  0  0  0  0  0  0  0  0  0  0
    2.5870   -1.0412    1.8516 H   0  0  0  0  0  0  0  0  0  0  0  0
   -0.6966   -3.7334    1.7228 N   0  0  0  0  0  0  0  0  0  0  0  0
   -1.9694   -4.3410    2.0929 C   0  0  0  0  0  0  0  0  0  0  0  0
    0.1304   -4.3210    1.6638 H   0  0  0  0  0  0  0  0  0  0  0  0
   -2.4136   -3.8117    2.9426 H   0  0  0  0  0  0  0  0  0  0  0  0
   -2.6689   -4.3063    1.2509 H   0  0  0  0  0  0  0  0  0  0  0  0
   -1.8221   -5.3873    2.3775 H   0  0  0  0  0  0  0  0  0  0  0  0
  1  2  2  0  0  0  0
  1  3  1  0  0  0  0
  1  7  1  0  0  0  0
  3  4  1  0  0  0  0
  3  5  1  0  0  0  0
  3  6  1  0  0  0  0
  7  8  1  0  0  0  0
  7 13  1  0  0  0  0
  8  9  1  0  0  0  0
  8 11  1  0  0  0  0
  8 14  1  0  0  0  0
  9 10  2  0  0  0  0
  9 17  1  0  0  0  0
 11 12  1  0  0  0  0
 11 15  1  0  0  0  0
 11 16  1  0  0  0  0
 12 44  1  0  0  0  0
 17 18  1  0  0  0  0
 17 19  1  0  0  0  0
 18 20  1  0  0  0  0
 18 21  1  0  0  0  0
 18 22  1  0  0  0  0
 23 24  2  0  0  0  0
 23 25  1  0  0  0  0
 23 29  1  0  0  0  0
 25 26  1  0  0  0  0
 25 27  1  0  0  0  0
 25 28  1  0  0  0  0
 29 30  1  0  0  0  0
 29 34  1  0  0  0  0
 30 31  1  0  0  0  0
 30 33  1  0  0  0  0
 30 35  1  0  0  0  0
 31 32  2  0  0  0  0
 31 39  1  0  0  0  0
 33 36  1  0  0  0  0
 33 37  1  0  0  0  0
 33 38  1  0  0  0  0
 39 40  1  0  0  0  0
 39 45  1  0  0  0  0
 40 41  1  0  0  0  0
 40 43  1  0  0  0  0
 40 46  1  0  0  0  0
 41 42  2  0  0  0  0
 41 49  1  0  0  0  0
 43 44  1  0  0  0  0
 43 47  1  0  0  0  0
 43 48  1  0  0  0  0
 49 50  1  0  0  0  0
 49 54  1  0  0  0  0
 50 51  1  0  0  0  0
 50 53  1  0  0  0  0
 50 55  1  0  0  0  0
 51 52  2  0  0  0  0
 51 59  1  0  0  0  0
 53 56  1  0  0  0  0
 53 57  1  0  0  0  0
 53 58  1  0  0  0  0
 59 60  1  0  0  0  0
 59 61  1  0  0  0  0
 60 62  1  0  0  0  0
 60 63  1  0  0  0  0
 60 64  1  0  0  0  0
M  END
$$$$

  -OEChem-05262216053D

 64 63  0     1  0  0  0  0  0999 V2000
    0.0931    8.4839    0.1843 C   0  0  0  0  0  0  0  0  0  0  0  0
   -1.0754    8.6906   -0.1047 O   0  0  0  0  0  0  0  0  0  0  0  0
    1.0513    9.6449    0.3701 C   0  0  0  0  0  0  0  0  0  0  0  0
    1.8479    9.5927   -0.3761 H   0  0  0  0  0  0  0  0  0  0  0  0
    0.5204   10.5939    0.2546 H   0  0  0  0  0  0  0  0  0  0  0  0
    1.4936    9.6078    1.3687 H   0  0  0  0  0  0  0  0  0  0  0  0
    0.5412    7.1931    0.3561 N   0  0  0  0  0  0  0  0  0  0  0  0
   -0.3220    6.0032    0.3340 C   0  0  2  0  0  0  0  0  0  0  0  0
    0.2263    4.8818    1.2463 C   0  0  0  0  0  0  0  0  0  0  0  0
    1.2289    5.0821    1.9260 O   0  0  0  0  0  0  0  0  0  0  0  0
   -0.5038    5.5364   -1.1172 C   0  0  0  0  0  0  0  0  0  0  0  0
    1.0889    5.0477   -1.8995 S   0  0  0  0  0  0  0  0  0  0  0  0
    1.4862    7.0668    0.7157 H   0  0  0  0  0  0  0  0  0  0  0  0
   -1.3062    6.2675    0.7346 H   0  0  0  0  0  0  0  0  0  0  0  0
   -1.2005    4.6972   -1.1464 H   0  0  0  0  0  0  0  0  0  0  0  0
   -0.9510    6.3442   -1.7053 H   0  0  0  0  0  0  0  0  0  0  0  0
   -0.4387    3.6762    1.3868 N   0  0  0  0  0  0  0  0  0  0  0  0
    0.0510    2.5982    2.2370 C   0  0  0  0  0  0  0  0  0  0  0  0
   -1.1355    3.4450    0.6735 H   0  0  0  0  0  0  0  0  0  0  0  0
    1.0507    2.2819    1.9215 H   0  0  0  0  0  0  0  0  0  0  0  0
    0.0980    2.9243    3.2812 H   0  0  0  0  0  0  0  0  0  0  0  0
   -0.6213    1.7376    2.1748 H   0  0  0  0  0  0  0  0  0  0  0  0
   -5.7225    1.4596   -0.7967 C   0  0  0  0  0  0  0  0  0  0  0  0
   -6.1253    0.3088   -0.8425 O   0  0  0  0  0  0  0  0  0  0  0  0
   -6.6257    2.5594   -0.2713 C   0  0  0  0  0  0  0  0  0  0  0  0
   -6.7419    3.3411   -1.0265 H   0  0  0  0  0  0  0  0  0  0  0  0
   -7.6124    2.1530   -0.0312 H   0  0  0  0  0  0  0  0  0  0  0  0
   -6.1944    2.9956    0.6329 H   0  0  0  0  0  0  0  0  0  0  0  0
   -4.4445    1.7631   -1.2169 N   0  0  0  0  0  0  0  0  0  0  0  0
   -3.4545    0.7697   -1.6591 C   0  0  2  0  0  0  0  0  0  0  0  0
   -2.0032    1.2526   -1.4333 C   0  0  0  0  0  0  0  0  0  0  0  0
   -1.8005    2.2845   -0.8004 O   0  0  0  0  0  0  0  0  0  0  0  0
   -3.7057    0.4675   -3.1414 C   0  0  0  0  0  0  0  0  0  0  0  0
   -4.1123    2.7120   -1.0570 H   0  0  0  0  0  0  0  0  0  0  0  0
   -3.5781   -0.1544   -1.0820 H   0  0  0  0  0  0  0  0  0  0  0  0
   -3.5585    1.3671   -3.7469 H   0  0  0  0  0  0  0  0  0  0  0  0
   -3.0244   -0.3100   -3.4984 H   0  0  0  0  0  0  0  0  0  0  0  0
   -4.7306    0.1129   -3.2881 H   0  0  0  0  0  0  0  0  0  0  0  0
   -0.9539    0.4274   -1.7991 N   0  0  0  0  0  0  0  0  0  0  0  0
    0.5108    0.6688   -1.8248 C   0  0  2  0  0  0  0  0  0  0  0  0
    1.1778   -0.3428   -0.8822 C   0  0  0  0  0  0  0  0  0  0  0  0
    2.0357   -1.1113   -1.2944 O   0  0  0  0  0  0  0  0  0  0  0  0
    1.0373    2.0844   -1.5466 C   0  0  0  0  0  0  0  0  0  0  0  0
    0.5179    3.2767   -2.8461 S   0  0  0  0  0  0  0  0  0  0  0  0
   -1.2450   -0.5271   -2.0262 H   0  0  0  0  0  0  0  0  0  0  0  0
    0.8511    0.4223   -2.8360 H   0  0  0  0  0  0  0  0  0  0  0  0
    0.6986    2.4252   -0.5692 H   0  0  0  0  0  0  0  0  0  0  0  0
    2.1319    2.0653   -1.5189 H   0  0  0  0  0  0  0  0  0  0  0  0
    0.6013   -0.5439    0.3586 N   0  0  0  0  0  0  0  0  0  0  0  0
    0.5071   -1.9050    0.9003 C   0  0  2  0  0  0  0  0  0  0  0  0
   -0.5568   -2.7447    0.1497 C   0  0  0  0  0  0  0  0  0  0  0  0
   -1.4125   -2.1949   -0.5427 O   0  0  0  0  0  0  0  0  0  0  0  0
    0.1561   -1.7885    2.3852 C   0  0  0  0  0  0  0  0  0  0  0  0
   -0.2242    0.0357    0.4956 H   0  0  0  0  0  0  0  0  0  0  0  0
    1.4740   -2.4122    0.8094 H   0  0  0  0  0  0  0  0  0  0  0  0
   -0.8129   -1.2952    2.5143 H   0  0  0  0  0  0  0  0  0  0  0  0
    0.1051   -2.7801    2.8453 H   0  0  0  0  0  0  0  0  0  0  0  0
    0.9184   -1.2035    2.9097 H   0  0  0  0  0  0  0  0  0  0  0  0
   -0.5510   -4.1233    0.2443 N   0  0  0  0  0  0  0  0  0  0  0  0
   -1.4829   -4.9791   -0.4805 C   0  0  0  0  0  0  0  0  0  0  0  0
    0.2107   -4.5557    0.7593 H   0  0  0  0  0  0  0  0  0  0  0  0
   -2.5170   -4.7246   -0.2250 H   0  0  0  0  0  0  0  0  0  0  0  0
   -1.3482   -4.8639   -1.5611 H   0  0  0  0  0  0  0  0  0  0  0  0
   -1.3128   -6.0283   -0.2206 H   0  0  0  0  0  0  0  0  0  0  0  0
  1  2  2  0  0  0  0
  1  3  1  0  0  0  0
  1  7  1  0  0  0  0
  3  4  1  0  0  0  0
  3  5  1  0  0  0  0
  3  6  1  0  0  0  0
  7  8  1  0  0  0  0
  7 13  1  0  0  0  0
  8  9  1  0  0  0  0
  8 11  1  0  0  0  0
  8 14  1  0  0  0  0
  9 10  2  0  0  0  0
  9 17  1  0  0  0  0
 11 12  1  0  0  0  0
 11 15  1  0  0  0  0
 11 16  1  0  0  0  0
 12 44  1  0  0  0  0
 17 18  1  0  0  0  0
 17 19  1  0  0  0  0
 18 20  1  0  0  0  0
 18 21  1  0  0  0  0
 18 22  1  0  0  0  0
 23 24  2  0  0  0  0
 23 25  1  0  0  0  0
 23 29  1  0  0  0  0
 25 26  1  0  0  0  0
 25 27  1  0  0  0  0
 25 28  1  0  0  0  0
 29 30  1  0  0  0  0
 29 34  1  0  0  0  0
 30 31  1  0  0  0  0
 30 33  1  0  0  0  0
 30 35  1  0  0  0  0
 31 32  2  0  0  0  0
 31 39  1  0  0  0  0
 33 36  1  0  0  0  0
 33 37  1  0  0  0  0
 33 38  1  0  0  0  0
 39 40  1  0  0  0  0
 39 45  1  0  0  0  0
 40 41  1  0  0  0  0
 40 43  1  0  0  0  0
 40 46  1  0  0  0  0
 41 42  2  0  0  0  0
 41 49  1  0  0  0  0
 43 44  1  0  0  0  0
 43 47  1  0  0  0  0
 43 48  1  0  0  0  0
 49 50  1  0  0  0  0
 49 54  1  0  0  0  0
 50 51  1  0  0  0  0
 50 53  1  0  0  0  0
 50 55  1  0  0  0  0
 51 52  2  0  0  0  0
 51 59  1  0  0  0  0
 53 56  1  0  0  0  0
 53 57  1  0  0  0  0
 53 58  1  0  0  0  0
 59 60  1  0  0  0  0
 59 61  1  0  0  0  0
 60 62  1  0  0  0  0
 60 63  1  0  0  0  0
 60 64  1  0  0  0  0
M  END
$$$$

  -OEChem-05262216053D

 64 63  0     1  0  0  0  0  0999 V2000
   -0.0508    8.5017   -0.0238 C   0  0  0  0  0  0  0  0  0  0  0  0
   -1.2052    8.6330   -0.4006 O   0  0  0  0  0  0  0  0  0  0  0  0
    0.8424    9.7176    0.1333 C   0  0  0  0  0  0  0  0  0  0  0  0
    1.6829    9.6520   -0.5617 H   0  0  0  0  0  0  0  0  0  0  0  0
    0.2783   10.6299   -0.0795 H   0  0  0  0  0  0  0  0  0  0  0  0
    1.2257    9.7714    1.1552 H   0  0  0  0  0  0  0  0  0  0  0  0
    0.4386    7.2477    0.2684 N   0  0  0  0  0  0  0  0  0  0  0  0
   -0.3706    6.0203    0.2705 C   0  0  2  0  0  0  0  0  0  0  0  0
    0.1781    4.9702    1.2634 C   0  0  0  0  0  0  0  0  0  0  0  0
    1.1219    5.2560    1.9948 O   0  0  0  0  0  0  0  0  0  0  0  0
   -0.4645    5.4710   -1.1596 C   0  0  0  0  0  0  0  0  0  0  0  0
    1.1713    4.9504   -1.8217 S   0  0  0  0  0  0  0  0  0  0  0  0
    1.3632    7.1882    0.6926 H   0  0  0  0  0  0  0  0  0  0  0  0
   -1.3828    6.2612    0.6114 H   0  0  0  0  0  0  0  0  0  0  0  0
   -1.1517    4.6244   -1.1783 H   0  0  0  0  0  0  0  0  0  0  0  0
   -0.8845    6.2377   -1.8181 H   0  0  0  0  0  0  0  0  0  0  0  0
   -0.4278    3.7348    1.4114 N   0  0  0  0  0  0  0  0  0  0  0  0
    0.0683    2.7141    2.3263 C   0  0  0  0  0  0  0  0  0  0  0  0
   -1.0731    3.4421    0.6724 H   0  0  0  0  0  0  0  0  0  0  0  0
    1.0844    2.4117    2.0521 H   0  0  0  0  0  0  0  0  0  0  0  0
    0.0786    3.0922    3.3540 H   0  0  0  0  0  0  0  0  0  0  0  0
   -0.5783    1.8320    2.2903 H   0  0  0  0  0  0  0  0  0  0  0  0
   -5.6865    1.4855   -0.7566 C   0  0  0  0  0  0  0  0  0  0  0  0
   -6.1072    0.3464   -0.8761 O   0  0  0  0  0  0  0  0  0  0  0  0
   -6.5586    2.5567   -0.1298 C   0  0  0  0  0  0  0  0  0  0  0  0
   -6.6146    3.4273   -0.7878 H   0  0  0  0  0  0  0  0  0  0  0  0
   -7.5699    2.1725    0.0293 H   0  0  0  0  0  0  0  0  0  0  0  0
   -6.1396    2.8612    0.8323 H   0  0  0  0  0  0  0  0  0  0  0  0
   -4.4113    1.8000   -1.1770 N   0  0  0  0  0  0  0  0  0  0  0  0
   -3.4397    0.8242   -1.6930 C   0  0  2  0  0  0  0  0  0  0  0  0
   -1.9819    1.2430   -1.3973 C   0  0  0  0  0  0  0  0  0  0  0  0
   -1.7650    2.2480   -0.7277 O   0  0  0  0  0  0  0  0  0  0  0  0
   -3.6661    0.6706   -3.2012 C   0  0  0  0  0  0  0  0  0  0  0  0
   -4.0610    2.7288   -0.9502 H   0  0  0  0  0  0  0  0  0  0  0  0
   -3.5996   -0.1462   -1.2086 H   0  0  0  0  0  0  0  0  0  0  0  0
   -3.4790    1.6186   -3.7150 H   0  0  0  0  0  0  0  0  0  0  0  0
   -2.9987   -0.0905   -3.6163 H   0  0  0  0  0  0  0  0  0  0  0  0
   -4.6977    0.3633   -3.4007 H   0  0  0  0  0  0  0  0  0  0  0  0
   -0.9527    0.3844   -1.7409 N   0  0  0  0  0  0  0  0  0  0  0  0
    0.5209    0.5744   -1.7242 C   0  0  2  0  0  0  0  0  0  0  0  0
    1.1480   -0.4601   -0.7751 C   0  0  0  0  0  0  0  0  0  0  0  0
    2.1555   -1.0703   -1.1046 O   0  0  0  0  0  0  0  0  0  0  0  0
    1.0787    1.9767   -1.4368 C   0  0  0  0  0  0  0  0  0  0  0  0
    0.6278    3.1675   -2.7644 S   0  0  0  0  0  0  0  0  0  0  0  0
   -1.2699   -0.5429   -2.0417 H   0  0  0  0  0  0  0  0  0  0  0  0
    0.8767    0.3194   -2.7282 H   0  0  0  0  0  0  0  0  0  0  0  0
    0.7216    2.3336   -0.4711 H   0  0  0  0  0  0  0  0  0  0  0  0
    2.1712    1.9284   -1.3774 H   0  0  0  0  0  0  0  0  0  0  0  0
    0.3994   -0.8943    0.3038 N   0  0  0  0  0  0  0  0  0  0  0  0
    0.3201   -2.3299    0.5991 C   0  0  2  0  0  0  0  0  0  0  0  0
   -0.6226   -3.0567   -0.3916 C   0  0  0  0  0  0  0  0  0  0  0  0
   -1.4133   -2.4154   -1.0835 O   0  0  0  0  0  0  0  0  0  0  0  0
   -0.1825   -2.4844    2.0358 C   0  0  0  0  0  0  0  0  0  0  0  0
   -0.4824   -0.3920    0.3800 H   0  0  0  0  0  0  0  0  0  0  0  0
    1.3138   -2.7854    0.5284 H   0  0  0  0  0  0  0  0  0  0  0  0
   -1.1825   -2.0517    2.1436 H   0  0  0  0  0  0  0  0  0  0  0  0
   -0.2301   -3.5419    2.3131 H   0  0  0  0  0  0  0  0  0  0  0  0
    0.4947   -1.9762    2.7297 H   0  0  0  0  0  0  0  0  0  0  0  0
   -0.5792   -4.4323   -0.5161 N   0  0  0  0  0  0  0  0  0  0  0  0
   -1.4006   -5.1774   -1.4628 C   0  0  0  0  0  0  0  0  0  0  0  0
    0.1265   -4.9314    0.0183 H   0  0  0  0  0  0  0  0  0  0  0  0
   -2.4644   -5.0189   -1.2557 H   0  0  0  0  0  0  0  0  0  0  0  0
   -1.1889   -4.8575   -2.4886 H   0  0  0  0  0  0  0  0  0  0  0  0
   -1.1906   -6.2487   -1.3850 H   0  0  0  0  0  0  0  0  0  0  0  0
  1  2  2  0  0  0  0
  1  3  1  0  0  0  0
  1  7  1  0  0  0  0
  3  4  1  0  0  0  0
  3  5  1  0  0  0  0
  3  6  1  0  0  0  0
  7  8  1  0  0  0  0
  7 13  1  0  0  0  0
  8  9  1  0  0  0  0
  8 11  1  0  0  0  0
  8 14  1  0  0  0  0
  9 10  2  0  0  0  0
  9 17  1  0  0  0  0
 11 12  1  0  0  0  0
 11 15  1  0  0  0  0
 11 16  1  0  0  0  0
 12 44  1  0  0  0  0
 17 18  1  0  0  0  0
 17 19  1  0  0  0  0
 18 20  1  0  0  0  0
 18 21  1  0  0  0  0
 18 22  1  0  0  0  0
 23 24  2  0  0  0  0
 23 25  1  0  0  0  0
 23 29  1  0  0  0  0
 25 26  1  0  0  0  0
 25 27  1  0  0  0  0
 25 28  1  0  0  0  0
 29 30  1  0  0  0  0
 29 34  1  0  0  0  0
 30 31  1  0  0  0  0
 30 33  1  0  0  0  0
 30 35  1  0  0  0  0
 31 32  2  0  0  0  0
 31 39  1  0  0  0  0
 33 36  1  0  0  0  0
 33 37  1  0  0  0  0
 33 38  1  0  0  0  0
 39 40  1  0  0  0  0
 39 45  1  0  0  0  0
 40 41  1  0  0  0  0
 40 43  1  0  0  0  0
 40 46  1  0  0  0  0
 41 42  2  0  0  0  0
 41 49  1  0  0  0  0
 43 44  1  0  0  0  0
 43 47  1  0  0  0  0
 43 48  1  0  0  0  0
 49 50  1  0  0  0  0
 49 54  1  0  0  0  0
 50 51  1  0  0  0  0
 50 53  1  0  0  0  0
 50 55  1  0  0  0  0
 51 52  2  0  0  0  0
 51 59  1  0  0  0  0
 53 56  1  0  0  0  0
 53 57  1  0  0  0  0
 53 58  1  0  0  0  0
 59 60  1  0  0  0  0
 59 61  1  0  0  0  0
 60 62  1  0  0  0  0
 60 63  1  0  0  0  0
 60 64  1  0  0  0  0
M  END
$$$$

  -OEChem-05262216053D

 64 63  0     1  0  0  0  0  0999 V2000
   -0.1910    8.4558   -0.2065 C   0  0  0  0  0  0  0  0  0  0  0  0
   -1.3490    8.5173   -0.5903 O   0  0  0  0  0  0  0  0  0  0  0  0
    0.6515    9.7138   -0.1192 C   0  0  0  0  0  0  0  0  0  0  0  0
    1.5106    9.6334   -0.7896 H   0  0  0  0  0  0  0  0  0  0  0  0
    0.0576   10.5854   -0.4084 H   0  0  0  0  0  0  0  0  0  0  0  0
    1.0086    9.8535    0.9039 H   0  0  0  0  0  0  0  0  0  0  0  0
    0.3486    7.2423    0.1587 N   0  0  0  0  0  0  0  0  0  0  0  0
   -0.4099    5.9852    0.2321 C   0  0  2  0  0  0  0  0  0  0  0  0
    0.1789    5.0159    1.2831 C   0  0  0  0  0  0  0  0  0  0  0  0
    1.0993    5.3861    2.0063 O   0  0  0  0  0  0  0  0  0  0  0  0
   -0.4746    5.3519   -1.1641 C   0  0  0  0  0  0  0  0  0  0  0  0
    1.1806    4.8286   -1.7721 S   0  0  0  0  0  0  0  0  0  0  0  0
    1.2742    7.2456    0.5850 H   0  0  0  0  0  0  0  0  0  0  0  0
   -1.4325    6.2039    0.5567 H   0  0  0  0  0  0  0  0  0  0  0  0
   -1.1438    4.4915   -1.1400 H   0  0  0  0  0  0  0  0  0  0  0  0
   -0.9018    6.0682   -1.8727 H   0  0  0  0  0  0  0  0  0  0  0  0
   -0.3590    3.7561    1.4809 N   0  0  0  0  0  0  0  0  0  0  0  0
    0.1916    2.7985    2.4316 C   0  0  0  0  0  0  0  0  0  0  0  0
   -0.9977    3.4029    0.7631 H   0  0  0  0  0  0  0  0  0  0  0  0
    1.2218    2.5405    2.1645 H   0  0  0  0  0  0  0  0  0  0  0  0
    0.1824    3.2139    3.4447 H   0  0  0  0  0  0  0  0  0  0  0  0
   -0.4068    1.8822    2.4299 H   0  0  0  0  0  0  0  0  0  0  0  0
   -5.7015    1.5480   -0.8284 C   0  0  0  0  0  0  0  0  0  0  0  0
   -6.1568    0.4570   -1.1310 O   0  0  0  0  0  0  0  0  0  0  0  0
   -6.5702    2.5629   -0.1098 C   0  0  0  0  0  0  0  0  0  0  0  0
   -6.5787    3.5056   -0.6621 H   0  0  0  0  0  0  0  0  0  0  0  0
   -7.5963    2.1925   -0.0320 H   0  0  0  0  0  0  0  0  0  0  0  0
   -6.1811    2.7409    0.8956 H   0  0  0  0  0  0  0  0  0  0  0  0
   -4.3915    1.8570   -1.1280 N   0  0  0  0  0  0  0  0  0  0  0  0
   -3.4327    0.9168   -1.7261 C   0  0  2  0  0  0  0  0  0  0  0  0
   -1.9781    1.2143   -1.3013 C   0  0  0  0  0  0  0  0  0  0  0  0
   -1.7449    2.1564   -0.5505 O   0  0  0  0  0  0  0  0  0  0  0  0
   -3.5732    0.9910   -3.2503 C   0  0  0  0  0  0  0  0  0  0  0  0
   -4.0200    2.7302   -0.7588 H   0  0  0  0  0  0  0  0  0  0  0  0
   -3.6626   -0.1027   -1.3959 H   0  0  0  0  0  0  0  0  0  0  0  0
   -3.3281    1.9958   -3.6094 H   0  0  0  0  0  0  0  0  0  0  0  0
   -2.9047    0.2727   -3.7349 H   0  0  0  0  0  0  0  0  0  0  0  0
   -4.5999    0.7552   -3.5484 H   0  0  0  0  0  0  0  0  0  0  0  0
   -0.9807    0.3179   -1.6432 N   0  0  0  0  0  0  0  0  0  0  0  0
    0.4982    0.4599   -1.6087 C   0  0  2  0  0  0  0  0  0  0  0  0
    1.1104   -0.5924   -0.6660 C   0  0  0  0  0  0  0  0  0  0  0  0
    2.2268   -1.0384   -0.8908 O   0  0  0  0  0  0  0  0  0  0  0  0
    1.0806    1.8542   -1.3306 C   0  0  0  0  0  0  0  0  0  0  0  0
    0.6669    3.0248   -2.6889 S   0  0  0  0  0  0  0  0  0  0  0  0
   -1.3227   -0.5493   -2.0706 H   0  0  0  0  0  0  0  0  0  0  0  0
    0.8526    0.1946   -2.6102 H   0  0  0  0  0  0  0  0  0  0  0  0
    0.7208    2.2333   -0.3745 H   0  0  0  0  0  0  0  0  0  0  0  0
    2.1711    1.7865   -1.2581 H   0  0  0  0  0  0  0  0  0  0  0  0
    0.2743   -1.2542    0.2144 N   0  0  0  0  0  0  0  0  0  0  0  0
    0.2775   -2.7212    0.2517 C   0  0  2  0  0  0  0  0  0  0  0  0
   -0.5539   -3.3035   -0.9176 C   0  0  0  0  0  0  0  0  0  0  0  0
   -1.3245   -2.5817   -1.5506 O   0  0  0  0  0  0  0  0  0  0  0  0
   -0.3014   -3.1563    1.5996 C   0  0  0  0  0  0  0  0  0  0  0  0
   -0.6539   -0.8371    0.2333 H   0  0  0  0  0  0  0  0  0  0  0  0
    1.3010   -3.1036    0.1729 H   0  0  0  0  0  0  0  0  0  0  0  0
   -1.3330   -2.8055    1.7071 H   0  0  0  0  0  0  0  0  0  0  0  0
   -0.2947   -4.2472    1.6859 H   0  0  0  0  0  0  0  0  0  0  0  0
    0.2953   -2.7415    2.4183 H   0  0  0  0  0  0  0  0  0  0  0  0
   -0.4293   -4.6327   -1.2735 N   0  0  0  0  0  0  0  0  0  0  0  0
   -1.1360   -5.2309   -2.4000 C   0  0  0  0  0  0  0  0  0  0  0  0
    0.2604   -5.1896   -0.7767 H   0  0  0  0  0  0  0  0  0  0  0  0
   -2.2180   -5.1090   -2.2831 H   0  0  0  0  0  0  0  0  0  0  0  0
   -0.8272   -4.7608   -3.3396 H   0  0  0  0  0  0  0  0  0  0  0  0
   -0.9150   -6.3011   -2.4594 H   0  0  0  0  0  0  0  0  0  0  0  0
  1  2  2  0  0  0  0
  1  3  1  0  0  0  0
  1  7  1  0  0  0  0
  3  4  1  0  0  0  0
  3  5  1  0  0  0  0
  3  6  1  0  0  0  0
  7  8  1  0  0  0  0
  7 13  1  0  0  0  0
  8  9  1  0  0  0  0
  8 11  1  0  0  0  0
  8 14  1  0  0  0  0
  9 10  2  0  0  0  0
  9 17  1  0  0  0  0
 11 12  1  0  0  0  0
 11 15  1  0  0  0  0
 11 16  1  0  0  0  0
 12 44  1  0  0  0  0
 17 18  1  0  0  0  0
 17 19  1  0  0  0  0
 18 20  1  0  0  0  0
 18 21  1  0  0  0  0
 18 22  1  0  0  0  0
 23 24  2  0  0  0  0
 23 25  1  0  0  0  0
 23 29  1  0  0  0  0
 25 26  1  0  0  0  0
 25 27  1  0  0  0  0
 25 28  1  0  0  0  0
 29 30  1  0  0  0  0
 29 34  1  0  0  0  0
 30 31  1  0  0  0  0
 30 33  1  0  0  0  0
 30 35  1  0  0  0  0
 31 32  2  0  0  0  0
 31 39  1  0  0  0  0
 33 36  1  0  0  0  0
 33 37  1  0  0  0  0
 33 38  1  0  0  0  0
 39 40  1  0  0  0  0
 39 45  1  0  0  0  0
 40 41  1  0  0  0  0
 40 43  1  0  0  0  0
 40 46  1  0  0  0  0
 41 42  2  0  0  0  0
 41 49  1  0  0  0  0
 43 44  1  0  0  0  0
 43 47  1  0  0  0  0
 43 48  1  0  0  0  0
 49 50  1  0  0  0  0
 49 54  1  0  0  0  0
 50 51  1  0  0  0  0
 50 53  1  0  0  0  0
 50 55  1  0  0  0  0
 51 52  2  0  0  0  0
 51 59  1  0  0  0  0
 53 56  1  0  0  0  0
 53 57  1  0  0  0  0
 53 58  1  0  0  0  0
 59 60  1  0  0  0  0
 59 61  1  0  0  0  0
 60 62  1  0  0  0  0
 60 63  1  0  0  0  0
 60 64  1  0  0  0  0
M  END
$$$$

  -OEChem-05262216053D

 64 63  0     1  0  0  0  0  0999 V2000
    0.4684    8.5689   -0.4480 C   0  0  0  0  0  0  0  0  0  0  0  0
   -0.4381    8.8215   -1.2267 O   0  0  0  0  0  0  0  0  0  0  0  0
    1.4439    9.6547   -0.0357 C   0  0  0  0  0  0  0  0  0  0  0  0
    2.4664    9.3412   -0.2605 H   0  0  0  0  0  0  0  0  0  0  0  0
    1.2313   10.5790   -0.5799 H   0  0  0  0  0  0  0  0  0  0  0  0
    1.3558    9.8473    1.0364 H   0  0  0  0  0  0  0  0  0  0  0  0
    0.6017    7.2993    0.0687 N   0  0  0  0  0  0  0  0  0  0  0  0
   -0.3429    6.1980   -0.1683 C   0  0  2  0  0  0  0  0  0  0  0  0
   -0.3511    5.1906    1.0051 C   0  0  0  0  0  0  0  0  0  0  0  0
    0.2668    5.4500    2.0342 O   0  0  0  0  0  0  0  0  0  0  0  0
   -0.0145    5.5295   -1.5107 C   0  0  0  0  0  0  0  0  0  0  0  0
    1.6534    4.7519   -1.5183 S   0  0  0  0  0  0  0  0  0  0  0  0
    1.2939    7.1580    0.8029 H   0  0  0  0  0  0  0  0  0  0  0  0
   -1.3581    6.6037   -0.2287 H   0  0  0  0  0  0  0  0  0  0  0  0
   -0.7717    4.7781   -1.7390 H   0  0  0  0  0  0  0  0  0  0  0  0
   -0.0581    6.2769   -2.3090 H   0  0  0  0  0  0  0  0  0  0  0  0
   -1.1093    4.0341    0.9602 N   0  0  0  0  0  0  0  0  0  0  0  0
   -1.0965    3.0379    2.0242 C   0  0  0  0  0  0  0  0  0  0  0  0
   -1.4452    3.7386    0.0382 H   0  0  0  0  0  0  0  0  0  0  0  0
   -0.0778    2.6777    2.2022 H   0  0  0  0  0  0  0  0  0  0  0  0
   -1.4875    3.4639    2.9539 H   0  0  0  0  0  0  0  0  0  0  0  0
   -1.7210    2.1834    1.7453 H   0  0  0  0  0  0  0  0  0  0  0  0
   -4.1955    0.3004   -0.1258 C   0  0  0  0  0  0  0  0  0  0  0  0
   -3.3344   -0.5666   -0.0659 O   0  0  0  0  0  0  0  0  0  0  0  0
   -5.0939    0.5632    1.0678 C   0  0  0  0  0  0  0  0  0  0  0  0
   -6.1407    0.5765    0.7548 H   0  0  0  0  0  0  0  0  0  0  0  0
   -4.9632   -0.2221    1.8174 H   0  0  0  0  0  0  0  0  0  0  0  0
   -4.8433    1.5271    1.5177 H   0  0  0  0  0  0  0  0  0  0  0  0
   -4.3099    1.0775   -1.2612 N   0  0  0  0  0  0  0  0  0  0  0  0
   -3.3444    1.0003   -2.3667 C   0  0  2  0  0  0  0  0  0  0  0  0
   -1.9295    1.4269   -1.9189 C   0  0  0  0  0  0  0  0  0  0  0  0
   -1.7776    2.5300   -1.4090 O   0  0  0  0  0  0  0  0  0  0  0  0
   -3.8458    1.8845   -3.5107 C   0  0  0  0  0  0  0  0  0  0  0  0
   -4.8979    1.9033   -1.1937 H   0  0  0  0  0  0  0  0  0  0  0  0
   -3.2952   -0.0334   -2.7274 H   0  0  0  0  0  0  0  0  0  0  0  0
   -3.9194    2.9284   -3.1887 H   0  0  0  0  0  0  0  0  0  0  0  0
   -3.1567    1.8330   -4.3597 H   0  0  0  0  0  0  0  0  0  0  0  0
   -4.8327    1.5500   -3.8450 H   0  0  0  0  0  0  0  0  0  0  0  0
   -0.9484    0.4535   -1.8844 N   0  0  0  0  0  0  0  0  0  0  0  0
    0.4525    0.4858   -1.4050 C   0  0  2  0  0  0  0  0  0  0  0  0
    0.6401   -0.5426   -0.2689 C   0  0  0  0  0  0  0  0  0  0  0  0
    1.7698   -0.9288    0.0021 O   0  0  0  0  0  0  0  0  0  0  0  0
    1.0665    1.8449   -1.0301 C   0  0  0  0  0  0  0  0  0  0  0  0
    1.2180    2.9550   -2.4904 S   0  0  0  0  0  0  0  0  0  0  0  0
   -1.2596   -0.4665   -2.2169 H   0  0  0  0  0  0  0  0  0  0  0  0
    1.0623    0.1147   -2.2347 H   0  0  0  0  0  0  0  0  0  0  0  0
    0.4658    2.3211   -0.2558 H   0  0  0  0  0  0  0  0  0  0  0  0
    2.0673    1.6923   -0.6134 H   0  0  0  0  0  0  0  0  0  0  0  0
   -0.4365   -1.3119    0.1416 N   0  0  0  0  0  0  0  0  0  0  0  0
   -0.3703   -2.7726    0.0341 C   0  0  2  0  0  0  0  0  0  0  0  0
   -0.6642   -3.2351   -1.4144 C   0  0  0  0  0  0  0  0  0  0  0  0
   -1.1333   -2.4534   -2.2424 O   0  0  0  0  0  0  0  0  0  0  0  0
   -1.3884   -3.3627    1.0125 C   0  0  0  0  0  0  0  0  0  0  0  0
   -1.3453   -0.9162   -0.1182 H   0  0  0  0  0  0  0  0  0  0  0  0
    0.6259   -3.1299    0.3156 H   0  0  0  0  0  0  0  0  0  0  0  0
   -2.4032   -3.0508    0.7453 H   0  0  0  0  0  0  0  0  0  0  0  0
   -1.3459   -4.4560    0.9993 H   0  0  0  0  0  0  0  0  0  0  0  0
   -1.1759   -3.0208    2.0304 H   0  0  0  0  0  0  0  0  0  0  0  0
   -0.3567   -4.5241   -1.8094 N   0  0  0  0  0  0  0  0  0  0  0  0
   -0.4949   -4.9959   -3.1827 C   0  0  0  0  0  0  0  0  0  0  0  0
    0.1041   -5.1232   -1.1301 H   0  0  0  0  0  0  0  0  0  0  0  0
   -1.5096   -4.8159   -3.5531 H   0  0  0  0  0  0  0  0  0  0  0  0
    0.2157   -4.4799   -3.8368 H   0  0  0  0  0  0  0  0  0  0  0  0
   -0.2981   -6.0710   -3.2344 H   0  0  0  0  0  0  0  0  0  0  0  0
  1  2  2  0  0  0  0
  1  3  1  0  0  0  0
  1  7  1  0  0  0  0
  3  4  1  0  0  0  0
  3  5  1  0  0  0  0
  3  6  1  0  0  0  0
  7  8  1  0  0  0  0
  7 13  1  0  0  0  0
  8  9  1  0  0  0  0
  8 11  1  0  0  0  0
  8 14  1  0  0  0  0
  9 10  2  0  0  0  0
  9 17  1  0  0  0  0
 11 12  1  0  0  0  0
 11 15  1  0  0  0  0
 11 16  1  0  0  0  0
 12 44  1  0  0  0  0
 17 18  1  0  0  0  0
 17 19  1  0  0  0  0
 18 20  1  0  0  0  0
 18 21  1  0  0  0  0
 18 22  1  0  0  0  0
 23 24  2  0  0  0  0
 23 25  1  0  0  0  0
 23 29  1  0  0  0  0
 25 26  1  0  0  0  0
 25 27  1  0  0  0  0
 25 28  1  0  0  0  0
 29 30  1  0  0  0  0
 29 34  1  0  0  0  0
 30 31  1  0  0  0  0
 30 33  1  0  0  0  0
 30 35  1  0  0  0  0
 31 32  2  0  0  0  0
 31 39  1  0  0  0  0
 33 36  1  0  0  0  0
 33 37  1  0  0  0  0
 33 38  1  0  0  0  0
 39 40  1  0  0  0  0
 39 45  1  0  0  0  0
 40 41  1  0  0  0  0
 40 43  1  0  0  0  0
 40 46  1  0  0  0  0
 41 42  2  0  0  0  0
 41 49  1  0  0  0  0
 43 44  1  0  0  0  0
 43 47  1  0  0  0  0
 43 48  1  0  0  0  0
 49 50  1  0  0  0  0
 49 54  1  0  0  0  0
 50 51  1  0  0  0  0
 50 53  1  0  0  0  0
 50 55  1  0  0  0  0
 51 52  2  0  0  0  0
 51 59  1  0  0  0  0
 53 56  1  0  0  0  0
 53 57  1  0  0  0  0
 53 58  1  0  0  0  0
 59 60  1  0  0  0  0
 59 61  1  0  0  0  0
 60 62  1  0  0  0  0
 60 63  1  0  0  0  0
 60 64  1  0  0  0  0
M  END
$$$$

  -OEChem-05262216053D

 64 63  0     1  0  0  0  0  0999 V2000
    0.9984    8.4608   -0.3209 C   0  0  0  0  0  0  0  0  0  0  0  0
   -0.0846    8.7972   -0.7746 O   0  0  0  0  0  0  0  0  0  0  0  0
    2.1072    9.4830   -0.1583 C   0  0  0  0  0  0  0  0  0  0  0  0
    2.9825    9.1765   -0.7365 H   0  0  0  0  0  0  0  0  0  0  0  0
    1.7733   10.4617   -0.5140 H   0  0  0  0  0  0  0  0  0  0  0  0
    2.3856    9.5676    0.8948 H   0  0  0  0  0  0  0  0  0  0  0  0
    1.2131    7.1524    0.0522 N   0  0  0  0  0  0  0  0  0  0  0  0
    0.1834    6.1031    0.0409 C   0  0  2  0  0  0  0  0  0  0  0  0
    0.4865    4.9906    1.0706 C   0  0  0  0  0  0  0  0  0  0  0  0
    1.4180    5.1300    1.8585 O   0  0  0  0  0  0  0  0  0  0  0  0
    0.0448    5.5435   -1.3812 C   0  0  0  0  0  0  0  0  0  0  0  0
    1.5514    4.6381   -1.9250 S   0  0  0  0  0  0  0  0  0  0  0  0
    2.0823    6.9357    0.5382 H   0  0  0  0  0  0  0  0  0  0  0  0
   -0.7762    6.5417    0.3337 H   0  0  0  0  0  0  0  0  0  0  0  0
   -0.8169    4.8768   -1.4235 H   0  0  0  0  0  0  0  0  0  0  0  0
   -0.1510    6.3610   -2.0819 H   0  0  0  0  0  0  0  0  0  0  0  0
   -0.3059    3.8602    1.1679 N   0  0  0  0  0  0  0  0  0  0  0  0
   -0.0018    2.7587    2.0721 C   0  0  0  0  0  0  0  0  0  0  0  0
   -0.9744    3.6884    0.4110 H   0  0  0  0  0  0  0  0  0  0  0  0
    0.9764    2.3272    1.8348 H   0  0  0  0  0  0  0  0  0  0  0  0
    0.0077    3.1055    3.1106 H   0  0  0  0  0  0  0  0  0  0  0  0
   -0.7590    1.9746    1.9766 H   0  0  0  0  0  0  0  0  0  0  0  0
   -4.6645   -0.3920   -1.4996 C   0  0  0  0  0  0  0  0  0  0  0  0
   -3.8202   -0.8974   -2.2276 O   0  0  0  0  0  0  0  0  0  0  0  0
   -5.5905   -1.2764   -0.6870 C   0  0  0  0  0  0  0  0  0  0  0  0
   -6.6319   -1.0271   -0.9053 H   0  0  0  0  0  0  0  0  0  0  0  0
   -5.4235   -2.3285   -0.9365 H   0  0  0  0  0  0  0  0  0  0  0  0
   -5.4041   -1.1336    0.3804 H   0  0  0  0  0  0  0  0  0  0  0  0
   -4.7359    0.9829   -1.3824 N   0  0  0  0  0  0  0  0  0  0  0  0
   -3.9291    1.9364   -2.1649 C   0  0  2  0  0  0  0  0  0  0  0  0
   -2.4308    1.9268   -1.7736 C   0  0  0  0  0  0  0  0  0  0  0  0
   -1.9878    2.7406   -0.9727 O   0  0  0  0  0  0  0  0  0  0  0  0
   -4.5607    3.3246   -1.9989 C   0  0  0  0  0  0  0  0  0  0  0  0
   -5.4107    1.3555   -0.7191 H   0  0  0  0  0  0  0  0  0  0  0  0
   -3.9886    1.6712   -3.2260 H   0  0  0  0  0  0  0  0  0  0  0  0
   -4.5495    3.6335   -0.9484 H   0  0  0  0  0  0  0  0  0  0  0  0
   -4.0038    4.0654   -2.5822 H   0  0  0  0  0  0  0  0  0  0  0  0
   -5.5973    3.3185   -2.3499 H   0  0  0  0  0  0  0  0  0  0  0  0
   -1.6774    0.8528   -2.2118 N   0  0  0  0  0  0  0  0  0  0  0  0
   -0.2260    0.5762   -2.1240 C   0  0  2  0  0  0  0  0  0  0  0  0
    0.0179   -0.7247   -1.3240 C   0  0  0  0  0  0  0  0  0  0  0  0
    1.1348   -1.0162   -0.9127 O   0  0  0  0  0  0  0  0  0  0  0  0
    0.6880    1.7424   -1.7020 C   0  0  0  0  0  0  0  0  0  0  0  0
    0.6554    3.0730   -2.9754 S   0  0  0  0  0  0  0  0  0  0  0  0
   -2.2375    0.1650   -2.7219 H   0  0  0  0  0  0  0  0  0  0  0  0
    0.0940    0.3319   -3.1417 H   0  0  0  0  0  0  0  0  0  0  0  0
    0.3882    2.1274   -0.7272 H   0  0  0  0  0  0  0  0  0  0  0  0
    1.7214    1.3947   -1.6028 H   0  0  0  0  0  0  0  0  0  0  0  0
   -1.0230   -1.6065   -1.0756 N   0  0  0  0  0  0  0  0  0  0  0  0
   -0.9185   -2.8130   -0.2412 C   0  0  2  0  0  0  0  0  0  0  0  0
   -0.2663   -4.0068   -0.9804 C   0  0  0  0  0  0  0  0  0  0  0  0
   -0.8432   -5.0807   -1.1046 O   0  0  0  0  0  0  0  0  0  0  0  0
   -2.3305   -3.1280    0.2686 C   0  0  0  0  0  0  0  0  0  0  0  0
   -1.9389   -1.3655   -1.4587 H   0  0  0  0  0  0  0  0  0  0  0  0
   -0.2907   -2.5976    0.6297 H   0  0  0  0  0  0  0  0  0  0  0  0
   -2.9958   -3.3688   -0.5670 H   0  0  0  0  0  0  0  0  0  0  0  0
   -2.3059   -3.9854    0.9488 H   0  0  0  0  0  0  0  0  0  0  0  0
   -2.7413   -2.2707    0.8099 H   0  0  0  0  0  0  0  0  0  0  0  0
    1.0126   -3.8705   -1.4827 N   0  0  0  0  0  0  0  0  0  0  0  0
    1.7416   -4.9343   -2.1591 C   0  0  0  0  0  0  0  0  0  0  0  0
    1.4592   -2.9604   -1.3458 H   0  0  0  0  0  0  0  0  0  0  0  0
    1.8777   -5.7905   -1.4901 H   0  0  0  0  0  0  0  0  0  0  0  0
    1.1970   -5.2650   -3.0497 H   0  0  0  0  0  0  0  0  0  0  0  0
    2.7284   -4.5770   -2.4690 H   0  0  0  0  0  0  0  0  0  0  0  0
  1  2  2  0  0  0  0
  1  3  1  0  0  0  0
  1  7  1  0  0  0  0
  3  4  1  0  0  0  0
  3  5  1  0  0  0  0
  3  6  1  0  0  0  0
  7  8  1  0  0  0  0
  7 13  1  0  0  0  0
  8  9  1  0  0  0  0
  8 11  1  0  0  0  0
  8 14  1  0  0  0  0
  9 10  2  0  0  0  0
  9 17  1  0  0  0  0
 11 12  1  0  0  0  0
 11 15  1  0  0  0  0
 11 16  1  0  0  0  0
 12 44  1  0  0  0  0
 17 18  1  0  0  0  0
 17 19  1  0  0  0  0
 18 20  1  0  0  0  0
 18 21  1  0  0  0  0
 18 22  1  0  0  0  0
 23 24  2  0  0  0  0
 23 25  1  0  0  0  0
 23 29  1  0  0  0  0
 25 26  1  0  0  0  0
 25 27  1  0  0  0  0
 25 28  1  0  0  0  0
 29 30  1  0  0  0  0
 29 34  1  0  0  0  0
 30 31  1  0  0  0  0
 30 33  1  0  0  0  0
 30 35  1  0  0  0  0
 31 32  2  0  0  0  0
 31 39  1  0  0  0  0
 33 36  1  0  0  0  0
 33 37  1  0  0  0  0
 33 38  1  0  0  0  0
 39 40  1  0  0  0  0
 39 45  1  0  0  0  0
 40 41  1  0  0  0  0
 40 43  1  0  0  0  0
 40 46  1  0  0  0  0
 41 42  2  0  0  0  0
 41 49  1  0  0  0  0
 43 44  1  0  0  0  0
 43 47  1  0  0  0  0
 43 48  1  0  0  0  0
 49 50  1  0  0  0  0
 49 54  1  0  0  0  0
 50 51  1  0  0  0  0
 50 53  1  0  0  0  0
 50 55  1  0  0  0  0
 51 52  2  0  0  0  0
 51 59  1  0  0  0  0
 53 56  1  0  0  0  0
 53 57  1  0  0  0  0
 53 58  1  0  0  0  0
 59 60  1  0  0  0  0
 59 61  1  0  0  0  0
 60 62  1  0  0  0  0
 60 63  1  0  0  0  0
 60 64  1  0  0  0  0
M  END
$$$$

  -OEChem-05262216053D

 64 63  0     1  0  0  0  0  0999 V2000
    0.9219    8.6275   -0.1570 C   0  0  0  0  0  0  0  0  0  0  0  0
   -0.1430    8.9452   -0.6639 O   0  0  0  0  0  0  0  0  0  0  0  0
    1.9834    9.6792    0.1051 C   0  0  0  0  0  0  0  0  0  0  0  0
    2.8959    9.4319   -0.4426 H   0  0  0  0  0  0  0  0  0  0  0  0
    1.6306   10.6613   -0.2218 H   0  0  0  0  0  0  0  0  0  0  0  0
    2.2087    9.7236    1.1733 H   0  0  0  0  0  0  0  0  0  0  0  0
    1.1558    7.3154    0.1915 N   0  0  0  0  0  0  0  0  0  0  0  0
    0.1517    6.2437    0.1159 C   0  0  2  0  0  0  0  0  0  0  0  0
    0.4172    5.1335    1.1593 C   0  0  0  0  0  0  0  0  0  0  0  0
    1.2792    5.3016    2.0180 O   0  0  0  0  0  0  0  0  0  0  0  0
    0.1055    5.6912   -1.3148 C   0  0  0  0  0  0  0  0  0  0  0  0
    1.6459    4.7955   -1.7735 S   0  0  0  0  0  0  0  0  0  0  0  0
    1.9987    7.1129    0.7268 H   0  0  0  0  0  0  0  0  0  0  0  0
   -0.8327    6.6597    0.3539 H   0  0  0  0  0  0  0  0  0  0  0  0
   -0.7490    5.0213   -1.4142 H   0  0  0  0  0  0  0  0  0  0  0  0
   -0.0511    6.5129   -2.0203 H   0  0  0  0  0  0  0  0  0  0  0  0
   -0.3373    3.9741    1.1893 N   0  0  0  0  0  0  0  0  0  0  0  0
   -0.0584    2.8727    2.1015 C   0  0  0  0  0  0  0  0  0  0  0  0
   -0.9411    3.7863    0.3831 H   0  0  0  0  0  0  0  0  0  0  0  0
    0.9534    2.4866    1.9389 H   0  0  0  0  0  0  0  0  0  0  0  0
   -0.1475    3.2041    3.1412 H   0  0  0  0  0  0  0  0  0  0  0  0
   -0.7706    2.0586    1.9356 H   0  0  0  0  0  0  0  0  0  0  0  0
   -4.4291   -0.4048   -1.6830 C   0  0  0  0  0  0  0  0  0  0  0  0
   -3.6207   -0.8341   -2.4957 O   0  0  0  0  0  0  0  0  0  0  0  0
   -5.2517   -1.3672   -0.8485 C   0  0  0  0  0  0  0  0  0  0  0  0
   -6.3138   -1.1253   -0.9361 H   0  0  0  0  0  0  0  0  0  0  0  0
   -5.0966   -2.3931   -1.1941 H   0  0  0  0  0  0  0  0  0  0  0  0
   -4.9547   -1.2987    0.2009 H   0  0  0  0  0  0  0  0  0  0  0  0
   -4.5484    0.9574   -1.4851 N   0  0  0  0  0  0  0  0  0  0  0  0
   -3.7948    1.9814   -2.2297 C   0  0  2  0  0  0  0  0  0  0  0  0
   -2.3007    2.0281   -1.8268 C   0  0  0  0  0  0  0  0  0  0  0  0
   -1.8932    2.8632   -1.0295 O   0  0  0  0  0  0  0  0  0  0  0  0
   -4.5017    3.3258   -2.0159 C   0  0  0  0  0  0  0  0  0  0  0  0
   -5.1665    1.2641   -0.7384 H   0  0  0  0  0  0  0  0  0  0  0  0
   -3.8358    1.7525   -3.3004 H   0  0  0  0  0  0  0  0  0  0  0  0
   -4.5137    3.5939   -0.9543 H   0  0  0  0  0  0  0  0  0  0  0  0
   -3.9820    4.1172   -2.5658 H   0  0  0  0  0  0  0  0  0  0  0  0
   -5.5339    3.2757   -2.3760 H   0  0  0  0  0  0  0  0  0  0  0  0
   -1.5161    0.9700   -2.2447 N   0  0  0  0  0  0  0  0  0  0  0  0
   -0.0657    0.7073   -2.1149 C   0  0  2  0  0  0  0  0  0  0  0  0
    0.1540   -0.5980   -1.3155 C   0  0  0  0  0  0  0  0  0  0  0  0
    1.1768   -0.7863   -0.6682 O   0  0  0  0  0  0  0  0  0  0  0  0
    0.8214    1.8779   -1.6459 C   0  0  0  0  0  0  0  0  0  0  0  0
    0.8229    3.2351   -2.8918 S   0  0  0  0  0  0  0  0  0  0  0  0
   -2.0546    0.2716   -2.7637 H   0  0  0  0  0  0  0  0  0  0  0  0
    0.2921    0.4747   -3.1227 H   0  0  0  0  0  0  0  0  0  0  0  0
    0.4830    2.2430   -0.6755 H   0  0  0  0  0  0  0  0  0  0  0  0
    1.8535    1.5364   -1.5160 H   0  0  0  0  0  0  0  0  0  0  0  0
   -0.7870   -1.6140   -1.3715 N   0  0  0  0  0  0  0  0  0  0  0  0
   -0.5601   -2.9669   -0.8521 C   0  0  2  0  0  0  0  0  0  0  0  0
    0.0664   -3.8957   -1.9126 C   0  0  0  0  0  0  0  0  0  0  0  0
   -0.3856   -3.9249   -3.0512 O   0  0  0  0  0  0  0  0  0  0  0  0
   -1.9130   -3.5130   -0.3923 C   0  0  0  0  0  0  0  0  0  0  0  0
   -1.5708   -1.4851   -2.0125 H   0  0  0  0  0  0  0  0  0  0  0  0
    0.1078   -2.9328    0.0147 H   0  0  0  0  0  0  0  0  0  0  0  0
   -2.6094   -3.5667   -1.2355 H   0  0  0  0  0  0  0  0  0  0  0  0
   -1.7966   -4.5172    0.0265 H   0  0  0  0  0  0  0  0  0  0  0  0
   -2.3429   -2.8637    0.3761 H   0  0  0  0  0  0  0  0  0  0  0  0
    1.1059   -4.7410   -1.5724 N   0  0  0  0  0  0  0  0  0  0  0  0
    1.7575   -5.6263   -2.5296 C   0  0  0  0  0  0  0  0  0  0  0  0
    1.5306   -4.6101   -0.6586 H   0  0  0  0  0  0  0  0  0  0  0  0
    1.0322   -6.3243   -2.9607 H   0  0  0  0  0  0  0  0  0  0  0  0
    2.2141   -5.0473   -3.3391 H   0  0  0  0  0  0  0  0  0  0  0  0
    2.5409   -6.2071   -2.0337 H   0  0  0  0  0  0  0  0  0  0  0  0
  1  2  2  0  0  0  0
  1  3  1  0  0  0  0
  1  7  1  0  0  0  0
  3  4  1  0  0  0  0
  3  5  1  0  0  0  0
  3  6  1  0  0  0  0
  7  8  1  0  0  0  0
  7 13  1  0  0  0  0
  8  9  1  0  0  0  0
  8 11  1  0  0  0  0
  8 14  1  0  0  0  0
  9 10  2  0  0  0  0
  9 17  1  0  0  0  0
 11 12  1  0  0  0  0
 11 15  1  0  0  0  0
 11 16  1  0  0  0  0
 12 44  1  0  0  0  0
 17 18  1  0  0  0  0
 17 19  1  0  0  0  0
 18 20  1  0  0  0  0
 18 21  1  0  0  0  0
 18 22  1  0  0  0  0
 23 24  2  0  0  0  0
 23 25  1  0  0  0  0
 23 29  1  0  0  0  0
 25 26  1  0  0  0  0
 25 27  1  0  0  0  0
 25 28  1  0  0  0  0
 29 30  1  0  0  0  0
 29 34  1  0  0  0  0
 30 31  1  0  0  0  0
 30 33  1  0  0  0  0
 30 35  1  0  0  0  0
 31 32  2  0  0  0  0
 31 39  1  0  0  0  0
 33 36  1  0  0  0  0
 33 37  1  0  0  0  0
 33 38  1  0  0  0  0
 39 40  1  0  0  0  0
 39 45  1  0  0  0  0
 40 41  1  0  0  0  0
 40 43  1  0  0  0  0
 40 46  1  0  0  0  0
 41 42  2  0  0  0  0
 41 49  1  0  0  0  0
 43 44  1  0  0  0  0
 43 47  1  0  0  0  0
 43 48  1  0  0  0  0
 49 50  1  0  0  0  0
 49 54  1  0  0  0  0
 50 51  1  0  0  0  0
 50 53  1  0  0  0  0
 50 55  1  0  0  0  0
 51 52  2  0  0  0  0
 51 59  1  0  0  0  0
 53 56  1  0  0  0  0
 53 57  1  0  0  0  0
 53 58  1  0  0  0  0
 59 60  1  0  0  0  0
 59 61  1  0  0  0  0
 60 62  1  0  0  0  0
 60 63  1  0  0  0  0
 60 64  1  0  0  0  0
M  END
$$$$

  -OEChem-05262216053D

 64 63  0     1  0  0  0  0  0999 V2000
    0.5076    8.7639    0.2428 C   0  0  0  0  0  0  0  0  0  0  0  0
   -0.6103    9.0472   -0.1591 O   0  0  0  0  0  0  0  0  0  0  0  0
    1.5269    9.8582    0.4965 C   0  0  0  0  0  0  0  0  0  0  0  0
    2.4134    9.6914   -0.1203 H   0  0  0  0  0  0  0  0  0  0  0  0
    1.1021   10.8341    0.2458 H   0  0  0  0  0  0  0  0  0  0  0  0
    1.8192    9.8598    1.5494 H   0  0  0  0  0  0  0  0  0  0  0  0
    0.8462    7.4490    0.4713 N   0  0  0  0  0  0  0  0  0  0  0  0
   -0.0758    6.3113    0.3435 C   0  0  2  0  0  0  0  0  0  0  0  0
    0.3684    5.1200    1.2243 C   0  0  0  0  0  0  0  0  0  0  0  0
    1.3041    5.2619    2.0074 O   0  0  0  0  0  0  0  0  0  0  0  0
   -0.2022    5.9202   -1.1359 C   0  0  0  0  0  0  0  0  0  0  0  0
    1.3973    5.3547   -1.8488 S   0  0  0  0  0  0  0  0  0  0  0  0
    1.7442    7.2606    0.9146 H   0  0  0  0  0  0  0  0  0  0  0  0
   -1.0648    6.6109    0.7048 H   0  0  0  0  0  0  0  0  0  0  0  0
   -0.9499    5.1327   -1.2405 H   0  0  0  0  0  0  0  0  0  0  0  0
   -0.5604    6.7787   -1.7122 H   0  0  0  0  0  0  0  0  0  0  0  0
   -0.3101    3.9142    1.2090 N   0  0  0  0  0  0  0  0  0  0  0  0
    0.1294    2.7526    1.9718 C   0  0  0  0  0  0  0  0  0  0  0  0
   -0.9600    3.7539    0.4338 H   0  0  0  0  0  0  0  0  0  0  0  0
    1.1504    2.4711    1.6928 H   0  0  0  0  0  0  0  0  0  0  0  0
    0.1023    2.9672    3.0451 H   0  0  0  0  0  0  0  0  0  0  0  0
   -0.5286    1.9016    1.7714 H   0  0  0  0  0  0  0  0  0  0  0  0
   -3.6818   -0.7258   -2.8853 C   0  0  0  0  0  0  0  0  0  0  0  0
   -2.8832   -0.5933   -3.8017 O   0  0  0  0  0  0  0  0  0  0  0  0
   -4.2212   -2.0970   -2.5284 C   0  0  0  0  0  0  0  0  0  0  0  0
   -5.3133   -2.0793   -2.5065 H   0  0  0  0  0  0  0  0  0  0  0  0
   -3.8959   -2.8328   -3.2695 H   0  0  0  0  0  0  0  0  0  0  0  0
   -3.8456   -2.4017   -1.5483 H   0  0  0  0  0  0  0  0  0  0  0  0
   -4.0149    0.3795   -2.1252 N   0  0  0  0  0  0  0  0  0  0  0  0
   -3.5281    1.7491   -2.3826 C   0  0  2  0  0  0  0  0  0  0  0  0
   -2.0655    1.9657   -1.9127 C   0  0  0  0  0  0  0  0  0  0  0  0
   -1.7929    2.7913   -1.0498 O   0  0  0  0  0  0  0  0  0  0  0  0
   -4.5194    2.7158   -1.7225 C   0  0  0  0  0  0  0  0  0  0  0  0
   -4.6295    0.2260   -1.3301 H   0  0  0  0  0  0  0  0  0  0  0  0
   -3.5464    1.9417   -3.4611 H   0  0  0  0  0  0  0  0  0  0  0  0
   -4.5343    2.5723   -0.6374 H   0  0  0  0  0  0  0  0  0  0  0  0
   -4.2345    3.7518   -1.9316 H   0  0  0  0  0  0  0  0  0  0  0  0
   -5.5289    2.5520   -2.1117 H   0  0  0  0  0  0  0  0  0  0  0  0
   -1.1216    1.0711   -2.3825 N   0  0  0  0  0  0  0  0  0  0  0  0
    0.3569    1.0820   -2.3261 C   0  0  2  0  0  0  0  0  0  0  0  0
    0.8315   -0.1680   -1.5526 C   0  0  0  0  0  0  0  0  0  0  0  0
    1.7544   -0.1184   -0.7490 O   0  0  0  0  0  0  0  0  0  0  0  0
    1.0314    2.3802   -1.8462 C   0  0  0  0  0  0  0  0  0  0  0  0
    0.7254    3.7630   -3.0203 S   0  0  0  0  0  0  0  0  0  0  0  0
   -1.5273    0.4308   -3.0715 H   0  0  0  0  0  0  0  0  0  0  0  0
    0.7111    0.9418   -3.3515 H   0  0  0  0  0  0  0  0  0  0  0  0
    0.6826    2.6378   -0.8465 H   0  0  0  0  0  0  0  0  0  0  0  0
    2.1136    2.2305   -1.7765 H   0  0  0  0  0  0  0  0  0  0  0  0
    0.2585   -1.3979   -1.8287 N   0  0  0  0  0  0  0  0  0  0  0  0
    0.5412   -2.6499   -1.1134 C   0  0  2  0  0  0  0  0  0  0  0  0
   -0.1537   -3.8427   -1.8005 C   0  0  0  0  0  0  0  0  0  0  0  0
   -1.2068   -3.6707   -2.4054 O   0  0  0  0  0  0  0  0  0  0  0  0
    0.0366   -2.5552    0.3341 C   0  0  0  0  0  0  0  0  0  0  0  0
   -0.5254   -1.4115   -2.4820 H   0  0  0  0  0  0  0  0  0  0  0  0
    1.6215   -2.8298   -1.1146 H   0  0  0  0  0  0  0  0  0  0  0  0
   -1.0329   -2.3233    0.3505 H   0  0  0  0  0  0  0  0  0  0  0  0
    0.1949   -3.5034    0.8567 H   0  0  0  0  0  0  0  0  0  0  0  0
    0.5695   -1.7737    0.8833 H   0  0  0  0  0  0  0  0  0  0  0  0
    0.3722   -5.1170   -1.6998 N   0  0  0  0  0  0  0  0  0  0  0  0
   -0.2529   -6.2902   -2.2985 C   0  0  0  0  0  0  0  0  0  0  0  0
    1.2442   -5.2294   -1.1905 H   0  0  0  0  0  0  0  0  0  0  0  0
   -1.2480   -6.4550   -1.8719 H   0  0  0  0  0  0  0  0  0  0  0  0
   -0.3510   -6.1624   -3.3819 H   0  0  0  0  0  0  0  0  0  0  0  0
    0.3549   -7.1802   -2.1091 H   0  0  0  0  0  0  0  0  0  0  0  0
  1  2  2  0  0  0  0
  1  3  1  0  0  0  0
  1  7  1  0  0  0  0
  3  4  1  0  0  0  0
  3  5  1  0  0  0  0
  3  6  1  0  0  0  0
  7  8  1  0  0  0  0
  7 13  1  0  0  0  0
  8  9  1  0  0  0  0
  8 11  1  0  0  0  0
  8 14  1  0  0  0  0
  9 10  2  0  0  0  0
  9 17  1  0  0  0  0
 11 12  1  0  0  0  0
 11 15  1  0  0  0  0
 11 16  1  0  0  0  0
 12 44  1  0  0  0  0
 17 18  1  0  0  0  0
 17 19  1  0  0  0  0
 18 20  1  0  0  0  0
 18 21  1  0  0  0  0
 18 22  1  0  0  0  0
 23 24  2  0  0  0  0
 23 25  1  0  0  0  0
 23 29  1  0  0  0  0
 25 26  1  0  0  0  0
 25 27  1  0  0  0  0
 25 28  1  0  0  0  0
 29 30  1  0  0  0  0
 29 34  1  0  0  0  0
 30 31  1  0  0  0  0
 30 33  1  0  0  0  0
 30 35  1  0  0  0  0
 31 32  2  0  0  0  0
 31 39  1  0  0  0  0
 33 36  1  0  0  0  0
 33 37  1  0  0  0  0
 33 38  1  0  0  0  0
 39 40  1  0  0  0  0
 39 45  1  0  0  0  0
 40 41  1  0  0  0  0
 40 43  1  0  0  0  0
 40 46  1  0  0  0  0
 41 42  2  0  0  0  0
 41 49  1  0  0  0  0
 43 44  1  0  0  0  0
 43 47  1  0  0  0  0
 43 48  1  0  0  0  0
 49 50  1  0  0  0  0
 49 54  1  0  0  0  0
 50 51  1  0  0  0  0
 50 53  1  0  0  0  0
 50 55  1  0  0  0  0
 51 52  2  0  0  0  0
 51 59  1  0  0  0  0
 53 56  1  0  0  0  0
 53 57  1  0  0  0  0
 53 58  1  0  0  0  0
 59 60  1  0  0  0  0
 59 61  1  0  0  0  0
 60 62  1  0  0  0  0
 60 63  1  0  0  0  0
 60 64  1  0  0  0  0
M  END
$$$$

  -OEChem-05262216053D

 64 63  0     1  0  0  0  0  0999 V2000
    0.6771    8.7585    0.2207 C   0  0  0  0  0  0  0  0  0  0  0  0
   -0.4104    9.1049   -0.2141 O   0  0  0  0  0  0  0  0  0  0  0  0
    1.7245    9.7989    0.5691 C   0  0  0  0  0  0  0  0  0  0  0  0
    2.6121    9.6549   -0.0516 H   0  0  0  0  0  0  0  0  0  0  0  0
    1.3299   10.8037    0.3942 H   0  0  0  0  0  0  0  0  0  0  0  0
    2.0052    9.7081    1.6213 H   0  0  0  0  0  0  0  0  0  0  0  0
    0.9518    7.4222    0.4085 N   0  0  0  0  0  0  0  0  0  0  0  0
   -0.0268    6.3391    0.2360 C   0  0  2  0  0  0  0  0  0  0  0  0
    0.2969    5.1275    1.1412 C   0  0  0  0  0  0  0  0  0  0  0  0
    1.2049    5.2107    1.9642 O   0  0  0  0  0  0  0  0  0  0  0  0
   -0.1020    5.9529   -1.2480 C   0  0  0  0  0  0  0  0  0  0  0  0
    1.4891    5.2819   -1.8841 S   0  0  0  0  0  0  0  0  0  0  0  0
    1.8182    7.1812    0.8877 H   0  0  0  0  0  0  0  0  0  0  0  0
   -1.0138    6.6979    0.5454 H   0  0  0  0  0  0  0  0  0  0  0  0
   -0.8927    5.2153   -1.3898 H   0  0  0  0  0  0  0  0  0  0  0  0
   -0.3761    6.8316   -1.8402 H   0  0  0  0  0  0  0  0  0  0  0  0
   -0.4641    3.9728    1.1011 N   0  0  0  0  0  0  0  0  0  0  0  0
   -0.1303    2.7812    1.8719 C   0  0  0  0  0  0  0  0  0  0  0  0
   -1.0760    3.8506    0.2889 H   0  0  0  0  0  0  0  0  0  0  0  0
    0.8761    2.4293    1.6215 H   0  0  0  0  0  0  0  0  0  0  0  0
   -0.1745    2.9925    2.9452 H   0  0  0  0  0  0  0  0  0  0  0  0
   -0.8401    1.9791    1.6476 H   0  0  0  0  0  0  0  0  0  0  0  0
   -3.9057   -0.7103   -2.2376 C   0  0  0  0  0  0  0  0  0  0  0  0
   -3.1001   -0.8901   -3.1396 O   0  0  0  0  0  0  0  0  0  0  0  0
   -4.5192   -1.8929   -1.5132 C   0  0  0  0  0  0  0  0  0  0  0  0
   -5.6078   -1.8640   -1.6053 H   0  0  0  0  0  0  0  0  0  0  0  0
   -4.1548   -2.8299   -1.9440 H   0  0  0  0  0  0  0  0  0  0  0  0
   -4.2482   -1.8640   -0.4550 H   0  0  0  0  0  0  0  0  0  0  0  0
   -4.1972    0.5777   -1.8344 N   0  0  0  0  0  0  0  0  0  0  0  0
   -3.6236    1.7890   -2.4452 C   0  0  2  0  0  0  0  0  0  0  0  0
   -2.1533    2.0275   -2.0186 C   0  0  0  0  0  0  0  0  0  0  0  0
   -1.8673    2.9313   -1.2434 O   0  0  0  0  0  0  0  0  0  0  0  0
   -4.5479    2.9620   -2.0947 C   0  0  0  0  0  0  0  0  0  0  0  0
   -4.8060    0.6861   -1.0276 H   0  0  0  0  0  0  0  0  0  0  0  0
   -3.6271    1.6824   -3.5354 H   0  0  0  0  0  0  0  0  0  0  0  0
   -4.5861    3.1167   -1.0116 H   0  0  0  0  0  0  0  0  0  0  0  0
   -4.1857    3.8828   -2.5630 H   0  0  0  0  0  0  0  0  0  0  0  0
   -5.5625    2.7688   -2.4560 H   0  0  0  0  0  0  0  0  0  0  0  0
   -1.2228    1.0851   -2.4200 N   0  0  0  0  0  0  0  0  0  0  0  0
    0.2518    1.0513   -2.2954 C   0  0  2  0  0  0  0  0  0  0  0  0
    0.6590   -0.1852   -1.4666 C   0  0  0  0  0  0  0  0  0  0  0  0
    1.2722   -0.0785   -0.4112 O   0  0  0  0  0  0  0  0  0  0  0  0
    0.9625    2.3347   -1.8282 C   0  0  0  0  0  0  0  0  0  0  0  0
    0.7768    3.6996   -3.0473 S   0  0  0  0  0  0  0  0  0  0  0  0
   -1.6513    0.3133   -2.9405 H   0  0  0  0  0  0  0  0  0  0  0  0
    0.6418    0.8694   -3.3011 H   0  0  0  0  0  0  0  0  0  0  0  0
    0.5798    2.6385   -0.8552 H   0  0  0  0  0  0  0  0  0  0  0  0
    2.0312    2.1355   -1.7007 H   0  0  0  0  0  0  0  0  0  0  0  0
    0.3220   -1.4513   -1.9111 N   0  0  0  0  0  0  0  0  0  0  0  0
    0.7193   -2.7022   -1.2529 C   0  0  2  0  0  0  0  0  0  0  0  0
    0.9668   -3.8338   -2.2714 C   0  0  0  0  0  0  0  0  0  0  0  0
    0.5219   -3.7464   -3.4101 O   0  0  0  0  0  0  0  0  0  0  0  0
   -0.3887   -3.0942   -0.2717 C   0  0  0  0  0  0  0  0  0  0  0  0
   -0.1356   -1.5334   -2.8195 H   0  0  0  0  0  0  0  0  0  0  0  0
    1.6539   -2.5517   -0.7024 H   0  0  0  0  0  0  0  0  0  0  0  0
   -1.3298   -3.2605   -0.8058 H   0  0  0  0  0  0  0  0  0  0  0  0
   -0.1227   -4.0117    0.2618 H   0  0  0  0  0  0  0  0  0  0  0  0
   -0.5404   -2.2986    0.4649 H   0  0  0  0  0  0  0  0  0  0  0  0
    1.6965   -4.9517   -1.9106 N   0  0  0  0  0  0  0  0  0  0  0  0
    2.0031   -6.0381   -2.8331 C   0  0  0  0  0  0  0  0  0  0  0  0
    2.0893   -4.9764   -0.9740 H   0  0  0  0  0  0  0  0  0  0  0  0
    1.0809   -6.4899   -3.2133 H   0  0  0  0  0  0  0  0  0  0  0  0
    2.5898   -5.6671   -3.6801 H   0  0  0  0  0  0  0  0  0  0  0  0
    2.5827   -6.8143   -2.3244 H   0  0  0  0  0  0  0  0  0  0  0  0
  1  2  2  0  0  0  0
  1  3  1  0  0  0  0
  1  7  1  0  0  0  0
  3  4  1  0  0  0  0
  3  5  1  0  0  0  0
  3  6  1  0  0  0  0
  7  8  1  0  0  0  0
  7 13  1  0  0  0  0
  8  9  1  0  0  0  0
  8 11  1  0  0  0  0
  8 14  1  0  0  0  0
  9 10  2  0  0  0  0
  9 17  1  0  0  0  0
 11 12  1  0  0  0  0
 11 15  1  0  0  0  0
 11 16  1  0  0  0  0
 12 44  1  0  0  0  0
 17 18  1  0  0  0  0
 17 19  1  0  0  0  0
 18 20  1  0  0  0  0
 18 21  1  0  0  0  0
 18 22  1  0  0  0  0
 23 24  2  0  0  0  0
 23 25  1  0  0  0  0
 23 29  1  0  0  0  0
 25 26  1  0  0  0  0
 25 27  1  0  0  0  0
 25 28  1  0  0  0  0
 29 30  1  0  0  0  0
 29 34  1  0  0  0  0
 30 31  1  0  0  0  0
 30 33  1  0  0  0  0
 30 35  1  0  0  0  0
 31 32  2  0  0  0  0
 31 39  1  0  0  0  0
 33 36  1  0  0  0  0
 33 37  1  0  0  0  0
 33 38  1  0  0  0  0
 39 40  1  0  0  0  0
 39 45  1  0  0  0  0
 40 41  1  0  0  0  0
 40 43  1  0  0  0  0
 40 46  1  0  0  0  0
 41 42  2  0  0  0  0
 41 49  1  0  0  0  0
 43 44  1  0  0  0  0
 43 47  1  0  0  0  0
 43 48  1  0  0  0  0
 49 50  1  0  0  0  0
 49 54  1  0  0  0  0
 50 51  1  0  0  0  0
 50 53  1  0  0  0  0
 50 55  1  0  0  0  0
 51 52  2  0  0  0  0
 51 59  1  0  0  0  0
 53 56  1  0  0  0  0
 53 57  1  0  0  0  0
 53 58  1  0  0  0  0
 59 60  1  0  0  0  0
 59 61  1  0  0  0  0
 60 62  1  0  0  0  0
 60 63  1  0  0  0  0
 60 64  1  0  0  0  0
M  END
$$$$

  -OEChem-05262216053D

 64 63  0     1  0  0  0  0  0999 V2000
    0.4788    8.8346    0.1525 C   0  0  0  0  0  0  0  0  0  0  0  0
   -0.5882    9.1204   -0.3687 O   0  0  0  0  0  0  0  0  0  0  0  0
    1.4579    9.9293    0.5317 C   0  0  0  0  0  0  0  0  0  0  0  0
    2.4205    9.7520    0.0459 H   0  0  0  0  0  0  0  0  0  0  0  0
    1.0758   10.9031    0.2134 H   0  0  0  0  0  0  0  0  0  0  0  0
    1.6013    9.9433    1.6147 H   0  0  0  0  0  0  0  0  0  0  0  0
    0.7933    7.5177    0.4049 N   0  0  0  0  0  0  0  0  0  0  0  0
   -0.1202    6.3864    0.1889 C   0  0  2  0  0  0  0  0  0  0  0  0
    0.1990    5.2078    1.1387 C   0  0  0  0  0  0  0  0  0  0  0  0
    1.0511    5.3497    2.0123 O   0  0  0  0  0  0  0  0  0  0  0  0
   -0.0746    5.9731   -1.2890 C   0  0  0  0  0  0  0  0  0  0  0  0
    1.5640    5.2964   -1.7837 S   0  0  0  0  0  0  0  0  0  0  0  0
    1.6323    7.3277    0.9514 H   0  0  0  0  0  0  0  0  0  0  0  0
   -1.1416    6.7031    0.4239 H   0  0  0  0  0  0  0  0  0  0  0  0
   -0.8496    5.2305   -1.4796 H   0  0  0  0  0  0  0  0  0  0  0  0
   -0.3042    6.8388   -1.9180 H   0  0  0  0  0  0  0  0  0  0  0  0
   -0.5030    4.0169    1.0780 N   0  0  0  0  0  0  0  0  0  0  0  0
   -0.1564    2.8565    1.8911 C   0  0  0  0  0  0  0  0  0  0  0  0
   -1.0630    3.8527    0.2359 H   0  0  0  0  0  0  0  0  0  0  0  0
    0.8625    2.5214    1.6697 H   0  0  0  0  0  0  0  0  0  0  0  0
   -0.2234    3.0988    2.9566 H   0  0  0  0  0  0  0  0  0  0  0  0
   -0.8435    2.0312    1.6802 H   0  0  0  0  0  0  0  0  0  0  0  0
   -3.7537   -0.7296   -2.2679 C   0  0  0  0  0  0  0  0  0  0  0  0
   -2.9627   -0.9193   -3.1808 O   0  0  0  0  0  0  0  0  0  0  0  0
   -4.3103   -1.9036   -1.4861 C   0  0  0  0  0  0  0  0  0  0  0  0
   -5.4020   -1.8584   -1.4694 H   0  0  0  0  0  0  0  0  0  0  0  0
   -4.0057   -2.8453   -1.9518 H   0  0  0  0  0  0  0  0  0  0  0  0
   -3.9341   -1.8801   -0.4602 H   0  0  0  0  0  0  0  0  0  0  0  0
   -4.0705    0.5635   -1.9013 N   0  0  0  0  0  0  0  0  0  0  0  0
   -3.5070    1.7649   -2.5403 C   0  0  2  0  0  0  0  0  0  0  0  0
   -2.0475    2.0328   -2.0966 C   0  0  0  0  0  0  0  0  0  0  0  0
   -1.7906    2.9554   -1.3338 O   0  0  0  0  0  0  0  0  0  0  0  0
   -4.4504    2.9364   -2.2372 C   0  0  0  0  0  0  0  0  0  0  0  0
   -4.6464    0.6836   -1.0723 H   0  0  0  0  0  0  0  0  0  0  0  0
   -3.4927    1.6262   -3.6266 H   0  0  0  0  0  0  0  0  0  0  0  0
   -4.5107    3.1173   -1.1591 H   0  0  0  0  0  0  0  0  0  0  0  0
   -4.0874    3.8492   -2.7209 H   0  0  0  0  0  0  0  0  0  0  0  0
   -5.4563    2.7243   -2.6128 H   0  0  0  0  0  0  0  0  0  0  0  0
   -1.1006    1.0866   -2.4470 N   0  0  0  0  0  0  0  0  0  0  0  0
    0.3647    1.0522   -2.2457 C   0  0  2  0  0  0  0  0  0  0  0  0
    0.7163   -0.1826   -1.3927 C   0  0  0  0  0  0  0  0  0  0  0  0
    0.9852   -0.0795   -0.2016 O   0  0  0  0  0  0  0  0  0  0  0  0
    1.0623    2.3292   -1.7444 C   0  0  0  0  0  0  0  0  0  0  0  0
    0.9488    3.6934   -2.9747 S   0  0  0  0  0  0  0  0  0  0  0  0
   -1.5071    0.2938   -2.9537 H   0  0  0  0  0  0  0  0  0  0  0  0
    0.8065    0.8691   -3.2297 H   0  0  0  0  0  0  0  0  0  0  0  0
    0.6290    2.6396   -0.7951 H   0  0  0  0  0  0  0  0  0  0  0  0
    2.1203    2.1196   -1.5577 H   0  0  0  0  0  0  0  0  0  0  0  0
    0.6884   -1.4408   -1.9648 N   0  0  0  0  0  0  0  0  0  0  0  0
    1.0299   -2.6874   -1.2695 C   0  0  2  0  0  0  0  0  0  0  0  0
    1.6934   -3.7059   -2.2194 C   0  0  0  0  0  0  0  0  0  0  0  0
    1.6049   -3.5641   -3.4339 O   0  0  0  0  0  0  0  0  0  0  0  0
   -0.2572   -3.2656   -0.6739 C   0  0  0  0  0  0  0  0  0  0  0  0
    0.5256   -1.5051   -2.9696 H   0  0  0  0  0  0  0  0  0  0  0  0
    1.7420   -2.4815   -0.4635 H   0  0  0  0  0  0  0  0  0  0  0  0
   -0.9841   -3.4750   -1.4655 H   0  0  0  0  0  0  0  0  0  0  0  0
   -0.0488   -4.1959   -0.1370 H   0  0  0  0  0  0  0  0  0  0  0  0
   -0.7022   -2.5539    0.0285 H   0  0  0  0  0  0  0  0  0  0  0  0
    2.3990   -4.7806   -1.7106 N   0  0  0  0  0  0  0  0  0  0  0  0
    3.0919   -5.7507   -2.5497 C   0  0  0  0  0  0  0  0  0  0  0  0
    2.4958   -4.8457   -0.7015 H   0  0  0  0  0  0  0  0  0  0  0  0
    2.4001   -6.1996   -3.2700 H   0  0  0  0  0  0  0  0  0  0  0  0
    3.9077   -5.2683   -3.0979 H   0  0  0  0  0  0  0  0  0  0  0  0
    3.5130   -6.5511   -1.9340 H   0  0  0  0  0  0  0  0  0  0  0  0
  1  2  2  0  0  0  0
  1  3  1  0  0  0  0
  1  7  1  0  0  0  0
  3  4  1  0  0  0  0
  3  5  1  0  0  0  0
  3  6  1  0  0  0  0
  7  8  1  0  0  0  0
  7 13  1  0  0  0  0
  8  9  1  0  0  0  0
  8 11  1  0  0  0  0
  8 14  1  0  0  0  0
  9 10  2  0  0  0  0
  9 17  1  0  0  0  0
 11 12  1  0  0  0  0
 11 15  1  0  0  0  0
 11 16  1  0  0  0  0
 12 44  1  0  0  0  0
 17 18  1  0  0  0  0
 17 19  1  0  0  0  0
 18 20  1  0  0  0  0
 18 21  1  0  0  0  0
 18 22  1  0  0  0  0
 23 24  2  0  0  0  0
 23 25  1  0  0  0  0
 23 29  1  0  0  0  0
 25 26  1  0  0  0  0
 25 27  1  0  0  0  0
 25 28  1  0  0  0  0
 29 30  1  0  0  0  0
 29 34  1  0  0  0  0
 30 31  1  0  0  0  0
 30 33  1  0  0  0  0
 30 35  1  0  0  0  0
 31 32  2  0  0  0  0
 31 39  1  0  0  0  0
 33 36  1  0  0  0  0
 33 37  1  0  0  0  0
 33 38  1  0  0  0  0
 39 40  1  0  0  0  0
 39 45  1  0  0  0  0
 40 41  1  0  0  0  0
 40 43  1  0  0  0  0
 40 46  1  0  0  0  0
 41 42  2  0  0  0  0
 41 49  1  0  0  0  0
 43 44  1  0  0  0  0
 43 47  1  0  0  0  0
 43 48  1  0  0  0  0
 49 50  1  0  0  0  0
 49 54  1  0  0  0  0
 50 51  1  0  0  0  0
 50 53  1  0  0  0  0
 50 55  1  0  0  0  0
 51 52  2  0  0  0  0
 51 59  1  0  0  0  0
 53 56  1  0  0  0  0
 53 57  1  0  0  0  0
 53 58  1  0  0  0  0
 59 60  1  0  0  0  0
 59 61  1  0  0  0  0
 60 62  1  0  0  0  0
 60 63  1  0  0  0  0
 60 64  1  0  0  0  0
M  END
$$$$

  -OEChem-05262216053D

 64 63  0     1  0  0  0  0  0999 V2000
   -0.0852    8.4215    0.3269 C   0  0  0  0  0  0  0  0  0  0  0  0
   -1.2064    8.5974   -0.1248 O   0  0  0  0  0  0  0  0  0  0  0  0
    0.7871    9.6095    0.6845 C   0  0  0  0  0  0  0  0  0  0  0  0
    1.7505    9.5317    0.1749 H   0  0  0  0  0  0  0  0  0  0  0  0
    0.3004   10.5398    0.3788 H   0  0  0  0  0  0  0  0  0  0  0  0
    0.9551    9.6357    1.7637 H   0  0  0  0  0  0  0  0  0  0  0  0
    0.3846    7.1423    0.5264 N   0  0  0  0  0  0  0  0  0  0  0  0
   -0.4127    5.9221    0.3343 C   0  0  2  0  0  0  0  0  0  0  0  0
    0.0994    4.7604    1.2178 C   0  0  0  0  0  0  0  0  0  0  0  0
    1.0089    4.9643    2.0179 O   0  0  0  0  0  0  0  0  0  0  0  0
   -0.4299    5.5581   -1.1571 C   0  0  0  0  0  0  0  0  0  0  0  0
    1.2343    5.0938   -1.7894 S   0  0  0  0  0  0  0  0  0  0  0  0
    1.2745    7.0340    1.0116 H   0  0  0  0  0  0  0  0  0  0  0  0
   -1.4427    6.1160    0.6510 H   0  0  0  0  0  0  0  0  0  0  0  0
   -1.1253    4.7349   -1.3196 H   0  0  0  0  0  0  0  0  0  0  0  0
   -0.8032    6.4082   -1.7362 H   0  0  0  0  0  0  0  0  0  0  0  0
   -0.5003    3.5139    1.1888 N   0  0  0  0  0  0  0  0  0  0  0  0
    0.0004    2.3783    1.9545 C   0  0  0  0  0  0  0  0  0  0  0  0
   -1.1081    3.3095    0.3904 H   0  0  0  0  0  0  0  0  0  0  0  0
    1.0466    2.1749    1.7029 H   0  0  0  0  0  0  0  0  0  0  0  0
   -0.0733    2.5762    3.0287 H   0  0  0  0  0  0  0  0  0  0  0  0
   -0.5876    1.4839    1.7265 H   0  0  0  0  0  0  0  0  0  0  0  0
   -5.0416    0.7606   -0.8197 C   0  0  0  0  0  0  0  0  0  0  0  0
   -4.8133   -0.4247   -1.0048 O   0  0  0  0  0  0  0  0  0  0  0  0
   -5.9147    1.1980    0.3413 C   0  0  0  0  0  0  0  0  0  0  0  0
   -6.7943    1.7271   -0.0333 H   0  0  0  0  0  0  0  0  0  0  0  0
   -6.2448    0.3278    0.9154 H   0  0  0  0  0  0  0  0  0  0  0  0
   -5.3512    1.8613    1.0021 H   0  0  0  0  0  0  0  0  0  0  0  0
   -4.4866    1.7097   -1.6538 N   0  0  0  0  0  0  0  0  0  0  0  0
   -3.4299    1.3898   -2.6242 C   0  0  2  0  0  0  0  0  0  0  0  0
   -2.0147    1.5211   -2.0208 C   0  0  0  0  0  0  0  0  0  0  0  0
   -1.8144    2.3758   -1.1655 O   0  0  0  0  0  0  0  0  0  0  0  0
   -3.5868    2.3381   -3.8154 C   0  0  0  0  0  0  0  0  0  0  0  0
   -4.5384    2.6704   -1.3253 H   0  0  0  0  0  0  0  0  0  0  0  0
   -3.5541    0.3641   -2.9872 H   0  0  0  0  0  0  0  0  0  0  0  0
   -3.4518    3.3783   -3.5008 H   0  0  0  0  0  0  0  0  0  0  0  0
   -2.8432    2.1107   -4.5855 H   0  0  0  0  0  0  0  0  0  0  0  0
   -4.5834    2.2328   -4.2558 H   0  0  0  0  0  0  0  0  0  0  0  0
   -1.0179    0.6552   -2.4460 N   0  0  0  0  0  0  0  0  0  0  0  0
    0.4557    0.7689   -2.3045 C   0  0  2  0  0  0  0  0  0  0  0  0
    1.0167   -0.4199   -1.4972 C   0  0  0  0  0  0  0  0  0  0  0  0
    1.1470   -0.3555   -0.2813 O   0  0  0  0  0  0  0  0  0  0  0  0
    1.0347    2.1019   -1.7994 C   0  0  0  0  0  0  0  0  0  0  0  0
    0.7211    3.4662   -2.9938 S   0  0  0  0  0  0  0  0  0  0  0  0
   -1.3507   -0.0826   -3.0605 H   0  0  0  0  0  0  0  0  0  0  0  0
    0.8664    0.6631   -3.3129 H   0  0  0  0  0  0  0  0  0  0  0  0
    0.6198    2.3438   -0.8221 H   0  0  0  0  0  0  0  0  0  0  0  0
    2.1167    2.0046   -1.6648 H   0  0  0  0  0  0  0  0  0  0  0  0
    1.4119   -1.5711   -2.1530 N   0  0  0  0  0  0  0  0  0  0  0  0
    2.0806   -2.7108   -1.5126 C   0  0  2  0  0  0  0  0  0  0  0  0
    2.9934   -3.4529   -2.5117 C   0  0  0  0  0  0  0  0  0  0  0  0
    2.9266   -3.1936   -3.7091 O   0  0  0  0  0  0  0  0  0  0  0  0
    1.0071   -3.6528   -0.9595 C   0  0  0  0  0  0  0  0  0  0  0  0
    1.4261   -1.5578   -3.1726 H   0  0  0  0  0  0  0  0  0  0  0  0
    2.7119   -2.3569   -0.6902 H   0  0  0  0  0  0  0  0  0  0  0  0
    0.3753   -4.0304   -1.7699 H   0  0  0  0  0  0  0  0  0  0  0  0
    1.4683   -4.5041   -0.4504 H   0  0  0  0  0  0  0  0  0  0  0  0
    0.3722   -3.1253   -0.2404 H   0  0  0  0  0  0  0  0  0  0  0  0
    3.8974   -4.4018   -2.0713 N   0  0  0  0  0  0  0  0  0  0  0  0
    4.7948   -5.1268   -2.9633 C   0  0  0  0  0  0  0  0  0  0  0  0
    3.9405   -4.5865   -1.0731 H   0  0  0  0  0  0  0  0  0  0  0  0
    4.2232   -5.6852   -3.7123 H   0  0  0  0  0  0  0  0  0  0  0  0
    5.4663   -4.4317   -3.4785 H   0  0  0  0  0  0  0  0  0  0  0  0
    5.4025   -5.8373   -2.3945 H   0  0  0  0  0  0  0  0  0  0  0  0
  1  2  2  0  0  0  0
  1  3  1  0  0  0  0
  1  7  1  0  0  0  0
  3  4  1  0  0  0  0
  3  5  1  0  0  0  0
  3  6  1  0  0  0  0
  7  8  1  0  0  0  0
  7 13  1  0  0  0  0
  8  9  1  0  0  0  0
  8 11  1  0  0  0  0
  8 14  1  0  0  0  0
  9 10  2  0  0  0  0
  9 17  1  0  0  0  0
 11 12  1  0  0  0  0
 11 15  1  0  0  0  0
 11 16  1  0  0  0  0
 12 44  1  0  0  0  0
 17 18  1  0  0  0  0
 17 19  1  0  0  0  0
 18 20  1  0  0  0  0
 18 21  1  0  0  0  0
 18 22  1  0  0  0  0
 23 24  2  0  0  0  0
 23 25  1  0  0  0  0
 23 29  1  0  0  0  0
 25 26  1  0  0  0  0
 25 27  1  0  0  0  0
 25 28  1  0  0  0  0
 29 30  1  0  0  0  0
 29 34  1  0  0  0  0
 30 31  1  0  0  0  0
 30 33  1  0  0  0  0
 30 35  1  0  0  0  0
 31 32  2  0  0  0  0
 31 39  1  0  0  0  0
 33 36  1  0  0  0  0
 33 37  1  0  0  0  0
 33 38  1  0  0  0  0
 39 40  1  0  0  0  0
 39 45  1  0  0  0  0
 40 41  1  0  0  0  0
 40 43  1  0  0  0  0
 40 46  1  0  0  0  0
 41 42  2  0  0  0  0
 41 49  1  0  0  0  0
 43 44  1  0  0  0  0
 43 47  1  0  0  0  0
 43 48  1  0  0  0  0
 49 50  1  0  0  0  0
 49 54  1  0  0  0  0
 50 51  1  0  0  0  0
 50 53  1  0  0  0  0
 50 55  1  0  0  0  0
 51 52  2  0  0  0  0
 51 59  1  0  0  0  0
 53 56  1  0  0  0  0
 53 57  1  0  0  0  0
 53 58  1  0  0  0  0
 59 60  1  0  0  0  0
 59 61  1  0  0  0  0
 60 62  1  0  0  0  0
 60 63  1  0  0  0  0
 60 64  1  0  0  0  0
M  END
$$$$

  -OEChem-05262216053D

 64 63  0     1  0  0  0  0  0999 V2000
   -0.2801    8.3716    0.2874 C   0  0  0  0  0  0  0  0  0  0  0  0
   -1.4472    8.4463   -0.0648 O   0  0  0  0  0  0  0  0  0  0  0  0
    0.5206    9.6349    0.5404 C   0  0  0  0  0  0  0  0  0  0  0  0
    1.3691    9.6807   -0.1465 H   0  0  0  0  0  0  0  0  0  0  0  0
   -0.1074   10.5168    0.3856 H   0  0  0  0  0  0  0  0  0  0  0  0
    0.8910    9.6422    1.5684 H   0  0  0  0  0  0  0  0  0  0  0  0
    0.3070    7.1382    0.4655 N   0  0  0  0  0  0  0  0  0  0  0  0
   -0.4121    5.8580    0.3874 C   0  0  2  0  0  0  0  0  0  0  0  0
    0.2463    4.7759    1.2754 C   0  0  0  0  0  0  0  0  0  0  0  0
    1.1898    5.0801    2.0006 O   0  0  0  0  0  0  0  0  0  0  0  0
   -0.5096    5.4213   -1.0808 C   0  0  0  0  0  0  0  0  0  0  0  0
    1.1339    5.0166   -1.8032 S   0  0  0  0  0  0  0  0  0  0  0  0
    1.2372    7.1137    0.8813 H   0  0  0  0  0  0  0  0  0  0  0  0
   -1.4277    5.9962    0.7728 H   0  0  0  0  0  0  0  0  0  0  0  0
   -1.1661    4.5545   -1.1559 H   0  0  0  0  0  0  0  0  0  0  0  0
   -0.9698    6.2192   -1.6716 H   0  0  0  0  0  0  0  0  0  0  0  0
   -0.2466    3.4838    1.3271 N   0  0  0  0  0  0  0  0  0  0  0  0
    0.4005    2.4209    2.0875 C   0  0  0  0  0  0  0  0  0  0  0  0
   -0.9030    3.2041    0.5927 H   0  0  0  0  0  0  0  0  0  0  0  0
    1.4343    2.2834    1.7534 H   0  0  0  0  0  0  0  0  0  0  0  0
    0.4032    2.6598    3.1558 H   0  0  0  0  0  0  0  0  0  0  0  0
   -0.1351    1.4768    1.9456 H   0  0  0  0  0  0  0  0  0  0  0  0
   -5.6802    1.3832   -1.1865 C   0  0  0  0  0  0  0  0  0  0  0  0
   -6.1016    0.4601   -1.8651 O   0  0  0  0  0  0  0  0  0  0  0  0
   -6.5803    2.0523   -0.1648 C   0  0  0  0  0  0  0  0  0  0  0  0
   -6.7474    3.0964   -0.4414 H   0  0  0  0  0  0  0  0  0  0  0  0
   -7.5458    1.5399   -0.1208 H   0  0  0  0  0  0  0  0  0  0  0  0
   -6.1163    2.0143    0.8239 H   0  0  0  0  0  0  0  0  0  0  0  0
   -4.3798    1.8130   -1.3453 N   0  0  0  0  0  0  0  0  0  0  0  0
   -3.3975    1.1737   -2.2309 C   0  0  2  0  0  0  0  0  0  0  0  0
   -1.9504    1.3412   -1.7208 C   0  0  0  0  0  0  0  0  0  0  0  0
   -1.7196    2.1746   -0.8511 O   0  0  0  0  0  0  0  0  0  0  0  0
   -3.5354    1.7906   -3.6264 C   0  0  0  0  0  0  0  0  0  0  0  0
   -4.0315    2.5124   -0.6919 H   0  0  0  0  0  0  0  0  0  0  0  0
   -3.6028    0.0991   -2.2870 H   0  0  0  0  0  0  0  0  0  0  0  0
   -3.3281    2.8654   -3.5912 H   0  0  0  0  0  0  0  0  0  0  0  0
   -2.8357    1.3239   -4.3261 H   0  0  0  0  0  0  0  0  0  0  0  0
   -4.5510    1.6439   -4.0076 H   0  0  0  0  0  0  0  0  0  0  0  0
   -0.9660    0.4909   -2.2036 N   0  0  0  0  0  0  0  0  0  0  0  0
    0.5095    0.6527   -2.1760 C   0  0  2  0  0  0  0  0  0  0  0  0
    1.1739   -0.4947   -1.3890 C   0  0  0  0  0  0  0  0  0  0  0  0
    1.1379   -0.5149   -0.1655 O   0  0  0  0  0  0  0  0  0  0  0  0
    1.0785    2.0124   -1.7381 C   0  0  0  0  0  0  0  0  0  0  0  0
    0.6255    3.3363   -2.9333 S   0  0  0  0  0  0  0  0  0  0  0  0
   -1.3182   -0.2200   -2.8386 H   0  0  0  0  0  0  0  0  0  0  0  0
    0.8431    0.5386   -3.2115 H   0  0  0  0  0  0  0  0  0  0  0  0
    0.7306    2.2617   -0.7364 H   0  0  0  0  0  0  0  0  0  0  0  0
    2.1702    1.9547   -1.6861 H   0  0  0  0  0  0  0  0  0  0  0  0
    1.8385   -1.5077   -2.0553 N   0  0  0  0  0  0  0  0  0  0  0  0
    2.5947   -2.5838   -1.4011 C   0  0  2  0  0  0  0  0  0  0  0  0
    3.7011   -3.1294   -2.3288 C   0  0  0  0  0  0  0  0  0  0  0  0
    3.7105   -2.8181   -3.5153 O   0  0  0  0  0  0  0  0  0  0  0  0
    1.6206   -3.7011   -1.0117 C   0  0  0  0  0  0  0  0  0  0  0  0
    1.9681   -1.4157   -3.0630 H   0  0  0  0  0  0  0  0  0  0  0  0
    3.0819   -2.1965   -0.4998 H   0  0  0  0  0  0  0  0  0  0  0  0
    1.1336   -4.1110   -1.9022 H   0  0  0  0  0  0  0  0  0  0  0  0
    2.1484   -4.5105   -0.4987 H   0  0  0  0  0  0  0  0  0  0  0  0
    0.8482   -3.3156   -0.3386 H   0  0  0  0  0  0  0  0  0  0  0  0
    4.6935   -3.9560   -1.8348 N   0  0  0  0  0  0  0  0  0  0  0  0
    5.7741   -4.4889   -2.6566 C   0  0  0  0  0  0  0  0  0  0  0  0
    4.6716   -4.1813   -0.8443 H   0  0  0  0  0  0  0  0  0  0  0  0
    5.3706   -5.1020   -3.4695 H   0  0  0  0  0  0  0  0  0  0  0  0
    6.3651   -3.6747   -3.0891 H   0  0  0  0  0  0  0  0  0  0  0  0
    6.4386   -5.1131   -2.0511 H   0  0  0  0  0  0  0  0  0  0  0  0
  1  2  2  0  0  0  0
  1  3  1  0  0  0  0
  1  7  1  0  0  0  0
  3  4  1  0  0  0  0
  3  5  1  0  0  0  0
  3  6  1  0  0  0  0
  7  8  1  0  0  0  0
  7 13  1  0  0  0  0
  8  9  1  0  0  0  0
  8 11  1  0  0  0  0
  8 14  1  0  0  0  0
  9 10  2  0  0  0  0
  9 17  1  0  0  0  0
 11 12  1  0  0  0  0
 11 15  1  0  0  0  0
 11 16  1  0  0  0  0
 12 44  1  0  0  0  0
 17 18  1  0  0  0  0
 17 19  1  0  0  0  0
 18 20  1  0  0  0  0
 18 21  1  0  0  0  0
 18 22  1  0  0  0  0
 23 24  2  0  0  0  0
 23 25  1  0  0  0  0
 23 29  1  0  0  0  0
 25 26  1  0  0  0  0
 25 27  1  0  0  0  0
 25 28  1  0  0  0  0
 29 30  1  0  0  0  0
 29 34  1  0  0  0  0
 30 31  1  0  0  0  0
 30 33  1  0  0  0  0
 30 35  1  0  0  0  0
 31 32  2  0  0  0  0
 31 39  1  0  0  0  0
 33 36  1  0  0  0  0
 33 37  1  0  0  0  0
 33 38  1  0  0  0  0
 39 40  1  0  0  0  0
 39 45  1  0  0  0  0
 40 41  1  0  0  0  0
 40 43  1  0  0  0  0
 40 46  1  0  0  0  0
 41 42  2  0  0  0  0
 41 49  1  0  0  0  0
 43 44  1  0  0  0  0
 43 47  1  0  0  0  0
 43 48  1  0  0  0  0
 49 50  1  0  0  0  0
 49 54  1  0  0  0  0
 50 51  1  0  0  0  0
 50 53  1  0  0  0  0
 50 55  1  0  0  0  0
 51 52  2  0  0  0  0
 51 59  1  0  0  0  0
 53 56  1  0  0  0  0
 53 57  1  0  0  0  0
 53 58  1  0  0  0  0
 59 60  1  0  0  0  0
 59 61  1  0  0  0  0
 60 62  1  0  0  0  0
 60 63  1  0  0  0  0
 60 64  1  0  0  0  0
M  END
$$$$

  -OEChem-05262216053D

 64 63  0     1  0  0  0  0  0999 V2000
   -0.1737    8.3640    0.2694 C   0  0  0  0  0  0  0  0  0  0  0  0
   -1.3312    8.4722   -0.1053 O   0  0  0  0  0  0  0  0  0  0  0  0
    0.6591    9.6029    0.5378 C   0  0  0  0  0  0  0  0  0  0  0  0
    1.5290    9.6167   -0.1232 H   0  0  0  0  0  0  0  0  0  0  0  0
    0.0653   10.5032    0.3574 H   0  0  0  0  0  0  0  0  0  0  0  0
    0.9987    9.6067    1.5764 H   0  0  0  0  0  0  0  0  0  0  0  0
    0.3746    7.1149    0.4593 N   0  0  0  0  0  0  0  0  0  0  0  0
   -0.3790    5.8561    0.3672 C   0  0  2  0  0  0  0  0  0  0  0  0
    0.2314    4.7569    1.2675 C   0  0  0  0  0  0  0  0  0  0  0  0
    1.1734    5.0317    2.0064 O   0  0  0  0  0  0  0  0  0  0  0  0
   -0.4651    5.4217   -1.1028 C   0  0  0  0  0  0  0  0  0  0  0  0
    1.1749    4.9652   -1.8024 S   0  0  0  0  0  0  0  0  0  0  0  0
    1.2935    7.0646    0.8972 H   0  0  0  0  0  0  0  0  0  0  0  0
   -1.3968    6.0226    0.7353 H   0  0  0  0  0  0  0  0  0  0  0  0
   -1.1460    4.5748   -1.1880 H   0  0  0  0  0  0  0  0  0  0  0  0
   -0.8920    6.2337   -1.6995 H   0  0  0  0  0  0  0  0  0  0  0  0
   -0.3074    3.4835    1.3157 N   0  0  0  0  0  0  0  0  0  0  0  0
    0.2807    2.4032    2.0983 C   0  0  0  0  0  0  0  0  0  0  0  0
   -0.9589    3.2238    0.5696 H   0  0  0  0  0  0  0  0  0  0  0  0
    1.3247    2.2432    1.8097 H   0  0  0  0  0  0  0  0  0  0  0  0
    0.2405    2.6374    3.1669 H   0  0  0  0  0  0  0  0  0  0  0  0
   -0.2695    1.4728    1.9263 H   0  0  0  0  0  0  0  0  0  0  0  0
   -5.7026    1.4191   -1.1433 C   0  0  0  0  0  0  0  0  0  0  0  0
   -6.1320    0.4399   -1.7325 O   0  0  0  0  0  0  0  0  0  0  0  0
   -6.5874    2.1709   -0.1671 C   0  0  0  0  0  0  0  0  0  0  0  0
   -6.7551    3.1895   -0.5252 H   0  0  0  0  0  0  0  0  0  0  0  0
   -7.5536    1.6679   -0.0697 H   0  0  0  0  0  0  0  0  0  0  0  0
   -6.1113    2.2105    0.8157 H   0  0  0  0  0  0  0  0  0  0  0  0
   -4.4075    1.8386   -1.3619 N   0  0  0  0  0  0  0  0  0  0  0  0
   -3.4334    1.1186   -2.1935 C   0  0  2  0  0  0  0  0  0  0  0  0
   -1.9817    1.3213   -1.7082 C   0  0  0  0  0  0  0  0  0  0  0  0
   -1.7476    2.2019   -0.8873 O   0  0  0  0  0  0  0  0  0  0  0  0
   -3.5811    1.6098   -3.6376 C   0  0  0  0  0  0  0  0  0  0  0  0
   -4.0507    2.5903   -0.7741 H   0  0  0  0  0  0  0  0  0  0  0  0
   -3.6426    0.0441   -2.1527 H   0  0  0  0  0  0  0  0  0  0  0  0
   -3.3691    2.6822   -3.7009 H   0  0  0  0  0  0  0  0  0  0  0  0
   -2.8904    1.0791   -4.2996 H   0  0  0  0  0  0  0  0  0  0  0  0
   -4.6009    1.4352   -3.9952 H   0  0  0  0  0  0  0  0  0  0  0  0
   -0.9959    0.4559   -2.1597 N   0  0  0  0  0  0  0  0  0  0  0  0
    0.4810    0.6046   -2.1222 C   0  0  2  0  0  0  0  0  0  0  0  0
    1.1377   -0.5258   -1.3051 C   0  0  0  0  0  0  0  0  0  0  0  0
    0.8690   -0.6768   -0.1205 O   0  0  0  0  0  0  0  0  0  0  0  0
    1.0632    1.9632   -1.7007 C   0  0  0  0  0  0  0  0  0  0  0  0
    0.6392    3.2795   -2.9144 S   0  0  0  0  0  0  0  0  0  0  0  0
   -1.3483   -0.2978   -2.7431 H   0  0  0  0  0  0  0  0  0  0  0  0
    0.8185    0.4660   -3.1535 H   0  0  0  0  0  0  0  0  0  0  0  0
    0.7105    2.2291   -0.7050 H   0  0  0  0  0  0  0  0  0  0  0  0
    2.1539    1.8939   -1.6406 H   0  0  0  0  0  0  0  0  0  0  0  0
    2.0527   -1.3756   -1.8981 N   0  0  0  0  0  0  0  0  0  0  0  0
    2.8398   -2.3886   -1.1823 C   0  0  2  0  0  0  0  0  0  0  0  0
    4.1719   -2.6700   -1.9101 C   0  0  0  0  0  0  0  0  0  0  0  0
    4.3423   -2.2494   -3.0497 O   0  0  0  0  0  0  0  0  0  0  0  0
    2.0073   -3.6703   -1.0711 C   0  0  0  0  0  0  0  0  0  0  0  0
    2.3588   -1.1597   -2.8473 H   0  0  0  0  0  0  0  0  0  0  0  0
    3.0823   -2.0255   -0.1777 H   0  0  0  0  0  0  0  0  0  0  0  0
    1.7604   -4.0535   -2.0664 H   0  0  0  0  0  0  0  0  0  0  0  0
    2.5604   -4.4422   -0.5277 H   0  0  0  0  0  0  0  0  0  0  0  0
    1.0752   -3.4734   -0.5319 H   0  0  0  0  0  0  0  0  0  0  0  0
    5.1842   -3.3784   -1.2888 N   0  0  0  0  0  0  0  0  0  0  0  0
    6.4674   -3.6622   -1.9216 C   0  0  0  0  0  0  0  0  0  0  0  0
    5.0228   -3.6998   -0.3385 H   0  0  0  0  0  0  0  0  0  0  0  0
    6.3240   -4.2584   -2.8288 H   0  0  0  0  0  0  0  0  0  0  0  0
    6.9785   -2.7313   -2.1893 H   0  0  0  0  0  0  0  0  0  0  0  0
    7.1107   -4.2245   -1.2379 H   0  0  0  0  0  0  0  0  0  0  0  0
  1  2  2  0  0  0  0
  1  3  1  0  0  0  0
  1  7  1  0  0  0  0
  3  4  1  0  0  0  0
  3  5  1  0  0  0  0
  3  6  1  0  0  0  0
  7  8  1  0  0  0  0
  7 13  1  0  0  0  0
  8  9  1  0  0  0  0
  8 11  1  0  0  0  0
  8 14  1  0  0  0  0
  9 10  2  0  0  0  0
  9 17  1  0  0  0  0
 11 12  1  0  0  0  0
 11 15  1  0  0  0  0
 11 16  1  0  0  0  0
 12 44  1  0  0  0  0
 17 18  1  0  0  0  0
 17 19  1  0  0  0  0
 18 20  1  0  0  0  0
 18 21  1  0  0  0  0
 18 22  1  0  0  0  0
 23 24  2  0  0  0  0
 23 25  1  0  0  0  0
 23 29  1  0  0  0  0
 25 26  1  0  0  0  0
 25 27  1  0  0  0  0
 25 28  1  0  0  0  0
 29 30  1  0  0  0  0
 29 34  1  0  0  0  0
 30 31  1  0  0  0  0
 30 33  1  0  0  0  0
 30 35  1  0  0  0  0
 31 32  2  0  0  0  0
 31 39  1  0  0  0  0
 33 36  1  0  0  0  0
 33 37  1  0  0  0  0
 33 38  1  0  0  0  0
 39 40  1  0  0  0  0
 39 45  1  0  0  0  0
 40 41  1  0  0  0  0
 40 43  1  0  0  0  0
 40 46  1  0  0  0  0
 41 42  2  0  0  0  0
 41 49  1  0  0  0  0
 43 44  1  0  0  0  0
 43 47  1  0  0  0  0
 43 48  1  0  0  0  0
 49 50  1  0  0  0  0
 49 54  1  0  0  0  0
 50 51  1  0  0  0  0
 50 53  1  0  0  0  0
 50 55  1  0  0  0  0
 51 52  2  0  0  0  0
 51 59  1  0  0  0  0
 53 56  1  0  0  0  0
 53 57  1  0  0  0  0
 53 58  1  0  0  0  0
 59 60  1  0  0  0  0
 59 61  1  0  0  0  0
 60 62  1  0  0  0  0
 60 63  1  0  0  0  0
 60 64  1  0  0  0  0
M  END
$$$$

  -OEChem-05262216053D

 64 63  0     1  0  0  0  0  0999 V2000
   -0.1476    8.3430    0.2473 C   0  0  0  0  0  0  0  0  0  0  0  0
   -1.2967    8.4503   -0.1528 O   0  0  0  0  0  0  0  0  0  0  0  0
    0.6833    9.5830    0.5162 C   0  0  0  0  0  0  0  0  0  0  0  0
    1.5555    9.5968   -0.1419 H   0  0  0  0  0  0  0  0  0  0  0  0
    0.0881   10.4817    0.3327 H   0  0  0  0  0  0  0  0  0  0  0  0
    1.0189    9.5890    1.5561 H   0  0  0  0  0  0  0  0  0  0  0  0
    0.3918    7.0945    0.4660 N   0  0  0  0  0  0  0  0  0  0  0  0
   -0.3638    5.8374    0.3689 C   0  0  2  0  0  0  0  0  0  0  0  0
    0.2198    4.7417    1.2917 C   0  0  0  0  0  0  0  0  0  0  0  0
    1.1501    5.0146    2.0456 O   0  0  0  0  0  0  0  0  0  0  0  0
   -0.4200    5.3946   -1.0996 C   0  0  0  0  0  0  0  0  0  0  0  0
    1.2283    4.9052   -1.7549 S   0  0  0  0  0  0  0  0  0  0  0  0
    1.3039    7.0460    0.9181 H   0  0  0  0  0  0  0  0  0  0  0  0
   -1.3887    6.0119    0.7121 H   0  0  0  0  0  0  0  0  0  0  0  0
   -1.1139    4.5599   -1.1964 H   0  0  0  0  0  0  0  0  0  0  0  0
   -0.8168    6.2093   -1.7134 H   0  0  0  0  0  0  0  0  0  0  0  0
   -0.3342    3.4751    1.3473 N   0  0  0  0  0  0  0  0  0  0  0  0
    0.2089    2.4037    2.1737 C   0  0  0  0  0  0  0  0  0  0  0  0
   -0.9762    3.2119    0.5940 H   0  0  0  0  0  0  0  0  0  0  0  0
    1.2675    2.2395    1.9465 H   0  0  0  0  0  0  0  0  0  0  0  0
    0.1090    2.6505    3.2356 H   0  0  0  0  0  0  0  0  0  0  0  0
   -0.3317    1.4712    1.9820 H   0  0  0  0  0  0  0  0  0  0  0  0
   -5.7201    1.5006   -1.1516 C   0  0  0  0  0  0  0  0  0  0  0  0
   -6.1631    0.4957   -1.6846 O   0  0  0  0  0  0  0  0  0  0  0  0
   -6.6081    2.3438   -0.2562 C   0  0  0  0  0  0  0  0  0  0  0  0
   -6.7353    3.3391   -0.6890 H   0  0  0  0  0  0  0  0  0  0  0  0
   -7.5912    1.8763   -0.1522 H   0  0  0  0  0  0  0  0  0  0  0  0
   -6.1579    2.4395    0.7347 H   0  0  0  0  0  0  0  0  0  0  0  0
   -4.4103    1.8737   -1.3681 N   0  0  0  0  0  0  0  0  0  0  0  0
   -3.4400    1.0897   -2.1447 C   0  0  2  0  0  0  0  0  0  0  0  0
   -1.9881    1.3034   -1.6644 C   0  0  0  0  0  0  0  0  0  0  0  0
   -1.7497    2.2084   -0.8717 O   0  0  0  0  0  0  0  0  0  0  0  0
   -3.5736    1.4904   -3.6181 C   0  0  0  0  0  0  0  0  0  0  0  0
   -4.0482    2.6563   -0.8260 H   0  0  0  0  0  0  0  0  0  0  0  0
   -3.6643    0.0229   -2.0379 H   0  0  0  0  0  0  0  0  0  0  0  0
   -3.3495    2.5546   -3.7470 H   0  0  0  0  0  0  0  0  0  0  0  0
   -2.8843    0.9121   -4.2407 H   0  0  0  0  0  0  0  0  0  0  0  0
   -4.5935    1.3042   -3.9704 H   0  0  0  0  0  0  0  0  0  0  0  0
   -1.0056    0.4255   -2.0973 N   0  0  0  0  0  0  0  0  0  0  0  0
    0.4728    0.5529   -2.0444 C   0  0  2  0  0  0  0  0  0  0  0  0
    1.1171   -0.5768   -1.2156 C   0  0  0  0  0  0  0  0  0  0  0  0
    0.6466   -0.9134   -0.1366 O   0  0  0  0  0  0  0  0  0  0  0  0
    1.0718    1.9066   -1.6300 C   0  0  0  0  0  0  0  0  0  0  0  0
    0.6838    3.2180   -2.8605 S   0  0  0  0  0  0  0  0  0  0  0  0
   -1.3630   -0.3587   -2.6356 H   0  0  0  0  0  0  0  0  0  0  0  0
    0.8134    0.3976   -3.0723 H   0  0  0  0  0  0  0  0  0  0  0  0
    0.7087    2.1875   -0.6423 H   0  0  0  0  0  0  0  0  0  0  0  0
    2.1605    1.8223   -1.5539 H   0  0  0  0  0  0  0  0  0  0  0  0
    2.2380   -1.2307   -1.6910 N   0  0  0  0  0  0  0  0  0  0  0  0
    3.0188   -2.2142   -0.9302 C   0  0  2  0  0  0  0  0  0  0  0  0
    4.4884   -2.2310   -1.4008 C   0  0  0  0  0  0  0  0  0  0  0  0
    4.8025   -1.6590   -2.4394 O   0  0  0  0  0  0  0  0  0  0  0  0
    2.3801   -3.5955   -1.1092 C   0  0  0  0  0  0  0  0  0  0  0  0
    2.6826   -0.8624   -2.5328 H   0  0  0  0  0  0  0  0  0  0  0  0
    3.0158   -1.9470    0.1321 H   0  0  0  0  0  0  0  0  0  0  0  0
    2.3683   -3.8769   -2.1670 H   0  0  0  0  0  0  0  0  0  0  0  0
    2.9395   -4.3537   -0.5530 H   0  0  0  0  0  0  0  0  0  0  0  0
    1.3500   -3.5893   -0.7389 H   0  0  0  0  0  0  0  0  0  0  0  0
    5.4623   -2.8670   -0.6536 N   0  0  0  0  0  0  0  0  0  0  0  0
    6.8689   -2.9011   -1.0360 C   0  0  0  0  0  0  0  0  0  0  0  0
    5.1774   -3.3142    0.2130 H   0  0  0  0  0  0  0  0  0  0  0  0
    6.9929   -3.4139   -1.9957 H   0  0  0  0  0  0  0  0  0  0  0  0
    7.2682   -1.8852   -1.1253 H   0  0  0  0  0  0  0  0  0  0  0  0
    7.4526   -3.4358   -0.2805 H   0  0  0  0  0  0  0  0  0  0  0  0
  1  2  2  0  0  0  0
  1  3  1  0  0  0  0
  1  7  1  0  0  0  0
  3  4  1  0  0  0  0
  3  5  1  0  0  0  0
  3  6  1  0  0  0  0
  7  8  1  0  0  0  0
  7 13  1  0  0  0  0
  8  9  1  0  0  0  0
  8 11  1  0  0  0  0
  8 14  1  0  0  0  0
  9 10  2  0  0  0  0
  9 17  1  0  0  0  0
 11 12  1  0  0  0  0
 11 15  1  0  0  0  0
 11 16  1  0  0  0  0
 12 44  1  0  0  0  0
 17 18  1  0  0  0  0
 17 19  1  0  0  0  0
 18 20  1  0  0  0  0
 18 21  1  0  0  0  0
 18 22  1  0  0  0  0
 23 24  2  0  0  0  0
 23 25  1  0  0  0  0
 23 29  1  0  0  0  0
 25 26  1  0  0  0  0
 25 27  1  0  0  0  0
 25 28  1  0  0  0  0
 29 30  1  0  0  0  0
 29 34  1  0  0  0  0
 30 31  1  0  0  0  0
 30 33  1  0  0  0  0
 30 35  1  0  0  0  0
 31 32  2  0  0  0  0
 31 39  1  0  0  0  0
 33 36  1  0  0  0  0
 33 37  1  0  0  0  0
 33 38  1  0  0  0  0
 39 40  1  0  0  0  0
 39 45  1  0  0  0  0
 40 41  1  0  0  0  0
 40 43  1  0  0  0  0
 40 46  1  0  0  0  0
 41 42  2  0  0  0  0
 41 49  1  0  0  0  0
 43 44  1  0  0  0  0
 43 47  1  0  0  0  0
 43 48  1  0  0  0  0
 49 50  1  0  0  0  0
 49 54  1  0  0  0  0
 50 51  1  0  0  0  0
 50 53  1  0  0  0  0
 50 55  1  0  0  0  0
 51 52  2  0  0  0  0
 51 59  1  0  0  0  0
 53 56  1  0  0  0  0
 53 57  1  0  0  0  0
 53 58  1  0  0  0  0
 59 60  1  0  0  0  0
 59 61  1  0  0  0  0
 60 62  1  0  0  0  0
 60 63  1  0  0  0  0
 60 64  1  0  0  0  0
M  END
$$$$

  -OEChem-05262216053D

 64 63  0     1  0  0  0  0  0999 V2000
   -0.0992    8.3383    0.2553 C   0  0  0  0  0  0  0  0  0  0  0  0
   -1.2329    8.4651   -0.1811 O   0  0  0  0  0  0  0  0  0  0  0  0
    0.7443    9.5637    0.5485 C   0  0  0  0  0  0  0  0  0  0  0  0
    1.6513    9.5453   -0.0603 H   0  0  0  0  0  0  0  0  0  0  0  0
    0.1815   10.4721    0.3160 H   0  0  0  0  0  0  0  0  0  0  0  0
    1.0226    9.5808    1.6050 H   0  0  0  0  0  0  0  0  0  0  0  0
    0.4105    7.0813    0.4950 N   0  0  0  0  0  0  0  0  0  0  0  0
   -0.3673    5.8392    0.3848 C   0  0  2  0  0  0  0  0  0  0  0  0
    0.1682    4.7406    1.3323 C   0  0  0  0  0  0  0  0  0  0  0  0
    1.0613    5.0092    2.1312 O   0  0  0  0  0  0  0  0  0  0  0  0
   -0.3930    5.3867   -1.0817 C   0  0  0  0  0  0  0  0  0  0  0  0
    1.2636    4.8697   -1.6931 S   0  0  0  0  0  0  0  0  0  0  0  0
    1.3057    7.0185    0.9779 H   0  0  0  0  0  0  0  0  0  0  0  0
   -1.3976    6.0358    0.6988 H   0  0  0  0  0  0  0  0  0  0  0  0
   -1.0961    4.5612   -1.1909 H   0  0  0  0  0  0  0  0  0  0  0  0
   -0.7627    6.2032   -1.7098 H   0  0  0  0  0  0  0  0  0  0  0  0
   -0.3903    3.4751    1.3572 N   0  0  0  0  0  0  0  0  0  0  0  0
    0.1024    2.4014    2.2112 C   0  0  0  0  0  0  0  0  0  0  0  0
   -1.0052    3.2195    0.5791 H   0  0  0  0  0  0  0  0  0  0  0  0
    1.1662    2.2185    2.0270 H   0  0  0  0  0  0  0  0  0  0  0  0
   -0.0350    2.6575    3.2667 H   0  0  0  0  0  0  0  0  0  0  0  0
   -0.4463    1.4771    2.0054 H   0  0  0  0  0  0  0  0  0  0  0  0
   -5.7299    1.5817   -1.1421 C   0  0  0  0  0  0  0  0  0  0  0  0
   -6.1951    0.5532   -1.6065 O   0  0  0  0  0  0  0  0  0  0  0  0
   -6.6039    2.5081   -0.3174 C   0  0  0  0  0  0  0  0  0  0  0  0
   -6.6942    3.4765   -0.8153 H   0  0  0  0  0  0  0  0  0  0  0  0
   -7.6025    2.0778   -0.2001 H   0  0  0  0  0  0  0  0  0  0  0  0
   -6.1659    2.6548    0.6726 H   0  0  0  0  0  0  0  0  0  0  0  0
   -4.4092    1.9040   -1.3746 N   0  0  0  0  0  0  0  0  0  0  0  0
   -3.4578    1.0456   -2.0950 C   0  0  2  0  0  0  0  0  0  0  0  0
   -1.9953    1.2882   -1.6579 C   0  0  0  0  0  0  0  0  0  0  0  0
   -1.7515    2.2113   -0.8880 O   0  0  0  0  0  0  0  0  0  0  0  0
   -3.6156    1.3142   -3.5965 C   0  0  0  0  0  0  0  0  0  0  0  0
   -4.0283    2.7139   -0.8887 H   0  0  0  0  0  0  0  0  0  0  0  0
   -3.6887   -0.0051   -1.8875 H   0  0  0  0  0  0  0  0  0  0  0  0
   -3.3804    2.3589   -3.8243 H   0  0  0  0  0  0  0  0  0  0  0  0
   -2.9479    0.6719   -4.1782 H   0  0  0  0  0  0  0  0  0  0  0  0
   -4.6440    1.1122   -3.9127 H   0  0  0  0  0  0  0  0  0  0  0  0
   -1.0096    0.4117   -2.0867 N   0  0  0  0  0  0  0  0  0  0  0  0
    0.4699    0.5210   -2.0077 C   0  0  2  0  0  0  0  0  0  0  0  0
    1.0953   -0.6279   -1.1883 C   0  0  0  0  0  0  0  0  0  0  0  0
    0.4620   -1.1954   -0.3071 O   0  0  0  0  0  0  0  0  0  0  0  0
    1.0769    1.8672   -1.5752 C   0  0  0  0  0  0  0  0  0  0  0  0
    0.7232    3.1874   -2.8075 S   0  0  0  0  0  0  0  0  0  0  0  0
   -1.3659   -0.4076   -2.5708 H   0  0  0  0  0  0  0  0  0  0  0  0
    0.8246    0.3705   -3.0320 H   0  0  0  0  0  0  0  0  0  0  0  0
    0.6998    2.1489   -0.5923 H   0  0  0  0  0  0  0  0  0  0  0  0
    2.1637    1.7747   -1.4814 H   0  0  0  0  0  0  0  0  0  0  0  0
    2.3703   -1.0727   -1.4841 N   0  0  0  0  0  0  0  0  0  0  0  0
    3.1187   -2.0529   -0.6863 C   0  0  2  0  0  0  0  0  0  0  0  0
    4.6370   -1.7893   -0.7724 C   0  0  0  0  0  0  0  0  0  0  0  0
    5.0720   -0.9985   -1.6030 O   0  0  0  0  0  0  0  0  0  0  0  0
    2.7857   -3.4597   -1.1944 C   0  0  0  0  0  0  0  0  0  0  0  0
    2.9217   -0.5216   -2.1433 H   0  0  0  0  0  0  0  0  0  0  0  0
    2.8305   -1.9704    0.3672 H   0  0  0  0  0  0  0  0  0  0  0  0
    3.0669   -3.5631   -2.2474 H   0  0  0  0  0  0  0  0  0  0  0  0
    3.3233   -4.2155   -0.6140 H   0  0  0  0  0  0  0  0  0  0  0  0
    1.7128   -3.6544   -1.0999 H   0  0  0  0  0  0  0  0  0  0  0  0
    5.5140   -2.4204    0.0899 N   0  0  0  0  0  0  0  0  0  0  0  0
    6.9550   -2.1985    0.0672 C   0  0  0  0  0  0  0  0  0  0  0  0
    5.1242   -3.0533    0.7825 H   0  0  0  0  0  0  0  0  0  0  0  0
    7.3716   -2.4850   -0.9044 H   0  0  0  0  0  0  0  0  0  0  0  0
    7.1838   -1.1434    0.2515 H   0  0  0  0  0  0  0  0  0  0  0  0
    7.4426   -2.7979    0.8422 H   0  0  0  0  0  0  0  0  0  0  0  0
  1  2  2  0  0  0  0
  1  3  1  0  0  0  0
  1  7  1  0  0  0  0
  3  4  1  0  0  0  0
  3  5  1  0  0  0  0
  3  6  1  0  0  0  0
  7  8  1  0  0  0  0
  7 13  1  0  0  0  0
  8  9  1  0  0  0  0
  8 11  1  0  0  0  0
  8 14  1  0  0  0  0
  9 10  2  0  0  0  0
  9 17  1  0  0  0  0
 11 12  1  0  0  0  0
 11 15  1  0  0  0  0
 11 16  1  0  0  0  0
 12 44  1  0  0  0  0
 17 18  1  0  0  0  0
 17 19  1  0  0  0  0
 18 20  1  0  0  0  0
 18 21  1  0  0  0  0
 18 22  1  0  0  0  0
 23 24  2  0  0  0  0
 23 25  1  0  0  0  0
 23 29  1  0  0  0  0
 25 26  1  0  0  0  0
 25 27  1  0  0  0  0
 25 28  1  0  0  0  0
 29 30  1  0  0  0  0
 29 34  1  0  0  0  0
 30 31  1  0  0  0  0
 30 33  1  0  0  0  0
 30 35  1  0  0  0  0
 31 32  2  0  0  0  0
 31 39  1  0  0  0  0
 33 36  1  0  0  0  0
 33 37  1  0  0  0  0
 33 38  1  0  0  0  0
 39 40  1  0  0  0  0
 39 45  1  0  0  0  0
 40 41  1  0  0  0  0
 40 43  1  0  0  0  0
 40 46  1  0  0  0  0
 41 42  2  0  0  0  0
 41 49  1  0  0  0  0
 43 44  1  0  0  0  0
 43 47  1  0  0  0  0
 43 48  1  0  0  0  0
 49 50  1  0  0  0  0
 49 54  1  0  0  0  0
 50 51  1  0  0  0  0
 50 53  1  0  0  0  0
 50 55  1  0  0  0  0
 51 52  2  0  0  0  0
 51 59  1  0  0  0  0
 53 56  1  0  0  0  0
 53 57  1  0  0  0  0
 53 58  1  0  0  0  0
 59 60  1  0  0  0  0
 59 61  1  0  0  0  0
 60 62  1  0  0  0  0
 60 63  1  0  0  0  0
 60 64  1  0  0  0  0
M  END
$$$$

  -OEChem-05262216053D

 64 63  0     1  0  0  0  0  0999 V2000
   -0.1719    8.3638    0.2261 C   0  0  0  0  0  0  0  0  0  0  0  0
   -1.2925    8.4639   -0.2496 O   0  0  0  0  0  0  0  0  0  0  0  0
    0.6478    9.6079    0.5114 C   0  0  0  0  0  0  0  0  0  0  0  0
    1.5858    9.5731   -0.0479 H   0  0  0  0  0  0  0  0  0  0  0  0
    0.0923   10.5017    0.2130 H   0  0  0  0  0  0  0  0  0  0  0  0
    0.8703    9.6704    1.5792 H   0  0  0  0  0  0  0  0  0  0  0  0
    0.3442    7.1194    0.5156 N   0  0  0  0  0  0  0  0  0  0  0  0
   -0.4092    5.8623    0.3991 C   0  0  2  0  0  0  0  0  0  0  0  0
    0.1106    4.7848    1.3794 C   0  0  0  0  0  0  0  0  0  0  0  0
    0.9455    5.0861    2.2280 O   0  0  0  0  0  0  0  0  0  0  0  0
   -0.3798    5.3866   -1.0600 C   0  0  0  0  0  0  0  0  0  0  0  0
    1.3000    4.8638   -1.5985 S   0  0  0  0  0  0  0  0  0  0  0  0
    1.2221    7.0811    1.0315 H   0  0  0  0  0  0  0  0  0  0  0  0
   -1.4524    6.0467    0.6754 H   0  0  0  0  0  0  0  0  0  0  0  0
   -1.0766    4.5575   -1.1816 H   0  0  0  0  0  0  0  0  0  0  0  0
   -0.7282    6.1907   -1.7156 H   0  0  0  0  0  0  0  0  0  0  0  0
   -0.4000    3.4990    1.3741 N   0  0  0  0  0  0  0  0  0  0  0  0
    0.0798    2.4451    2.2589 C   0  0  0  0  0  0  0  0  0  0  0  0
   -0.9695    3.2236    0.5685 H   0  0  0  0  0  0  0  0  0  0  0  0
    1.1563    2.2932    2.1280 H   0  0  0  0  0  0  0  0  0  0  0  0
   -0.1166    2.7021    3.3050 H   0  0  0  0  0  0  0  0  0  0  0  0
   -0.4317    1.5044    2.0323 H   0  0  0  0  0  0  0  0  0  0  0  0
   -5.6806    1.5942   -1.1170 C   0  0  0  0  0  0  0  0  0  0  0  0
   -6.1579    0.5806   -1.6012 O   0  0  0  0  0  0  0  0  0  0  0  0
   -6.5335    2.4981   -0.2466 C   0  0  0  0  0  0  0  0  0  0  0  0
   -6.6190    3.4859   -0.7058 H   0  0  0  0  0  0  0  0  0  0  0  0
   -7.5353    2.0746   -0.1326 H   0  0  0  0  0  0  0  0  0  0  0  0
   -6.0808    2.6012    0.7422 H   0  0  0  0  0  0  0  0  0  0  0  0
   -4.3630    1.9187   -1.3628 N   0  0  0  0  0  0  0  0  0  0  0  0
   -3.4211    1.0703   -2.1076 C   0  0  2  0  0  0  0  0  0  0  0  0
   -1.9559    1.3004   -1.6742 C   0  0  0  0  0  0  0  0  0  0  0  0
   -1.7075    2.2049   -0.8840 O   0  0  0  0  0  0  0  0  0  0  0  0
   -3.5874    1.3683   -3.6024 C   0  0  0  0  0  0  0  0  0  0  0  0
   -3.9725    2.7123   -0.8578 H   0  0  0  0  0  0  0  0  0  0  0  0
   -3.6537    0.0163   -1.9201 H   0  0  0  0  0  0  0  0  0  0  0  0
   -3.3494    2.4160   -3.8125 H   0  0  0  0  0  0  0  0  0  0  0  0
   -2.9261    0.7340   -4.2001 H   0  0  0  0  0  0  0  0  0  0  0  0
   -4.6190    1.1771   -3.9149 H   0  0  0  0  0  0  0  0  0  0  0  0
   -0.9724    0.4323   -2.1235 N   0  0  0  0  0  0  0  0  0  0  0  0
    0.5071    0.5175   -2.0164 C   0  0  2  0  0  0  0  0  0  0  0  0
    1.0978   -0.6787   -1.2363 C   0  0  0  0  0  0  0  0  0  0  0  0
    0.3678   -1.4654   -0.6452 O   0  0  0  0  0  0  0  0  0  0  0  0
    1.1191    1.8488   -1.5384 C   0  0  0  0  0  0  0  0  0  0  0  0
    0.7964    3.1962   -2.7509 S   0  0  0  0  0  0  0  0  0  0  0  0
   -1.3303   -0.3959   -2.5923 H   0  0  0  0  0  0  0  0  0  0  0  0
    0.8777    0.3936   -3.0384 H   0  0  0  0  0  0  0  0  0  0  0  0
    0.7284    2.1119   -0.5548 H   0  0  0  0  0  0  0  0  0  0  0  0
    2.2036    1.7506   -1.4302 H   0  0  0  0  0  0  0  0  0  0  0  0
    2.4530   -0.9489   -1.2898 N   0  0  0  0  0  0  0  0  0  0  0  0
    3.1302   -1.9677   -0.4764 C   0  0  2  0  0  0  0  0  0  0  0  0
    4.5420   -1.4984   -0.0657 C   0  0  0  0  0  0  0  0  0  0  0  0
    5.0312   -0.5056   -0.5940 O   0  0  0  0  0  0  0  0  0  0  0  0
    3.2037   -3.2656   -1.2864 C   0  0  0  0  0  0  0  0  0  0  0  0
    3.0575   -0.2361   -1.6998 H   0  0  0  0  0  0  0  0  0  0  0  0
    2.5651   -2.1472    0.4445 H   0  0  0  0  0  0  0  0  0  0  0  0
    3.7729   -3.1092   -2.2085 H   0  0  0  0  0  0  0  0  0  0  0  0
    3.6907   -4.0549   -0.7059 H   0  0  0  0  0  0  0  0  0  0  0  0
    2.1971   -3.6054   -1.5509 H   0  0  0  0  0  0  0  0  0  0  0  0
    5.2543   -2.1726    0.9088 N   0  0  0  0  0  0  0  0  0  0  0  0
    6.5759   -1.7592    1.3650 C   0  0  0  0  0  0  0  0  0  0  0  0
    4.8119   -2.9744    1.3484 H   0  0  0  0  0  0  0  0  0  0  0  0
    7.2883   -1.7635    0.5334 H   0  0  0  0  0  0  0  0  0  0  0  0
    6.5365   -0.7512    1.7913 H   0  0  0  0  0  0  0  0  0  0  0  0
    6.9416   -2.4454    2.1348 H   0  0  0  0  0  0  0  0  0  0  0  0
  1  2  2  0  0  0  0
  1  3  1  0  0  0  0
  1  7  1  0  0  0  0
  3  4  1  0  0  0  0
  3  5  1  0  0  0  0
  3  6  1  0  0  0  0
  7  8  1  0  0  0  0
  7 13  1  0  0  0  0
  8  9  1  0  0  0  0
  8 11  1  0  0  0  0
  8 14  1  0  0  0  0
  9 10  2  0  0  0  0
  9 17  1  0  0  0  0
 11 12  1  0  0  0  0
 11 15  1  0  0  0  0
 11 16  1  0  0  0  0
 12 44  1  0  0  0  0
 17 18  1  0  0  0  0
 17 19  1  0  0  0  0
 18 20  1  0  0  0  0
 18 21  1  0  0  0  0
 18 22  1  0  0  0  0
 23 24  2  0  0  0  0
 23 25  1  0  0  0  0
 23 29  1  0  0  0  0
 25 26  1  0  0  0  0
 25 27  1  0  0  0  0
 25 28  1  0  0  0  0
 29 30  1  0  0  0  0
 29 34  1  0  0  0  0
 30 31  1  0  0  0  0
 30 33  1  0  0  0  0
 30 35  1  0  0  0  0
 31 32  2  0  0  0  0
 31 39  1  0  0  0  0
 33 36  1  0  0  0  0
 33 37  1  0  0  0  0
 33 38  1  0  0  0  0
 39 40  1  0  0  0  0
 39 45  1  0  0  0  0
 40 41  1  0  0  0  0
 40 43  1  0  0  0  0
 40 46  1  0  0  0  0
 41 42  2  0  0  0  0
 41 49  1  0  0  0  0
 43 44  1  0  0  0  0
 43 47  1  0  0  0  0
 43 48  1  0  0  0  0
 49 50  1  0  0  0  0
 49 54  1  0  0  0  0
 50 51  1  0  0  0  0
 50 53  1  0  0  0  0
 50 55  1  0  0  0  0
 51 52  2  0  0  0  0
 51 59  1  0  0  0  0
 53 56  1  0  0  0  0
 53 57  1  0  0  0  0
 53 58  1  0  0  0  0
 59 60  1  0  0  0  0
 59 61  1  0  0  0  0
 60 62  1  0  0  0  0
 60 63  1  0  0  0  0
 60 64  1  0  0  0  0
M  END
$$$$

  -OEChem-05262216053D

 64 63  0     1  0  0  0  0  0999 V2000
   -0.8687    7.5457    1.8843 C   0  0  0  0  0  0  0  0  0  0  0  0
   -2.0447    7.3225    1.6411 O   0  0  0  0  0  0  0  0  0  0  0  0
   -0.3551    8.9732    1.9071 C   0  0  0  0  0  0  0  0  0  0  0  0
    0.5076    9.0696    1.2435 H   0  0  0  0  0  0  0  0  0  0  0  0
   -1.1364    9.6603    1.5701 H   0  0  0  0  0  0  0  0  0  0  0  0
   -0.0581    9.2474    2.9221 H   0  0  0  0  0  0  0  0  0  0  0  0
   -0.0105    6.5003    2.1469 N   0  0  0  0  0  0  0  0  0  0  0  0
   -0.4121    5.0873    2.2107 C   0  0  2  0  0  0  0  0  0  0  0  0
    0.5685    4.2383    3.0504 C   0  0  0  0  0  0  0  0  0  0  0  0
    1.4843    4.7794    3.6623 O   0  0  0  0  0  0  0  0  0  0  0  0
   -0.5398    4.5217    0.7899 C   0  0  0  0  0  0  0  0  0  0  0  0
    1.0787    4.5044   -0.0833 S   0  0  0  0  0  0  0  0  0  0  0  0
    0.9399    6.7252    2.4379 H   0  0  0  0  0  0  0  0  0  0  0  0
   -1.3881    5.0190    2.7023 H   0  0  0  0  0  0  0  0  0  0  0  0
   -0.9325    3.5041    0.8423 H   0  0  0  0  0  0  0  0  0  0  0  0
   -1.2558    5.1161    0.2138 H   0  0  0  0  0  0  0  0  0  0  0  0
    0.4121    2.8657    3.1458 N   0  0  0  0  0  0  0  0  0  0  0  0
    1.3445    2.0025    3.8604 C   0  0  0  0  0  0  0  0  0  0  0  0
   -0.3093    2.4371    2.5717 H   0  0  0  0  0  0  0  0  0  0  0  0
    2.3397    2.0530    3.4059 H   0  0  0  0  0  0  0  0  0  0  0  0
    1.4199    2.3050    4.9103 H   0  0  0  0  0  0  0  0  0  0  0  0
    1.0006    0.9642    3.8257 H   0  0  0  0  0  0  0  0  0  0  0  0
   -5.8513    1.1459   -1.5679 C   0  0  0  0  0  0  0  0  0  0  0  0
   -6.2020    0.2527   -2.3226 O   0  0  0  0  0  0  0  0  0  0  0  0
   -6.8431    1.7484   -0.5905 C   0  0  0  0  0  0  0  0  0  0  0  0
   -6.9332    2.8233   -0.7657 H   0  0  0  0  0  0  0  0  0  0  0  0
   -7.8262    1.2865   -0.7191 H   0  0  0  0  0  0  0  0  0  0  0  0
   -6.5065    1.5801    0.4353 H   0  0  0  0  0  0  0  0  0  0  0  0
   -4.5512    1.6038   -1.6001 N   0  0  0  0  0  0  0  0  0  0  0  0
   -3.4819    1.0098   -2.4145 C   0  0  2  0  0  0  0  0  0  0  0  0
   -2.0938    1.1589   -1.7545 C   0  0  0  0  0  0  0  0  0  0  0  0
   -1.9879    1.8344   -0.7375 O   0  0  0  0  0  0  0  0  0  0  0  0
   -3.4952    1.6874   -3.7890 C   0  0  0  0  0  0  0  0  0  0  0  0
   -4.2670    2.2671   -0.8802 H   0  0  0  0  0  0  0  0  0  0  0  0
   -3.6678   -0.0625   -2.5383 H   0  0  0  0  0  0  0  0  0  0  0  0
   -3.3055    2.7611   -3.6880 H   0  0  0  0  0  0  0  0  0  0  0  0
   -2.7275    1.2575   -4.4393 H   0  0  0  0  0  0  0  0  0  0  0  0
   -4.4687    1.5490   -4.2703 H   0  0  0  0  0  0  0  0  0  0  0  0
   -1.0286    0.4214   -2.2484 N   0  0  0  0  0  0  0  0  0  0  0  0
    0.4306    0.5413   -2.0022 C   0  0  2  0  0  0  0  0  0  0  0  0
    1.0650   -0.8448   -1.7406 C   0  0  0  0  0  0  0  0  0  0  0  0
    0.4042   -1.8629   -1.9160 O   0  0  0  0  0  0  0  0  0  0  0  0
    0.9193    1.6355   -1.0295 C   0  0  0  0  0  0  0  0  0  0  0  0
    0.5589    3.3102   -1.7095 S   0  0  0  0  0  0  0  0  0  0  0  0
   -1.2906   -0.2980   -2.9195 H   0  0  0  0  0  0  0  0  0  0  0  0
    0.8541    0.8420   -2.9658 H   0  0  0  0  0  0  0  0  0  0  0  0
    0.4370    1.5092   -0.0557 H   0  0  0  0  0  0  0  0  0  0  0  0
    1.9986    1.5625   -0.8704 H   0  0  0  0  0  0  0  0  0  0  0  0
    2.4177   -0.9791   -1.4847 N   0  0  0  0  0  0  0  0  0  0  0  0
    3.0721   -2.2504   -1.1429 C   0  0  2  0  0  0  0  0  0  0  0  0
    4.0837   -2.0706    0.0083 C   0  0  0  0  0  0  0  0  0  0  0  0
    4.3981   -0.9439    0.3766 O   0  0  0  0  0  0  0  0  0  0  0  0
    3.7636   -2.7816   -2.4012 C   0  0  0  0  0  0  0  0  0  0  0  0
    2.9266   -0.1337   -1.2265 H   0  0  0  0  0  0  0  0  0  0  0  0
    2.3300   -2.9821   -0.8060 H   0  0  0  0  0  0  0  0  0  0  0  0
    4.5287   -2.0775   -2.7436 H   0  0  0  0  0  0  0  0  0  0  0  0
    4.2408   -3.7455   -2.2010 H   0  0  0  0  0  0  0  0  0  0  0  0
    3.0323   -2.9204   -3.2039 H   0  0  0  0  0  0  0  0  0  0  0  0
    4.6252   -3.1719    0.6452 N   0  0  0  0  0  0  0  0  0  0  0  0
    5.5651   -3.0738    1.7557 C   0  0  0  0  0  0  0  0  0  0  0  0
    4.3276   -4.0918    0.3329 H   0  0  0  0  0  0  0  0  0  0  0  0
    6.4620   -2.5235    1.4523 H   0  0  0  0  0  0  0  0  0  0  0  0
    5.1044   -2.5564    2.6037 H   0  0  0  0  0  0  0  0  0  0  0  0
    5.8681   -4.0728    2.0839 H   0  0  0  0  0  0  0  0  0  0  0  0
  1  2  2  0  0  0  0
  1  3  1  0  0  0  0
  1  7  1  0  0  0  0
  3  4  1  0  0  0  0
  3  5  1  0  0  0  0
  3  6  1  0  0  0  0
  7  8  1  0  0  0  0
  7 13  1  0  0  0  0
  8  9  1  0  0  0  0
  8 11  1  0  0  0  0
  8 14  1  0  0  0  0
  9 10  2  0  0  0  0
  9 17  1  0  0  0  0
 11 12  1  0  0  0  0
 11 15  1  0  0  0  0
 11 16  1  0  0  0  0
 12 44  1  0  0  0  0
 17 18  1  0  0  0  0
 17 19  1  0  0  0  0
 18 20  1  0  0  0  0
 18 21  1  0  0  0  0
 18 22  1  0  0  0  0
 23 24  2  0  0  0  0
 23 25  1  0  0  0  0
 23 29  1  0  0  0  0
 25 26  1  0  0  0  0
 25 27  1  0  0  0  0
 25 28  1  0  0  0  0
 29 30  1  0  0  0  0
 29 34  1  0  0  0  0
 30 31  1  0  0  0  0
 30 33  1  0  0  0  0
 30 35  1  0  0  0  0
 31 32  2  0  0  0  0
 31 39  1  0  0  0  0
 33 36  1  0  0  0  0
 33 37  1  0  0  0  0
 33 38  1  0  0  0  0
 39 40  1  0  0  0  0
 39 45  1  0  0  0  0
 40 41  1  0  0  0  0
 40 43  1  0  0  0  0
 40 46  1  0  0  0  0
 41 42  2  0  0  0  0
 41 49  1  0  0  0  0
 43 44  1  0  0  0  0
 43 47  1  0  0  0  0
 43 48  1  0  0  0  0
 49 50  1  0  0  0  0
 49 54  1  0  0  0  0
 50 51  1  0  0  0  0
 50 53  1  0  0  0  0
 50 55  1  0  0  0  0
 51 52  2  0  0  0  0
 51 59  1  0  0  0  0
 53 56  1  0  0  0  0
 53 57  1  0  0  0  0
 53 58  1  0  0  0  0
 59 60  1  0  0  0  0
 59 61  1  0  0  0  0
 60 62  1  0  0  0  0
 60 63  1  0  0  0  0
 60 64  1  0  0  0  0
M  END
$$$$

  -OEChem-05262216053D

 64 63  0     1  0  0  0  0  0999 V2000
   -0.2354    7.5111    2.2213 C   0  0  0  0  0  0  0  0  0  0  0  0
   -1.3711    7.7628    1.8495 O   0  0  0  0  0  0  0  0  0  0  0  0
    0.6210    8.5959    2.8461 C   0  0  0  0  0  0  0  0  0  0  0  0
    1.5517    8.7054    2.2844 H   0  0  0  0  0  0  0  0  0  0  0  0
    0.0888    9.5510    2.8354 H   0  0  0  0  0  0  0  0  0  0  0  0
    0.8561    8.3341    3.8805 H   0  0  0  0  0  0  0  0  0  0  0  0
    0.2667    6.2356    2.0886 N   0  0  0  0  0  0  0  0  0  0  0  0
   -0.5154    5.0751    1.6373 C   0  0  2  0  0  0  0  0  0  0  0  0
    0.0483    3.7549    2.2124 C   0  0  0  0  0  0  0  0  0  0  0  0
    0.9127    3.8003    3.0833 O   0  0  0  0  0  0  0  0  0  0  0  0
   -0.5766    5.0658    0.1040 C   0  0  0  0  0  0  0  0  0  0  0  0
    1.0729    4.8020   -0.6687 S   0  0  0  0  0  0  0  0  0  0  0  0
    1.1587    6.0340    2.5383 H   0  0  0  0  0  0  0  0  0  0  0  0
   -1.5378    5.1639    2.0191 H   0  0  0  0  0  0  0  0  0  0  0  0
   -1.2639    4.2863   -0.2254 H   0  0  0  0  0  0  0  0  0  0  0  0
   -0.9844    6.0180   -0.2494 H   0  0  0  0  0  0  0  0  0  0  0  0
   -0.4487    2.5218    1.8278 N   0  0  0  0  0  0  0  0  0  0  0  0
    0.1016    1.2628    2.3176 C   0  0  0  0  0  0  0  0  0  0  0  0
   -1.0335    2.4930    0.9875 H   0  0  0  0  0  0  0  0  0  0  0  0
    1.1630    1.1801    2.0611 H   0  0  0  0  0  0  0  0  0  0  0  0
   -0.0032    1.1946    3.4053 H   0  0  0  0  0  0  0  0  0  0  0  0
   -0.4303    0.4200    1.8660 H   0  0  0  0  0  0  0  0  0  0  0  0
   -5.5767    0.8297   -0.8629 C   0  0  0  0  0  0  0  0  0  0  0  0
   -5.9316   -0.2121   -1.3907 O   0  0  0  0  0  0  0  0  0  0  0  0
   -6.4442    1.4798    0.1979 C   0  0  0  0  0  0  0  0  0  0  0  0
   -6.6867    2.5043   -0.0942 H   0  0  0  0  0  0  0  0  0  0  0  0
   -7.3747    0.9182    0.3188 H   0  0  0  0  0  0  0  0  0  0  0  0
   -5.9146    1.4955    1.1537 H   0  0  0  0  0  0  0  0  0  0  0  0
   -4.3744    1.4064   -1.2137 N   0  0  0  0  0  0  0  0  0  0  0  0
   -3.3727    0.7652   -2.0777 C   0  0  2  0  0  0  0  0  0  0  0  0
   -1.9288    1.1146   -1.6550 C   0  0  0  0  0  0  0  0  0  0  0  0
   -1.7521    1.9221   -0.7487 O   0  0  0  0  0  0  0  0  0  0  0  0
   -3.6305    1.2064   -3.5218 C   0  0  0  0  0  0  0  0  0  0  0  0
   -4.0593    2.1980   -0.6554 H   0  0  0  0  0  0  0  0  0  0  0  0
   -3.4737   -0.3238   -2.0120 H   0  0  0  0  0  0  0  0  0  0  0  0
   -3.5072    2.2898   -3.6196 H   0  0  0  0  0  0  0  0  0  0  0  0
   -2.9341    0.7127   -4.2064 H   0  0  0  0  0  0  0  0  0  0  0  0
   -4.6500    0.9426   -3.8211 H   0  0  0  0  0  0  0  0  0  0  0  0
   -0.8764    0.3963   -2.1983 N   0  0  0  0  0  0  0  0  0  0  0  0
    0.5871    0.6424   -2.1774 C   0  0  2  0  0  0  0  0  0  0  0  0
    1.3390   -0.6680   -1.8402 C   0  0  0  0  0  0  0  0  0  0  0  0
    0.7660   -1.7437   -1.9804 O   0  0  0  0  0  0  0  0  0  0  0  0
    1.1151    1.8739   -1.4093 C   0  0  0  0  0  0  0  0  0  0  0  0
    0.5530    3.4521   -2.1760 S   0  0  0  0  0  0  0  0  0  0  0  0
   -1.1593   -0.4211   -2.7365 H   0  0  0  0  0  0  0  0  0  0  0  0
    0.8603    0.8446   -3.2177 H   0  0  0  0  0  0  0  0  0  0  0  0
    0.7897    1.8222   -0.3696 H   0  0  0  0  0  0  0  0  0  0  0  0
    2.2078    1.8884   -1.4057 H   0  0  0  0  0  0  0  0  0  0  0  0
    2.6692   -0.6666   -1.4571 N   0  0  0  0  0  0  0  0  0  0  0  0
    3.3066   -1.8191   -0.8018 C   0  0  2  0  0  0  0  0  0  0  0  0
    3.3193   -1.6511    0.7329 C   0  0  0  0  0  0  0  0  0  0  0  0
    3.1926   -0.5353    1.2248 O   0  0  0  0  0  0  0  0  0  0  0  0
    4.7326   -1.9354   -1.3443 C   0  0  0  0  0  0  0  0  0  0  0  0
    3.0297    0.2417   -1.1729 H   0  0  0  0  0  0  0  0  0  0  0  0
    2.7739   -2.7467   -1.0350 H   0  0  0  0  0  0  0  0  0  0  0  0
    5.3079   -1.0338   -1.1108 H   0  0  0  0  0  0  0  0  0  0  0  0
    5.2415   -2.7965   -0.9007 H   0  0  0  0  0  0  0  0  0  0  0  0
    4.7155   -2.0667   -2.4307 H   0  0  0  0  0  0  0  0  0  0  0  0
    3.4866   -2.7441    1.5625 N   0  0  0  0  0  0  0  0  0  0  0  0
    3.4877   -2.6500    3.0177 C   0  0  0  0  0  0  0  0  0  0  0  0
    3.5346   -3.6617    1.1297 H   0  0  0  0  0  0  0  0  0  0  0  0
    4.2690   -1.9621    3.3578 H   0  0  0  0  0  0  0  0  0  0  0  0
    2.5191   -2.2895    3.3795 H   0  0  0  0  0  0  0  0  0  0  0  0
    3.6785   -3.6324    3.4600 H   0  0  0  0  0  0  0  0  0  0  0  0
  1  2  2  0  0  0  0
  1  3  1  0  0  0  0
  1  7  1  0  0  0  0
  3  4  1  0  0  0  0
  3  5  1  0  0  0  0
  3  6  1  0  0  0  0
  7  8  1  0  0  0  0
  7 13  1  0  0  0  0
  8  9  1  0  0  0  0
  8 11  1  0  0  0  0
  8 14  1  0  0  0  0
  9 10  2  0  0  0  0
  9 17  1  0  0  0  0
 11 12  1  0  0  0  0
 11 15  1  0  0  0  0
 11 16  1  0  0  0  0
 12 44  1  0  0  0  0
 17 18  1  0  0  0  0
 17 19  1  0  0  0  0
 18 20  1  0  0  0  0
 18 21  1  0  0  0  0
 18 22  1  0  0  0  0
 23 24  2  0  0  0  0
 23 25  1  0  0  0  0
 23 29  1  0  0  0  0
 25 26  1  0  0  0  0
 25 27  1  0  0  0  0
 25 28  1  0  0  0  0
 29 30  1  0  0  0  0
 29 34  1  0  0  0  0
 30 31  1  0  0  0  0
 30 33  1  0  0  0  0
 30 35  1  0  0  0  0
 31 32  2  0  0  0  0
 31 39  1  0  0  0  0
 33 36  1  0  0  0  0
 33 37  1  0  0  0  0
 33 38  1  0  0  0  0
 39 40  1  0  0  0  0
 39 45  1  0  0  0  0
 40 41  1  0  0  0  0
 40 43  1  0  0  0  0
 40 46  1  0  0  0  0
 41 42  2  0  0  0  0
 41 49  1  0  0  0  0
 43 44  1  0  0  0  0
 43 47  1  0  0  0  0
 43 48  1  0  0  0  0
 49 50  1  0  0  0  0
 49 54  1  0  0  0  0
 50 51  1  0  0  0  0
 50 53  1  0  0  0  0
 50 55  1  0  0  0  0
 51 52  2  0  0  0  0
 51 59  1  0  0  0  0
 53 56  1  0  0  0  0
 53 57  1  0  0  0  0
 53 58  1  0  0  0  0
 59 60  1  0  0  0  0
 59 61  1  0  0  0  0
 60 62  1  0  0  0  0
 60 63  1  0  0  0  0
 60 64  1  0  0  0  0
M  END
$$$$

  -OEChem-05262216053D

 64 63  0     1  0  0  0  0  0999 V2000
   -0.3458    7.5247    2.2165 C   0  0  0  0  0  0  0  0  0  0  0  0
   -1.4862    7.7517    1.8425 O   0  0  0  0  0  0  0  0  0  0  0  0
    0.4993    8.6393    2.8027 C   0  0  0  0  0  0  0  0  0  0  0  0
    1.3681    8.8201    2.1655 H   0  0  0  0  0  0  0  0  0  0  0  0
   -0.0864    9.5602    2.8707 H   0  0  0  0  0  0  0  0  0  0  0  0
    0.8403    8.3633    3.8036 H   0  0  0  0  0  0  0  0  0  0  0  0
    0.1713    6.2517    2.1182 N   0  0  0  0  0  0  0  0  0  0  0  0
   -0.6016    5.0719    1.7031 C   0  0  2  0  0  0  0  0  0  0  0  0
   -0.0291    3.7709    2.3110 C   0  0  0  0  0  0  0  0  0  0  0  0
    0.8529    3.8414    3.1622 O   0  0  0  0  0  0  0  0  0  0  0  0
   -0.6643    5.0182    0.1712 C   0  0  0  0  0  0  0  0  0  0  0  0
    0.9898    4.7622   -0.5925 S   0  0  0  0  0  0  0  0  0  0  0  0
    1.0720    6.0737    2.5607 H   0  0  0  0  0  0  0  0  0  0  0  0
   -1.6237    5.1647    2.0847 H   0  0  0  0  0  0  0  0  0  0  0  0
   -1.3379    4.2173   -0.1351 H   0  0  0  0  0  0  0  0  0  0  0  0
   -1.0877    5.9529   -0.2096 H   0  0  0  0  0  0  0  0  0  0  0  0
   -0.5364    2.5279    1.9743 N   0  0  0  0  0  0  0  0  0  0  0  0
    0.0051    1.2832    2.5080 C   0  0  0  0  0  0  0  0  0  0  0  0
   -1.1385    2.4723    1.1483 H   0  0  0  0  0  0  0  0  0  0  0  0
    1.0799    1.2141    2.3101 H   0  0  0  0  0  0  0  0  0  0  0  0
   -0.1575    1.2270    3.5892 H   0  0  0  0  0  0  0  0  0  0  0  0
   -0.4881    0.4259    2.0392 H   0  0  0  0  0  0  0  0  0  0  0  0
   -5.7462    1.0733   -1.1616 C   0  0  0  0  0  0  0  0  0  0  0  0
   -6.1369    0.1080   -1.7985 O   0  0  0  0  0  0  0  0  0  0  0  0
   -6.6923    1.8049   -0.2284 C   0  0  0  0  0  0  0  0  0  0  0  0
   -6.7496    2.8596   -0.5083 H   0  0  0  0  0  0  0  0  0  0  0  0
   -7.6938    1.3698   -0.2896 H   0  0  0  0  0  0  0  0  0  0  0  0
   -6.3362    1.7264    0.8017 H   0  0  0  0  0  0  0  0  0  0  0  0
   -4.4412    1.5004   -1.2887 N   0  0  0  0  0  0  0  0  0  0  0  0
   -3.4148    0.8130   -2.0856 C   0  0  2  0  0  0  0  0  0  0  0  0
   -1.9872    1.0692   -1.5534 C   0  0  0  0  0  0  0  0  0  0  0  0
   -1.8281    1.8297   -0.6032 O   0  0  0  0  0  0  0  0  0  0  0  0
   -3.5338    1.2884   -3.5382 C   0  0  0  0  0  0  0  0  0  0  0  0
   -4.1261    2.2391   -0.6622 H   0  0  0  0  0  0  0  0  0  0  0  0
   -3.5874   -0.2681   -2.0446 H   0  0  0  0  0  0  0  0  0  0  0  0
   -3.3562    2.3666   -3.6043 H   0  0  0  0  0  0  0  0  0  0  0  0
   -2.8059    0.7752   -4.1733 H   0  0  0  0  0  0  0  0  0  0  0  0
   -4.5349    1.0763   -3.9265 H   0  0  0  0  0  0  0  0  0  0  0  0
   -0.9313    0.3365   -2.0717 N   0  0  0  0  0  0  0  0  0  0  0  0
    0.5309    0.5812   -2.0178 C   0  0  2  0  0  0  0  0  0  0  0  0
    1.2723   -0.7266   -1.6541 C   0  0  0  0  0  0  0  0  0  0  0  0
    0.8142   -1.7948   -2.0448 O   0  0  0  0  0  0  0  0  0  0  0  0
    1.0370    1.8244   -1.2568 C   0  0  0  0  0  0  0  0  0  0  0  0
    0.4865    3.3805   -2.0736 S   0  0  0  0  0  0  0  0  0  0  0  0
   -1.2091   -0.4246   -2.6893 H   0  0  0  0  0  0  0  0  0  0  0  0
    0.8312    0.7722   -3.0526 H   0  0  0  0  0  0  0  0  0  0  0  0
    0.6891    1.7919   -0.2234 H   0  0  0  0  0  0  0  0  0  0  0  0
    2.1301    1.8418   -1.2339 H   0  0  0  0  0  0  0  0  0  0  0  0
    2.4690   -0.7222   -0.9586 N   0  0  0  0  0  0  0  0  0  0  0  0
    3.0700   -1.9223   -0.3564 C   0  0  2  0  0  0  0  0  0  0  0  0
    3.0651   -1.8350    1.1848 C   0  0  0  0  0  0  0  0  0  0  0  0
    2.8498   -0.7605    1.7343 O   0  0  0  0  0  0  0  0  0  0  0  0
    4.5014   -2.0392   -0.8851 C   0  0  0  0  0  0  0  0  0  0  0  0
    2.6908    0.1518   -0.4842 H   0  0  0  0  0  0  0  0  0  0  0  0
    2.5160   -2.8241   -0.6371 H   0  0  0  0  0  0  0  0  0  0  0  0
    5.0874   -1.1583   -0.6031 H   0  0  0  0  0  0  0  0  0  0  0  0
    4.9913   -2.9280   -0.4761 H   0  0  0  0  0  0  0  0  0  0  0  0
    4.4955   -2.1199   -1.9768 H   0  0  0  0  0  0  0  0  0  0  0  0
    3.3168   -2.9535    1.9573 N   0  0  0  0  0  0  0  0  0  0  0  0
    3.3397   -2.9286    3.4152 C   0  0  0  0  0  0  0  0  0  0  0  0
    3.4767   -3.8342    1.4768 H   0  0  0  0  0  0  0  0  0  0  0  0
    4.1175   -2.2467    3.7749 H   0  0  0  0  0  0  0  0  0  0  0  0
    2.3727   -2.5983    3.8089 H   0  0  0  0  0  0  0  0  0  0  0  0
    3.5489   -3.9282    3.8076 H   0  0  0  0  0  0  0  0  0  0  0  0
  1  2  2  0  0  0  0
  1  3  1  0  0  0  0
  1  7  1  0  0  0  0
  3  4  1  0  0  0  0
  3  5  1  0  0  0  0
  3  6  1  0  0  0  0
  7  8  1  0  0  0  0
  7 13  1  0  0  0  0
  8  9  1  0  0  0  0
  8 11  1  0  0  0  0
  8 14  1  0  0  0  0
  9 10  2  0  0  0  0
  9 17  1  0  0  0  0
 11 12  1  0  0  0  0
 11 15  1  0  0  0  0
 11 16  1  0  0  0  0
 12 44  1  0  0  0  0
 17 18  1  0  0  0  0
 17 19  1  0  0  0  0
 18 20  1  0  0  0  0
 18 21  1  0  0  0  0
 18 22  1  0  0  0  0
 23 24  2  0  0  0  0
 23 25  1  0  0  0  0
 23 29  1  0  0  0  0
 25 26  1  0  0  0  0
 25 27  1  0  0  0  0
 25 28  1  0  0  0  0
 29 30  1  0  0  0  0
 29 34  1  0  0  0  0
 30 31  1  0  0  0  0
 30 33  1  0  0  0  0
 30 35  1  0  0  0  0
 31 32  2  0  0  0  0
 31 39  1  0  0  0  0
 33 36  1  0  0  0  0
 33 37  1  0  0  0  0
 33 38  1  0  0  0  0
 39 40  1  0  0  0  0
 39 45  1  0  0  0  0
 40 41  1  0  0  0  0
 40 43  1  0  0  0  0
 40 46  1  0  0  0  0
 41 42  2  0  0  0  0
 41 49  1  0  0  0  0
 43 44  1  0  0  0  0
 43 47  1  0  0  0  0
 43 48  1  0  0  0  0
 49 50  1  0  0  0  0
 49 54  1  0  0  0  0
 50 51  1  0  0  0  0
 50 53  1  0  0  0  0
 50 55  1  0  0  0  0
 51 52  2  0  0  0  0
 51 59  1  0  0  0  0
 53 56  1  0  0  0  0
 53 57  1  0  0  0  0
 53 58  1  0  0  0  0
 59 60  1  0  0  0  0
 59 61  1  0  0  0  0
 60 62  1  0  0  0  0
 60 63  1  0  0  0  0
 60 64  1  0  0  0  0
M  END
$$$$

  -OEChem-05262216053D

 64 63  0     1  0  0  0  0  0999 V2000
   -0.3832    7.5787    2.1804 C   0  0  0  0  0  0  0  0  0  0  0  0
   -1.5083    7.8143    1.7677 O   0  0  0  0  0  0  0  0  0  0  0  0
    0.4621    8.6934    2.7670 C   0  0  0  0  0  0  0  0  0  0  0  0
    1.4115    8.7634    2.2304 H   0  0  0  0  0  0  0  0  0  0  0  0
   -0.0623    9.6492    2.6800 H   0  0  0  0  0  0  0  0  0  0  0  0
    0.6616    8.4944    3.8230 H   0  0  0  0  0  0  0  0  0  0  0  0
    0.1167    6.2968    2.1237 N   0  0  0  0  0  0  0  0  0  0  0  0
   -0.6557    5.1212    1.6967 C   0  0  2  0  0  0  0  0  0  0  0  0
   -0.1116    3.8226    2.3344 C   0  0  0  0  0  0  0  0  0  0  0  0
    0.7458    3.8946    3.2103 O   0  0  0  0  0  0  0  0  0  0  0  0
   -0.6715    5.0486    0.1639 C   0  0  0  0  0  0  0  0  0  0  0  0
    1.0041    4.7581   -0.5395 S   0  0  0  0  0  0  0  0  0  0  0  0
    0.9987    6.1141    2.6007 H   0  0  0  0  0  0  0  0  0  0  0  0
   -1.6876    5.2268    2.0467 H   0  0  0  0  0  0  0  0  0  0  0  0
   -1.3465    4.2530   -0.1539 H   0  0  0  0  0  0  0  0  0  0  0  0
   -1.0690    5.9836   -0.2427 H   0  0  0  0  0  0  0  0  0  0  0  0
   -0.6110    2.5791    1.9888 N   0  0  0  0  0  0  0  0  0  0  0  0
   -0.0936    1.3361    2.5498 C   0  0  0  0  0  0  0  0  0  0  0  0
   -1.1965    2.5204    1.1510 H   0  0  0  0  0  0  0  0  0  0  0  0
    0.9956    1.2920    2.4483 H   0  0  0  0  0  0  0  0  0  0  0  0
   -0.3507    1.2579    3.6109 H   0  0  0  0  0  0  0  0  0  0  0  0
   -0.5229    0.4772    2.0248 H   0  0  0  0  0  0  0  0  0  0  0  0
   -5.7543    1.1014   -1.2318 C   0  0  0  0  0  0  0  0  0  0  0  0
   -6.1302    0.1634   -1.9163 O   0  0  0  0  0  0  0  0  0  0  0  0
   -6.7141    1.7776   -0.2710 C   0  0  0  0  0  0  0  0  0  0  0  0
   -6.8823    2.8122   -0.5799 H   0  0  0  0  0  0  0  0  0  0  0  0
   -7.6731    1.2520   -0.2632 H   0  0  0  0  0  0  0  0  0  0  0  0
   -6.3002    1.7688    0.7401 H   0  0  0  0  0  0  0  0  0  0  0  0
   -4.4536    1.5483   -1.3321 N   0  0  0  0  0  0  0  0  0  0  0  0
   -3.4144    0.9046   -2.1479 C   0  0  2  0  0  0  0  0  0  0  0  0
   -1.9990    1.1165   -1.5672 C   0  0  0  0  0  0  0  0  0  0  0  0
   -1.8503    1.8607   -0.6024 O   0  0  0  0  0  0  0  0  0  0  0  0
   -3.4972    1.4729   -3.5690 C   0  0  0  0  0  0  0  0  0  0  0  0
   -4.1498    2.2609   -0.6709 H   0  0  0  0  0  0  0  0  0  0  0  0
   -3.5934   -0.1758   -2.1814 H   0  0  0  0  0  0  0  0  0  0  0  0
   -3.3096    2.5517   -3.5619 H   0  0  0  0  0  0  0  0  0  0  0  0
   -2.7590    0.9946   -4.2199 H   0  0  0  0  0  0  0  0  0  0  0  0
   -4.4915    1.2954   -3.9918 H   0  0  0  0  0  0  0  0  0  0  0  0
   -0.9478    0.3553   -2.0523 N   0  0  0  0  0  0  0  0  0  0  0  0
    0.5152    0.5734   -1.9539 C   0  0  2  0  0  0  0  0  0  0  0  0
    1.2119   -0.7474   -1.5608 C   0  0  0  0  0  0  0  0  0  0  0  0
    0.8929   -1.7745   -2.1484 O   0  0  0  0  0  0  0  0  0  0  0  0
    1.0277    1.8087   -1.1866 C   0  0  0  0  0  0  0  0  0  0  0  0
    0.5359    3.3717   -2.0282 S   0  0  0  0  0  0  0  0  0  0  0  0
   -1.2223   -0.3709   -2.7119 H   0  0  0  0  0  0  0  0  0  0  0  0
    0.8522    0.7505   -2.9799 H   0  0  0  0  0  0  0  0  0  0  0  0
    0.6500    1.7931   -0.1637 H   0  0  0  0  0  0  0  0  0  0  0  0
    2.1205    1.7933   -1.1340 H   0  0  0  0  0  0  0  0  0  0  0  0
    2.1953   -0.7987   -0.5886 N   0  0  0  0  0  0  0  0  0  0  0  0
    2.7314   -2.0447   -0.0202 C   0  0  2  0  0  0  0  0  0  0  0  0
    2.5519   -2.0878    1.5121 C   0  0  0  0  0  0  0  0  0  0  0  0
    2.2406   -1.0700    2.1201 O   0  0  0  0  0  0  0  0  0  0  0  0
    4.2133   -2.1255   -0.3953 C   0  0  0  0  0  0  0  0  0  0  0  0
    2.2614    0.0197    0.0159 H   0  0  0  0  0  0  0  0  0  0  0  0
    2.2134   -2.9168   -0.4321 H   0  0  0  0  0  0  0  0  0  0  0  0
    4.7640   -1.2807    0.0314 H   0  0  0  0  0  0  0  0  0  0  0  0
    4.6558   -3.0539   -0.0213 H   0  0  0  0  0  0  0  0  0  0  0  0
    4.3289   -2.1027   -1.4836 H   0  0  0  0  0  0  0  0  0  0  0  0
    2.7470   -3.2633    2.2134 N   0  0  0  0  0  0  0  0  0  0  0  0
    2.6067   -3.3640    3.6615 C   0  0  0  0  0  0  0  0  0  0  0  0
    2.9822   -4.0973    1.6833 H   0  0  0  0  0  0  0  0  0  0  0  0
    3.2688   -2.6495    4.1622 H   0  0  0  0  0  0  0  0  0  0  0  0
    1.5740   -3.1578    3.9620 H   0  0  0  0  0  0  0  0  0  0  0  0
    2.8713   -4.3709    3.9986 H   0  0  0  0  0  0  0  0  0  0  0  0
  1  2  2  0  0  0  0
  1  3  1  0  0  0  0
  1  7  1  0  0  0  0
  3  4  1  0  0  0  0
  3  5  1  0  0  0  0
  3  6  1  0  0  0  0
  7  8  1  0  0  0  0
  7 13  1  0  0  0  0
  8  9  1  0  0  0  0
  8 11  1  0  0  0  0
  8 14  1  0  0  0  0
  9 10  2  0  0  0  0
  9 17  1  0  0  0  0
 11 12  1  0  0  0  0
 11 15  1  0  0  0  0
 11 16  1  0  0  0  0
 12 44  1  0  0  0  0
 17 18  1  0  0  0  0
 17 19  1  0  0  0  0
 18 20  1  0  0  0  0
 18 21  1  0  0  0  0
 18 22  1  0  0  0  0
 23 24  2  0  0  0  0
 23 25  1  0  0  0  0
 23 29  1  0  0  0  0
 25 26  1  0  0  0  0
 25 27  1  0  0  0  0
 25 28  1  0  0  0  0
 29 30  1  0  0  0  0
 29 34  1  0  0  0  0
 30 31  1  0  0  0  0
 30 33  1  0  0  0  0
 30 35  1  0  0  0  0
 31 32  2  0  0  0  0
 31 39  1  0  0  0  0
 33 36  1  0  0  0  0
 33 37  1  0  0  0  0
 33 38  1  0  0  0  0
 39 40  1  0  0  0  0
 39 45  1  0  0  0  0
 40 41  1  0  0  0  0
 40 43  1  0  0  0  0
 40 46  1  0  0  0  0
 41 42  2  0  0  0  0
 41 49  1  0  0  0  0
 43 44  1  0  0  0  0
 43 47  1  0  0  0  0
 43 48  1  0  0  0  0
 49 50  1  0  0  0  0
 49 54  1  0  0  0  0
 50 51  1  0  0  0  0
 50 53  1  0  0  0  0
 50 55  1  0  0  0  0
 51 52  2  0  0  0  0
 51 59  1  0  0  0  0
 53 56  1  0  0  0  0
 53 57  1  0  0  0  0
 53 58  1  0  0  0  0
 59 60  1  0  0  0  0
 59 61  1  0  0  0  0
 60 62  1  0  0  0  0
 60 63  1  0  0  0  0
 60 64  1  0  0  0  0
M  END
$$$$

  -OEChem-05262216053D

 64 63  0     1  0  0  0  0  0999 V2000
   -0.3012    7.5928    2.1511 C   0  0  0  0  0  0  0  0  0  0  0  0
   -1.4040    7.8719    1.7065 O   0  0  0  0  0  0  0  0  0  0  0  0
    0.5789    8.6753    2.7467 C   0  0  0  0  0  0  0  0  0  0  0  0
    1.5354    8.7097    2.2196 H   0  0  0  0  0  0  0  0  0  0  0  0
    0.0915    9.6499    2.6564 H   0  0  0  0  0  0  0  0  0  0  0  0
    0.7609    8.4678    3.8040 H   0  0  0  0  0  0  0  0  0  0  0  0
    0.1433    6.2896    2.1243 N   0  0  0  0  0  0  0  0  0  0  0  0
   -0.6641    5.1403    1.6896 C   0  0  2  0  0  0  0  0  0  0  0  0
   -0.1808    3.8262    2.3456 C   0  0  0  0  0  0  0  0  0  0  0  0
    0.6585    3.8721    3.2406 O   0  0  0  0  0  0  0  0  0  0  0  0
   -0.6520    5.0565    0.1577 C   0  0  0  0  0  0  0  0  0  0  0  0
    1.0322    4.7315   -0.5082 S   0  0  0  0  0  0  0  0  0  0  0  0
    1.0080    6.0770    2.6200 H   0  0  0  0  0  0  0  0  0  0  0  0
   -1.6982    5.2869    2.0183 H   0  0  0  0  0  0  0  0  0  0  0  0
   -1.3331    4.2693   -0.1672 H   0  0  0  0  0  0  0  0  0  0  0  0
   -1.0263    5.9948   -0.2634 H   0  0  0  0  0  0  0  0  0  0  0  0
   -0.7173    2.5994    1.9956 N   0  0  0  0  0  0  0  0  0  0  0  0
   -0.2786    1.3424    2.5905 C   0  0  0  0  0  0  0  0  0  0  0  0
   -1.2814    2.5554    1.1424 H   0  0  0  0  0  0  0  0  0  0  0  0
    0.8089    1.2403    2.5171 H   0  0  0  0  0  0  0  0  0  0  0  0
   -0.5649    1.2966    3.6461 H   0  0  0  0  0  0  0  0  0  0  0  0
   -0.7397    0.4973    2.0699 H   0  0  0  0  0  0  0  0  0  0  0  0
   -5.7776    1.0659   -1.3474 C   0  0  0  0  0  0  0  0  0  0  0  0
   -6.1171    0.2000   -2.1379 O   0  0  0  0  0  0  0  0  0  0  0  0
   -6.7559    1.5716   -0.3046 C   0  0  0  0  0  0  0  0  0  0  0  0
   -6.8874    2.6514   -0.4090 H   0  0  0  0  0  0  0  0  0  0  0  0
   -7.7264    1.0839   -0.4325 H   0  0  0  0  0  0  0  0  0  0  0  0
   -6.3801    1.3514    0.6976 H   0  0  0  0  0  0  0  0  0  0  0  0
   -4.4958    1.5725   -1.3909 N   0  0  0  0  0  0  0  0  0  0  0  0
   -3.4297    1.0470   -2.2548 C   0  0  2  0  0  0  0  0  0  0  0  0
   -2.0355    1.1767   -1.6061 C   0  0  0  0  0  0  0  0  0  0  0  0
   -1.8972    1.8817   -0.6109 O   0  0  0  0  0  0  0  0  0  0  0  0
   -3.4702    1.8046   -3.5855 C   0  0  0  0  0  0  0  0  0  0  0  0
   -4.2182    2.2114   -0.6477 H   0  0  0  0  0  0  0  0  0  0  0  0
   -3.6029   -0.0185   -2.4420 H   0  0  0  0  0  0  0  0  0  0  0  0
   -3.2918    2.8727   -3.4239 H   0  0  0  0  0  0  0  0  0  0  0  0
   -2.7059    1.4236   -4.2696 H   0  0  0  0  0  0  0  0  0  0  0  0
   -4.4487    1.6828   -4.0612 H   0  0  0  0  0  0  0  0  0  0  0  0
   -0.9990    0.3826   -2.0679 N   0  0  0  0  0  0  0  0  0  0  0  0
    0.4646    0.5638   -1.9298 C   0  0  2  0  0  0  0  0  0  0  0  0
    1.1183   -0.7700   -1.5200 C   0  0  0  0  0  0  0  0  0  0  0  0
    0.9791   -1.7413   -2.2531 O   0  0  0  0  0  0  0  0  0  0  0  0
    0.9931    1.7820   -1.1481 C   0  0  0  0  0  0  0  0  0  0  0  0
    0.5639    3.3546   -2.0046 S   0  0  0  0  0  0  0  0  0  0  0  0
   -1.2752   -0.2934   -2.7778 H   0  0  0  0  0  0  0  0  0  0  0  0
    0.8317    0.7345   -2.9471 H   0  0  0  0  0  0  0  0  0  0  0  0
    0.5891    1.7800   -0.1346 H   0  0  0  0  0  0  0  0  0  0  0  0
    2.0833    1.7297   -1.0671 H   0  0  0  0  0  0  0  0  0  0  0  0
    1.8321   -0.9011   -0.3426 N   0  0  0  0  0  0  0  0  0  0  0  0
    2.3010   -2.1829    0.2036 C   0  0  2  0  0  0  0  0  0  0  0  0
    1.9656   -2.3137    1.7048 C   0  0  0  0  0  0  0  0  0  0  0  0
    1.5419   -1.3443    2.3242 O   0  0  0  0  0  0  0  0  0  0  0  0
    3.8124   -2.2636   -0.0267 C   0  0  0  0  0  0  0  0  0  0  0  0
    1.7247   -0.1455    0.3341 H   0  0  0  0  0  0  0  0  0  0  0  0
    1.8149   -3.0201   -0.3084 H   0  0  0  0  0  0  0  0  0  0  0  0
    4.3243   -1.4491    0.4963 H   0  0  0  0  0  0  0  0  0  0  0  0
    4.2079   -3.2158    0.3395 H   0  0  0  0  0  0  0  0  0  0  0  0
    4.0356   -2.1862   -1.0956 H   0  0  0  0  0  0  0  0  0  0  0  0
    2.1335   -3.5167    2.3656 N   0  0  0  0  0  0  0  0  0  0  0  0
    1.8469   -3.6949    3.7844 C   0  0  0  0  0  0  0  0  0  0  0  0
    2.4756   -4.3086    1.8290 H   0  0  0  0  0  0  0  0  0  0  0  0
    2.4681   -3.0244    4.3877 H   0  0  0  0  0  0  0  0  0  0  0  0
    0.7932   -3.4815    3.9924 H   0  0  0  0  0  0  0  0  0  0  0  0
    2.0569   -4.7252    4.0871 H   0  0  0  0  0  0  0  0  0  0  0  0
  1  2  2  0  0  0  0
  1  3  1  0  0  0  0
  1  7  1  0  0  0  0
  3  4  1  0  0  0  0
  3  5  1  0  0  0  0
  3  6  1  0  0  0  0
  7  8  1  0  0  0  0
  7 13  1  0  0  0  0
  8  9  1  0  0  0  0
  8 11  1  0  0  0  0
  8 14  1  0  0  0  0
  9 10  2  0  0  0  0
  9 17  1  0  0  0  0
 11 12  1  0  0  0  0
 11 15  1  0  0  0  0
 11 16  1  0  0  0  0
 12 44  1  0  0  0  0
 17 18  1  0  0  0  0
 17 19  1  0  0  0  0
 18 20  1  0  0  0  0
 18 21  1  0  0  0  0
 18 22  1  0  0  0  0
 23 24  2  0  0  0  0
 23 25  1  0  0  0  0
 23 29  1  0  0  0  0
 25 26  1  0  0  0  0
 25 27  1  0  0  0  0
 25 28  1  0  0  0  0
 29 30  1  0  0  0  0
 29 34  1  0  0  0  0
 30 31  1  0  0  0  0
 30 33  1  0  0  0  0
 30 35  1  0  0  0  0
 31 32  2  0  0  0  0
 31 39  1  0  0  0  0
 33 36  1  0  0  0  0
 33 37  1  0  0  0  0
 33 38  1  0  0  0  0
 39 40  1  0  0  0  0
 39 45  1  0  0  0  0
 40 41  1  0  0  0  0
 40 43  1  0  0  0  0
 40 46  1  0  0  0  0
 41 42  2  0  0  0  0
 41 49  1  0  0  0  0
 43 44  1  0  0  0  0
 43 47  1  0  0  0  0
 43 48  1  0  0  0  0
 49 50  1  0  0  0  0
 49 54  1  0  0  0  0
 50 51  1  0  0  0  0
 50 53  1  0  0  0  0
 50 55  1  0  0  0  0
 51 52  2  0  0  0  0
 51 59  1  0  0  0  0
 53 56  1  0  0  0  0
 53 57  1  0  0  0  0
 53 58  1  0  0  0  0
 59 60  1  0  0  0  0
 59 61  1  0  0  0  0
 60 62  1  0  0  0  0
 60 63  1  0  0  0  0
 60 64  1  0  0  0  0
M  END
$$$$

  -OEChem-05262216053D

 64 63  0     1  0  0  0  0  0999 V2000
   -0.2859    7.6022    2.1255 C   0  0  0  0  0  0  0  0  0  0  0  0
   -1.3515    7.9147    1.6167 O   0  0  0  0  0  0  0  0  0  0  0  0
    0.5748    8.6552    2.7979 C   0  0  0  0  0  0  0  0  0  0  0  0
    1.5704    8.6665    2.3480 H   0  0  0  0  0  0  0  0  0  0  0  0
    0.1239    9.6443    2.6787 H   0  0  0  0  0  0  0  0  0  0  0  0
    0.6660    8.4356    3.8643 H   0  0  0  0  0  0  0  0  0  0  0  0
    0.1280    6.2885    2.1036 N   0  0  0  0  0  0  0  0  0  0  0  0
   -0.6887    5.1691    1.6114 C   0  0  2  0  0  0  0  0  0  0  0  0
   -0.2961    3.8358    2.2892 C   0  0  0  0  0  0  0  0  0  0  0  0
    0.4982    3.8459    3.2256 O   0  0  0  0  0  0  0  0  0  0  0  0
   -0.5860    5.0936    0.0828 C   0  0  0  0  0  0  0  0  0  0  0  0
    1.1157    4.6799   -0.4817 S   0  0  0  0  0  0  0  0  0  0  0  0
    0.9533    6.0449    2.6500 H   0  0  0  0  0  0  0  0  0  0  0  0
   -1.7359    5.3510    1.8742 H   0  0  0  0  0  0  0  0  0  0  0  0
   -1.2900    4.3487   -0.2902 H   0  0  0  0  0  0  0  0  0  0  0  0
   -0.8799    6.0542   -0.3515 H   0  0  0  0  0  0  0  0  0  0  0  0
   -0.8751    2.6351    1.9178 N   0  0  0  0  0  0  0  0  0  0  0  0
   -0.5428    1.3633    2.5487 C   0  0  0  0  0  0  0  0  0  0  0  0
   -1.4024    2.6133    1.0400 H   0  0  0  0  0  0  0  0  0  0  0  0
    0.5310    1.1647    2.4712 H   0  0  0  0  0  0  0  0  0  0  0  0
   -0.8226    1.3739    3.6071 H   0  0  0  0  0  0  0  0  0  0  0  0
   -1.0823    0.5471    2.0585 H   0  0  0  0  0  0  0  0  0  0  0  0
   -5.2973    0.6141   -1.1233 C   0  0  0  0  0  0  0  0  0  0  0  0
   -5.1375   -0.5398   -1.4886 O   0  0  0  0  0  0  0  0  0  0  0  0
   -6.3048    0.9351   -0.0352 C   0  0  0  0  0  0  0  0  0  0  0  0
   -7.0206    1.6777   -0.3956 H   0  0  0  0  0  0  0  0  0  0  0  0
   -6.8504    0.0319    0.2526 H   0  0  0  0  0  0  0  0  0  0  0  0
   -5.7910    1.3306    0.8444 H   0  0  0  0  0  0  0  0  0  0  0  0
   -4.5449    1.6272   -1.6815 N   0  0  0  0  0  0  0  0  0  0  0  0
   -3.3852    1.3728   -2.5488 C   0  0  2  0  0  0  0  0  0  0  0  0
   -2.0576    1.3172   -1.7639 C   0  0  0  0  0  0  0  0  0  0  0  0
   -1.9287    1.9969   -0.7508 O   0  0  0  0  0  0  0  0  0  0  0  0
   -3.3260    2.4886   -3.5939 C   0  0  0  0  0  0  0  0  0  0  0  0
   -4.5775    2.5218   -1.1998 H   0  0  0  0  0  0  0  0  0  0  0  0
   -3.5109    0.4207   -3.0752 H   0  0  0  0  0  0  0  0  0  0  0  0
   -3.1834    3.4615   -3.1119 H   0  0  0  0  0  0  0  0  0  0  0  0
   -2.4935    2.3193   -4.2843 H   0  0  0  0  0  0  0  0  0  0  0  0
   -4.2550    2.5167   -4.1719 H   0  0  0  0  0  0  0  0  0  0  0  0
   -1.0535    0.4582   -2.1795 N   0  0  0  0  0  0  0  0  0  0  0  0
    0.4103    0.5582   -1.9728 C   0  0  2  0  0  0  0  0  0  0  0  0
    0.9789   -0.8021   -1.5307 C   0  0  0  0  0  0  0  0  0  0  0  0
    1.0652   -1.7039   -2.3543 O   0  0  0  0  0  0  0  0  0  0  0  0
    0.9690    1.7408   -1.1582 C   0  0  0  0  0  0  0  0  0  0  0  0
    0.6689    3.3415   -2.0191 S   0  0  0  0  0  0  0  0  0  0  0  0
   -1.3354   -0.1824   -2.9190 H   0  0  0  0  0  0  0  0  0  0  0  0
    0.8331    0.7111   -2.9712 H   0  0  0  0  0  0  0  0  0  0  0  0
    0.5175    1.7581   -0.1648 H   0  0  0  0  0  0  0  0  0  0  0  0
    2.0490    1.6214   -1.0243 H   0  0  0  0  0  0  0  0  0  0  0  0
    1.3520   -1.0383   -0.2207 N   0  0  0  0  0  0  0  0  0  0  0  0
    1.7315   -2.3550    0.3086 C   0  0  2  0  0  0  0  0  0  0  0  0
    1.2317   -2.5513    1.7554 C   0  0  0  0  0  0  0  0  0  0  0  0
    0.7749   -1.6007    2.3806 O   0  0  0  0  0  0  0  0  0  0  0  0
    3.2569   -2.4702    0.2411 C   0  0  0  0  0  0  0  0  0  0  0  0
    1.0781   -0.3380    0.4686 H   0  0  0  0  0  0  0  0  0  0  0  0
    1.2813   -3.1477   -0.2984 H   0  0  0  0  0  0  0  0  0  0  0  0
    3.7262   -1.6915    0.8513 H   0  0  0  0  0  0  0  0  0  0  0  0
    3.5869   -3.4468    0.6076 H   0  0  0  0  0  0  0  0  0  0  0  0
    3.5996   -2.3569   -0.7925 H   0  0  0  0  0  0  0  0  0  0  0  0
    1.2842   -3.7951    2.3574 N   0  0  0  0  0  0  0  0  0  0  0  0
    0.8171   -4.0452    3.7157 C   0  0  0  0  0  0  0  0  0  0  0  0
    1.6507   -4.5703    1.8124 H   0  0  0  0  0  0  0  0  0  0  0  0
    1.3635   -3.4201    4.4299 H   0  0  0  0  0  0  0  0  0  0  0  0
   -0.2523   -3.8245    3.7995 H   0  0  0  0  0  0  0  0  0  0  0  0
    0.9753   -5.0942    3.9844 H   0  0  0  0  0  0  0  0  0  0  0  0
  1  2  2  0  0  0  0
  1  3  1  0  0  0  0
  1  7  1  0  0  0  0
  3  4  1  0  0  0  0
  3  5  1  0  0  0  0
  3  6  1  0  0  0  0
  7  8  1  0  0  0  0
  7 13  1  0  0  0  0
  8  9  1  0  0  0  0
  8 11  1  0  0  0  0
  8 14  1  0  0  0  0
  9 10  2  0  0  0  0
  9 17  1  0  0  0  0
 11 12  1  0  0  0  0
 11 15  1  0  0  0  0
 11 16  1  0  0  0  0
 12 44  1  0  0  0  0
 17 18  1  0  0  0  0
 17 19  1  0  0  0  0
 18 20  1  0  0  0  0
 18 21  1  0  0  0  0
 18 22  1  0  0  0  0
 23 24  2  0  0  0  0
 23 25  1  0  0  0  0
 23 29  1  0  0  0  0
 25 26  1  0  0  0  0
 25 27  1  0  0  0  0
 25 28  1  0  0  0  0
 29 30  1  0  0  0  0
 29 34  1  0  0  0  0
 30 31  1  0  0  0  0
 30 33  1  0  0  0  0
 30 35  1  0  0  0  0
 31 32  2  0  0  0  0
 31 39  1  0  0  0  0
 33 36  1  0  0  0  0
 33 37  1  0  0  0  0
 33 38  1  0  0  0  0
 39 40  1  0  0  0  0
 39 45  1  0  0  0  0
 40 41  1  0  0  0  0
 40 43  1  0  0  0  0
 40 46  1  0  0  0  0
 41 42  2  0  0  0  0
 41 49  1  0  0  0  0
 43 44  1  0  0  0  0
 43 47  1  0  0  0  0
 43 48  1  0  0  0  0
 49 50  1  0  0  0  0
 49 54  1  0  0  0  0
 50 51  1  0  0  0  0
 50 53  1  0  0  0  0
 50 55  1  0  0  0  0
 51 52  2  0  0  0  0
 51 59  1  0  0  0  0
 53 56  1  0  0  0  0
 53 57  1  0  0  0  0
 53 58  1  0  0  0  0
 59 60  1  0  0  0  0
 59 61  1  0  0  0  0
 60 62  1  0  0  0  0
 60 63  1  0  0  0  0
 60 64  1  0  0  0  0
M  END
$$$$

  -OEChem-05262216053D

 64 63  0     1  0  0  0  0  0999 V2000
   -0.2388    7.5133    2.1367 C   0  0  0  0  0  0  0  0  0  0  0  0
   -1.2994    7.8452    1.6295 O   0  0  0  0  0  0  0  0  0  0  0  0
    0.6447    8.5493    2.8046 C   0  0  0  0  0  0  0  0  0  0  0  0
    1.6292    8.5613    2.3297 H   0  0  0  0  0  0  0  0  0  0  0  0
    0.1957    9.5424    2.7133 H   0  0  0  0  0  0  0  0  0  0  0  0
    0.7618    8.3113    3.8647 H   0  0  0  0  0  0  0  0  0  0  0  0
    0.1529    6.1930    2.1143 N   0  0  0  0  0  0  0  0  0  0  0  0
   -0.6708    5.0887    1.6027 C   0  0  2  0  0  0  0  0  0  0  0  0
   -0.2861    3.7412    2.2558 C   0  0  0  0  0  0  0  0  0  0  0  0
    0.5510    3.7201    3.1541 O   0  0  0  0  0  0  0  0  0  0  0  0
   -0.5669    5.0421    0.0728 C   0  0  0  0  0  0  0  0  0  0  0  0
    1.1284    4.6194   -0.5028 S   0  0  0  0  0  0  0  0  0  0  0  0
    0.9785    5.9344    2.6536 H   0  0  0  0  0  0  0  0  0  0  0  0
   -1.7166    5.2725    1.8699 H   0  0  0  0  0  0  0  0  0  0  0  0
   -1.2800    4.3145   -0.3150 H   0  0  0  0  0  0  0  0  0  0  0  0
   -0.8480    6.0143   -0.3436 H   0  0  0  0  0  0  0  0  0  0  0  0
   -0.9288    2.5651    1.9134 N   0  0  0  0  0  0  0  0  0  0  0  0
   -0.6285    1.2815    2.5356 C   0  0  0  0  0  0  0  0  0  0  0  0
   -1.4844    2.5635    1.0533 H   0  0  0  0  0  0  0  0  0  0  0  0
    0.4078    0.9899    2.3379 H   0  0  0  0  0  0  0  0  0  0  0  0
   -0.7777    1.3340    3.6187 H   0  0  0  0  0  0  0  0  0  0  0  0
   -1.2903    0.5069    2.1362 H   0  0  0  0  0  0  0  0  0  0  0  0
   -5.3127    0.6216   -1.3312 C   0  0  0  0  0  0  0  0  0  0  0  0
   -5.0874   -0.4977   -1.7640 O   0  0  0  0  0  0  0  0  0  0  0  0
   -6.3672    0.8277   -0.2605 C   0  0  0  0  0  0  0  0  0  0  0  0
   -7.0460    1.6328   -0.5522 H   0  0  0  0  0  0  0  0  0  0  0  0
   -6.9480   -0.0888   -0.1236 H   0  0  0  0  0  0  0  0  0  0  0  0
   -5.8887    1.0881    0.6869 H   0  0  0  0  0  0  0  0  0  0  0  0
   -4.5836    1.6979   -1.7932 N   0  0  0  0  0  0  0  0  0  0  0  0
   -3.3892    1.5391   -2.6343 C   0  0  2  0  0  0  0  0  0  0  0  0
   -2.1033    1.3613   -1.7997 C   0  0  0  0  0  0  0  0  0  0  0  0
   -1.9759    1.9852   -0.7513 O   0  0  0  0  0  0  0  0  0  0  0  0
   -3.2726    2.7790   -3.5236 C   0  0  0  0  0  0  0  0  0  0  0  0
   -4.6658    2.5565   -1.2553 H   0  0  0  0  0  0  0  0  0  0  0  0
   -3.5025    0.6644   -3.2835 H   0  0  0  0  0  0  0  0  0  0  0  0
   -3.1420    3.6794   -2.9145 H   0  0  0  0  0  0  0  0  0  0  0  0
   -2.4122    2.6877   -4.1940 H   0  0  0  0  0  0  0  0  0  0  0  0
   -4.1750    2.8961   -4.1318 H   0  0  0  0  0  0  0  0  0  0  0  0
   -1.1353    0.4576   -2.2052 N   0  0  0  0  0  0  0  0  0  0  0  0
    0.3308    0.5248   -1.9993 C   0  0  2  0  0  0  0  0  0  0  0  0
    0.8765   -0.8340   -1.5290 C   0  0  0  0  0  0  0  0  0  0  0  0
    1.2175   -1.6646   -2.3606 O   0  0  0  0  0  0  0  0  0  0  0  0
    0.9171    1.6948   -1.1876 C   0  0  0  0  0  0  0  0  0  0  0  0
    0.6539    3.3011   -2.0489 S   0  0  0  0  0  0  0  0  0  0  0  0
   -1.4284   -0.1350   -2.9794 H   0  0  0  0  0  0  0  0  0  0  0  0
    0.7571    0.6610   -2.9988 H   0  0  0  0  0  0  0  0  0  0  0  0
    0.4702    1.7246   -0.1925 H   0  0  0  0  0  0  0  0  0  0  0  0
    1.9939    1.5485   -1.0553 H   0  0  0  0  0  0  0  0  0  0  0  0
    0.9559   -1.1425   -0.1841 N   0  0  0  0  0  0  0  0  0  0  0  0
    1.3618   -2.4507    0.3464 C   0  0  2  0  0  0  0  0  0  0  0  0
    0.6544   -2.7751    1.6788 C   0  0  0  0  0  0  0  0  0  0  0  0
    0.0775   -1.8905    2.3017 O   0  0  0  0  0  0  0  0  0  0  0  0
    2.8822   -2.4400    0.5345 C   0  0  0  0  0  0  0  0  0  0  0  0
    0.4964   -0.5052    0.4669 H   0  0  0  0  0  0  0  0  0  0  0  0
    1.0897   -3.2387   -0.3640 H   0  0  0  0  0  0  0  0  0  0  0  0
    3.1731   -1.6618    1.2475 H   0  0  0  0  0  0  0  0  0  0  0  0
    3.2307   -3.4060    0.9119 H   0  0  0  0  0  0  0  0  0  0  0  0
    3.3819   -2.2429   -0.4194 H   0  0  0  0  0  0  0  0  0  0  0  0
    0.6541   -4.0660    2.1745 N   0  0  0  0  0  0  0  0  0  0  0  0
   -0.0208   -4.4502    3.4085 C   0  0  0  0  0  0  0  0  0  0  0  0
    1.1146   -4.7836    1.6221 H   0  0  0  0  0  0  0  0  0  0  0  0
    0.3903   -3.8965    4.2592 H   0  0  0  0  0  0  0  0  0  0  0  0
   -1.0942   -4.2440    3.3384 H   0  0  0  0  0  0  0  0  0  0  0  0
    0.1142   -5.5199    3.5960 H   0  0  0  0  0  0  0  0  0  0  0  0
  1  2  2  0  0  0  0
  1  3  1  0  0  0  0
  1  7  1  0  0  0  0
  3  4  1  0  0  0  0
  3  5  1  0  0  0  0
  3  6  1  0  0  0  0
  7  8  1  0  0  0  0
  7 13  1  0  0  0  0
  8  9  1  0  0  0  0
  8 11  1  0  0  0  0
  8 14  1  0  0  0  0
  9 10  2  0  0  0  0
  9 17  1  0  0  0  0
 11 12  1  0  0  0  0
 11 15  1  0  0  0  0
 11 16  1  0  0  0  0
 12 44  1  0  0  0  0
 17 18  1  0  0  0  0
 17 19  1  0  0  0  0
 18 20  1  0  0  0  0
 18 21  1  0  0  0  0
 18 22  1  0  0  0  0
 23 24  2  0  0  0  0
 23 25  1  0  0  0  0
 23 29  1  0  0  0  0
 25 26  1  0  0  0  0
 25 27  1  0  0  0  0
 25 28  1  0  0  0  0
 29 30  1  0  0  0  0
 29 34  1  0  0  0  0
 30 31  1  0  0  0  0
 30 33  1  0  0  0  0
 30 35  1  0  0  0  0
 31 32  2  0  0  0  0
 31 39  1  0  0  0  0
 33 36  1  0  0  0  0
 33 37  1  0  0  0  0
 33 38  1  0  0  0  0
 39 40  1  0  0  0  0
 39 45  1  0  0  0  0
 40 41  1  0  0  0  0
 40 43  1  0  0  0  0
 40 46  1  0  0  0  0
 41 42  2  0  0  0  0
 41 49  1  0  0  0  0
 43 44  1  0  0  0  0
 43 47  1  0  0  0  0
 43 48  1  0  0  0  0
 49 50  1  0  0  0  0
 49 54  1  0  0  0  0
 50 51  1  0  0  0  0
 50 53  1  0  0  0  0
 50 55  1  0  0  0  0
 51 52  2  0  0  0  0
 51 59  1  0  0  0  0
 53 56  1  0  0  0  0
 53 57  1  0  0  0  0
 53 58  1  0  0  0  0
 59 60  1  0  0  0  0
 59 61  1  0  0  0  0
 60 62  1  0  0  0  0
 60 63  1  0  0  0  0
 60 64  1  0  0  0  0
M  END
$$$$

  -OEChem-05262216053D

 64 63  0     1  0  0  0  0  0999 V2000
   -0.0418    7.3526    2.3253 C   0  0  0  0  0  0  0  0  0  0  0  0
   -1.1148    7.7517    1.8995 O   0  0  0  0  0  0  0  0  0  0  0  0
    0.9104    8.3135    3.0110 C   0  0  0  0  0  0  0  0  0  0  0  0
    1.8714    8.3194    2.4911 H   0  0  0  0  0  0  0  0  0  0  0  0
    0.4970    9.3256    2.9995 H   0  0  0  0  0  0  0  0  0  0  0  0
    1.0656    8.0077    4.0483 H   0  0  0  0  0  0  0  0  0  0  0  0
    0.3015    6.0254    2.1913 N   0  0  0  0  0  0  0  0  0  0  0  0
   -0.5906    4.9870    1.6559 C   0  0  2  0  0  0  0  0  0  0  0  0
   -0.2537    3.5891    2.2240 C   0  0  0  0  0  0  0  0  0  0  0  0
    0.6070    3.4777    3.0926 O   0  0  0  0  0  0  0  0  0  0  0  0
   -0.5430    5.0181    0.1228 C   0  0  0  0  0  0  0  0  0  0  0  0
    1.1224    4.5950   -0.5351 S   0  0  0  0  0  0  0  0  0  0  0  0
    1.1459    5.7047    2.6633 H   0  0  0  0  0  0  0  0  0  0  0  0
   -1.6166    5.2042    1.9703 H   0  0  0  0  0  0  0  0  0  0  0  0
   -1.2841    4.3252   -0.2766 H   0  0  0  0  0  0  0  0  0  0  0  0
   -0.8183    6.0168   -0.2307 H   0  0  0  0  0  0  0  0  0  0  0  0
   -0.9728    2.4686    1.8486 N   0  0  0  0  0  0  0  0  0  0  0  0
   -0.7429    1.1426    2.4081 C   0  0  0  0  0  0  0  0  0  0  0  0
   -1.5464    2.5374    1.0032 H   0  0  0  0  0  0  0  0  0  0  0  0
    0.2520    0.7746    2.1369 H   0  0  0  0  0  0  0  0  0  0  0  0
   -0.8247    1.1647    3.4997 H   0  0  0  0  0  0  0  0  0  0  0  0
   -1.4913    0.4421    2.0246 H   0  0  0  0  0  0  0  0  0  0  0  0
   -5.3217    0.5099   -1.5648 C   0  0  0  0  0  0  0  0  0  0  0  0
   -4.9764   -0.5391   -2.0863 O   0  0  0  0  0  0  0  0  0  0  0  0
   -6.4224    0.5213   -0.5214 C   0  0  0  0  0  0  0  0  0  0  0  0
   -7.2344    1.1784   -0.8423 H   0  0  0  0  0  0  0  0  0  0  0  0
   -6.8199   -0.4880   -0.3823 H   0  0  0  0  0  0  0  0  0  0  0  0
   -6.0285    0.8792    0.4331 H   0  0  0  0  0  0  0  0  0  0  0  0
   -4.6858    1.6850   -1.9079 N   0  0  0  0  0  0  0  0  0  0  0  0
   -3.4680    1.7030   -2.7278 C   0  0  2  0  0  0  0  0  0  0  0  0
   -2.1978    1.4538   -1.8884 C   0  0  0  0  0  0  0  0  0  0  0  0
   -2.0582    2.0396   -0.8202 O   0  0  0  0  0  0  0  0  0  0  0  0
   -3.3826    3.0635   -3.4235 C   0  0  0  0  0  0  0  0  0  0  0  0
   -4.8625    2.4857   -1.3070 H   0  0  0  0  0  0  0  0  0  0  0  0
   -3.5301    0.9306   -3.5023 H   0  0  0  0  0  0  0  0  0  0  0  0
   -3.3078    3.8702   -2.6867 H   0  0  0  0  0  0  0  0  0  0  0  0
   -2.5009    3.1045   -4.0710 H   0  0  0  0  0  0  0  0  0  0  0  0
   -4.2717    3.2328   -4.0391 H   0  0  0  0  0  0  0  0  0  0  0  0
   -1.2621    0.5242   -2.3077 N   0  0  0  0  0  0  0  0  0  0  0  0
    0.2091    0.5615   -2.1307 C   0  0  2  0  0  0  0  0  0  0  0  0
    0.7361   -0.8034   -1.6613 C   0  0  0  0  0  0  0  0  0  0  0  0
    1.3192   -1.5369   -2.4480 O   0  0  0  0  0  0  0  0  0  0  0  0
    0.8288    1.7023   -1.3027 C   0  0  0  0  0  0  0  0  0  0  0  0
    0.5797    3.3383   -2.1108 S   0  0  0  0  0  0  0  0  0  0  0  0
   -1.5832   -0.0468   -3.0868 H   0  0  0  0  0  0  0  0  0  0  0  0
    0.6244    0.6980   -3.1347 H   0  0  0  0  0  0  0  0  0  0  0  0
    0.4004    1.7111   -0.2988 H   0  0  0  0  0  0  0  0  0  0  0  0
    1.9053    1.5337   -1.1937 H   0  0  0  0  0  0  0  0  0  0  0  0
    0.5465   -1.2105   -0.3557 N   0  0  0  0  0  0  0  0  0  0  0  0
    0.9678   -2.5068    0.1890 C   0  0  2  0  0  0  0  0  0  0  0  0
    0.1178   -2.9157    1.4104 C   0  0  0  0  0  0  0  0  0  0  0  0
   -0.6112   -2.0947    1.9559 O   0  0  0  0  0  0  0  0  0  0  0  0
    2.4473   -2.4093    0.5775 C   0  0  0  0  0  0  0  0  0  0  0  0
   -0.0765   -0.6448    0.2217 H   0  0  0  0  0  0  0  0  0  0  0  0
    0.8419   -3.2824   -0.5738 H   0  0  0  0  0  0  0  0  0  0  0  0
    2.5932   -1.6299    1.3325 H   0  0  0  0  0  0  0  0  0  0  0  0
    2.8031   -3.3602    0.9850 H   0  0  0  0  0  0  0  0  0  0  0  0
    3.0558   -2.1629   -0.2983 H   0  0  0  0  0  0  0  0  0  0  0  0
    0.1683   -4.2067    1.9030 N   0  0  0  0  0  0  0  0  0  0  0  0
   -0.6012   -4.6522    3.0586 C   0  0  0  0  0  0  0  0  0  0  0  0
    0.7749   -4.8700    1.4298 H   0  0  0  0  0  0  0  0  0  0  0  0
   -0.3216   -4.0795    3.9492 H   0  0  0  0  0  0  0  0  0  0  0  0
   -1.6735   -4.5231    2.8786 H   0  0  0  0  0  0  0  0  0  0  0  0
   -0.4101   -5.7112    3.2557 H   0  0  0  0  0  0  0  0  0  0  0  0
  1  2  2  0  0  0  0
  1  3  1  0  0  0  0
  1  7  1  0  0  0  0
  3  4  1  0  0  0  0
  3  5  1  0  0  0  0
  3  6  1  0  0  0  0
  7  8  1  0  0  0  0
  7 13  1  0  0  0  0
  8  9  1  0  0  0  0
  8 11  1  0  0  0  0
  8 14  1  0  0  0  0
  9 10  2  0  0  0  0
  9 17  1  0  0  0  0
 11 12  1  0  0  0  0
 11 15  1  0  0  0  0
 11 16  1  0  0  0  0
 12 44  1  0  0  0  0
 17 18  1  0  0  0  0
 17 19  1  0  0  0  0
 18 20  1  0  0  0  0
 18 21  1  0  0  0  0
 18 22  1  0  0  0  0
 23 24  2  0  0  0  0
 23 25  1  0  0  0  0
 23 29  1  0  0  0  0
 25 26  1  0  0  0  0
 25 27  1  0  0  0  0
 25 28  1  0  0  0  0
 29 30  1  0  0  0  0
 29 34  1  0  0  0  0
 30 31  1  0  0  0  0
 30 33  1  0  0  0  0
 30 35  1  0  0  0  0
 31 32  2  0  0  0  0
 31 39  1  0  0  0  0
 33 36  1  0  0  0  0
 33 37  1  0  0  0  0
 33 38  1  0  0  0  0
 39 40  1  0  0  0  0
 39 45  1  0  0  0  0
 40 41  1  0  0  0  0
 40 43  1  0  0  0  0
 40 46  1  0  0  0  0
 41 42  2  0  0  0  0
 41 49  1  0  0  0  0
 43 44  1  0  0  0  0
 43 47  1  0  0  0  0
 43 48  1  0  0  0  0
 49 50  1  0  0  0  0
 49 54  1  0  0  0  0
 50 51  1  0  0  0  0
 50 53  1  0  0  0  0
 50 55  1  0  0  0  0
 51 52  2  0  0  0  0
 51 59  1  0  0  0  0
 53 56  1  0  0  0  0
 53 57  1  0  0  0  0
 53 58  1  0  0  0  0
 59 60  1  0  0  0  0
 59 61  1  0  0  0  0
 60 62  1  0  0  0  0
 60 63  1  0  0  0  0
 60 64  1  0  0  0  0
M  END
$$$$

  -OEChem-05262216053D

 64 63  0     1  0  0  0  0  0999 V2000
   -0.2340    7.3280    2.3491 C   0  0  0  0  0  0  0  0  0  0  0  0
   -1.3865    7.6151    2.0641 O   0  0  0  0  0  0  0  0  0  0  0  0
    0.6947    8.3815    2.9223 C   0  0  0  0  0  0  0  0  0  0  0  0
    1.5749    8.4906    2.2842 H   0  0  0  0  0  0  0  0  0  0  0  0
    0.1811    9.3452    2.9810 H   0  0  0  0  0  0  0  0  0  0  0  0
    1.0143    8.0892    3.9254 H   0  0  0  0  0  0  0  0  0  0  0  0
    0.2205    6.0409    2.1633 N   0  0  0  0  0  0  0  0  0  0  0  0
   -0.6179    4.9166    1.7225 C   0  0  2  0  0  0  0  0  0  0  0  0
   -0.0687    3.5591    2.2210 C   0  0  0  0  0  0  0  0  0  0  0  0
    0.9134    3.5325    2.9574 O   0  0  0  0  0  0  0  0  0  0  0  0
   -0.7623    4.9605    0.1949 C   0  0  0  0  0  0  0  0  0  0  0  0
    0.8470    4.7494   -0.6720 S   0  0  0  0  0  0  0  0  0  0  0  0
    1.1478    5.8102    2.5172 H   0  0  0  0  0  0  0  0  0  0  0  0
   -1.6144    5.0239    2.1636 H   0  0  0  0  0  0  0  0  0  0  0  0
   -1.4569    4.1842   -0.1268 H   0  0  0  0  0  0  0  0  0  0  0  0
   -1.1983    5.9194   -0.1018 H   0  0  0  0  0  0  0  0  0  0  0  0
   -0.7143    2.3689    1.9337 N   0  0  0  0  0  0  0  0  0  0  0  0
   -0.2475    1.0726    2.4113 C   0  0  0  0  0  0  0  0  0  0  0  0
   -1.3917    2.3791    1.1662 H   0  0  0  0  0  0  0  0  0  0  0  0
    0.7629    0.8671    2.0432 H   0  0  0  0  0  0  0  0  0  0  0  0
   -0.2350    1.0490    3.5060 H   0  0  0  0  0  0  0  0  0  0  0  0
   -0.9136    0.2791    2.0576 H   0  0  0  0  0  0  0  0  0  0  0  0
   -5.9360    1.4032   -1.4886 C   0  0  0  0  0  0  0  0  0  0  0  0
   -6.3408    0.5344   -2.2445 O   0  0  0  0  0  0  0  0  0  0  0  0
   -6.8926    2.0895   -0.5321 C   0  0  0  0  0  0  0  0  0  0  0  0
   -6.9398    3.1584   -0.7547 H   0  0  0  0  0  0  0  0  0  0  0  0
   -7.8948    1.6636   -0.6319 H   0  0  0  0  0  0  0  0  0  0  0  0
   -6.5541    1.9530    0.4978 H   0  0  0  0  0  0  0  0  0  0  0  0
   -4.6037    1.7588   -1.5009 N   0  0  0  0  0  0  0  0  0  0  0  0
   -3.5728    1.0743   -2.2932 C   0  0  2  0  0  0  0  0  0  0  0  0
   -2.1799    1.1475   -1.6315 C   0  0  0  0  0  0  0  0  0  0  0  0
   -2.0226    1.8192   -0.6169 O   0  0  0  0  0  0  0  0  0  0  0  0
   -3.5300    1.7135   -3.6850 C   0  0  0  0  0  0  0  0  0  0  0  0
   -4.2849    2.4067   -0.7826 H   0  0  0  0  0  0  0  0  0  0  0  0
   -3.8320    0.0140   -2.3900 H   0  0  0  0  0  0  0  0  0  0  0  0
   -3.2615    2.7724   -3.6117 H   0  0  0  0  0  0  0  0  0  0  0  0
   -2.7932    1.2110   -4.3186 H   0  0  0  0  0  0  0  0  0  0  0  0
   -4.5089    1.6351   -4.1689 H   0  0  0  0  0  0  0  0  0  0  0  0
   -1.1597    0.3278   -2.0840 N   0  0  0  0  0  0  0  0  0  0  0  0
    0.3023    0.5832   -2.0622 C   0  0  2  0  0  0  0  0  0  0  0  0
    1.0359   -0.6677   -1.5592 C   0  0  0  0  0  0  0  0  0  0  0  0
    1.8312   -1.2546   -2.2788 O   0  0  0  0  0  0  0  0  0  0  0  0
    0.8358    1.8345   -1.3437 C   0  0  0  0  0  0  0  0  0  0  0  0
    0.2880    3.3916   -2.1570 S   0  0  0  0  0  0  0  0  0  0  0  0
   -1.4613   -0.3137   -2.8143 H   0  0  0  0  0  0  0  0  0  0  0  0
    0.6067    0.7080   -3.1070 H   0  0  0  0  0  0  0  0  0  0  0  0
    0.5147    1.8281   -0.3018 H   0  0  0  0  0  0  0  0  0  0  0  0
    1.9306    1.8160   -1.3439 H   0  0  0  0  0  0  0  0  0  0  0  0
    0.7455   -1.1424   -0.2955 N   0  0  0  0  0  0  0  0  0  0  0  0
    1.1367   -2.4667    0.2028 C   0  0  2  0  0  0  0  0  0  0  0  0
   -0.1021   -3.3003    0.5918 C   0  0  0  0  0  0  0  0  0  0  0  0
   -1.1701   -2.7395    0.8154 O   0  0  0  0  0  0  0  0  0  0  0  0
    2.0506   -2.2582    1.4121 C   0  0  0  0  0  0  0  0  0  0  0  0
   -0.0897   -0.7374    0.1289 H   0  0  0  0  0  0  0  0  0  0  0  0
    1.6840   -3.0247   -0.5638 H   0  0  0  0  0  0  0  0  0  0  0  0
    1.5203   -1.7237    2.2066 H   0  0  0  0  0  0  0  0  0  0  0  0
    2.3907   -3.2202    1.8072 H   0  0  0  0  0  0  0  0  0  0  0  0
    2.9295   -1.6725    1.1249 H   0  0  0  0  0  0  0  0  0  0  0  0
   -0.0216   -4.6771    0.6908 N   0  0  0  0  0  0  0  0  0  0  0  0
   -1.1618   -5.5225    1.0246 C   0  0  0  0  0  0  0  0  0  0  0  0
    0.8659   -5.1164    0.4627 H   0  0  0  0  0  0  0  0  0  0  0  0
   -1.5858   -5.2306    1.9911 H   0  0  0  0  0  0  0  0  0  0  0  0
   -1.9394   -5.4377    0.2582 H   0  0  0  0  0  0  0  0  0  0  0  0
   -0.8508   -6.5696    1.0880 H   0  0  0  0  0  0  0  0  0  0  0  0
  1  2  2  0  0  0  0
  1  3  1  0  0  0  0
  1  7  1  0  0  0  0
  3  4  1  0  0  0  0
  3  5  1  0  0  0  0
  3  6  1  0  0  0  0
  7  8  1  0  0  0  0
  7 13  1  0  0  0  0
  8  9  1  0  0  0  0
  8 11  1  0  0  0  0
  8 14  1  0  0  0  0
  9 10  2  0  0  0  0
  9 17  1  0  0  0  0
 11 12  1  0  0  0  0
 11 15  1  0  0  0  0
 11 16  1  0  0  0  0
 12 44  1  0  0  0  0
 17 18  1  0  0  0  0
 17 19  1  0  0  0  0
 18 20  1  0  0  0  0
 18 21  1  0  0  0  0
 18 22  1  0  0  0  0
 23 24  2  0  0  0  0
 23 25  1  0  0  0  0
 23 29  1  0  0  0  0
 25 26  1  0  0  0  0
 25 27  1  0  0  0  0
 25 28  1  0  0  0  0
 29 30  1  0  0  0  0
 29 34  1  0  0  0  0
 30 31  1  0  0  0  0
 30 33  1  0  0  0  0
 30 35  1  0  0  0  0
 31 32  2  0  0  0  0
 31 39  1  0  0  0  0
 33 36  1  0  0  0  0
 33 37  1  0  0  0  0
 33 38  1  0  0  0  0
 39 40  1  0  0  0  0
 39 45  1  0  0  0  0
 40 41  1  0  0  0  0
 40 43  1  0  0  0  0
 40 46  1  0  0  0  0
 41 42  2  0  0  0  0
 41 49  1  0  0  0  0
 43 44  1  0  0  0  0
 43 47  1  0  0  0  0
 43 48  1  0  0  0  0
 49 50  1  0  0  0  0
 49 54  1  0  0  0  0
 50 51  1  0  0  0  0
 50 53  1  0  0  0  0
 50 55  1  0  0  0  0
 51 52  2  0  0  0  0
 51 59  1  0  0  0  0
 53 56  1  0  0  0  0
 53 57  1  0  0  0  0
 53 58  1  0  0  0  0
 59 60  1  0  0  0  0
 59 61  1  0  0  0  0
 60 62  1  0  0  0  0
 60 63  1  0  0  0  0
 60 64  1  0  0  0  0
M  END
$$$$

  -OEChem-05262216053D

 64 63  0     1  0  0  0  0  0999 V2000
   -0.1303    7.7105    2.0346 C   0  0  0  0  0  0  0  0  0  0  0  0
   -1.2707    8.0001    1.7069 O   0  0  0  0  0  0  0  0  0  0  0  0
    0.8102    8.7816    2.5530 C   0  0  0  0  0  0  0  0  0  0  0  0
    1.6742    8.8703    1.8899 H   0  0  0  0  0  0  0  0  0  0  0  0
    0.2966    9.7460    2.5946 H   0  0  0  0  0  0  0  0  0  0  0  0
    1.1549    8.5225    3.5571 H   0  0  0  0  0  0  0  0  0  0  0  0
    0.3023    6.4061    1.9428 N   0  0  0  0  0  0  0  0  0  0  0  0
   -0.5514    5.2717    1.5619 C   0  0  2  0  0  0  0  0  0  0  0  0
   -0.0649    3.9476    2.1948 C   0  0  0  0  0  0  0  0  0  0  0  0
    0.8527    3.9619    3.0105 O   0  0  0  0  0  0  0  0  0  0  0  0
   -0.6347    5.1910    0.0316 C   0  0  0  0  0  0  0  0  0  0  0  0
    1.0028    4.8766   -0.7469 S   0  0  0  0  0  0  0  0  0  0  0  0
    1.2131    6.1817    2.3404 H   0  0  0  0  0  0  0  0  0  0  0  0
   -1.5613    5.4405    1.9501 H   0  0  0  0  0  0  0  0  0  0  0  0
   -1.3348    4.4050   -0.2554 H   0  0  0  0  0  0  0  0  0  0  0  0
   -1.0345    6.1323   -0.3587 H   0  0  0  0  0  0  0  0  0  0  0  0
   -0.7047    2.7469    1.9395 N   0  0  0  0  0  0  0  0  0  0  0  0
   -0.2986    1.4874    2.5506 C   0  0  0  0  0  0  0  0  0  0  0  0
   -1.3099    2.7088    1.1139 H   0  0  0  0  0  0  0  0  0  0  0  0
    0.7349    1.2434    2.2827 H   0  0  0  0  0  0  0  0  0  0  0  0
   -0.3740    1.5510    3.6413 H   0  0  0  0  0  0  0  0  0  0  0  0
   -0.9483    0.6769    2.2068 H   0  0  0  0  0  0  0  0  0  0  0  0
   -5.7332    0.8668   -0.8399 C   0  0  0  0  0  0  0  0  0  0  0  0
   -6.0484   -0.2770   -1.1248 O   0  0  0  0  0  0  0  0  0  0  0  0
   -6.7150    1.7654   -0.1129 C   0  0  0  0  0  0  0  0  0  0  0  0
   -6.8430    2.7014   -0.6618 H   0  0  0  0  0  0  0  0  0  0  0  0
   -7.6870    1.2711   -0.0310 H   0  0  0  0  0  0  0  0  0  0  0  0
   -6.3447    1.9866    0.8909 H   0  0  0  0  0  0  0  0  0  0  0  0
   -4.4810    1.3422   -1.1674 N   0  0  0  0  0  0  0  0  0  0  0  0
   -3.4148    0.5288   -1.7693 C   0  0  2  0  0  0  0  0  0  0  0  0
   -2.0052    1.0343   -1.3884 C   0  0  0  0  0  0  0  0  0  0  0  0
   -1.8885    1.9905   -0.6290 O   0  0  0  0  0  0  0  0  0  0  0  0
   -3.5972    0.5420   -3.2910 C   0  0  0  0  0  0  0  0  0  0  0  0
   -4.2219    2.2624   -0.8168 H   0  0  0  0  0  0  0  0  0  0  0  0
   -3.4937   -0.5039   -1.4100 H   0  0  0  0  0  0  0  0  0  0  0  0
   -3.5004    1.5604   -3.6802 H   0  0  0  0  0  0  0  0  0  0  0  0
   -2.8466   -0.0900   -3.7753 H   0  0  0  0  0  0  0  0  0  0  0  0
   -4.5876    0.1600   -3.5580 H   0  0  0  0  0  0  0  0  0  0  0  0
   -0.9063    0.2705   -1.7366 N   0  0  0  0  0  0  0  0  0  0  0  0
    0.5475    0.5714   -1.7228 C   0  0  2  0  0  0  0  0  0  0  0  0
    1.2727   -0.6295   -1.0985 C   0  0  0  0  0  0  0  0  0  0  0  0
    2.1428   -1.2267   -1.7169 O   0  0  0  0  0  0  0  0  0  0  0  0
    1.0525    1.8958   -1.1273 C   0  0  0  0  0  0  0  0  0  0  0  0
    0.4888    3.3606   -2.0889 S   0  0  0  0  0  0  0  0  0  0  0  0
   -1.1530   -0.6580   -2.0950 H   0  0  0  0  0  0  0  0  0  0  0  0
    0.8607    0.5981   -2.7719 H   0  0  0  0  0  0  0  0  0  0  0  0
    0.7152    1.9833   -0.0947 H   0  0  0  0  0  0  0  0  0  0  0  0
    2.1474    1.8959   -1.1146 H   0  0  0  0  0  0  0  0  0  0  0  0
    0.7344   -1.1775    0.0512 N   0  0  0  0  0  0  0  0  0  0  0  0
    0.6817   -2.6378    0.1981 C   0  0  2  0  0  0  0  0  0  0  0  0
   -0.3969   -3.2690   -0.7190 C   0  0  0  0  0  0  0  0  0  0  0  0
   -1.2536   -2.5647   -1.2521 O   0  0  0  0  0  0  0  0  0  0  0  0
    0.3844   -2.9428    1.6678 C   0  0  0  0  0  0  0  0  0  0  0  0
   -0.1013   -0.6825    0.3542 H   0  0  0  0  0  0  0  0  0  0  0  0
    1.6526   -3.0751   -0.0593 H   0  0  0  0  0  0  0  0  0  0  0  0
   -0.5901   -2.5355    1.9560 H   0  0  0  0  0  0  0  0  0  0  0  0
    0.3737   -4.0232    1.8411 H   0  0  0  0  0  0  0  0  0  0  0  0
    1.1519   -2.4988    2.3096 H   0  0  0  0  0  0  0  0  0  0  0  0
   -0.4115   -4.6320   -0.9480 N   0  0  0  0  0  0  0  0  0  0  0  0
   -1.3767   -5.2874   -1.8233 C   0  0  0  0  0  0  0  0  0  0  0  0
    0.3400   -5.1854   -0.5461 H   0  0  0  0  0  0  0  0  0  0  0  0
   -2.3987   -5.0998   -1.4761 H   0  0  0  0  0  0  0  0  0  0  0  0
   -1.2781   -4.9166   -2.8492 H   0  0  0  0  0  0  0  0  0  0  0  0
   -1.2082   -6.3687   -1.8293 H   0  0  0  0  0  0  0  0  0  0  0  0
  1  2  2  0  0  0  0
  1  3  1  0  0  0  0
  1  7  1  0  0  0  0
  3  4  1  0  0  0  0
  3  5  1  0  0  0  0
  3  6  1  0  0  0  0
  7  8  1  0  0  0  0
  7 13  1  0  0  0  0
  8  9  1  0  0  0  0
  8 11  1  0  0  0  0
  8 14  1  0  0  0  0
  9 10  2  0  0  0  0
  9 17  1  0  0  0  0
 11 12  1  0  0  0  0
 11 15  1  0  0  0  0
 11 16  1  0  0  0  0
 12 44  1  0  0  0  0
 17 18  1  0  0  0  0
 17 19  1  0  0  0  0
 18 20  1  0  0  0  0
 18 21  1  0  0  0  0
 18 22  1  0  0  0  0
 23 24  2  0  0  0  0
 23 25  1  0  0  0  0
 23 29  1  0  0  0  0
 25 26  1  0  0  0  0
 25 27  1  0  0  0  0
 25 28  1  0  0  0  0
 29 30  1  0  0  0  0
 29 34  1  0  0  0  0
 30 31  1  0  0  0  0
 30 33  1  0  0  0  0
 30 35  1  0  0  0  0
 31 32  2  0  0  0  0
 31 39  1  0  0  0  0
 33 36  1  0  0  0  0
 33 37  1  0  0  0  0
 33 38  1  0  0  0  0
 39 40  1  0  0  0  0
 39 45  1  0  0  0  0
 40 41  1  0  0  0  0
 40 43  1  0  0  0  0
 40 46  1  0  0  0  0
 41 42  2  0  0  0  0
 41 49  1  0  0  0  0
 43 44  1  0  0  0  0
 43 47  1  0  0  0  0
 43 48  1  0  0  0  0
 49 50  1  0  0  0  0
 49 54  1  0  0  0  0
 50 51  1  0  0  0  0
 50 53  1  0  0  0  0
 50 55  1  0  0  0  0
 51 52  2  0  0  0  0
 51 59  1  0  0  0  0
 53 56  1  0  0  0  0
 53 57  1  0  0  0  0
 53 58  1  0  0  0  0
 59 60  1  0  0  0  0
 59 61  1  0  0  0  0
 60 62  1  0  0  0  0
 60 63  1  0  0  0  0
 60 64  1  0  0  0  0
M  END
$$$$

  -OEChem-05262216053D

 64 63  0     1  0  0  0  0  0999 V2000
   -0.3741    7.7722    1.8175 C   0  0  0  0  0  0  0  0  0  0  0  0
   -1.5038    7.9683    1.3964 O   0  0  0  0  0  0  0  0  0  0  0  0
    0.4736    8.9359    2.2941 C   0  0  0  0  0  0  0  0  0  0  0  0
    1.3953    8.9878    1.7095 H   0  0  0  0  0  0  0  0  0  0  0  0
   -0.0738    9.8746    2.1730 H   0  0  0  0  0  0  0  0  0  0  0  0
    0.7249    8.8077    3.3496 H   0  0  0  0  0  0  0  0  0  0  0  0
    0.1290    6.4908    1.8665 N   0  0  0  0  0  0  0  0  0  0  0  0
   -0.6422    5.2838    1.5348 C   0  0  2  0  0  0  0  0  0  0  0  0
   -0.1141    4.0389    2.2842 C   0  0  0  0  0  0  0  0  0  0  0  0
    0.7419    4.1698    3.1545 O   0  0  0  0  0  0  0  0  0  0  0  0
   -0.6475    5.0869    0.0131 C   0  0  0  0  0  0  0  0  0  0  0  0
    1.0261    4.7133   -0.6529 S   0  0  0  0  0  0  0  0  0  0  0  0
    1.0203    6.3509    2.3404 H   0  0  0  0  0  0  0  0  0  0  0  0
   -1.6771    5.4218    1.8647 H   0  0  0  0  0  0  0  0  0  0  0  0
   -1.3344    4.2807   -0.2455 H   0  0  0  0  0  0  0  0  0  0  0  0
   -1.0259    5.9924   -0.4711 H   0  0  0  0  0  0  0  0  0  0  0  0
   -0.6450    2.7812    2.0581 N   0  0  0  0  0  0  0  0  0  0  0  0
   -0.1728    1.5853    2.7440 C   0  0  0  0  0  0  0  0  0  0  0  0
   -1.2144    2.6596    1.2155 H   0  0  0  0  0  0  0  0  0  0  0  0
    0.8903    1.4197    2.5405 H   0  0  0  0  0  0  0  0  0  0  0  0
   -0.3137    1.6820    3.8256 H   0  0  0  0  0  0  0  0  0  0  0  0
   -0.7331    0.7104    2.4007 H   0  0  0  0  0  0  0  0  0  0  0  0
   -5.7082    1.0358   -0.7226 C   0  0  0  0  0  0  0  0  0  0  0  0
   -6.0786   -0.0934   -0.9991 O   0  0  0  0  0  0  0  0  0  0  0  0
   -6.6238    1.9696    0.0461 C   0  0  0  0  0  0  0  0  0  0  0  0
   -6.8732    2.8365   -0.5706 H   0  0  0  0  0  0  0  0  0  0  0  0
   -7.5480    1.4518    0.3177 H   0  0  0  0  0  0  0  0  0  0  0  0
   -6.1300    2.3102    0.9593 H   0  0  0  0  0  0  0  0  0  0  0  0
   -4.4542    1.4661   -1.1014 N   0  0  0  0  0  0  0  0  0  0  0  0
   -3.4362    0.6092   -1.7271 C   0  0  2  0  0  0  0  0  0  0  0  0
   -2.0058    0.9740   -1.2721 C   0  0  0  0  0  0  0  0  0  0  0  0
   -1.8429    1.8638   -0.4444 O   0  0  0  0  0  0  0  0  0  0  0  0
   -3.5720    0.7428   -3.2468 C   0  0  0  0  0  0  0  0  0  0  0  0
   -4.1416    2.3621   -0.7329 H   0  0  0  0  0  0  0  0  0  0  0  0
   -3.6053   -0.4367   -1.4463 H   0  0  0  0  0  0  0  0  0  0  0  0
   -3.3750    1.7728   -3.5608 H   0  0  0  0  0  0  0  0  0  0  0  0
   -2.8660    0.0804   -3.7569 H   0  0  0  0  0  0  0  0  0  0  0  0
   -4.5847    0.4701   -3.5613 H   0  0  0  0  0  0  0  0  0  0  0  0
   -0.9487    0.1648   -1.6467 N   0  0  0  0  0  0  0  0  0  0  0  0
    0.5172    0.4092   -1.6274 C   0  0  2  0  0  0  0  0  0  0  0  0
    1.2290   -0.8206   -1.0395 C   0  0  0  0  0  0  0  0  0  0  0  0
    2.2430   -1.2576   -1.5659 O   0  0  0  0  0  0  0  0  0  0  0  0
    1.0610    1.7154   -1.0244 C   0  0  0  0  0  0  0  0  0  0  0  0
    0.5417    3.1906   -1.9975 S   0  0  0  0  0  0  0  0  0  0  0  0
   -1.2359   -0.6970   -2.1241 H   0  0  0  0  0  0  0  0  0  0  0  0
    0.8232    0.4442   -2.6785 H   0  0  0  0  0  0  0  0  0  0  0  0
    0.7219    1.8136    0.0077 H   0  0  0  0  0  0  0  0  0  0  0  0
    2.1554    1.6832   -1.0070 H   0  0  0  0  0  0  0  0  0  0  0  0
    0.5535   -1.5837   -0.1043 N   0  0  0  0  0  0  0  0  0  0  0  0
    0.5422   -3.0458   -0.2432 C   0  0  2  0  0  0  0  0  0  0  0  0
   -0.4090   -3.4943   -1.3802 C   0  0  0  0  0  0  0  0  0  0  0  0
   -1.2470   -2.7150   -1.8338 O   0  0  0  0  0  0  0  0  0  0  0  0
    0.1011   -3.6409    1.0957 C   0  0  0  0  0  0  0  0  0  0  0  0
   -0.3430   -1.1715    0.1456 H   0  0  0  0  0  0  0  0  0  0  0  0
    1.5495   -3.4124   -0.4695 H   0  0  0  0  0  0  0  0  0  0  0  0
   -0.9132   -3.3142    1.3475 H   0  0  0  0  0  0  0  0  0  0  0  0
    0.1125   -4.7345    1.0516 H   0  0  0  0  0  0  0  0  0  0  0  0
    0.7793   -3.3212    1.8935 H   0  0  0  0  0  0  0  0  0  0  0  0
   -0.3218   -4.7699   -1.9045 N   0  0  0  0  0  0  0  0  0  0  0  0
   -1.1562   -5.2436   -3.0026 C   0  0  0  0  0  0  0  0  0  0  0  0
    0.4193   -5.3724   -1.5572 H   0  0  0  0  0  0  0  0  0  0  0  0
   -2.2157   -5.1924   -2.7300 H   0  0  0  0  0  0  0  0  0  0  0  0
   -0.9928   -4.6353   -3.8985 H   0  0  0  0  0  0  0  0  0  0  0  0
   -0.9125   -6.2835   -3.2411 H   0  0  0  0  0  0  0  0  0  0  0  0
  1  2  2  0  0  0  0
  1  3  1  0  0  0  0
  1  7  1  0  0  0  0
  3  4  1  0  0  0  0
  3  5  1  0  0  0  0
  3  6  1  0  0  0  0
  7  8  1  0  0  0  0
  7 13  1  0  0  0  0
  8  9  1  0  0  0  0
  8 11  1  0  0  0  0
  8 14  1  0  0  0  0
  9 10  2  0  0  0  0
  9 17  1  0  0  0  0
 11 12  1  0  0  0  0
 11 15  1  0  0  0  0
 11 16  1  0  0  0  0
 12 44  1  0  0  0  0
 17 18  1  0  0  0  0
 17 19  1  0  0  0  0
 18 20  1  0  0  0  0
 18 21  1  0  0  0  0
 18 22  1  0  0  0  0
 23 24  2  0  0  0  0
 23 25  1  0  0  0  0
 23 29  1  0  0  0  0
 25 26  1  0  0  0  0
 25 27  1  0  0  0  0
 25 28  1  0  0  0  0
 29 30  1  0  0  0  0
 29 34  1  0  0  0  0
 30 31  1  0  0  0  0
 30 33  1  0  0  0  0
 30 35  1  0  0  0  0
 31 32  2  0  0  0  0
 31 39  1  0  0  0  0
 33 36  1  0  0  0  0
 33 37  1  0  0  0  0
 33 38  1  0  0  0  0
 39 40  1  0  0  0  0
 39 45  1  0  0  0  0
 40 41  1  0  0  0  0
 40 43  1  0  0  0  0
 40 46  1  0  0  0  0
 41 42  2  0  0  0  0
 41 49  1  0  0  0  0
 43 44  1  0  0  0  0
 43 47  1  0  0  0  0
 43 48  1  0  0  0  0
 49 50  1  0  0  0  0
 49 54  1  0  0  0  0
 50 51  1  0  0  0  0
 50 53  1  0  0  0  0
 50 55  1  0  0  0  0
 51 52  2  0  0  0  0
 51 59  1  0  0  0  0
 53 56  1  0  0  0  0
 53 57  1  0  0  0  0
 53 58  1  0  0  0  0
 59 60  1  0  0  0  0
 59 61  1  0  0  0  0
 60 62  1  0  0  0  0
 60 63  1  0  0  0  0
 60 64  1  0  0  0  0
M  END
$$$$

  -OEChem-05262216053D

 64 63  0     1  0  0  0  0  0999 V2000
   -0.4154    7.7945    1.6385 C   0  0  0  0  0  0  0  0  0  0  0  0
   -1.5357    7.9556    1.1792 O   0  0  0  0  0  0  0  0  0  0  0  0
    0.4045    8.9909    2.0831 C   0  0  0  0  0  0  0  0  0  0  0  0
    1.3159    9.0607    1.4842 H   0  0  0  0  0  0  0  0  0  0  0  0
   -0.1723    9.9114    1.9571 H   0  0  0  0  0  0  0  0  0  0  0  0
    0.6754    8.8873    3.1365 H   0  0  0  0  0  0  0  0  0  0  0  0
    0.1007    6.5232    1.7635 N   0  0  0  0  0  0  0  0  0  0  0  0
   -0.6542    5.2915    1.4890 C   0  0  2  0  0  0  0  0  0  0  0  0
   -0.1306    4.0972    2.3194 C   0  0  0  0  0  0  0  0  0  0  0  0
    0.6864    4.2932    3.2145 O   0  0  0  0  0  0  0  0  0  0  0  0
   -0.6304    5.0021   -0.0174 C   0  0  0  0  0  0  0  0  0  0  0  0
    1.0558    4.5861   -0.6236 S   0  0  0  0  0  0  0  0  0  0  0  0
    0.9783    6.4187    2.2708 H   0  0  0  0  0  0  0  0  0  0  0  0
   -1.6958    5.4403    1.7914 H   0  0  0  0  0  0  0  0  0  0  0  0
   -1.3123    4.1801   -0.2380 H   0  0  0  0  0  0  0  0  0  0  0  0
   -0.9985    5.8756   -0.5647 H   0  0  0  0  0  0  0  0  0  0  0  0
   -0.6202    2.8160    2.1342 N   0  0  0  0  0  0  0  0  0  0  0  0
   -0.1523    1.6678    2.8999 C   0  0  0  0  0  0  0  0  0  0  0  0
   -1.1678    2.6388    1.2871 H   0  0  0  0  0  0  0  0  0  0  0  0
    0.9288    1.5401    2.7820 H   0  0  0  0  0  0  0  0  0  0  0  0
   -0.3783    1.7994    3.9633 H   0  0  0  0  0  0  0  0  0  0  0  0
   -0.6480    0.7567    2.5511 H   0  0  0  0  0  0  0  0  0  0  0  0
   -5.7147    1.0884   -0.8022 C   0  0  0  0  0  0  0  0  0  0  0  0
   -6.1146    0.0003   -1.1835 O   0  0  0  0  0  0  0  0  0  0  0  0
   -6.6300    1.9985   -0.0052 C   0  0  0  0  0  0  0  0  0  0  0  0
   -6.8354    2.9096   -0.5727 H   0  0  0  0  0  0  0  0  0  0  0  0
   -7.5771    1.4922    0.2025 H   0  0  0  0  0  0  0  0  0  0  0  0
   -6.1585    2.2663    0.9436 H   0  0  0  0  0  0  0  0  0  0  0  0
   -4.4284    1.4929   -1.0900 N   0  0  0  0  0  0  0  0  0  0  0  0
   -3.4178    0.6454   -1.7396 C   0  0  2  0  0  0  0  0  0  0  0  0
   -1.9965    0.9052   -1.1938 C   0  0  0  0  0  0  0  0  0  0  0  0
   -1.8261    1.7469   -0.3175 O   0  0  0  0  0  0  0  0  0  0  0  0
   -3.4703    0.9099   -3.2474 C   0  0  0  0  0  0  0  0  0  0  0  0
   -4.0992    2.3454   -0.6415 H   0  0  0  0  0  0  0  0  0  0  0  0
   -3.6442   -0.4111   -1.5555 H   0  0  0  0  0  0  0  0  0  0  0  0
   -3.2123    1.9517   -3.4630 H   0  0  0  0  0  0  0  0  0  0  0  0
   -2.7682    0.2594   -3.7783 H   0  0  0  0  0  0  0  0  0  0  0  0
   -4.4766    0.7130   -3.6310 H   0  0  0  0  0  0  0  0  0  0  0  0
   -0.9655    0.0616   -1.5681 N   0  0  0  0  0  0  0  0  0  0  0  0
    0.5070    0.2632   -1.5259 C   0  0  2  0  0  0  0  0  0  0  0  0
    1.2026   -0.9822   -0.9469 C   0  0  0  0  0  0  0  0  0  0  0  0
    2.3265   -1.2836   -1.3234 O   0  0  0  0  0  0  0  0  0  0  0  0
    1.0628    1.5626   -0.9196 C   0  0  0  0  0  0  0  0  0  0  0  0
    0.5804    3.0278   -1.9287 S   0  0  0  0  0  0  0  0  0  0  0  0
   -1.2693   -0.7302   -2.1468 H   0  0  0  0  0  0  0  0  0  0  0  0
    0.8238    0.2944   -2.5736 H   0  0  0  0  0  0  0  0  0  0  0  0
    0.7063    1.6745    0.1059 H   0  0  0  0  0  0  0  0  0  0  0  0
    2.1560    1.5143   -0.8812 H   0  0  0  0  0  0  0  0  0  0  0  0
    0.4328   -1.9171   -0.2795 N   0  0  0  0  0  0  0  0  0  0  0  0
    0.4957   -3.3260   -0.6890 C   0  0  2  0  0  0  0  0  0  0  0  0
   -0.3788   -3.5744   -1.9427 C   0  0  0  0  0  0  0  0  0  0  0  0
   -1.2060   -2.7335   -2.2954 O   0  0  0  0  0  0  0  0  0  0  0  0
    0.0154   -4.1758    0.4885 C   0  0  0  0  0  0  0  0  0  0  0  0
   -0.5098   -1.5730   -0.1078 H   0  0  0  0  0  0  0  0  0  0  0  0
    1.5266   -3.6124   -0.9245 H   0  0  0  0  0  0  0  0  0  0  0  0
   -1.0225   -3.9343    0.7403 H   0  0  0  0  0  0  0  0  0  0  0  0
    0.0754   -5.2404    0.2422 H   0  0  0  0  0  0  0  0  0  0  0  0
    0.6400   -3.9894    1.3680 H   0  0  0  0  0  0  0  0  0  0  0  0
   -0.2303   -4.7269   -2.6909 N   0  0  0  0  0  0  0  0  0  0  0  0
   -0.9881   -4.9940   -3.9084 C   0  0  0  0  0  0  0  0  0  0  0  0
    0.5051   -5.3739   -2.4198 H   0  0  0  0  0  0  0  0  0  0  0  0
   -2.0640   -4.9426   -3.7104 H   0  0  0  0  0  0  0  0  0  0  0  0
   -0.7373   -4.2630   -4.6843 H   0  0  0  0  0  0  0  0  0  0  0  0
   -0.7567   -5.9944   -4.2870 H   0  0  0  0  0  0  0  0  0  0  0  0
  1  2  2  0  0  0  0
  1  3  1  0  0  0  0
  1  7  1  0  0  0  0
  3  4  1  0  0  0  0
  3  5  1  0  0  0  0
  3  6  1  0  0  0  0
  7  8  1  0  0  0  0
  7 13  1  0  0  0  0
  8  9  1  0  0  0  0
  8 11  1  0  0  0  0
  8 14  1  0  0  0  0
  9 10  2  0  0  0  0
  9 17  1  0  0  0  0
 11 12  1  0  0  0  0
 11 15  1  0  0  0  0
 11 16  1  0  0  0  0
 12 44  1  0  0  0  0
 17 18  1  0  0  0  0
 17 19  1  0  0  0  0
 18 20  1  0  0  0  0
 18 21  1  0  0  0  0
 18 22  1  0  0  0  0
 23 24  2  0  0  0  0
 23 25  1  0  0  0  0
 23 29  1  0  0  0  0
 25 26  1  0  0  0  0
 25 27  1  0  0  0  0
 25 28  1  0  0  0  0
 29 30  1  0  0  0  0
 29 34  1  0  0  0  0
 30 31  1  0  0  0  0
 30 33  1  0  0  0  0
 30 35  1  0  0  0  0
 31 32  2  0  0  0  0
 31 39  1  0  0  0  0
 33 36  1  0  0  0  0
 33 37  1  0  0  0  0
 33 38  1  0  0  0  0
 39 40  1  0  0  0  0
 39 45  1  0  0  0  0
 40 41  1  0  0  0  0
 40 43  1  0  0  0  0
 40 46  1  0  0  0  0
 41 42  2  0  0  0  0
 41 49  1  0  0  0  0
 43 44  1  0  0  0  0
 43 47  1  0  0  0  0
 43 48  1  0  0  0  0
 49 50  1  0  0  0  0
 49 54  1  0  0  0  0
 50 51  1  0  0  0  0
 50 53  1  0  0  0  0
 50 55  1  0  0  0  0
 51 52  2  0  0  0  0
 51 59  1  0  0  0  0
 53 56  1  0  0  0  0
 53 57  1  0  0  0  0
 53 58  1  0  0  0  0
 59 60  1  0  0  0  0
 59 61  1  0  0  0  0
 60 62  1  0  0  0  0
 60 63  1  0  0  0  0
 60 64  1  0  0  0  0
M  END
$$$$

  -OEChem-05262216053D

 64 63  0     1  0  0  0  0  0999 V2000
    0.1220    7.8217    1.6829 C   0  0  0  0  0  0  0  0  0  0  0  0
   -0.7504    8.3058    0.9784 O   0  0  0  0  0  0  0  0  0  0  0  0
    1.0341    8.7236    2.4924 C   0  0  0  0  0  0  0  0  0  0  0  0
    2.0762    8.5411    2.2192 H   0  0  0  0  0  0  0  0  0  0  0  0
    0.7969    9.7728    2.2961 H   0  0  0  0  0  0  0  0  0  0  0  0
    0.9034    8.5250    3.5587 H   0  0  0  0  0  0  0  0  0  0  0  0
    0.2714    6.4542    1.7538 N   0  0  0  0  0  0  0  0  0  0  0  0
   -0.6233    5.4845    1.1047 C   0  0  2  0  0  0  0  0  0  0  0  0
   -0.6754    4.1456    1.8772 C   0  0  0  0  0  0  0  0  0  0  0  0
   -0.1387    4.0573    2.9781 O   0  0  0  0  0  0  0  0  0  0  0  0
   -0.2014    5.3082   -0.3611 C   0  0  0  0  0  0  0  0  0  0  0  0
    1.4920    4.6088   -0.5370 S   0  0  0  0  0  0  0  0  0  0  0  0
    0.9218    6.0856    2.4461 H   0  0  0  0  0  0  0  0  0  0  0  0
   -1.6445    5.8791    1.1162 H   0  0  0  0  0  0  0  0  0  0  0  0
   -0.9200    4.6674   -0.8735 H   0  0  0  0  0  0  0  0  0  0  0  0
   -0.2305    6.2804   -0.8631 H   0  0  0  0  0  0  0  0  0  0  0  0
   -1.4017    3.0662    1.4064 N   0  0  0  0  0  0  0  0  0  0  0  0
   -1.4498    1.7825    2.0967 C   0  0  0  0  0  0  0  0  0  0  0  0
   -1.6461    3.0795    0.4113 H   0  0  0  0  0  0  0  0  0  0  0  0
   -0.4392    1.4036    2.2819 H   0  0  0  0  0  0  0  0  0  0  0  0
   -1.9693    1.8827    3.0552 H   0  0  0  0  0  0  0  0  0  0  0  0
   -1.9844    1.0480    1.4868 H   0  0  0  0  0  0  0  0  0  0  0  0
   -4.0451   -0.2379   -0.3634 C   0  0  0  0  0  0  0  0  0  0  0  0
   -3.1349   -1.0502   -0.4555 O   0  0  0  0  0  0  0  0  0  0  0  0
   -4.9228   -0.2241    0.8733 C   0  0  0  0  0  0  0  0  0  0  0  0
   -5.9639   -0.4019    0.5936 H   0  0  0  0  0  0  0  0  0  0  0  0
   -4.6065   -1.0059    1.5694 H   0  0  0  0  0  0  0  0  0  0  0  0
   -4.8464    0.7437    1.3752 H   0  0  0  0  0  0  0  0  0  0  0  0
   -4.2319    0.7114   -1.3491 N   0  0  0  0  0  0  0  0  0  0  0  0
   -3.2908    0.9028   -2.4633 C   0  0  2  0  0  0  0  0  0  0  0  0
   -1.8950    1.3360   -1.9612 C   0  0  0  0  0  0  0  0  0  0  0  0
   -1.7864    2.3974   -1.3633 O   0  0  0  0  0  0  0  0  0  0  0  0
   -3.8830    1.9465   -3.4157 C   0  0  0  0  0  0  0  0  0  0  0  0
   -4.8848    1.4618   -1.1417 H   0  0  0  0  0  0  0  0  0  0  0  0
   -3.1830   -0.0402   -3.0111 H   0  0  0  0  0  0  0  0  0  0  0  0
   -4.0163    2.9062   -2.9056 H   0  0  0  0  0  0  0  0  0  0  0  0
   -3.2169    2.0998   -4.2706 H   0  0  0  0  0  0  0  0  0  0  0  0
   -4.8553    1.6128   -3.7908 H   0  0  0  0  0  0  0  0  0  0  0  0
   -0.9081    0.3700   -1.9297 N   0  0  0  0  0  0  0  0  0  0  0  0
    0.5112    0.3896   -1.5047 C   0  0  2  0  0  0  0  0  0  0  0  0
    0.7995   -0.8558   -0.6378 C   0  0  0  0  0  0  0  0  0  0  0  0
    1.9566   -1.2284   -0.4927 O   0  0  0  0  0  0  0  0  0  0  0  0
    1.0856    1.6536   -0.8389 C   0  0  0  0  0  0  0  0  0  0  0  0
    1.1378    3.1151   -1.9563 S   0  0  0  0  0  0  0  0  0  0  0  0
   -1.1944   -0.5121   -2.3700 H   0  0  0  0  0  0  0  0  0  0  0  0
    1.0993    0.2537   -2.4180 H   0  0  0  0  0  0  0  0  0  0  0  0
    0.4893    1.8926    0.0412 H   0  0  0  0  0  0  0  0  0  0  0  0
    2.1059    1.4548   -0.4951 H   0  0  0  0  0  0  0  0  0  0  0  0
   -0.2211   -1.7570   -0.3826 N   0  0  0  0  0  0  0  0  0  0  0  0
   -0.0902   -3.1587   -0.7898 C   0  0  2  0  0  0  0  0  0  0  0  0
   -0.4563   -3.3388   -2.2830 C   0  0  0  0  0  0  0  0  0  0  0  0
   -0.9846   -2.4240   -2.9156 O   0  0  0  0  0  0  0  0  0  0  0  0
   -1.0209   -3.9848    0.0999 C   0  0  0  0  0  0  0  0  0  0  0  0
   -1.1576   -1.3647   -0.5241 H   0  0  0  0  0  0  0  0  0  0  0  0
    0.9376   -3.5069   -0.6393 H   0  0  0  0  0  0  0  0  0  0  0  0
   -2.0621   -3.6799   -0.0476 H   0  0  0  0  0  0  0  0  0  0  0  0
   -0.9333   -5.0493   -0.1365 H   0  0  0  0  0  0  0  0  0  0  0  0
   -0.7634   -3.8409    1.1539 H   0  0  0  0  0  0  0  0  0  0  0  0
   -0.1717   -4.5269   -2.9305 N   0  0  0  0  0  0  0  0  0  0  0  0
   -0.4523   -4.7592   -4.3421 C   0  0  0  0  0  0  0  0  0  0  0  0
    0.3072   -5.2490   -2.3998 H   0  0  0  0  0  0  0  0  0  0  0  0
   -1.5249   -4.6620   -4.5404 H   0  0  0  0  0  0  0  0  0  0  0  0
    0.0888   -4.0390   -4.9648 H   0  0  0  0  0  0  0  0  0  0  0  0
   -0.1388   -5.7675   -4.6293 H   0  0  0  0  0  0  0  0  0  0  0  0
  1  2  2  0  0  0  0
  1  3  1  0  0  0  0
  1  7  1  0  0  0  0
  3  4  1  0  0  0  0
  3  5  1  0  0  0  0
  3  6  1  0  0  0  0
  7  8  1  0  0  0  0
  7 13  1  0  0  0  0
  8  9  1  0  0  0  0
  8 11  1  0  0  0  0
  8 14  1  0  0  0  0
  9 10  2  0  0  0  0
  9 17  1  0  0  0  0
 11 12  1  0  0  0  0
 11 15  1  0  0  0  0
 11 16  1  0  0  0  0
 12 44  1  0  0  0  0
 17 18  1  0  0  0  0
 17 19  1  0  0  0  0
 18 20  1  0  0  0  0
 18 21  1  0  0  0  0
 18 22  1  0  0  0  0
 23 24  2  0  0  0  0
 23 25  1  0  0  0  0
 23 29  1  0  0  0  0
 25 26  1  0  0  0  0
 25 27  1  0  0  0  0
 25 28  1  0  0  0  0
 29 30  1  0  0  0  0
 29 34  1  0  0  0  0
 30 31  1  0  0  0  0
 30 33  1  0  0  0  0
 30 35  1  0  0  0  0
 31 32  2  0  0  0  0
 31 39  1  0  0  0  0
 33 36  1  0  0  0  0
 33 37  1  0  0  0  0
 33 38  1  0  0  0  0
 39 40  1  0  0  0  0
 39 45  1  0  0  0  0
 40 41  1  0  0  0  0
 40 43  1  0  0  0  0
 40 46  1  0  0  0  0
 41 42  2  0  0  0  0
 41 49  1  0  0  0  0
 43 44  1  0  0  0  0
 43 47  1  0  0  0  0
 43 48  1  0  0  0  0
 49 50  1  0  0  0  0
 49 54  1  0  0  0  0
 50 51  1  0  0  0  0
 50 53  1  0  0  0  0
 50 55  1  0  0  0  0
 51 52  2  0  0  0  0
 51 59  1  0  0  0  0
 53 56  1  0  0  0  0
 53 57  1  0  0  0  0
 53 58  1  0  0  0  0
 59 60  1  0  0  0  0
 59 61  1  0  0  0  0
 60 62  1  0  0  0  0
 60 63  1  0  0  0  0
 60 64  1  0  0  0  0
M  END
$$$$

  -OEChem-05262216053D

 64 63  0     1  0  0  0  0  0999 V2000
   -0.9726    7.4478    1.6977 C   0  0  0  0  0  0  0  0  0  0  0  0
   -2.1425    7.2228    1.4267 O   0  0  0  0  0  0  0  0  0  0  0  0
   -0.4503    8.8718    1.6924 C   0  0  0  0  0  0  0  0  0  0  0  0
    0.3958    8.9569    1.0061 H   0  0  0  0  0  0  0  0  0  0  0  0
   -1.2361    9.5598    1.3680 H   0  0  0  0  0  0  0  0  0  0  0  0
   -0.1253    9.1535    2.6969 H   0  0  0  0  0  0  0  0  0  0  0  0
   -0.1274    6.4070    2.0141 N   0  0  0  0  0  0  0  0  0  0  0  0
   -0.5384    4.9994    2.1103 C   0  0  2  0  0  0  0  0  0  0  0  0
    0.4283    4.1659    2.9812 C   0  0  0  0  0  0  0  0  0  0  0  0
    1.3359    4.7196    3.5942 O   0  0  0  0  0  0  0  0  0  0  0  0
   -0.6605    4.4013    0.7029 C   0  0  0  0  0  0  0  0  0  0  0  0
    0.9576    4.3571   -0.1696 S   0  0  0  0  0  0  0  0  0  0  0  0
    0.8169    6.6345    2.3225 H   0  0  0  0  0  0  0  0  0  0  0  0
   -1.5188    4.9488    2.5952 H   0  0  0  0  0  0  0  0  0  0  0  0
   -1.0542    3.3870    0.7814 H   0  0  0  0  0  0  0  0  0  0  0  0
   -1.3737    4.9825    0.1106 H   0  0  0  0  0  0  0  0  0  0  0  0
    0.2604    2.7981    3.1141 N   0  0  0  0  0  0  0  0  0  0  0  0
    1.1721    1.9512    3.8733 C   0  0  0  0  0  0  0  0  0  0  0  0
   -0.4465    2.3555    2.5319 H   0  0  0  0  0  0  0  0  0  0  0  0
    2.1790    1.9907    3.4446 H   0  0  0  0  0  0  0  0  0  0  0  0
    1.2198    2.2778    4.9174 H   0  0  0  0  0  0  0  0  0  0  0  0
    0.8275    0.9130    3.8533 H   0  0  0  0  0  0  0  0  0  0  0  0
   -5.5654    1.1605   -1.3163 C   0  0  0  0  0  0  0  0  0  0  0  0
   -5.6306    0.0282   -1.7683 O   0  0  0  0  0  0  0  0  0  0  0  0
   -6.5542    1.6160   -0.2597 C   0  0  0  0  0  0  0  0  0  0  0  0
   -7.0759    2.5141   -0.5992 H   0  0  0  0  0  0  0  0  0  0  0  0
   -7.2917    0.8309   -0.0697 H   0  0  0  0  0  0  0  0  0  0  0  0
   -6.0280    1.8389    0.6719 H   0  0  0  0  0  0  0  0  0  0  0  0
   -4.5808    2.0247   -1.7484 N   0  0  0  0  0  0  0  0  0  0  0  0
   -3.4320    1.5821   -2.5515 C   0  0  2  0  0  0  0  0  0  0  0  0
   -2.2202    1.1728   -1.6861 C   0  0  0  0  0  0  0  0  0  0  0  0
   -2.1290    1.5754   -0.5324 O   0  0  0  0  0  0  0  0  0  0  0  0
   -3.0429    2.7378   -3.4760 C   0  0  0  0  0  0  0  0  0  0  0  0
   -4.4517    2.8595   -1.1826 H   0  0  0  0  0  0  0  0  0  0  0  0
   -3.7137    0.7241   -3.1714 H   0  0  0  0  0  0  0  0  0  0  0  0
   -2.7476    3.6146   -2.8897 H   0  0  0  0  0  0  0  0  0  0  0  0
   -2.2029    2.4517   -4.1167 H   0  0  0  0  0  0  0  0  0  0  0  0
   -3.8870    3.0127   -4.1161 H   0  0  0  0  0  0  0  0  0  0  0  0
   -1.2675    0.3062   -2.1997 N   0  0  0  0  0  0  0  0  0  0  0  0
    0.2059    0.3681   -1.9883 C   0  0  2  0  0  0  0  0  0  0  0  0
    0.7912   -1.0231   -1.6554 C   0  0  0  0  0  0  0  0  0  0  0  0
    1.9611   -1.1495   -1.3188 O   0  0  0  0  0  0  0  0  0  0  0  0
    0.7480    1.4731   -1.0554 C   0  0  0  0  0  0  0  0  0  0  0  0
    0.4313    3.1396   -1.7775 S   0  0  0  0  0  0  0  0  0  0  0  0
   -1.5393   -0.0557   -3.1113 H   0  0  0  0  0  0  0  0  0  0  0  0
    0.6334    0.6064   -2.9669 H   0  0  0  0  0  0  0  0  0  0  0  0
    0.2990    1.3865   -0.0624 H   0  0  0  0  0  0  0  0  0  0  0  0
    1.8296    1.3619   -0.9288 H   0  0  0  0  0  0  0  0  0  0  0  0
    0.0390   -2.1589   -1.8853 N   0  0  0  0  0  0  0  0  0  0  0  0
    0.5783   -3.5175   -2.0166 C   0  0  2  0  0  0  0  0  0  0  0  0
   -0.0293   -4.2344   -3.2419 C   0  0  0  0  0  0  0  0  0  0  0  0
   -0.9293   -3.6990   -3.8821 O   0  0  0  0  0  0  0  0  0  0  0  0
    0.2700   -4.2766   -0.7238 C   0  0  0  0  0  0  0  0  0  0  0  0
   -0.8961   -2.0083   -2.2598 H   0  0  0  0  0  0  0  0  0  0  0  0
    1.6630   -3.4856   -2.1643 H   0  0  0  0  0  0  0  0  0  0  0  0
   -0.8112   -4.3348   -0.5617 H   0  0  0  0  0  0  0  0  0  0  0  0
    0.6718   -5.2932   -0.7684 H   0  0  0  0  0  0  0  0  0  0  0  0
    0.7237   -3.7645    0.1308 H   0  0  0  0  0  0  0  0  0  0  0  0
    0.4427   -5.4714   -3.6407 N   0  0  0  0  0  0  0  0  0  0  0  0
   -0.0920   -6.2017   -4.7838 C   0  0  0  0  0  0  0  0  0  0  0  0
    1.1870   -5.8921   -3.0918 H   0  0  0  0  0  0  0  0  0  0  0  0
   -1.1527   -6.4285   -4.6329 H   0  0  0  0  0  0  0  0  0  0  0  0
    0.0150   -5.6112   -5.6997 H   0  0  0  0  0  0  0  0  0  0  0  0
    0.4472   -7.1446   -4.9159 H   0  0  0  0  0  0  0  0  0  0  0  0
  1  2  2  0  0  0  0
  1  3  1  0  0  0  0
  1  7  1  0  0  0  0
  3  4  1  0  0  0  0
  3  5  1  0  0  0  0
  3  6  1  0  0  0  0
  7  8  1  0  0  0  0
  7 13  1  0  0  0  0
  8  9  1  0  0  0  0
  8 11  1  0  0  0  0
  8 14  1  0  0  0  0
  9 10  2  0  0  0  0
  9 17  1  0  0  0  0
 11 12  1  0  0  0  0
 11 15  1  0  0  0  0
 11 16  1  0  0  0  0
 12 44  1  0  0  0  0
 17 18  1  0  0  0  0
 17 19  1  0  0  0  0
 18 20  1  0  0  0  0
 18 21  1  0  0  0  0
 18 22  1  0  0  0  0
 23 24  2  0  0  0  0
 23 25  1  0  0  0  0
 23 29  1  0  0  0  0
 25 26  1  0  0  0  0
 25 27  1  0  0  0  0
 25 28  1  0  0  0  0
 29 30  1  0  0  0  0
 29 34  1  0  0  0  0
 30 31  1  0  0  0  0
 30 33  1  0  0  0  0
 30 35  1  0  0  0  0
 31 32  2  0  0  0  0
 31 39  1  0  0  0  0
 33 36  1  0  0  0  0
 33 37  1  0  0  0  0
 33 38  1  0  0  0  0
 39 40  1  0  0  0  0
 39 45  1  0  0  0  0
 40 41  1  0  0  0  0
 40 43  1  0  0  0  0
 40 46  1  0  0  0  0
 41 42  2  0  0  0  0
 41 49  1  0  0  0  0
 43 44  1  0  0  0  0
 43 47  1  0  0  0  0
 43 48  1  0  0  0  0
 49 50  1  0  0  0  0
 49 54  1  0  0  0  0
 50 51  1  0  0  0  0
 50 53  1  0  0  0  0
 50 55  1  0  0  0  0
 51 52  2  0  0  0  0
 51 59  1  0  0  0  0
 53 56  1  0  0  0  0
 53 57  1  0  0  0  0
 53 58  1  0  0  0  0
 59 60  1  0  0  0  0
 59 61  1  0  0  0  0
 60 62  1  0  0  0  0
 60 63  1  0  0  0  0
 60 64  1  0  0  0  0
M  END
$$$$

  -OEChem-05262216053D

 64 63  0     1  0  0  0  0  0999 V2000
   -0.9947    7.4079    1.7178 C   0  0  0  0  0  0  0  0  0  0  0  0
   -2.1601    7.1721    1.4365 O   0  0  0  0  0  0  0  0  0  0  0  0
   -0.4801    8.8347    1.7015 C   0  0  0  0  0  0  0  0  0  0  0  0
    0.3528    8.9212    0.9992 H   0  0  0  0  0  0  0  0  0  0  0  0
   -1.2755    9.5179    1.3912 H   0  0  0  0  0  0  0  0  0  0  0  0
   -0.1379    9.1203    2.6994 H   0  0  0  0  0  0  0  0  0  0  0  0
   -0.1452    6.3763    2.0510 N   0  0  0  0  0  0  0  0  0  0  0  0
   -0.5421    4.9650    2.1462 C   0  0  2  0  0  0  0  0  0  0  0  0
    0.4271    4.1491    3.0301 C   0  0  0  0  0  0  0  0  0  0  0  0
    1.3273    4.7165    3.6416 O   0  0  0  0  0  0  0  0  0  0  0  0
   -0.6392    4.3594    0.7402 C   0  0  0  0  0  0  0  0  0  0  0  0
    0.9861    4.3461   -0.1197 S   0  0  0  0  0  0  0  0  0  0  0  0
    0.7942    6.6133    2.3678 H   0  0  0  0  0  0  0  0  0  0  0  0
   -1.5276    4.9036    2.6194 H   0  0  0  0  0  0  0  0  0  0  0  0
   -1.0119    3.3370    0.8186 H   0  0  0  0  0  0  0  0  0  0  0  0
   -1.3598    4.9235    0.1403 H   0  0  0  0  0  0  0  0  0  0  0  0
    0.2763    2.7801    3.1692 N   0  0  0  0  0  0  0  0  0  0  0  0
    1.2117    1.9477    3.9159 C   0  0  0  0  0  0  0  0  0  0  0  0
   -0.4199    2.3258    2.5833 H   0  0  0  0  0  0  0  0  0  0  0  0
    2.2052    1.9823    3.4570 H   0  0  0  0  0  0  0  0  0  0  0  0
    1.2907    2.2918    4.9526 H   0  0  0  0  0  0  0  0  0  0  0  0
    0.8699    0.9082    3.9242 H   0  0  0  0  0  0  0  0  0  0  0  0
   -5.5818    1.1376   -1.3711 C   0  0  0  0  0  0  0  0  0  0  0  0
   -5.6814    0.0335   -1.8831 O   0  0  0  0  0  0  0  0  0  0  0  0
   -6.5677    1.5725   -0.3038 C   0  0  0  0  0  0  0  0  0  0  0  0
   -7.0924    2.4745   -0.6277 H   0  0  0  0  0  0  0  0  0  0  0  0
   -7.3018    0.7824   -0.1240 H   0  0  0  0  0  0  0  0  0  0  0  0
   -6.0391    1.7814    0.6294 H   0  0  0  0  0  0  0  0  0  0  0  0
   -4.5669    1.9916   -1.7501 N   0  0  0  0  0  0  0  0  0  0  0  0
   -3.4281    1.5627   -2.5754 C   0  0  2  0  0  0  0  0  0  0  0  0
   -2.1907    1.1865   -1.7313 C   0  0  0  0  0  0  0  0  0  0  0  0
   -2.0984    1.5889   -0.5782 O   0  0  0  0  0  0  0  0  0  0  0  0
   -3.0885    2.7145   -3.5240 C   0  0  0  0  0  0  0  0  0  0  0  0
   -4.4141    2.7889   -1.1369 H   0  0  0  0  0  0  0  0  0  0  0  0
   -3.7042    0.6911   -3.1782 H   0  0  0  0  0  0  0  0  0  0  0  0
   -2.7898    3.6031   -2.9580 H   0  0  0  0  0  0  0  0  0  0  0  0
   -2.2660    2.4343   -4.1890 H   0  0  0  0  0  0  0  0  0  0  0  0
   -3.9579    2.9682   -4.1388 H   0  0  0  0  0  0  0  0  0  0  0  0
   -1.2262    0.3426   -2.2617 N   0  0  0  0  0  0  0  0  0  0  0  0
    0.2443    0.4002   -2.0321 C   0  0  2  0  0  0  0  0  0  0  0  0
    0.8281   -1.0026   -1.7412 C   0  0  0  0  0  0  0  0  0  0  0  0
    1.8740   -1.1461   -1.1212 O   0  0  0  0  0  0  0  0  0  0  0  0
    0.7791    1.4851   -1.0712 C   0  0  0  0  0  0  0  0  0  0  0  0
    0.4736    3.1676   -1.7603 S   0  0  0  0  0  0  0  0  0  0  0  0
   -1.4931   -0.0073   -3.1779 H   0  0  0  0  0  0  0  0  0  0  0  0
    0.6803    0.6662   -2.9996 H   0  0  0  0  0  0  0  0  0  0  0  0
    0.3220    1.3777   -0.0840 H   0  0  0  0  0  0  0  0  0  0  0  0
    1.8597    1.3703   -0.9380 H   0  0  0  0  0  0  0  0  0  0  0  0
    0.2328   -2.1209   -2.2930 N   0  0  0  0  0  0  0  0  0  0  0  0
    0.8379   -3.4556   -2.3637 C   0  0  2  0  0  0  0  0  0  0  0  0
    0.4843   -4.1459   -3.6991 C   0  0  0  0  0  0  0  0  0  0  0  0
   -0.3360   -3.6318   -4.4540 O   0  0  0  0  0  0  0  0  0  0  0  0
    0.3326   -4.2690   -1.1687 C   0  0  0  0  0  0  0  0  0  0  0  0
   -0.5851   -1.9683   -2.8789 H   0  0  0  0  0  0  0  0  0  0  0  0
    1.9293   -3.3783   -2.3137 H   0  0  0  0  0  0  0  0  0  0  0  0
   -0.7561   -4.3754   -1.2109 H   0  0  0  0  0  0  0  0  0  0  0  0
    0.7814   -5.2666   -1.1625 H   0  0  0  0  0  0  0  0  0  0  0  0
    0.5968   -3.7671   -0.2323 H   0  0  0  0  0  0  0  0  0  0  0  0
    1.0970   -5.3287   -4.0700 N   0  0  0  0  0  0  0  0  0  0  0  0
    0.8043   -6.0221   -5.3192 C   0  0  0  0  0  0  0  0  0  0  0  0
    1.7801   -5.7284   -3.4329 H   0  0  0  0  0  0  0  0  0  0  0  0
   -0.2581   -6.2836   -5.3718 H   0  0  0  0  0  0  0  0  0  0  0  0
    1.0542   -5.3890   -6.1772 H   0  0  0  0  0  0  0  0  0  0  0  0
    1.3902   -6.9437   -5.3878 H   0  0  0  0  0  0  0  0  0  0  0  0
  1  2  2  0  0  0  0
  1  3  1  0  0  0  0
  1  7  1  0  0  0  0
  3  4  1  0  0  0  0
  3  5  1  0  0  0  0
  3  6  1  0  0  0  0
  7  8  1  0  0  0  0
  7 13  1  0  0  0  0
  8  9  1  0  0  0  0
  8 11  1  0  0  0  0
  8 14  1  0  0  0  0
  9 10  2  0  0  0  0
  9 17  1  0  0  0  0
 11 12  1  0  0  0  0
 11 15  1  0  0  0  0
 11 16  1  0  0  0  0
 12 44  1  0  0  0  0
 17 18  1  0  0  0  0
 17 19  1  0  0  0  0
 18 20  1  0  0  0  0
 18 21  1  0  0  0  0
 18 22  1  0  0  0  0
 23 24  2  0  0  0  0
 23 25  1  0  0  0  0
 23 29  1  0  0  0  0
 25 26  1  0  0  0  0
 25 27  1  0  0  0  0
 25 28  1  0  0  0  0
 29 30  1  0  0  0  0
 29 34  1  0  0  0  0
 30 31  1  0  0  0  0
 30 33  1  0  0  0  0
 30 35  1  0  0  0  0
 31 32  2  0  0  0  0
 31 39  1  0  0  0  0
 33 36  1  0  0  0  0
 33 37  1  0  0  0  0
 33 38  1  0  0  0  0
 39 40  1  0  0  0  0
 39 45  1  0  0  0  0
 40 41  1  0  0  0  0
 40 43  1  0  0  0  0
 40 46  1  0  0  0  0
 41 42  2  0  0  0  0
 41 49  1  0  0  0  0
 43 44  1  0  0  0  0
 43 47  1  0  0  0  0
 43 48  1  0  0  0  0
 49 50  1  0  0  0  0
 49 54  1  0  0  0  0
 50 51  1  0  0  0  0
 50 53  1  0  0  0  0
 50 55  1  0  0  0  0
 51 52  2  0  0  0  0
 51 59  1  0  0  0  0
 53 56  1  0  0  0  0
 53 57  1  0  0  0  0
 53 58  1  0  0  0  0
 59 60  1  0  0  0  0
 59 61  1  0  0  0  0
 60 62  1  0  0  0  0
 60 63  1  0  0  0  0
 60 64  1  0  0  0  0
M  END
$$$$

  -OEChem-05262216053D

 64 63  0     1  0  0  0  0  0999 V2000
    0.3956    7.9287    2.2139 C   0  0  0  0  0  0  0  0  0  0  0  0
   -0.6825    8.3591    1.8339 O   0  0  0  0  0  0  0  0  0  0  0  0
    1.4166    8.8698    2.8247 C   0  0  0  0  0  0  0  0  0  0  0  0
    2.3178    8.8912    2.2072 H   0  0  0  0  0  0  0  0  0  0  0  0
    1.0068    9.8819    2.8861 H   0  0  0  0  0  0  0  0  0  0  0  0
    1.6794    8.5339    3.8307 H   0  0  0  0  0  0  0  0  0  0  0  0
    0.6833    6.5867    2.0966 N   0  0  0  0  0  0  0  0  0  0  0  0
   -0.2716    5.5678    1.6354 C   0  0  2  0  0  0  0  0  0  0  0  0
    0.0396    4.1776    2.2372 C   0  0  0  0  0  0  0  0  0  0  0  0
    0.8886    4.0749    3.1190 O   0  0  0  0  0  0  0  0  0  0  0  0
   -0.2899    5.5471    0.1013 C   0  0  0  0  0  0  0  0  0  0  0  0
    1.3258    5.0297   -0.6111 S   0  0  0  0  0  0  0  0  0  0  0  0
    1.5388    6.2467    2.5339 H   0  0  0  0  0  0  0  0  0  0  0  0
   -1.2742    5.8333    1.9862 H   0  0  0  0  0  0  0  0  0  0  0  0
   -1.0756    4.8742   -0.2429 H   0  0  0  0  0  0  0  0  0  0  0  0
   -0.5392    6.5443   -0.2739 H   0  0  0  0  0  0  0  0  0  0  0  0
   -0.6750    3.0523    1.8654 N   0  0  0  0  0  0  0  0  0  0  0  0
   -0.3683    1.7198    2.3710 C   0  0  0  0  0  0  0  0  0  0  0  0
   -1.2359    3.1186    1.0105 H   0  0  0  0  0  0  0  0  0  0  0  0
    0.6677    1.4493    2.1412 H   0  0  0  0  0  0  0  0  0  0  0  0
   -0.5119    1.6785    3.4557 H   0  0  0  0  0  0  0  0  0  0  0  0
   -1.0283    0.9815    1.9055 H   0  0  0  0  0  0  0  0  0  0  0  0
   -3.9268   -0.6805   -2.7139 C   0  0  0  0  0  0  0  0  0  0  0  0
   -3.0450   -0.6505   -3.5601 O   0  0  0  0  0  0  0  0  0  0  0  0
   -4.5801   -1.9975   -2.3412 C   0  0  0  0  0  0  0  0  0  0  0  0
   -5.6674   -1.9100   -2.4065 H   0  0  0  0  0  0  0  0  0  0  0  0
   -4.2498   -2.7872   -3.0229 H   0  0  0  0  0  0  0  0  0  0  0  0
   -4.3035   -2.2750   -1.3209 H   0  0  0  0  0  0  0  0  0  0  0  0
   -4.2484    0.4775   -2.0324 N   0  0  0  0  0  0  0  0  0  0  0  0
   -3.6247    1.7906   -2.2786 C   0  0  2  0  0  0  0  0  0  0  0  0
   -2.1929    1.8902   -1.6935 C   0  0  0  0  0  0  0  0  0  0  0  0
   -1.9552    2.6122   -0.7336 O   0  0  0  0  0  0  0  0  0  0  0  0
   -4.5714    2.8625   -1.7218 C   0  0  0  0  0  0  0  0  0  0  0  0
   -4.9270    0.3994   -1.2795 H   0  0  0  0  0  0  0  0  0  0  0  0
   -3.5397    1.9545   -3.3586 H   0  0  0  0  0  0  0  0  0  0  0  0
   -4.7011    2.7423   -0.6413 H   0  0  0  0  0  0  0  0  0  0  0  0
   -4.1654    3.8616   -1.9114 H   0  0  0  0  0  0  0  0  0  0  0  0
   -5.5524    2.7934   -2.2018 H   0  0  0  0  0  0  0  0  0  0  0  0
   -1.2563    0.9867   -2.1602 N   0  0  0  0  0  0  0  0  0  0  0  0
    0.2213    0.9749   -2.0684 C   0  0  2  0  0  0  0  0  0  0  0  0
    0.6973   -0.4375   -1.6594 C   0  0  0  0  0  0  0  0  0  0  0  0
    1.5423   -0.6020   -0.7880 O   0  0  0  0  0  0  0  0  0  0  0  0
    0.9128    2.1135   -1.2928 C   0  0  0  0  0  0  0  0  0  0  0  0
    0.6639    3.7428   -2.1168 S   0  0  0  0  0  0  0  0  0  0  0  0
   -1.6570    0.3669   -2.8702 H   0  0  0  0  0  0  0  0  0  0  0  0
    0.5834    1.0969   -3.0936 H   0  0  0  0  0  0  0  0  0  0  0  0
    0.5336    2.1435   -0.2718 H   0  0  0  0  0  0  0  0  0  0  0  0
    1.9890    1.9236   -1.2313 H   0  0  0  0  0  0  0  0  0  0  0  0
    0.1532   -1.5551   -2.2713 N   0  0  0  0  0  0  0  0  0  0  0  0
    0.5754   -2.9388   -2.0169 C   0  0  2  0  0  0  0  0  0  0  0  0
    0.4906   -3.8087   -3.2881 C   0  0  0  0  0  0  0  0  0  0  0  0
   -0.2069   -3.4548   -4.2313 O   0  0  0  0  0  0  0  0  0  0  0  0
   -0.3194   -3.5140   -0.9155 C   0  0  0  0  0  0  0  0  0  0  0  0
   -0.4928   -1.4075   -3.0484 H   0  0  0  0  0  0  0  0  0  0  0  0
    1.6177   -2.9542   -1.6814 H   0  0  0  0  0  0  0  0  0  0  0  0
   -1.3647   -3.5266   -1.2406 H   0  0  0  0  0  0  0  0  0  0  0  0
   -0.0181   -4.5368   -0.6697 H   0  0  0  0  0  0  0  0  0  0  0  0
   -0.2428   -2.9051   -0.0091 H   0  0  0  0  0  0  0  0  0  0  0  0
    1.1960   -4.9952   -3.3744 N   0  0  0  0  0  0  0  0  0  0  0  0
    1.1831   -5.8491   -4.5564 C   0  0  0  0  0  0  0  0  0  0  0  0
    1.7913   -5.2482   -2.5911 H   0  0  0  0  0  0  0  0  0  0  0  0
    0.1680   -6.2059   -4.7600 H   0  0  0  0  0  0  0  0  0  0  0  0
    1.5458   -5.2990   -5.4312 H   0  0  0  0  0  0  0  0  0  0  0  0
    1.8301   -6.7181   -4.4028 H   0  0  0  0  0  0  0  0  0  0  0  0
  1  2  2  0  0  0  0
  1  3  1  0  0  0  0
  1  7  1  0  0  0  0
  3  4  1  0  0  0  0
  3  5  1  0  0  0  0
  3  6  1  0  0  0  0
  7  8  1  0  0  0  0
  7 13  1  0  0  0  0
  8  9  1  0  0  0  0
  8 11  1  0  0  0  0
  8 14  1  0  0  0  0
  9 10  2  0  0  0  0
  9 17  1  0  0  0  0
 11 12  1  0  0  0  0
 11 15  1  0  0  0  0
 11 16  1  0  0  0  0
 12 44  1  0  0  0  0
 17 18  1  0  0  0  0
 17 19  1  0  0  0  0
 18 20  1  0  0  0  0
 18 21  1  0  0  0  0
 18 22  1  0  0  0  0
 23 24  2  0  0  0  0
 23 25  1  0  0  0  0
 23 29  1  0  0  0  0
 25 26  1  0  0  0  0
 25 27  1  0  0  0  0
 25 28  1  0  0  0  0
 29 30  1  0  0  0  0
 29 34  1  0  0  0  0
 30 31  1  0  0  0  0
 30 33  1  0  0  0  0
 30 35  1  0  0  0  0
 31 32  2  0  0  0  0
 31 39  1  0  0  0  0
 33 36  1  0  0  0  0
 33 37  1  0  0  0  0
 33 38  1  0  0  0  0
 39 40  1  0  0  0  0
 39 45  1  0  0  0  0
 40 41  1  0  0  0  0
 40 43  1  0  0  0  0
 40 46  1  0  0  0  0
 41 42  2  0  0  0  0
 41 49  1  0  0  0  0
 43 44  1  0  0  0  0
 43 47  1  0  0  0  0
 43 48  1  0  0  0  0
 49 50  1  0  0  0  0
 49 54  1  0  0  0  0
 50 51  1  0  0  0  0
 50 53  1  0  0  0  0
 50 55  1  0  0  0  0
 51 52  2  0  0  0  0
 51 59  1  0  0  0  0
 53 56  1  0  0  0  0
 53 57  1  0  0  0  0
 53 58  1  0  0  0  0
 59 60  1  0  0  0  0
 59 61  1  0  0  0  0
 60 62  1  0  0  0  0
 60 63  1  0  0  0  0
 60 64  1  0  0  0  0
M  END
$$$$

  -OEChem-05262216053D

 64 63  0     1  0  0  0  0  0999 V2000
    0.3485    7.9439    2.2423 C   0  0  0  0  0  0  0  0  0  0  0  0
   -0.7108    8.3869    1.8262 O   0  0  0  0  0  0  0  0  0  0  0  0
    1.3500    8.8678    2.9086 C   0  0  0  0  0  0  0  0  0  0  0  0
    2.2963    8.8455    2.3627 H   0  0  0  0  0  0  0  0  0  0  0  0
    0.9701    9.8933    2.9152 H   0  0  0  0  0  0  0  0  0  0  0  0
    1.5233    8.5491    3.9392 H   0  0  0  0  0  0  0  0  0  0  0  0
    0.6329    6.6022    2.1166 N   0  0  0  0  0  0  0  0  0  0  0  0
   -0.3106    5.5956    1.6073 C   0  0  2  0  0  0  0  0  0  0  0  0
   -0.0316    4.1967    2.2038 C   0  0  0  0  0  0  0  0  0  0  0  0
    0.7870    4.0785    3.1118 O   0  0  0  0  0  0  0  0  0  0  0  0
   -0.2727    5.5923    0.0731 C   0  0  0  0  0  0  0  0  0  0  0  0
    1.3586    5.0643   -0.5945 S   0  0  0  0  0  0  0  0  0  0  0  0
    1.4639    6.2505    2.5899 H   0  0  0  0  0  0  0  0  0  0  0  0
   -1.3245    5.8640    1.9219 H   0  0  0  0  0  0  0  0  0  0  0  0
   -1.0541    4.9330   -0.3059 H   0  0  0  0  0  0  0  0  0  0  0  0
   -0.4972    6.5966   -0.2991 H   0  0  0  0  0  0  0  0  0  0  0  0
   -0.7419    3.0816    1.7958 N   0  0  0  0  0  0  0  0  0  0  0  0
   -0.4561    1.7399    2.2900 C   0  0  0  0  0  0  0  0  0  0  0  0
   -1.2710    3.1627    0.9223 H   0  0  0  0  0  0  0  0  0  0  0  0
    0.5898    1.4730    2.1036 H   0  0  0  0  0  0  0  0  0  0  0  0
   -0.6489    1.6793    3.3659 H   0  0  0  0  0  0  0  0  0  0  0  0
   -1.0929    1.0096    1.7812 H   0  0  0  0  0  0  0  0  0  0  0  0
   -3.8498   -0.7508   -2.6152 C   0  0  0  0  0  0  0  0  0  0  0  0
   -2.9794   -0.7696   -3.4737 O   0  0  0  0  0  0  0  0  0  0  0  0
   -4.4911   -2.0437   -2.1491 C   0  0  0  0  0  0  0  0  0  0  0  0
   -5.5786   -1.9708   -2.2244 H   0  0  0  0  0  0  0  0  0  0  0  0
   -4.1516   -2.8781   -2.7696 H   0  0  0  0  0  0  0  0  0  0  0  0
   -4.2180   -2.2429   -1.1098 H   0  0  0  0  0  0  0  0  0  0  0  0
   -4.1848    0.4471   -2.0150 N   0  0  0  0  0  0  0  0  0  0  0  0
   -3.5839    1.7474   -2.3600 C   0  0  2  0  0  0  0  0  0  0  0  0
   -2.1572    1.9136   -1.7790 C   0  0  0  0  0  0  0  0  0  0  0  0
   -1.9431    2.6856   -0.8533 O   0  0  0  0  0  0  0  0  0  0  0  0
   -4.5546    2.8386   -1.8918 C   0  0  0  0  0  0  0  0  0  0  0  0
   -4.8472    0.4116   -1.2446 H   0  0  0  0  0  0  0  0  0  0  0  0
   -3.4964    1.8299   -3.4489 H   0  0  0  0  0  0  0  0  0  0  0  0
   -4.6892    2.7981   -0.8059 H   0  0  0  0  0  0  0  0  0  0  0  0
   -4.1678    3.8281   -2.1561 H   0  0  0  0  0  0  0  0  0  0  0  0
   -5.5302    2.7109   -2.3712 H   0  0  0  0  0  0  0  0  0  0  0  0
   -1.1984    1.0116   -2.2013 N   0  0  0  0  0  0  0  0  0  0  0  0
    0.2762    1.0156   -2.0746 C   0  0  2  0  0  0  0  0  0  0  0  0
    0.7412   -0.3842   -1.6241 C   0  0  0  0  0  0  0  0  0  0  0  0
    1.3322   -0.5556   -0.5648 O   0  0  0  0  0  0  0  0  0  0  0  0
    0.9521    2.1595   -1.2949 C   0  0  0  0  0  0  0  0  0  0  0  0
    0.7252    3.7893   -2.1231 S   0  0  0  0  0  0  0  0  0  0  0  0
   -1.5837    0.3277   -2.8598 H   0  0  0  0  0  0  0  0  0  0  0  0
    0.6630    1.1268   -3.0921 H   0  0  0  0  0  0  0  0  0  0  0  0
    0.5490    2.1956   -0.2831 H   0  0  0  0  0  0  0  0  0  0  0  0
    2.0258    1.9638   -1.2079 H   0  0  0  0  0  0  0  0  0  0  0  0
    0.4601   -1.4825   -2.4172 N   0  0  0  0  0  0  0  0  0  0  0  0
    0.8941   -2.8563   -2.1355 C   0  0  2  0  0  0  0  0  0  0  0  0
    1.2483   -3.6189   -3.4292 C   0  0  0  0  0  0  0  0  0  0  0  0
    0.8829   -3.1902   -4.5179 O   0  0  0  0  0  0  0  0  0  0  0  0
   -0.2380   -3.5642   -1.3856 C   0  0  0  0  0  0  0  0  0  0  0  0
    0.0347   -1.3151   -3.3297 H   0  0  0  0  0  0  0  0  0  0  0  0
    1.7923   -2.8445   -1.5090 H   0  0  0  0  0  0  0  0  0  0  0  0
   -1.1425   -3.5969   -2.0021 H   0  0  0  0  0  0  0  0  0  0  0  0
    0.0505   -4.5892   -1.1336 H   0  0  0  0  0  0  0  0  0  0  0  0
   -0.4677   -3.0320   -0.4570 H   0  0  0  0  0  0  0  0  0  0  0  0
    1.9849   -4.7879   -3.3739 N   0  0  0  0  0  0  0  0  0  0  0  0
    2.3924   -5.5312   -4.5602 C   0  0  0  0  0  0  0  0  0  0  0  0
    2.3114   -5.0976   -2.4631 H   0  0  0  0  0  0  0  0  0  0  0  0
    1.5167   -5.8258   -5.1483 H   0  0  0  0  0  0  0  0  0  0  0  0
    3.0488   -4.9196   -5.1883 H   0  0  0  0  0  0  0  0  0  0  0  0
    2.9344   -6.4371   -4.2720 H   0  0  0  0  0  0  0  0  0  0  0  0
  1  2  2  0  0  0  0
  1  3  1  0  0  0  0
  1  7  1  0  0  0  0
  3  4  1  0  0  0  0
  3  5  1  0  0  0  0
  3  6  1  0  0  0  0
  7  8  1  0  0  0  0
  7 13  1  0  0  0  0
  8  9  1  0  0  0  0
  8 11  1  0  0  0  0
  8 14  1  0  0  0  0
  9 10  2  0  0  0  0
  9 17  1  0  0  0  0
 11 12  1  0  0  0  0
 11 15  1  0  0  0  0
 11 16  1  0  0  0  0
 12 44  1  0  0  0  0
 17 18  1  0  0  0  0
 17 19  1  0  0  0  0
 18 20  1  0  0  0  0
 18 21  1  0  0  0  0
 18 22  1  0  0  0  0
 23 24  2  0  0  0  0
 23 25  1  0  0  0  0
 23 29  1  0  0  0  0
 25 26  1  0  0  0  0
 25 27  1  0  0  0  0
 25 28  1  0  0  0  0
 29 30  1  0  0  0  0
 29 34  1  0  0  0  0
 30 31  1  0  0  0  0
 30 33  1  0  0  0  0
 30 35  1  0  0  0  0
 31 32  2  0  0  0  0
 31 39  1  0  0  0  0
 33 36  1  0  0  0  0
 33 37  1  0  0  0  0
 33 38  1  0  0  0  0
 39 40  1  0  0  0  0
 39 45  1  0  0  0  0
 40 41  1  0  0  0  0
 40 43  1  0  0  0  0
 40 46  1  0  0  0  0
 41 42  2  0  0  0  0
 41 49  1  0  0  0  0
 43 44  1  0  0  0  0
 43 47  1  0  0  0  0
 43 48  1  0  0  0  0
 49 50  1  0  0  0  0
 49 54  1  0  0  0  0
 50 51  1  0  0  0  0
 50 53  1  0  0  0  0
 50 55  1  0  0  0  0
 51 52  2  0  0  0  0
 51 59  1  0  0  0  0
 53 56  1  0  0  0  0
 53 57  1  0  0  0  0
 53 58  1  0  0  0  0
 59 60  1  0  0  0  0
 59 61  1  0  0  0  0
 60 62  1  0  0  0  0
 60 63  1  0  0  0  0
 60 64  1  0  0  0  0
M  END
$$$$

  -OEChem-05262216053D

 64 63  0     1  0  0  0  0  0999 V2000
    0.2961    7.8929    2.2058 C   0  0  0  0  0  0  0  0  0  0  0  0
   -0.7916    8.3210    1.8516 O   0  0  0  0  0  0  0  0  0  0  0  0
    1.3133    8.8258    2.8347 C   0  0  0  0  0  0  0  0  0  0  0  0
    2.2340    8.8231    2.2465 H   0  0  0  0  0  0  0  0  0  0  0  0
    0.9194    9.8452    2.8687 H   0  0  0  0  0  0  0  0  0  0  0  0
    1.5382    8.5001    3.8531 H   0  0  0  0  0  0  0  0  0  0  0  0
    0.5988    6.5592    2.0456 N   0  0  0  0  0  0  0  0  0  0  0  0
   -0.3459    5.5407    1.5642 C   0  0  2  0  0  0  0  0  0  0  0  0
   -0.0082    4.1403    2.1279 C   0  0  0  0  0  0  0  0  0  0  0  0
    0.8856    4.0240    2.9625 O   0  0  0  0  0  0  0  0  0  0  0  0
   -0.3778    5.5657    0.0294 C   0  0  0  0  0  0  0  0  0  0  0  0
    1.2407    5.1129   -0.7216 S   0  0  0  0  0  0  0  0  0  0  0  0
    1.4619    6.2171    2.4657 H   0  0  0  0  0  0  0  0  0  0  0  0
   -1.3492    5.7823    1.9299 H   0  0  0  0  0  0  0  0  0  0  0  0
   -1.1524    4.8870   -0.3281 H   0  0  0  0  0  0  0  0  0  0  0  0
   -0.6534    6.5685   -0.3105 H   0  0  0  0  0  0  0  0  0  0  0  0
   -0.7487    3.0234    1.7833 N   0  0  0  0  0  0  0  0  0  0  0  0
   -0.4092    1.6817    2.2449 C   0  0  0  0  0  0  0  0  0  0  0  0
   -1.3331    3.0983    0.9453 H   0  0  0  0  0  0  0  0  0  0  0  0
    0.6196    1.4259    1.9695 H   0  0  0  0  0  0  0  0  0  0  0  0
   -0.5098    1.6128    3.3326 H   0  0  0  0  0  0  0  0  0  0  0  0
   -1.0788    0.9466    1.7880 H   0  0  0  0  0  0  0  0  0  0  0  0
   -3.9904   -0.6665   -2.7790 C   0  0  0  0  0  0  0  0  0  0  0  0
   -3.0491   -0.7304   -3.5566 O   0  0  0  0  0  0  0  0  0  0  0  0
   -4.7842   -1.9108   -2.4300 C   0  0  0  0  0  0  0  0  0  0  0  0
   -5.8374   -1.7658   -2.6829 H   0  0  0  0  0  0  0  0  0  0  0  0
   -4.4036   -2.7699   -2.9898 H   0  0  0  0  0  0  0  0  0  0  0  0
   -4.6990   -2.1214   -1.3612 H   0  0  0  0  0  0  0  0  0  0  0  0
   -4.2872    0.5391   -2.1765 N   0  0  0  0  0  0  0  0  0  0  0  0
   -3.5791    1.7997   -2.4541 C   0  0  2  0  0  0  0  0  0  0  0  0
   -2.1896    1.8703   -1.7724 C   0  0  0  0  0  0  0  0  0  0  0  0
   -1.9950    2.6287   -0.8312 O   0  0  0  0  0  0  0  0  0  0  0  0
   -4.5067    2.9487   -2.0373 C   0  0  0  0  0  0  0  0  0  0  0  0
   -5.0259    0.5427   -1.4782 H   0  0  0  0  0  0  0  0  0  0  0  0
   -3.4086    1.8904   -3.5326 H   0  0  0  0  0  0  0  0  0  0  0  0
   -4.7276    2.8996   -0.9662 H   0  0  0  0  0  0  0  0  0  0  0  0
   -4.0335    3.9133   -2.2481 H   0  0  0  0  0  0  0  0  0  0  0  0
   -5.4487    2.8997   -2.5920 H   0  0  0  0  0  0  0  0  0  0  0  0
   -1.2323    0.9470   -2.1538 N   0  0  0  0  0  0  0  0  0  0  0  0
    0.2445    1.0018   -2.0488 C   0  0  2  0  0  0  0  0  0  0  0  0
    0.7746   -0.3414   -1.5080 C   0  0  0  0  0  0  0  0  0  0  0  0
    1.1848   -0.4496   -0.3584 O   0  0  0  0  0  0  0  0  0  0  0  0
    0.8930    2.2002   -1.3303 C   0  0  0  0  0  0  0  0  0  0  0  0
    0.6111    3.7908   -2.2131 S   0  0  0  0  0  0  0  0  0  0  0  0
   -1.6030    0.2687   -2.8271 H   0  0  0  0  0  0  0  0  0  0  0  0
    0.6170    1.0707   -3.0750 H   0  0  0  0  0  0  0  0  0  0  0  0
    0.5071    2.2656   -0.3146 H   0  0  0  0  0  0  0  0  0  0  0  0
    1.9731    2.0398   -1.2524 H   0  0  0  0  0  0  0  0  0  0  0  0
    0.8126   -1.4498   -2.3330 N   0  0  0  0  0  0  0  0  0  0  0  0
    1.4322   -2.7322   -1.9768 C   0  0  2  0  0  0  0  0  0  0  0  0
    2.0269   -3.4351   -3.2146 C   0  0  0  0  0  0  0  0  0  0  0  0
    1.7142   -3.0659   -4.3412 O   0  0  0  0  0  0  0  0  0  0  0  0
    0.3712   -3.6117   -1.3097 C   0  0  0  0  0  0  0  0  0  0  0  0
    0.5465   -1.3266   -3.3102 H   0  0  0  0  0  0  0  0  0  0  0  0
    2.2550   -2.5635   -1.2742 H   0  0  0  0  0  0  0  0  0  0  0  0
   -0.4593   -3.7968   -1.9984 H   0  0  0  0  0  0  0  0  0  0  0  0
    0.8005   -4.5731   -1.0127 H   0  0  0  0  0  0  0  0  0  0  0  0
   -0.0209   -3.1182   -0.4147 H   0  0  0  0  0  0  0  0  0  0  0  0
    2.9302   -4.4713   -3.0663 N   0  0  0  0  0  0  0  0  0  0  0  0
    3.5542   -5.1550   -4.1924 C   0  0  0  0  0  0  0  0  0  0  0  0
    3.1986   -4.7319   -2.1218 H   0  0  0  0  0  0  0  0  0  0  0  0
    2.7946   -5.6418   -4.8126 H   0  0  0  0  0  0  0  0  0  0  0  0
    4.1124   -4.4446   -4.8111 H   0  0  0  0  0  0  0  0  0  0  0  0
    4.2488   -5.9200   -3.8330 H   0  0  0  0  0  0  0  0  0  0  0  0
  1  2  2  0  0  0  0
  1  3  1  0  0  0  0
  1  7  1  0  0  0  0
  3  4  1  0  0  0  0
  3  5  1  0  0  0  0
  3  6  1  0  0  0  0
  7  8  1  0  0  0  0
  7 13  1  0  0  0  0
  8  9  1  0  0  0  0
  8 11  1  0  0  0  0
  8 14  1  0  0  0  0
  9 10  2  0  0  0  0
  9 17  1  0  0  0  0
 11 12  1  0  0  0  0
 11 15  1  0  0  0  0
 11 16  1  0  0  0  0
 12 44  1  0  0  0  0
 17 18  1  0  0  0  0
 17 19  1  0  0  0  0
 18 20  1  0  0  0  0
 18 21  1  0  0  0  0
 18 22  1  0  0  0  0
 23 24  2  0  0  0  0
 23 25  1  0  0  0  0
 23 29  1  0  0  0  0
 25 26  1  0  0  0  0
 25 27  1  0  0  0  0
 25 28  1  0  0  0  0
 29 30  1  0  0  0  0
 29 34  1  0  0  0  0
 30 31  1  0  0  0  0
 30 33  1  0  0  0  0
 30 35  1  0  0  0  0
 31 32  2  0  0  0  0
 31 39  1  0  0  0  0
 33 36  1  0  0  0  0
 33 37  1  0  0  0  0
 33 38  1  0  0  0  0
 39 40  1  0  0  0  0
 39 45  1  0  0  0  0
 40 41  1  0  0  0  0
 40 43  1  0  0  0  0
 40 46  1  0  0  0  0
 41 42  2  0  0  0  0
 41 49  1  0  0  0  0
 43 44  1  0  0  0  0
 43 47  1  0  0  0  0
 43 48  1  0  0  0  0
 49 50  1  0  0  0  0
 49 54  1  0  0  0  0
 50 51  1  0  0  0  0
 50 53  1  0  0  0  0
 50 55  1  0  0  0  0
 51 52  2  0  0  0  0
 51 59  1  0  0  0  0
 53 56  1  0  0  0  0
 53 57  1  0  0  0  0
 53 58  1  0  0  0  0
 59 60  1  0  0  0  0
 59 61  1  0  0  0  0
 60 62  1  0  0  0  0
 60 63  1  0  0  0  0
 60 64  1  0  0  0  0
M  END
$$$$

  -OEChem-05262216053D

 64 63  0     1  0  0  0  0  0999 V2000
   -0.4626    7.4578    2.3155 C   0  0  0  0  0  0  0  0  0  0  0  0
   -1.6374    7.6422    2.0369 O   0  0  0  0  0  0  0  0  0  0  0  0
    0.3606    8.5773    2.9244 C   0  0  0  0  0  0  0  0  0  0  0  0
    1.1844    8.8405    2.2562 H   0  0  0  0  0  0  0  0  0  0  0  0
   -0.2636    9.4616    3.0815 H   0  0  0  0  0  0  0  0  0  0  0  0
    0.7691    8.2598    3.8870 H   0  0  0  0  0  0  0  0  0  0  0  0
    0.1135    6.2270    2.0922 N   0  0  0  0  0  0  0  0  0  0  0  0
   -0.6254    5.0320    1.6599 C   0  0  2  0  0  0  0  0  0  0  0  0
    0.0314    3.7337    2.1849 C   0  0  0  0  0  0  0  0  0  0  0  0
    0.9940    3.8080    2.9442 O   0  0  0  0  0  0  0  0  0  0  0  0
   -0.7586    5.0458    0.1309 C   0  0  0  0  0  0  0  0  0  0  0  0
    0.8625    4.8788   -0.7241 S   0  0  0  0  0  0  0  0  0  0  0  0
    1.0513    6.0731    2.4603 H   0  0  0  0  0  0  0  0  0  0  0  0
   -1.6318    5.0593    2.0903 H   0  0  0  0  0  0  0  0  0  0  0  0
   -1.4210    4.2384   -0.1807 H   0  0  0  0  0  0  0  0  0  0  0  0
   -1.2291    5.9821   -0.1847 H   0  0  0  0  0  0  0  0  0  0  0  0
   -0.4906    2.4873    1.8862 N   0  0  0  0  0  0  0  0  0  0  0  0
    0.1429    1.2439    2.3128 C   0  0  0  0  0  0  0  0  0  0  0  0
   -1.1503    2.4359    1.1049 H   0  0  0  0  0  0  0  0  0  0  0  0
    1.1819    1.2012    1.9694 H   0  0  0  0  0  0  0  0  0  0  0  0
    0.1282    1.1598    3.4042 H   0  0  0  0  0  0  0  0  0  0  0  0
   -0.3914    0.3865    1.8920 H   0  0  0  0  0  0  0  0  0  0  0  0
   -5.7935    1.0704   -1.3382 C   0  0  0  0  0  0  0  0  0  0  0  0
   -6.1354    0.1885   -2.1100 O   0  0  0  0  0  0  0  0  0  0  0  0
   -6.7781    1.6189   -0.3224 C   0  0  0  0  0  0  0  0  0  0  0  0
   -6.8753    2.7009   -0.4424 H   0  0  0  0  0  0  0  0  0  0  0  0
   -7.7609    1.1598   -0.4639 H   0  0  0  0  0  0  0  0  0  0  0  0
   -6.4299    1.4007    0.6902 H   0  0  0  0  0  0  0  0  0  0  0  0
   -4.5065    1.5635   -1.3868 N   0  0  0  0  0  0  0  0  0  0  0  0
   -3.4482    1.0310   -2.2556 C   0  0  2  0  0  0  0  0  0  0  0  0
   -2.0453    1.1714   -1.6283 C   0  0  0  0  0  0  0  0  0  0  0  0
   -1.8987    1.8682   -0.6299 O   0  0  0  0  0  0  0  0  0  0  0  0
   -3.5050    1.7755   -3.5936 C   0  0  0  0  0  0  0  0  0  0  0  0
   -4.2267    2.2228   -0.6624 H   0  0  0  0  0  0  0  0  0  0  0  0
   -3.6211   -0.0366   -2.4295 H   0  0  0  0  0  0  0  0  0  0  0  0
   -3.3388    2.8473   -3.4432 H   0  0  0  0  0  0  0  0  0  0  0  0
   -2.7402    1.3986   -4.2795 H   0  0  0  0  0  0  0  0  0  0  0  0
   -4.4849    1.6372   -4.0621 H   0  0  0  0  0  0  0  0  0  0  0  0
   -1.0069    0.3972   -2.1206 N   0  0  0  0  0  0  0  0  0  0  0  0
    0.4496    0.6836   -2.1074 C   0  0  2  0  0  0  0  0  0  0  0  0
    1.2360   -0.5645   -1.6595 C   0  0  0  0  0  0  0  0  0  0  0  0
    1.5106   -0.7458   -0.4803 O   0  0  0  0  0  0  0  0  0  0  0  0
    0.9530    1.9484   -1.3886 C   0  0  0  0  0  0  0  0  0  0  0  0
    0.3598    3.4899   -2.2024 S   0  0  0  0  0  0  0  0  0  0  0  0
   -1.3075   -0.2539   -2.8410 H   0  0  0  0  0  0  0  0  0  0  0  0
    0.7297    0.8469   -3.1522 H   0  0  0  0  0  0  0  0  0  0  0  0
    0.6353    1.9277   -0.3474 H   0  0  0  0  0  0  0  0  0  0  0  0
    2.0473    1.9594   -1.3873 H   0  0  0  0  0  0  0  0  0  0  0  0
    1.6694   -1.4835   -2.5966 N   0  0  0  0  0  0  0  0  0  0  0  0
    2.5362   -2.6322   -2.3039 C   0  0  2  0  0  0  0  0  0  0  0  0
    3.3105   -3.0711   -3.5649 C   0  0  0  0  0  0  0  0  0  0  0  0
    3.0015   -2.6114   -4.6598 O   0  0  0  0  0  0  0  0  0  0  0  0
    1.6720   -3.7832   -1.7766 C   0  0  0  0  0  0  0  0  0  0  0  0
    1.5391   -1.2604   -3.5835 H   0  0  0  0  0  0  0  0  0  0  0  0
    3.2735   -2.3527   -1.5433 H   0  0  0  0  0  0  0  0  0  0  0  0
    0.9307   -4.0800   -2.5255 H   0  0  0  0  0  0  0  0  0  0  0  0
    2.2931   -4.6514   -1.5374 H   0  0  0  0  0  0  0  0  0  0  0  0
    1.1449   -3.4786   -0.8670 H   0  0  0  0  0  0  0  0  0  0  0  0
    4.3600   -3.9666   -3.4746 N   0  0  0  0  0  0  0  0  0  0  0  0
    5.1254   -4.4217   -4.6295 C   0  0  0  0  0  0  0  0  0  0  0  0
    4.5979   -4.3255   -2.5541 H   0  0  0  0  0  0  0  0  0  0  0  0
    4.4762   -4.9519   -5.3345 H   0  0  0  0  0  0  0  0  0  0  0  0
    5.5859   -3.5722   -5.1452 H   0  0  0  0  0  0  0  0  0  0  0  0
    5.9201   -5.1036   -4.3113 H   0  0  0  0  0  0  0  0  0  0  0  0
  1  2  2  0  0  0  0
  1  3  1  0  0  0  0
  1  7  1  0  0  0  0
  3  4  1  0  0  0  0
  3  5  1  0  0  0  0
  3  6  1  0  0  0  0
  7  8  1  0  0  0  0
  7 13  1  0  0  0  0
  8  9  1  0  0  0  0
  8 11  1  0  0  0  0
  8 14  1  0  0  0  0
  9 10  2  0  0  0  0
  9 17  1  0  0  0  0
 11 12  1  0  0  0  0
 11 15  1  0  0  0  0
 11 16  1  0  0  0  0
 12 44  1  0  0  0  0
 17 18  1  0  0  0  0
 17 19  1  0  0  0  0
 18 20  1  0  0  0  0
 18 21  1  0  0  0  0
 18 22  1  0  0  0  0
 23 24  2  0  0  0  0
 23 25  1  0  0  0  0
 23 29  1  0  0  0  0
 25 26  1  0  0  0  0
 25 27  1  0  0  0  0
 25 28  1  0  0  0  0
 29 30  1  0  0  0  0
 29 34  1  0  0  0  0
 30 31  1  0  0  0  0
 30 33  1  0  0  0  0
 30 35  1  0  0  0  0
 31 32  2  0  0  0  0
 31 39  1  0  0  0  0
 33 36  1  0  0  0  0
 33 37  1  0  0  0  0
 33 38  1  0  0  0  0
 39 40  1  0  0  0  0
 39 45  1  0  0  0  0
 40 41  1  0  0  0  0
 40 43  1  0  0  0  0
 40 46  1  0  0  0  0
 41 42  2  0  0  0  0
 41 49  1  0  0  0  0
 43 44  1  0  0  0  0
 43 47  1  0  0  0  0
 43 48  1  0  0  0  0
 49 50  1  0  0  0  0
 49 54  1  0  0  0  0
 50 51  1  0  0  0  0
 50 53  1  0  0  0  0
 50 55  1  0  0  0  0
 51 52  2  0  0  0  0
 51 59  1  0  0  0  0
 53 56  1  0  0  0  0
 53 57  1  0  0  0  0
 53 58  1  0  0  0  0
 59 60  1  0  0  0  0
 59 61  1  0  0  0  0
 60 62  1  0  0  0  0
 60 63  1  0  0  0  0
 60 64  1  0  0  0  0
M  END
$$$$

  -OEChem-05262216053D

 64 63  0     1  0  0  0  0  0999 V2000
   -0.3494    7.4587    2.2600 C   0  0  0  0  0  0  0  0  0  0  0  0
   -1.5107    7.6881    1.9591 O   0  0  0  0  0  0  0  0  0  0  0  0
    0.5129    8.5531    2.8599 C   0  0  0  0  0  0  0  0  0  0  0  0
    1.3636    8.7571    2.2052 H   0  0  0  0  0  0  0  0  0  0  0  0
   -0.0702    9.4708    2.9776 H   0  0  0  0  0  0  0  0  0  0  0  0
    0.8818    8.2417    3.8403 H   0  0  0  0  0  0  0  0  0  0  0  0
    0.1757    6.1992    2.0712 N   0  0  0  0  0  0  0  0  0  0  0  0
   -0.6055    5.0295    1.6437 C   0  0  2  0  0  0  0  0  0  0  0  0
   -0.0055    3.7111    2.1860 C   0  0  0  0  0  0  0  0  0  0  0  0
    0.9430    3.7541    2.9652 O   0  0  0  0  0  0  0  0  0  0  0  0
   -0.7265    5.0339    0.1132 C   0  0  0  0  0  0  0  0  0  0  0  0
    0.8939    4.8096   -0.7301 S   0  0  0  0  0  0  0  0  0  0  0  0
    1.1015    6.0128    2.4541 H   0  0  0  0  0  0  0  0  0  0  0  0
   -1.6133    5.1012    2.0657 H   0  0  0  0  0  0  0  0  0  0  0  0
   -1.4126    4.2457   -0.1970 H   0  0  0  0  0  0  0  0  0  0  0  0
   -1.1640    5.9825   -0.2137 H   0  0  0  0  0  0  0  0  0  0  0  0
   -0.5667    2.4834    1.8816 N   0  0  0  0  0  0  0  0  0  0  0  0
    0.0081    1.2195    2.3295 C   0  0  0  0  0  0  0  0  0  0  0  0
   -1.2065    2.4522    1.0827 H   0  0  0  0  0  0  0  0  0  0  0  0
    1.0368    1.1143    1.9689 H   0  0  0  0  0  0  0  0  0  0  0  0
    0.0095    1.1640    3.4229 H   0  0  0  0  0  0  0  0  0  0  0  0
   -0.5795    0.3815    1.9414 H   0  0  0  0  0  0  0  0  0  0  0  0
   -5.8373    1.1722   -1.2679 C   0  0  0  0  0  0  0  0  0  0  0  0
   -6.2259    0.2138   -1.9166 O   0  0  0  0  0  0  0  0  0  0  0  0
   -6.7867    1.9007   -0.3360 C   0  0  0  0  0  0  0  0  0  0  0  0
   -6.8486    2.9547   -0.6173 H   0  0  0  0  0  0  0  0  0  0  0  0
   -7.7861    1.4612   -0.3976 H   0  0  0  0  0  0  0  0  0  0  0  0
   -6.4307    1.8256    0.6944 H   0  0  0  0  0  0  0  0  0  0  0  0
   -4.5289    1.5920   -1.3799 N   0  0  0  0  0  0  0  0  0  0  0  0
   -3.4988    0.8966   -2.1631 C   0  0  2  0  0  0  0  0  0  0  0  0
   -2.0825    1.1061   -1.5845 C   0  0  0  0  0  0  0  0  0  0  0  0
   -1.9274    1.8804   -0.6467 O   0  0  0  0  0  0  0  0  0  0  0  0
   -3.5624    1.4109   -3.6058 C   0  0  0  0  0  0  0  0  0  0  0  0
   -4.2120    2.3176   -0.7386 H   0  0  0  0  0  0  0  0  0  0  0  0
   -3.6986   -0.1805   -2.1530 H   0  0  0  0  0  0  0  0  0  0  0  0
   -3.3561    2.4857   -3.6373 H   0  0  0  0  0  0  0  0  0  0  0  0
   -2.8286    0.8969   -4.2337 H   0  0  0  0  0  0  0  0  0  0  0  0
   -4.5569    1.2355   -4.0283 H   0  0  0  0  0  0  0  0  0  0  0  0
   -1.0388    0.3234   -2.0530 N   0  0  0  0  0  0  0  0  0  0  0  0
    0.4199    0.6028   -2.0474 C   0  0  2  0  0  0  0  0  0  0  0  0
    1.2129   -0.6295   -1.5700 C   0  0  0  0  0  0  0  0  0  0  0  0
    1.2600   -0.9212   -0.3821 O   0  0  0  0  0  0  0  0  0  0  0  0
    0.9382    1.8755   -1.3549 C   0  0  0  0  0  0  0  0  0  0  0  0
    0.3613    3.4118   -2.1895 S   0  0  0  0  0  0  0  0  0  0  0  0
   -1.3382   -0.3873   -2.7150 H   0  0  0  0  0  0  0  0  0  0  0  0
    0.6941    0.7439   -3.0969 H   0  0  0  0  0  0  0  0  0  0  0  0
    0.6189    1.8756   -0.3137 H   0  0  0  0  0  0  0  0  0  0  0  0
    2.0327    1.8757   -1.3535 H   0  0  0  0  0  0  0  0  0  0  0  0
    1.9105   -1.4022   -2.4793 N   0  0  0  0  0  0  0  0  0  0  0  0
    2.8321   -2.4878   -2.1206 C   0  0  2  0  0  0  0  0  0  0  0  0
    3.9032   -2.6782   -3.2157 C   0  0  0  0  0  0  0  0  0  0  0  0
    3.7664   -2.1245   -4.3020 O   0  0  0  0  0  0  0  0  0  0  0  0
    2.0261   -3.7764   -1.9253 C   0  0  0  0  0  0  0  0  0  0  0  0
    1.9628   -1.0738   -3.4441 H   0  0  0  0  0  0  0  0  0  0  0  0
    3.3508   -2.2386   -1.1883 H   0  0  0  0  0  0  0  0  0  0  0  0
    1.5160   -4.0528   -2.8536 H   0  0  0  0  0  0  0  0  0  0  0  0
    2.6833   -4.5998   -1.6298 H   0  0  0  0  0  0  0  0  0  0  0  0
    1.2741   -3.6403   -1.1416 H   0  0  0  0  0  0  0  0  0  0  0  0
    5.0271   -3.4489   -2.9834 N   0  0  0  0  0  0  0  0  0  0  0  0
    6.0820   -3.6376   -3.9722 C   0  0  0  0  0  0  0  0  0  0  0  0
    5.1247   -3.8821   -2.0694 H   0  0  0  0  0  0  0  0  0  0  0  0
    5.6794   -4.1047   -4.8773 H   0  0  0  0  0  0  0  0  0  0  0  0
    6.5309   -2.6757   -4.2423 H   0  0  0  0  0  0  0  0  0  0  0  0
    6.8676   -4.2842   -3.5698 H   0  0  0  0  0  0  0  0  0  0  0  0
  1  2  2  0  0  0  0
  1  3  1  0  0  0  0
  1  7  1  0  0  0  0
  3  4  1  0  0  0  0
  3  5  1  0  0  0  0
  3  6  1  0  0  0  0
  7  8  1  0  0  0  0
  7 13  1  0  0  0  0
  8  9  1  0  0  0  0
  8 11  1  0  0  0  0
  8 14  1  0  0  0  0
  9 10  2  0  0  0  0
  9 17  1  0  0  0  0
 11 12  1  0  0  0  0
 11 15  1  0  0  0  0
 11 16  1  0  0  0  0
 12 44  1  0  0  0  0
 17 18  1  0  0  0  0
 17 19  1  0  0  0  0
 18 20  1  0  0  0  0
 18 21  1  0  0  0  0
 18 22  1  0  0  0  0
 23 24  2  0  0  0  0
 23 25  1  0  0  0  0
 23 29  1  0  0  0  0
 25 26  1  0  0  0  0
 25 27  1  0  0  0  0
 25 28  1  0  0  0  0
 29 30  1  0  0  0  0
 29 34  1  0  0  0  0
 30 31  1  0  0  0  0
 30 33  1  0  0  0  0
 30 35  1  0  0  0  0
 31 32  2  0  0  0  0
 31 39  1  0  0  0  0
 33 36  1  0  0  0  0
 33 37  1  0  0  0  0
 33 38  1  0  0  0  0
 39 40  1  0  0  0  0
 39 45  1  0  0  0  0
 40 41  1  0  0  0  0
 40 43  1  0  0  0  0
 40 46  1  0  0  0  0
 41 42  2  0  0  0  0
 41 49  1  0  0  0  0
 43 44  1  0  0  0  0
 43 47  1  0  0  0  0
 43 48  1  0  0  0  0
 49 50  1  0  0  0  0
 49 54  1  0  0  0  0
 50 51  1  0  0  0  0
 50 53  1  0  0  0  0
 50 55  1  0  0  0  0
 51 52  2  0  0  0  0
 51 59  1  0  0  0  0
 53 56  1  0  0  0  0
 53 57  1  0  0  0  0
 53 58  1  0  0  0  0
 59 60  1  0  0  0  0
 59 61  1  0  0  0  0
 60 62  1  0  0  0  0
 60 63  1  0  0  0  0
 60 64  1  0  0  0  0
M  END
$$$$

  -OEChem-05262216053D

 64 63  0     1  0  0  0  0  0999 V2000
   -0.1747    7.4495    2.2466 C   0  0  0  0  0  0  0  0  0  0  0  0
   -1.3220    7.7332    1.9384 O   0  0  0  0  0  0  0  0  0  0  0  0
    0.7405    8.5098    2.8278 C   0  0  0  0  0  0  0  0  0  0  0  0
    1.6475    8.5909    2.2241 H   0  0  0  0  0  0  0  0  0  0  0  0
    0.2353    9.4794    2.8358 H   0  0  0  0  0  0  0  0  0  0  0  0
    1.0144    8.2460    3.8520 H   0  0  0  0  0  0  0  0  0  0  0  0
    0.2857    6.1623    2.0775 N   0  0  0  0  0  0  0  0  0  0  0  0
   -0.5485    5.0320    1.6438 C   0  0  2  0  0  0  0  0  0  0  0  0
   -0.0046    3.6822    2.1678 C   0  0  0  0  0  0  0  0  0  0  0  0
    0.9527    3.6719    2.9371 O   0  0  0  0  0  0  0  0  0  0  0  0
   -0.6814    5.0557    0.1142 C   0  0  0  0  0  0  0  0  0  0  0  0
    0.9287    4.8078   -0.7426 S   0  0  0  0  0  0  0  0  0  0  0  0
    1.2017    5.9331    2.4607 H   0  0  0  0  0  0  0  0  0  0  0  0
   -1.5490    5.1432    2.0748 H   0  0  0  0  0  0  0  0  0  0  0  0
   -1.3863    4.2859   -0.2009 H   0  0  0  0  0  0  0  0  0  0  0  0
   -1.1014    6.0167   -0.1985 H   0  0  0  0  0  0  0  0  0  0  0  0
   -0.6294    2.4861    1.8619 N   0  0  0  0  0  0  0  0  0  0  0  0
   -0.1321    1.1927    2.3179 C   0  0  0  0  0  0  0  0  0  0  0  0
   -1.2736    2.4901    1.0662 H   0  0  0  0  0  0  0  0  0  0  0  0
    0.9231    1.0657    2.0538 H   0  0  0  0  0  0  0  0  0  0  0  0
   -0.2367    1.1048    3.4040 H   0  0  0  0  0  0  0  0  0  0  0  0
   -0.7015    0.3854    1.8469 H   0  0  0  0  0  0  0  0  0  0  0  0
   -5.8696    1.1336   -1.2290 C   0  0  0  0  0  0  0  0  0  0  0  0
   -6.2491    0.1160   -1.7866 O   0  0  0  0  0  0  0  0  0  0  0  0
   -6.8269    1.9337   -0.3659 C   0  0  0  0  0  0  0  0  0  0  0  0
   -6.9130    2.9530   -0.7500 H   0  0  0  0  0  0  0  0  0  0  0  0
   -7.8174    1.4704   -0.3737 H   0  0  0  0  0  0  0  0  0  0  0  0
   -6.4620    1.9693    0.6635 H   0  0  0  0  0  0  0  0  0  0  0  0
   -4.5658    1.5554   -1.3840 N   0  0  0  0  0  0  0  0  0  0  0  0
   -3.5325    0.8060   -2.1116 C   0  0  2  0  0  0  0  0  0  0  0  0
   -2.1101    1.1024   -1.5870 C   0  0  0  0  0  0  0  0  0  0  0  0
   -1.9603    1.9391   -0.7034 O   0  0  0  0  0  0  0  0  0  0  0  0
   -3.6359    1.1640   -3.5985 C   0  0  0  0  0  0  0  0  0  0  0  0
   -4.2544    2.3409   -0.8149 H   0  0  0  0  0  0  0  0  0  0  0  0
   -3.7074   -0.2680   -1.9851 H   0  0  0  0  0  0  0  0  0  0  0  0
   -3.4496    2.2325   -3.7475 H   0  0  0  0  0  0  0  0  0  0  0  0
   -2.9069    0.5974   -4.1851 H   0  0  0  0  0  0  0  0  0  0  0  0
   -4.6356    0.9290   -3.9779 H   0  0  0  0  0  0  0  0  0  0  0  0
   -1.0549    0.3218   -2.0322 N   0  0  0  0  0  0  0  0  0  0  0  0
    0.4042    0.5969   -2.0201 C   0  0  2  0  0  0  0  0  0  0  0  0
    1.1926   -0.6294   -1.5200 C   0  0  0  0  0  0  0  0  0  0  0  0
    0.9790   -1.0926   -0.4072 O   0  0  0  0  0  0  0  0  0  0  0  0
    0.9287    1.8714   -1.3388 C   0  0  0  0  0  0  0  0  0  0  0  0
    0.3695    3.4063   -2.1873 S   0  0  0  0  0  0  0  0  0  0  0  0
   -1.3455   -0.4469   -2.6297 H   0  0  0  0  0  0  0  0  0  0  0  0
    0.6811    0.7208   -3.0710 H   0  0  0  0  0  0  0  0  0  0  0  0
    0.6039    1.8814   -0.2994 H   0  0  0  0  0  0  0  0  0  0  0  0
    2.0233    1.8644   -1.3338 H   0  0  0  0  0  0  0  0  0  0  0  0
    2.1356   -1.2353   -2.3289 N   0  0  0  0  0  0  0  0  0  0  0  0
    3.0373   -2.3096   -1.8922 C   0  0  2  0  0  0  0  0  0  0  0  0
    4.3686   -2.2666   -2.6709 C   0  0  0  0  0  0  0  0  0  0  0  0
    4.4642   -1.5714   -3.6770 O   0  0  0  0  0  0  0  0  0  0  0  0
    2.3360   -3.6560   -2.1005 C   0  0  0  0  0  0  0  0  0  0  0  0
    2.3894   -0.7649   -3.1984 H   0  0  0  0  0  0  0  0  0  0  0  0
    3.2747   -2.1841   -0.8302 H   0  0  0  0  0  0  0  0  0  0  0  0
    2.0849   -3.7970   -3.1568 H   0  0  0  0  0  0  0  0  0  0  0  0
    2.9831   -4.4795   -1.7834 H   0  0  0  0  0  0  0  0  0  0  0  0
    1.4129   -3.6993   -1.5134 H   0  0  0  0  0  0  0  0  0  0  0  0
    5.4616   -2.9942   -2.2383 N   0  0  0  0  0  0  0  0  0  0  0  0
    6.7497   -2.9844   -2.9215 C   0  0  0  0  0  0  0  0  0  0  0  0
    5.3611   -3.5367   -1.3849 H   0  0  0  0  0  0  0  0  0  0  0  0
    6.6363   -3.3179   -3.9586 H   0  0  0  0  0  0  0  0  0  0  0  0
    7.1771   -1.9760   -2.9200 H   0  0  0  0  0  0  0  0  0  0  0  0
    7.4499   -3.6580   -2.4180 H   0  0  0  0  0  0  0  0  0  0  0  0
  1  2  2  0  0  0  0
  1  3  1  0  0  0  0
  1  7  1  0  0  0  0
  3  4  1  0  0  0  0
  3  5  1  0  0  0  0
  3  6  1  0  0  0  0
  7  8  1  0  0  0  0
  7 13  1  0  0  0  0
  8  9  1  0  0  0  0
  8 11  1  0  0  0  0
  8 14  1  0  0  0  0
  9 10  2  0  0  0  0
  9 17  1  0  0  0  0
 11 12  1  0  0  0  0
 11 15  1  0  0  0  0
 11 16  1  0  0  0  0
 12 44  1  0  0  0  0
 17 18  1  0  0  0  0
 17 19  1  0  0  0  0
 18 20  1  0  0  0  0
 18 21  1  0  0  0  0
 18 22  1  0  0  0  0
 23 24  2  0  0  0  0
 23 25  1  0  0  0  0
 23 29  1  0  0  0  0
 25 26  1  0  0  0  0
 25 27  1  0  0  0  0
 25 28  1  0  0  0  0
 29 30  1  0  0  0  0
 29 34  1  0  0  0  0
 30 31  1  0  0  0  0
 30 33  1  0  0  0  0
 30 35  1  0  0  0  0
 31 32  2  0  0  0  0
 31 39  1  0  0  0  0
 33 36  1  0  0  0  0
 33 37  1  0  0  0  0
 33 38  1  0  0  0  0
 39 40  1  0  0  0  0
 39 45  1  0  0  0  0
 40 41  1  0  0  0  0
 40 43  1  0  0  0  0
 40 46  1  0  0  0  0
 41 42  2  0  0  0  0
 41 49  1  0  0  0  0
 43 44  1  0  0  0  0
 43 47  1  0  0  0  0
 43 48  1  0  0  0  0
 49 50  1  0  0  0  0
 49 54  1  0  0  0  0
 50 51  1  0  0  0  0
 50 53  1  0  0  0  0
 50 55  1  0  0  0  0
 51 52  2  0  0  0  0
 51 59  1  0  0  0  0
 53 56  1  0  0  0  0
 53 57  1  0  0  0  0
 53 58  1  0  0  0  0
 59 60  1  0  0  0  0
 59 61  1  0  0  0  0
 60 62  1  0  0  0  0
 60 63  1  0  0  0  0
 60 64  1  0  0  0  0
M  END
$$$$

  -OEChem-05262216053D

 64 63  0     1  0  0  0  0  0999 V2000
    0.0033    7.4003    2.2669 C   0  0  0  0  0  0  0  0  0  0  0  0
   -1.1121    7.7666    1.9302 O   0  0  0  0  0  0  0  0  0  0  0  0
    0.9761    8.3892    2.8803 C   0  0  0  0  0  0  0  0  0  0  0  0
    1.9043    8.4044    2.3041 H   0  0  0  0  0  0  0  0  0  0  0  0
    0.5429    9.3933    2.8787 H   0  0  0  0  0  0  0  0  0  0  0  0
    1.1990    8.1030    3.9109 H   0  0  0  0  0  0  0  0  0  0  0  0
    0.3747    6.0840    2.1037 N   0  0  0  0  0  0  0  0  0  0  0  0
   -0.5227    5.0181    1.6352 C   0  0  2  0  0  0  0  0  0  0  0  0
   -0.0907    3.6304    2.1644 C   0  0  0  0  0  0  0  0  0  0  0  0
    0.8262    3.5494    2.9774 O   0  0  0  0  0  0  0  0  0  0  0  0
   -0.6080    5.0623    0.1028 C   0  0  0  0  0  0  0  0  0  0  0  0
    1.0117    4.7424   -0.7111 S   0  0  0  0  0  0  0  0  0  0  0  0
    1.2621    5.7898    2.5089 H   0  0  0  0  0  0  0  0  0  0  0  0
   -1.5256    5.1977    2.0364 H   0  0  0  0  0  0  0  0  0  0  0  0
   -1.3422    4.3332   -0.2406 H   0  0  0  0  0  0  0  0  0  0  0  0
   -0.9686    6.0469   -0.2105 H   0  0  0  0  0  0  0  0  0  0  0  0
   -0.7716    2.4790    1.8105 N   0  0  0  0  0  0  0  0  0  0  0  0
   -0.3859    1.1517    2.2762 C   0  0  0  0  0  0  0  0  0  0  0  0
   -1.3663    2.5307    0.9788 H   0  0  0  0  0  0  0  0  0  0  0  0
    0.6634    0.9476    2.0391 H   0  0  0  0  0  0  0  0  0  0  0  0
   -0.5259    1.0699    3.3591 H   0  0  0  0  0  0  0  0  0  0  0  0
   -1.0018    0.3894    1.7883 H   0  0  0  0  0  0  0  0  0  0  0  0
   -5.8830    1.2009   -1.1996 C   0  0  0  0  0  0  0  0  0  0  0  0
   -6.2810    0.1282   -1.6252 O   0  0  0  0  0  0  0  0  0  0  0  0
   -6.8164    2.1066   -0.4186 C   0  0  0  0  0  0  0  0  0  0  0  0
   -6.9291    3.0617   -0.9373 H   0  0  0  0  0  0  0  0  0  0  0  0
   -7.8006    1.6399   -0.3219 H   0  0  0  0  0  0  0  0  0  0  0  0
   -6.4129    2.2874    0.5806 H   0  0  0  0  0  0  0  0  0  0  0  0
   -4.5807    1.5906   -1.4303 N   0  0  0  0  0  0  0  0  0  0  0  0
   -3.5628    0.7466   -2.0716 C   0  0  2  0  0  0  0  0  0  0  0  0
   -2.1330    1.0981   -1.6029 C   0  0  0  0  0  0  0  0  0  0  0  0
   -1.9782    2.0079   -0.7968 O   0  0  0  0  0  0  0  0  0  0  0  0
   -3.6869    0.9142   -3.5909 C   0  0  0  0  0  0  0  0  0  0  0  0
   -4.2543    2.4361   -0.9648 H   0  0  0  0  0  0  0  0  0  0  0  0
   -3.7406   -0.3021   -1.8082 H   0  0  0  0  0  0  0  0  0  0  0  0
   -3.4976    1.9537   -3.8777 H   0  0  0  0  0  0  0  0  0  0  0  0
   -2.9700    0.2727   -4.1116 H   0  0  0  0  0  0  0  0  0  0  0  0
   -4.6934    0.6393   -3.9225 H   0  0  0  0  0  0  0  0  0  0  0  0
   -1.0774    0.2993   -2.0125 N   0  0  0  0  0  0  0  0  0  0  0  0
    0.3873    0.5434   -1.9826 C   0  0  2  0  0  0  0  0  0  0  0  0
    1.1523   -0.6846   -1.4507 C   0  0  0  0  0  0  0  0  0  0  0  0
    0.7500   -1.2964   -0.4694 O   0  0  0  0  0  0  0  0  0  0  0  0
    0.9361    1.8139   -1.3097 C   0  0  0  0  0  0  0  0  0  0  0  0
    0.4366    3.3616   -2.1707 S   0  0  0  0  0  0  0  0  0  0  0  0
   -1.3686   -0.5354   -2.5141 H   0  0  0  0  0  0  0  0  0  0  0  0
    0.6785    0.6420   -3.0322 H   0  0  0  0  0  0  0  0  0  0  0  0
    0.5959    1.8441   -0.2754 H   0  0  0  0  0  0  0  0  0  0  0  0
    2.0300    1.7780   -1.2874 H   0  0  0  0  0  0  0  0  0  0  0  0
    2.2936   -1.1220   -2.0953 N   0  0  0  0  0  0  0  0  0  0  0  0
    3.2078   -2.1417   -1.5659 C   0  0  2  0  0  0  0  0  0  0  0  0
    4.6500   -1.8863   -2.0530 C   0  0  0  0  0  0  0  0  0  0  0  0
    4.8558   -1.0698   -2.9451 O   0  0  0  0  0  0  0  0  0  0  0  0
    2.7226   -3.5235   -2.0148 C   0  0  0  0  0  0  0  0  0  0  0  0
    2.6694   -0.5346   -2.8413 H   0  0  0  0  0  0  0  0  0  0  0  0
    3.2168   -2.0984   -0.4712 H   0  0  0  0  0  0  0  0  0  0  0  0
    2.7089   -3.5877   -3.1075 H   0  0  0  0  0  0  0  0  0  0  0  0
    3.3810   -4.3065   -1.6272 H   0  0  0  0  0  0  0  0  0  0  0  0
    1.7109   -3.7107   -1.6414 H   0  0  0  0  0  0  0  0  0  0  0  0
    5.7184   -2.5510   -1.4807 N   0  0  0  0  0  0  0  0  0  0  0  0
    7.1032   -2.3330   -1.8823 C   0  0  0  0  0  0  0  0  0  0  0  0
    5.5219   -3.2005   -0.7245 H   0  0  0  0  0  0  0  0  0  0  0  0
    7.2392   -2.5798   -2.9407 H   0  0  0  0  0  0  0  0  0  0  0  0
    7.3888   -1.2874   -1.7252 H   0  0  0  0  0  0  0  0  0  0  0  0
    7.7722   -2.9662   -1.2913 H   0  0  0  0  0  0  0  0  0  0  0  0
  1  2  2  0  0  0  0
  1  3  1  0  0  0  0
  1  7  1  0  0  0  0
  3  4  1  0  0  0  0
  3  5  1  0  0  0  0
  3  6  1  0  0  0  0
  7  8  1  0  0  0  0
  7 13  1  0  0  0  0
  8  9  1  0  0  0  0
  8 11  1  0  0  0  0
  8 14  1  0  0  0  0
  9 10  2  0  0  0  0
  9 17  1  0  0  0  0
 11 12  1  0  0  0  0
 11 15  1  0  0  0  0
 11 16  1  0  0  0  0
 12 44  1  0  0  0  0
 17 18  1  0  0  0  0
 17 19  1  0  0  0  0
 18 20  1  0  0  0  0
 18 21  1  0  0  0  0
 18 22  1  0  0  0  0
 23 24  2  0  0  0  0
 23 25  1  0  0  0  0
 23 29  1  0  0  0  0
 25 26  1  0  0  0  0
 25 27  1  0  0  0  0
 25 28  1  0  0  0  0
 29 30  1  0  0  0  0
 29 34  1  0  0  0  0
 30 31  1  0  0  0  0
 30 33  1  0  0  0  0
 30 35  1  0  0  0  0
 31 32  2  0  0  0  0
 31 39  1  0  0  0  0
 33 36  1  0  0  0  0
 33 37  1  0  0  0  0
 33 38  1  0  0  0  0
 39 40  1  0  0  0  0
 39 45  1  0  0  0  0
 40 41  1  0  0  0  0
 40 43  1  0  0  0  0
 40 46  1  0  0  0  0
 41 42  2  0  0  0  0
 41 49  1  0  0  0  0
 43 44  1  0  0  0  0
 43 47  1  0  0  0  0
 43 48  1  0  0  0  0
 49 50  1  0  0  0  0
 49 54  1  0  0  0  0
 50 51  1  0  0  0  0
 50 53  1  0  0  0  0
 50 55  1  0  0  0  0
 51 52  2  0  0  0  0
 51 59  1  0  0  0  0
 53 56  1  0  0  0  0
 53 57  1  0  0  0  0
 53 58  1  0  0  0  0
 59 60  1  0  0  0  0
 59 61  1  0  0  0  0
 60 62  1  0  0  0  0
 60 63  1  0  0  0  0
 60 64  1  0  0  0  0
M  END
$$$$

  -OEChem-05262216053D

 64 63  0     1  0  0  0  0  0999 V2000
   -0.8159    7.4777    1.8404 C   0  0  0  0  0  0  0  0  0  0  0  0
   -1.9974    7.2667    1.6135 O   0  0  0  0  0  0  0  0  0  0  0  0
   -0.2768    8.8949    1.8139 C   0  0  0  0  0  0  0  0  0  0  0  0
    0.5539    8.9636    1.1074 H   0  0  0  0  0  0  0  0  0  0  0  0
   -1.0611    9.5906    1.5032 H   0  0  0  0  0  0  0  0  0  0  0  0
    0.0741    9.1791    2.8088 H   0  0  0  0  0  0  0  0  0  0  0  0
    0.0274    6.4267    2.1266 N   0  0  0  0  0  0  0  0  0  0  0  0
   -0.3946    5.0220    2.2190 C   0  0  2  0  0  0  0  0  0  0  0  0
    0.5489    4.1820    3.1071 C   0  0  0  0  0  0  0  0  0  0  0  0
    1.4906    4.7146    3.6861 O   0  0  0  0  0  0  0  0  0  0  0  0
   -0.4907    4.4237    0.8098 C   0  0  0  0  0  0  0  0  0  0  0  0
    1.1430    4.3961   -0.0342 S   0  0  0  0  0  0  0  0  0  0  0  0
    0.9883    6.6409    2.3892 H   0  0  0  0  0  0  0  0  0  0  0  0
   -1.3843    4.9779    2.6851 H   0  0  0  0  0  0  0  0  0  0  0  0
   -0.8784    3.4051    0.8760 H   0  0  0  0  0  0  0  0  0  0  0  0
   -1.1981    5.0028    0.2077 H   0  0  0  0  0  0  0  0  0  0  0  0
    0.3228    2.8288    3.2916 N   0  0  0  0  0  0  0  0  0  0  0  0
    1.1973    1.9734    4.0838 C   0  0  0  0  0  0  0  0  0  0  0  0
   -0.4348    2.4031    2.7637 H   0  0  0  0  0  0  0  0  0  0  0  0
    2.2069    1.9603    3.6599 H   0  0  0  0  0  0  0  0  0  0  0  0
    1.2528    2.3336    5.1165 H   0  0  0  0  0  0  0  0  0  0  0  0
    0.8140    0.9486    4.0966 H   0  0  0  0  0  0  0  0  0  0  0  0
   -5.8460    1.1736   -1.5573 C   0  0  0  0  0  0  0  0  0  0  0  0
   -6.2130    0.2912   -2.3173 O   0  0  0  0  0  0  0  0  0  0  0  0
   -6.8119    1.7538   -0.5418 C   0  0  0  0  0  0  0  0  0  0  0  0
   -6.9300    2.8267   -0.7115 H   0  0  0  0  0  0  0  0  0  0  0  0
   -7.7897    1.2725   -0.6332 H   0  0  0  0  0  0  0  0  0  0  0  0
   -6.4324    1.5911    0.4698 H   0  0  0  0  0  0  0  0  0  0  0  0
   -4.5486    1.6367   -1.6143 N   0  0  0  0  0  0  0  0  0  0  0  0
   -3.4937    1.0407   -2.4450 C   0  0  2  0  0  0  0  0  0  0  0  0
   -2.0979    1.1694   -1.7966 C   0  0  0  0  0  0  0  0  0  0  0  0
   -1.9735    1.8521   -0.7870 O   0  0  0  0  0  0  0  0  0  0  0  0
   -3.5124    1.7318   -3.8123 C   0  0  0  0  0  0  0  0  0  0  0  0
   -4.2471    2.2785   -0.8819 H   0  0  0  0  0  0  0  0  0  0  0  0
   -3.6925   -0.0283   -2.5765 H   0  0  0  0  0  0  0  0  0  0  0  0
   -3.3108    2.8024   -3.7021 H   0  0  0  0  0  0  0  0  0  0  0  0
   -2.7547    1.3007   -4.4734 H   0  0  0  0  0  0  0  0  0  0  0  0
   -4.4918    1.6089   -4.2861 H   0  0  0  0  0  0  0  0  0  0  0  0
   -1.0519    0.4057   -2.2915 N   0  0  0  0  0  0  0  0  0  0  0  0
    0.4098    0.4989   -2.0441 C   0  0  2  0  0  0  0  0  0  0  0  0
    1.0396   -0.8840   -1.7746 C   0  0  0  0  0  0  0  0  0  0  0  0
    0.3508   -1.8225   -1.3932 O   0  0  0  0  0  0  0  0  0  0  0  0
    0.9374    1.5626   -1.0632 C   0  0  0  0  0  0  0  0  0  0  0  0
    0.6243    3.2617   -1.7038 S   0  0  0  0  0  0  0  0  0  0  0  0
   -1.3350   -0.2950   -2.9716 H   0  0  0  0  0  0  0  0  0  0  0  0
    0.8284    0.8013   -3.0088 H   0  0  0  0  0  0  0  0  0  0  0  0
    0.4568    1.4343   -0.0890 H   0  0  0  0  0  0  0  0  0  0  0  0
    2.0150    1.4413   -0.9150 H   0  0  0  0  0  0  0  0  0  0  0  0
    2.3549   -1.1290   -2.1230 N   0  0  0  0  0  0  0  0  0  0  0  0
    3.0616   -2.3887   -1.8546 C   0  0  2  0  0  0  0  0  0  0  0  0
    4.5339   -2.1353   -1.4700 C   0  0  0  0  0  0  0  0  0  0  0  0
    5.0278   -1.0259   -1.6399 O   0  0  0  0  0  0  0  0  0  0  0  0
    2.9712   -3.2632   -3.1079 C   0  0  0  0  0  0  0  0  0  0  0  0
    2.9431   -0.3219   -2.3336 H   0  0  0  0  0  0  0  0  0  0  0  0
    2.5925   -2.9122   -1.0145 H   0  0  0  0  0  0  0  0  0  0  0  0
    3.4520   -2.7659   -3.9565 H   0  0  0  0  0  0  0  0  0  0  0  0
    3.4645   -4.2257   -2.9424 H   0  0  0  0  0  0  0  0  0  0  0  0
    1.9234   -3.4528   -3.3622 H   0  0  0  0  0  0  0  0  0  0  0  0
    5.2999   -3.1462   -0.9199 N   0  0  0  0  0  0  0  0  0  0  0  0
    6.6902   -2.9705   -0.5165 C   0  0  0  0  0  0  0  0  0  0  0  0
    4.8568   -4.0491   -0.7762 H   0  0  0  0  0  0  0  0  0  0  0  0
    7.3086   -2.6948   -1.3772 H   0  0  0  0  0  0  0  0  0  0  0  0
    6.7740   -2.1861    0.2431 H   0  0  0  0  0  0  0  0  0  0  0  0
    7.0806   -3.9020   -0.0951 H   0  0  0  0  0  0  0  0  0  0  0  0
  1  2  2  0  0  0  0
  1  3  1  0  0  0  0
  1  7  1  0  0  0  0
  3  4  1  0  0  0  0
  3  5  1  0  0  0  0
  3  6  1  0  0  0  0
  7  8  1  0  0  0  0
  7 13  1  0  0  0  0
  8  9  1  0  0  0  0
  8 11  1  0  0  0  0
  8 14  1  0  0  0  0
  9 10  2  0  0  0  0
  9 17  1  0  0  0  0
 11 12  1  0  0  0  0
 11 15  1  0  0  0  0
 11 16  1  0  0  0  0
 12 44  1  0  0  0  0
 17 18  1  0  0  0  0
 17 19  1  0  0  0  0
 18 20  1  0  0  0  0
 18 21  1  0  0  0  0
 18 22  1  0  0  0  0
 23 24  2  0  0  0  0
 23 25  1  0  0  0  0
 23 29  1  0  0  0  0
 25 26  1  0  0  0  0
 25 27  1  0  0  0  0
 25 28  1  0  0  0  0
 29 30  1  0  0  0  0
 29 34  1  0  0  0  0
 30 31  1  0  0  0  0
 30 33  1  0  0  0  0
 30 35  1  0  0  0  0
 31 32  2  0  0  0  0
 31 39  1  0  0  0  0
 33 36  1  0  0  0  0
 33 37  1  0  0  0  0
 33 38  1  0  0  0  0
 39 40  1  0  0  0  0
 39 45  1  0  0  0  0
 40 41  1  0  0  0  0
 40 43  1  0  0  0  0
 40 46  1  0  0  0  0
 41 42  2  0  0  0  0
 41 49  1  0  0  0  0
 43 44  1  0  0  0  0
 43 47  1  0  0  0  0
 43 48  1  0  0  0  0
 49 50  1  0  0  0  0
 49 54  1  0  0  0  0
 50 51  1  0  0  0  0
 50 53  1  0  0  0  0
 50 55  1  0  0  0  0
 51 52  2  0  0  0  0
 51 59  1  0  0  0  0
 53 56  1  0  0  0  0
 53 57  1  0  0  0  0
 53 58  1  0  0  0  0
 59 60  1  0  0  0  0
 59 61  1  0  0  0  0
 60 62  1  0  0  0  0
 60 63  1  0  0  0  0
 60 64  1  0  0  0  0
M  END
$$$$

  -OEChem-05262216053D

 64 63  0     1  0  0  0  0  0999 V2000
   -0.8582    7.4895    1.8043 C   0  0  0  0  0  0  0  0  0  0  0  0
   -2.0275    7.2627    1.5333 O   0  0  0  0  0  0  0  0  0  0  0  0
   -0.3347    8.9128    1.7840 C   0  0  0  0  0  0  0  0  0  0  0  0
    0.5085    8.9899    1.0936 H   0  0  0  0  0  0  0  0  0  0  0  0
   -1.1208    9.5986    1.4567 H   0  0  0  0  0  0  0  0  0  0  0  0
   -0.0059    9.2047    2.7841 H   0  0  0  0  0  0  0  0  0  0  0  0
   -0.0152    6.4524    2.1380 N   0  0  0  0  0  0  0  0  0  0  0  0
   -0.4234    5.0440    2.2359 C   0  0  2  0  0  0  0  0  0  0  0  0
    0.5116    4.2274    3.1550 C   0  0  0  0  0  0  0  0  0  0  0  0
    1.4173    4.7848    3.7672 O   0  0  0  0  0  0  0  0  0  0  0  0
   -0.4819    4.4281    0.8317 C   0  0  0  0  0  0  0  0  0  0  0  0
    1.1700    4.4015    0.0233 S   0  0  0  0  0  0  0  0  0  0  0  0
    0.9289    6.6832    2.4443 H   0  0  0  0  0  0  0  0  0  0  0  0
   -1.4229    4.9932    2.6799 H   0  0  0  0  0  0  0  0  0  0  0  0
   -0.8651    3.4079    0.9012 H   0  0  0  0  0  0  0  0  0  0  0  0
   -1.1787    4.9948    0.2061 H   0  0  0  0  0  0  0  0  0  0  0  0
    0.3228    2.8661    3.3233 N   0  0  0  0  0  0  0  0  0  0  0  0
    1.2187    2.0279    4.1109 C   0  0  0  0  0  0  0  0  0  0  0  0
   -0.3825    2.4183    2.7440 H   0  0  0  0  0  0  0  0  0  0  0  0
    2.2251    2.0339    3.6791 H   0  0  0  0  0  0  0  0  0  0  0  0
    1.2751    2.3886    5.1435 H   0  0  0  0  0  0  0  0  0  0  0  0
    0.8552    0.9958    4.1274 H   0  0  0  0  0  0  0  0  0  0  0  0
   -5.7902    1.1258   -1.5086 C   0  0  0  0  0  0  0  0  0  0  0  0
   -6.1436    0.2133   -2.2388 O   0  0  0  0  0  0  0  0  0  0  0  0
   -6.7468    1.6814   -0.4708 C   0  0  0  0  0  0  0  0  0  0  0  0
   -6.9696    2.7277   -0.6920 H   0  0  0  0  0  0  0  0  0  0  0  0
   -7.6806    1.1125   -0.4786 H   0  0  0  0  0  0  0  0  0  0  0  0
   -6.3015    1.6133    0.5248 H   0  0  0  0  0  0  0  0  0  0  0  0
   -4.5177    1.6446   -1.6199 N   0  0  0  0  0  0  0  0  0  0  0  0
   -3.4636    1.0741   -2.4699 C   0  0  2  0  0  0  0  0  0  0  0  0
   -2.0612    1.2337   -1.8435 C   0  0  0  0  0  0  0  0  0  0  0  0
   -1.9365    1.9275   -0.8419 O   0  0  0  0  0  0  0  0  0  0  0  0
   -3.5262    1.7665   -3.8344 C   0  0  0  0  0  0  0  0  0  0  0  0
   -4.2230    2.3196   -0.9150 H   0  0  0  0  0  0  0  0  0  0  0  0
   -3.6379    0.0007   -2.6019 H   0  0  0  0  0  0  0  0  0  0  0  0
   -3.3433    2.8406   -3.7275 H   0  0  0  0  0  0  0  0  0  0  0  0
   -2.7756    1.3504   -4.5128 H   0  0  0  0  0  0  0  0  0  0  0  0
   -4.5139    1.6246   -4.2849 H   0  0  0  0  0  0  0  0  0  0  0  0
   -1.0128    0.4742   -2.3393 N   0  0  0  0  0  0  0  0  0  0  0  0
    0.4470    0.5448   -2.0764 C   0  0  2  0  0  0  0  0  0  0  0  0
    1.0500   -0.8567   -1.8325 C   0  0  0  0  0  0  0  0  0  0  0  0
    0.3243   -1.8406   -1.7446 O   0  0  0  0  0  0  0  0  0  0  0  0
    0.9709    1.5885   -1.0694 C   0  0  0  0  0  0  0  0  0  0  0  0
    0.6833    3.3031   -1.6805 S   0  0  0  0  0  0  0  0  0  0  0  0
   -1.2976   -0.2500   -2.9946 H   0  0  0  0  0  0  0  0  0  0  0  0
    0.8837    0.8573   -3.0298 H   0  0  0  0  0  0  0  0  0  0  0  0
    0.4735    1.4466   -0.1054 H   0  0  0  0  0  0  0  0  0  0  0  0
    2.0448    1.4597   -0.9050 H   0  0  0  0  0  0  0  0  0  0  0  0
    2.4187   -1.0497   -1.8750 N   0  0  0  0  0  0  0  0  0  0  0  0
    3.0857   -2.3168   -1.5439 C   0  0  2  0  0  0  0  0  0  0  0  0
    4.3748   -2.0731   -0.7311 C   0  0  0  0  0  0  0  0  0  0  0  0
    4.8160   -0.9351   -0.6120 O   0  0  0  0  0  0  0  0  0  0  0  0
    3.3939   -3.0526   -2.8508 C   0  0  0  0  0  0  0  0  0  0  0  0
    3.0071   -0.2163   -1.8466 H   0  0  0  0  0  0  0  0  0  0  0  0
    2.4282   -2.9394   -0.9276 H   0  0  0  0  0  0  0  0  0  0  0  0
    4.0668   -2.4570   -3.4758 H   0  0  0  0  0  0  0  0  0  0  0  0
    3.8685   -4.0173   -2.6482 H   0  0  0  0  0  0  0  0  0  0  0  0
    2.4694   -3.2349   -3.4078 H   0  0  0  0  0  0  0  0  0  0  0  0
    5.0292   -3.1246   -0.1164 N   0  0  0  0  0  0  0  0  0  0  0  0
    6.2292   -2.9560    0.6952 C   0  0  0  0  0  0  0  0  0  0  0  0
    4.6255   -4.0522   -0.2100 H   0  0  0  0  0  0  0  0  0  0  0  0
    7.0172   -2.4586    0.1194 H   0  0  0  0  0  0  0  0  0  0  0  0
    6.0090   -2.3545    1.5835 H   0  0  0  0  0  0  0  0  0  0  0  0
    6.6057   -3.9306    1.0211 H   0  0  0  0  0  0  0  0  0  0  0  0
  1  2  2  0  0  0  0
  1  3  1  0  0  0  0
  1  7  1  0  0  0  0
  3  4  1  0  0  0  0
  3  5  1  0  0  0  0
  3  6  1  0  0  0  0
  7  8  1  0  0  0  0
  7 13  1  0  0  0  0
  8  9  1  0  0  0  0
  8 11  1  0  0  0  0
  8 14  1  0  0  0  0
  9 10  2  0  0  0  0
  9 17  1  0  0  0  0
 11 12  1  0  0  0  0
 11 15  1  0  0  0  0
 11 16  1  0  0  0  0
 12 44  1  0  0  0  0
 17 18  1  0  0  0  0
 17 19  1  0  0  0  0
 18 20  1  0  0  0  0
 18 21  1  0  0  0  0
 18 22  1  0  0  0  0
 23 24  2  0  0  0  0
 23 25  1  0  0  0  0
 23 29  1  0  0  0  0
 25 26  1  0  0  0  0
 25 27  1  0  0  0  0
 25 28  1  0  0  0  0
 29 30  1  0  0  0  0
 29 34  1  0  0  0  0
 30 31  1  0  0  0  0
 30 33  1  0  0  0  0
 30 35  1  0  0  0  0
 31 32  2  0  0  0  0
 31 39  1  0  0  0  0
 33 36  1  0  0  0  0
 33 37  1  0  0  0  0
 33 38  1  0  0  0  0
 39 40  1  0  0  0  0
 39 45  1  0  0  0  0
 40 41  1  0  0  0  0
 40 43  1  0  0  0  0
 40 46  1  0  0  0  0
 41 42  2  0  0  0  0
 41 49  1  0  0  0  0
 43 44  1  0  0  0  0
 43 47  1  0  0  0  0
 43 48  1  0  0  0  0
 49 50  1  0  0  0  0
 49 54  1  0  0  0  0
 50 51  1  0  0  0  0
 50 53  1  0  0  0  0
 50 55  1  0  0  0  0
 51 52  2  0  0  0  0
 51 59  1  0  0  0  0
 53 56  1  0  0  0  0
 53 57  1  0  0  0  0
 53 58  1  0  0  0  0
 59 60  1  0  0  0  0
 59 61  1  0  0  0  0
 60 62  1  0  0  0  0
 60 63  1  0  0  0  0
 60 64  1  0  0  0  0
M  END
$$$$

  -OEChem-05262216053D

 64 63  0     1  0  0  0  0  0999 V2000
   -1.1647    6.2065    3.5190 C   0  0  0  0  0  0  0  0  0  0  0  0
   -2.3301    5.9919    3.2225 O   0  0  0  0  0  0  0  0  0  0  0  0
   -0.7197    7.6078    3.8913 C   0  0  0  0  0  0  0  0  0  0  0  0
    0.0960    7.9251    3.2371 H   0  0  0  0  0  0  0  0  0  0  0  0
   -1.5523    8.3085    3.7828 H   0  0  0  0  0  0  0  0  0  0  0  0
   -0.3757    7.6269    4.9282 H   0  0  0  0  0  0  0  0  0  0  0  0
   -0.2543    5.1727    3.5257 N   0  0  0  0  0  0  0  0  0  0  0  0
   -0.5842    3.7705    3.2347 C   0  0  2  0  0  0  0  0  0  0  0  0
    0.4204    2.7873    3.8753 C   0  0  0  0  0  0  0  0  0  0  0  0
    1.3337    3.2072    4.5791 O   0  0  0  0  0  0  0  0  0  0  0  0
   -0.6508    3.5653    1.7160 C   0  0  0  0  0  0  0  0  0  0  0  0
    0.9821    3.8369    0.9144 S   0  0  0  0  0  0  0  0  0  0  0  0
    0.6887    5.3675    3.8591 H   0  0  0  0  0  0  0  0  0  0  0  0
   -1.5665    3.5413    3.6606 H   0  0  0  0  0  0  0  0  0  0  0  0
   -0.9917    2.5495    1.5039 H   0  0  0  0  0  0  0  0  0  0  0  0
   -1.3836    4.2513    1.2798 H   0  0  0  0  0  0  0  0  0  0  0  0
    0.2903    1.4223    3.6837 N   0  0  0  0  0  0  0  0  0  0  0  0
    1.2564    0.4510    4.1826 C   0  0  0  0  0  0  0  0  0  0  0  0
   -0.4335    1.1082    3.0429 H   0  0  0  0  0  0  0  0  0  0  0  0
    2.2414    0.6274    3.7372 H   0  0  0  0  0  0  0  0  0  0  0  0
    1.3441    0.5199    5.2721 H   0  0  0  0  0  0  0  0  0  0  0  0
    0.9380   -0.5642    3.9270 H   0  0  0  0  0  0  0  0  0  0  0  0
   -5.8705    1.0955   -1.6486 C   0  0  0  0  0  0  0  0  0  0  0  0
   -6.2130    0.2560   -2.4663 O   0  0  0  0  0  0  0  0  0  0  0  0
   -6.8757    1.6443   -0.6539 C   0  0  0  0  0  0  0  0  0  0  0  0
   -6.9773    2.7246   -0.7840 H   0  0  0  0  0  0  0  0  0  0  0  0
   -7.8523    1.1770   -0.8091 H   0  0  0  0  0  0  0  0  0  0  0  0
   -6.5433    1.4368    0.3661 H   0  0  0  0  0  0  0  0  0  0  0  0
   -4.5657    1.5388   -1.6219 N   0  0  0  0  0  0  0  0  0  0  0  0
   -3.4792    0.9671   -2.4285 C   0  0  2  0  0  0  0  0  0  0  0  0
   -2.1153    1.0695   -1.7121 C   0  0  0  0  0  0  0  0  0  0  0  0
   -2.0535    1.6437   -0.6330 O   0  0  0  0  0  0  0  0  0  0  0  0
   -3.4358    1.7063   -3.7692 C   0  0  0  0  0  0  0  0  0  0  0  0
   -4.2903    2.1378   -0.8440 H   0  0  0  0  0  0  0  0  0  0  0  0
   -3.6742   -0.0959   -2.6081 H   0  0  0  0  0  0  0  0  0  0  0  0
   -3.2243    2.7689   -3.6130 H   0  0  0  0  0  0  0  0  0  0  0  0
   -2.6598    1.2873   -4.4163 H   0  0  0  0  0  0  0  0  0  0  0  0
   -4.3979    1.6149   -4.2831 H   0  0  0  0  0  0  0  0  0  0  0  0
   -1.0372    0.3531   -2.2031 N   0  0  0  0  0  0  0  0  0  0  0  0
    0.4231    0.4894   -1.9721 C   0  0  2  0  0  0  0  0  0  0  0  0
    1.1228   -0.8851   -2.0853 C   0  0  0  0  0  0  0  0  0  0  0  0
    0.4890   -1.8610   -2.4733 O   0  0  0  0  0  0  0  0  0  0  0  0
    0.9301    1.3436   -0.7885 C   0  0  0  0  0  0  0  0  0  0  0  0
    0.5179    3.1290   -0.9903 S   0  0  0  0  0  0  0  0  0  0  0  0
   -1.2807   -0.3146   -2.9332 H   0  0  0  0  0  0  0  0  0  0  0  0
    0.7884    1.0331   -2.8482 H   0  0  0  0  0  0  0  0  0  0  0  0
    0.4787    0.9698    0.1350 H   0  0  0  0  0  0  0  0  0  0  0  0
    2.0152    1.2606   -0.6829 H   0  0  0  0  0  0  0  0  0  0  0  0
    2.4883   -1.0157   -1.9087 N   0  0  0  0  0  0  0  0  0  0  0  0
    3.2027   -2.3001   -1.8950 C   0  0  2  0  0  0  0  0  0  0  0  0
    4.2360   -2.3554   -0.7506 C   0  0  0  0  0  0  0  0  0  0  0  0
    4.5351   -1.3307   -0.1471 O   0  0  0  0  0  0  0  0  0  0  0  0
    3.8823   -2.4774   -3.2551 C   0  0  0  0  0  0  0  0  0  0  0  0
    2.9788   -0.2299   -1.4819 H   0  0  0  0  0  0  0  0  0  0  0  0
    2.5006   -3.1252   -1.7342 H   0  0  0  0  0  0  0  0  0  0  0  0
    4.6077   -1.6761   -3.4289 H   0  0  0  0  0  0  0  0  0  0  0  0
    4.4051   -3.4373   -3.3023 H   0  0  0  0  0  0  0  0  0  0  0  0
    3.1361   -2.4521   -4.0555 H   0  0  0  0  0  0  0  0  0  0  0  0
    4.8150   -3.5562   -0.3840 N   0  0  0  0  0  0  0  0  0  0  0  0
    5.7864   -3.6801    0.6963 C   0  0  0  0  0  0  0  0  0  0  0  0
    4.5327   -4.3911   -0.8897 H   0  0  0  0  0  0  0  0  0  0  0  0
    6.6846   -3.0950    0.4729 H   0  0  0  0  0  0  0  0  0  0  0  0
    5.3591   -3.3241    1.6397 H   0  0  0  0  0  0  0  0  0  0  0  0
    6.0792   -4.7268    0.8235 H   0  0  0  0  0  0  0  0  0  0  0  0
  1  2  2  0  0  0  0
  1  3  1  0  0  0  0
  1  7  1  0  0  0  0
  3  4  1  0  0  0  0
  3  5  1  0  0  0  0
  3  6  1  0  0  0  0
  7  8  1  0  0  0  0
  7 13  1  0  0  0  0
  8  9  1  0  0  0  0
  8 11  1  0  0  0  0
  8 14  1  0  0  0  0
  9 10  2  0  0  0  0
  9 17  1  0  0  0  0
 11 12  1  0  0  0  0
 11 15  1  0  0  0  0
 11 16  1  0  0  0  0
 12 44  1  0  0  0  0
 17 18  1  0  0  0  0
 17 19  1  0  0  0  0
 18 20  1  0  0  0  0
 18 21  1  0  0  0  0
 18 22  1  0  0  0  0
 23 24  2  0  0  0  0
 23 25  1  0  0  0  0
 23 29  1  0  0  0  0
 25 26  1  0  0  0  0
 25 27  1  0  0  0  0
 25 28  1  0  0  0  0
 29 30  1  0  0  0  0
 29 34  1  0  0  0  0
 30 31  1  0  0  0  0
 30 33  1  0  0  0  0
 30 35  1  0  0  0  0
 31 32  2  0  0  0  0
 31 39  1  0  0  0  0
 33 36  1  0  0  0  0
 33 37  1  0  0  0  0
 33 38  1  0  0  0  0
 39 40  1  0  0  0  0
 39 45  1  0  0  0  0
 40 41  1  0  0  0  0
 40 43  1  0  0  0  0
 40 46  1  0  0  0  0
 41 42  2  0  0  0  0
 41 49  1  0  0  0  0
 43 44  1  0  0  0  0
 43 47  1  0  0  0  0
 43 48  1  0  0  0  0
 49 50  1  0  0  0  0
 49 54  1  0  0  0  0
 50 51  1  0  0  0  0
 50 53  1  0  0  0  0
 50 55  1  0  0  0  0
 51 52  2  0  0  0  0
 51 59  1  0  0  0  0
 53 56  1  0  0  0  0
 53 57  1  0  0  0  0
 53 58  1  0  0  0  0
 59 60  1  0  0  0  0
 59 61  1  0  0  0  0
 60 62  1  0  0  0  0
 60 63  1  0  0  0  0
 60 64  1  0  0  0  0
M  END
$$$$

  -OEChem-05262216053D

 64 63  0     1  0  0  0  0  0999 V2000
   -0.7713    6.0421    3.9520 C   0  0  0  0  0  0  0  0  0  0  0  0
   -1.9777    5.9550    3.7820 O   0  0  0  0  0  0  0  0  0  0  0  0
   -0.1782    7.2900    4.5774 C   0  0  0  0  0  0  0  0  0  0  0  0
    0.4951    7.7768    3.8677 H   0  0  0  0  0  0  0  0  0  0  0  0
   -0.9737    7.9902    4.8473 H   0  0  0  0  0  0  0  0  0  0  0  0
    0.3806    7.0265    5.4787 H   0  0  0  0  0  0  0  0  0  0  0  0
    0.0526    5.0019    3.5824 N   0  0  0  0  0  0  0  0  0  0  0  0
   -0.4208    3.7110    3.0637 C   0  0  2  0  0  0  0  0  0  0  0  0
    0.5909    2.5746    3.3298 C   0  0  0  0  0  0  0  0  0  0  0  0
    1.5913    2.7908    4.0070 O   0  0  0  0  0  0  0  0  0  0  0  0
   -0.7170    3.8371    1.5635 C   0  0  0  0  0  0  0  0  0  0  0  0
    0.8114    4.1468    0.5853 S   0  0  0  0  0  0  0  0  0  0  0  0
    1.0375    5.0622    3.8371 H   0  0  0  0  0  0  0  0  0  0  0  0
   -1.3466    3.4365    3.5803 H   0  0  0  0  0  0  0  0  0  0  0  0
   -1.1869    2.9153    1.2169 H   0  0  0  0  0  0  0  0  0  0  0  0
   -1.4301    4.6490    1.3894 H   0  0  0  0  0  0  0  0  0  0  0  0
    0.3824    1.3055    2.8186 N   0  0  0  0  0  0  0  0  0  0  0  0
    1.3689    0.2370    2.9242 C   0  0  0  0  0  0  0  0  0  0  0  0
   -0.4164    1.1754    2.2026 H   0  0  0  0  0  0  0  0  0  0  0  0
    2.3352    0.5670    2.5282 H   0  0  0  0  0  0  0  0  0  0  0  0
    1.5007   -0.0604    3.9693 H   0  0  0  0  0  0  0  0  0  0  0  0
    1.0442   -0.6380    2.3532 H   0  0  0  0  0  0  0  0  0  0  0  0
   -5.9528    0.8997   -1.6379 C   0  0  0  0  0  0  0  0  0  0  0  0
   -6.2805   -0.0237   -2.3661 O   0  0  0  0  0  0  0  0  0  0  0  0
   -6.9616    1.5169   -0.6885 C   0  0  0  0  0  0  0  0  0  0  0  0
   -7.1945    2.5361   -1.0060 H   0  0  0  0  0  0  0  0  0  0  0  0
   -7.8834    0.9287   -0.6828 H   0  0  0  0  0  0  0  0  0  0  0  0
   -6.5541    1.5421    0.3251 H   0  0  0  0  0  0  0  0  0  0  0  0
   -4.6624    1.3829   -1.6730 N   0  0  0  0  0  0  0  0  0  0  0  0
   -3.5657    0.7608   -2.4273 C   0  0  2  0  0  0  0  0  0  0  0  0
   -2.2020    0.9639   -1.7315 C   0  0  0  0  0  0  0  0  0  0  0  0
   -2.1574    1.5732   -0.6704 O   0  0  0  0  0  0  0  0  0  0  0  0
   -3.5469    1.3626   -3.8366 C   0  0  0  0  0  0  0  0  0  0  0  0
   -4.3966    2.0499   -0.9490 H   0  0  0  0  0  0  0  0  0  0  0  0
   -3.7342   -0.3194   -2.4993 H   0  0  0  0  0  0  0  0  0  0  0  0
   -3.3633    2.4407   -3.7901 H   0  0  0  0  0  0  0  0  0  0  0  0
   -2.7624    0.9014   -4.4442 H   0  0  0  0  0  0  0  0  0  0  0  0
   -4.5083    1.1940   -4.3324 H   0  0  0  0  0  0  0  0  0  0  0  0
   -1.0889    0.2932   -2.2072 N   0  0  0  0  0  0  0  0  0  0  0  0
    0.3611    0.5626   -2.0402 C   0  0  2  0  0  0  0  0  0  0  0  0
    1.1462   -0.7708   -2.0748 C   0  0  0  0  0  0  0  0  0  0  0  0
    0.6188   -1.7646   -2.5636 O   0  0  0  0  0  0  0  0  0  0  0  0
    0.8248    1.5366   -0.9312 C   0  0  0  0  0  0  0  0  0  0  0  0
    0.2584    3.2675   -1.2245 S   0  0  0  0  0  0  0  0  0  0  0  0
   -1.2982   -0.4103   -2.9145 H   0  0  0  0  0  0  0  0  0  0  0  0
    0.6642    1.0658   -2.9634 H   0  0  0  0  0  0  0  0  0  0  0  0
    0.4391    1.1868    0.0299 H   0  0  0  0  0  0  0  0  0  0  0  0
    1.9156    1.5573   -0.8631 H   0  0  0  0  0  0  0  0  0  0  0  0
    2.4581   -0.8588   -1.6448 N   0  0  0  0  0  0  0  0  0  0  0  0
    3.1425   -2.1317   -1.3710 C   0  0  2  0  0  0  0  0  0  0  0  0
    3.5155   -2.2442    0.1223 C   0  0  0  0  0  0  0  0  0  0  0  0
    3.4830   -1.2462    0.8342 O   0  0  0  0  0  0  0  0  0  0  0  0
    4.3932   -2.1885   -2.2501 C   0  0  0  0  0  0  0  0  0  0  0  0
    2.7964   -0.0651   -1.1028 H   0  0  0  0  0  0  0  0  0  0  0  0
    2.5014   -2.9854   -1.6145 H   0  0  0  0  0  0  0  0  0  0  0  0
    5.0641   -1.3552   -2.0173 H   0  0  0  0  0  0  0  0  0  0  0  0
    4.9337   -3.1262   -2.0895 H   0  0  0  0  0  0  0  0  0  0  0  0
    4.1142   -2.1275   -3.3068 H   0  0  0  0  0  0  0  0  0  0  0  0
    3.8830   -3.4572    0.6739 N   0  0  0  0  0  0  0  0  0  0  0  0
    4.2490   -3.6166    2.0765 C   0  0  0  0  0  0  0  0  0  0  0  0
    3.8861   -4.2729    0.0680 H   0  0  0  0  0  0  0  0  0  0  0  0
    5.1338   -3.0156    2.3116 H   0  0  0  0  0  0  0  0  0  0  0  0
    3.4260   -3.3009    2.7263 H   0  0  0  0  0  0  0  0  0  0  0  0
    4.4760   -4.6650    2.2922 H   0  0  0  0  0  0  0  0  0  0  0  0
  1  2  2  0  0  0  0
  1  3  1  0  0  0  0
  1  7  1  0  0  0  0
  3  4  1  0  0  0  0
  3  5  1  0  0  0  0
  3  6  1  0  0  0  0
  7  8  1  0  0  0  0
  7 13  1  0  0  0  0
  8  9  1  0  0  0  0
  8 11  1  0  0  0  0
  8 14  1  0  0  0  0
  9 10  2  0  0  0  0
  9 17  1  0  0  0  0
 11 12  1  0  0  0  0
 11 15  1  0  0  0  0
 11 16  1  0  0  0  0
 12 44  1  0  0  0  0
 17 18  1  0  0  0  0
 17 19  1  0  0  0  0
 18 20  1  0  0  0  0
 18 21  1  0  0  0  0
 18 22  1  0  0  0  0
 23 24  2  0  0  0  0
 23 25  1  0  0  0  0
 23 29  1  0  0  0  0
 25 26  1  0  0  0  0
 25 27  1  0  0  0  0
 25 28  1  0  0  0  0
 29 30  1  0  0  0  0
 29 34  1  0  0  0  0
 30 31  1  0  0  0  0
 30 33  1  0  0  0  0
 30 35  1  0  0  0  0
 31 32  2  0  0  0  0
 31 39  1  0  0  0  0
 33 36  1  0  0  0  0
 33 37  1  0  0  0  0
 33 38  1  0  0  0  0
 39 40  1  0  0  0  0
 39 45  1  0  0  0  0
 40 41  1  0  0  0  0
 40 43  1  0  0  0  0
 40 46  1  0  0  0  0
 41 42  2  0  0  0  0
 41 49  1  0  0  0  0
 43 44  1  0  0  0  0
 43 47  1  0  0  0  0
 43 48  1  0  0  0  0
 49 50  1  0  0  0  0
 49 54  1  0  0  0  0
 50 51  1  0  0  0  0
 50 53  1  0  0  0  0
 50 55  1  0  0  0  0
 51 52  2  0  0  0  0
 51 59  1  0  0  0  0
 53 56  1  0  0  0  0
 53 57  1  0  0  0  0
 53 58  1  0  0  0  0
 59 60  1  0  0  0  0
 59 61  1  0  0  0  0
 60 62  1  0  0  0  0
 60 63  1  0  0  0  0
 60 64  1  0  0  0  0
M  END
$$$$

  -OEChem-05262216053D

 64 63  0     1  0  0  0  0  0999 V2000
   -0.9094    6.1280    3.8623 C   0  0  0  0  0  0  0  0  0  0  0  0
   -2.1119    5.9689    3.7192 O   0  0  0  0  0  0  0  0  0  0  0  0
   -0.3736    7.4390    4.4035 C   0  0  0  0  0  0  0  0  0  0  0  0
    0.3117    7.8878    3.6805 H   0  0  0  0  0  0  0  0  0  0  0  0
   -1.1968    8.1346    4.5884 H   0  0  0  0  0  0  0  0  0  0  0  0
    0.1592    7.2644    5.3412 H   0  0  0  0  0  0  0  0  0  0  0  0
   -0.0377    5.1095    3.5465 N   0  0  0  0  0  0  0  0  0  0  0  0
   -0.4518    3.7660    3.1183 C   0  0  2  0  0  0  0  0  0  0  0  0
    0.6039    2.6924    3.4641 C   0  0  0  0  0  0  0  0  0  0  0  0
    1.6174    3.0021    4.0832 O   0  0  0  0  0  0  0  0  0  0  0  0
   -0.7425    3.7762    1.6125 C   0  0  0  0  0  0  0  0  0  0  0  0
    0.7781    4.1074    0.6312 S   0  0  0  0  0  0  0  0  0  0  0  0
    0.9469    5.2371    3.7768 H   0  0  0  0  0  0  0  0  0  0  0  0
   -1.3686    3.4882    3.6487 H   0  0  0  0  0  0  0  0  0  0  0  0
   -1.1575    2.8090    1.3223 H   0  0  0  0  0  0  0  0  0  0  0  0
   -1.4969    4.5348    1.3824 H   0  0  0  0  0  0  0  0  0  0  0  0
    0.4135    1.3725    3.0933 N   0  0  0  0  0  0  0  0  0  0  0  0
    1.4164    0.3334    3.2959 C   0  0  0  0  0  0  0  0  0  0  0  0
   -0.4055    1.1576    2.5302 H   0  0  0  0  0  0  0  0  0  0  0  0
    2.3295    0.5688    2.7390 H   0  0  0  0  0  0  0  0  0  0  0  0
    1.6661    0.2401    4.3580 H   0  0  0  0  0  0  0  0  0  0  0  0
    1.0373   -0.6317    2.9462 H   0  0  0  0  0  0  0  0  0  0  0  0
   -5.9639    0.9680   -1.8092 C   0  0  0  0  0  0  0  0  0  0  0  0
   -6.2583    0.1863   -2.6996 O   0  0  0  0  0  0  0  0  0  0  0  0
   -7.0282    1.4645   -0.8494 C   0  0  0  0  0  0  0  0  0  0  0  0
   -7.0909    2.5544   -0.8950 H   0  0  0  0  0  0  0  0  0  0  0  0
   -8.0020    1.0442   -1.1166 H   0  0  0  0  0  0  0  0  0  0  0  0
   -6.7812    1.1622    0.1713 H   0  0  0  0  0  0  0  0  0  0  0  0
   -4.6609    1.3963   -1.6712 N   0  0  0  0  0  0  0  0  0  0  0  0
   -3.5321    0.8834   -2.4590 C   0  0  2  0  0  0  0  0  0  0  0  0
   -2.2031    0.9398   -1.6753 C   0  0  0  0  0  0  0  0  0  0  0  0
   -2.1783    1.4573   -0.5647 O   0  0  0  0  0  0  0  0  0  0  0  0
   -3.4249    1.7125   -3.7429 C   0  0  0  0  0  0  0  0  0  0  0  0
   -4.4326    1.9502   -0.8463 H   0  0  0  0  0  0  0  0  0  0  0  0
   -3.7132   -0.1653   -2.7193 H   0  0  0  0  0  0  0  0  0  0  0  0
   -3.2378    2.7642   -3.5034 H   0  0  0  0  0  0  0  0  0  0  0  0
   -2.6077    1.3469   -4.3716 H   0  0  0  0  0  0  0  0  0  0  0  0
   -4.3544    1.6459   -4.3167 H   0  0  0  0  0  0  0  0  0  0  0  0
   -1.1022    0.2481   -2.1501 N   0  0  0  0  0  0  0  0  0  0  0  0
    0.3459    0.5015   -1.9541 C   0  0  2  0  0  0  0  0  0  0  0  0
    1.1161   -0.8385   -1.9901 C   0  0  0  0  0  0  0  0  0  0  0  0
    0.7017   -1.7406   -2.7100 O   0  0  0  0  0  0  0  0  0  0  0  0
    0.7916    1.4690   -0.8346 C   0  0  0  0  0  0  0  0  0  0  0  0
    0.2322    3.1958   -1.1617 S   0  0  0  0  0  0  0  0  0  0  0  0
   -1.3077   -0.3664   -2.9366 H   0  0  0  0  0  0  0  0  0  0  0  0
    0.6721    1.0072   -2.8683 H   0  0  0  0  0  0  0  0  0  0  0  0
    0.3896    1.1242    0.1227 H   0  0  0  0  0  0  0  0  0  0  0  0
    1.8818    1.4872   -0.7532 H   0  0  0  0  0  0  0  0  0  0  0  0
    2.2850   -1.0344   -1.2768 N   0  0  0  0  0  0  0  0  0  0  0  0
    2.9036   -2.3500   -1.0580 C   0  0  2  0  0  0  0  0  0  0  0  0
    3.0850   -2.6282    0.4489 C   0  0  0  0  0  0  0  0  0  0  0  0
    2.9682   -1.7125    1.2566 O   0  0  0  0  0  0  0  0  0  0  0  0
    4.2530   -2.3614   -1.7798 C   0  0  0  0  0  0  0  0  0  0  0  0
    2.4876   -0.3388   -0.5599 H   0  0  0  0  0  0  0  0  0  0  0  0
    2.2765   -3.1505   -1.4639 H   0  0  0  0  0  0  0  0  0  0  0  0
    4.9132   -1.5889   -1.3719 H   0  0  0  0  0  0  0  0  0  0  0  0
    4.7427   -3.3335   -1.6658 H   0  0  0  0  0  0  0  0  0  0  0  0
    4.1106   -2.1702   -2.8483 H   0  0  0  0  0  0  0  0  0  0  0  0
    3.3715   -3.9011    0.9052 N   0  0  0  0  0  0  0  0  0  0  0  0
    3.5569   -4.2201    2.3160 C   0  0  0  0  0  0  0  0  0  0  0  0
    3.4457   -4.6458    0.2179 H   0  0  0  0  0  0  0  0  0  0  0  0
    4.3998   -3.6550    2.7280 H   0  0  0  0  0  0  0  0  0  0  0  0
    2.6549   -3.9743    2.8868 H   0  0  0  0  0  0  0  0  0  0  0  0
    3.7635   -5.2876    2.4393 H   0  0  0  0  0  0  0  0  0  0  0  0
  1  2  2  0  0  0  0
  1  3  1  0  0  0  0
  1  7  1  0  0  0  0
  3  4  1  0  0  0  0
  3  5  1  0  0  0  0
  3  6  1  0  0  0  0
  7  8  1  0  0  0  0
  7 13  1  0  0  0  0
  8  9  1  0  0  0  0
  8 11  1  0  0  0  0
  8 14  1  0  0  0  0
  9 10  2  0  0  0  0
  9 17  1  0  0  0  0
 11 12  1  0  0  0  0
 11 15  1  0  0  0  0
 11 16  1  0  0  0  0
 12 44  1  0  0  0  0
 17 18  1  0  0  0  0
 17 19  1  0  0  0  0
 18 20  1  0  0  0  0
 18 21  1  0  0  0  0
 18 22  1  0  0  0  0
 23 24  2  0  0  0  0
 23 25  1  0  0  0  0
 23 29  1  0  0  0  0
 25 26  1  0  0  0  0
 25 27  1  0  0  0  0
 25 28  1  0  0  0  0
 29 30  1  0  0  0  0
 29 34  1  0  0  0  0
 30 31  1  0  0  0  0
 30 33  1  0  0  0  0
 30 35  1  0  0  0  0
 31 32  2  0  0  0  0
 31 39  1  0  0  0  0
 33 36  1  0  0  0  0
 33 37  1  0  0  0  0
 33 38  1  0  0  0  0
 39 40  1  0  0  0  0
 39 45  1  0  0  0  0
 40 41  1  0  0  0  0
 40 43  1  0  0  0  0
 40 46  1  0  0  0  0
 41 42  2  0  0  0  0
 41 49  1  0  0  0  0
 43 44  1  0  0  0  0
 43 47  1  0  0  0  0
 43 48  1  0  0  0  0
 49 50  1  0  0  0  0
 49 54  1  0  0  0  0
 50 51  1  0  0  0  0
 50 53  1  0  0  0  0
 50 55  1  0  0  0  0
 51 52  2  0  0  0  0
 51 59  1  0  0  0  0
 53 56  1  0  0  0  0
 53 57  1  0  0  0  0
 53 58  1  0  0  0  0
 59 60  1  0  0  0  0
 59 61  1  0  0  0  0
 60 62  1  0  0  0  0
 60 63  1  0  0  0  0
 60 64  1  0  0  0  0
M  END
$$$$

  -OEChem-05262216053D

 64 63  0     1  0  0  0  0  0999 V2000
   -0.6182    6.2226    3.8371 C   0  0  0  0  0  0  0  0  0  0  0  0
   -1.7623    6.5089    3.5192 O   0  0  0  0  0  0  0  0  0  0  0  0
    0.1810    7.1529    4.7297 C   0  0  0  0  0  0  0  0  0  0  0  0
    1.0704    7.5032    4.2007 H   0  0  0  0  0  0  0  0  0  0  0  0
   -0.4254    8.0178    5.0119 H   0  0  0  0  0  0  0  0  0  0  0  0
    0.4886    6.6273    5.6369 H   0  0  0  0  0  0  0  0  0  0  0  0
   -0.0548    5.0449    3.3976 N   0  0  0  0  0  0  0  0  0  0  0  0
   -0.7878    3.9957    2.6740 C   0  0  2  0  0  0  0  0  0  0  0  0
   -0.1889    2.5956    2.9412 C   0  0  0  0  0  0  0  0  0  0  0  0
    0.6868    2.4678    3.7928 O   0  0  0  0  0  0  0  0  0  0  0  0
   -0.8252    4.3399    1.1791 C   0  0  0  0  0  0  0  0  0  0  0  0
    0.8378    4.2698    0.3930 S   0  0  0  0  0  0  0  0  0  0  0  0
    0.8417    4.7757    3.8006 H   0  0  0  0  0  0  0  0  0  0  0  0
   -1.8183    3.9620    3.0431 H   0  0  0  0  0  0  0  0  0  0  0  0
   -1.5011    3.6537    0.6686 H   0  0  0  0  0  0  0  0  0  0  0  0
   -1.2363    5.3456    1.0475 H   0  0  0  0  0  0  0  0  0  0  0  0
   -0.6637    1.4677    2.2952 N   0  0  0  0  0  0  0  0  0  0  0  0
   -0.1090    0.1367    2.5159 C   0  0  0  0  0  0  0  0  0  0  0  0
   -1.2649    1.6090    1.4783 H   0  0  0  0  0  0  0  0  0  0  0  0
    0.9814    0.1526    2.4206 H   0  0  0  0  0  0  0  0  0  0  0  0
   -0.3681   -0.2252    3.5157 H   0  0  0  0  0  0  0  0  0  0  0  0
   -0.5071   -0.5662    1.7779 H   0  0  0  0  0  0  0  0  0  0  0  0
   -5.8069    0.9011   -1.2926 C   0  0  0  0  0  0  0  0  0  0  0  0
   -6.1655    0.0259   -2.0640 O   0  0  0  0  0  0  0  0  0  0  0  0
   -6.7974    1.5127   -0.3202 C   0  0  0  0  0  0  0  0  0  0  0  0
   -6.8190    2.5984   -0.4414 H   0  0  0  0  0  0  0  0  0  0  0  0
   -7.8003    1.1183   -0.5062 H   0  0  0  0  0  0  0  0  0  0  0  0
   -6.5087    1.2731    0.7060 H   0  0  0  0  0  0  0  0  0  0  0  0
   -4.4953    1.3263   -1.2963 N   0  0  0  0  0  0  0  0  0  0  0  0
   -3.4274    0.7098   -2.0959 C   0  0  2  0  0  0  0  0  0  0  0  0
   -2.0406    0.8553   -1.4321 C   0  0  0  0  0  0  0  0  0  0  0  0
   -1.9372    1.4598   -0.3701 O   0  0  0  0  0  0  0  0  0  0  0  0
   -3.4229    1.3631   -3.4827 C   0  0  0  0  0  0  0  0  0  0  0  0
   -4.2097    1.9679   -0.5587 H   0  0  0  0  0  0  0  0  0  0  0  0
   -3.6255   -0.3622   -2.2039 H   0  0  0  0  0  0  0  0  0  0  0  0
   -3.2142    2.4346   -3.4000 H   0  0  0  0  0  0  0  0  0  0  0  0
   -2.6611    0.9082   -4.1229 H   0  0  0  0  0  0  0  0  0  0  0  0
   -4.3962    1.2343   -3.9670 H   0  0  0  0  0  0  0  0  0  0  0  0
   -0.9642    0.1478   -1.9365 N   0  0  0  0  0  0  0  0  0  0  0  0
    0.4839    0.4643   -1.9020 C   0  0  2  0  0  0  0  0  0  0  0  0
    1.2923   -0.8508   -1.8738 C   0  0  0  0  0  0  0  0  0  0  0  0
    0.9583   -1.7537   -2.6327 O   0  0  0  0  0  0  0  0  0  0  0  0
    1.0038    1.5495   -0.9346 C   0  0  0  0  0  0  0  0  0  0  0  0
    0.3687    3.2277   -1.3558 S   0  0  0  0  0  0  0  0  0  0  0  0
   -1.2164   -0.5175   -2.6662 H   0  0  0  0  0  0  0  0  0  0  0  0
    0.7070    0.8810   -2.8890 H   0  0  0  0  0  0  0  0  0  0  0  0
    0.7140    1.2916    0.0846 H   0  0  0  0  0  0  0  0  0  0  0  0
    2.0965    1.5933   -0.9685 H   0  0  0  0  0  0  0  0  0  0  0  0
    2.3629   -1.0412   -1.0171 N   0  0  0  0  0  0  0  0  0  0  0  0
    2.9658   -2.3559   -0.7453 C   0  0  2  0  0  0  0  0  0  0  0  0
    2.6828   -2.8196    0.6996 C   0  0  0  0  0  0  0  0  0  0  0  0
    2.2952   -2.0122    1.5363 O   0  0  0  0  0  0  0  0  0  0  0  0
    4.4720   -2.2369   -0.9887 C   0  0  0  0  0  0  0  0  0  0  0  0
    2.4363   -0.3652   -0.2581 H   0  0  0  0  0  0  0  0  0  0  0  0
    2.5637   -3.1189   -1.4195 H   0  0  0  0  0  0  0  0  0  0  0  0
    4.9152   -1.5017   -0.3090 H   0  0  0  0  0  0  0  0  0  0  0  0
    4.9639   -3.2008   -0.8266 H   0  0  0  0  0  0  0  0  0  0  0  0
    4.6642   -1.9204   -2.0188 H   0  0  0  0  0  0  0  0  0  0  0  0
    2.8733   -4.1385    1.0684 N   0  0  0  0  0  0  0  0  0  0  0  0
    2.6325   -4.6332    2.4191 C   0  0  0  0  0  0  0  0  0  0  0  0
    3.1743   -4.7920    0.3511 H   0  0  0  0  0  0  0  0  0  0  0  0
    3.2597   -4.0983    3.1405 H   0  0  0  0  0  0  0  0  0  0  0  0
    1.5817   -4.4971    2.6967 H   0  0  0  0  0  0  0  0  0  0  0  0
    2.8709   -5.6996    2.4796 H   0  0  0  0  0  0  0  0  0  0  0  0
  1  2  2  0  0  0  0
  1  3  1  0  0  0  0
  1  7  1  0  0  0  0
  3  4  1  0  0  0  0
  3  5  1  0  0  0  0
  3  6  1  0  0  0  0
  7  8  1  0  0  0  0
  7 13  1  0  0  0  0
  8  9  1  0  0  0  0
  8 11  1  0  0  0  0
  8 14  1  0  0  0  0
  9 10  2  0  0  0  0
  9 17  1  0  0  0  0
 11 12  1  0  0  0  0
 11 15  1  0  0  0  0
 11 16  1  0  0  0  0
 12 44  1  0  0  0  0
 17 18  1  0  0  0  0
 17 19  1  0  0  0  0
 18 20  1  0  0  0  0
 18 21  1  0  0  0  0
 18 22  1  0  0  0  0
 23 24  2  0  0  0  0
 23 25  1  0  0  0  0
 23 29  1  0  0  0  0
 25 26  1  0  0  0  0
 25 27  1  0  0  0  0
 25 28  1  0  0  0  0
 29 30  1  0  0  0  0
 29 34  1  0  0  0  0
 30 31  1  0  0  0  0
 30 33  1  0  0  0  0
 30 35  1  0  0  0  0
 31 32  2  0  0  0  0
 31 39  1  0  0  0  0
 33 36  1  0  0  0  0
 33 37  1  0  0  0  0
 33 38  1  0  0  0  0
 39 40  1  0  0  0  0
 39 45  1  0  0  0  0
 40 41  1  0  0  0  0
 40 43  1  0  0  0  0
 40 46  1  0  0  0  0
 41 42  2  0  0  0  0
 41 49  1  0  0  0  0
 43 44  1  0  0  0  0
 43 47  1  0  0  0  0
 43 48  1  0  0  0  0
 49 50  1  0  0  0  0
 49 54  1  0  0  0  0
 50 51  1  0  0  0  0
 50 53  1  0  0  0  0
 50 55  1  0  0  0  0
 51 52  2  0  0  0  0
 51 59  1  0  0  0  0
 53 56  1  0  0  0  0
 53 57  1  0  0  0  0
 53 58  1  0  0  0  0
 59 60  1  0  0  0  0
 59 61  1  0  0  0  0
 60 62  1  0  0  0  0
 60 63  1  0  0  0  0
 60 64  1  0  0  0  0
M  END
$$$$

  -OEChem-05262216053D

 64 63  0     1  0  0  0  0  0999 V2000
   -0.5519    6.1846    3.8517 C   0  0  0  0  0  0  0  0  0  0  0  0
   -1.6810    6.5261    3.5351 O   0  0  0  0  0  0  0  0  0  0  0  0
    0.3073    7.0934    4.7095 C   0  0  0  0  0  0  0  0  0  0  0  0
    1.1912    7.4075    4.1490 H   0  0  0  0  0  0  0  0  0  0  0  0
   -0.2592    7.9820    5.0021 H   0  0  0  0  0  0  0  0  0  0  0  0
    0.6248    6.5645    5.6114 H   0  0  0  0  0  0  0  0  0  0  0  0
   -0.0577    4.9687    3.4345 N   0  0  0  0  0  0  0  0  0  0  0  0
   -0.8410    3.9607    2.7052 C   0  0  2  0  0  0  0  0  0  0  0  0
   -0.3205    2.5288    2.9681 C   0  0  0  0  0  0  0  0  0  0  0  0
    0.5465    2.3489    3.8186 O   0  0  0  0  0  0  0  0  0  0  0  0
   -0.8484    4.3095    1.2113 C   0  0  0  0  0  0  0  0  0  0  0  0
    0.8269    4.2033    0.4573 S   0  0  0  0  0  0  0  0  0  0  0  0
    0.8318    4.6618    3.8259 H   0  0  0  0  0  0  0  0  0  0  0  0
   -1.8741    3.9824    3.0673 H   0  0  0  0  0  0  0  0  0  0  0  0
   -1.5320    3.6414    0.6864 H   0  0  0  0  0  0  0  0  0  0  0  0
   -1.2321    5.3254    1.0757 H   0  0  0  0  0  0  0  0  0  0  0  0
   -0.8572    1.4309    2.3182 N   0  0  0  0  0  0  0  0  0  0  0  0
   -0.4003    0.0661    2.5546 C   0  0  0  0  0  0  0  0  0  0  0  0
   -1.4412    1.6071    1.4958 H   0  0  0  0  0  0  0  0  0  0  0  0
    0.6880    0.0011    2.4562 H   0  0  0  0  0  0  0  0  0  0  0  0
   -0.6820   -0.2636    3.5596 H   0  0  0  0  0  0  0  0  0  0  0  0
   -0.8527   -0.6150    1.8273 H   0  0  0  0  0  0  0  0  0  0  0  0
   -5.8676    1.0087   -1.4452 C   0  0  0  0  0  0  0  0  0  0  0  0
   -6.2089    0.1626   -2.2560 O   0  0  0  0  0  0  0  0  0  0  0  0
   -6.8802    1.5857   -0.4736 C   0  0  0  0  0  0  0  0  0  0  0  0
   -7.0081    2.6548   -0.6598 H   0  0  0  0  0  0  0  0  0  0  0  0
   -7.8464    1.0882   -0.5963 H   0  0  0  0  0  0  0  0  0  0  0  0
   -6.5388    1.4402    0.5541 H   0  0  0  0  0  0  0  0  0  0  0  0
   -4.5577    1.4380   -1.4087 N   0  0  0  0  0  0  0  0  0  0  0  0
   -3.4722    0.8559   -2.2102 C   0  0  2  0  0  0  0  0  0  0  0  0
   -2.1123    0.9081   -1.4801 C   0  0  0  0  0  0  0  0  0  0  0  0
   -2.0281    1.4721   -0.3939 O   0  0  0  0  0  0  0  0  0  0  0  0
   -3.3959    1.6193   -3.5363 C   0  0  0  0  0  0  0  0  0  0  0  0
   -4.2888    2.0523   -0.6422 H   0  0  0  0  0  0  0  0  0  0  0  0
   -3.6904   -0.1982   -2.4137 H   0  0  0  0  0  0  0  0  0  0  0  0
   -3.1755    2.6767   -3.3569 H   0  0  0  0  0  0  0  0  0  0  0  0
   -2.6129    1.2036   -4.1778 H   0  0  0  0  0  0  0  0  0  0  0  0
   -4.3495    1.5476   -4.0695 H   0  0  0  0  0  0  0  0  0  0  0  0
   -1.0500    0.1592   -1.9550 N   0  0  0  0  0  0  0  0  0  0  0  0
    0.4043    0.4296   -1.8616 C   0  0  2  0  0  0  0  0  0  0  0  0
    1.1780   -0.9017   -1.8130 C   0  0  0  0  0  0  0  0  0  0  0  0
    1.0337   -1.6935   -2.7363 O   0  0  0  0  0  0  0  0  0  0  0  0
    0.9252    1.4893   -0.8689 C   0  0  0  0  0  0  0  0  0  0  0  0
    0.3610    3.1880   -1.3058 S   0  0  0  0  0  0  0  0  0  0  0  0
   -1.2993   -0.4543   -2.7294 H   0  0  0  0  0  0  0  0  0  0  0  0
    0.6758    0.8482   -2.8361 H   0  0  0  0  0  0  0  0  0  0  0  0
    0.5869    1.2388    0.1376 H   0  0  0  0  0  0  0  0  0  0  0  0
    2.0197    1.4895   -0.8605 H   0  0  0  0  0  0  0  0  0  0  0  0
    1.9857   -1.2373   -0.7414 N   0  0  0  0  0  0  0  0  0  0  0  0
    2.5576   -2.5743   -0.5238 C   0  0  2  0  0  0  0  0  0  0  0  0
    2.2172   -3.1154    0.8810 C   0  0  0  0  0  0  0  0  0  0  0  0
    1.7121   -2.3757    1.7179 O   0  0  0  0  0  0  0  0  0  0  0  0
    4.0724   -2.4661   -0.7126 C   0  0  0  0  0  0  0  0  0  0  0  0
    1.8760   -0.6641    0.0950 H   0  0  0  0  0  0  0  0  0  0  0  0
    2.1583   -3.2904   -1.2495 H   0  0  0  0  0  0  0  0  0  0  0  0
    4.5009   -1.7727    0.0183 H   0  0  0  0  0  0  0  0  0  0  0  0
    4.5479   -3.4434   -0.5862 H   0  0  0  0  0  0  0  0  0  0  0  0
    4.3015   -2.0990   -1.7180 H   0  0  0  0  0  0  0  0  0  0  0  0
    2.4801   -4.4321    1.2111 N   0  0  0  0  0  0  0  0  0  0  0  0
    2.1877   -5.0014    2.5214 C   0  0  0  0  0  0  0  0  0  0  0  0
    2.8855   -5.0277    0.4948 H   0  0  0  0  0  0  0  0  0  0  0  0
    2.7030   -4.4397    3.3079 H   0  0  0  0  0  0  0  0  0  0  0  0
    1.1109   -4.9755    2.7179 H   0  0  0  0  0  0  0  0  0  0  0  0
    2.5230   -6.0421    2.5665 H   0  0  0  0  0  0  0  0  0  0  0  0
  1  2  2  0  0  0  0
  1  3  1  0  0  0  0
  1  7  1  0  0  0  0
  3  4  1  0  0  0  0
  3  5  1  0  0  0  0
  3  6  1  0  0  0  0
  7  8  1  0  0  0  0
  7 13  1  0  0  0  0
  8  9  1  0  0  0  0
  8 11  1  0  0  0  0
  8 14  1  0  0  0  0
  9 10  2  0  0  0  0
  9 17  1  0  0  0  0
 11 12  1  0  0  0  0
 11 15  1  0  0  0  0
 11 16  1  0  0  0  0
 12 44  1  0  0  0  0
 17 18  1  0  0  0  0
 17 19  1  0  0  0  0
 18 20  1  0  0  0  0
 18 21  1  0  0  0  0
 18 22  1  0  0  0  0
 23 24  2  0  0  0  0
 23 25  1  0  0  0  0
 23 29  1  0  0  0  0
 25 26  1  0  0  0  0
 25 27  1  0  0  0  0
 25 28  1  0  0  0  0
 29 30  1  0  0  0  0
 29 34  1  0  0  0  0
 30 31  1  0  0  0  0
 30 33  1  0  0  0  0
 30 35  1  0  0  0  0
 31 32  2  0  0  0  0
 31 39  1  0  0  0  0
 33 36  1  0  0  0  0
 33 37  1  0  0  0  0
 33 38  1  0  0  0  0
 39 40  1  0  0  0  0
 39 45  1  0  0  0  0
 40 41  1  0  0  0  0
 40 43  1  0  0  0  0
 40 46  1  0  0  0  0
 41 42  2  0  0  0  0
 41 49  1  0  0  0  0
 43 44  1  0  0  0  0
 43 47  1  0  0  0  0
 43 48  1  0  0  0  0
 49 50  1  0  0  0  0
 49 54  1  0  0  0  0
 50 51  1  0  0  0  0
 50 53  1  0  0  0  0
 50 55  1  0  0  0  0
 51 52  2  0  0  0  0
 51 59  1  0  0  0  0
 53 56  1  0  0  0  0
 53 57  1  0  0  0  0
 53 58  1  0  0  0  0
 59 60  1  0  0  0  0
 59 61  1  0  0  0  0
 60 62  1  0  0  0  0
 60 63  1  0  0  0  0
 60 64  1  0  0  0  0
M  END
$$$$

  -OEChem-05262216053D

 64 63  0     1  0  0  0  0  0999 V2000
   -0.4747    6.1470    3.9022 C   0  0  0  0  0  0  0  0  0  0  0  0
   -1.5843    6.5337    3.5696 O   0  0  0  0  0  0  0  0  0  0  0  0
    0.3833    6.9966    4.8200 C   0  0  0  0  0  0  0  0  0  0  0  0
    1.3114    7.2700    4.3123 H   0  0  0  0  0  0  0  0  0  0  0  0
   -0.1509    7.9103    5.0954 H   0  0  0  0  0  0  0  0  0  0  0  0
    0.6232    6.4406    5.7296 H   0  0  0  0  0  0  0  0  0  0  0  0
   -0.0042    4.9339    3.4501 N   0  0  0  0  0  0  0  0  0  0  0  0
   -0.8079    3.9697    2.6850 C   0  0  2  0  0  0  0  0  0  0  0  0
   -0.3407    2.5162    2.9263 C   0  0  0  0  0  0  0  0  0  0  0  0
    0.5113    2.2887    3.7806 O   0  0  0  0  0  0  0  0  0  0  0  0
   -0.7849    4.3495    1.1990 C   0  0  0  0  0  0  0  0  0  0  0  0
    0.8911    4.1891    0.4570 S   0  0  0  0  0  0  0  0  0  0  0  0
    0.8585    4.5812    3.8621 H   0  0  0  0  0  0  0  0  0  0  0  0
   -1.8448    4.0171    3.0327 H   0  0  0  0  0  0  0  0  0  0  0  0
   -1.4905    3.7209    0.6536 H   0  0  0  0  0  0  0  0  0  0  0  0
   -1.1242    5.3835    1.0813 H   0  0  0  0  0  0  0  0  0  0  0  0
   -0.9224    1.4495    2.2642 N   0  0  0  0  0  0  0  0  0  0  0  0
   -0.5508    0.0608    2.5089 C   0  0  0  0  0  0  0  0  0  0  0  0
   -1.4884    1.6581    1.4367 H   0  0  0  0  0  0  0  0  0  0  0  0
    0.5288   -0.0761    2.3911 H   0  0  0  0  0  0  0  0  0  0  0  0
   -0.8339   -0.2382    3.5232 H   0  0  0  0  0  0  0  0  0  0  0  0
   -1.0620   -0.5972    1.7991 H   0  0  0  0  0  0  0  0  0  0  0  0
   -5.8882    0.9506   -1.5174 C   0  0  0  0  0  0  0  0  0  0  0  0
   -6.1861    0.1450   -2.3847 O   0  0  0  0  0  0  0  0  0  0  0  0
   -6.9327    1.4196   -0.5226 C   0  0  0  0  0  0  0  0  0  0  0  0
   -7.0544    2.5030   -0.5929 H   0  0  0  0  0  0  0  0  0  0  0  0
   -7.8940    0.9426   -0.7330 H   0  0  0  0  0  0  0  0  0  0  0  0
   -6.6252    1.1586    0.4927 H   0  0  0  0  0  0  0  0  0  0  0  0
   -4.5975    1.4299   -1.4382 N   0  0  0  0  0  0  0  0  0  0  0  0
   -3.4862    0.9551   -2.2737 C   0  0  2  0  0  0  0  0  0  0  0  0
   -2.1349    0.9819   -1.5291 C   0  0  0  0  0  0  0  0  0  0  0  0
   -2.0494    1.5494   -0.4450 O   0  0  0  0  0  0  0  0  0  0  0  0
   -3.4171    1.8372   -3.5238 C   0  0  0  0  0  0  0  0  0  0  0  0
   -4.3613    2.0131   -0.6374 H   0  0  0  0  0  0  0  0  0  0  0  0
   -3.6696   -0.0823   -2.5743 H   0  0  0  0  0  0  0  0  0  0  0  0
   -3.2277    2.8796   -3.2470 H   0  0  0  0  0  0  0  0  0  0  0  0
   -2.6150    1.5023   -4.1885 H   0  0  0  0  0  0  0  0  0  0  0  0
   -4.3623    1.7893   -4.0741 H   0  0  0  0  0  0  0  0  0  0  0  0
   -1.0873    0.2079   -1.9964 N   0  0  0  0  0  0  0  0  0  0  0  0
    0.3714    0.4466   -1.8948 C   0  0  2  0  0  0  0  0  0  0  0  0
    1.1167   -0.8985   -1.8386 C   0  0  0  0  0  0  0  0  0  0  0  0
    1.1600   -1.5907   -2.8474 O   0  0  0  0  0  0  0  0  0  0  0  0
    0.9161    1.4848   -0.8934 C   0  0  0  0  0  0  0  0  0  0  0  0
    0.3962    3.2017   -1.3140 S   0  0  0  0  0  0  0  0  0  0  0  0
   -1.3467   -0.3846   -2.7833 H   0  0  0  0  0  0  0  0  0  0  0  0
    0.6567    0.8647   -2.8657 H   0  0  0  0  0  0  0  0  0  0  0  0
    0.5693    1.2360    0.1109 H   0  0  0  0  0  0  0  0  0  0  0  0
    2.0103    1.4527   -0.8826 H   0  0  0  0  0  0  0  0  0  0  0  0
    1.6511   -1.3740   -0.6558 N   0  0  0  0  0  0  0  0  0  0  0  0
    2.1524   -2.7420   -0.4629 C   0  0  2  0  0  0  0  0  0  0  0  0
    1.6205   -3.3613    0.8470 C   0  0  0  0  0  0  0  0  0  0  0  0
    1.0235   -2.6625    1.6582 O   0  0  0  0  0  0  0  0  0  0  0  0
    3.6822   -2.6808   -0.4565 C   0  0  0  0  0  0  0  0  0  0  0  0
    1.3774   -0.8776    0.1920 H   0  0  0  0  0  0  0  0  0  0  0  0
    1.8235   -3.3909   -1.2814 H   0  0  0  0  0  0  0  0  0  0  0  0
    4.0372   -2.0510    0.3658 H   0  0  0  0  0  0  0  0  0  0  0  0
    4.1083   -3.6816   -0.3380 H   0  0  0  0  0  0  0  0  0  0  0  0
    4.0469   -2.2610   -1.3996 H   0  0  0  0  0  0  0  0  0  0  0  0
    1.8015   -4.7055    1.1146 N   0  0  0  0  0  0  0  0  0  0  0  0
    1.3193   -5.3510    2.3298 C   0  0  0  0  0  0  0  0  0  0  0  0
    2.2792   -5.2668    0.4156 H   0  0  0  0  0  0  0  0  0  0  0  0
    1.7341   -4.8594    3.2163 H   0  0  0  0  0  0  0  0  0  0  0  0
    0.2262   -5.3054    2.3800 H   0  0  0  0  0  0  0  0  0  0  0  0
    1.6228   -6.4023    2.3458 H   0  0  0  0  0  0  0  0  0  0  0  0
  1  2  2  0  0  0  0
  1  3  1  0  0  0  0
  1  7  1  0  0  0  0
  3  4  1  0  0  0  0
  3  5  1  0  0  0  0
  3  6  1  0  0  0  0
  7  8  1  0  0  0  0
  7 13  1  0  0  0  0
  8  9  1  0  0  0  0
  8 11  1  0  0  0  0
  8 14  1  0  0  0  0
  9 10  2  0  0  0  0
  9 17  1  0  0  0  0
 11 12  1  0  0  0  0
 11 15  1  0  0  0  0
 11 16  1  0  0  0  0
 12 44  1  0  0  0  0
 17 18  1  0  0  0  0
 17 19  1  0  0  0  0
 18 20  1  0  0  0  0
 18 21  1  0  0  0  0
 18 22  1  0  0  0  0
 23 24  2  0  0  0  0
 23 25  1  0  0  0  0
 23 29  1  0  0  0  0
 25 26  1  0  0  0  0
 25 27  1  0  0  0  0
 25 28  1  0  0  0  0
 29 30  1  0  0  0  0
 29 34  1  0  0  0  0
 30 31  1  0  0  0  0
 30 33  1  0  0  0  0
 30 35  1  0  0  0  0
 31 32  2  0  0  0  0
 31 39  1  0  0  0  0
 33 36  1  0  0  0  0
 33 37  1  0  0  0  0
 33 38  1  0  0  0  0
 39 40  1  0  0  0  0
 39 45  1  0  0  0  0
 40 41  1  0  0  0  0
 40 43  1  0  0  0  0
 40 46  1  0  0  0  0
 41 42  2  0  0  0  0
 41 49  1  0  0  0  0
 43 44  1  0  0  0  0
 43 47  1  0  0  0  0
 43 48  1  0  0  0  0
 49 50  1  0  0  0  0
 49 54  1  0  0  0  0
 50 51  1  0  0  0  0
 50 53  1  0  0  0  0
 50 55  1  0  0  0  0
 51 52  2  0  0  0  0
 51 59  1  0  0  0  0
 53 56  1  0  0  0  0
 53 57  1  0  0  0  0
 53 58  1  0  0  0  0
 59 60  1  0  0  0  0
 59 61  1  0  0  0  0
 60 62  1  0  0  0  0
 60 63  1  0  0  0  0
 60 64  1  0  0  0  0
M  END
$$$$

  -OEChem-05262216053D

 64 63  0     1  0  0  0  0  0999 V2000
   -0.3995    6.0760    3.8899 C   0  0  0  0  0  0  0  0  0  0  0  0
   -1.4707    6.5480    3.5410 O   0  0  0  0  0  0  0  0  0  0  0  0
    0.5082    6.8535    4.8239 C   0  0  0  0  0  0  0  0  0  0  0  0
    1.4774    7.0211    4.3478 H   0  0  0  0  0  0  0  0  0  0  0  0
    0.0618    7.8224    5.0640 H   0  0  0  0  0  0  0  0  0  0  0  0
    0.6566    6.2939    5.7507 H   0  0  0  0  0  0  0  0  0  0  0  0
   -0.0173    4.8294    3.4459 N   0  0  0  0  0  0  0  0  0  0  0  0
   -0.8626    3.9364    2.6404 C   0  0  2  0  0  0  0  0  0  0  0  0
   -0.4841    2.4512    2.8465 C   0  0  0  0  0  0  0  0  0  0  0  0
    0.3439    2.1512    3.7024 O   0  0  0  0  0  0  0  0  0  0  0  0
   -0.7883    4.3560    1.1667 C   0  0  0  0  0  0  0  0  0  0  0  0
    0.9021    4.1667    0.4648 S   0  0  0  0  0  0  0  0  0  0  0  0
    0.8177    4.4168    3.8593 H   0  0  0  0  0  0  0  0  0  0  0  0
   -1.9015    4.0365    2.9715 H   0  0  0  0  0  0  0  0  0  0  0  0
   -1.4974    3.7657    0.5855 H   0  0  0  0  0  0  0  0  0  0  0  0
   -1.0934    5.4026    1.0711 H   0  0  0  0  0  0  0  0  0  0  0  0
   -1.1230    1.4384    2.1532 N   0  0  0  0  0  0  0  0  0  0  0  0
   -0.8395    0.0240    2.3653 C   0  0  0  0  0  0  0  0  0  0  0  0
   -1.6608    1.7009    1.3220 H   0  0  0  0  0  0  0  0  0  0  0  0
    0.2261   -0.1816    2.2228 H   0  0  0  0  0  0  0  0  0  0  0  0
   -1.1222   -0.2776    3.3791 H   0  0  0  0  0  0  0  0  0  0  0  0
   -1.4074   -0.5841    1.6544 H   0  0  0  0  0  0  0  0  0  0  0  0
   -5.4084    0.4619   -1.3481 C   0  0  0  0  0  0  0  0  0  0  0  0
   -5.2013   -0.6579   -1.7888 O   0  0  0  0  0  0  0  0  0  0  0  0
   -6.4955    0.6864   -0.3142 C   0  0  0  0  0  0  0  0  0  0  0  0
   -7.2251    1.4074   -0.6912 H   0  0  0  0  0  0  0  0  0  0  0  0
   -7.0096   -0.2541   -0.0966 H   0  0  0  0  0  0  0  0  0  0  0  0
   -6.0576    1.0702    0.6107 H   0  0  0  0  0  0  0  0  0  0  0  0
   -4.6399    1.5251   -1.7755 N   0  0  0  0  0  0  0  0  0  0  0  0
   -3.4209    1.3475   -2.5768 C   0  0  2  0  0  0  0  0  0  0  0  0
   -2.1606    1.1573   -1.7065 C   0  0  0  0  0  0  0  0  0  0  0  0
   -2.1031    1.6751   -0.5967 O   0  0  0  0  0  0  0  0  0  0  0  0
   -3.2580    2.5836   -3.4637 C   0  0  0  0  0  0  0  0  0  0  0  0
   -4.7155    2.3760   -1.2247 H   0  0  0  0  0  0  0  0  0  0  0  0
   -3.5261    0.4723   -3.2266 H   0  0  0  0  0  0  0  0  0  0  0  0
   -3.1341    3.4829   -2.8514 H   0  0  0  0  0  0  0  0  0  0  0  0
   -2.3778    2.4794   -4.1059 H   0  0  0  0  0  0  0  0  0  0  0  0
   -4.1381    2.7134   -4.1013 H   0  0  0  0  0  0  0  0  0  0  0  0
   -1.1455    0.3194   -2.1317 N   0  0  0  0  0  0  0  0  0  0  0  0
    0.3177    0.4908   -1.9691 C   0  0  2  0  0  0  0  0  0  0  0  0
    1.0052   -0.8810   -1.8722 C   0  0  0  0  0  0  0  0  0  0  0  0
    1.3220   -1.4683   -2.8981 O   0  0  0  0  0  0  0  0  0  0  0  0
    0.8657    1.4924   -0.9328 C   0  0  0  0  0  0  0  0  0  0  0  0
    0.4414    3.2374   -1.3468 S   0  0  0  0  0  0  0  0  0  0  0  0
   -1.4043   -0.2346   -2.9459 H   0  0  0  0  0  0  0  0  0  0  0  0
    0.6629    0.8997   -2.9246 H   0  0  0  0  0  0  0  0  0  0  0  0
    0.4687    1.2471    0.0539 H   0  0  0  0  0  0  0  0  0  0  0  0
    1.9559    1.4089   -0.8781 H   0  0  0  0  0  0  0  0  0  0  0  0
    1.1871   -1.4933   -0.6474 N   0  0  0  0  0  0  0  0  0  0  0  0
    1.6316   -2.8816   -0.4700 C   0  0  2  0  0  0  0  0  0  0  0  0
    0.9229   -3.5556    0.7240 C   0  0  0  0  0  0  0  0  0  0  0  0
    0.2577   -2.8820    1.5030 O   0  0  0  0  0  0  0  0  0  0  0  0
    3.1494   -2.8711   -0.2663 C   0  0  0  0  0  0  0  0  0  0  0  0
    0.7173   -1.0655    0.1507 H   0  0  0  0  0  0  0  0  0  0  0  0
    1.3905   -3.4697   -1.3619 H   0  0  0  0  0  0  0  0  0  0  0  0
    3.4123   -2.2944    0.6266 H   0  0  0  0  0  0  0  0  0  0  0  0
    3.5298   -3.8900   -0.1474 H   0  0  0  0  0  0  0  0  0  0  0  0
    3.6439   -2.4179   -1.1315 H   0  0  0  0  0  0  0  0  0  0  0  0
    1.0106   -4.9223    0.9153 N   0  0  0  0  0  0  0  0  0  0  0  0
    0.3186   -5.6248    1.9898 C   0  0  0  0  0  0  0  0  0  0  0  0
    1.5322   -5.4624    0.2309 H   0  0  0  0  0  0  0  0  0  0  0  0
    0.5748   -5.1903    2.9620 H   0  0  0  0  0  0  0  0  0  0  0  0
   -0.7658   -5.5620    1.8507 H   0  0  0  0  0  0  0  0  0  0  0  0
    0.6069   -6.6805    1.9993 H   0  0  0  0  0  0  0  0  0  0  0  0
  1  2  2  0  0  0  0
  1  3  1  0  0  0  0
  1  7  1  0  0  0  0
  3  4  1  0  0  0  0
  3  5  1  0  0  0  0
  3  6  1  0  0  0  0
  7  8  1  0  0  0  0
  7 13  1  0  0  0  0
  8  9  1  0  0  0  0
  8 11  1  0  0  0  0
  8 14  1  0  0  0  0
  9 10  2  0  0  0  0
  9 17  1  0  0  0  0
 11 12  1  0  0  0  0
 11 15  1  0  0  0  0
 11 16  1  0  0  0  0
 12 44  1  0  0  0  0
 17 18  1  0  0  0  0
 17 19  1  0  0  0  0
 18 20  1  0  0  0  0
 18 21  1  0  0  0  0
 18 22  1  0  0  0  0
 23 24  2  0  0  0  0
 23 25  1  0  0  0  0
 23 29  1  0  0  0  0
 25 26  1  0  0  0  0
 25 27  1  0  0  0  0
 25 28  1  0  0  0  0
 29 30  1  0  0  0  0
 29 34  1  0  0  0  0
 30 31  1  0  0  0  0
 30 33  1  0  0  0  0
 30 35  1  0  0  0  0
 31 32  2  0  0  0  0
 31 39  1  0  0  0  0
 33 36  1  0  0  0  0
 33 37  1  0  0  0  0
 33 38  1  0  0  0  0
 39 40  1  0  0  0  0
 39 45  1  0  0  0  0
 40 41  1  0  0  0  0
 40 43  1  0  0  0  0
 40 46  1  0  0  0  0
 41 42  2  0  0  0  0
 41 49  1  0  0  0  0
 43 44  1  0  0  0  0
 43 47  1  0  0  0  0
 43 48  1  0  0  0  0
 49 50  1  0  0  0  0
 49 54  1  0  0  0  0
 50 51  1  0  0  0  0
 50 53  1  0  0  0  0
 50 55  1  0  0  0  0
 51 52  2  0  0  0  0
 51 59  1  0  0  0  0
 53 56  1  0  0  0  0
 53 57  1  0  0  0  0
 53 58  1  0  0  0  0
 59 60  1  0  0  0  0
 59 61  1  0  0  0  0
 60 62  1  0  0  0  0
 60 63  1  0  0  0  0
 60 64  1  0  0  0  0
M  END
$$$$

  -OEChem-05262216053D

 64 63  0     1  0  0  0  0  0999 V2000
   -0.2571    5.7625    4.0249 C   0  0  0  0  0  0  0  0  0  0  0  0
   -1.3620    6.2342    3.8054 O   0  0  0  0  0  0  0  0  0  0  0  0
    0.7331    6.5116    4.8961 C   0  0  0  0  0  0  0  0  0  0  0  0
    1.6551    6.6960    4.3393 H   0  0  0  0  0  0  0  0  0  0  0  0
    0.3117    7.4717    5.2061 H   0  0  0  0  0  0  0  0  0  0  0  0
    0.9648    5.9236    5.7874 H   0  0  0  0  0  0  0  0  0  0  0  0
    0.0892    4.5420    3.4890 N   0  0  0  0  0  0  0  0  0  0  0  0
   -0.8205    3.6806    2.7201 C   0  0  2  0  0  0  0  0  0  0  0  0
   -0.4105    2.1923    2.8091 C   0  0  0  0  0  0  0  0  0  0  0  0
    0.5054    1.8579    3.5555 O   0  0  0  0  0  0  0  0  0  0  0  0
   -0.8936    4.1791    1.2704 C   0  0  0  0  0  0  0  0  0  0  0  0
    0.7378    4.1154    0.4217 S   0  0  0  0  0  0  0  0  0  0  0  0
    0.9676    4.1241    3.7924 H   0  0  0  0  0  0  0  0  0  0  0  0
   -1.8235    3.7466    3.1544 H   0  0  0  0  0  0  0  0  0  0  0  0
   -1.6220    3.5849    0.7165 H   0  0  0  0  0  0  0  0  0  0  0  0
   -1.2526    5.2129    1.2608 H   0  0  0  0  0  0  0  0  0  0  0  0
   -1.1189    1.2080    2.1429 N   0  0  0  0  0  0  0  0  0  0  0  0
   -0.8312   -0.2149    2.2764 C   0  0  0  0  0  0  0  0  0  0  0  0
   -1.7362    1.5042    1.3819 H   0  0  0  0  0  0  0  0  0  0  0  0
    0.2167   -0.4236    2.0380 H   0  0  0  0  0  0  0  0  0  0  0  0
   -1.0331   -0.5524    3.2981 H   0  0  0  0  0  0  0  0  0  0  0  0
   -1.4629   -0.7906    1.5932 H   0  0  0  0  0  0  0  0  0  0  0  0
   -6.0745    1.3233   -1.8615 C   0  0  0  0  0  0  0  0  0  0  0  0
   -6.3815    0.6259   -2.8151 O   0  0  0  0  0  0  0  0  0  0  0  0
   -7.1342    1.7838   -0.8789 C   0  0  0  0  0  0  0  0  0  0  0  0
   -7.1502    2.8753   -0.8315 H   0  0  0  0  0  0  0  0  0  0  0  0
   -8.1195    1.4300   -1.1949 H   0  0  0  0  0  0  0  0  0  0  0  0
   -6.9195    1.3857    0.1156 H   0  0  0  0  0  0  0  0  0  0  0  0
   -4.7578    1.6856   -1.6710 N   0  0  0  0  0  0  0  0  0  0  0  0
   -3.6386    1.1930   -2.4854 C   0  0  2  0  0  0  0  0  0  0  0  0
   -2.3365    1.0519   -1.6698 C   0  0  0  0  0  0  0  0  0  0  0  0
   -2.2716    1.5195   -0.5374 O   0  0  0  0  0  0  0  0  0  0  0  0
   -3.4289    2.1655   -3.6497 C   0  0  0  0  0  0  0  0  0  0  0  0
   -4.5263    2.1725   -0.8068 H   0  0  0  0  0  0  0  0  0  0  0  0
   -3.8828    0.2023   -2.8835 H   0  0  0  0  0  0  0  0  0  0  0  0
   -3.1654    3.1602   -3.2753 H   0  0  0  0  0  0  0  0  0  0  0  0
   -2.6250    1.8152   -4.3041 H   0  0  0  0  0  0  0  0  0  0  0  0
   -4.3446    2.2487   -4.2440 H   0  0  0  0  0  0  0  0  0  0  0  0
   -1.3195    0.2339   -2.1295 N   0  0  0  0  0  0  0  0  0  0  0  0
    0.1418    0.4677   -2.0341 C   0  0  2  0  0  0  0  0  0  0  0  0
    0.8918   -0.8697   -1.9404 C   0  0  0  0  0  0  0  0  0  0  0  0
    1.4772   -1.3176   -2.9165 O   0  0  0  0  0  0  0  0  0  0  0  0
    0.6944    1.4783   -1.0117 C   0  0  0  0  0  0  0  0  0  0  0  0
    0.1788    3.2087   -1.3728 S   0  0  0  0  0  0  0  0  0  0  0  0
   -1.5888   -0.2866   -2.9618 H   0  0  0  0  0  0  0  0  0  0  0  0
    0.4325    0.8875   -3.0032 H   0  0  0  0  0  0  0  0  0  0  0  0
    0.3588    1.2003   -0.0115 H   0  0  0  0  0  0  0  0  0  0  0  0
    1.7888    1.4396   -1.0113 H   0  0  0  0  0  0  0  0  0  0  0  0
    0.8747   -1.5830   -0.7588 N   0  0  0  0  0  0  0  0  0  0  0  0
    1.4822   -2.9045   -0.5644 C   0  0  2  0  0  0  0  0  0  0  0  0
    0.7089   -3.7380    0.4792 C   0  0  0  0  0  0  0  0  0  0  0  0
   -0.1875   -3.2212    1.1376 O   0  0  0  0  0  0  0  0  0  0  0  0
    2.9342   -2.6958   -0.1234 C   0  0  0  0  0  0  0  0  0  0  0  0
    0.2249   -1.2656   -0.0391 H   0  0  0  0  0  0  0  0  0  0  0  0
    1.4650   -3.4644   -1.5054 H   0  0  0  0  0  0  0  0  0  0  0  0
    2.9716   -2.1354    0.8167 H   0  0  0  0  0  0  0  0  0  0  0  0
    3.4355   -3.6570    0.0235 H   0  0  0  0  0  0  0  0  0  0  0  0
    3.4847   -2.1345   -0.8852 H   0  0  0  0  0  0  0  0  0  0  0  0
    1.0102   -5.0730    0.6757 N   0  0  0  0  0  0  0  0  0  0  0  0
    0.3300   -5.9104    1.6564 C   0  0  0  0  0  0  0  0  0  0  0  0
    1.7531   -5.4783    0.1135 H   0  0  0  0  0  0  0  0  0  0  0  0
    0.4227   -5.4795    2.6590 H   0  0  0  0  0  0  0  0  0  0  0  0
   -0.7328   -6.0032    1.4096 H   0  0  0  0  0  0  0  0  0  0  0  0
    0.7711   -6.9119    1.6700 H   0  0  0  0  0  0  0  0  0  0  0  0
  1  2  2  0  0  0  0
  1  3  1  0  0  0  0
  1  7  1  0  0  0  0
  3  4  1  0  0  0  0
  3  5  1  0  0  0  0
  3  6  1  0  0  0  0
  7  8  1  0  0  0  0
  7 13  1  0  0  0  0
  8  9  1  0  0  0  0
  8 11  1  0  0  0  0
  8 14  1  0  0  0  0
  9 10  2  0  0  0  0
  9 17  1  0  0  0  0
 11 12  1  0  0  0  0
 11 15  1  0  0  0  0
 11 16  1  0  0  0  0
 12 44  1  0  0  0  0
 17 18  1  0  0  0  0
 17 19  1  0  0  0  0
 18 20  1  0  0  0  0
 18 21  1  0  0  0  0
 18 22  1  0  0  0  0
 23 24  2  0  0  0  0
 23 25  1  0  0  0  0
 23 29  1  0  0  0  0
 25 26  1  0  0  0  0
 25 27  1  0  0  0  0
 25 28  1  0  0  0  0
 29 30  1  0  0  0  0
 29 34  1  0  0  0  0
 30 31  1  0  0  0  0
 30 33  1  0  0  0  0
 30 35  1  0  0  0  0
 31 32  2  0  0  0  0
 31 39  1  0  0  0  0
 33 36  1  0  0  0  0
 33 37  1  0  0  0  0
 33 38  1  0  0  0  0
 39 40  1  0  0  0  0
 39 45  1  0  0  0  0
 40 41  1  0  0  0  0
 40 43  1  0  0  0  0
 40 46  1  0  0  0  0
 41 42  2  0  0  0  0
 41 49  1  0  0  0  0
 43 44  1  0  0  0  0
 43 47  1  0  0  0  0
 43 48  1  0  0  0  0
 49 50  1  0  0  0  0
 49 54  1  0  0  0  0
 50 51  1  0  0  0  0
 50 53  1  0  0  0  0
 50 55  1  0  0  0  0
 51 52  2  0  0  0  0
 51 59  1  0  0  0  0
 53 56  1  0  0  0  0
 53 57  1  0  0  0  0
 53 58  1  0  0  0  0
 59 60  1  0  0  0  0
 59 61  1  0  0  0  0
 60 62  1  0  0  0  0
 60 63  1  0  0  0  0
 60 64  1  0  0  0  0
M  END
$$$$

  -OEChem-05262216053D

 64 63  0     1  0  0  0  0  0999 V2000
   -1.1234    6.2275    3.4369 C   0  0  0  0  0  0  0  0  0  0  0  0
   -2.2951    6.0389    3.1480 O   0  0  0  0  0  0  0  0  0  0  0  0
   -0.6356    7.6257    3.7648 C   0  0  0  0  0  0  0  0  0  0  0  0
    0.2126    7.8841    3.1262 H   0  0  0  0  0  0  0  0  0  0  0  0
   -1.4359    8.3520    3.5978 H   0  0  0  0  0  0  0  0  0  0  0  0
   -0.3249    7.6759    4.8110 H   0  0  0  0  0  0  0  0  0  0  0  0
   -0.2452    5.1665    3.4735 N   0  0  0  0  0  0  0  0  0  0  0  0
   -0.6163    3.7675    3.2183 C   0  0  2  0  0  0  0  0  0  0  0  0
    0.3699    2.7719    3.8665 C   0  0  0  0  0  0  0  0  0  0  0  0
    1.2982    3.1811    4.5564 O   0  0  0  0  0  0  0  0  0  0  0  0
   -0.7103    3.5282    1.7060 C   0  0  0  0  0  0  0  0  0  0  0  0
    0.9070    3.7744    0.8652 S   0  0  0  0  0  0  0  0  0  0  0  0
    0.7041    5.3422    3.7992 H   0  0  0  0  0  0  0  0  0  0  0  0
   -1.5978    3.5735    3.6631 H   0  0  0  0  0  0  0  0  0  0  0  0
   -1.0573    2.5091    1.5250 H   0  0  0  0  0  0  0  0  0  0  0  0
   -1.4496    4.2063    1.2680 H   0  0  0  0  0  0  0  0  0  0  0  0
    0.2029    1.4076    3.7032 N   0  0  0  0  0  0  0  0  0  0  0  0
    1.1309    0.4193    4.2384 C   0  0  0  0  0  0  0  0  0  0  0  0
   -0.5452    1.0972    3.0887 H   0  0  0  0  0  0  0  0  0  0  0  0
    2.1328    0.5697    3.8222 H   0  0  0  0  0  0  0  0  0  0  0  0
    1.1873    0.4974    5.3294 H   0  0  0  0  0  0  0  0  0  0  0  0
    0.7978   -0.5911    3.9816 H   0  0  0  0  0  0  0  0  0  0  0  0
   -5.8957    1.3022   -1.7043 C   0  0  0  0  0  0  0  0  0  0  0  0
   -6.2309    0.6522   -2.6820 O   0  0  0  0  0  0  0  0  0  0  0  0
   -6.9166    1.6597   -0.6405 C   0  0  0  0  0  0  0  0  0  0  0  0
   -7.0246    2.7452   -0.5783 H   0  0  0  0  0  0  0  0  0  0  0  0
   -7.8877    1.2217   -0.8881 H   0  0  0  0  0  0  0  0  0  0  0  0
   -6.5945    1.2759    0.3308 H   0  0  0  0  0  0  0  0  0  0  0  0
   -4.5839    1.7014   -1.5587 N   0  0  0  0  0  0  0  0  0  0  0  0
   -3.4841    1.2502   -2.4219 C   0  0  2  0  0  0  0  0  0  0  0  0
   -2.1788    1.0320   -1.6285 C   0  0  0  0  0  0  0  0  0  0  0  0
   -2.1111    1.3922   -0.4599 O   0  0  0  0  0  0  0  0  0  0  0  0
   -3.2712    2.3014   -3.5144 C   0  0  0  0  0  0  0  0  0  0  0  0
   -4.3233    2.1228   -0.6677 H   0  0  0  0  0  0  0  0  0  0  0  0
   -3.7468    0.2938   -2.8867 H   0  0  0  0  0  0  0  0  0  0  0  0
   -3.0050    3.2665   -3.0708 H   0  0  0  0  0  0  0  0  0  0  0  0
   -2.4686    1.9971   -4.1927 H   0  0  0  0  0  0  0  0  0  0  0  0
   -4.1875    2.4278   -4.0998 H   0  0  0  0  0  0  0  0  0  0  0  0
   -1.1695    0.2463   -2.1567 N   0  0  0  0  0  0  0  0  0  0  0  0
    0.2962    0.4078   -1.9872 C   0  0  2  0  0  0  0  0  0  0  0  0
    0.9846   -0.9637   -2.0479 C   0  0  0  0  0  0  0  0  0  0  0  0
    1.7862   -1.2169   -2.9362 O   0  0  0  0  0  0  0  0  0  0  0  0
    0.8479    1.2684   -0.8338 C   0  0  0  0  0  0  0  0  0  0  0  0
    0.3994    3.0469   -1.0218 S   0  0  0  0  0  0  0  0  0  0  0  0
   -1.4345   -0.1797   -3.0419 H   0  0  0  0  0  0  0  0  0  0  0  0
    0.6334    0.9314   -2.8883 H   0  0  0  0  0  0  0  0  0  0  0  0
    0.4591    0.8925    0.1175 H   0  0  0  0  0  0  0  0  0  0  0  0
    1.9394    1.1878   -0.8017 H   0  0  0  0  0  0  0  0  0  0  0  0
    0.6414   -1.9299   -1.1233 N   0  0  0  0  0  0  0  0  0  0  0  0
    0.9732   -3.3548   -1.2569 C   0  0  2  0  0  0  0  0  0  0  0  0
   -0.2574   -4.2438   -0.9774 C   0  0  0  0  0  0  0  0  0  0  0  0
   -1.2672   -3.7545   -0.4830 O   0  0  0  0  0  0  0  0  0  0  0  0
    2.1077   -3.6695   -0.2793 C   0  0  0  0  0  0  0  0  0  0  0  0
   -0.1812   -1.7160   -0.5567 H   0  0  0  0  0  0  0  0  0  0  0  0
    1.3069   -3.5759   -2.2762 H   0  0  0  0  0  0  0  0  0  0  0  0
    1.7913   -3.4742    0.7503 H   0  0  0  0  0  0  0  0  0  0  0  0
    2.4052   -4.7194   -0.3596 H   0  0  0  0  0  0  0  0  0  0  0  0
    2.9799   -3.0461   -0.5009 H   0  0  0  0  0  0  0  0  0  0  0  0
   -0.2416   -5.5898   -1.2937 N   0  0  0  0  0  0  0  0  0  0  0  0
   -1.3778   -6.4764   -1.0702 C   0  0  0  0  0  0  0  0  0  0  0  0
    0.5998   -5.9657   -1.7215 H   0  0  0  0  0  0  0  0  0  0  0  0
   -1.6367   -6.5071   -0.0065 H   0  0  0  0  0  0  0  0  0  0  0  0
   -2.2504   -6.1319   -1.6353 H   0  0  0  0  0  0  0  0  0  0  0  0
   -1.1351   -7.4928   -1.3954 H   0  0  0  0  0  0  0  0  0  0  0  0
  1  2  2  0  0  0  0
  1  3  1  0  0  0  0
  1  7  1  0  0  0  0
  3  4  1  0  0  0  0
  3  5  1  0  0  0  0
  3  6  1  0  0  0  0
  7  8  1  0  0  0  0
  7 13  1  0  0  0  0
  8  9  1  0  0  0  0
  8 11  1  0  0  0  0
  8 14  1  0  0  0  0
  9 10  2  0  0  0  0
  9 17  1  0  0  0  0
 11 12  1  0  0  0  0
 11 15  1  0  0  0  0
 11 16  1  0  0  0  0
 12 44  1  0  0  0  0
 17 18  1  0  0  0  0
 17 19  1  0  0  0  0
 18 20  1  0  0  0  0
 18 21  1  0  0  0  0
 18 22  1  0  0  0  0
 23 24  2  0  0  0  0
 23 25  1  0  0  0  0
 23 29  1  0  0  0  0
 25 26  1  0  0  0  0
 25 27  1  0  0  0  0
 25 28  1  0  0  0  0
 29 30  1  0  0  0  0
 29 34  1  0  0  0  0
 30 31  1  0  0  0  0
 30 33  1  0  0  0  0
 30 35  1  0  0  0  0
 31 32  2  0  0  0  0
 31 39  1  0  0  0  0
 33 36  1  0  0  0  0
 33 37  1  0  0  0  0
 33 38  1  0  0  0  0
 39 40  1  0  0  0  0
 39 45  1  0  0  0  0
 40 41  1  0  0  0  0
 40 43  1  0  0  0  0
 40 46  1  0  0  0  0
 41 42  2  0  0  0  0
 41 49  1  0  0  0  0
 43 44  1  0  0  0  0
 43 47  1  0  0  0  0
 43 48  1  0  0  0  0
 49 50  1  0  0  0  0
 49 54  1  0  0  0  0
 50 51  1  0  0  0  0
 50 53  1  0  0  0  0
 50 55  1  0  0  0  0
 51 52  2  0  0  0  0
 51 59  1  0  0  0  0
 53 56  1  0  0  0  0
 53 57  1  0  0  0  0
 53 58  1  0  0  0  0
 59 60  1  0  0  0  0
 59 61  1  0  0  0  0
 60 62  1  0  0  0  0
 60 63  1  0  0  0  0
 60 64  1  0  0  0  0
M  END
$$$$

  -OEChem-05262216053D

 64 63  0     1  0  0  0  0  0999 V2000
   -0.2928    6.3596    3.7489 C   0  0  0  0  0  0  0  0  0  0  0  0
   -1.3746    6.8208    3.4191 O   0  0  0  0  0  0  0  0  0  0  0  0
    0.6492    7.1718    4.6174 C   0  0  0  0  0  0  0  0  0  0  0  0
    1.6062    7.3038    4.1065 H   0  0  0  0  0  0  0  0  0  0  0  0
    0.2197    8.1568    4.8200 H   0  0  0  0  0  0  0  0  0  0  0  0
    0.8183    6.6577    5.5667 H   0  0  0  0  0  0  0  0  0  0  0  0
    0.0714    5.0959    3.3389 N   0  0  0  0  0  0  0  0  0  0  0  0
   -0.7946    4.1861    2.5744 C   0  0  2  0  0  0  0  0  0  0  0  0
   -0.4232    2.7038    2.8108 C   0  0  0  0  0  0  0  0  0  0  0  0
    0.3995    2.4106    3.6737 O   0  0  0  0  0  0  0  0  0  0  0  0
   -0.7532    4.5674    1.0880 C   0  0  0  0  0  0  0  0  0  0  0  0
    0.9308    4.4037    0.3644 S   0  0  0  0  0  0  0  0  0  0  0  0
    0.9240    4.6990    3.7309 H   0  0  0  0  0  0  0  0  0  0  0  0
   -1.8251    4.3011    2.9262 H   0  0  0  0  0  0  0  0  0  0  0  0
   -1.4567    3.9470    0.5297 H   0  0  0  0  0  0  0  0  0  0  0  0
   -1.0836    5.6044    0.9719 H   0  0  0  0  0  0  0  0  0  0  0  0
   -1.0722    1.6805    2.1427 N   0  0  0  0  0  0  0  0  0  0  0  0
   -0.8078    0.2695    2.3934 C   0  0  0  0  0  0  0  0  0  0  0  0
   -1.5858    1.9317    1.2926 H   0  0  0  0  0  0  0  0  0  0  0  0
    0.2467    0.0357    2.2142 H   0  0  0  0  0  0  0  0  0  0  0  0
   -1.0542    0.0134    3.4292 H   0  0  0  0  0  0  0  0  0  0  0  0
   -1.4193   -0.3500    1.7304 H   0  0  0  0  0  0  0  0  0  0  0  0
   -5.6199    0.4610   -0.7217 C   0  0  0  0  0  0  0  0  0  0  0  0
   -5.7964   -0.7438   -0.8008 O   0  0  0  0  0  0  0  0  0  0  0  0
   -6.6115    1.3246    0.0345 C   0  0  0  0  0  0  0  0  0  0  0  0
   -7.0218    2.0898   -0.6286 H   0  0  0  0  0  0  0  0  0  0  0  0
   -7.4331    0.7112    0.4146 H   0  0  0  0  0  0  0  0  0  0  0  0
   -6.1155    1.8107    0.8780 H   0  0  0  0  0  0  0  0  0  0  0  0
   -4.5133    1.0438   -1.3027 N   0  0  0  0  0  0  0  0  0  0  0  0
   -3.3880    0.2917   -1.8801 C   0  0  2  0  0  0  0  0  0  0  0  0
   -2.0200    0.8277   -1.4032 C   0  0  0  0  0  0  0  0  0  0  0  0
   -1.9866    1.7565   -0.6066 O   0  0  0  0  0  0  0  0  0  0  0  0
   -3.5022    0.3728   -3.4044 C   0  0  0  0  0  0  0  0  0  0  0  0
   -4.3356    2.0168   -1.0614 H   0  0  0  0  0  0  0  0  0  0  0  0
   -3.4386   -0.7612   -1.5797 H   0  0  0  0  0  0  0  0  0  0  0  0
   -3.4248    1.4114   -3.7414 H   0  0  0  0  0  0  0  0  0  0  0  0
   -2.7080   -0.2096   -3.8816 H   0  0  0  0  0  0  0  0  0  0  0  0
   -4.4664   -0.0295   -3.7312 H   0  0  0  0  0  0  0  0  0  0  0  0
   -0.8786    0.1144   -1.7187 N   0  0  0  0  0  0  0  0  0  0  0  0
    0.5660    0.4591   -1.6618 C   0  0  2  0  0  0  0  0  0  0  0  0
    1.3536   -0.8301   -1.3873 C   0  0  0  0  0  0  0  0  0  0  0  0
    2.2185   -1.2092   -2.1649 O   0  0  0  0  0  0  0  0  0  0  0  0
    1.0822    1.6186   -0.7890 C   0  0  0  0  0  0  0  0  0  0  0  0
    0.4910    3.2744   -1.3352 S   0  0  0  0  0  0  0  0  0  0  0  0
   -1.0819   -0.7777   -2.1847 H   0  0  0  0  0  0  0  0  0  0  0  0
    0.8344    0.7522   -2.6824 H   0  0  0  0  0  0  0  0  0  0  0  0
    0.7719    1.4517    0.2439 H   0  0  0  0  0  0  0  0  0  0  0  0
    2.1771    1.6264   -0.8046 H   0  0  0  0  0  0  0  0  0  0  0  0
    0.8825   -1.6853   -0.4080 N   0  0  0  0  0  0  0  0  0  0  0  0
    0.8861   -3.1320   -0.6638 C   0  0  2  0  0  0  0  0  0  0  0  0
   -0.1614   -3.5247   -1.7364 C   0  0  0  0  0  0  0  0  0  0  0  0
   -1.0770   -2.7535   -2.0235 O   0  0  0  0  0  0  0  0  0  0  0  0
    0.5909   -3.8385    0.6607 C   0  0  0  0  0  0  0  0  0  0  0  0
    0.0468   -1.3280    0.0483 H   0  0  0  0  0  0  0  0  0  0  0  0
    1.8754   -3.4463   -1.0150 H   0  0  0  0  0  0  0  0  0  0  0  0
   -0.3997   -3.5586    1.0336 H   0  0  0  0  0  0  0  0  0  0  0  0
    0.6190   -4.9247    0.5301 H   0  0  0  0  0  0  0  0  0  0  0  0
    1.3375   -3.5616    1.4117 H   0  0  0  0  0  0  0  0  0  0  0  0
   -0.0725   -4.7382   -2.3916 N   0  0  0  0  0  0  0  0  0  0  0  0
   -0.9845   -5.1399   -3.4563 C   0  0  0  0  0  0  0  0  0  0  0  0
    0.7365   -5.3208   -2.1943 H   0  0  0  0  0  0  0  0  0  0  0  0
   -2.0177   -5.1503   -3.0931 H   0  0  0  0  0  0  0  0  0  0  0  0
   -0.9151   -4.4481   -4.3026 H   0  0  0  0  0  0  0  0  0  0  0  0
   -0.7341   -6.1448   -3.8096 H   0  0  0  0  0  0  0  0  0  0  0  0
  1  2  2  0  0  0  0
  1  3  1  0  0  0  0
  1  7  1  0  0  0  0
  3  4  1  0  0  0  0
  3  5  1  0  0  0  0
  3  6  1  0  0  0  0
  7  8  1  0  0  0  0
  7 13  1  0  0  0  0
  8  9  1  0  0  0  0
  8 11  1  0  0  0  0
  8 14  1  0  0  0  0
  9 10  2  0  0  0  0
  9 17  1  0  0  0  0
 11 12  1  0  0  0  0
 11 15  1  0  0  0  0
 11 16  1  0  0  0  0
 12 44  1  0  0  0  0
 17 18  1  0  0  0  0
 17 19  1  0  0  0  0
 18 20  1  0  0  0  0
 18 21  1  0  0  0  0
 18 22  1  0  0  0  0
 23 24  2  0  0  0  0
 23 25  1  0  0  0  0
 23 29  1  0  0  0  0
 25 26  1  0  0  0  0
 25 27  1  0  0  0  0
 25 28  1  0  0  0  0
 29 30  1  0  0  0  0
 29 34  1  0  0  0  0
 30 31  1  0  0  0  0
 30 33  1  0  0  0  0
 30 35  1  0  0  0  0
 31 32  2  0  0  0  0
 31 39  1  0  0  0  0
 33 36  1  0  0  0  0
 33 37  1  0  0  0  0
 33 38  1  0  0  0  0
 39 40  1  0  0  0  0
 39 45  1  0  0  0  0
 40 41  1  0  0  0  0
 40 43  1  0  0  0  0
 40 46  1  0  0  0  0
 41 42  2  0  0  0  0
 41 49  1  0  0  0  0
 43 44  1  0  0  0  0
 43 47  1  0  0  0  0
 43 48  1  0  0  0  0
 49 50  1  0  0  0  0
 49 54  1  0  0  0  0
 50 51  1  0  0  0  0
 50 53  1  0  0  0  0
 50 55  1  0  0  0  0
 51 52  2  0  0  0  0
 51 59  1  0  0  0  0
 53 56  1  0  0  0  0
 53 57  1  0  0  0  0
 53 58  1  0  0  0  0
 59 60  1  0  0  0  0
 59 61  1  0  0  0  0
 60 62  1  0  0  0  0
 60 63  1  0  0  0  0
 60 64  1  0  0  0  0
M  END
$$$$

  -OEChem-05262216053D

 64 63  0     1  0  0  0  0  0999 V2000
   -0.1930    6.3982    3.6601 C   0  0  0  0  0  0  0  0  0  0  0  0
   -1.3001    6.8430    3.3991 O   0  0  0  0  0  0  0  0  0  0  0  0
    0.8232    7.2590    4.3871 C   0  0  0  0  0  0  0  0  0  0  0  0
    1.7290    7.3552    3.7833 H   0  0  0  0  0  0  0  0  0  0  0  0
    0.4123    8.2563    4.5672 H   0  0  0  0  0  0  0  0  0  0  0  0
    1.0802    6.8048    5.3470 H   0  0  0  0  0  0  0  0  0  0  0  0
    0.1345    5.1104    3.2967 N   0  0  0  0  0  0  0  0  0  0  0  0
   -0.7832    4.1658    2.6420 C   0  0  2  0  0  0  0  0  0  0  0  0
   -0.3733    2.6962    2.8944 C   0  0  0  0  0  0  0  0  0  0  0  0
    0.5117    2.4406    3.7058 O   0  0  0  0  0  0  0  0  0  0  0  0
   -0.8738    4.4932    1.1446 C   0  0  0  0  0  0  0  0  0  0  0  0
    0.7579    4.3798    0.3016 S   0  0  0  0  0  0  0  0  0  0  0  0
    1.0219    4.7357    3.6283 H   0  0  0  0  0  0  0  0  0  0  0  0
   -1.7810    4.2826    3.0774 H   0  0  0  0  0  0  0  0  0  0  0  0
   -1.5869    3.8215    0.6629 H   0  0  0  0  0  0  0  0  0  0  0  0
   -1.2603    5.5095    1.0194 H   0  0  0  0  0  0  0  0  0  0  0  0
   -1.0456    1.6451    2.2957 N   0  0  0  0  0  0  0  0  0  0  0  0
   -0.7168    0.2465    2.5400 C   0  0  0  0  0  0  0  0  0  0  0  0
   -1.6127    1.8656    1.4719 H   0  0  0  0  0  0  0  0  0  0  0  0
    0.3262    0.0429    2.2764 H   0  0  0  0  0  0  0  0  0  0  0  0
   -0.8690   -0.0043    3.5950 H   0  0  0  0  0  0  0  0  0  0  0  0
   -1.3605   -0.3998    1.9354 H   0  0  0  0  0  0  0  0  0  0  0  0
   -5.8656    0.4760   -0.8605 C   0  0  0  0  0  0  0  0  0  0  0  0
   -6.1382   -0.6730   -1.1683 O   0  0  0  0  0  0  0  0  0  0  0  0
   -6.8620    1.3124   -0.0807 C   0  0  0  0  0  0  0  0  0  0  0  0
   -7.1274    2.2041   -0.6535 H   0  0  0  0  0  0  0  0  0  0  0  0
   -7.7699    0.7344    0.1131 H   0  0  0  0  0  0  0  0  0  0  0  0
   -6.4279    1.6171    0.8746 H   0  0  0  0  0  0  0  0  0  0  0  0
   -4.6454    1.0162   -1.2078 N   0  0  0  0  0  0  0  0  0  0  0  0
   -3.5392    0.2504   -1.8011 C   0  0  2  0  0  0  0  0  0  0  0  0
   -2.1637    0.7229   -1.2796 C   0  0  0  0  0  0  0  0  0  0  0  0
   -2.1162    1.5783   -0.4038 O   0  0  0  0  0  0  0  0  0  0  0  0
   -3.6248    0.3890   -3.3242 C   0  0  0  0  0  0  0  0  0  0  0  0
   -4.4113    1.9211   -0.8032 H   0  0  0  0  0  0  0  0  0  0  0  0
   -3.6347   -0.8088   -1.5362 H   0  0  0  0  0  0  0  0  0  0  0  0
   -3.4948    1.4342   -3.6217 H   0  0  0  0  0  0  0  0  0  0  0  0
   -2.8516   -0.2129   -3.8116 H   0  0  0  0  0  0  0  0  0  0  0  0
   -4.6009    0.0436   -3.6801 H   0  0  0  0  0  0  0  0  0  0  0  0
   -1.0302    0.0173   -1.6389 N   0  0  0  0  0  0  0  0  0  0  0  0
    0.4074    0.3986   -1.6342 C   0  0  2  0  0  0  0  0  0  0  0  0
    1.2633   -0.8542   -1.3843 C   0  0  0  0  0  0  0  0  0  0  0  0
    2.2695   -1.0552   -2.0502 O   0  0  0  0  0  0  0  0  0  0  0  0
    0.9086    1.5827   -0.7884 C   0  0  0  0  0  0  0  0  0  0  0  0
    0.2412    3.2057   -1.3440 S   0  0  0  0  0  0  0  0  0  0  0  0
   -1.2399   -0.8093   -2.2113 H   0  0  0  0  0  0  0  0  0  0  0  0
    0.6283    0.6938   -2.6657 H   0  0  0  0  0  0  0  0  0  0  0  0
    0.6355    1.4174    0.2550 H   0  0  0  0  0  0  0  0  0  0  0  0
    2.0016    1.6303   -0.8378 H   0  0  0  0  0  0  0  0  0  0  0  0
    0.7295   -1.8781   -0.6219 N   0  0  0  0  0  0  0  0  0  0  0  0
    0.8383   -3.2573   -1.1145 C   0  0  2  0  0  0  0  0  0  0  0  0
   -0.1037   -3.4916   -2.3210 C   0  0  0  0  0  0  0  0  0  0  0  0
   -1.0674   -2.7479   -2.5064 O   0  0  0  0  0  0  0  0  0  0  0  0
    0.4875   -4.2016    0.0364 C   0  0  0  0  0  0  0  0  0  0  0  0
   -0.1770   -1.6327   -0.2305 H   0  0  0  0  0  0  0  0  0  0  0  0
    1.8670   -3.4636   -1.4302 H   0  0  0  0  0  0  0  0  0  0  0  0
   -0.5420   -4.0373    0.3705 H   0  0  0  0  0  0  0  0  0  0  0  0
    0.5874   -5.2442   -0.2810 H   0  0  0  0  0  0  0  0  0  0  0  0
    1.1609   -4.0322    0.8825 H   0  0  0  0  0  0  0  0  0  0  0  0
    0.1459   -4.5115   -3.2190 N   0  0  0  0  0  0  0  0  0  0  0  0
   -0.6429   -4.7232   -4.4268 C   0  0  0  0  0  0  0  0  0  0  0  0
    0.9950   -5.0547   -3.0886 H   0  0  0  0  0  0  0  0  0  0  0  0
   -1.6766   -4.9763   -4.1691 H   0  0  0  0  0  0  0  0  0  0  0  0
   -0.6445   -3.8213   -5.0484 H   0  0  0  0  0  0  0  0  0  0  0  0
   -0.2216   -5.5447   -5.0145 H   0  0  0  0  0  0  0  0  0  0  0  0
  1  2  2  0  0  0  0
  1  3  1  0  0  0  0
  1  7  1  0  0  0  0
  3  4  1  0  0  0  0
  3  5  1  0  0  0  0
  3  6  1  0  0  0  0
  7  8  1  0  0  0  0
  7 13  1  0  0  0  0
  8  9  1  0  0  0  0
  8 11  1  0  0  0  0
  8 14  1  0  0  0  0
  9 10  2  0  0  0  0
  9 17  1  0  0  0  0
 11 12  1  0  0  0  0
 11 15  1  0  0  0  0
 11 16  1  0  0  0  0
 12 44  1  0  0  0  0
 17 18  1  0  0  0  0
 17 19  1  0  0  0  0
 18 20  1  0  0  0  0
 18 21  1  0  0  0  0
 18 22  1  0  0  0  0
 23 24  2  0  0  0  0
 23 25  1  0  0  0  0
 23 29  1  0  0  0  0
 25 26  1  0  0  0  0
 25 27  1  0  0  0  0
 25 28  1  0  0  0  0
 29 30  1  0  0  0  0
 29 34  1  0  0  0  0
 30 31  1  0  0  0  0
 30 33  1  0  0  0  0
 30 35  1  0  0  0  0
 31 32  2  0  0  0  0
 31 39  1  0  0  0  0
 33 36  1  0  0  0  0
 33 37  1  0  0  0  0
 33 38  1  0  0  0  0
 39 40  1  0  0  0  0
 39 45  1  0  0  0  0
 40 41  1  0  0  0  0
 40 43  1  0  0  0  0
 40 46  1  0  0  0  0
 41 42  2  0  0  0  0
 41 49  1  0  0  0  0
 43 44  1  0  0  0  0
 43 47  1  0  0  0  0
 43 48  1  0  0  0  0
 49 50  1  0  0  0  0
 49 54  1  0  0  0  0
 50 51  1  0  0  0  0
 50 53  1  0  0  0  0
 50 55  1  0  0  0  0
 51 52  2  0  0  0  0
 51 59  1  0  0  0  0
 53 56  1  0  0  0  0
 53 57  1  0  0  0  0
 53 58  1  0  0  0  0
 59 60  1  0  0  0  0
 59 61  1  0  0  0  0
 60 62  1  0  0  0  0
 60 63  1  0  0  0  0
 60 64  1  0  0  0  0
M  END
$$$$

  -OEChem-05262216053D

 64 63  0     1  0  0  0  0  0999 V2000
   -0.5710    6.5194    3.4321 C   0  0  0  0  0  0  0  0  0  0  0  0
   -1.7183    6.7852    3.1077 O   0  0  0  0  0  0  0  0  0  0  0  0
    0.2828    7.5561    4.1365 C   0  0  0  0  0  0  0  0  0  0  0  0
    1.1960    7.7366    3.5643 H   0  0  0  0  0  0  0  0  0  0  0  0
   -0.2666    8.4970    4.2284 H   0  0  0  0  0  0  0  0  0  0  0  0
    0.5502    7.2026    5.1354 H   0  0  0  0  0  0  0  0  0  0  0  0
   -0.0515    5.2719    3.1661 N   0  0  0  0  0  0  0  0  0  0  0  0
   -0.8193    4.1560    2.5950 C   0  0  2  0  0  0  0  0  0  0  0  0
   -0.2372    2.7864    3.0135 C   0  0  0  0  0  0  0  0  0  0  0  0
    0.6450    2.7370    3.8661 O   0  0  0  0  0  0  0  0  0  0  0  0
   -0.8888    4.3126    1.0706 C   0  0  0  0  0  0  0  0  0  0  0  0
    0.7644    4.1669    0.2759 S   0  0  0  0  0  0  0  0  0  0  0  0
    0.8585    5.0447    3.5644 H   0  0  0  0  0  0  0  0  0  0  0  0
   -1.8402    4.1885    2.9891 H   0  0  0  0  0  0  0  0  0  0  0  0
   -1.5627    3.5603    0.6594 H   0  0  0  0  0  0  0  0  0  0  0  0
   -1.3158    5.2891    0.8221 H   0  0  0  0  0  0  0  0  0  0  0  0
   -0.7371    1.6000    2.5058 N   0  0  0  0  0  0  0  0  0  0  0  0
   -0.2070    0.2948    2.8783 C   0  0  0  0  0  0  0  0  0  0  0  0
   -1.3339    1.6579    1.6752 H   0  0  0  0  0  0  0  0  0  0  0  0
    0.8607    0.2323    2.6438 H   0  0  0  0  0  0  0  0  0  0  0  0
   -0.3435    0.1171    3.9503 H   0  0  0  0  0  0  0  0  0  0  0  0
   -0.7293   -0.4930    2.3273 H   0  0  0  0  0  0  0  0  0  0  0  0
   -5.8361    0.6955   -0.9945 C   0  0  0  0  0  0  0  0  0  0  0  0
   -6.2076   -0.2812   -1.6251 O   0  0  0  0  0  0  0  0  0  0  0  0
   -6.8009    1.4226   -0.0772 C   0  0  0  0  0  0  0  0  0  0  0  0
   -6.8341    2.4838   -0.3350 H   0  0  0  0  0  0  0  0  0  0  0  0
   -7.8059    1.0041   -0.1797 H   0  0  0  0  0  0  0  0  0  0  0  0
   -6.4785    1.3169    0.9614 H   0  0  0  0  0  0  0  0  0  0  0  0
   -4.5320    1.1306   -1.0991 N   0  0  0  0  0  0  0  0  0  0  0  0
   -3.4752    0.4128   -1.8260 C   0  0  2  0  0  0  0  0  0  0  0  0
   -2.0948    0.5791   -1.1554 C   0  0  0  0  0  0  0  0  0  0  0  0
   -1.9913    1.2407   -0.1272 O   0  0  0  0  0  0  0  0  0  0  0  0
   -3.4387    0.9380   -3.2641 C   0  0  0  0  0  0  0  0  0  0  0  0
   -4.2350    1.8637   -0.4575 H   0  0  0  0  0  0  0  0  0  0  0  0
   -3.6995   -0.6598   -1.8438 H   0  0  0  0  0  0  0  0  0  0  0  0
   -3.1756    2.0007   -3.2783 H   0  0  0  0  0  0  0  0  0  0  0  0
   -2.7016    0.3865   -3.8557 H   0  0  0  0  0  0  0  0  0  0  0  0
   -4.4184    0.8147   -3.7370 H   0  0  0  0  0  0  0  0  0  0  0  0
   -1.0300   -0.1940   -1.5778 N   0  0  0  0  0  0  0  0  0  0  0  0
    0.4180    0.1433   -1.6078 C   0  0  2  0  0  0  0  0  0  0  0  0
    1.2665   -1.1270   -1.4134 C   0  0  0  0  0  0  0  0  0  0  0  0
    2.3649   -1.2157   -1.9443 O   0  0  0  0  0  0  0  0  0  0  0  0
    0.9453    1.3210   -0.7673 C   0  0  0  0  0  0  0  0  0  0  0  0
    0.2762    2.9405   -1.3415 S   0  0  0  0  0  0  0  0  0  0  0  0
   -1.2985   -0.8867   -2.2871 H   0  0  0  0  0  0  0  0  0  0  0  0
    0.6156    0.4462   -2.6416 H   0  0  0  0  0  0  0  0  0  0  0  0
    0.6800    1.1642    0.2795 H   0  0  0  0  0  0  0  0  0  0  0  0
    2.0382    1.3584   -0.8277 H   0  0  0  0  0  0  0  0  0  0  0  0
    0.6456   -2.2677   -0.9373 N   0  0  0  0  0  0  0  0  0  0  0  0
    0.7876   -3.5244   -1.6832 C   0  0  2  0  0  0  0  0  0  0  0  0
   -0.1130   -3.5247   -2.9426 C   0  0  0  0  0  0  0  0  0  0  0  0
   -1.0345   -2.7140   -3.0427 O   0  0  0  0  0  0  0  0  0  0  0  0
    0.4059   -4.6736   -0.7477 C   0  0  0  0  0  0  0  0  0  0  0  0
   -0.2996   -2.0739   -0.6127 H   0  0  0  0  0  0  0  0  0  0  0  0
    1.8272   -3.6641   -1.9990 H   0  0  0  0  0  0  0  0  0  0  0  0
   -0.6372   -4.5806   -0.4282 H   0  0  0  0  0  0  0  0  0  0  0  0
    0.5288   -5.6361   -1.2539 H   0  0  0  0  0  0  0  0  0  0  0  0
    1.0444   -4.6671    0.1416 H   0  0  0  0  0  0  0  0  0  0  0  0
    0.1160   -4.4194   -3.9705 N   0  0  0  0  0  0  0  0  0  0  0  0
   -0.6594   -4.4365   -5.2057 C   0  0  0  0  0  0  0  0  0  0  0  0
    0.9242   -5.0309   -3.8913 H   0  0  0  0  0  0  0  0  0  0  0  0
   -1.7146   -4.6395   -4.9939 H   0  0  0  0  0  0  0  0  0  0  0  0
   -0.5824   -3.4730   -5.7207 H   0  0  0  0  0  0  0  0  0  0  0  0
   -0.2859   -5.2171   -5.8760 H   0  0  0  0  0  0  0  0  0  0  0  0
  1  2  2  0  0  0  0
  1  3  1  0  0  0  0
  1  7  1  0  0  0  0
  3  4  1  0  0  0  0
  3  5  1  0  0  0  0
  3  6  1  0  0  0  0
  7  8  1  0  0  0  0
  7 13  1  0  0  0  0
  8  9  1  0  0  0  0
  8 11  1  0  0  0  0
  8 14  1  0  0  0  0
  9 10  2  0  0  0  0
  9 17  1  0  0  0  0
 11 12  1  0  0  0  0
 11 15  1  0  0  0  0
 11 16  1  0  0  0  0
 12 44  1  0  0  0  0
 17 18  1  0  0  0  0
 17 19  1  0  0  0  0
 18 20  1  0  0  0  0
 18 21  1  0  0  0  0
 18 22  1  0  0  0  0
 23 24  2  0  0  0  0
 23 25  1  0  0  0  0
 23 29  1  0  0  0  0
 25 26  1  0  0  0  0
 25 27  1  0  0  0  0
 25 28  1  0  0  0  0
 29 30  1  0  0  0  0
 29 34  1  0  0  0  0
 30 31  1  0  0  0  0
 30 33  1  0  0  0  0
 30 35  1  0  0  0  0
 31 32  2  0  0  0  0
 31 39  1  0  0  0  0
 33 36  1  0  0  0  0
 33 37  1  0  0  0  0
 33 38  1  0  0  0  0
 39 40  1  0  0  0  0
 39 45  1  0  0  0  0
 40 41  1  0  0  0  0
 40 43  1  0  0  0  0
 40 46  1  0  0  0  0
 41 42  2  0  0  0  0
 41 49  1  0  0  0  0
 43 44  1  0  0  0  0
 43 47  1  0  0  0  0
 43 48  1  0  0  0  0
 49 50  1  0  0  0  0
 49 54  1  0  0  0  0
 50 51  1  0  0  0  0
 50 53  1  0  0  0  0
 50 55  1  0  0  0  0
 51 52  2  0  0  0  0
 51 59  1  0  0  0  0
 53 56  1  0  0  0  0
 53 57  1  0  0  0  0
 53 58  1  0  0  0  0
 59 60  1  0  0  0  0
 59 61  1  0  0  0  0
 60 62  1  0  0  0  0
 60 63  1  0  0  0  0
 60 64  1  0  0  0  0
M  END
$$$$

  -OEChem-05262216053D

 64 63  0     1  0  0  0  0  0999 V2000
   -0.2223    6.5360    3.4787 C   0  0  0  0  0  0  0  0  0  0  0  0
   -1.1059    7.1760    2.9299 O   0  0  0  0  0  0  0  0  0  0  0  0
    0.5937    7.1659    4.5915 C   0  0  0  0  0  0  0  0  0  0  0  0
    1.6490    7.1936    4.3095 H   0  0  0  0  0  0  0  0  0  0  0  0
    0.2514    8.1876    4.7779 H   0  0  0  0  0  0  0  0  0  0  0  0
    0.4840    6.5843    5.5100 H   0  0  0  0  0  0  0  0  0  0  0  0
    0.0239    5.2339    3.1024 N   0  0  0  0  0  0  0  0  0  0  0  0
   -0.8052    4.4727    2.1559 C   0  0  2  0  0  0  0  0  0  0  0  0
   -0.8045    2.9616    2.4853 C   0  0  0  0  0  0  0  0  0  0  0  0
   -0.2983    2.5693    3.5331 O   0  0  0  0  0  0  0  0  0  0  0  0
   -0.3459    4.7682    0.7209 C   0  0  0  0  0  0  0  0  0  0  0  0
    1.3772    4.2126    0.3889 S   0  0  0  0  0  0  0  0  0  0  0  0
    0.6681    4.6941    3.6783 H   0  0  0  0  0  0  0  0  0  0  0  0
   -1.8456    4.8007    2.2504 H   0  0  0  0  0  0  0  0  0  0  0  0
   -1.0273    4.2930    0.0135 H   0  0  0  0  0  0  0  0  0  0  0  0
   -0.4052    5.8459    0.5407 H   0  0  0  0  0  0  0  0  0  0  0  0
   -1.4521    2.0418    1.6794 N   0  0  0  0  0  0  0  0  0  0  0  0
   -1.4600    0.6109    1.9612 C   0  0  0  0  0  0  0  0  0  0  0  0
   -1.6698    2.3430    0.7240 H   0  0  0  0  0  0  0  0  0  0  0  0
   -0.4404    0.2370    2.1013 H   0  0  0  0  0  0  0  0  0  0  0  0
   -2.0383    0.4030    2.8671 H   0  0  0  0  0  0  0  0  0  0  0  0
   -1.9123    0.0663    1.1282 H   0  0  0  0  0  0  0  0  0  0  0  0
   -3.9786   -0.7734   -0.7704 C   0  0  0  0  0  0  0  0  0  0  0  0
   -3.0199   -1.4992   -0.9980 O   0  0  0  0  0  0  0  0  0  0  0  0
   -4.9260   -1.1100    0.3653 C   0  0  0  0  0  0  0  0  0  0  0  0
   -5.9527   -1.1593   -0.0056 H   0  0  0  0  0  0  0  0  0  0  0  0
   -4.6626   -2.0778    0.8008 H   0  0  0  0  0  0  0  0  0  0  0  0
   -4.8635   -0.3450    1.1432 H   0  0  0  0  0  0  0  0  0  0  0  0
   -4.1640    0.3863   -1.4980 N   0  0  0  0  0  0  0  0  0  0  0  0
   -3.2156    0.8675   -2.5147 C   0  0  2  0  0  0  0  0  0  0  0  0
   -1.8576    1.2651   -1.8943 C   0  0  0  0  0  0  0  0  0  0  0  0
   -1.7886    2.2553   -1.1819 O   0  0  0  0  0  0  0  0  0  0  0  0
   -3.8583    2.0476   -3.2502 C   0  0  0  0  0  0  0  0  0  0  0  0
   -4.8773    1.0291   -1.1653 H   0  0  0  0  0  0  0  0  0  0  0  0
   -3.0346    0.0709   -3.2456 H   0  0  0  0  0  0  0  0  0  0  0  0
   -4.0870    2.8603   -2.5532 H   0  0  0  0  0  0  0  0  0  0  0  0
   -3.1771    2.4312   -4.0163 H   0  0  0  0  0  0  0  0  0  0  0  0
   -4.7860    1.7340   -3.7385 H   0  0  0  0  0  0  0  0  0  0  0  0
   -0.8666    0.3065   -1.9125 N   0  0  0  0  0  0  0  0  0  0  0  0
    0.5813    0.3178   -1.5986 C   0  0  2  0  0  0  0  0  0  0  0  0
    0.9748   -1.0811   -1.0735 C   0  0  0  0  0  0  0  0  0  0  0  0
    2.1509   -1.4199   -1.0930 O   0  0  0  0  0  0  0  0  0  0  0  0
    1.1716    1.4099   -0.6825 C   0  0  0  0  0  0  0  0  0  0  0  0
    1.0889    3.1158   -1.3680 S   0  0  0  0  0  0  0  0  0  0  0  0
   -1.1487   -0.5144   -2.4619 H   0  0  0  0  0  0  0  0  0  0  0  0
    1.0979    0.4326   -2.5569 H   0  0  0  0  0  0  0  0  0  0  0  0
    0.6509    1.3862    0.2744 H   0  0  0  0  0  0  0  0  0  0  0  0
    2.2242    1.1842   -0.4829 H   0  0  0  0  0  0  0  0  0  0  0  0
    0.0036   -2.0655   -0.9717 N   0  0  0  0  0  0  0  0  0  0  0  0
    0.1549   -3.3336   -1.6905 C   0  0  2  0  0  0  0  0  0  0  0  0
   -0.3241   -3.1975   -3.1563 C   0  0  0  0  0  0  0  0  0  0  0  0
   -0.8937   -2.1750   -3.5379 O   0  0  0  0  0  0  0  0  0  0  0  0
   -0.6640   -4.3862   -0.9405 C   0  0  0  0  0  0  0  0  0  0  0  0
   -0.9524   -1.6973   -0.9739 H   0  0  0  0  0  0  0  0  0  0  0  0
    1.2039   -3.6486   -1.6983 H   0  0  0  0  0  0  0  0  0  0  0  0
   -1.7236   -4.1101   -0.9258 H   0  0  0  0  0  0  0  0  0  0  0  0
   -0.5656   -5.3647   -1.4197 H   0  0  0  0  0  0  0  0  0  0  0  0
   -0.3120   -4.4705    0.0924 H   0  0  0  0  0  0  0  0  0  0  0  0
   -0.0873   -4.2128   -4.0641 N   0  0  0  0  0  0  0  0  0  0  0  0
   -0.4638   -4.1352   -5.4702 C   0  0  0  0  0  0  0  0  0  0  0  0
    0.4295   -5.0243   -3.7372 H   0  0  0  0  0  0  0  0  0  0  0  0
   -1.5417   -3.9695   -5.5698 H   0  0  0  0  0  0  0  0  0  0  0  0
    0.0665   -3.3143   -5.9642 H   0  0  0  0  0  0  0  0  0  0  0  0
   -0.2102   -5.0685   -5.9818 H   0  0  0  0  0  0  0  0  0  0  0  0
  1  2  2  0  0  0  0
  1  3  1  0  0  0  0
  1  7  1  0  0  0  0
  3  4  1  0  0  0  0
  3  5  1  0  0  0  0
  3  6  1  0  0  0  0
  7  8  1  0  0  0  0
  7 13  1  0  0  0  0
  8  9  1  0  0  0  0
  8 11  1  0  0  0  0
  8 14  1  0  0  0  0
  9 10  2  0  0  0  0
  9 17  1  0  0  0  0
 11 12  1  0  0  0  0
 11 15  1  0  0  0  0
 11 16  1  0  0  0  0
 12 44  1  0  0  0  0
 17 18  1  0  0  0  0
 17 19  1  0  0  0  0
 18 20  1  0  0  0  0
 18 21  1  0  0  0  0
 18 22  1  0  0  0  0
 23 24  2  0  0  0  0
 23 25  1  0  0  0  0
 23 29  1  0  0  0  0
 25 26  1  0  0  0  0
 25 27  1  0  0  0  0
 25 28  1  0  0  0  0
 29 30  1  0  0  0  0
 29 34  1  0  0  0  0
 30 31  1  0  0  0  0
 30 33  1  0  0  0  0
 30 35  1  0  0  0  0
 31 32  2  0  0  0  0
 31 39  1  0  0  0  0
 33 36  1  0  0  0  0
 33 37  1  0  0  0  0
 33 38  1  0  0  0  0
 39 40  1  0  0  0  0
 39 45  1  0  0  0  0
 40 41  1  0  0  0  0
 40 43  1  0  0  0  0
 40 46  1  0  0  0  0
 41 42  2  0  0  0  0
 41 49  1  0  0  0  0
 43 44  1  0  0  0  0
 43 47  1  0  0  0  0
 43 48  1  0  0  0  0
 49 50  1  0  0  0  0
 49 54  1  0  0  0  0
 50 51  1  0  0  0  0
 50 53  1  0  0  0  0
 50 55  1  0  0  0  0
 51 52  2  0  0  0  0
 51 59  1  0  0  0  0
 53 56  1  0  0  0  0
 53 57  1  0  0  0  0
 53 58  1  0  0  0  0
 59 60  1  0  0  0  0
 59 61  1  0  0  0  0
 60 62  1  0  0  0  0
 60 63  1  0  0  0  0
 60 64  1  0  0  0  0
M  END
$$$$

  -OEChem-05262216053D

 64 63  0     1  0  0  0  0  0999 V2000
   -1.2601    6.1563    3.3166 C   0  0  0  0  0  0  0  0  0  0  0  0
   -2.4229    5.9418    3.0094 O   0  0  0  0  0  0  0  0  0  0  0  0
   -0.8089    7.5637    3.6578 C   0  0  0  0  0  0  0  0  0  0  0  0
   -0.0502    7.8944    2.9446 H   0  0  0  0  0  0  0  0  0  0  0  0
   -1.6579    8.2516    3.6157 H   0  0  0  0  0  0  0  0  0  0  0  0
   -0.3867    7.5863    4.6654 H   0  0  0  0  0  0  0  0  0  0  0  0
   -0.3596    5.1154    3.3715 N   0  0  0  0  0  0  0  0  0  0  0  0
   -0.7043    3.7023    3.1596 C   0  0  2  0  0  0  0  0  0  0  0  0
    0.3077    2.7500    3.8344 C   0  0  0  0  0  0  0  0  0  0  0  0
    1.2132    3.2037    4.5274 O   0  0  0  0  0  0  0  0  0  0  0  0
   -0.8041    3.4161    1.6559 C   0  0  0  0  0  0  0  0  0  0  0  0
    0.8048    3.6707    0.8014 S   0  0  0  0  0  0  0  0  0  0  0  0
    0.5782    5.3143    3.7178 H   0  0  0  0  0  0  0  0  0  0  0  0
   -1.6783    3.5021    3.6177 H   0  0  0  0  0  0  0  0  0  0  0  0
   -1.1327    2.3854    1.5062 H   0  0  0  0  0  0  0  0  0  0  0  0
   -1.5586    4.0667    1.2029 H   0  0  0  0  0  0  0  0  0  0  0  0
    0.1832    1.3776    3.7036 N   0  0  0  0  0  0  0  0  0  0  0  0
    1.1387    0.4321    4.2673 C   0  0  0  0  0  0  0  0  0  0  0  0
   -0.5330    1.0309    3.0708 H   0  0  0  0  0  0  0  0  0  0  0  0
    2.1287    0.5767    3.8218 H   0  0  0  0  0  0  0  0  0  0  0  0
    1.2166    0.5661    5.3514 H   0  0  0  0  0  0  0  0  0  0  0  0
    0.8162   -0.5949    4.0701 H   0  0  0  0  0  0  0  0  0  0  0  0
   -5.6668    1.1644   -1.3588 C   0  0  0  0  0  0  0  0  0  0  0  0
   -5.8583    0.1025   -1.9305 O   0  0  0  0  0  0  0  0  0  0  0  0
   -6.6099    1.6163   -0.2598 C   0  0  0  0  0  0  0  0  0  0  0  0
   -7.0920    2.5542   -0.5452 H   0  0  0  0  0  0  0  0  0  0  0  0
   -7.3816    0.8603   -0.0900 H   0  0  0  0  0  0  0  0  0  0  0  0
   -6.0546    1.7675    0.6693 H   0  0  0  0  0  0  0  0  0  0  0  0
   -4.5835    1.9509   -1.6928 N   0  0  0  0  0  0  0  0  0  0  0  0
   -3.4642    1.4612   -2.5124 C   0  0  2  0  0  0  0  0  0  0  0  0
   -2.2663    0.9921   -1.6572 C   0  0  0  0  0  0  0  0  0  0  0  0
   -2.2261    1.2547   -0.4616 O   0  0  0  0  0  0  0  0  0  0  0  0
   -3.0347    2.6010   -3.4386 C   0  0  0  0  0  0  0  0  0  0  0  0
   -4.3728    2.6978   -1.0348 H   0  0  0  0  0  0  0  0  0  0  0  0
   -3.7868    0.6178   -3.1324 H   0  0  0  0  0  0  0  0  0  0  0  0
   -2.6737    3.4543   -2.8551 H   0  0  0  0  0  0  0  0  0  0  0  0
   -2.2323    2.2721   -4.1058 H   0  0  0  0  0  0  0  0  0  0  0  0
   -3.8794    2.9300   -4.0520 H   0  0  0  0  0  0  0  0  0  0  0  0
   -1.2995    0.1657   -2.2063 N   0  0  0  0  0  0  0  0  0  0  0  0
    0.1746    0.2717   -2.0152 C   0  0  2  0  0  0  0  0  0  0  0  0
    0.8659   -1.1098   -2.0915 C   0  0  0  0  0  0  0  0  0  0  0  0
    2.0540   -1.2345   -1.8261 O   0  0  0  0  0  0  0  0  0  0  0  0
    0.7053    1.1359   -0.8480 C   0  0  0  0  0  0  0  0  0  0  0  0
    0.3008    2.9213   -1.0775 S   0  0  0  0  0  0  0  0  0  0  0  0
   -1.5634   -0.1305   -3.1430 H   0  0  0  0  0  0  0  0  0  0  0  0
    0.5394    0.7899   -2.9073 H   0  0  0  0  0  0  0  0  0  0  0  0
    0.2800    0.7742    0.0925 H   0  0  0  0  0  0  0  0  0  0  0  0
    1.7934    1.0453   -0.7706 H   0  0  0  0  0  0  0  0  0  0  0  0
    0.1889   -2.1970   -2.6111 N   0  0  0  0  0  0  0  0  0  0  0  0
    0.8174   -3.4321   -3.0954 C   0  0  2  0  0  0  0  0  0  0  0  0
    0.1821   -3.8865   -4.4271 C   0  0  0  0  0  0  0  0  0  0  0  0
   -0.8084   -3.3068   -4.8627 O   0  0  0  0  0  0  0  0  0  0  0  0
    0.6578   -4.5050   -2.0149 C   0  0  0  0  0  0  0  0  0  0  0  0
   -0.7751   -2.0401   -2.8978 H   0  0  0  0  0  0  0  0  0  0  0  0
    1.8837   -3.2673   -3.2836 H   0  0  0  0  0  0  0  0  0  0  0  0
   -0.4022   -4.7032   -1.8265 H   0  0  0  0  0  0  0  0  0  0  0  0
    1.1376   -5.4385   -2.3240 H   0  0  0  0  0  0  0  0  0  0  0  0
    1.1224   -4.1730   -1.0808 H   0  0  0  0  0  0  0  0  0  0  0  0
    0.7292   -4.9322   -5.1475 N   0  0  0  0  0  0  0  0  0  0  0  0
    0.1834   -5.4051   -6.4141 C   0  0  0  0  0  0  0  0  0  0  0  0
    1.5582   -5.3826   -4.7702 H   0  0  0  0  0  0  0  0  0  0  0  0
   -0.8597   -5.7155   -6.2906 H   0  0  0  0  0  0  0  0  0  0  0  0
    0.2296   -4.6141   -7.1699 H   0  0  0  0  0  0  0  0  0  0  0  0
    0.7569   -6.2638   -6.7762 H   0  0  0  0  0  0  0  0  0  0  0  0
  1  2  2  0  0  0  0
  1  3  1  0  0  0  0
  1  7  1  0  0  0  0
  3  4  1  0  0  0  0
  3  5  1  0  0  0  0
  3  6  1  0  0  0  0
  7  8  1  0  0  0  0
  7 13  1  0  0  0  0
  8  9  1  0  0  0  0
  8 11  1  0  0  0  0
  8 14  1  0  0  0  0
  9 10  2  0  0  0  0
  9 17  1  0  0  0  0
 11 12  1  0  0  0  0
 11 15  1  0  0  0  0
 11 16  1  0  0  0  0
 12 44  1  0  0  0  0
 17 18  1  0  0  0  0
 17 19  1  0  0  0  0
 18 20  1  0  0  0  0
 18 21  1  0  0  0  0
 18 22  1  0  0  0  0
 23 24  2  0  0  0  0
 23 25  1  0  0  0  0
 23 29  1  0  0  0  0
 25 26  1  0  0  0  0
 25 27  1  0  0  0  0
 25 28  1  0  0  0  0
 29 30  1  0  0  0  0
 29 34  1  0  0  0  0
 30 31  1  0  0  0  0
 30 33  1  0  0  0  0
 30 35  1  0  0  0  0
 31 32  2  0  0  0  0
 31 39  1  0  0  0  0
 33 36  1  0  0  0  0
 33 37  1  0  0  0  0
 33 38  1  0  0  0  0
 39 40  1  0  0  0  0
 39 45  1  0  0  0  0
 40 41  1  0  0  0  0
 40 43  1  0  0  0  0
 40 46  1  0  0  0  0
 41 42  2  0  0  0  0
 41 49  1  0  0  0  0
 43 44  1  0  0  0  0
 43 47  1  0  0  0  0
 43 48  1  0  0  0  0
 49 50  1  0  0  0  0
 49 54  1  0  0  0  0
 50 51  1  0  0  0  0
 50 53  1  0  0  0  0
 50 55  1  0  0  0  0
 51 52  2  0  0  0  0
 51 59  1  0  0  0  0
 53 56  1  0  0  0  0
 53 57  1  0  0  0  0
 53 58  1  0  0  0  0
 59 60  1  0  0  0  0
 59 61  1  0  0  0  0
 60 62  1  0  0  0  0
 60 63  1  0  0  0  0
 60 64  1  0  0  0  0
M  END
$$$$

  -OEChem-05262216053D

 64 63  0     1  0  0  0  0  0999 V2000
   -1.2747    6.1154    3.3177 C   0  0  0  0  0  0  0  0  0  0  0  0
   -2.4313    5.8998    2.9888 O   0  0  0  0  0  0  0  0  0  0  0  0
   -0.8283    7.5260    3.6510 C   0  0  0  0  0  0  0  0  0  0  0  0
   -0.0109    7.8241    2.9897 H   0  0  0  0  0  0  0  0  0  0  0  0
   -1.6593    8.2249    3.5213 H   0  0  0  0  0  0  0  0  0  0  0  0
   -0.4860    7.5731    4.6877 H   0  0  0  0  0  0  0  0  0  0  0  0
   -0.3761    5.0748    3.4005 N   0  0  0  0  0  0  0  0  0  0  0  0
   -0.7094    3.6628    3.1688 C   0  0  2  0  0  0  0  0  0  0  0  0
    0.3056    2.7107    3.8384 C   0  0  0  0  0  0  0  0  0  0  0  0
    1.1922    3.1622    4.5569 O   0  0  0  0  0  0  0  0  0  0  0  0
   -0.7980    3.3922    1.6613 C   0  0  0  0  0  0  0  0  0  0  0  0
    0.8104    3.6739    0.8157 S   0  0  0  0  0  0  0  0  0  0  0  0
    0.5555    5.2748    3.7621 H   0  0  0  0  0  0  0  0  0  0  0  0
   -1.6847    3.4498    3.6184 H   0  0  0  0  0  0  0  0  0  0  0  0
   -1.1133    2.3594    1.4996 H   0  0  0  0  0  0  0  0  0  0  0  0
   -1.5583    4.0382    1.2119 H   0  0  0  0  0  0  0  0  0  0  0  0
    0.2066    1.3404    3.6699 N   0  0  0  0  0  0  0  0  0  0  0  0
    1.1776    0.3991    4.2133 C   0  0  0  0  0  0  0  0  0  0  0  0
   -0.4887    0.9998    3.0108 H   0  0  0  0  0  0  0  0  0  0  0  0
    2.1690    0.5821    3.7856 H   0  0  0  0  0  0  0  0  0  0  0  0
    1.2394    0.4979    5.3022 H   0  0  0  0  0  0  0  0  0  0  0  0
    0.8821   -0.6276    3.9769 H   0  0  0  0  0  0  0  0  0  0  0  0
   -5.6755    1.1453   -1.3951 C   0  0  0  0  0  0  0  0  0  0  0  0
   -5.8837    0.1159   -2.0182 O   0  0  0  0  0  0  0  0  0  0  0  0
   -6.6069    1.5533   -0.2692 C   0  0  0  0  0  0  0  0  0  0  0  0
   -7.0733    2.5139   -0.5006 H   0  0  0  0  0  0  0  0  0  0  0  0
   -7.3910    0.8025   -0.1382 H   0  0  0  0  0  0  0  0  0  0  0  0
   -6.0463    1.6431    0.6647 H   0  0  0  0  0  0  0  0  0  0  0  0
   -4.5798    1.9302   -1.6900 N   0  0  0  0  0  0  0  0  0  0  0  0
   -3.4627    1.4649   -2.5263 C   0  0  2  0  0  0  0  0  0  0  0  0
   -2.2497    1.0117   -1.6847 C   0  0  0  0  0  0  0  0  0  0  0  0
   -2.2093    1.2685   -0.4880 O   0  0  0  0  0  0  0  0  0  0  0  0
   -3.0647    2.6218   -3.4457 C   0  0  0  0  0  0  0  0  0  0  0  0
   -4.3547    2.6344   -0.9906 H   0  0  0  0  0  0  0  0  0  0  0  0
   -3.7754    0.6194   -3.1482 H   0  0  0  0  0  0  0  0  0  0  0  0
   -2.7153    3.4771   -2.8575 H   0  0  0  0  0  0  0  0  0  0  0  0
   -2.2625    2.3167   -4.1244 H   0  0  0  0  0  0  0  0  0  0  0  0
   -3.9233    2.9384   -4.0462 H   0  0  0  0  0  0  0  0  0  0  0  0
   -1.2734    0.2065   -2.2486 N   0  0  0  0  0  0  0  0  0  0  0  0
    0.1989    0.3071   -2.0416 C   0  0  2  0  0  0  0  0  0  0  0  0
    0.8907   -1.0733   -2.1561 C   0  0  0  0  0  0  0  0  0  0  0  0
    1.9593   -1.3000   -1.6037 O   0  0  0  0  0  0  0  0  0  0  0  0
    0.7200    1.1531   -0.8560 C   0  0  0  0  0  0  0  0  0  0  0  0
    0.3157    2.9404   -1.0716 S   0  0  0  0  0  0  0  0  0  0  0  0
   -1.5374   -0.0825   -3.1859 H   0  0  0  0  0  0  0  0  0  0  0  0
    0.5701    0.8469   -2.9183 H   0  0  0  0  0  0  0  0  0  0  0  0
    0.2887    0.7782    0.0769 H   0  0  0  0  0  0  0  0  0  0  0  0
    1.8080    1.0637   -0.7719 H   0  0  0  0  0  0  0  0  0  0  0  0
    0.3619   -2.0515   -2.9783 N   0  0  0  0  0  0  0  0  0  0  0  0
    1.0553   -3.2801   -3.3835 C   0  0  2  0  0  0  0  0  0  0  0  0
    0.7031   -3.6483   -4.8408 C   0  0  0  0  0  0  0  0  0  0  0  0
   -0.1814   -3.0328   -5.4288 O   0  0  0  0  0  0  0  0  0  0  0  0
    0.6543   -4.4003   -2.4193 C   0  0  0  0  0  0  0  0  0  0  0  0
   -0.4664   -1.8117   -3.5178 H   0  0  0  0  0  0  0  0  0  0  0  0
    2.1398   -3.1339   -3.3355 H   0  0  0  0  0  0  0  0  0  0  0  0
   -0.4257   -4.5754   -2.4614 H   0  0  0  0  0  0  0  0  0  0  0  0
    1.1693   -5.3312   -2.6746 H   0  0  0  0  0  0  0  0  0  0  0  0
    0.9230   -4.1291   -1.3933 H   0  0  0  0  0  0  0  0  0  0  0  0
    1.3911   -4.6473   -5.5038 N   0  0  0  0  0  0  0  0  0  0  0  0
    1.1259   -5.0198   -6.8884 C   0  0  0  0  0  0  0  0  0  0  0  0
    2.1360   -5.1210   -5.0012 H   0  0  0  0  0  0  0  0  0  0  0  0
    0.0722   -5.2888   -7.0191 H   0  0  0  0  0  0  0  0  0  0  0  0
    1.3634   -4.1886   -7.5605 H   0  0  0  0  0  0  0  0  0  0  0  0
    1.7385   -5.8810   -7.1723 H   0  0  0  0  0  0  0  0  0  0  0  0
  1  2  2  0  0  0  0
  1  3  1  0  0  0  0
  1  7  1  0  0  0  0
  3  4  1  0  0  0  0
  3  5  1  0  0  0  0
  3  6  1  0  0  0  0
  7  8  1  0  0  0  0
  7 13  1  0  0  0  0
  8  9  1  0  0  0  0
  8 11  1  0  0  0  0
  8 14  1  0  0  0  0
  9 10  2  0  0  0  0
  9 17  1  0  0  0  0
 11 12  1  0  0  0  0
 11 15  1  0  0  0  0
 11 16  1  0  0  0  0
 12 44  1  0  0  0  0
 17 18  1  0  0  0  0
 17 19  1  0  0  0  0
 18 20  1  0  0  0  0
 18 21  1  0  0  0  0
 18 22  1  0  0  0  0
 23 24  2  0  0  0  0
 23 25  1  0  0  0  0
 23 29  1  0  0  0  0
 25 26  1  0  0  0  0
 25 27  1  0  0  0  0
 25 28  1  0  0  0  0
 29 30  1  0  0  0  0
 29 34  1  0  0  0  0
 30 31  1  0  0  0  0
 30 33  1  0  0  0  0
 30 35  1  0  0  0  0
 31 32  2  0  0  0  0
 31 39  1  0  0  0  0
 33 36  1  0  0  0  0
 33 37  1  0  0  0  0
 33 38  1  0  0  0  0
 39 40  1  0  0  0  0
 39 45  1  0  0  0  0
 40 41  1  0  0  0  0
 40 43  1  0  0  0  0
 40 46  1  0  0  0  0
 41 42  2  0  0  0  0
 41 49  1  0  0  0  0
 43 44  1  0  0  0  0
 43 47  1  0  0  0  0
 43 48  1  0  0  0  0
 49 50  1  0  0  0  0
 49 54  1  0  0  0  0
 50 51  1  0  0  0  0
 50 53  1  0  0  0  0
 50 55  1  0  0  0  0
 51 52  2  0  0  0  0
 51 59  1  0  0  0  0
 53 56  1  0  0  0  0
 53 57  1  0  0  0  0
 53 58  1  0  0  0  0
 59 60  1  0  0  0  0
 59 61  1  0  0  0  0
 60 62  1  0  0  0  0
 60 63  1  0  0  0  0
 60 64  1  0  0  0  0
M  END
$$$$

  -OEChem-05262216053D

 64 63  0     1  0  0  0  0  0999 V2000
   -1.2590    6.1080    3.3437 C   0  0  0  0  0  0  0  0  0  0  0  0
   -2.4066    5.8922    2.9847 O   0  0  0  0  0  0  0  0  0  0  0  0
   -0.8251    7.5161    3.7035 C   0  0  0  0  0  0  0  0  0  0  0  0
   -0.0132    7.8347    3.0452 H   0  0  0  0  0  0  0  0  0  0  0  0
   -1.6639    8.2085    3.5914 H   0  0  0  0  0  0  0  0  0  0  0  0
   -0.4784    7.5469    4.7393 H   0  0  0  0  0  0  0  0  0  0  0  0
   -0.3583    5.0701    3.4355 N   0  0  0  0  0  0  0  0  0  0  0  0
   -0.6797    3.6584    3.1826 C   0  0  2  0  0  0  0  0  0  0  0  0
    0.3206    2.7036    3.8716 C   0  0  0  0  0  0  0  0  0  0  0  0
    1.1852    3.1521    4.6184 O   0  0  0  0  0  0  0  0  0  0  0  0
   -0.7271    3.4010    1.6708 C   0  0  0  0  0  0  0  0  0  0  0  0
    0.9056    3.6792    0.8718 S   0  0  0  0  0  0  0  0  0  0  0  0
    0.5626    5.2708    3.8229 H   0  0  0  0  0  0  0  0  0  0  0  0
   -1.6661    3.4384    3.6039 H   0  0  0  0  0  0  0  0  0  0  0  0
   -1.0437    2.3714    1.4922 H   0  0  0  0  0  0  0  0  0  0  0  0
   -1.4711    4.0546    1.2050 H   0  0  0  0  0  0  0  0  0  0  0  0
    0.2347    1.3345    3.6859 N   0  0  0  0  0  0  0  0  0  0  0  0
    1.1967    0.3923    4.2445 C   0  0  0  0  0  0  0  0  0  0  0  0
   -0.4344    0.9987    2.9980 H   0  0  0  0  0  0  0  0  0  0  0  0
    2.1940    0.5737    3.8303 H   0  0  0  0  0  0  0  0  0  0  0  0
    1.2435    0.4914    5.3342 H   0  0  0  0  0  0  0  0  0  0  0  0
    0.9034   -0.6345    4.0057 H   0  0  0  0  0  0  0  0  0  0  0  0
   -5.6703    1.0495   -1.4288 C   0  0  0  0  0  0  0  0  0  0  0  0
   -5.8901    0.0212   -2.0495 O   0  0  0  0  0  0  0  0  0  0  0  0
   -6.5929    1.4658   -0.2993 C   0  0  0  0  0  0  0  0  0  0  0  0
   -7.0566    2.4279   -0.5305 H   0  0  0  0  0  0  0  0  0  0  0  0
   -7.3787    0.7183   -0.1599 H   0  0  0  0  0  0  0  0  0  0  0  0
   -6.0253    1.5568    0.6300 H   0  0  0  0  0  0  0  0  0  0  0  0
   -4.5737    1.8292   -1.7322 N   0  0  0  0  0  0  0  0  0  0  0  0
   -3.4604    1.3630   -2.5729 C   0  0  2  0  0  0  0  0  0  0  0  0
   -2.1860    1.0769   -1.7483 C   0  0  0  0  0  0  0  0  0  0  0  0
   -2.1322    1.4357   -0.5797 O   0  0  0  0  0  0  0  0  0  0  0  0
   -3.1842    2.4446   -3.6186 C   0  0  0  0  0  0  0  0  0  0  0  0
   -4.3451    2.5407   -1.0407 H   0  0  0  0  0  0  0  0  0  0  0  0
   -3.7327    0.4395   -3.0940 H   0  0  0  0  0  0  0  0  0  0  0  0
   -2.8676    3.3744   -3.1348 H   0  0  0  0  0  0  0  0  0  0  0  0
   -2.3944    2.1228   -4.3042 H   0  0  0  0  0  0  0  0  0  0  0  0
   -4.0881    2.6453   -4.2026 H   0  0  0  0  0  0  0  0  0  0  0  0
   -1.1818    0.2861   -2.2841 N   0  0  0  0  0  0  0  0  0  0  0  0
    0.2863    0.3703   -2.0475 C   0  0  2  0  0  0  0  0  0  0  0  0
    0.9485   -1.0219   -2.1677 C   0  0  0  0  0  0  0  0  0  0  0  0
    1.7948   -1.4059   -1.3711 O   0  0  0  0  0  0  0  0  0  0  0  0
    0.8089    1.1959   -0.8499 C   0  0  0  0  0  0  0  0  0  0  0  0
    0.4435    2.9940   -1.0422 S   0  0  0  0  0  0  0  0  0  0  0  0
   -1.4458   -0.1069   -3.1824 H   0  0  0  0  0  0  0  0  0  0  0  0
    0.6790    0.9148   -2.9113 H   0  0  0  0  0  0  0  0  0  0  0  0
    0.3564    0.8188    0.0717 H   0  0  0  0  0  0  0  0  0  0  0  0
    1.8933    1.0792   -0.7551 H   0  0  0  0  0  0  0  0  0  0  0  0
    0.6097   -1.8513   -3.2213 N   0  0  0  0  0  0  0  0  0  0  0  0
    1.2991   -3.1018   -3.5595 C   0  0  2  0  0  0  0  0  0  0  0  0
    1.3228   -3.3076   -5.0885 C   0  0  0  0  0  0  0  0  0  0  0  0
    0.6652   -2.5656   -5.8124 O   0  0  0  0  0  0  0  0  0  0  0  0
    0.5725   -4.2575   -2.8651 C   0  0  0  0  0  0  0  0  0  0  0  0
    0.0458   -1.4498   -3.9677 H   0  0  0  0  0  0  0  0  0  0  0  0
    2.3384   -3.0657   -3.2154 H   0  0  0  0  0  0  0  0  0  0  0  0
   -0.4651   -4.3192   -3.2091 H   0  0  0  0  0  0  0  0  0  0  0  0
    1.0676   -5.2094   -3.0795 H   0  0  0  0  0  0  0  0  0  0  0  0
    0.5713   -4.1070   -1.7807 H   0  0  0  0  0  0  0  0  0  0  0  0
    2.0925   -4.3055   -5.6557 N   0  0  0  0  0  0  0  0  0  0  0  0
    2.1755   -4.5316   -7.0936 C   0  0  0  0  0  0  0  0  0  0  0  0
    2.6408   -4.8912   -5.0322 H   0  0  0  0  0  0  0  0  0  0  0  0
    1.1805   -4.7210   -7.5103 H   0  0  0  0  0  0  0  0  0  0  0  0
    2.6071   -3.6587   -7.5944 H   0  0  0  0  0  0  0  0  0  0  0  0
    2.8082   -5.3993   -7.3038 H   0  0  0  0  0  0  0  0  0  0  0  0
  1  2  2  0  0  0  0
  1  3  1  0  0  0  0
  1  7  1  0  0  0  0
  3  4  1  0  0  0  0
  3  5  1  0  0  0  0
  3  6  1  0  0  0  0
  7  8  1  0  0  0  0
  7 13  1  0  0  0  0
  8  9  1  0  0  0  0
  8 11  1  0  0  0  0
  8 14  1  0  0  0  0
  9 10  2  0  0  0  0
  9 17  1  0  0  0  0
 11 12  1  0  0  0  0
 11 15  1  0  0  0  0
 11 16  1  0  0  0  0
 12 44  1  0  0  0  0
 17 18  1  0  0  0  0
 17 19  1  0  0  0  0
 18 20  1  0  0  0  0
 18 21  1  0  0  0  0
 18 22  1  0  0  0  0
 23 24  2  0  0  0  0
 23 25  1  0  0  0  0
 23 29  1  0  0  0  0
 25 26  1  0  0  0  0
 25 27  1  0  0  0  0
 25 28  1  0  0  0  0
 29 30  1  0  0  0  0
 29 34  1  0  0  0  0
 30 31  1  0  0  0  0
 30 33  1  0  0  0  0
 30 35  1  0  0  0  0
 31 32  2  0  0  0  0
 31 39  1  0  0  0  0
 33 36  1  0  0  0  0
 33 37  1  0  0  0  0
 33 38  1  0  0  0  0
 39 40  1  0  0  0  0
 39 45  1  0  0  0  0
 40 41  1  0  0  0  0
 40 43  1  0  0  0  0
 40 46  1  0  0  0  0
 41 42  2  0  0  0  0
 41 49  1  0  0  0  0
 43 44  1  0  0  0  0
 43 47  1  0  0  0  0
 43 48  1  0  0  0  0
 49 50  1  0  0  0  0
 49 54  1  0  0  0  0
 50 51  1  0  0  0  0
 50 53  1  0  0  0  0
 50 55  1  0  0  0  0
 51 52  2  0  0  0  0
 51 59  1  0  0  0  0
 53 56  1  0  0  0  0
 53 57  1  0  0  0  0
 53 58  1  0  0  0  0
 59 60  1  0  0  0  0
 59 61  1  0  0  0  0
 60 62  1  0  0  0  0
 60 63  1  0  0  0  0
 60 64  1  0  0  0  0
M  END
$$$$

  -OEChem-05262216053D

 64 63  0     1  0  0  0  0  0999 V2000
   -1.2478    6.0994    3.3816 C   0  0  0  0  0  0  0  0  0  0  0  0
   -2.3992    5.8803    3.0371 O   0  0  0  0  0  0  0  0  0  0  0  0
   -0.8124    7.5112    3.7255 C   0  0  0  0  0  0  0  0  0  0  0  0
    0.0364    7.8020    3.1016 H   0  0  0  0  0  0  0  0  0  0  0  0
   -1.6340    8.2116    3.5512 H   0  0  0  0  0  0  0  0  0  0  0  0
   -0.5194    7.5651    4.7766 H   0  0  0  0  0  0  0  0  0  0  0  0
   -0.3435    5.0633    3.4621 N   0  0  0  0  0  0  0  0  0  0  0  0
   -0.6599    3.6541    3.1892 C   0  0  2  0  0  0  0  0  0  0  0  0
    0.3460    2.6907    3.8569 C   0  0  0  0  0  0  0  0  0  0  0  0
    1.2091    3.1275    4.6120 O   0  0  0  0  0  0  0  0  0  0  0  0
   -0.7078    3.4212    1.6741 C   0  0  0  0  0  0  0  0  0  0  0  0
    0.9288    3.6988    0.8826 S   0  0  0  0  0  0  0  0  0  0  0  0
    0.5832    5.2650    3.8349 H   0  0  0  0  0  0  0  0  0  0  0  0
   -1.6448    3.4229    3.6084 H   0  0  0  0  0  0  0  0  0  0  0  0
   -1.0310    2.3966    1.4793 H   0  0  0  0  0  0  0  0  0  0  0  0
   -1.4467    4.0866    1.2171 H   0  0  0  0  0  0  0  0  0  0  0  0
    0.2722    1.3263    3.6354 N   0  0  0  0  0  0  0  0  0  0  0  0
    1.2515    0.3815    4.1579 C   0  0  0  0  0  0  0  0  0  0  0  0
   -0.3953    1.0025    2.9400 H   0  0  0  0  0  0  0  0  0  0  0  0
    2.2469    0.6002    3.7569 H   0  0  0  0  0  0  0  0  0  0  0  0
    1.2924    0.4363    5.2509 H   0  0  0  0  0  0  0  0  0  0  0  0
    0.9801   -0.6401    3.8743 H   0  0  0  0  0  0  0  0  0  0  0  0
   -5.6997    1.0195   -1.5112 C   0  0  0  0  0  0  0  0  0  0  0  0
   -5.9279    0.0242   -2.1809 O   0  0  0  0  0  0  0  0  0  0  0  0
   -6.6570    1.4287   -0.4077 C   0  0  0  0  0  0  0  0  0  0  0  0
   -7.0556    2.4253   -0.6111 H   0  0  0  0  0  0  0  0  0  0  0  0
   -7.4889    0.7217   -0.3487 H   0  0  0  0  0  0  0  0  0  0  0  0
   -6.1363    1.4414    0.5530 H   0  0  0  0  0  0  0  0  0  0  0  0
   -4.5661    1.7707   -1.7417 N   0  0  0  0  0  0  0  0  0  0  0  0
   -3.4446    1.3202   -2.5800 C   0  0  2  0  0  0  0  0  0  0  0  0
   -2.1638    1.0754   -1.7530 C   0  0  0  0  0  0  0  0  0  0  0  0
   -2.1136    1.4696   -0.5958 O   0  0  0  0  0  0  0  0  0  0  0  0
   -3.1980    2.4010   -3.6348 C   0  0  0  0  0  0  0  0  0  0  0  0
   -4.3383    2.4514   -1.0189 H   0  0  0  0  0  0  0  0  0  0  0  0
   -3.6932    0.3834   -3.0895 H   0  0  0  0  0  0  0  0  0  0  0  0
   -2.9286    3.3486   -3.1567 H   0  0  0  0  0  0  0  0  0  0  0  0
   -2.3859    2.1071   -4.3066 H   0  0  0  0  0  0  0  0  0  0  0  0
   -4.1015    2.5569   -4.2328 H   0  0  0  0  0  0  0  0  0  0  0  0
   -1.1480    0.2903   -2.2744 N   0  0  0  0  0  0  0  0  0  0  0  0
    0.3163    0.3816   -2.0293 C   0  0  2  0  0  0  0  0  0  0  0  0
    0.9770   -1.0084   -2.1402 C   0  0  0  0  0  0  0  0  0  0  0  0
    1.6027   -1.5020   -1.2110 O   0  0  0  0  0  0  0  0  0  0  0  0
    0.8368    1.2078   -0.8334 C   0  0  0  0  0  0  0  0  0  0  0  0
    0.4708    3.0054   -1.0287 S   0  0  0  0  0  0  0  0  0  0  0  0
   -1.4077   -0.1474   -3.1536 H   0  0  0  0  0  0  0  0  0  0  0  0
    0.7114    0.9272   -2.8915 H   0  0  0  0  0  0  0  0  0  0  0  0
    0.3810    0.8332    0.0880 H   0  0  0  0  0  0  0  0  0  0  0  0
    1.9203    1.0852   -0.7369 H   0  0  0  0  0  0  0  0  0  0  0  0
    0.8892   -1.7037   -3.3324 N   0  0  0  0  0  0  0  0  0  0  0  0
    1.6171   -2.9425   -3.6328 C   0  0  2  0  0  0  0  0  0  0  0  0
    1.9637   -3.0166   -5.1350 C   0  0  0  0  0  0  0  0  0  0  0  0
    1.4661   -2.2098   -5.9147 O   0  0  0  0  0  0  0  0  0  0  0  0
    0.7470   -4.1315   -3.2140 C   0  0  0  0  0  0  0  0  0  0  0  0
    0.5296   -1.1996   -4.1422 H   0  0  0  0  0  0  0  0  0  0  0  0
    2.5597   -2.9684   -3.0756 H   0  0  0  0  0  0  0  0  0  0  0  0
   -0.1935   -4.1334   -3.7743 H   0  0  0  0  0  0  0  0  0  0  0  0
    1.2670   -5.0757   -3.4023 H   0  0  0  0  0  0  0  0  0  0  0  0
    0.5158   -4.0737   -2.1454 H   0  0  0  0  0  0  0  0  0  0  0  0
    2.8481   -3.9666   -5.6104 N   0  0  0  0  0  0  0  0  0  0  0  0
    3.2444   -4.0604   -7.0104 C   0  0  0  0  0  0  0  0  0  0  0  0
    3.2657   -4.6029   -4.9372 H   0  0  0  0  0  0  0  0  0  0  0  0
    2.3679   -4.2133   -7.6490 H   0  0  0  0  0  0  0  0  0  0  0  0
    3.7548   -3.1441   -7.3255 H   0  0  0  0  0  0  0  0  0  0  0  0
    3.9265   -4.9037   -7.1546 H   0  0  0  0  0  0  0  0  0  0  0  0
  1  2  2  0  0  0  0
  1  3  1  0  0  0  0
  1  7  1  0  0  0  0
  3  4  1  0  0  0  0
  3  5  1  0  0  0  0
  3  6  1  0  0  0  0
  7  8  1  0  0  0  0
  7 13  1  0  0  0  0
  8  9  1  0  0  0  0
  8 11  1  0  0  0  0
  8 14  1  0  0  0  0
  9 10  2  0  0  0  0
  9 17  1  0  0  0  0
 11 12  1  0  0  0  0
 11 15  1  0  0  0  0
 11 16  1  0  0  0  0
 12 44  1  0  0  0  0
 17 18  1  0  0  0  0
 17 19  1  0  0  0  0
 18 20  1  0  0  0  0
 18 21  1  0  0  0  0
 18 22  1  0  0  0  0
 23 24  2  0  0  0  0
 23 25  1  0  0  0  0
 23 29  1  0  0  0  0
 25 26  1  0  0  0  0
 25 27  1  0  0  0  0
 25 28  1  0  0  0  0
 29 30  1  0  0  0  0
 29 34  1  0  0  0  0
 30 31  1  0  0  0  0
 30 33  1  0  0  0  0
 30 35  1  0  0  0  0
 31 32  2  0  0  0  0
 31 39  1  0  0  0  0
 33 36  1  0  0  0  0
 33 37  1  0  0  0  0
 33 38  1  0  0  0  0
 39 40  1  0  0  0  0
 39 45  1  0  0  0  0
 40 41  1  0  0  0  0
 40 43  1  0  0  0  0
 40 46  1  0  0  0  0
 41 42  2  0  0  0  0
 41 49  1  0  0  0  0
 43 44  1  0  0  0  0
 43 47  1  0  0  0  0
 43 48  1  0  0  0  0
 49 50  1  0  0  0  0
 49 54  1  0  0  0  0
 50 51  1  0  0  0  0
 50 53  1  0  0  0  0
 50 55  1  0  0  0  0
 51 52  2  0  0  0  0
 51 59  1  0  0  0  0
 53 56  1  0  0  0  0
 53 57  1  0  0  0  0
 53 58  1  0  0  0  0
 59 60  1  0  0  0  0
 59 61  1  0  0  0  0
 60 62  1  0  0  0  0
 60 63  1  0  0  0  0
 60 64  1  0  0  0  0
M  END
$$$$

  -OEChem-05262216053D

 64 63  0     1  0  0  0  0  0999 V2000
   -0.4484    6.0069    4.0275 C   0  0  0  0  0  0  0  0  0  0  0  0
   -1.6052    6.3503    3.8382 O   0  0  0  0  0  0  0  0  0  0  0  0
    0.4592    6.8391    4.9129 C   0  0  0  0  0  0  0  0  0  0  0  0
    1.3187    7.1906    4.3368 H   0  0  0  0  0  0  0  0  0  0  0  0
   -0.0840    7.7048    5.3020 H   0  0  0  0  0  0  0  0  0  0  0  0
    0.8135    6.2378    5.7540 H   0  0  0  0  0  0  0  0  0  0  0  0
    0.0342    4.8571    3.4435 N   0  0  0  0  0  0  0  0  0  0  0  0
   -0.7903    3.8971    2.6957 C   0  0  2  0  0  0  0  0  0  0  0  0
   -0.2228    2.4622    2.7961 C   0  0  0  0  0  0  0  0  0  0  0  0
    0.7078    2.2340    3.5640 O   0  0  0  0  0  0  0  0  0  0  0  0
   -0.9369    4.3737    1.2438 C   0  0  0  0  0  0  0  0  0  0  0  0
    0.6717    4.4412    0.3507 S   0  0  0  0  0  0  0  0  0  0  0  0
    0.9560    4.5341    3.7344 H   0  0  0  0  0  0  0  0  0  0  0  0
   -1.7885    3.8602    3.1442 H   0  0  0  0  0  0  0  0  0  0  0  0
   -1.6258    3.7160    0.7131 H   0  0  0  0  0  0  0  0  0  0  0  0
   -1.3831    5.3729    1.2362 H   0  0  0  0  0  0  0  0  0  0  0  0
   -0.7967    1.4057    2.1111 N   0  0  0  0  0  0  0  0  0  0  0  0
   -0.2619    0.0493    2.1619 C   0  0  0  0  0  0  0  0  0  0  0  0
   -1.4153    1.6414    1.3303 H   0  0  0  0  0  0  0  0  0  0  0  0
    0.7890    0.0344    1.8531 H   0  0  0  0  0  0  0  0  0  0  0  0
   -0.3362   -0.3536    3.1772 H   0  0  0  0  0  0  0  0  0  0  0  0
   -0.8269   -0.6022    1.4879 H   0  0  0  0  0  0  0  0  0  0  0  0
   -5.9087    0.8738   -1.4592 C   0  0  0  0  0  0  0  0  0  0  0  0
   -6.2116   -0.0251   -2.2277 O   0  0  0  0  0  0  0  0  0  0  0  0
   -6.9363    1.4324   -0.4932 C   0  0  0  0  0  0  0  0  0  0  0  0
   -7.0772    2.5006   -0.6750 H   0  0  0  0  0  0  0  0  0  0  0  0
   -7.8948    0.9231   -0.6260 H   0  0  0  0  0  0  0  0  0  0  0  0
   -6.5995    1.2860    0.5358 H   0  0  0  0  0  0  0  0  0  0  0  0
   -4.6252    1.3780   -1.4655 N   0  0  0  0  0  0  0  0  0  0  0  0
   -3.5232    0.8255   -2.2655 C   0  0  2  0  0  0  0  0  0  0  0  0
   -2.1512    1.0068   -1.5801 C   0  0  0  0  0  0  0  0  0  0  0  0
   -2.0851    1.6156   -0.5189 O   0  0  0  0  0  0  0  0  0  0  0  0
   -3.5319    1.5155   -3.6336 C   0  0  0  0  0  0  0  0  0  0  0  0
   -4.3790    2.0402   -0.7312 H   0  0  0  0  0  0  0  0  0  0  0  0
   -3.6765   -0.2505   -2.4036 H   0  0  0  0  0  0  0  0  0  0  0  0
   -3.3622    2.5912   -3.5216 H   0  0  0  0  0  0  0  0  0  0  0  0
   -2.7507    1.1047   -4.2796 H   0  0  0  0  0  0  0  0  0  0  0  0
   -4.4975    1.3652   -4.1268 H   0  0  0  0  0  0  0  0  0  0  0  0
   -1.0532    0.3148   -2.0630 N   0  0  0  0  0  0  0  0  0  0  0  0
    0.3812    0.7014   -2.0350 C   0  0  2  0  0  0  0  0  0  0  0  0
    1.2625   -0.5619   -1.9567 C   0  0  0  0  0  0  0  0  0  0  0  0
    1.8076   -0.8933   -0.9122 O   0  0  0  0  0  0  0  0  0  0  0  0
    0.8669    1.7949   -1.0612 C   0  0  0  0  0  0  0  0  0  0  0  0
    0.1712    3.4612   -1.4263 S   0  0  0  0  0  0  0  0  0  0  0  0
   -1.2990   -0.3323   -2.8076 H   0  0  0  0  0  0  0  0  0  0  0  0
    0.5870    1.1298   -3.0204 H   0  0  0  0  0  0  0  0  0  0  0  0
    0.6051    1.5060   -0.0442 H   0  0  0  0  0  0  0  0  0  0  0  0
    1.9587    1.8653   -1.1036 H   0  0  0  0  0  0  0  0  0  0  0  0
    1.4359   -1.3500   -3.0793 N   0  0  0  0  0  0  0  0  0  0  0  0
    2.3640   -2.4858   -3.1610 C   0  0  2  0  0  0  0  0  0  0  0  0
    2.8872   -2.6645   -4.6016 C   0  0  0  0  0  0  0  0  0  0  0  0
    2.3553   -2.0507   -5.5215 O   0  0  0  0  0  0  0  0  0  0  0  0
    1.6369   -3.7484   -2.6870 C   0  0  0  0  0  0  0  0  0  0  0  0
    1.1027   -0.9843   -3.9713 H   0  0  0  0  0  0  0  0  0  0  0  0
    3.2314   -2.3046   -2.5167 H   0  0  0  0  0  0  0  0  0  0  0  0
    0.7739   -3.9576   -3.3271 H   0  0  0  0  0  0  0  0  0  0  0  0
    2.3082   -4.6118   -2.7140 H   0  0  0  0  0  0  0  0  0  0  0  0
    1.2845   -3.6203   -1.6586 H   0  0  0  0  0  0  0  0  0  0  0  0
    3.9659   -3.4880   -4.8654 N   0  0  0  0  0  0  0  0  0  0  0  0
    4.5310   -3.6611   -6.1983 C   0  0  0  0  0  0  0  0  0  0  0  0
    4.4086   -3.9553   -4.0790 H   0  0  0  0  0  0  0  0  0  0  0  0
    3.7680   -4.0250   -6.8948 H   0  0  0  0  0  0  0  0  0  0  0  0
    4.9261   -2.7111   -6.5734 H   0  0  0  0  0  0  0  0  0  0  0  0
    5.3478   -4.3888   -6.1717 H   0  0  0  0  0  0  0  0  0  0  0  0
  1  2  2  0  0  0  0
  1  3  1  0  0  0  0
  1  7  1  0  0  0  0
  3  4  1  0  0  0  0
  3  5  1  0  0  0  0
  3  6  1  0  0  0  0
  7  8  1  0  0  0  0
  7 13  1  0  0  0  0
  8  9  1  0  0  0  0
  8 11  1  0  0  0  0
  8 14  1  0  0  0  0
  9 10  2  0  0  0  0
  9 17  1  0  0  0  0
 11 12  1  0  0  0  0
 11 15  1  0  0  0  0
 11 16  1  0  0  0  0
 12 44  1  0  0  0  0
 17 18  1  0  0  0  0
 17 19  1  0  0  0  0
 18 20  1  0  0  0  0
 18 21  1  0  0  0  0
 18 22  1  0  0  0  0
 23 24  2  0  0  0  0
 23 25  1  0  0  0  0
 23 29  1  0  0  0  0
 25 26  1  0  0  0  0
 25 27  1  0  0  0  0
 25 28  1  0  0  0  0
 29 30  1  0  0  0  0
 29 34  1  0  0  0  0
 30 31  1  0  0  0  0
 30 33  1  0  0  0  0
 30 35  1  0  0  0  0
 31 32  2  0  0  0  0
 31 39  1  0  0  0  0
 33 36  1  0  0  0  0
 33 37  1  0  0  0  0
 33 38  1  0  0  0  0
 39 40  1  0  0  0  0
 39 45  1  0  0  0  0
 40 41  1  0  0  0  0
 40 43  1  0  0  0  0
 40 46  1  0  0  0  0
 41 42  2  0  0  0  0
 41 49  1  0  0  0  0
 43 44  1  0  0  0  0
 43 47  1  0  0  0  0
 43 48  1  0  0  0  0
 49 50  1  0  0  0  0
 49 54  1  0  0  0  0
 50 51  1  0  0  0  0
 50 53  1  0  0  0  0
 50 55  1  0  0  0  0
 51 52  2  0  0  0  0
 51 59  1  0  0  0  0
 53 56  1  0  0  0  0
 53 57  1  0  0  0  0
 53 58  1  0  0  0  0
 59 60  1  0  0  0  0
 59 61  1  0  0  0  0
 60 62  1  0  0  0  0
 60 63  1  0  0  0  0
 60 64  1  0  0  0  0
M  END
$$$$

  -OEChem-05262216053D

 64 63  0     1  0  0  0  0  0999 V2000
   -0.3491    6.0470    3.9576 C   0  0  0  0  0  0  0  0  0  0  0  0
   -1.4925    6.4229    3.7504 O   0  0  0  0  0  0  0  0  0  0  0  0
    0.5878    6.8896    4.8018 C   0  0  0  0  0  0  0  0  0  0  0  0
    1.4621    7.1769    4.2126 H   0  0  0  0  0  0  0  0  0  0  0  0
    0.0772    7.7947    5.1423 H   0  0  0  0  0  0  0  0  0  0  0  0
    0.9156    6.3214    5.6754 H   0  0  0  0  0  0  0  0  0  0  0  0
    0.0907    4.8525    3.4315 N   0  0  0  0  0  0  0  0  0  0  0  0
   -0.7580    3.9036    2.6956 C   0  0  2  0  0  0  0  0  0  0  0  0
   -0.2289    2.4547    2.8091 C   0  0  0  0  0  0  0  0  0  0  0  0
    0.6937    2.2074    3.5808 O   0  0  0  0  0  0  0  0  0  0  0  0
   -0.8938    4.3663    1.2382 C   0  0  0  0  0  0  0  0  0  0  0  0
    0.7175    4.4037    0.3496 S   0  0  0  0  0  0  0  0  0  0  0  0
    1.0042    4.5127    3.7294 H   0  0  0  0  0  0  0  0  0  0  0  0
   -1.7570    3.8977    3.1438 H   0  0  0  0  0  0  0  0  0  0  0  0
   -1.5897    3.7120    0.7123 H   0  0  0  0  0  0  0  0  0  0  0  0
   -1.3269    5.3708    1.2170 H   0  0  0  0  0  0  0  0  0  0  0  0
   -0.8285    1.4099    2.1277 N   0  0  0  0  0  0  0  0  0  0  0  0
   -0.3357    0.0382    2.1889 C   0  0  0  0  0  0  0  0  0  0  0  0
   -1.4375    1.6578    1.3431 H   0  0  0  0  0  0  0  0  0  0  0  0
    0.7266   -0.0058    1.9260 H   0  0  0  0  0  0  0  0  0  0  0  0
   -0.4671   -0.3720    3.1952 H   0  0  0  0  0  0  0  0  0  0  0  0
   -0.8887   -0.5898    1.4837 H   0  0  0  0  0  0  0  0  0  0  0  0
   -5.9279    0.8480   -1.4662 C   0  0  0  0  0  0  0  0  0  0  0  0
   -6.2280   -0.0551   -2.2308 O   0  0  0  0  0  0  0  0  0  0  0  0
   -6.9626    1.4154   -0.5130 C   0  0  0  0  0  0  0  0  0  0  0  0
   -7.1204    2.4765   -0.7211 H   0  0  0  0  0  0  0  0  0  0  0  0
   -7.9133    0.8878   -0.6314 H   0  0  0  0  0  0  0  0  0  0  0  0
   -6.6227    1.3001    0.5190 H   0  0  0  0  0  0  0  0  0  0  0  0
   -4.6408    1.3433   -1.4617 N   0  0  0  0  0  0  0  0  0  0  0  0
   -3.5336    0.7718   -2.2410 C   0  0  2  0  0  0  0  0  0  0  0  0
   -2.1647    0.9727   -1.5547 C   0  0  0  0  0  0  0  0  0  0  0  0
   -2.1025    1.6182   -0.5151 O   0  0  0  0  0  0  0  0  0  0  0  0
   -3.5338    1.4249   -3.6276 C   0  0  0  0  0  0  0  0  0  0  0  0
   -4.3974    2.0106   -0.7310 H   0  0  0  0  0  0  0  0  0  0  0  0
   -3.6853   -0.3076   -2.3506 H   0  0  0  0  0  0  0  0  0  0  0  0
   -3.3753    2.5048   -3.5418 H   0  0  0  0  0  0  0  0  0  0  0  0
   -2.7414    1.0049   -4.2540 H   0  0  0  0  0  0  0  0  0  0  0  0
   -4.4923    1.2528   -4.1280 H   0  0  0  0  0  0  0  0  0  0  0  0
   -1.0652    0.2675   -2.0157 N   0  0  0  0  0  0  0  0  0  0  0  0
    0.3718    0.6442   -1.9848 C   0  0  2  0  0  0  0  0  0  0  0  0
    1.2572   -0.6126   -1.8772 C   0  0  0  0  0  0  0  0  0  0  0  0
    1.5784   -1.0603   -0.7846 O   0  0  0  0  0  0  0  0  0  0  0  0
    0.8685    1.7438   -1.0259 C   0  0  0  0  0  0  0  0  0  0  0  0
    0.1942    3.4128   -1.4131 S   0  0  0  0  0  0  0  0  0  0  0  0
   -1.3078   -0.4027   -2.7407 H   0  0  0  0  0  0  0  0  0  0  0  0
    0.5793    1.0582   -2.9760 H   0  0  0  0  0  0  0  0  0  0  0  0
    0.6002    1.4704   -0.0060 H   0  0  0  0  0  0  0  0  0  0  0  0
    1.9611    1.8000   -1.0654 H   0  0  0  0  0  0  0  0  0  0  0  0
    1.7020   -1.2515   -3.0196 N   0  0  0  0  0  0  0  0  0  0  0  0
    2.7002   -2.3292   -3.0277 C   0  0  2  0  0  0  0  0  0  0  0  0
    3.4977   -2.3312   -4.3491 C   0  0  0  0  0  0  0  0  0  0  0  0
    3.1145   -1.6452   -5.2913 O   0  0  0  0  0  0  0  0  0  0  0  0
    1.9848   -3.6683   -2.8228 C   0  0  0  0  0  0  0  0  0  0  0  0
    1.5411   -0.7896   -3.9150 H   0  0  0  0  0  0  0  0  0  0  0  0
    3.4164   -2.1746   -2.2134 H   0  0  0  0  0  0  0  0  0  0  0  0
    1.2686   -3.8477   -3.6308 H   0  0  0  0  0  0  0  0  0  0  0  0
    2.7059   -4.4909   -2.8061 H   0  0  0  0  0  0  0  0  0  0  0  0
    1.4440   -3.6684   -1.8710 H   0  0  0  0  0  0  0  0  0  0  0  0
    4.6556   -3.0759   -4.4758 N   0  0  0  0  0  0  0  0  0  0  0  0
    5.4589   -3.1057   -5.6926 C   0  0  0  0  0  0  0  0  0  0  0  0
    4.9586   -3.6195   -3.6725 H   0  0  0  0  0  0  0  0  0  0  0  0
    4.8794   -3.5202   -6.5241 H   0  0  0  0  0  0  0  0  0  0  0  0
    5.7877   -2.0961   -5.9614 H   0  0  0  0  0  0  0  0  0  0  0  0
    6.3462   -3.7289   -5.5452 H   0  0  0  0  0  0  0  0  0  0  0  0
  1  2  2  0  0  0  0
  1  3  1  0  0  0  0
  1  7  1  0  0  0  0
  3  4  1  0  0  0  0
  3  5  1  0  0  0  0
  3  6  1  0  0  0  0
  7  8  1  0  0  0  0
  7 13  1  0  0  0  0
  8  9  1  0  0  0  0
  8 11  1  0  0  0  0
  8 14  1  0  0  0  0
  9 10  2  0  0  0  0
  9 17  1  0  0  0  0
 11 12  1  0  0  0  0
 11 15  1  0  0  0  0
 11 16  1  0  0  0  0
 12 44  1  0  0  0  0
 17 18  1  0  0  0  0
 17 19  1  0  0  0  0
 18 20  1  0  0  0  0
 18 21  1  0  0  0  0
 18 22  1  0  0  0  0
 23 24  2  0  0  0  0
 23 25  1  0  0  0  0
 23 29  1  0  0  0  0
 25 26  1  0  0  0  0
 25 27  1  0  0  0  0
 25 28  1  0  0  0  0
 29 30  1  0  0  0  0
 29 34  1  0  0  0  0
 30 31  1  0  0  0  0
 30 33  1  0  0  0  0
 30 35  1  0  0  0  0
 31 32  2  0  0  0  0
 31 39  1  0  0  0  0
 33 36  1  0  0  0  0
 33 37  1  0  0  0  0
 33 38  1  0  0  0  0
 39 40  1  0  0  0  0
 39 45  1  0  0  0  0
 40 41  1  0  0  0  0
 40 43  1  0  0  0  0
 40 46  1  0  0  0  0
 41 42  2  0  0  0  0
 41 49  1  0  0  0  0
 43 44  1  0  0  0  0
 43 47  1  0  0  0  0
 43 48  1  0  0  0  0
 49 50  1  0  0  0  0
 49 54  1  0  0  0  0
 50 51  1  0  0  0  0
 50 53  1  0  0  0  0
 50 55  1  0  0  0  0
 51 52  2  0  0  0  0
 51 59  1  0  0  0  0
 53 56  1  0  0  0  0
 53 57  1  0  0  0  0
 53 58  1  0  0  0  0
 59 60  1  0  0  0  0
 59 61  1  0  0  0  0
 60 62  1  0  0  0  0
 60 63  1  0  0  0  0
 60 64  1  0  0  0  0
M  END
$$$$

  -OEChem-05262216053D

 64 63  0     1  0  0  0  0  0999 V2000
   -0.2991    6.0785    3.9165 C   0  0  0  0  0  0  0  0  0  0  0  0
   -1.4306    6.4768    3.6864 O   0  0  0  0  0  0  0  0  0  0  0  0
    0.6547    6.9254    4.7368 C   0  0  0  0  0  0  0  0  0  0  0  0
    1.5211    7.1996    4.1302 H   0  0  0  0  0  0  0  0  0  0  0  0
    0.1551    7.8386    5.0721 H   0  0  0  0  0  0  0  0  0  0  0  0
    0.9936    6.3662    5.6123 H   0  0  0  0  0  0  0  0  0  0  0  0
    0.1153    4.8589    3.4289 N   0  0  0  0  0  0  0  0  0  0  0  0
   -0.7444    3.9181    2.6959 C   0  0  2  0  0  0  0  0  0  0  0  0
   -0.2429    2.4609    2.8289 C   0  0  0  0  0  0  0  0  0  0  0  0
    0.6710    2.2051    3.6083 O   0  0  0  0  0  0  0  0  0  0  0  0
   -0.8582    4.3668    1.2317 C   0  0  0  0  0  0  0  0  0  0  0  0
    0.7627    4.3645    0.3592 S   0  0  0  0  0  0  0  0  0  0  0  0
    1.0184    4.5054    3.7420 H   0  0  0  0  0  0  0  0  0  0  0  0
   -1.7466    3.9371    3.1364 H   0  0  0  0  0  0  0  0  0  0  0  0
   -1.5604    3.7190    0.7061 H   0  0  0  0  0  0  0  0  0  0  0  0
   -1.2734    5.3787    1.1945 H   0  0  0  0  0  0  0  0  0  0  0  0
   -0.8548    1.4198    2.1528 N   0  0  0  0  0  0  0  0  0  0  0  0
   -0.3871    0.0399    2.2327 C   0  0  0  0  0  0  0  0  0  0  0  0
   -1.4546    1.6701    1.3618 H   0  0  0  0  0  0  0  0  0  0  0  0
    0.6849   -0.0209    2.0171 H   0  0  0  0  0  0  0  0  0  0  0  0
   -0.5692   -0.3682    3.2320 H   0  0  0  0  0  0  0  0  0  0  0  0
   -0.9168   -0.5797    1.5023 H   0  0  0  0  0  0  0  0  0  0  0  0
   -5.9234    0.8658   -1.4635 C   0  0  0  0  0  0  0  0  0  0  0  0
   -6.2352   -0.0469   -2.2118 O   0  0  0  0  0  0  0  0  0  0  0  0
   -6.9582    1.4873   -0.5451 C   0  0  0  0  0  0  0  0  0  0  0  0
   -6.9851    2.5695   -0.6926 H   0  0  0  0  0  0  0  0  0  0  0  0
   -7.9489    1.0784   -0.7626 H   0  0  0  0  0  0  0  0  0  0  0  0
   -6.7082    1.2736    0.4969 H   0  0  0  0  0  0  0  0  0  0  0  0
   -4.6231    1.3248   -1.4460 N   0  0  0  0  0  0  0  0  0  0  0  0
   -3.5193    0.7118   -2.1981 C   0  0  2  0  0  0  0  0  0  0  0  0
   -2.1509    0.9329   -1.5174 C   0  0  0  0  0  0  0  0  0  0  0  0
   -2.0885    1.6169   -0.5030 O   0  0  0  0  0  0  0  0  0  0  0  0
   -3.5085    1.3019   -3.6131 C   0  0  0  0  0  0  0  0  0  0  0  0
   -4.3744    2.0026   -0.7266 H   0  0  0  0  0  0  0  0  0  0  0  0
   -3.6809   -0.3701   -2.2596 H   0  0  0  0  0  0  0  0  0  0  0  0
   -3.3485    2.3843   -3.5753 H   0  0  0  0  0  0  0  0  0  0  0  0
   -2.7122    0.8524   -4.2137 H   0  0  0  0  0  0  0  0  0  0  0  0
   -4.4632    1.1085   -4.1126 H   0  0  0  0  0  0  0  0  0  0  0  0
   -1.0525    0.2154   -1.9600 N   0  0  0  0  0  0  0  0  0  0  0  0
    0.3873    0.5780   -1.9285 C   0  0  2  0  0  0  0  0  0  0  0  0
    1.2675   -0.6801   -1.7978 C   0  0  0  0  0  0  0  0  0  0  0  0
    1.3515   -1.2724   -0.7304 O   0  0  0  0  0  0  0  0  0  0  0  0
    0.8951    1.6831   -0.9833 C   0  0  0  0  0  0  0  0  0  0  0  0
    0.2415    3.3549   -1.3935 S   0  0  0  0  0  0  0  0  0  0  0  0
   -1.2953   -0.4811   -2.6593 H   0  0  0  0  0  0  0  0  0  0  0  0
    0.5969    0.9776   -2.9250 H   0  0  0  0  0  0  0  0  0  0  0  0
    0.6195    1.4269    0.0394 H   0  0  0  0  0  0  0  0  0  0  0  0
    1.9883    1.7261   -1.0202 H   0  0  0  0  0  0  0  0  0  0  0  0
    1.9672   -1.1599   -2.8891 N   0  0  0  0  0  0  0  0  0  0  0  0
    2.9741   -2.2276   -2.8249 C   0  0  2  0  0  0  0  0  0  0  0  0
    4.0353   -2.0457   -3.9305 C   0  0  0  0  0  0  0  0  0  0  0  0
    3.8480   -1.2258   -4.8237 O   0  0  0  0  0  0  0  0  0  0  0  0
    2.2702   -3.5807   -2.9675 C   0  0  0  0  0  0  0  0  0  0  0  0
    1.9874   -0.5823   -3.7305 H   0  0  0  0  0  0  0  0  0  0  0  0
    3.4929   -2.1902   -1.8607 H   0  0  0  0  0  0  0  0  0  0  0  0
    1.7494   -3.6425   -3.9283 H   0  0  0  0  0  0  0  0  0  0  0  0
    2.9949   -4.3983   -2.9099 H   0  0  0  0  0  0  0  0  0  0  0  0
    1.5383   -3.7146   -2.1645 H   0  0  0  0  0  0  0  0  0  0  0  0
    5.2056   -2.7813   -3.9173 N   0  0  0  0  0  0  0  0  0  0  0  0
    6.2493   -2.6381   -4.9254 C   0  0  0  0  0  0  0  0  0  0  0  0
    5.3441   -3.4382   -3.1546 H   0  0  0  0  0  0  0  0  0  0  0  0
    5.8617   -2.8944   -5.9171 H   0  0  0  0  0  0  0  0  0  0  0  0
    6.6221   -1.6086   -4.9480 H   0  0  0  0  0  0  0  0  0  0  0  0
    7.0882   -3.3037   -4.7000 H   0  0  0  0  0  0  0  0  0  0  0  0
  1  2  2  0  0  0  0
  1  3  1  0  0  0  0
  1  7  1  0  0  0  0
  3  4  1  0  0  0  0
  3  5  1  0  0  0  0
  3  6  1  0  0  0  0
  7  8  1  0  0  0  0
  7 13  1  0  0  0  0
  8  9  1  0  0  0  0
  8 11  1  0  0  0  0
  8 14  1  0  0  0  0
  9 10  2  0  0  0  0
  9 17  1  0  0  0  0
 11 12  1  0  0  0  0
 11 15  1  0  0  0  0
 11 16  1  0  0  0  0
 12 44  1  0  0  0  0
 17 18  1  0  0  0  0
 17 19  1  0  0  0  0
 18 20  1  0  0  0  0
 18 21  1  0  0  0  0
 18 22  1  0  0  0  0
 23 24  2  0  0  0  0
 23 25  1  0  0  0  0
 23 29  1  0  0  0  0
 25 26  1  0  0  0  0
 25 27  1  0  0  0  0
 25 28  1  0  0  0  0
 29 30  1  0  0  0  0
 29 34  1  0  0  0  0
 30 31  1  0  0  0  0
 30 33  1  0  0  0  0
 30 35  1  0  0  0  0
 31 32  2  0  0  0  0
 31 39  1  0  0  0  0
 33 36  1  0  0  0  0
 33 37  1  0  0  0  0
 33 38  1  0  0  0  0
 39 40  1  0  0  0  0
 39 45  1  0  0  0  0
 40 41  1  0  0  0  0
 40 43  1  0  0  0  0
 40 46  1  0  0  0  0
 41 42  2  0  0  0  0
 41 49  1  0  0  0  0
 43 44  1  0  0  0  0
 43 47  1  0  0  0  0
 43 48  1  0  0  0  0
 49 50  1  0  0  0  0
 49 54  1  0  0  0  0
 50 51  1  0  0  0  0
 50 53  1  0  0  0  0
 50 55  1  0  0  0  0
 51 52  2  0  0  0  0
 51 59  1  0  0  0  0
 53 56  1  0  0  0  0
 53 57  1  0  0  0  0
 53 58  1  0  0  0  0
 59 60  1  0  0  0  0
 59 61  1  0  0  0  0
 60 62  1  0  0  0  0
 60 63  1  0  0  0  0
 60 64  1  0  0  0  0
M  END
$$$$

  -OEChem-05262216053D

 64 63  0     1  0  0  0  0  0999 V2000
   -0.1416    6.0271    3.9221 C   0  0  0  0  0  0  0  0  0  0  0  0
   -1.2651    6.4681    3.7354 O   0  0  0  0  0  0  0  0  0  0  0  0
    0.8489    6.7976    4.7749 C   0  0  0  0  0  0  0  0  0  0  0  0
    1.7502    7.0154    4.1967 H   0  0  0  0  0  0  0  0  0  0  0  0
    0.4070    7.7414    5.1060 H   0  0  0  0  0  0  0  0  0  0  0  0
    1.1218    6.2080    5.6534 H   0  0  0  0  0  0  0  0  0  0  0  0
    0.2237    4.8182    3.3729 N   0  0  0  0  0  0  0  0  0  0  0  0
   -0.6867    3.9262    2.6394 C   0  0  2  0  0  0  0  0  0  0  0  0
   -0.2396    2.4490    2.7410 C   0  0  0  0  0  0  0  0  0  0  0  0
    0.6878    2.1473    3.4875 O   0  0  0  0  0  0  0  0  0  0  0  0
   -0.8108    4.4064    1.1857 C   0  0  0  0  0  0  0  0  0  0  0  0
    0.7983    4.3873    0.2916 S   0  0  0  0  0  0  0  0  0  0  0  0
    1.1172    4.4215    3.6601 H   0  0  0  0  0  0  0  0  0  0  0  0
   -1.6797    3.9739    3.0985 H   0  0  0  0  0  0  0  0  0  0  0  0
   -1.5353    3.7865    0.6557 H   0  0  0  0  0  0  0  0  0  0  0  0
   -1.2019    5.4285    1.1768 H   0  0  0  0  0  0  0  0  0  0  0  0
   -0.9193    1.4411    2.0797 N   0  0  0  0  0  0  0  0  0  0  0  0
   -0.5188    0.0394    2.1451 C   0  0  0  0  0  0  0  0  0  0  0  0
   -1.5201    1.7241    1.3007 H   0  0  0  0  0  0  0  0  0  0  0  0
    0.5350   -0.0786    1.8717 H   0  0  0  0  0  0  0  0  0  0  0  0
   -0.6658   -0.3532    3.1563 H   0  0  0  0  0  0  0  0  0  0  0  0
   -1.1204   -0.5553    1.4508 H   0  0  0  0  0  0  0  0  0  0  0  0
   -5.9432    0.8362   -1.3969 C   0  0  0  0  0  0  0  0  0  0  0  0
   -6.2600   -0.1604   -2.0266 O   0  0  0  0  0  0  0  0  0  0  0  0
   -6.9673    1.5538   -0.5379 C   0  0  0  0  0  0  0  0  0  0  0  0
   -7.0646    2.5929   -0.8624 H   0  0  0  0  0  0  0  0  0  0  0  0
   -7.9419    1.0653   -0.6260 H   0  0  0  0  0  0  0  0  0  0  0  0
   -6.6565    1.5329    0.5096 H   0  0  0  0  0  0  0  0  0  0  0  0
   -4.6491    1.3073   -1.4632 N   0  0  0  0  0  0  0  0  0  0  0  0
   -3.5531    0.6256   -2.1655 C   0  0  2  0  0  0  0  0  0  0  0  0
   -2.1757    0.9355   -1.5380 C   0  0  0  0  0  0  0  0  0  0  0  0
   -2.1129    1.7036   -0.5861 O   0  0  0  0  0  0  0  0  0  0  0  0
   -3.5818    1.0600   -3.6360 C   0  0  0  0  0  0  0  0  0  0  0  0
   -4.3935    2.0665   -0.8334 H   0  0  0  0  0  0  0  0  0  0  0  0
   -3.7009   -0.4584   -2.1065 H   0  0  0  0  0  0  0  0  0  0  0  0
   -3.4173    2.1391   -3.7197 H   0  0  0  0  0  0  0  0  0  0  0  0
   -2.8053    0.5438   -4.2086 H   0  0  0  0  0  0  0  0  0  0  0  0
   -4.5524    0.8220   -4.0837 H   0  0  0  0  0  0  0  0  0  0  0  0
   -1.0687    0.2097   -1.9442 N   0  0  0  0  0  0  0  0  0  0  0  0
    0.3741    0.5650   -1.9185 C   0  0  2  0  0  0  0  0  0  0  0  0
    1.2476   -0.6919   -1.7387 C   0  0  0  0  0  0  0  0  0  0  0  0
    1.0961   -1.4173   -0.7645 O   0  0  0  0  0  0  0  0  0  0  0  0
    0.8926    1.6885   -1.0023 C   0  0  0  0  0  0  0  0  0  0  0  0
    0.2599    3.3593   -1.4449 S   0  0  0  0  0  0  0  0  0  0  0  0
   -1.3044   -0.5553   -2.5707 H   0  0  0  0  0  0  0  0  0  0  0  0
    0.5885    0.9295   -2.9273 H   0  0  0  0  0  0  0  0  0  0  0  0
    0.6155    1.4579    0.0254 H   0  0  0  0  0  0  0  0  0  0  0  0
    1.9861    1.7206   -1.0409 H   0  0  0  0  0  0  0  0  0  0  0  0
    2.1821   -1.0386   -2.6962 N   0  0  0  0  0  0  0  0  0  0  0  0
    3.1768   -2.1072   -2.5332 C   0  0  2  0  0  0  0  0  0  0  0  0
    4.4693   -1.7823   -3.3119 C   0  0  0  0  0  0  0  0  0  0  0  0
    4.4748   -0.8662   -4.1275 O   0  0  0  0  0  0  0  0  0  0  0  0
    2.5679   -3.4253   -3.0211 C   0  0  0  0  0  0  0  0  0  0  0  0
    2.3759   -0.3608   -3.4345 H   0  0  0  0  0  0  0  0  0  0  0  0
    3.4468   -2.2033   -1.4759 H   0  0  0  0  0  0  0  0  0  0  0  0
    2.3028   -3.3564   -4.0810 H   0  0  0  0  0  0  0  0  0  0  0  0
    3.2784   -4.2472   -2.8916 H   0  0  0  0  0  0  0  0  0  0  0  0
    1.6639   -3.6603   -2.4503 H   0  0  0  0  0  0  0  0  0  0  0  0
    5.6306   -2.4963   -3.0823 N   0  0  0  0  0  0  0  0  0  0  0  0
    6.8943   -2.2026   -3.7484 C   0  0  0  0  0  0  0  0  0  0  0  0
    5.6073   -3.2197   -2.3692 H   0  0  0  0  0  0  0  0  0  0  0  0
    6.7752   -2.2464   -4.8363 H   0  0  0  0  0  0  0  0  0  0  0  0
    7.2494   -1.2041   -3.4725 H   0  0  0  0  0  0  0  0  0  0  0  0
    7.6550   -2.9332   -3.4566 H   0  0  0  0  0  0  0  0  0  0  0  0
  1  2  2  0  0  0  0
  1  3  1  0  0  0  0
  1  7  1  0  0  0  0
  3  4  1  0  0  0  0
  3  5  1  0  0  0  0
  3  6  1  0  0  0  0
  7  8  1  0  0  0  0
  7 13  1  0  0  0  0
  8  9  1  0  0  0  0
  8 11  1  0  0  0  0
  8 14  1  0  0  0  0
  9 10  2  0  0  0  0
  9 17  1  0  0  0  0
 11 12  1  0  0  0  0
 11 15  1  0  0  0  0
 11 16  1  0  0  0  0
 12 44  1  0  0  0  0
 17 18  1  0  0  0  0
 17 19  1  0  0  0  0
 18 20  1  0  0  0  0
 18 21  1  0  0  0  0
 18 22  1  0  0  0  0
 23 24  2  0  0  0  0
 23 25  1  0  0  0  0
 23 29  1  0  0  0  0
 25 26  1  0  0  0  0
 25 27  1  0  0  0  0
 25 28  1  0  0  0  0
 29 30  1  0  0  0  0
 29 34  1  0  0  0  0
 30 31  1  0  0  0  0
 30 33  1  0  0  0  0
 30 35  1  0  0  0  0
 31 32  2  0  0  0  0
 31 39  1  0  0  0  0
 33 36  1  0  0  0  0
 33 37  1  0  0  0  0
 33 38  1  0  0  0  0
 39 40  1  0  0  0  0
 39 45  1  0  0  0  0
 40 41  1  0  0  0  0
 40 43  1  0  0  0  0
 40 46  1  0  0  0  0
 41 42  2  0  0  0  0
 41 49  1  0  0  0  0
 43 44  1  0  0  0  0
 43 47  1  0  0  0  0
 43 48  1  0  0  0  0
 49 50  1  0  0  0  0
 49 54  1  0  0  0  0
 50 51  1  0  0  0  0
 50 53  1  0  0  0  0
 50 55  1  0  0  0  0
 51 52  2  0  0  0  0
 51 59  1  0  0  0  0
 53 56  1  0  0  0  0
 53 57  1  0  0  0  0
 53 58  1  0  0  0  0
 59 60  1  0  0  0  0
 59 61  1  0  0  0  0
 60 62  1  0  0  0  0
 60 63  1  0  0  0  0
 60 64  1  0  0  0  0
M  END
$$$$

  -OEChem-05262216053D

 64 63  0     1  0  0  0  0  0999 V2000
   -1.1623    6.1285    3.4053 C   0  0  0  0  0  0  0  0  0  0  0  0
   -2.3098    5.9256    3.0390 O   0  0  0  0  0  0  0  0  0  0  0  0
   -0.7236    7.5276    3.7918 C   0  0  0  0  0  0  0  0  0  0  0  0
    0.1167    7.8398    3.1670 H   0  0  0  0  0  0  0  0  0  0  0  0
   -1.5476    8.2327    3.6517 H   0  0  0  0  0  0  0  0  0  0  0  0
   -0.4172    7.5457    4.8405 H   0  0  0  0  0  0  0  0  0  0  0  0
   -0.2684    5.0832    3.4820 N   0  0  0  0  0  0  0  0  0  0  0  0
   -0.6012    3.6807    3.1951 C   0  0  2  0  0  0  0  0  0  0  0  0
    0.3467    2.6960    3.9140 C   0  0  0  0  0  0  0  0  0  0  0  0
    1.2074    3.1145    4.6821 O   0  0  0  0  0  0  0  0  0  0  0  0
   -0.5816    3.4489    1.6784 C   0  0  0  0  0  0  0  0  0  0  0  0
    1.0922    3.7098    0.9615 S   0  0  0  0  0  0  0  0  0  0  0  0
    0.6511    5.2694    3.8795 H   0  0  0  0  0  0  0  0  0  0  0  0
   -1.6103    3.4716    3.5656 H   0  0  0  0  0  0  0  0  0  0  0  0
   -0.9093    2.4291    1.4634 H   0  0  0  0  0  0  0  0  0  0  0  0
   -1.2903    4.1259    1.1907 H   0  0  0  0  0  0  0  0  0  0  0  0
    0.2134    1.3302    3.7326 N   0  0  0  0  0  0  0  0  0  0  0  0
    1.1081    0.3512    4.3376 C   0  0  0  0  0  0  0  0  0  0  0  0
   -0.4634    1.0148    3.0429 H   0  0  0  0  0  0  0  0  0  0  0  0
    2.1337    0.4986    3.9831 H   0  0  0  0  0  0  0  0  0  0  0  0
    1.0962    0.4425    5.4288 H   0  0  0  0  0  0  0  0  0  0  0  0
    0.7922   -0.6630    4.0743 H   0  0  0  0  0  0  0  0  0  0  0  0
   -5.7916    1.0893   -1.5132 C   0  0  0  0  0  0  0  0  0  0  0  0
   -6.1433    0.1781   -2.2459 O   0  0  0  0  0  0  0  0  0  0  0  0
   -6.7384    1.6268   -0.4575 C   0  0  0  0  0  0  0  0  0  0  0  0
   -6.9438    2.6834   -0.6449 H   0  0  0  0  0  0  0  0  0  0  0  0
   -7.6815    1.0739   -0.4805 H   0  0  0  0  0  0  0  0  0  0  0  0
   -6.2910    1.5195    0.5335 H   0  0  0  0  0  0  0  0  0  0  0  0
   -4.5251    1.6205   -1.6318 N   0  0  0  0  0  0  0  0  0  0  0  0
   -3.4632    1.0438   -2.4681 C   0  0  2  0  0  0  0  0  0  0  0  0
   -2.0733    1.1745   -1.8077 C   0  0  0  0  0  0  0  0  0  0  0  0
   -1.9731    1.8244   -0.7775 O   0  0  0  0  0  0  0  0  0  0  0  0
   -3.4852    1.7563   -3.8234 C   0  0  0  0  0  0  0  0  0  0  0  0
   -4.2273    2.2750   -0.9084 H   0  0  0  0  0  0  0  0  0  0  0  0
   -3.6500   -0.0248   -2.6192 H   0  0  0  0  0  0  0  0  0  0  0  0
   -3.2876    2.8257   -3.6964 H   0  0  0  0  0  0  0  0  0  0  0  0
   -2.7265    1.3381   -4.4916 H   0  0  0  0  0  0  0  0  0  0  0  0
   -4.4651    1.6366   -4.2973 H   0  0  0  0  0  0  0  0  0  0  0  0
   -1.0200    0.4178   -2.2944 N   0  0  0  0  0  0  0  0  0  0  0  0
    0.4452    0.5112   -2.0660 C   0  0  2  0  0  0  0  0  0  0  0  0
    1.1162   -0.8730   -2.1622 C   0  0  0  0  0  0  0  0  0  0  0  0
    0.5478   -1.8688   -1.7329 O   0  0  0  0  0  0  0  0  0  0  0  0
    1.0152    1.3124   -0.8780 C   0  0  0  0  0  0  0  0  0  0  0  0
    0.6888    3.1218   -0.9981 S   0  0  0  0  0  0  0  0  0  0  0  0
   -1.3004   -0.2693   -2.9900 H   0  0  0  0  0  0  0  0  0  0  0  0
    0.8123    1.0568   -2.9405 H   0  0  0  0  0  0  0  0  0  0  0  0
    0.5675    0.9293    0.0439 H   0  0  0  0  0  0  0  0  0  0  0  0
    2.0973    1.1629   -0.8072 H   0  0  0  0  0  0  0  0  0  0  0  0
    2.2927   -1.0313   -2.8705 N   0  0  0  0  0  0  0  0  0  0  0  0
    3.0472   -2.2898   -2.9469 C   0  0  2  0  0  0  0  0  0  0  0  0
    4.5691   -2.0339   -2.9388 C   0  0  0  0  0  0  0  0  0  0  0  0
    4.9973   -0.8942   -3.0858 O   0  0  0  0  0  0  0  0  0  0  0  0
    2.6242   -3.0239   -4.2223 C   0  0  0  0  0  0  0  0  0  0  0  0
    2.8070   -0.1860   -3.1219 H   0  0  0  0  0  0  0  0  0  0  0  0
    2.8199   -2.9168   -2.0779 H   0  0  0  0  0  0  0  0  0  0  0  0
    2.8562   -2.4211   -5.1064 H   0  0  0  0  0  0  0  0  0  0  0  0
    3.1460   -3.9817   -4.3062 H   0  0  0  0  0  0  0  0  0  0  0  0
    1.5473   -3.2196   -4.2061 H   0  0  0  0  0  0  0  0  0  0  0  0
    5.4565   -3.0758   -2.7415 N   0  0  0  0  0  0  0  0  0  0  0  0
    6.9020   -2.8966   -2.6782 C   0  0  0  0  0  0  0  0  0  0  0  0
    5.0703   -4.0040   -2.5950 H   0  0  0  0  0  0  0  0  0  0  0  0
    7.2705   -2.4176   -3.5915 H   0  0  0  0  0  0  0  0  0  0  0  0
    7.1733   -2.2741   -1.8192 H   0  0  0  0  0  0  0  0  0  0  0  0
    7.3989   -3.8659   -2.5736 H   0  0  0  0  0  0  0  0  0  0  0  0
  1  2  2  0  0  0  0
  1  3  1  0  0  0  0
  1  7  1  0  0  0  0
  3  4  1  0  0  0  0
  3  5  1  0  0  0  0
  3  6  1  0  0  0  0
  7  8  1  0  0  0  0
  7 13  1  0  0  0  0
  8  9  1  0  0  0  0
  8 11  1  0  0  0  0
  8 14  1  0  0  0  0
  9 10  2  0  0  0  0
  9 17  1  0  0  0  0
 11 12  1  0  0  0  0
 11 15  1  0  0  0  0
 11 16  1  0  0  0  0
 12 44  1  0  0  0  0
 17 18  1  0  0  0  0
 17 19  1  0  0  0  0
 18 20  1  0  0  0  0
 18 21  1  0  0  0  0
 18 22  1  0  0  0  0
 23 24  2  0  0  0  0
 23 25  1  0  0  0  0
 23 29  1  0  0  0  0
 25 26  1  0  0  0  0
 25 27  1  0  0  0  0
 25 28  1  0  0  0  0
 29 30  1  0  0  0  0
 29 34  1  0  0  0  0
 30 31  1  0  0  0  0
 30 33  1  0  0  0  0
 30 35  1  0  0  0  0
 31 32  2  0  0  0  0
 31 39  1  0  0  0  0
 33 36  1  0  0  0  0
 33 37  1  0  0  0  0
 33 38  1  0  0  0  0
 39 40  1  0  0  0  0
 39 45  1  0  0  0  0
 40 41  1  0  0  0  0
 40 43  1  0  0  0  0
 40 46  1  0  0  0  0
 41 42  2  0  0  0  0
 41 49  1  0  0  0  0
 43 44  1  0  0  0  0
 43 47  1  0  0  0  0
 43 48  1  0  0  0  0
 49 50  1  0  0  0  0
 49 54  1  0  0  0  0
 50 51  1  0  0  0  0
 50 53  1  0  0  0  0
 50 55  1  0  0  0  0
 51 52  2  0  0  0  0
 51 59  1  0  0  0  0
 53 56  1  0  0  0  0
 53 57  1  0  0  0  0
 53 58  1  0  0  0  0
 59 60  1  0  0  0  0
 59 61  1  0  0  0  0
 60 62  1  0  0  0  0
 60 63  1  0  0  0  0
 60 64  1  0  0  0  0
M  END
$$$$

  -OEChem-05262216053D

 64 63  0     1  0  0  0  0  0999 V2000
   -1.1526    6.1554    3.4277 C   0  0  0  0  0  0  0  0  0  0  0  0
   -2.3070    5.9626    3.0780 O   0  0  0  0  0  0  0  0  0  0  0  0
   -0.6901    7.5524    3.7955 C   0  0  0  0  0  0  0  0  0  0  0  0
    0.1686    7.8348    3.1812 H   0  0  0  0  0  0  0  0  0  0  0  0
   -1.4956    8.2722    3.6265 H   0  0  0  0  0  0  0  0  0  0  0  0
   -0.4027    7.5849    4.8492 H   0  0  0  0  0  0  0  0  0  0  0  0
   -0.2698    5.1005    3.4998 N   0  0  0  0  0  0  0  0  0  0  0  0
   -0.6143    3.7025    3.2086 C   0  0  2  0  0  0  0  0  0  0  0  0
    0.3284    2.7092    3.9207 C   0  0  0  0  0  0  0  0  0  0  0  0
    1.1994    3.1194    4.6815 O   0  0  0  0  0  0  0  0  0  0  0  0
   -0.5941    3.4771    1.6911 C   0  0  0  0  0  0  0  0  0  0  0  0
    1.0838    3.7241    0.9789 S   0  0  0  0  0  0  0  0  0  0  0  0
    0.6600    5.2792    3.8760 H   0  0  0  0  0  0  0  0  0  0  0  0
   -1.6243    3.4989    3.5791 H   0  0  0  0  0  0  0  0  0  0  0  0
   -0.9302    2.4610    1.4715 H   0  0  0  0  0  0  0  0  0  0  0  0
   -1.2946    4.1635    1.2043 H   0  0  0  0  0  0  0  0  0  0  0  0
    0.1867    1.3457    3.7310 N   0  0  0  0  0  0  0  0  0  0  0  0
    1.0913    0.3629    4.3132 C   0  0  0  0  0  0  0  0  0  0  0  0
   -0.5026    1.0369    3.0507 H   0  0  0  0  0  0  0  0  0  0  0  0
    2.1076    0.5063    3.9311 H   0  0  0  0  0  0  0  0  0  0  0  0
    1.1075    0.4563    5.4043 H   0  0  0  0  0  0  0  0  0  0  0  0
    0.7644   -0.6500    4.0591 H   0  0  0  0  0  0  0  0  0  0  0  0
   -5.8111    1.0932   -1.5186 C   0  0  0  0  0  0  0  0  0  0  0  0
   -6.1646    0.1767   -2.2437 O   0  0  0  0  0  0  0  0  0  0  0  0
   -6.7738    1.6755   -0.5010 C   0  0  0  0  0  0  0  0  0  0  0  0
   -6.9282    2.7388   -0.6998 H   0  0  0  0  0  0  0  0  0  0  0  0
   -7.7379    1.1624   -0.5571 H   0  0  0  0  0  0  0  0  0  0  0  0
   -6.3687    1.5557    0.5067 H   0  0  0  0  0  0  0  0  0  0  0  0
   -4.5304    1.5934   -1.6141 N   0  0  0  0  0  0  0  0  0  0  0  0
   -3.4673    0.9978   -2.4351 C   0  0  2  0  0  0  0  0  0  0  0  0
   -2.0768    1.1531   -1.7799 C   0  0  0  0  0  0  0  0  0  0  0  0
   -1.9803    1.8176   -0.7585 O   0  0  0  0  0  0  0  0  0  0  0  0
   -3.4925    1.6735   -3.8092 C   0  0  0  0  0  0  0  0  0  0  0  0
   -4.2359    2.2592   -0.8999 H   0  0  0  0  0  0  0  0  0  0  0  0
   -3.6522   -0.0752   -2.5565 H   0  0  0  0  0  0  0  0  0  0  0  0
   -3.3014    2.7469   -3.7098 H   0  0  0  0  0  0  0  0  0  0  0  0
   -2.7316    1.2427   -4.4665 H   0  0  0  0  0  0  0  0  0  0  0  0
   -4.4711    1.5358   -4.2800 H   0  0  0  0  0  0  0  0  0  0  0  0
   -1.0149    0.4066   -2.2629 N   0  0  0  0  0  0  0  0  0  0  0  0
    0.4499    0.5017   -2.0316 C   0  0  2  0  0  0  0  0  0  0  0  0
    1.1242   -0.8817   -2.1336 C   0  0  0  0  0  0  0  0  0  0  0  0
    0.4664   -1.9055   -1.9918 O   0  0  0  0  0  0  0  0  0  0  0  0
    1.0128    1.3089   -0.8427 C   0  0  0  0  0  0  0  0  0  0  0  0
    0.6809    3.1169   -0.9739 S   0  0  0  0  0  0  0  0  0  0  0  0
   -1.2895   -0.3076   -2.9342 H   0  0  0  0  0  0  0  0  0  0  0  0
    0.8188    1.0464   -2.9056 H   0  0  0  0  0  0  0  0  0  0  0  0
    0.5621    0.9288    0.0790 H   0  0  0  0  0  0  0  0  0  0  0  0
    2.0952    1.1656   -0.7646 H   0  0  0  0  0  0  0  0  0  0  0  0
    2.4338   -0.9876   -2.5629 N   0  0  0  0  0  0  0  0  0  0  0  0
    3.1841   -2.2488   -2.6318 C   0  0  2  0  0  0  0  0  0  0  0  0
    4.6467   -2.0534   -2.1815 C   0  0  0  0  0  0  0  0  0  0  0  0
    5.0988   -0.9209   -2.0528 O   0  0  0  0  0  0  0  0  0  0  0  0
    3.1246   -2.7627   -4.0731 C   0  0  0  0  0  0  0  0  0  0  0  0
    2.9940   -0.1343   -2.5710 H   0  0  0  0  0  0  0  0  0  0  0  0
    2.7356   -2.9924   -1.9643 H   0  0  0  0  0  0  0  0  0  0  0  0
    3.5806   -2.0396   -4.7573 H   0  0  0  0  0  0  0  0  0  0  0  0
    3.6587   -3.7132   -4.1643 H   0  0  0  0  0  0  0  0  0  0  0  0
    2.0846   -2.9212   -4.3761 H   0  0  0  0  0  0  0  0  0  0  0  0
    5.4506   -3.1440   -1.9061 N   0  0  0  0  0  0  0  0  0  0  0  0
    6.8335   -3.0251   -1.4603 C   0  0  0  0  0  0  0  0  0  0  0  0
    5.0407   -4.0693   -1.9961 H   0  0  0  0  0  0  0  0  0  0  0  0
    7.4255   -2.4664   -2.1929 H   0  0  0  0  0  0  0  0  0  0  0  0
    6.8825   -2.5061   -0.4973 H   0  0  0  0  0  0  0  0  0  0  0  0
    7.2790   -4.0175   -1.3419 H   0  0  0  0  0  0  0  0  0  0  0  0
  1  2  2  0  0  0  0
  1  3  1  0  0  0  0
  1  7  1  0  0  0  0
  3  4  1  0  0  0  0
  3  5  1  0  0  0  0
  3  6  1  0  0  0  0
  7  8  1  0  0  0  0
  7 13  1  0  0  0  0
  8  9  1  0  0  0  0
  8 11  1  0  0  0  0
  8 14  1  0  0  0  0
  9 10  2  0  0  0  0
  9 17  1  0  0  0  0
 11 12  1  0  0  0  0
 11 15  1  0  0  0  0
 11 16  1  0  0  0  0
 12 44  1  0  0  0  0
 17 18  1  0  0  0  0
 17 19  1  0  0  0  0
 18 20  1  0  0  0  0
 18 21  1  0  0  0  0
 18 22  1  0  0  0  0
 23 24  2  0  0  0  0
 23 25  1  0  0  0  0
 23 29  1  0  0  0  0
 25 26  1  0  0  0  0
 25 27  1  0  0  0  0
 25 28  1  0  0  0  0
 29 30  1  0  0  0  0
 29 34  1  0  0  0  0
 30 31  1  0  0  0  0
 30 33  1  0  0  0  0
 30 35  1  0  0  0  0
 31 32  2  0  0  0  0
 31 39  1  0  0  0  0
 33 36  1  0  0  0  0
 33 37  1  0  0  0  0
 33 38  1  0  0  0  0
 39 40  1  0  0  0  0
 39 45  1  0  0  0  0
 40 41  1  0  0  0  0
 40 43  1  0  0  0  0
 40 46  1  0  0  0  0
 41 42  2  0  0  0  0
 41 49  1  0  0  0  0
 43 44  1  0  0  0  0
 43 47  1  0  0  0  0
 43 48  1  0  0  0  0
 49 50  1  0  0  0  0
 49 54  1  0  0  0  0
 50 51  1  0  0  0  0
 50 53  1  0  0  0  0
 50 55  1  0  0  0  0
 51 52  2  0  0  0  0
 51 59  1  0  0  0  0
 53 56  1  0  0  0  0
 53 57  1  0  0  0  0
 53 58  1  0  0  0  0
 59 60  1  0  0  0  0
 59 61  1  0  0  0  0
 60 62  1  0  0  0  0
 60 63  1  0  0  0  0
 60 64  1  0  0  0  0
M  END
$$$$

  -OEChem-05262216053D

 64 63  0     1  0  0  0  0  0999 V2000
   -1.1766    6.1795    3.4287 C   0  0  0  0  0  0  0  0  0  0  0  0
   -2.3264    5.9819    3.0670 O   0  0  0  0  0  0  0  0  0  0  0  0
   -0.7252    7.5789    3.8010 C   0  0  0  0  0  0  0  0  0  0  0  0
    0.1454    7.8604    3.2035 H   0  0  0  0  0  0  0  0  0  0  0  0
   -1.5285    8.2966    3.6125 H   0  0  0  0  0  0  0  0  0  0  0  0
   -0.4594    7.6159    4.8602 H   0  0  0  0  0  0  0  0  0  0  0  0
   -0.2884    5.1294    3.5070 N   0  0  0  0  0  0  0  0  0  0  0  0
   -0.6250    3.7283    3.2186 C   0  0  2  0  0  0  0  0  0  0  0  0
    0.3223    2.7407    3.9346 C   0  0  0  0  0  0  0  0  0  0  0  0
    1.1806    3.1562    4.7069 O   0  0  0  0  0  0  0  0  0  0  0  0
   -0.6064    3.4961    1.7019 C   0  0  0  0  0  0  0  0  0  0  0  0
    1.0690    3.7418    0.9836 S   0  0  0  0  0  0  0  0  0  0  0  0
    0.6349    5.3133    3.8966 H   0  0  0  0  0  0  0  0  0  0  0  0
   -1.6344    3.5220    3.5893 H   0  0  0  0  0  0  0  0  0  0  0  0
   -0.9417    2.4787    1.4880 H   0  0  0  0  0  0  0  0  0  0  0  0
   -1.3093    4.1784    1.2136 H   0  0  0  0  0  0  0  0  0  0  0  0
    0.2007    1.3764    3.7337 N   0  0  0  0  0  0  0  0  0  0  0  0
    1.1191    0.4004    4.3068 C   0  0  0  0  0  0  0  0  0  0  0  0
   -0.4733    1.0653    3.0395 H   0  0  0  0  0  0  0  0  0  0  0  0
    2.1366    0.5701    3.9387 H   0  0  0  0  0  0  0  0  0  0  0  0
    1.1220    0.4720    5.3995 H   0  0  0  0  0  0  0  0  0  0  0  0
    0.8149   -0.6134    4.0291 H   0  0  0  0  0  0  0  0  0  0  0  0
   -5.8021    1.0863   -1.5223 C   0  0  0  0  0  0  0  0  0  0  0  0
   -6.1514    0.1789   -2.2608 O   0  0  0  0  0  0  0  0  0  0  0  0
   -6.7636    1.6393   -0.4874 C   0  0  0  0  0  0  0  0  0  0  0  0
   -6.9509    2.6985   -0.6797 H   0  0  0  0  0  0  0  0  0  0  0  0
   -7.7138    1.0997   -0.5299 H   0  0  0  0  0  0  0  0  0  0  0  0
   -6.3392    1.5282    0.5134 H   0  0  0  0  0  0  0  0  0  0  0  0
   -4.5259    1.5992   -1.6151 N   0  0  0  0  0  0  0  0  0  0  0  0
   -3.4577    1.0144   -2.4378 C   0  0  2  0  0  0  0  0  0  0  0  0
   -2.0703    1.1594   -1.7738 C   0  0  0  0  0  0  0  0  0  0  0  0
   -1.9800    1.7936   -0.7325 O   0  0  0  0  0  0  0  0  0  0  0  0
   -3.4747    1.7038   -3.8053 C   0  0  0  0  0  0  0  0  0  0  0  0
   -4.2336    2.2502   -0.8867 H   0  0  0  0  0  0  0  0  0  0  0  0
   -3.6416   -0.0571   -2.5724 H   0  0  0  0  0  0  0  0  0  0  0  0
   -3.2839    2.7764   -3.6956 H   0  0  0  0  0  0  0  0  0  0  0  0
   -2.7097    1.2780   -4.4615 H   0  0  0  0  0  0  0  0  0  0  0  0
   -4.4505    1.5707   -4.2835 H   0  0  0  0  0  0  0  0  0  0  0  0
   -1.0063    0.4210   -2.2642 N   0  0  0  0  0  0  0  0  0  0  0  0
    0.4578    0.5123   -2.0310 C   0  0  2  0  0  0  0  0  0  0  0  0
    1.1250   -0.8750   -2.1525 C   0  0  0  0  0  0  0  0  0  0  0  0
    0.4394   -1.8822   -2.2888 O   0  0  0  0  0  0  0  0  0  0  0  0
    1.0072    1.3185   -0.8326 C   0  0  0  0  0  0  0  0  0  0  0  0
    0.6661    3.1249   -0.9673 S   0  0  0  0  0  0  0  0  0  0  0  0
   -1.2756   -0.2844   -2.9478 H   0  0  0  0  0  0  0  0  0  0  0  0
    0.8342    1.0605   -2.9002 H   0  0  0  0  0  0  0  0  0  0  0  0
    0.5470    0.9358    0.0834 H   0  0  0  0  0  0  0  0  0  0  0  0
    2.0889    1.1827   -0.7385 H   0  0  0  0  0  0  0  0  0  0  0  0
    2.4970   -0.9862   -2.2795 N   0  0  0  0  0  0  0  0  0  0  0  0
    3.2269   -2.2614   -2.2875 C   0  0  2  0  0  0  0  0  0  0  0  0
    4.5151   -2.1714   -1.4436 C   0  0  0  0  0  0  0  0  0  0  0  0
    4.9075   -1.0811   -1.0420 O   0  0  0  0  0  0  0  0  0  0  0  0
    3.5512   -2.6146   -3.7410 C   0  0  0  0  0  0  0  0  0  0  0  0
    3.0513   -0.1584   -2.0587 H   0  0  0  0  0  0  0  0  0  0  0  0
    2.6099   -3.0545   -1.8516 H   0  0  0  0  0  0  0  0  0  0  0  0
    4.1825   -1.8413   -4.1901 H   0  0  0  0  0  0  0  0  0  0  0  0
    4.0786   -3.5714   -3.7976 H   0  0  0  0  0  0  0  0  0  0  0  0
    2.6285   -2.6950   -4.3242 H   0  0  0  0  0  0  0  0  0  0  0  0
    5.2245   -3.3128   -1.1196 N   0  0  0  0  0  0  0  0  0  0  0  0
    6.4330   -3.2974   -0.3042 C   0  0  0  0  0  0  0  0  0  0  0  0
    4.8626   -4.2038   -1.4476 H   0  0  0  0  0  0  0  0  0  0  0  0
    7.1855   -2.6346   -0.7447 H   0  0  0  0  0  0  0  0  0  0  0  0
    6.2061   -2.9487    0.7088 H   0  0  0  0  0  0  0  0  0  0  0  0
    6.8584   -4.3035   -0.2382 H   0  0  0  0  0  0  0  0  0  0  0  0
  1  2  2  0  0  0  0
  1  3  1  0  0  0  0
  1  7  1  0  0  0  0
  3  4  1  0  0  0  0
  3  5  1  0  0  0  0
  3  6  1  0  0  0  0
  7  8  1  0  0  0  0
  7 13  1  0  0  0  0
  8  9  1  0  0  0  0
  8 11  1  0  0  0  0
  8 14  1  0  0  0  0
  9 10  2  0  0  0  0
  9 17  1  0  0  0  0
 11 12  1  0  0  0  0
 11 15  1  0  0  0  0
 11 16  1  0  0  0  0
 12 44  1  0  0  0  0
 17 18  1  0  0  0  0
 17 19  1  0  0  0  0
 18 20  1  0  0  0  0
 18 21  1  0  0  0  0
 18 22  1  0  0  0  0
 23 24  2  0  0  0  0
 23 25  1  0  0  0  0
 23 29  1  0  0  0  0
 25 26  1  0  0  0  0
 25 27  1  0  0  0  0
 25 28  1  0  0  0  0
 29 30  1  0  0  0  0
 29 34  1  0  0  0  0
 30 31  1  0  0  0  0
 30 33  1  0  0  0  0
 30 35  1  0  0  0  0
 31 32  2  0  0  0  0
 31 39  1  0  0  0  0
 33 36  1  0  0  0  0
 33 37  1  0  0  0  0
 33 38  1  0  0  0  0
 39 40  1  0  0  0  0
 39 45  1  0  0  0  0
 40 41  1  0  0  0  0
 40 43  1  0  0  0  0
 40 46  1  0  0  0  0
 41 42  2  0  0  0  0
 41 49  1  0  0  0  0
 43 44  1  0  0  0  0
 43 47  1  0  0  0  0
 43 48  1  0  0  0  0
 49 50  1  0  0  0  0
 49 54  1  0  0  0  0
 50 51  1  0  0  0  0
 50 53  1  0  0  0  0
 50 55  1  0  0  0  0
 51 52  2  0  0  0  0
 51 59  1  0  0  0  0
 53 56  1  0  0  0  0
 53 57  1  0  0  0  0
 53 58  1  0  0  0  0
 59 60  1  0  0  0  0
 59 61  1  0  0  0  0
 60 62  1  0  0  0  0
 60 63  1  0  0  0  0
 60 64  1  0  0  0  0
M  END
$$$$

  -OEChem-05262216053D

 64 63  0     1  0  0  0  0  0999 V2000
   -1.1296    3.5854    4.6502 C   0  0  0  0  0  0  0  0  0  0  0  0
   -2.2766    3.9525    4.4441 O   0  0  0  0  0  0  0  0  0  0  0  0
   -0.3262    4.1916    5.7850 C   0  0  0  0  0  0  0  0  0  0  0  0
    0.5498    4.7092    5.3864 H   0  0  0  0  0  0  0  0  0  0  0  0
   -0.9380    4.9098    6.3377 H   0  0  0  0  0  0  0  0  0  0  0  0
    0.0030    3.4065    6.4700 H   0  0  0  0  0  0  0  0  0  0  0  0
   -0.5628    2.6197    3.8484 N   0  0  0  0  0  0  0  0  0  0  0  0
   -1.2247    2.0043    2.6909 C   0  0  2  0  0  0  0  0  0  0  0  0
   -0.5952    0.6485    2.3082 C   0  0  0  0  0  0  0  0  0  0  0  0
    0.5092    0.3281    2.7381 O   0  0  0  0  0  0  0  0  0  0  0  0
   -1.1730    2.9695    1.4966 C   0  0  0  0  0  0  0  0  0  0  0  0
    0.5463    3.4849    1.0892 S   0  0  0  0  0  0  0  0  0  0  0  0
    0.3975    2.3375    4.0378 H   0  0  0  0  0  0  0  0  0  0  0  0
   -2.2724    1.8079    2.9419 H   0  0  0  0  0  0  0  0  0  0  0  0
   -1.6192    2.4911    0.6212 H   0  0  0  0  0  0  0  0  0  0  0  0
   -1.7658    3.8614    1.7211 H   0  0  0  0  0  0  0  0  0  0  0  0
   -1.2707   -0.2211    1.4723 N   0  0  0  0  0  0  0  0  0  0  0  0
   -0.7898   -1.5569    1.1444 C   0  0  0  0  0  0  0  0  0  0  0  0
   -2.2435    0.0191    1.2596 H   0  0  0  0  0  0  0  0  0  0  0  0
    0.2452   -1.5186    0.7893 H   0  0  0  0  0  0  0  0  0  0  0  0
   -0.8353   -2.2057    2.0249 H   0  0  0  0  0  0  0  0  0  0  0  0
   -1.4060   -1.9965    0.3542 H   0  0  0  0  0  0  0  0  0  0  0  0
   -4.3305    1.7881    0.2390 C   0  0  0  0  0  0  0  0  0  0  0  0
   -3.8728    0.9018    0.9471 O   0  0  0  0  0  0  0  0  0  0  0  0
   -4.9516    3.0192    0.8704 C   0  0  0  0  0  0  0  0  0  0  0  0
   -5.9999    3.1022    0.5740 H   0  0  0  0  0  0  0  0  0  0  0  0
   -4.8975    2.9538    1.9611 H   0  0  0  0  0  0  0  0  0  0  0  0
   -4.4169    3.9160    0.5475 H   0  0  0  0  0  0  0  0  0  0  0  0
   -4.2046    1.7020   -1.1313 N   0  0  0  0  0  0  0  0  0  0  0  0
   -3.3804    0.6888   -1.8078 C   0  0  2  0  0  0  0  0  0  0  0  0
   -1.9854    1.2307   -2.1859 C   0  0  0  0  0  0  0  0  0  0  0  0
   -1.8809    2.3894   -2.5571 O   0  0  0  0  0  0  0  0  0  0  0  0
   -4.1373    0.2415   -3.0602 C   0  0  0  0  0  0  0  0  0  0  0  0
   -4.3786    2.5628   -1.6468 H   0  0  0  0  0  0  0  0  0  0  0  0
   -3.2411   -0.1857   -1.1641 H   0  0  0  0  0  0  0  0  0  0  0  0
   -4.2819    1.0850   -3.7435 H   0  0  0  0  0  0  0  0  0  0  0  0
   -3.5786   -0.5391   -3.5860 H   0  0  0  0  0  0  0  0  0  0  0  0
   -5.1185   -0.1596   -2.7874 H   0  0  0  0  0  0  0  0  0  0  0  0
   -0.9260    0.3535   -2.3113 N   0  0  0  0  0  0  0  0  0  0  0  0
    0.5329    0.6049   -2.2627 C   0  0  2  0  0  0  0  0  0  0  0  0
    1.2402   -0.7643   -2.0868 C   0  0  0  0  0  0  0  0  0  0  0  0
    0.5731   -1.7883   -1.9526 O   0  0  0  0  0  0  0  0  0  0  0  0
    1.0346    1.4630   -1.0658 C   0  0  0  0  0  0  0  0  0  0  0  0
    0.4890    3.2141   -0.9778 S   0  0  0  0  0  0  0  0  0  0  0  0
   -1.1636   -0.6179   -2.1064 H   0  0  0  0  0  0  0  0  0  0  0  0
    0.8537    1.0663   -3.2018 H   0  0  0  0  0  0  0  0  0  0  0  0
    0.7198    0.9653   -0.1448 H   0  0  0  0  0  0  0  0  0  0  0  0
    2.1281    1.4860   -1.0584 H   0  0  0  0  0  0  0  0  0  0  0  0
    2.6174   -0.8607   -2.0093 N   0  0  0  0  0  0  0  0  0  0  0  0
    3.3619   -2.0700   -1.6352 C   0  0  2  0  0  0  0  0  0  0  0  0
    4.7343   -1.7043   -1.0299 C   0  0  0  0  0  0  0  0  0  0  0  0
    5.1656   -0.5621   -1.1453 O   0  0  0  0  0  0  0  0  0  0  0  0
    3.5433   -2.9435   -2.8811 C   0  0  0  0  0  0  0  0  0  0  0  0
    3.1560    0.0064   -2.0316 H   0  0  0  0  0  0  0  0  0  0  0  0
    2.8030   -2.6270   -0.8755 H   0  0  0  0  0  0  0  0  0  0  0  0
    4.1002   -2.3988   -3.6504 H   0  0  0  0  0  0  0  0  0  0  0  0
    4.0926   -3.8570   -2.6345 H   0  0  0  0  0  0  0  0  0  0  0  0
    2.5698   -3.2287   -3.2920 H   0  0  0  0  0  0  0  0  0  0  0  0
    5.4841   -2.6477   -0.3517 N   0  0  0  0  0  0  0  0  0  0  0  0
    6.7764   -2.3517    0.2558 C   0  0  0  0  0  0  0  0  0  0  0  0
    5.0884   -3.5767   -0.2403 H   0  0  0  0  0  0  0  0  0  0  0  0
    7.4805   -1.9862   -0.4993 H   0  0  0  0  0  0  0  0  0  0  0  0
    6.6679   -1.5891    1.0343 H   0  0  0  0  0  0  0  0  0  0  0  0
    7.1971   -3.2536    0.7104 H   0  0  0  0  0  0  0  0  0  0  0  0
  1  2  2  0  0  0  0
  1  3  1  0  0  0  0
  1  7  1  0  0  0  0
  3  4  1  0  0  0  0
  3  5  1  0  0  0  0
  3  6  1  0  0  0  0
  7  8  1  0  0  0  0
  7 13  1  0  0  0  0
  8  9  1  0  0  0  0
  8 11  1  0  0  0  0
  8 14  1  0  0  0  0
  9 10  2  0  0  0  0
  9 17  1  0  0  0  0
 11 12  1  0  0  0  0
 11 15  1  0  0  0  0
 11 16  1  0  0  0  0
 12 44  1  0  0  0  0
 17 18  1  0  0  0  0
 17 19  1  0  0  0  0
 18 20  1  0  0  0  0
 18 21  1  0  0  0  0
 18 22  1  0  0  0  0
 23 24  2  0  0  0  0
 23 25  1  0  0  0  0
 23 29  1  0  0  0  0
 25 26  1  0  0  0  0
 25 27  1  0  0  0  0
 25 28  1  0  0  0  0
 29 30  1  0  0  0  0
 29 34  1  0  0  0  0
 30 31  1  0  0  0  0
 30 33  1  0  0  0  0
 30 35  1  0  0  0  0
 31 32  2  0  0  0  0
 31 39  1  0  0  0  0
 33 36  1  0  0  0  0
 33 37  1  0  0  0  0
 33 38  1  0  0  0  0
 39 40  1  0  0  0  0
 39 45  1  0  0  0  0
 40 41  1  0  0  0  0
 40 43  1  0  0  0  0
 40 46  1  0  0  0  0
 41 42  2  0  0  0  0
 41 49  1  0  0  0  0
 43 44  1  0  0  0  0
 43 47  1  0  0  0  0
 43 48  1  0  0  0  0
 49 50  1  0  0  0  0
 49 54  1  0  0  0  0
 50 51  1  0  0  0  0
 50 53  1  0  0  0  0
 50 55  1  0  0  0  0
 51 52  2  0  0  0  0
 51 59  1  0  0  0  0
 53 56  1  0  0  0  0
 53 57  1  0  0  0  0
 53 58  1  0  0  0  0
 59 60  1  0  0  0  0
 59 61  1  0  0  0  0
 60 62  1  0  0  0  0
 60 63  1  0  0  0  0
 60 64  1  0  0  0  0
M  END
$$$$

  -OEChem-05262216053D

 64 63  0     1  0  0  0  0  0999 V2000
   -1.6568    3.7398    4.3904 C   0  0  0  0  0  0  0  0  0  0  0  0
   -2.7873    3.8450    3.9360 O   0  0  0  0  0  0  0  0  0  0  0  0
   -1.2183    4.6079    5.5540 C   0  0  0  0  0  0  0  0  0  0  0  0
   -0.3828    5.2430    5.2495 H   0  0  0  0  0  0  0  0  0  0  0  0
   -2.0449    5.2446    5.8812 H   0  0  0  0  0  0  0  0  0  0  0  0
   -0.9039    3.9799    6.3910 H   0  0  0  0  0  0  0  0  0  0  0  0
   -0.7792    2.8309    3.8420 N   0  0  0  0  0  0  0  0  0  0  0  0
   -1.0954    1.9608    2.7029 C   0  0  2  0  0  0  0  0  0  0  0  0
   -0.2084    0.7008    2.6393 C   0  0  0  0  0  0  0  0  0  0  0  0
    0.7523    0.5785    3.3927 O   0  0  0  0  0  0  0  0  0  0  0  0
   -0.9671    2.7622    1.3992 C   0  0  0  0  0  0  0  0  0  0  0  0
    0.7447    3.3769    1.1300 S   0  0  0  0  0  0  0  0  0  0  0  0
    0.1460    2.7359    4.2584 H   0  0  0  0  0  0  0  0  0  0  0  0
   -2.1253    1.6088    2.8073 H   0  0  0  0  0  0  0  0  0  0  0  0
   -1.2500    2.1274    0.5566 H   0  0  0  0  0  0  0  0  0  0  0  0
   -1.6547    3.6129    1.4127 H   0  0  0  0  0  0  0  0  0  0  0  0
   -0.4995   -0.3035    1.7345 N   0  0  0  0  0  0  0  0  0  0  0  0
    0.2937   -1.5174    1.5992 C   0  0  0  0  0  0  0  0  0  0  0  0
   -1.4016   -0.2419    1.2538 H   0  0  0  0  0  0  0  0  0  0  0  0
    1.3538   -1.2707    1.4804 H   0  0  0  0  0  0  0  0  0  0  0  0
    0.1768   -2.1513    2.4840 H   0  0  0  0  0  0  0  0  0  0  0  0
   -0.0269   -2.0814    0.7181 H   0  0  0  0  0  0  0  0  0  0  0  0
   -3.9372    1.1700    0.3839 C   0  0  0  0  0  0  0  0  0  0  0  0
   -3.2205    0.2611    0.7844 O   0  0  0  0  0  0  0  0  0  0  0  0
   -4.6557    2.0707    1.3708 C   0  0  0  0  0  0  0  0  0  0  0  0
   -5.7122    2.1504    1.1051 H   0  0  0  0  0  0  0  0  0  0  0  0
   -4.5803    1.6640    2.3830 H   0  0  0  0  0  0  0  0  0  0  0  0
   -4.2096    3.0686    1.3612 H   0  0  0  0  0  0  0  0  0  0  0  0
   -4.0307    1.4167   -0.9691 N   0  0  0  0  0  0  0  0  0  0  0  0
   -3.2151    0.7121   -1.9681 C   0  0  2  0  0  0  0  0  0  0  0  0
   -1.8402    1.3778   -2.1906 C   0  0  0  0  0  0  0  0  0  0  0  0
   -1.7805    2.5925   -2.2837 O   0  0  0  0  0  0  0  0  0  0  0  0
   -4.0096    0.6776   -3.2753 C   0  0  0  0  0  0  0  0  0  0  0  0
   -4.4132    2.3217   -1.2337 H   0  0  0  0  0  0  0  0  0  0  0  0
   -3.0456   -0.3211   -1.6466 H   0  0  0  0  0  0  0  0  0  0  0  0
   -4.1947    1.6935   -3.6399 H   0  0  0  0  0  0  0  0  0  0  0  0
   -3.4550    0.1298   -4.0434 H   0  0  0  0  0  0  0  0  0  0  0  0
   -4.9722    0.1801   -3.1219 H   0  0  0  0  0  0  0  0  0  0  0  0
   -0.7533    0.5736   -2.4751 N   0  0  0  0  0  0  0  0  0  0  0  0
    0.7084    0.8250   -2.4572 C   0  0  2  0  0  0  0  0  0  0  0  0
    1.4069   -0.5637   -2.5071 C   0  0  0  0  0  0  0  0  0  0  0  0
    0.7356   -1.5653   -2.7461 O   0  0  0  0  0  0  0  0  0  0  0  0
    1.2771    1.5716   -1.2138 C   0  0  0  0  0  0  0  0  0  0  0  0
    0.7456    3.3108   -0.9528 S   0  0  0  0  0  0  0  0  0  0  0  0
   -0.9773   -0.4222   -2.5063 H   0  0  0  0  0  0  0  0  0  0  0  0
    0.9804    1.3894   -3.3541 H   0  0  0  0  0  0  0  0  0  0  0  0
    1.0055    0.9955   -0.3235 H   0  0  0  0  0  0  0  0  0  0  0  0
    2.3688    1.5987   -1.2600 H   0  0  0  0  0  0  0  0  0  0  0  0
    2.7480   -0.7355   -2.2071 N   0  0  0  0  0  0  0  0  0  0  0  0
    3.3667   -2.0391   -1.9228 C   0  0  2  0  0  0  0  0  0  0  0  0
    3.6302   -2.2075   -0.4139 C   0  0  0  0  0  0  0  0  0  0  0  0
    3.8618   -1.2196    0.2721 O   0  0  0  0  0  0  0  0  0  0  0  0
    4.6785   -2.1158   -2.7059 C   0  0  0  0  0  0  0  0  0  0  0  0
    3.2186    0.0709   -1.8008 H   0  0  0  0  0  0  0  0  0  0  0  0
    2.7227   -2.8619   -2.2487 H   0  0  0  0  0  0  0  0  0  0  0  0
    5.3587   -1.3151   -2.3973 H   0  0  0  0  0  0  0  0  0  0  0  0
    5.1723   -3.0767   -2.5308 H   0  0  0  0  0  0  0  0  0  0  0  0
    4.4854   -2.0161   -3.7786 H   0  0  0  0  0  0  0  0  0  0  0  0
    3.6132   -3.4585    0.1736 N   0  0  0  0  0  0  0  0  0  0  0  0
    3.8344   -3.6714    1.5991 C   0  0  0  0  0  0  0  0  0  0  0  0
    3.3887   -4.2558   -0.4147 H   0  0  0  0  0  0  0  0  0  0  0  0
    4.8292   -3.3177    1.8895 H   0  0  0  0  0  0  0  0  0  0  0  0
    3.0844   -3.1339    2.1889 H   0  0  0  0  0  0  0  0  0  0  0  0
    3.7638   -4.7369    1.8382 H   0  0  0  0  0  0  0  0  0  0  0  0
  1  2  2  0  0  0  0
  1  3  1  0  0  0  0
  1  7  1  0  0  0  0
  3  4  1  0  0  0  0
  3  5  1  0  0  0  0
  3  6  1  0  0  0  0
  7  8  1  0  0  0  0
  7 13  1  0  0  0  0
  8  9  1  0  0  0  0
  8 11  1  0  0  0  0
  8 14  1  0  0  0  0
  9 10  2  0  0  0  0
  9 17  1  0  0  0  0
 11 12  1  0  0  0  0
 11 15  1  0  0  0  0
 11 16  1  0  0  0  0
 12 44  1  0  0  0  0
 17 18  1  0  0  0  0
 17 19  1  0  0  0  0
 18 20  1  0  0  0  0
 18 21  1  0  0  0  0
 18 22  1  0  0  0  0
 23 24  2  0  0  0  0
 23 25  1  0  0  0  0
 23 29  1  0  0  0  0
 25 26  1  0  0  0  0
 25 27  1  0  0  0  0
 25 28  1  0  0  0  0
 29 30  1  0  0  0  0
 29 34  1  0  0  0  0
 30 31  1  0  0  0  0
 30 33  1  0  0  0  0
 30 35  1  0  0  0  0
 31 32  2  0  0  0  0
 31 39  1  0  0  0  0
 33 36  1  0  0  0  0
 33 37  1  0  0  0  0
 33 38  1  0  0  0  0
 39 40  1  0  0  0  0
 39 45  1  0  0  0  0
 40 41  1  0  0  0  0
 40 43  1  0  0  0  0
 40 46  1  0  0  0  0
 41 42  2  0  0  0  0
 41 49  1  0  0  0  0
 43 44  1  0  0  0  0
 43 47  1  0  0  0  0
 43 48  1  0  0  0  0
 49 50  1  0  0  0  0
 49 54  1  0  0  0  0
 50 51  1  0  0  0  0
 50 53  1  0  0  0  0
 50 55  1  0  0  0  0
 51 52  2  0  0  0  0
 51 59  1  0  0  0  0
 53 56  1  0  0  0  0
 53 57  1  0  0  0  0
 53 58  1  0  0  0  0
 59 60  1  0  0  0  0
 59 61  1  0  0  0  0
 60 62  1  0  0  0  0
 60 63  1  0  0  0  0
 60 64  1  0  0  0  0
M  END
$$$$

  -OEChem-05262216053D

 64 63  0     1  0  0  0  0  0999 V2000
   -1.8314    4.0446    4.2959 C   0  0  0  0  0  0  0  0  0  0  0  0
   -2.9423    4.0703    3.7856 O   0  0  0  0  0  0  0  0  0  0  0  0
   -1.4746    5.0212    5.3999 C   0  0  0  0  0  0  0  0  0  0  0  0
   -0.6366    5.6478    5.0850 H   0  0  0  0  0  0  0  0  0  0  0  0
   -2.3300    5.6635    5.6267 H   0  0  0  0  0  0  0  0  0  0  0  0
   -1.1934    4.4757    6.3039 H   0  0  0  0  0  0  0  0  0  0  0  0
   -0.9023    3.1203    3.8735 N   0  0  0  0  0  0  0  0  0  0  0  0
   -1.1543    2.1044    2.8444 C   0  0  2  0  0  0  0  0  0  0  0  0
   -0.2867    0.8429    3.0190 C   0  0  0  0  0  0  0  0  0  0  0  0
    0.6038    0.8181    3.8635 O   0  0  0  0  0  0  0  0  0  0  0  0
   -0.9286    2.7189    1.4570 C   0  0  0  0  0  0  0  0  0  0  0  0
    0.7968    3.3089    1.2287 S   0  0  0  0  0  0  0  0  0  0  0  0
   -0.0070    3.0773    4.3581 H   0  0  0  0  0  0  0  0  0  0  0  0
   -2.1924    1.7722    2.9227 H   0  0  0  0  0  0  0  0  0  0  0  0
   -1.1462    1.9712    0.6911 H   0  0  0  0  0  0  0  0  0  0  0  0
   -1.6167    3.5558    1.3035 H   0  0  0  0  0  0  0  0  0  0  0  0
   -0.5368   -0.2759    2.2460 N   0  0  0  0  0  0  0  0  0  0  0  0
    0.2097   -1.5213    2.3680 C   0  0  0  0  0  0  0  0  0  0  0  0
   -1.3825   -0.2595    1.6690 H   0  0  0  0  0  0  0  0  0  0  0  0
    1.2797   -1.3227    2.4890 H   0  0  0  0  0  0  0  0  0  0  0  0
   -0.1401   -2.0920    3.2338 H   0  0  0  0  0  0  0  0  0  0  0  0
    0.0784   -2.1296    1.4681 H   0  0  0  0  0  0  0  0  0  0  0  0
   -3.8940    1.0740    0.4859 C   0  0  0  0  0  0  0  0  0  0  0  0
   -3.1476    0.2062    0.9233 O   0  0  0  0  0  0  0  0  0  0  0  0
   -4.6604    1.9732    1.4371 C   0  0  0  0  0  0  0  0  0  0  0  0
   -5.7152    2.0062    1.1549 H   0  0  0  0  0  0  0  0  0  0  0  0
   -4.5851    1.5970    2.4609 H   0  0  0  0  0  0  0  0  0  0  0  0
   -4.2509    2.9864    1.4050 H   0  0  0  0  0  0  0  0  0  0  0  0
   -3.9912    1.2756   -0.8749 N   0  0  0  0  0  0  0  0  0  0  0  0
   -3.1300    0.5879   -1.8475 C   0  0  2  0  0  0  0  0  0  0  0  0
   -1.7829    1.3099   -2.0678 C   0  0  0  0  0  0  0  0  0  0  0  0
   -1.7594    2.5292   -2.0754 O   0  0  0  0  0  0  0  0  0  0  0  0
   -3.9022    0.4885   -3.1651 C   0  0  0  0  0  0  0  0  0  0  0  0
   -4.4012    2.1611   -1.1633 H   0  0  0  0  0  0  0  0  0  0  0  0
   -2.9189   -0.4284   -1.4980 H   0  0  0  0  0  0  0  0  0  0  0  0
   -4.1268    1.4869   -3.5546 H   0  0  0  0  0  0  0  0  0  0  0  0
   -3.3131   -0.0505   -3.9136 H   0  0  0  0  0  0  0  0  0  0  0  0
   -4.8438   -0.0485   -3.0142 H   0  0  0  0  0  0  0  0  0  0  0  0
   -0.6791    0.5563   -2.4197 N   0  0  0  0  0  0  0  0  0  0  0  0
    0.7760    0.8435   -2.4161 C   0  0  2  0  0  0  0  0  0  0  0  0
    1.5003   -0.5257   -2.5613 C   0  0  0  0  0  0  0  0  0  0  0  0
    0.9046   -1.4532   -3.1036 O   0  0  0  0  0  0  0  0  0  0  0  0
    1.3601    1.5720   -1.1700 C   0  0  0  0  0  0  0  0  0  0  0  0
    0.8040    3.2943   -0.8545 S   0  0  0  0  0  0  0  0  0  0  0  0
   -0.8836   -0.4352   -2.5486 H   0  0  0  0  0  0  0  0  0  0  0  0
    1.0106    1.4492   -3.2969 H   0  0  0  0  0  0  0  0  0  0  0  0
    1.1200    0.9698   -0.2866 H   0  0  0  0  0  0  0  0  0  0  0  0
    2.4491    1.6239   -1.2495 H   0  0  0  0  0  0  0  0  0  0  0  0
    2.7531   -0.7847   -2.0273 N   0  0  0  0  0  0  0  0  0  0  0  0
    3.3059   -2.1405   -1.8794 C   0  0  2  0  0  0  0  0  0  0  0  0
    3.0544   -2.7034   -0.4657 C   0  0  0  0  0  0  0  0  0  0  0  0
    2.9301   -1.9363    0.4808 O   0  0  0  0  0  0  0  0  0  0  0  0
    4.8070   -2.0657   -2.1640 C   0  0  0  0  0  0  0  0  0  0  0  0
    3.0962   -0.0944   -1.3629 H   0  0  0  0  0  0  0  0  0  0  0  0
    2.8549   -2.8254   -2.6045 H   0  0  0  0  0  0  0  0  0  0  0  0
    5.3020   -1.4032   -1.4466 H   0  0  0  0  0  0  0  0  0  0  0  0
    5.2600   -3.0589   -2.0888 H   0  0  0  0  0  0  0  0  0  0  0  0
    4.9821   -1.6817   -3.1736 H   0  0  0  0  0  0  0  0  0  0  0  0
    2.9951   -4.0668   -0.2448 N   0  0  0  0  0  0  0  0  0  0  0  0
    2.7612   -4.6514    1.0704 C   0  0  0  0  0  0  0  0  0  0  0  0
    3.0622   -4.6802   -1.0517 H   0  0  0  0  0  0  0  0  0  0  0  0
    3.5319   -4.3261    1.7774 H   0  0  0  0  0  0  0  0  0  0  0  0
    1.7813   -4.3503    1.4553 H   0  0  0  0  0  0  0  0  0  0  0  0
    2.7887   -5.7435    1.0097 H   0  0  0  0  0  0  0  0  0  0  0  0
  1  2  2  0  0  0  0
  1  3  1  0  0  0  0
  1  7  1  0  0  0  0
  3  4  1  0  0  0  0
  3  5  1  0  0  0  0
  3  6  1  0  0  0  0
  7  8  1  0  0  0  0
  7 13  1  0  0  0  0
  8  9  1  0  0  0  0
  8 11  1  0  0  0  0
  8 14  1  0  0  0  0
  9 10  2  0  0  0  0
  9 17  1  0  0  0  0
 11 12  1  0  0  0  0
 11 15  1  0  0  0  0
 11 16  1  0  0  0  0
 12 44  1  0  0  0  0
 17 18  1  0  0  0  0
 17 19  1  0  0  0  0
 18 20  1  0  0  0  0
 18 21  1  0  0  0  0
 18 22  1  0  0  0  0
 23 24  2  0  0  0  0
 23 25  1  0  0  0  0
 23 29  1  0  0  0  0
 25 26  1  0  0  0  0
 25 27  1  0  0  0  0
 25 28  1  0  0  0  0
 29 30  1  0  0  0  0
 29 34  1  0  0  0  0
 30 31  1  0  0  0  0
 30 33  1  0  0  0  0
 30 35  1  0  0  0  0
 31 32  2  0  0  0  0
 31 39  1  0  0  0  0
 33 36  1  0  0  0  0
 33 37  1  0  0  0  0
 33 38  1  0  0  0  0
 39 40  1  0  0  0  0
 39 45  1  0  0  0  0
 40 41  1  0  0  0  0
 40 43  1  0  0  0  0
 40 46  1  0  0  0  0
 41 42  2  0  0  0  0
 41 49  1  0  0  0  0
 43 44  1  0  0  0  0
 43 47  1  0  0  0  0
 43 48  1  0  0  0  0
 49 50  1  0  0  0  0
 49 54  1  0  0  0  0
 50 51  1  0  0  0  0
 50 53  1  0  0  0  0
 50 55  1  0  0  0  0
 51 52  2  0  0  0  0
 51 59  1  0  0  0  0
 53 56  1  0  0  0  0
 53 57  1  0  0  0  0
 53 58  1  0  0  0  0
 59 60  1  0  0  0  0
 59 61  1  0  0  0  0
 60 62  1  0  0  0  0
 60 63  1  0  0  0  0
 60 64  1  0  0  0  0
M  END
$$$$

  -OEChem-05262216053D

 64 63  0     1  0  0  0  0  0999 V2000
   -1.9006    4.0166    4.3426 C   0  0  0  0  0  0  0  0  0  0  0  0
   -2.9778    4.0940    3.7692 O   0  0  0  0  0  0  0  0  0  0  0  0
   -1.5606    4.9831    5.4609 C   0  0  0  0  0  0  0  0  0  0  0  0
   -0.6677    5.5557    5.1982 H   0  0  0  0  0  0  0  0  0  0  0  0
   -2.3897    5.6772    5.6242 H   0  0  0  0  0  0  0  0  0  0  0  0
   -1.3731    4.4332    6.3864 H   0  0  0  0  0  0  0  0  0  0  0  0
   -0.9954    3.0460    3.9757 N   0  0  0  0  0  0  0  0  0  0  0  0
   -1.2369    2.0400    2.9343 C   0  0  2  0  0  0  0  0  0  0  0  0
   -0.4742    0.7241    3.1806 C   0  0  0  0  0  0  0  0  0  0  0  0
    0.3635    0.6520    4.0753 O   0  0  0  0  0  0  0  0  0  0  0  0
   -0.8694    2.6247    1.5641 C   0  0  0  0  0  0  0  0  0  0  0  0
    0.9020    3.1027    1.4592 S   0  0  0  0  0  0  0  0  0  0  0  0
   -0.1354    2.9580    4.5149 H   0  0  0  0  0  0  0  0  0  0  0  0
   -2.2978    1.7774    2.9359 H   0  0  0  0  0  0  0  0  0  0  0  0
   -1.0776    1.8848    0.7883 H   0  0  0  0  0  0  0  0  0  0  0  0
   -1.4898    3.5019    1.3553 H   0  0  0  0  0  0  0  0  0  0  0  0
   -0.7687   -0.3916    2.4195 N   0  0  0  0  0  0  0  0  0  0  0  0
   -0.1277   -1.6866    2.6066 C   0  0  0  0  0  0  0  0  0  0  0  0
   -1.5626   -0.3189    1.7769 H   0  0  0  0  0  0  0  0  0  0  0  0
    0.9557   -1.5704    2.7166 H   0  0  0  0  0  0  0  0  0  0  0  0
   -0.5196   -2.1816    3.5005 H   0  0  0  0  0  0  0  0  0  0  0  0
   -0.3145   -2.3273    1.7396 H   0  0  0  0  0  0  0  0  0  0  0  0
   -3.9020    1.2104    0.4286 C   0  0  0  0  0  0  0  0  0  0  0  0
   -3.2135    0.2955    0.8654 O   0  0  0  0  0  0  0  0  0  0  0  0
   -4.6807    2.1025    1.3767 C   0  0  0  0  0  0  0  0  0  0  0  0
   -5.7150    2.1982    1.0379 H   0  0  0  0  0  0  0  0  0  0  0  0
   -4.6815    1.6787    2.3847 H   0  0  0  0  0  0  0  0  0  0  0  0
   -4.2255    3.0960    1.4144 H   0  0  0  0  0  0  0  0  0  0  0  0
   -3.9299    1.4663   -0.9259 N   0  0  0  0  0  0  0  0  0  0  0  0
   -3.0471    0.7878   -1.8850 C   0  0  2  0  0  0  0  0  0  0  0  0
   -1.6576    1.4518   -1.9996 C   0  0  0  0  0  0  0  0  0  0  0  0
   -1.5691    2.6632   -1.8917 O   0  0  0  0  0  0  0  0  0  0  0  0
   -3.7502    0.7926   -3.2439 C   0  0  0  0  0  0  0  0  0  0  0  0
   -4.2975    2.3757   -1.1958 H   0  0  0  0  0  0  0  0  0  0  0  0
   -2.9001   -0.2531   -1.5775 H   0  0  0  0  0  0  0  0  0  0  0  0
   -3.9129    1.8195   -3.5875 H   0  0  0  0  0  0  0  0  0  0  0  0
   -3.1434    0.2701   -3.9901 H   0  0  0  0  0  0  0  0  0  0  0  0
   -4.7197    0.2900   -3.1721 H   0  0  0  0  0  0  0  0  0  0  0  0
   -0.5837    0.6697   -2.3823 N   0  0  0  0  0  0  0  0  0  0  0  0
    0.8835    0.8790   -2.3272 C   0  0  2  0  0  0  0  0  0  0  0  0
    1.5323   -0.5143   -2.5576 C   0  0  0  0  0  0  0  0  0  0  0  0
    1.0038   -1.2718   -3.3656 O   0  0  0  0  0  0  0  0  0  0  0  0
    1.4856    1.4975   -1.0316 C   0  0  0  0  0  0  0  0  0  0  0  0
    1.0223    3.2266   -0.6181 S   0  0  0  0  0  0  0  0  0  0  0  0
   -0.8406   -0.2862   -2.6283 H   0  0  0  0  0  0  0  0  0  0  0  0
    1.1673    1.5263   -3.1625 H   0  0  0  0  0  0  0  0  0  0  0  0
    1.1951    0.8614   -0.1883 H   0  0  0  0  0  0  0  0  0  0  0  0
    2.5776    1.4860   -1.0978 H   0  0  0  0  0  0  0  0  0  0  0  0
    2.5851   -1.0037   -1.8000 N   0  0  0  0  0  0  0  0  0  0  0  0
    2.9755   -2.4226   -1.7544 C   0  0  2  0  0  0  0  0  0  0  0  0
    2.5514   -3.0773   -0.4238 C   0  0  0  0  0  0  0  0  0  0  0  0
    2.3659   -2.3792    0.5654 O   0  0  0  0  0  0  0  0  0  0  0  0
    4.4942   -2.4945   -1.9285 C   0  0  0  0  0  0  0  0  0  0  0  0
    2.8139   -0.4624   -0.9679 H   0  0  0  0  0  0  0  0  0  0  0  0
    2.5092   -2.9873   -2.5680 H   0  0  0  0  0  0  0  0  0  0  0  0
    5.0003   -1.9593   -1.1183 H   0  0  0  0  0  0  0  0  0  0  0  0
    4.8319   -3.5355   -1.9212 H   0  0  0  0  0  0  0  0  0  0  0  0
    4.7874   -2.0431   -2.8817 H   0  0  0  0  0  0  0  0  0  0  0  0
    2.3889   -4.4466   -0.3250 N   0  0  0  0  0  0  0  0  0  0  0  0
    1.9870   -5.1143    0.9078 C   0  0  0  0  0  0  0  0  0  0  0  0
    2.5194   -5.0014   -1.1661 H   0  0  0  0  0  0  0  0  0  0  0  0
    2.7116   -4.9173    1.7055 H   0  0  0  0  0  0  0  0  0  0  0  0
    1.0026   -4.7603    1.2320 H   0  0  0  0  0  0  0  0  0  0  0  0
    1.9317   -6.1961    0.7521 H   0  0  0  0  0  0  0  0  0  0  0  0
  1  2  2  0  0  0  0
  1  3  1  0  0  0  0
  1  7  1  0  0  0  0
  3  4  1  0  0  0  0
  3  5  1  0  0  0  0
  3  6  1  0  0  0  0
  7  8  1  0  0  0  0
  7 13  1  0  0  0  0
  8  9  1  0  0  0  0
  8 11  1  0  0  0  0
  8 14  1  0  0  0  0
  9 10  2  0  0  0  0
  9 17  1  0  0  0  0
 11 12  1  0  0  0  0
 11 15  1  0  0  0  0
 11 16  1  0  0  0  0
 12 44  1  0  0  0  0
 17 18  1  0  0  0  0
 17 19  1  0  0  0  0
 18 20  1  0  0  0  0
 18 21  1  0  0  0  0
 18 22  1  0  0  0  0
 23 24  2  0  0  0  0
 23 25  1  0  0  0  0
 23 29  1  0  0  0  0
 25 26  1  0  0  0  0
 25 27  1  0  0  0  0
 25 28  1  0  0  0  0
 29 30  1  0  0  0  0
 29 34  1  0  0  0  0
 30 31  1  0  0  0  0
 30 33  1  0  0  0  0
 30 35  1  0  0  0  0
 31 32  2  0  0  0  0
 31 39  1  0  0  0  0
 33 36  1  0  0  0  0
 33 37  1  0  0  0  0
 33 38  1  0  0  0  0
 39 40  1  0  0  0  0
 39 45  1  0  0  0  0
 40 41  1  0  0  0  0
 40 43  1  0  0  0  0
 40 46  1  0  0  0  0
 41 42  2  0  0  0  0
 41 49  1  0  0  0  0
 43 44  1  0  0  0  0
 43 47  1  0  0  0  0
 43 48  1  0  0  0  0
 49 50  1  0  0  0  0
 49 54  1  0  0  0  0
 50 51  1  0  0  0  0
 50 53  1  0  0  0  0
 50 55  1  0  0  0  0
 51 52  2  0  0  0  0
 51 59  1  0  0  0  0
 53 56  1  0  0  0  0
 53 57  1  0  0  0  0
 53 58  1  0  0  0  0
 59 60  1  0  0  0  0
 59 61  1  0  0  0  0
 60 62  1  0  0  0  0
 60 63  1  0  0  0  0
 60 64  1  0  0  0  0
M  END
$$$$

  -OEChem-05262216053D

 64 63  0     1  0  0  0  0  0999 V2000
   -1.5208    4.2336    4.7193 C   0  0  0  0  0  0  0  0  0  0  0  0
   -2.6503    4.0938    4.2754 O   0  0  0  0  0  0  0  0  0  0  0  0
   -1.1946    5.4155    5.6123 C   0  0  0  0  0  0  0  0  0  0  0  0
   -0.3596    5.9807    5.1910 H   0  0  0  0  0  0  0  0  0  0  0  0
   -2.0618    6.0768    5.6946 H   0  0  0  0  0  0  0  0  0  0  0  0
   -0.9224    5.0648    6.6107 H   0  0  0  0  0  0  0  0  0  0  0  0
   -0.5436    3.3103    4.4187 N   0  0  0  0  0  0  0  0  0  0  0  0
   -0.7596    2.1010    3.6119 C   0  0  2  0  0  0  0  0  0  0  0  0
    0.2341    0.9737    3.9707 C   0  0  0  0  0  0  0  0  0  0  0  0
    1.0931    1.1573    4.8278 O   0  0  0  0  0  0  0  0  0  0  0  0
   -0.6621    2.4597    2.1232 C   0  0  0  0  0  0  0  0  0  0  0  0
    1.0282    3.0246    1.6636 S   0  0  0  0  0  0  0  0  0  0  0  0
    0.3632    3.4075    4.8736 H   0  0  0  0  0  0  0  0  0  0  0  0
   -1.7634    1.7117    3.8121 H   0  0  0  0  0  0  0  0  0  0  0  0
   -0.9256    1.5855    1.5223 H   0  0  0  0  0  0  0  0  0  0  0  0
   -1.3839    3.2465    1.8814 H   0  0  0  0  0  0  0  0  0  0  0  0
    0.1499   -0.2624    3.3532 N   0  0  0  0  0  0  0  0  0  0  0  0
    1.0969   -1.3457    3.5921 C   0  0  0  0  0  0  0  0  0  0  0  0
   -0.5396   -0.3749    2.6155 H   0  0  0  0  0  0  0  0  0  0  0  0
    2.0728   -1.1030    3.1594 H   0  0  0  0  0  0  0  0  0  0  0  0
    1.2213   -1.5229    4.6655 H   0  0  0  0  0  0  0  0  0  0  0  0
    0.7345   -2.2713    3.1352 H   0  0  0  0  0  0  0  0  0  0  0  0
   -5.4747    0.8405   -1.2309 C   0  0  0  0  0  0  0  0  0  0  0  0
   -5.6368   -0.2973   -1.6438 O   0  0  0  0  0  0  0  0  0  0  0  0
   -6.4031    1.4019   -0.1702 C   0  0  0  0  0  0  0  0  0  0  0  0
   -6.9481    2.2611   -0.5683 H   0  0  0  0  0  0  0  0  0  0  0  0
   -7.1241    0.6415    0.1428 H   0  0  0  0  0  0  0  0  0  0  0  0
   -5.8254    1.7187    0.7017 H   0  0  0  0  0  0  0  0  0  0  0  0
   -4.4422    1.6182   -1.7121 N   0  0  0  0  0  0  0  0  0  0  0  0
   -3.3341    1.0975   -2.5284 C   0  0  2  0  0  0  0  0  0  0  0  0
   -1.9662    1.3004   -1.8398 C   0  0  0  0  0  0  0  0  0  0  0  0
   -1.9007    2.0618   -0.8901 O   0  0  0  0  0  0  0  0  0  0  0  0
   -3.3654    1.8218   -3.8764 C   0  0  0  0  0  0  0  0  0  0  0  0
   -4.2408    2.4615   -1.1762 H   0  0  0  0  0  0  0  0  0  0  0  0
   -3.4567    0.0235   -2.7037 H   0  0  0  0  0  0  0  0  0  0  0  0
   -3.2199    2.8981   -3.7376 H   0  0  0  0  0  0  0  0  0  0  0  0
   -2.5755    1.4455   -4.5338 H   0  0  0  0  0  0  0  0  0  0  0  0
   -4.3296    1.6609   -4.3691 H   0  0  0  0  0  0  0  0  0  0  0  0
   -0.8879    0.5333   -2.2480 N   0  0  0  0  0  0  0  0  0  0  0  0
    0.5791    0.6711   -2.0614 C   0  0  2  0  0  0  0  0  0  0  0  0
    1.2187   -0.6885   -2.4159 C   0  0  0  0  0  0  0  0  0  0  0  0
    0.9380   -1.2005   -3.4930 O   0  0  0  0  0  0  0  0  0  0  0  0
    1.1801    1.2505   -0.7552 C   0  0  0  0  0  0  0  0  0  0  0  0
    0.8077    3.0180   -0.4094 S   0  0  0  0  0  0  0  0  0  0  0  0
   -1.1295   -0.1293   -2.9850 H   0  0  0  0  0  0  0  0  0  0  0  0
    0.9135    1.3606   -2.8430 H   0  0  0  0  0  0  0  0  0  0  0  0
    0.8052    0.6533    0.0812 H   0  0  0  0  0  0  0  0  0  0  0  0
    2.2700    1.1507   -0.7760 H   0  0  0  0  0  0  0  0  0  0  0  0
    1.9594   -1.4136   -1.4993 N   0  0  0  0  0  0  0  0  0  0  0  0
    2.2778   -2.8417   -1.6310 C   0  0  2  0  0  0  0  0  0  0  0  0
    1.9998   -3.5928   -0.3112 C   0  0  0  0  0  0  0  0  0  0  0  0
    1.7735   -2.9612    0.7165 O   0  0  0  0  0  0  0  0  0  0  0  0
    3.7507   -2.9613   -2.0295 C   0  0  0  0  0  0  0  0  0  0  0  0
    1.9785   -1.0491   -0.5470 H   0  0  0  0  0  0  0  0  0  0  0  0
    1.6570   -3.3061   -2.4047 H   0  0  0  0  0  0  0  0  0  0  0  0
    4.3928   -2.5178   -1.2615 H   0  0  0  0  0  0  0  0  0  0  0  0
    4.0313   -4.0112   -2.1557 H   0  0  0  0  0  0  0  0  0  0  0  0
    3.9290   -2.4406   -2.9759 H   0  0  0  0  0  0  0  0  0  0  0  0
    1.9881   -4.9748   -0.2756 N   0  0  0  0  0  0  0  0  0  0  0  0
    1.7176   -5.7426    0.9339 C   0  0  0  0  0  0  0  0  0  0  0  0
    2.1566   -5.4719   -1.1458 H   0  0  0  0  0  0  0  0  0  0  0  0
    2.4574   -5.5118    1.7078 H   0  0  0  0  0  0  0  0  0  0  0  0
    0.7191   -5.5118    1.3198 H   0  0  0  0  0  0  0  0  0  0  0  0
    1.7652   -6.8148    0.7199 H   0  0  0  0  0  0  0  0  0  0  0  0
  1  2  2  0  0  0  0
  1  3  1  0  0  0  0
  1  7  1  0  0  0  0
  3  4  1  0  0  0  0
  3  5  1  0  0  0  0
  3  6  1  0  0  0  0
  7  8  1  0  0  0  0
  7 13  1  0  0  0  0
  8  9  1  0  0  0  0
  8 11  1  0  0  0  0
  8 14  1  0  0  0  0
  9 10  2  0  0  0  0
  9 17  1  0  0  0  0
 11 12  1  0  0  0  0
 11 15  1  0  0  0  0
 11 16  1  0  0  0  0
 12 44  1  0  0  0  0
 17 18  1  0  0  0  0
 17 19  1  0  0  0  0
 18 20  1  0  0  0  0
 18 21  1  0  0  0  0
 18 22  1  0  0  0  0
 23 24  2  0  0  0  0
 23 25  1  0  0  0  0
 23 29  1  0  0  0  0
 25 26  1  0  0  0  0
 25 27  1  0  0  0  0
 25 28  1  0  0  0  0
 29 30  1  0  0  0  0
 29 34  1  0  0  0  0
 30 31  1  0  0  0  0
 30 33  1  0  0  0  0
 30 35  1  0  0  0  0
 31 32  2  0  0  0  0
 31 39  1  0  0  0  0
 33 36  1  0  0  0  0
 33 37  1  0  0  0  0
 33 38  1  0  0  0  0
 39 40  1  0  0  0  0
 39 45  1  0  0  0  0
 40 41  1  0  0  0  0
 40 43  1  0  0  0  0
 40 46  1  0  0  0  0
 41 42  2  0  0  0  0
 41 49  1  0  0  0  0
 43 44  1  0  0  0  0
 43 47  1  0  0  0  0
 43 48  1  0  0  0  0
 49 50  1  0  0  0  0
 49 54  1  0  0  0  0
 50 51  1  0  0  0  0
 50 53  1  0  0  0  0
 50 55  1  0  0  0  0
 51 52  2  0  0  0  0
 51 59  1  0  0  0  0
 53 56  1  0  0  0  0
 53 57  1  0  0  0  0
 53 58  1  0  0  0  0
 59 60  1  0  0  0  0
 59 61  1  0  0  0  0
 60 62  1  0  0  0  0
 60 63  1  0  0  0  0
 60 64  1  0  0  0  0
M  END
$$$$

  -OEChem-05262216053D

 64 63  0     1  0  0  0  0  0999 V2000
   -1.4490    4.1858    4.7523 C   0  0  0  0  0  0  0  0  0  0  0  0
   -2.5908    4.0768    4.3324 O   0  0  0  0  0  0  0  0  0  0  0  0
   -1.0795    5.3438    5.6594 C   0  0  0  0  0  0  0  0  0  0  0  0
   -0.2603    5.9160    5.2174 H   0  0  0  0  0  0  0  0  0  0  0  0
   -1.9392    6.0064    5.7932 H   0  0  0  0  0  0  0  0  0  0  0  0
   -0.7673    4.9675    6.6367 H   0  0  0  0  0  0  0  0  0  0  0  0
   -0.4985    3.2488    4.4120 N   0  0  0  0  0  0  0  0  0  0  0  0
   -0.7552    2.0681    3.5767 C   0  0  2  0  0  0  0  0  0  0  0  0
    0.2158    0.9081    3.8865 C   0  0  0  0  0  0  0  0  0  0  0  0
    1.1377    1.0680    4.6806 O   0  0  0  0  0  0  0  0  0  0  0  0
   -0.6707    2.4661    2.0979 C   0  0  0  0  0  0  0  0  0  0  0  0
    1.0171    3.0352    1.6337 S   0  0  0  0  0  0  0  0  0  0  0  0
    0.4245    3.3243    4.8369 H   0  0  0  0  0  0  0  0  0  0  0  0
   -1.7644    1.6967    3.7827 H   0  0  0  0  0  0  0  0  0  0  0  0
   -0.9455    1.6090    1.4783 H   0  0  0  0  0  0  0  0  0  0  0  0
   -1.3900    3.2633    1.8847 H   0  0  0  0  0  0  0  0  0  0  0  0
    0.0328   -0.3339    3.3030 N   0  0  0  0  0  0  0  0  0  0  0  0
    0.9191   -1.4706    3.5270 C   0  0  0  0  0  0  0  0  0  0  0  0
   -0.7258   -0.4350    2.6346 H   0  0  0  0  0  0  0  0  0  0  0  0
    1.8562   -1.3384    2.9767 H   0  0  0  0  0  0  0  0  0  0  0  0
    1.1480   -1.5831    4.5921 H   0  0  0  0  0  0  0  0  0  0  0  0
    0.4412   -2.3936    3.1850 H   0  0  0  0  0  0  0  0  0  0  0  0
   -5.4709    0.8056   -1.3043 C   0  0  0  0  0  0  0  0  0  0  0  0
   -5.6068   -0.3271   -1.7400 O   0  0  0  0  0  0  0  0  0  0  0  0
   -6.4022    1.3181   -0.2219 C   0  0  0  0  0  0  0  0  0  0  0  0
   -6.8888    2.2385   -0.5533 H   0  0  0  0  0  0  0  0  0  0  0  0
   -7.1714    0.5728   -0.0013 H   0  0  0  0  0  0  0  0  0  0  0  0
   -5.8359    1.5215    0.6903 H   0  0  0  0  0  0  0  0  0  0  0  0
   -4.4583    1.6174   -1.7720 N   0  0  0  0  0  0  0  0  0  0  0  0
   -3.3371    1.1361   -2.5945 C   0  0  2  0  0  0  0  0  0  0  0  0
   -1.9802    1.3160   -1.8793 C   0  0  0  0  0  0  0  0  0  0  0  0
   -1.9237    2.0624   -0.9171 O   0  0  0  0  0  0  0  0  0  0  0  0
   -3.3559    1.9140   -3.9121 C   0  0  0  0  0  0  0  0  0  0  0  0
   -4.2764    2.4541   -1.2191 H   0  0  0  0  0  0  0  0  0  0  0  0
   -3.4523    0.0702   -2.8167 H   0  0  0  0  0  0  0  0  0  0  0  0
   -3.2209    2.9848   -3.7275 H   0  0  0  0  0  0  0  0  0  0  0  0
   -2.5545    1.5707   -4.5734 H   0  0  0  0  0  0  0  0  0  0  0  0
   -4.3121    1.7657   -4.4241 H   0  0  0  0  0  0  0  0  0  0  0  0
   -0.9068    0.5340   -2.2706 N   0  0  0  0  0  0  0  0  0  0  0  0
    0.5588    0.6703   -2.0743 C   0  0  2  0  0  0  0  0  0  0  0  0
    1.1988   -0.6932   -2.4007 C   0  0  0  0  0  0  0  0  0  0  0  0
    1.1207   -1.1184   -3.5461 O   0  0  0  0  0  0  0  0  0  0  0  0
    1.1570    1.2558   -0.7710 C   0  0  0  0  0  0  0  0  0  0  0  0
    0.7893    3.0267   -0.4386 S   0  0  0  0  0  0  0  0  0  0  0  0
   -1.1465   -0.1075   -3.0255 H   0  0  0  0  0  0  0  0  0  0  0  0
    0.9029    1.3517   -2.8593 H   0  0  0  0  0  0  0  0  0  0  0  0
    0.7754    0.6694    0.0697 H   0  0  0  0  0  0  0  0  0  0  0  0
    2.2462    1.1450   -0.7872 H   0  0  0  0  0  0  0  0  0  0  0  0
    1.6580   -1.5303   -1.3997 N   0  0  0  0  0  0  0  0  0  0  0  0
    1.9259   -2.9644   -1.5688 C   0  0  2  0  0  0  0  0  0  0  0  0
    1.4001   -3.7704   -0.3623 C   0  0  0  0  0  0  0  0  0  0  0  0
    1.0555   -3.1864    0.6605 O   0  0  0  0  0  0  0  0  0  0  0  0
    3.4361   -3.1505   -1.7347 C   0  0  0  0  0  0  0  0  0  0  0  0
    1.4819   -1.2273   -0.4417 H   0  0  0  0  0  0  0  0  0  0  0  0
    1.4165   -3.3457   -2.4600 H   0  0  0  0  0  0  0  0  0  0  0  0
    3.9671   -2.7879   -0.8484 H   0  0  0  0  0  0  0  0  0  0  0  0
    3.6810   -4.2070   -1.8799 H   0  0  0  0  0  0  0  0  0  0  0  0
    3.7910   -2.5919   -2.6067 H   0  0  0  0  0  0  0  0  0  0  0  0
    1.2905   -5.1467   -0.4293 N   0  0  0  0  0  0  0  0  0  0  0  0
    0.7696   -5.9634    0.6605 C   0  0  0  0  0  0  0  0  0  0  0  0
    1.5604   -5.6006   -1.2975 H   0  0  0  0  0  0  0  0  0  0  0  0
    1.4028   -5.8672    1.5488 H   0  0  0  0  0  0  0  0  0  0  0  0
   -0.2491   -5.6549    0.9184 H   0  0  0  0  0  0  0  0  0  0  0  0
    0.7459   -7.0171    0.3659 H   0  0  0  0  0  0  0  0  0  0  0  0
  1  2  2  0  0  0  0
  1  3  1  0  0  0  0
  1  7  1  0  0  0  0
  3  4  1  0  0  0  0
  3  5  1  0  0  0  0
  3  6  1  0  0  0  0
  7  8  1  0  0  0  0
  7 13  1  0  0  0  0
  8  9  1  0  0  0  0
  8 11  1  0  0  0  0
  8 14  1  0  0  0  0
  9 10  2  0  0  0  0
  9 17  1  0  0  0  0
 11 12  1  0  0  0  0
 11 15  1  0  0  0  0
 11 16  1  0  0  0  0
 12 44  1  0  0  0  0
 17 18  1  0  0  0  0
 17 19  1  0  0  0  0
 18 20  1  0  0  0  0
 18 21  1  0  0  0  0
 18 22  1  0  0  0  0
 23 24  2  0  0  0  0
 23 25  1  0  0  0  0
 23 29  1  0  0  0  0
 25 26  1  0  0  0  0
 25 27  1  0  0  0  0
 25 28  1  0  0  0  0
 29 30  1  0  0  0  0
 29 34  1  0  0  0  0
 30 31  1  0  0  0  0
 30 33  1  0  0  0  0
 30 35  1  0  0  0  0
 31 32  2  0  0  0  0
 31 39  1  0  0  0  0
 33 36  1  0  0  0  0
 33 37  1  0  0  0  0
 33 38  1  0  0  0  0
 39 40  1  0  0  0  0
 39 45  1  0  0  0  0
 40 41  1  0  0  0  0
 40 43  1  0  0  0  0
 40 46  1  0  0  0  0
 41 42  2  0  0  0  0
 41 49  1  0  0  0  0
 43 44  1  0  0  0  0
 43 47  1  0  0  0  0
 43 48  1  0  0  0  0
 49 50  1  0  0  0  0
 49 54  1  0  0  0  0
 50 51  1  0  0  0  0
 50 53  1  0  0  0  0
 50 55  1  0  0  0  0
 51 52  2  0  0  0  0
 51 59  1  0  0  0  0
 53 56  1  0  0  0  0
 53 57  1  0  0  0  0
 53 58  1  0  0  0  0
 59 60  1  0  0  0  0
 59 61  1  0  0  0  0
 60 62  1  0  0  0  0
 60 63  1  0  0  0  0
 60 64  1  0  0  0  0
M  END
$$$$

  -OEChem-05262216053D

 64 63  0     1  0  0  0  0  0999 V2000
   -1.3064    4.0968    4.8802 C   0  0  0  0  0  0  0  0  0  0  0  0
   -2.4750    4.0621    4.5266 O   0  0  0  0  0  0  0  0  0  0  0  0
   -0.8280    5.1818    5.8261 C   0  0  0  0  0  0  0  0  0  0  0  0
   -0.0427    5.7719    5.3473 H   0  0  0  0  0  0  0  0  0  0  0  0
   -1.6567    5.8449    6.0895 H   0  0  0  0  0  0  0  0  0  0  0  0
   -0.4317    4.7329    6.7402 H   0  0  0  0  0  0  0  0  0  0  0  0
   -0.4214    3.1440    4.4262 N   0  0  0  0  0  0  0  0  0  0  0  0
   -0.7776    2.0249    3.5429 C   0  0  2  0  0  0  0  0  0  0  0  0
    0.1355    0.7980    3.7583 C   0  0  0  0  0  0  0  0  0  0  0  0
    1.1150    0.8777    4.4931 O   0  0  0  0  0  0  0  0  0  0  0  0
   -0.7198    2.4937    2.0827 C   0  0  0  0  0  0  0  0  0  0  0  0
    0.9718    3.0428    1.6065 S   0  0  0  0  0  0  0  0  0  0  0  0
    0.5291    3.1596    4.7930 H   0  0  0  0  0  0  0  0  0  0  0  0
   -1.7991    1.7011    3.7675 H   0  0  0  0  0  0  0  0  0  0  0  0
   -1.0327    1.6765    1.4275 H   0  0  0  0  0  0  0  0  0  0  0  0
   -1.4216    3.3198    1.9284 H   0  0  0  0  0  0  0  0  0  0  0  0
   -0.1612   -0.4139    3.1584 N   0  0  0  0  0  0  0  0  0  0  0  0
    0.6517   -1.6151    3.3162 C   0  0  0  0  0  0  0  0  0  0  0  0
   -0.9732   -0.4549    2.5488 H   0  0  0  0  0  0  0  0  0  0  0  0
    1.5582   -1.5460    2.7064 H   0  0  0  0  0  0  0  0  0  0  0  0
    0.9408   -1.7571    4.3631 H   0  0  0  0  0  0  0  0  0  0  0  0
    0.0856   -2.4968    3.0006 H   0  0  0  0  0  0  0  0  0  0  0  0
   -5.5121    0.8097   -1.4211 C   0  0  0  0  0  0  0  0  0  0  0  0
   -5.6242   -0.3310   -1.8421 O   0  0  0  0  0  0  0  0  0  0  0  0
   -6.4836    1.3337   -0.3806 C   0  0  0  0  0  0  0  0  0  0  0  0
   -6.9657    2.2440   -0.7449 H   0  0  0  0  0  0  0  0  0  0  0  0
   -7.2542    0.5860   -0.1739 H   0  0  0  0  0  0  0  0  0  0  0  0
   -5.9516    1.5581    0.5471 H   0  0  0  0  0  0  0  0  0  0  0  0
   -4.4968    1.6249   -1.8760 N   0  0  0  0  0  0  0  0  0  0  0  0
   -3.3589    1.1486   -2.6773 C   0  0  2  0  0  0  0  0  0  0  0  0
   -2.0137    1.3353   -1.9424 C   0  0  0  0  0  0  0  0  0  0  0  0
   -1.9685    2.0986   -0.9931 O   0  0  0  0  0  0  0  0  0  0  0  0
   -3.3600    1.9273   -3.9946 C   0  0  0  0  0  0  0  0  0  0  0  0
   -4.3383    2.4743   -1.3360 H   0  0  0  0  0  0  0  0  0  0  0  0
   -3.4657    0.0821   -2.9014 H   0  0  0  0  0  0  0  0  0  0  0  0
   -3.2386    2.9993   -3.8071 H   0  0  0  0  0  0  0  0  0  0  0  0
   -2.5426    1.5922   -4.6409 H   0  0  0  0  0  0  0  0  0  0  0  0
   -4.3053    1.7714   -4.5243 H   0  0  0  0  0  0  0  0  0  0  0  0
   -0.9377    0.5456   -2.3110 N   0  0  0  0  0  0  0  0  0  0  0  0
    0.5261    0.6918   -2.1104 C   0  0  2  0  0  0  0  0  0  0  0  0
    1.1749   -0.6737   -2.4000 C   0  0  0  0  0  0  0  0  0  0  0  0
    1.3350   -1.0232   -3.5615 O   0  0  0  0  0  0  0  0  0  0  0  0
    1.1162    1.2804   -0.8051 C   0  0  0  0  0  0  0  0  0  0  0  0
    0.7396    3.0477   -0.4655 S   0  0  0  0  0  0  0  0  0  0  0  0
   -1.1736   -0.1017   -3.0612 H   0  0  0  0  0  0  0  0  0  0  0  0
    0.8734    1.3657   -2.9006 H   0  0  0  0  0  0  0  0  0  0  0  0
    0.7373    0.6911    0.0347 H   0  0  0  0  0  0  0  0  0  0  0  0
    2.2056    1.1723   -0.8194 H   0  0  0  0  0  0  0  0  0  0  0  0
    1.3447   -1.5983   -1.3867 N   0  0  0  0  0  0  0  0  0  0  0  0
    1.5850   -3.0318   -1.5921 C   0  0  2  0  0  0  0  0  0  0  0  0
    0.8664   -3.8681   -0.5117 C   0  0  0  0  0  0  0  0  0  0  0  0
    0.3747   -3.3104    0.4646 O   0  0  0  0  0  0  0  0  0  0  0  0
    3.0961   -3.2751   -1.5575 C   0  0  0  0  0  0  0  0  0  0  0  0
    0.9828   -1.3383   -0.4688 H   0  0  0  0  0  0  0  0  0  0  0  0
    1.1904   -3.3456   -2.5645 H   0  0  0  0  0  0  0  0  0  0  0  0
    3.5101   -2.9768   -0.5888 H   0  0  0  0  0  0  0  0  0  0  0  0
    3.3199   -4.3336   -1.7215 H   0  0  0  0  0  0  0  0  0  0  0  0
    3.5910   -2.6934   -2.3421 H   0  0  0  0  0  0  0  0  0  0  0  0
    0.7430   -5.2389   -0.6414 N   0  0  0  0  0  0  0  0  0  0  0  0
    0.0323   -6.0723    0.3215 C   0  0  0  0  0  0  0  0  0  0  0  0
    1.1305   -5.6725   -1.4747 H   0  0  0  0  0  0  0  0  0  0  0  0
    0.4554   -5.9468    1.3240 H   0  0  0  0  0  0  0  0  0  0  0  0
   -1.0292   -5.8042    0.3506 H   0  0  0  0  0  0  0  0  0  0  0  0
    0.1152   -7.1273    0.0430 H   0  0  0  0  0  0  0  0  0  0  0  0
  1  2  2  0  0  0  0
  1  3  1  0  0  0  0
  1  7  1  0  0  0  0
  3  4  1  0  0  0  0
  3  5  1  0  0  0  0
  3  6  1  0  0  0  0
  7  8  1  0  0  0  0
  7 13  1  0  0  0  0
  8  9  1  0  0  0  0
  8 11  1  0  0  0  0
  8 14  1  0  0  0  0
  9 10  2  0  0  0  0
  9 17  1  0  0  0  0
 11 12  1  0  0  0  0
 11 15  1  0  0  0  0
 11 16  1  0  0  0  0
 12 44  1  0  0  0  0
 17 18  1  0  0  0  0
 17 19  1  0  0  0  0
 18 20  1  0  0  0  0
 18 21  1  0  0  0  0
 18 22  1  0  0  0  0
 23 24  2  0  0  0  0
 23 25  1  0  0  0  0
 23 29  1  0  0  0  0
 25 26  1  0  0  0  0
 25 27  1  0  0  0  0
 25 28  1  0  0  0  0
 29 30  1  0  0  0  0
 29 34  1  0  0  0  0
 30 31  1  0  0  0  0
 30 33  1  0  0  0  0
 30 35  1  0  0  0  0
 31 32  2  0  0  0  0
 31 39  1  0  0  0  0
 33 36  1  0  0  0  0
 33 37  1  0  0  0  0
 33 38  1  0  0  0  0
 39 40  1  0  0  0  0
 39 45  1  0  0  0  0
 40 41  1  0  0  0  0
 40 43  1  0  0  0  0
 40 46  1  0  0  0  0
 41 42  2  0  0  0  0
 41 49  1  0  0  0  0
 43 44  1  0  0  0  0
 43 47  1  0  0  0  0
 43 48  1  0  0  0  0
 49 50  1  0  0  0  0
 49 54  1  0  0  0  0
 50 51  1  0  0  0  0
 50 53  1  0  0  0  0
 50 55  1  0  0  0  0
 51 52  2  0  0  0  0
 51 59  1  0  0  0  0
 53 56  1  0  0  0  0
 53 57  1  0  0  0  0
 53 58  1  0  0  0  0
 59 60  1  0  0  0  0
 59 61  1  0  0  0  0
 60 62  1  0  0  0  0
 60 63  1  0  0  0  0
 60 64  1  0  0  0  0
M  END
$$$$

  -OEChem-05262216053D

 64 63  0     1  0  0  0  0  0999 V2000
   -0.2736    3.9991    5.1880 C   0  0  0  0  0  0  0  0  0  0  0  0
   -1.3919    4.4884    5.1492 O   0  0  0  0  0  0  0  0  0  0  0  0
    0.7280    4.4687    6.2262 C   0  0  0  0  0  0  0  0  0  0  0  0
    1.6059    4.8913    5.7316 H   0  0  0  0  0  0  0  0  0  0  0  0
    0.2788    5.2355    6.8636 H   0  0  0  0  0  0  0  0  0  0  0  0
    1.0390    3.6285    6.8514 H   0  0  0  0  0  0  0  0  0  0  0  0
    0.0767    3.0108    4.2945 N   0  0  0  0  0  0  0  0  0  0  0  0
   -0.8451    2.4021    3.3237 C   0  0  2  0  0  0  0  0  0  0  0  0
   -0.4248    0.9608    2.9554 C   0  0  0  0  0  0  0  0  0  0  0  0
    0.5130    0.4298    3.5438 O   0  0  0  0  0  0  0  0  0  0  0  0
   -0.9652    3.3115    2.0931 C   0  0  0  0  0  0  0  0  0  0  0  0
    0.6414    3.5552    1.2286 S   0  0  0  0  0  0  0  0  0  0  0  0
    0.9697    2.5414    4.4360 H   0  0  0  0  0  0  0  0  0  0  0  0
   -1.8365    2.3191    3.7813 H   0  0  0  0  0  0  0  0  0  0  0  0
   -1.6990    2.8965    1.4001 H   0  0  0  0  0  0  0  0  0  0  0  0
   -1.3429    4.2898    2.4063 H   0  0  0  0  0  0  0  0  0  0  0  0
   -1.1520    0.2066    2.0520 N   0  0  0  0  0  0  0  0  0  0  0  0
   -0.8999   -1.2053    1.7913 C   0  0  0  0  0  0  0  0  0  0  0  0
   -1.7918    0.7055    1.4274 H   0  0  0  0  0  0  0  0  0  0  0  0
    0.1626   -1.3830    1.5981 H   0  0  0  0  0  0  0  0  0  0  0  0
   -1.2047   -1.8122    2.6499 H   0  0  0  0  0  0  0  0  0  0  0  0
   -1.4702   -1.5334    0.9164 H   0  0  0  0  0  0  0  0  0  0  0  0
   -6.0378    0.9984   -1.8650 C   0  0  0  0  0  0  0  0  0  0  0  0
   -6.3183    0.2214   -2.7637 O   0  0  0  0  0  0  0  0  0  0  0  0
   -7.1284    1.5543   -0.9688 C   0  0  0  0  0  0  0  0  0  0  0  0
   -7.1315    2.6459   -1.0168 H   0  0  0  0  0  0  0  0  0  0  0  0
   -8.1057    1.1850   -1.2922 H   0  0  0  0  0  0  0  0  0  0  0  0
   -6.9577    1.2422    0.0643 H   0  0  0  0  0  0  0  0  0  0  0  0
   -4.7247    1.3669   -1.6607 N   0  0  0  0  0  0  0  0  0  0  0  0
   -3.5818    0.7946   -2.3858 C   0  0  2  0  0  0  0  0  0  0  0  0
   -2.2921    0.7935   -1.5361 C   0  0  0  0  0  0  0  0  0  0  0  0
   -2.3117    1.2633   -0.4049 O   0  0  0  0  0  0  0  0  0  0  0  0
   -3.3727    1.6064   -3.6692 C   0  0  0  0  0  0  0  0  0  0  0  0
   -4.5170    1.9221   -0.8318 H   0  0  0  0  0  0  0  0  0  0  0  0
   -3.8010   -0.2462   -2.6485 H   0  0  0  0  0  0  0  0  0  0  0  0
   -3.1317    2.6467   -3.4280 H   0  0  0  0  0  0  0  0  0  0  0  0
   -2.5552    1.1877   -4.2637 H   0  0  0  0  0  0  0  0  0  0  0  0
   -4.2813    1.5927   -4.2801 H   0  0  0  0  0  0  0  0  0  0  0  0
   -1.1947    0.0614   -1.9501 N   0  0  0  0  0  0  0  0  0  0  0  0
    0.2350    0.4585   -1.9266 C   0  0  2  0  0  0  0  0  0  0  0  0
    1.1203   -0.7833   -2.1173 C   0  0  0  0  0  0  0  0  0  0  0  0
    1.5726   -1.0429   -3.2234 O   0  0  0  0  0  0  0  0  0  0  0  0
    0.7894    1.3303   -0.7809 C   0  0  0  0  0  0  0  0  0  0  0  0
    0.0954    3.0328   -0.7173 S   0  0  0  0  0  0  0  0  0  0  0  0
   -1.4197   -0.5299   -2.7479 H   0  0  0  0  0  0  0  0  0  0  0  0
    0.3886    1.0642   -2.8262 H   0  0  0  0  0  0  0  0  0  0  0  0
    0.5891    0.8326    0.1699 H   0  0  0  0  0  0  0  0  0  0  0  0
    1.8763    1.4147   -0.8816 H   0  0  0  0  0  0  0  0  0  0  0  0
    1.2856   -1.6713   -1.0728 N   0  0  0  0  0  0  0  0  0  0  0  0
    1.8253   -3.0310   -1.2119 C   0  0  2  0  0  0  0  0  0  0  0  0
    0.8009   -4.0957   -0.7656 C   0  0  0  0  0  0  0  0  0  0  0  0
   -0.1999   -3.7631   -0.1394 O   0  0  0  0  0  0  0  0  0  0  0  0
    3.0946   -3.1120   -0.3606 C   0  0  0  0  0  0  0  0  0  0  0  0
    0.6780   -1.5129   -0.2702 H   0  0  0  0  0  0  0  0  0  0  0  0
    2.0838   -3.2423   -2.2548 H   0  0  0  0  0  0  0  0  0  0  0  0
    2.8597   -2.9386    0.6947 H   0  0  0  0  0  0  0  0  0  0  0  0
    3.5612   -4.0972   -0.4565 H   0  0  0  0  0  0  0  0  0  0  0  0
    3.8167   -2.3562   -0.6855 H   0  0  0  0  0  0  0  0  0  0  0  0
    1.0048   -5.4316   -1.0570 N   0  0  0  0  0  0  0  0  0  0  0  0
    0.0905   -6.4894   -0.6435 C   0  0  0  0  0  0  0  0  0  0  0  0
    1.8403   -5.6796   -1.5792 H   0  0  0  0  0  0  0  0  0  0  0  0
    0.0114   -6.5219    0.4483 H   0  0  0  0  0  0  0  0  0  0  0  0
   -0.9063   -6.3212   -1.0646 H   0  0  0  0  0  0  0  0  0  0  0  0
    0.4529   -7.4612   -0.9925 H   0  0  0  0  0  0  0  0  0  0  0  0
  1  2  2  0  0  0  0
  1  3  1  0  0  0  0
  1  7  1  0  0  0  0
  3  4  1  0  0  0  0
  3  5  1  0  0  0  0
  3  6  1  0  0  0  0
  7  8  1  0  0  0  0
  7 13  1  0  0  0  0
  8  9  1  0  0  0  0
  8 11  1  0  0  0  0
  8 14  1  0  0  0  0
  9 10  2  0  0  0  0
  9 17  1  0  0  0  0
 11 12  1  0  0  0  0
 11 15  1  0  0  0  0
 11 16  1  0  0  0  0
 12 44  1  0  0  0  0
 17 18  1  0  0  0  0
 17 19  1  0  0  0  0
 18 20  1  0  0  0  0
 18 21  1  0  0  0  0
 18 22  1  0  0  0  0
 23 24  2  0  0  0  0
 23 25  1  0  0  0  0
 23 29  1  0  0  0  0
 25 26  1  0  0  0  0
 25 27  1  0  0  0  0
 25 28  1  0  0  0  0
 29 30  1  0  0  0  0
 29 34  1  0  0  0  0
 30 31  1  0  0  0  0
 30 33  1  0  0  0  0
 30 35  1  0  0  0  0
 31 32  2  0  0  0  0
 31 39  1  0  0  0  0
 33 36  1  0  0  0  0
 33 37  1  0  0  0  0
 33 38  1  0  0  0  0
 39 40  1  0  0  0  0
 39 45  1  0  0  0  0
 40 41  1  0  0  0  0
 40 43  1  0  0  0  0
 40 46  1  0  0  0  0
 41 42  2  0  0  0  0
 41 49  1  0  0  0  0
 43 44  1  0  0  0  0
 43 47  1  0  0  0  0
 43 48  1  0  0  0  0
 49 50  1  0  0  0  0
 49 54  1  0  0  0  0
 50 51  1  0  0  0  0
 50 53  1  0  0  0  0
 50 55  1  0  0  0  0
 51 52  2  0  0  0  0
 51 59  1  0  0  0  0
 53 56  1  0  0  0  0
 53 57  1  0  0  0  0
 53 58  1  0  0  0  0
 59 60  1  0  0  0  0
 59 61  1  0  0  0  0
 60 62  1  0  0  0  0
 60 63  1  0  0  0  0
 60 64  1  0  0  0  0
M  END
$$$$

  -OEChem-05262216053D

 64 63  0     1  0  0  0  0  0999 V2000
   -1.6322    3.8674    4.4734 C   0  0  0  0  0  0  0  0  0  0  0  0
   -2.7831    4.0631    4.1121 O   0  0  0  0  0  0  0  0  0  0  0  0
   -1.0210    4.7150    5.5725 C   0  0  0  0  0  0  0  0  0  0  0  0
   -0.1046    5.1884    5.2115 H   0  0  0  0  0  0  0  0  0  0  0  0
   -1.7226    5.4950    5.8805 H   0  0  0  0  0  0  0  0  0  0  0  0
   -0.7841    4.0904    6.4372 H   0  0  0  0  0  0  0  0  0  0  0  0
   -0.8844    2.8760    3.8780 N   0  0  0  0  0  0  0  0  0  0  0  0
   -1.3469    2.0533    2.7532 C   0  0  2  0  0  0  0  0  0  0  0  0
   -0.5678    0.7287    2.6230 C   0  0  0  0  0  0  0  0  0  0  0  0
    0.5029    0.5697    3.2017 O   0  0  0  0  0  0  0  0  0  0  0  0
   -1.2333    2.8561    1.4508 C   0  0  0  0  0  0  0  0  0  0  0  0
    0.4794    3.4701    1.1745 S   0  0  0  0  0  0  0  0  0  0  0  0
    0.0777    2.7468    4.1862 H   0  0  0  0  0  0  0  0  0  0  0  0
   -2.3961    1.7879    2.9172 H   0  0  0  0  0  0  0  0  0  0  0  0
   -1.5335    2.2277    0.6088 H   0  0  0  0  0  0  0  0  0  0  0  0
   -1.9170    3.7099    1.4815 H   0  0  0  0  0  0  0  0  0  0  0  0
   -1.0868   -0.3078    1.8696 N   0  0  0  0  0  0  0  0  0  0  0  0
   -0.5537   -1.6600    1.9147 C   0  0  0  0  0  0  0  0  0  0  0  0
   -2.0586   -0.1873    1.5660 H   0  0  0  0  0  0  0  0  0  0  0  0
    0.5346   -1.6478    1.8007 H   0  0  0  0  0  0  0  0  0  0  0  0
   -0.8010   -2.1351    2.8695 H   0  0  0  0  0  0  0  0  0  0  0  0
   -0.9814   -2.2586    1.1048 H   0  0  0  0  0  0  0  0  0  0  0  0
   -4.2827    1.2029    0.3383 C   0  0  0  0  0  0  0  0  0  0  0  0
   -3.7529    0.4152    1.1091 O   0  0  0  0  0  0  0  0  0  0  0  0
   -5.0544    2.3893    0.8831 C   0  0  0  0  0  0  0  0  0  0  0  0
   -5.0780    2.3570    1.9764 H   0  0  0  0  0  0  0  0  0  0  0  0
   -4.5750    3.3212    0.5721 H   0  0  0  0  0  0  0  0  0  0  0  0
   -6.0805    2.3728    0.5082 H   0  0  0  0  0  0  0  0  0  0  0  0
   -4.0969    1.0663   -1.0208 N   0  0  0  0  0  0  0  0  0  0  0  0
   -3.0760    0.1836   -1.6094 C   0  0  2  0  0  0  0  0  0  0  0  0
   -1.7901    0.9578   -1.9753 C   0  0  0  0  0  0  0  0  0  0  0  0
   -1.8583    2.1599   -2.1776 O   0  0  0  0  0  0  0  0  0  0  0  0
   -3.6849   -0.4662   -2.8535 C   0  0  0  0  0  0  0  0  0  0  0  0
   -4.3489    1.8834   -1.5736 H   0  0  0  0  0  0  0  0  0  0  0  0
   -2.8011   -0.6139   -0.9107 H   0  0  0  0  0  0  0  0  0  0  0  0
   -3.9434    0.2948   -3.5969 H   0  0  0  0  0  0  0  0  0  0  0  0
   -2.9754   -1.1673   -3.3046 H   0  0  0  0  0  0  0  0  0  0  0  0
   -4.5916   -1.0180   -2.5871 H   0  0  0  0  0  0  0  0  0  0  0  0
   -0.6248    0.2570   -2.2143 N   0  0  0  0  0  0  0  0  0  0  0  0
    0.7915    0.7044   -2.2107 C   0  0  2  0  0  0  0  0  0  0  0  0
    1.6693   -0.5588   -2.1745 C   0  0  0  0  0  0  0  0  0  0  0  0
    2.2441   -0.9165   -3.1933 O   0  0  0  0  0  0  0  0  0  0  0  0
    1.2893    1.5982   -1.0442 C   0  0  0  0  0  0  0  0  0  0  0  0
    0.5593    3.2782   -0.8975 S   0  0  0  0  0  0  0  0  0  0  0  0
   -0.7559   -0.7574   -2.1436 H   0  0  0  0  0  0  0  0  0  0  0  0
    0.9848    1.2369   -3.1481 H   0  0  0  0  0  0  0  0  0  0  0  0
    1.0945    1.0741   -0.1036 H   0  0  0  0  0  0  0  0  0  0  0  0
    2.3742    1.7212   -1.1292 H   0  0  0  0  0  0  0  0  0  0  0  0
    1.5586   -1.4458   -1.1153 N   0  0  0  0  0  0  0  0  0  0  0  0
    1.5427   -2.8927   -1.3855 C   0  0  2  0  0  0  0  0  0  0  0  0
    0.1443   -3.3460   -1.8663 C   0  0  0  0  0  0  0  0  0  0  0  0
   -0.8326   -2.6169   -1.6945 O   0  0  0  0  0  0  0  0  0  0  0  0
    1.9622   -3.6434   -0.1202 C   0  0  0  0  0  0  0  0  0  0  0  0
    0.9338   -1.1271   -0.3774 H   0  0  0  0  0  0  0  0  0  0  0  0
    2.2685   -3.1373   -2.1689 H   0  0  0  0  0  0  0  0  0  0  0  0
    1.2114   -3.5351    0.6662 H   0  0  0  0  0  0  0  0  0  0  0  0
    2.0819   -4.7100   -0.3338 H   0  0  0  0  0  0  0  0  0  0  0  0
    2.9168   -3.2563    0.2504 H   0  0  0  0  0  0  0  0  0  0  0  0
   -0.0193   -4.5510   -2.5216 N   0  0  0  0  0  0  0  0  0  0  0  0
   -1.2897   -4.9814   -3.0937 C   0  0  0  0  0  0  0  0  0  0  0  0
    0.8189   -5.0849   -2.7362 H   0  0  0  0  0  0  0  0  0  0  0  0
   -2.0555   -5.0590   -2.3146 H   0  0  0  0  0  0  0  0  0  0  0  0
   -1.6297   -4.2687   -3.8528 H   0  0  0  0  0  0  0  0  0  0  0  0
   -1.1786   -5.9623   -3.5661 H   0  0  0  0  0  0  0  0  0  0  0  0
  1  2  2  0  0  0  0
  1  3  1  0  0  0  0
  1  7  1  0  0  0  0
  3  4  1  0  0  0  0
  3  5  1  0  0  0  0
  3  6  1  0  0  0  0
  7  8  1  0  0  0  0
  7 13  1  0  0  0  0
  8  9  1  0  0  0  0
  8 11  1  0  0  0  0
  8 14  1  0  0  0  0
  9 10  2  0  0  0  0
  9 17  1  0  0  0  0
 11 12  1  0  0  0  0
 11 15  1  0  0  0  0
 11 16  1  0  0  0  0
 12 44  1  0  0  0  0
 17 18  1  0  0  0  0
 17 19  1  0  0  0  0
 18 20  1  0  0  0  0
 18 21  1  0  0  0  0
 18 22  1  0  0  0  0
 23 24  2  0  0  0  0
 23 25  1  0  0  0  0
 23 29  1  0  0  0  0
 25 26  1  0  0  0  0
 25 27  1  0  0  0  0
 25 28  1  0  0  0  0
 29 30  1  0  0  0  0
 29 34  1  0  0  0  0
 30 31  1  0  0  0  0
 30 33  1  0  0  0  0
 30 35  1  0  0  0  0
 31 32  2  0  0  0  0
 31 39  1  0  0  0  0
 33 36  1  0  0  0  0
 33 37  1  0  0  0  0
 33 38  1  0  0  0  0
 39 40  1  0  0  0  0
 39 45  1  0  0  0  0
 40 41  1  0  0  0  0
 40 43  1  0  0  0  0
 40 46  1  0  0  0  0
 41 42  2  0  0  0  0
 41 49  1  0  0  0  0
 43 44  1  0  0  0  0
 43 47  1  0  0  0  0
 43 48  1  0  0  0  0
 49 50  1  0  0  0  0
 49 54  1  0  0  0  0
 50 51  1  0  0  0  0
 50 53  1  0  0  0  0
 50 55  1  0  0  0  0
 51 52  2  0  0  0  0
 51 59  1  0  0  0  0
 53 56  1  0  0  0  0
 53 57  1  0  0  0  0
 53 58  1  0  0  0  0
 59 60  1  0  0  0  0
 59 61  1  0  0  0  0
 60 62  1  0  0  0  0
 60 63  1  0  0  0  0
 60 64  1  0  0  0  0
M  END
$$$$

  -OEChem-05262216053D

 64 63  0     1  0  0  0  0  0999 V2000
   -1.8859    3.9876    4.2457 C   0  0  0  0  0  0  0  0  0  0  0  0
   -2.9965    4.0445    3.7375 O   0  0  0  0  0  0  0  0  0  0  0  0
   -1.4768    4.9978    5.3005 C   0  0  0  0  0  0  0  0  0  0  0  0
   -0.5856    5.5382    4.9719 H   0  0  0  0  0  0  0  0  0  0  0  0
   -2.2837    5.7171    5.4660 H   0  0  0  0  0  0  0  0  0  0  0  0
   -1.2592    4.4885    6.2424 H   0  0  0  0  0  0  0  0  0  0  0  0
   -1.0040    3.0040    3.8558 N   0  0  0  0  0  0  0  0  0  0  0  0
   -1.2818    2.0189    2.8035 C   0  0  2  0  0  0  0  0  0  0  0  0
   -0.4548    0.7253    2.9449 C   0  0  0  0  0  0  0  0  0  0  0  0
    0.5060    0.6743    3.7063 O   0  0  0  0  0  0  0  0  0  0  0  0
   -1.0332    2.6563    1.4308 C   0  0  0  0  0  0  0  0  0  0  0  0
    0.6904    3.2720    1.2578 S   0  0  0  0  0  0  0  0  0  0  0  0
   -0.0852    2.9745    4.2943 H   0  0  0  0  0  0  0  0  0  0  0  0
   -2.3313    1.7194    2.8716 H   0  0  0  0  0  0  0  0  0  0  0  0
   -1.2271    1.9170    0.6505 H   0  0  0  0  0  0  0  0  0  0  0  0
   -1.7265    3.4881    1.2733 H   0  0  0  0  0  0  0  0  0  0  0  0
   -0.8242   -0.4078    2.2429 N   0  0  0  0  0  0  0  0  0  0  0  0
   -0.2138   -1.7120    2.4563 C   0  0  0  0  0  0  0  0  0  0  0  0
   -1.7171   -0.3588    1.7412 H   0  0  0  0  0  0  0  0  0  0  0  0
    0.8230   -1.7110    2.1048 H   0  0  0  0  0  0  0  0  0  0  0  0
   -0.2263   -1.9744    3.5195 H   0  0  0  0  0  0  0  0  0  0  0  0
   -0.7690   -2.4781    1.9079 H   0  0  0  0  0  0  0  0  0  0  0  0
   -4.0182    1.0343    0.3703 C   0  0  0  0  0  0  0  0  0  0  0  0
   -3.3325    0.1743    0.9101 O   0  0  0  0  0  0  0  0  0  0  0  0
   -4.7754    2.0424    1.2145 C   0  0  0  0  0  0  0  0  0  0  0  0
   -5.8147    2.1038    0.8836 H   0  0  0  0  0  0  0  0  0  0  0  0
   -4.7607    1.7459    2.2670 H   0  0  0  0  0  0  0  0  0  0  0  0
   -4.3133    3.0291    1.1234 H   0  0  0  0  0  0  0  0  0  0  0  0
   -4.0369    1.1365   -1.0048 N   0  0  0  0  0  0  0  0  0  0  0  0
   -3.1171    0.3803   -1.8684 C   0  0  2  0  0  0  0  0  0  0  0  0
   -1.7496    1.0809   -2.0237 C   0  0  0  0  0  0  0  0  0  0  0  0
   -1.7092    2.2992   -2.0581 O   0  0  0  0  0  0  0  0  0  0  0  0
   -3.7832    0.2102   -3.2345 C   0  0  0  0  0  0  0  0  0  0  0  0
   -4.3940    2.0147   -1.3740 H   0  0  0  0  0  0  0  0  0  0  0  0
   -2.9466   -0.6175   -1.4490 H   0  0  0  0  0  0  0  0  0  0  0  0
   -3.9547    1.1851   -3.7022 H   0  0  0  0  0  0  0  0  0  0  0  0
   -3.1459   -0.3855   -3.8958 H   0  0  0  0  0  0  0  0  0  0  0  0
   -4.7441   -0.3018   -3.1273 H   0  0  0  0  0  0  0  0  0  0  0  0
   -0.6272    0.3034   -2.2336 N   0  0  0  0  0  0  0  0  0  0  0  0
    0.8240    0.6247   -2.2043 C   0  0  2  0  0  0  0  0  0  0  0  0
    1.5852   -0.7119   -2.1455 C   0  0  0  0  0  0  0  0  0  0  0  0
    2.3619   -1.0125   -3.0409 O   0  0  0  0  0  0  0  0  0  0  0  0
    1.3891    1.4417   -1.0134 C   0  0  0  0  0  0  0  0  0  0  0  0
    0.8179    3.1769   -0.8195 S   0  0  0  0  0  0  0  0  0  0  0  0
   -0.8518   -0.6884   -2.3682 H   0  0  0  0  0  0  0  0  0  0  0  0
    1.0842    1.1453   -3.1319 H   0  0  0  0  0  0  0  0  0  0  0  0
    1.1439    0.9089   -0.0895 H   0  0  0  0  0  0  0  0  0  0  0  0
    2.4812    1.4693   -1.0913 H   0  0  0  0  0  0  0  0  0  0  0  0
    1.1475   -1.6915   -1.2689 N   0  0  0  0  0  0  0  0  0  0  0  0
    1.0757   -3.0932   -1.7045 C   0  0  2  0  0  0  0  0  0  0  0  0
   -0.1821   -3.3360   -2.5707 C   0  0  0  0  0  0  0  0  0  0  0  0
   -1.1320   -2.5567   -2.5011 O   0  0  0  0  0  0  0  0  0  0  0  0
    1.0536   -3.9834   -0.4609 C   0  0  0  0  0  0  0  0  0  0  0  0
    0.3975   -1.3808   -0.6550 H   0  0  0  0  0  0  0  0  0  0  0  0
    1.9612   -3.3516   -2.2956 H   0  0  0  0  0  0  0  0  0  0  0  0
    0.1507   -3.7991    0.1286 H   0  0  0  0  0  0  0  0  0  0  0  0
    1.0689   -5.0393   -0.7480 H   0  0  0  0  0  0  0  0  0  0  0  0
    1.9287   -3.7834    0.1654 H   0  0  0  0  0  0  0  0  0  0  0  0
   -0.2479   -4.4100   -3.4374 N   0  0  0  0  0  0  0  0  0  0  0  0
   -1.3653   -4.6341   -4.3473 C   0  0  0  0  0  0  0  0  0  0  0  0
    0.5861   -4.9822   -3.5386 H   0  0  0  0  0  0  0  0  0  0  0  0
   -2.3041   -4.7189   -3.7900 H   0  0  0  0  0  0  0  0  0  0  0  0
   -1.4512   -3.8066   -5.0593 H   0  0  0  0  0  0  0  0  0  0  0  0
   -1.2155   -5.5605   -4.9102 H   0  0  0  0  0  0  0  0  0  0  0  0
  1  2  2  0  0  0  0
  1  3  1  0  0  0  0
  1  7  1  0  0  0  0
  3  4  1  0  0  0  0
  3  5  1  0  0  0  0
  3  6  1  0  0  0  0
  7  8  1  0  0  0  0
  7 13  1  0  0  0  0
  8  9  1  0  0  0  0
  8 11  1  0  0  0  0
  8 14  1  0  0  0  0
  9 10  2  0  0  0  0
  9 17  1  0  0  0  0
 11 12  1  0  0  0  0
 11 15  1  0  0  0  0
 11 16  1  0  0  0  0
 12 44  1  0  0  0  0
 17 18  1  0  0  0  0
 17 19  1  0  0  0  0
 18 20  1  0  0  0  0
 18 21  1  0  0  0  0
 18 22  1  0  0  0  0
 23 24  2  0  0  0  0
 23 25  1  0  0  0  0
 23 29  1  0  0  0  0
 25 26  1  0  0  0  0
 25 27  1  0  0  0  0
 25 28  1  0  0  0  0
 29 30  1  0  0  0  0
 29 34  1  0  0  0  0
 30 31  1  0  0  0  0
 30 33  1  0  0  0  0
 30 35  1  0  0  0  0
 31 32  2  0  0  0  0
 31 39  1  0  0  0  0
 33 36  1  0  0  0  0
 33 37  1  0  0  0  0
 33 38  1  0  0  0  0
 39 40  1  0  0  0  0
 39 45  1  0  0  0  0
 40 41  1  0  0  0  0
 40 43  1  0  0  0  0
 40 46  1  0  0  0  0
 41 42  2  0  0  0  0
 41 49  1  0  0  0  0
 43 44  1  0  0  0  0
 43 47  1  0  0  0  0
 43 48  1  0  0  0  0
 49 50  1  0  0  0  0
 49 54  1  0  0  0  0
 50 51  1  0  0  0  0
 50 53  1  0  0  0  0
 50 55  1  0  0  0  0
 51 52  2  0  0  0  0
 51 59  1  0  0  0  0
 53 56  1  0  0  0  0
 53 57  1  0  0  0  0
 53 58  1  0  0  0  0
 59 60  1  0  0  0  0
 59 61  1  0  0  0  0
 60 62  1  0  0  0  0
 60 63  1  0  0  0  0
 60 64  1  0  0  0  0
M  END
$$$$

  -OEChem-05262216053D

 64 63  0     1  0  0  0  0  0999 V2000
   -1.8836    3.7870    4.3704 C   0  0  0  0  0  0  0  0  0  0  0  0
   -2.9936    3.8861    3.8674 O   0  0  0  0  0  0  0  0  0  0  0  0
   -1.4957    4.6685    5.5420 C   0  0  0  0  0  0  0  0  0  0  0  0
   -0.6573    5.3105    5.2613 H   0  0  0  0  0  0  0  0  0  0  0  0
   -2.3397    5.2987    5.8357 H   0  0  0  0  0  0  0  0  0  0  0  0
   -1.2041    4.0508    6.3947 H   0  0  0  0  0  0  0  0  0  0  0  0
   -0.9838    2.8717    3.8700 N   0  0  0  0  0  0  0  0  0  0  0  0
   -1.2539    1.9878    2.7292 C   0  0  2  0  0  0  0  0  0  0  0  0
   -0.4286    0.6856    2.7636 C   0  0  0  0  0  0  0  0  0  0  0  0
    0.5142    0.5615    3.5391 O   0  0  0  0  0  0  0  0  0  0  0  0
   -0.9908    2.7492    1.4247 C   0  0  0  0  0  0  0  0  0  0  0  0
    0.7575    3.3059    1.2967 S   0  0  0  0  0  0  0  0  0  0  0  0
   -0.0713    2.7941    4.3165 H   0  0  0  0  0  0  0  0  0  0  0  0
   -2.3045    1.6856    2.7573 H   0  0  0  0  0  0  0  0  0  0  0  0
   -1.2218    2.0989    0.5782 H   0  0  0  0  0  0  0  0  0  0  0  0
   -1.6507    3.6195    1.3585 H   0  0  0  0  0  0  0  0  0  0  0  0
   -0.7799   -0.3773    1.9512 N   0  0  0  0  0  0  0  0  0  0  0  0
   -0.1703   -1.6944    2.0636 C   0  0  0  0  0  0  0  0  0  0  0  0
   -1.6688   -0.2874    1.4488 H   0  0  0  0  0  0  0  0  0  0  0  0
    0.8945   -1.6469    1.8131 H   0  0  0  0  0  0  0  0  0  0  0  0
   -0.2766   -2.0814    3.0824 H   0  0  0  0  0  0  0  0  0  0  0  0
   -0.6587   -2.3921    1.3783 H   0  0  0  0  0  0  0  0  0  0  0  0
   -3.9786    1.1575    0.1734 C   0  0  0  0  0  0  0  0  0  0  0  0
   -3.2946    0.2656    0.6617 O   0  0  0  0  0  0  0  0  0  0  0  0
   -4.7266    2.1218    1.0746 C   0  0  0  0  0  0  0  0  0  0  0  0
   -5.7563    2.2377    0.7282 H   0  0  0  0  0  0  0  0  0  0  0  0
   -4.7433    1.7475    2.1019 H   0  0  0  0  0  0  0  0  0  0  0  0
   -4.2358    3.0986    1.0665 H   0  0  0  0  0  0  0  0  0  0  0  0
   -4.0033    1.3318   -1.1945 N   0  0  0  0  0  0  0  0  0  0  0  0
   -3.0958    0.6044   -2.0939 C   0  0  2  0  0  0  0  0  0  0  0  0
   -1.6778    1.2145   -2.1097 C   0  0  0  0  0  0  0  0  0  0  0  0
   -1.5573    2.4273   -2.1005 O   0  0  0  0  0  0  0  0  0  0  0  0
   -3.7005    0.6202   -3.4989 C   0  0  0  0  0  0  0  0  0  0  0  0
   -4.3526    2.2309   -1.5178 H   0  0  0  0  0  0  0  0  0  0  0  0
   -3.0169   -0.4399   -1.7715 H   0  0  0  0  0  0  0  0  0  0  0  0
   -3.7875    1.6470   -3.8689 H   0  0  0  0  0  0  0  0  0  0  0  0
   -3.0678    0.0538   -4.1900 H   0  0  0  0  0  0  0  0  0  0  0  0
   -4.6956    0.1651   -3.4895 H   0  0  0  0  0  0  0  0  0  0  0  0
   -0.5985    0.3595   -2.2225 N   0  0  0  0  0  0  0  0  0  0  0  0
    0.8701    0.5747   -2.1103 C   0  0  2  0  0  0  0  0  0  0  0  0
    1.5420   -0.8052   -1.9615 C   0  0  0  0  0  0  0  0  0  0  0  0
    2.5193   -1.0795   -2.6431 O   0  0  0  0  0  0  0  0  0  0  0  0
    1.4175    1.3763   -0.9008 C   0  0  0  0  0  0  0  0  0  0  0  0
    0.9652    3.1521   -0.7712 S   0  0  0  0  0  0  0  0  0  0  0  0
   -0.8806   -0.5944   -2.4717 H   0  0  0  0  0  0  0  0  0  0  0  0
    1.2261    1.0501   -3.0304 H   0  0  0  0  0  0  0  0  0  0  0  0
    1.0774    0.8791    0.0127 H   0  0  0  0  0  0  0  0  0  0  0  0
    2.5116    1.3246   -0.9084 H   0  0  0  0  0  0  0  0  0  0  0  0
    0.8439   -1.8287   -1.3411 N   0  0  0  0  0  0  0  0  0  0  0  0
    0.7761   -3.1667   -1.9437 C   0  0  2  0  0  0  0  0  0  0  0  0
   -0.3647   -3.2371   -2.9838 C   0  0  0  0  0  0  0  0  0  0  0  0
   -1.2612   -2.3939   -2.9638 O   0  0  0  0  0  0  0  0  0  0  0  0
    0.5510   -4.1862   -0.8260 C   0  0  0  0  0  0  0  0  0  0  0  0
   -0.0060   -1.5129   -0.8784 H   0  0  0  0  0  0  0  0  0  0  0  0
    1.7186   -3.4101   -2.4460 H   0  0  0  0  0  0  0  0  0  0  0  0
   -0.4153   -4.0184   -0.3403 H   0  0  0  0  0  0  0  0  0  0  0  0
    0.5624   -5.2034   -1.2295 H   0  0  0  0  0  0  0  0  0  0  0  0
    1.3418   -4.1042   -0.0735 H   0  0  0  0  0  0  0  0  0  0  0  0
   -0.3825   -4.2292   -3.9451 N   0  0  0  0  0  0  0  0  0  0  0  0
   -1.3890   -4.3050   -4.9973 C   0  0  0  0  0  0  0  0  0  0  0  0
    0.4119   -4.8627   -3.9812 H   0  0  0  0  0  0  0  0  0  0  0  0
   -2.3921   -4.3760   -4.5643 H   0  0  0  0  0  0  0  0  0  0  0  0
   -1.3423   -3.4174   -5.6368 H   0  0  0  0  0  0  0  0  0  0  0  0
   -1.2206   -5.1891   -5.6197 H   0  0  0  0  0  0  0  0  0  0  0  0
  1  2  2  0  0  0  0
  1  3  1  0  0  0  0
  1  7  1  0  0  0  0
  3  4  1  0  0  0  0
  3  5  1  0  0  0  0
  3  6  1  0  0  0  0
  7  8  1  0  0  0  0
  7 13  1  0  0  0  0
  8  9  1  0  0  0  0
  8 11  1  0  0  0  0
  8 14  1  0  0  0  0
  9 10  2  0  0  0  0
  9 17  1  0  0  0  0
 11 12  1  0  0  0  0
 11 15  1  0  0  0  0
 11 16  1  0  0  0  0
 12 44  1  0  0  0  0
 17 18  1  0  0  0  0
 17 19  1  0  0  0  0
 18 20  1  0  0  0  0
 18 21  1  0  0  0  0
 18 22  1  0  0  0  0
 23 24  2  0  0  0  0
 23 25  1  0  0  0  0
 23 29  1  0  0  0  0
 25 26  1  0  0  0  0
 25 27  1  0  0  0  0
 25 28  1  0  0  0  0
 29 30  1  0  0  0  0
 29 34  1  0  0  0  0
 30 31  1  0  0  0  0
 30 33  1  0  0  0  0
 30 35  1  0  0  0  0
 31 32  2  0  0  0  0
 31 39  1  0  0  0  0
 33 36  1  0  0  0  0
 33 37  1  0  0  0  0
 33 38  1  0  0  0  0
 39 40  1  0  0  0  0
 39 45  1  0  0  0  0
 40 41  1  0  0  0  0
 40 43  1  0  0  0  0
 40 46  1  0  0  0  0
 41 42  2  0  0  0  0
 41 49  1  0  0  0  0
 43 44  1  0  0  0  0
 43 47  1  0  0  0  0
 43 48  1  0  0  0  0
 49 50  1  0  0  0  0
 49 54  1  0  0  0  0
 50 51  1  0  0  0  0
 50 53  1  0  0  0  0
 50 55  1  0  0  0  0
 51 52  2  0  0  0  0
 51 59  1  0  0  0  0
 53 56  1  0  0  0  0
 53 57  1  0  0  0  0
 53 58  1  0  0  0  0
 59 60  1  0  0  0  0
 59 61  1  0  0  0  0
 60 62  1  0  0  0  0
 60 63  1  0  0  0  0
 60 64  1  0  0  0  0
M  END
$$$$

  -OEChem-05262216053D

 64 63  0     1  0  0  0  0  0999 V2000
   -0.6498    4.4086    4.9646 C   0  0  0  0  0  0  0  0  0  0  0  0
   -1.6953    5.0021    4.7494 O   0  0  0  0  0  0  0  0  0  0  0  0
    0.2141    4.7948    6.1505 C   0  0  0  0  0  0  0  0  0  0  0  0
    1.2089    5.0885    5.8069 H   0  0  0  0  0  0  0  0  0  0  0  0
   -0.2357    5.6354    6.6862 H   0  0  0  0  0  0  0  0  0  0  0  0
    0.3074    3.9490    6.8360 H   0  0  0  0  0  0  0  0  0  0  0  0
   -0.2585    3.3794    4.1368 N   0  0  0  0  0  0  0  0  0  0  0  0
   -1.0718    2.8427    3.0353 C   0  0  2  0  0  0  0  0  0  0  0  0
   -0.7764    1.3470    2.7808 C   0  0  0  0  0  0  0  0  0  0  0  0
   -0.0653    0.7257    3.5658 O   0  0  0  0  0  0  0  0  0  0  0  0
   -0.8672    3.7059    1.7834 C   0  0  0  0  0  0  0  0  0  0  0  0
    0.8766    3.7024    1.1945 S   0  0  0  0  0  0  0  0  0  0  0  0
    0.5475    2.8257    4.4226 H   0  0  0  0  0  0  0  0  0  0  0  0
   -2.1292    2.8971    3.3138 H   0  0  0  0  0  0  0  0  0  0  0  0
   -1.5268    3.3592    0.9857 H   0  0  0  0  0  0  0  0  0  0  0  0
   -1.1574    4.7369    2.0083 H   0  0  0  0  0  0  0  0  0  0  0  0
   -1.3840    0.6543    1.7490 N   0  0  0  0  0  0  0  0  0  0  0  0
   -1.1958   -0.7757    1.5358 C   0  0  0  0  0  0  0  0  0  0  0  0
   -1.7798    1.2094    0.9845 H   0  0  0  0  0  0  0  0  0  0  0  0
   -0.1320   -1.0168    1.4418 H   0  0  0  0  0  0  0  0  0  0  0  0
   -1.6132   -1.3439    2.3734 H   0  0  0  0  0  0  0  0  0  0  0  0
   -1.7024   -1.0917    0.6205 H   0  0  0  0  0  0  0  0  0  0  0  0
   -4.6790   -0.4294   -0.6149 C   0  0  0  0  0  0  0  0  0  0  0  0
   -4.0202   -1.4589   -0.6156 O   0  0  0  0  0  0  0  0  0  0  0  0
   -5.6892   -0.1734    0.4867 C   0  0  0  0  0  0  0  0  0  0  0  0
   -6.6765    0.0047    0.0540 H   0  0  0  0  0  0  0  0  0  0  0  0
   -5.7474   -1.0384    1.1534 H   0  0  0  0  0  0  0  0  0  0  0  0
   -5.3907    0.7011    1.0704 H   0  0  0  0  0  0  0  0  0  0  0  0
   -4.4556    0.5333   -1.5779 N   0  0  0  0  0  0  0  0  0  0  0  0
   -3.2853    0.4764   -2.4644 C   0  0  2  0  0  0  0  0  0  0  0  0
   -1.9865    0.8915   -1.7384 C   0  0  0  0  0  0  0  0  0  0  0  0
   -2.0379    1.7604   -0.8806 O   0  0  0  0  0  0  0  0  0  0  0  0
   -3.5393    1.3934   -3.6616 C   0  0  0  0  0  0  0  0  0  0  0  0
   -4.8538    1.4490   -1.3890 H   0  0  0  0  0  0  0  0  0  0  0  0
   -3.1621   -0.5464   -2.8396 H   0  0  0  0  0  0  0  0  0  0  0  0
   -3.6658    2.4302   -3.3328 H   0  0  0  0  0  0  0  0  0  0  0  0
   -2.6955    1.3503   -4.3577 H   0  0  0  0  0  0  0  0  0  0  0  0
   -4.4427    1.0812   -4.1947 H   0  0  0  0  0  0  0  0  0  0  0  0
   -0.8577    0.1168   -1.9190 N   0  0  0  0  0  0  0  0  0  0  0  0
    0.5949    0.4185   -1.7917 C   0  0  2  0  0  0  0  0  0  0  0  0
    1.3766   -0.9091   -1.7377 C   0  0  0  0  0  0  0  0  0  0  0  0
    2.4986   -0.9723   -2.2205 O   0  0  0  0  0  0  0  0  0  0  0  0
    1.1273    1.3480   -0.6790 C   0  0  0  0  0  0  0  0  0  0  0  0
    0.5925    3.1049   -0.7866 S   0  0  0  0  0  0  0  0  0  0  0  0
   -1.0424   -0.6424   -2.5858 H   0  0  0  0  0  0  0  0  0  0  0  0
    0.8839    0.9012   -2.7311 H   0  0  0  0  0  0  0  0  0  0  0  0
    0.8175    0.9460    0.2874 H   0  0  0  0  0  0  0  0  0  0  0  0
    2.2222    1.3363   -0.6964 H   0  0  0  0  0  0  0  0  0  0  0  0
    0.6788   -2.0780   -1.4886 N   0  0  0  0  0  0  0  0  0  0  0  0
    0.8298   -3.2400   -2.3709 C   0  0  2  0  0  0  0  0  0  0  0  0
   -0.0689   -3.1019   -3.6233 C   0  0  0  0  0  0  0  0  0  0  0  0
   -0.9188   -2.2126   -3.6801 O   0  0  0  0  0  0  0  0  0  0  0  0
    0.4574   -4.4842   -1.5625 C   0  0  0  0  0  0  0  0  0  0  0  0
   -0.2724   -1.9047   -1.1682 H   0  0  0  0  0  0  0  0  0  0  0  0
    1.8693   -3.3392   -2.7013 H   0  0  0  0  0  0  0  0  0  0  0  0
   -0.5849   -4.4310   -1.2310 H   0  0  0  0  0  0  0  0  0  0  0  0
    0.5848   -5.3876   -2.1665 H   0  0  0  0  0  0  0  0  0  0  0  0
    1.0999   -4.5658   -0.6800 H   0  0  0  0  0  0  0  0  0  0  0  0
    0.0790   -3.9649   -4.6925 N   0  0  0  0  0  0  0  0  0  0  0  0
   -0.7296   -3.8882   -5.9033 C   0  0  0  0  0  0  0  0  0  0  0  0
    0.8117   -4.6670   -4.6342 H   0  0  0  0  0  0  0  0  0  0  0  0
   -1.7879   -4.0395   -5.6665 H   0  0  0  0  0  0  0  0  0  0  0  0
   -0.6112   -2.9113   -6.3838 H   0  0  0  0  0  0  0  0  0  0  0  0
   -0.4212   -4.6614   -6.6134 H   0  0  0  0  0  0  0  0  0  0  0  0
  1  2  2  0  0  0  0
  1  3  1  0  0  0  0
  1  7  1  0  0  0  0
  3  4  1  0  0  0  0
  3  5  1  0  0  0  0
  3  6  1  0  0  0  0
  7  8  1  0  0  0  0
  7 13  1  0  0  0  0
  8  9  1  0  0  0  0
  8 11  1  0  0  0  0
  8 14  1  0  0  0  0
  9 10  2  0  0  0  0
  9 17  1  0  0  0  0
 11 12  1  0  0  0  0
 11 15  1  0  0  0  0
 11 16  1  0  0  0  0
 12 44  1  0  0  0  0
 17 18  1  0  0  0  0
 17 19  1  0  0  0  0
 18 20  1  0  0  0  0
 18 21  1  0  0  0  0
 18 22  1  0  0  0  0
 23 24  2  0  0  0  0
 23 25  1  0  0  0  0
 23 29  1  0  0  0  0
 25 26  1  0  0  0  0
 25 27  1  0  0  0  0
 25 28  1  0  0  0  0
 29 30  1  0  0  0  0
 29 34  1  0  0  0  0
 30 31  1  0  0  0  0
 30 33  1  0  0  0  0
 30 35  1  0  0  0  0
 31 32  2  0  0  0  0
 31 39  1  0  0  0  0
 33 36  1  0  0  0  0
 33 37  1  0  0  0  0
 33 38  1  0  0  0  0
 39 40  1  0  0  0  0
 39 45  1  0  0  0  0
 40 41  1  0  0  0  0
 40 43  1  0  0  0  0
 40 46  1  0  0  0  0
 41 42  2  0  0  0  0
 41 49  1  0  0  0  0
 43 44  1  0  0  0  0
 43 47  1  0  0  0  0
 43 48  1  0  0  0  0
 49 50  1  0  0  0  0
 49 54  1  0  0  0  0
 50 51  1  0  0  0  0
 50 53  1  0  0  0  0
 50 55  1  0  0  0  0
 51 52  2  0  0  0  0
 51 59  1  0  0  0  0
 53 56  1  0  0  0  0
 53 57  1  0  0  0  0
 53 58  1  0  0  0  0
 59 60  1  0  0  0  0
 59 61  1  0  0  0  0
 60 62  1  0  0  0  0
 60 63  1  0  0  0  0
 60 64  1  0  0  0  0
M  END
$$$$

  -OEChem-05262216053D

 64 63  0     1  0  0  0  0  0999 V2000
   -0.5443    4.6355    4.8643 C   0  0  0  0  0  0  0  0  0  0  0  0
   -1.7147    4.9670    4.7555 O   0  0  0  0  0  0  0  0  0  0  0  0
    0.3870    5.4166    5.7712 C   0  0  0  0  0  0  0  0  0  0  0  0
    1.2341    5.7966    5.1950 H   0  0  0  0  0  0  0  0  0  0  0  0
   -0.1429    6.2625    6.2178 H   0  0  0  0  0  0  0  0  0  0  0  0
    0.7583    4.7707    6.5704 H   0  0  0  0  0  0  0  0  0  0  0  0
   -0.0671    3.5488    4.1653 N   0  0  0  0  0  0  0  0  0  0  0  0
   -0.8897    2.6740    3.3173 C   0  0  2  0  0  0  0  0  0  0  0  0
   -0.2756    1.2609    3.1845 C   0  0  0  0  0  0  0  0  0  0  0  0
    0.7025    0.9554    3.8611 O   0  0  0  0  0  0  0  0  0  0  0  0
   -1.1097    3.3475    1.9557 C   0  0  0  0  0  0  0  0  0  0  0  0
    0.4636    3.6314    1.0439 S   0  0  0  0  0  0  0  0  0  0  0  0
    0.8803    3.2332    4.3681 H   0  0  0  0  0  0  0  0  0  0  0  0
   -1.8667    2.5371    3.7919 H   0  0  0  0  0  0  0  0  0  0  0  0
   -1.7836    2.7396    1.3504 H   0  0  0  0  0  0  0  0  0  0  0  0
   -1.6035    4.3123    2.1065 H   0  0  0  0  0  0  0  0  0  0  0  0
   -0.8606    0.2892    2.3919 N   0  0  0  0  0  0  0  0  0  0  0  0
   -0.3383   -1.0665    2.2768 C   0  0  0  0  0  0  0  0  0  0  0  0
   -1.5307    0.6056    1.6848 H   0  0  0  0  0  0  0  0  0  0  0  0
    0.6971   -1.0538    1.9213 H   0  0  0  0  0  0  0  0  0  0  0  0
   -0.3711   -1.5723    3.2473 H   0  0  0  0  0  0  0  0  0  0  0  0
   -0.9415   -1.6408    1.5671 H   0  0  0  0  0  0  0  0  0  0  0  0
   -5.8803    0.3395   -1.5739 C   0  0  0  0  0  0  0  0  0  0  0  0
   -6.1435   -0.5706   -2.3434 O   0  0  0  0  0  0  0  0  0  0  0  0
   -6.9762    0.9650   -0.7319 C   0  0  0  0  0  0  0  0  0  0  0  0
   -7.0923    2.0189   -0.9958 H   0  0  0  0  0  0  0  0  0  0  0  0
   -7.9257    0.4512   -0.9064 H   0  0  0  0  0  0  0  0  0  0  0  0
   -6.7235    0.8869    0.3282 H   0  0  0  0  0  0  0  0  0  0  0  0
   -4.5843    0.7972   -1.4604 N   0  0  0  0  0  0  0  0  0  0  0  0
   -3.4253    0.1700   -2.1113 C   0  0  2  0  0  0  0  0  0  0  0  0
   -2.1468    0.2875   -1.2541 C   0  0  0  0  0  0  0  0  0  0  0  0
   -2.2014    0.7830   -0.1344 O   0  0  0  0  0  0  0  0  0  0  0  0
   -3.2179    0.8362   -3.4752 C   0  0  0  0  0  0  0  0  0  0  0  0
   -4.3888    1.4519   -0.7047 H   0  0  0  0  0  0  0  0  0  0  0  0
   -3.6165   -0.8987   -2.2614 H   0  0  0  0  0  0  0  0  0  0  0  0
   -2.9937    1.9006   -3.3521 H   0  0  0  0  0  0  0  0  0  0  0  0
   -2.3901    0.3642   -4.0134 H   0  0  0  0  0  0  0  0  0  0  0  0
   -4.1216    0.7382   -4.0849 H   0  0  0  0  0  0  0  0  0  0  0  0
   -1.0070   -0.3965   -1.6259 N   0  0  0  0  0  0  0  0  0  0  0  0
    0.3822    0.1331   -1.6939 C   0  0  2  0  0  0  0  0  0  0  0  0
    1.3979   -1.0252   -1.7800 C   0  0  0  0  0  0  0  0  0  0  0  0
    2.5172   -0.8111   -2.2239 O   0  0  0  0  0  0  0  0  0  0  0  0
    0.8507    1.1863   -0.6692 C   0  0  0  0  0  0  0  0  0  0  0  0
   -0.0282    2.7986   -0.8065 S   0  0  0  0  0  0  0  0  0  0  0  0
   -1.2078   -1.0014   -2.4315 H   0  0  0  0  0  0  0  0  0  0  0  0
    0.4545    0.6390   -2.6621 H   0  0  0  0  0  0  0  0  0  0  0  0
    0.7159    0.7878    0.3374 H   0  0  0  0  0  0  0  0  0  0  0  0
    1.9211    1.3766   -0.8025 H   0  0  0  0  0  0  0  0  0  0  0  0
    0.9204   -2.3235   -1.7783 N   0  0  0  0  0  0  0  0  0  0  0  0
    1.1891   -3.1950   -2.9287 C   0  0  2  0  0  0  0  0  0  0  0  0
    0.2016   -2.8910   -4.0804 C   0  0  0  0  0  0  0  0  0  0  0  0
   -0.8269   -2.2530   -3.8529 O   0  0  0  0  0  0  0  0  0  0  0  0
    1.0449   -4.6437   -2.4601 C   0  0  0  0  0  0  0  0  0  0  0  0
   -0.0348   -2.3750   -1.4307 H   0  0  0  0  0  0  0  0  0  0  0  0
    2.2109   -3.0462   -3.2958 H   0  0  0  0  0  0  0  0  0  0  0  0
    0.0288   -4.8310   -2.0980 H   0  0  0  0  0  0  0  0  0  0  0  0
    1.2545   -5.3352   -3.2818 H   0  0  0  0  0  0  0  0  0  0  0  0
    1.7485   -4.8497   -1.6473 H   0  0  0  0  0  0  0  0  0  0  0  0
    0.4707   -3.3074   -5.3697 N   0  0  0  0  0  0  0  0  0  0  0  0
   -0.3919   -3.0048   -6.5058 C   0  0  0  0  0  0  0  0  0  0  0  0
    1.3555   -3.7787   -5.5383 H   0  0  0  0  0  0  0  0  0  0  0  0
   -1.3943   -3.4165   -6.3472 H   0  0  0  0  0  0  0  0  0  0  0  0
   -0.4734   -1.9221   -6.6486 H   0  0  0  0  0  0  0  0  0  0  0  0
    0.0196   -3.4434   -7.4200 H   0  0  0  0  0  0  0  0  0  0  0  0
  1  2  2  0  0  0  0
  1  3  1  0  0  0  0
  1  7  1  0  0  0  0
  3  4  1  0  0  0  0
  3  5  1  0  0  0  0
  3  6  1  0  0  0  0
  7  8  1  0  0  0  0
  7 13  1  0  0  0  0
  8  9  1  0  0  0  0
  8 11  1  0  0  0  0
  8 14  1  0  0  0  0
  9 10  2  0  0  0  0
  9 17  1  0  0  0  0
 11 12  1  0  0  0  0
 11 15  1  0  0  0  0
 11 16  1  0  0  0  0
 12 44  1  0  0  0  0
 17 18  1  0  0  0  0
 17 19  1  0  0  0  0
 18 20  1  0  0  0  0
 18 21  1  0  0  0  0
 18 22  1  0  0  0  0
 23 24  2  0  0  0  0
 23 25  1  0  0  0  0
 23 29  1  0  0  0  0
 25 26  1  0  0  0  0
 25 27  1  0  0  0  0
 25 28  1  0  0  0  0
 29 30  1  0  0  0  0
 29 34  1  0  0  0  0
 30 31  1  0  0  0  0
 30 33  1  0  0  0  0
 30 35  1  0  0  0  0
 31 32  2  0  0  0  0
 31 39  1  0  0  0  0
 33 36  1  0  0  0  0
 33 37  1  0  0  0  0
 33 38  1  0  0  0  0
 39 40  1  0  0  0  0
 39 45  1  0  0  0  0
 40 41  1  0  0  0  0
 40 43  1  0  0  0  0
 40 46  1  0  0  0  0
 41 42  2  0  0  0  0
 41 49  1  0  0  0  0
 43 44  1  0  0  0  0
 43 47  1  0  0  0  0
 43 48  1  0  0  0  0
 49 50  1  0  0  0  0
 49 54  1  0  0  0  0
 50 51  1  0  0  0  0
 50 53  1  0  0  0  0
 50 55  1  0  0  0  0
 51 52  2  0  0  0  0
 51 59  1  0  0  0  0
 53 56  1  0  0  0  0
 53 57  1  0  0  0  0
 53 58  1  0  0  0  0
 59 60  1  0  0  0  0
 59 61  1  0  0  0  0
 60 62  1  0  0  0  0
 60 63  1  0  0  0  0
 60 64  1  0  0  0  0
M  END
$$$$

  -OEChem-05262216053D

 64 63  0     1  0  0  0  0  0999 V2000
   -1.7867    3.9223    4.3789 C   0  0  0  0  0  0  0  0  0  0  0  0
   -2.8759    4.1226    3.8602 O   0  0  0  0  0  0  0  0  0  0  0  0
   -1.2942    4.8272    5.4916 C   0  0  0  0  0  0  0  0  0  0  0  0
   -0.4166    5.3848    5.1551 H   0  0  0  0  0  0  0  0  0  0  0  0
   -2.0770    5.5363    5.7749 H   0  0  0  0  0  0  0  0  0  0  0  0
   -1.0260    4.2311    6.3672 H   0  0  0  0  0  0  0  0  0  0  0  0
   -1.0076    2.8699    3.9510 N   0  0  0  0  0  0  0  0  0  0  0  0
   -1.3840    1.9536    2.8677 C   0  0  2  0  0  0  0  0  0  0  0  0
   -0.7021    0.5751    2.9650 C   0  0  0  0  0  0  0  0  0  0  0  0
    0.2268    0.3902    3.7450 O   0  0  0  0  0  0  0  0  0  0  0  0
   -1.0701    2.6061    1.5152 C   0  0  0  0  0  0  0  0  0  0  0  0
    0.6953    3.0840    1.3550 S   0  0  0  0  0  0  0  0  0  0  0  0
   -0.1110    2.7117    4.4082 H   0  0  0  0  0  0  0  0  0  0  0  0
   -2.4593    1.7643    2.9292 H   0  0  0  0  0  0  0  0  0  0  0  0
   -1.3190    1.9114    0.7098 H   0  0  0  0  0  0  0  0  0  0  0  0
   -1.6888    3.4991    1.3848 H   0  0  0  0  0  0  0  0  0  0  0  0
   -1.1709   -0.4762    2.1983 N   0  0  0  0  0  0  0  0  0  0  0  0
   -0.6585   -1.8351    2.3044 C   0  0  0  0  0  0  0  0  0  0  0  0
   -2.0349   -0.3126    1.6729 H   0  0  0  0  0  0  0  0  0  0  0  0
    0.4183   -1.8558    2.1055 H   0  0  0  0  0  0  0  0  0  0  0  0
   -0.8402   -2.2345    3.3075 H   0  0  0  0  0  0  0  0  0  0  0  0
   -1.1558   -2.4836    1.5766 H   0  0  0  0  0  0  0  0  0  0  0  0
   -4.1255    1.5102    0.4099 C   0  0  0  0  0  0  0  0  0  0  0  0
   -3.6039    0.4968    0.8595 O   0  0  0  0  0  0  0  0  0  0  0  0
   -4.8317    2.4812    1.3370 C   0  0  0  0  0  0  0  0  0  0  0  0
   -5.8411    2.6825    0.9706 H   0  0  0  0  0  0  0  0  0  0  0  0
   -4.9017    2.0633    2.3452 H   0  0  0  0  0  0  0  0  0  0  0  0
   -4.2776    3.4223    1.3870 H   0  0  0  0  0  0  0  0  0  0  0  0
   -4.0130    1.8016   -0.9331 N   0  0  0  0  0  0  0  0  0  0  0  0
   -3.2083    1.0163   -1.8807 C   0  0  2  0  0  0  0  0  0  0  0  0
   -1.8487    1.6745   -2.2025 C   0  0  0  0  0  0  0  0  0  0  0  0
   -1.7800    2.8894   -2.2901 O   0  0  0  0  0  0  0  0  0  0  0  0
   -4.0326    0.8546   -3.1605 C   0  0  0  0  0  0  0  0  0  0  0  0
   -4.2494    2.7539   -1.2066 H   0  0  0  0  0  0  0  0  0  0  0  0
   -3.0115    0.0190   -1.4741 H   0  0  0  0  0  0  0  0  0  0  0  0
   -4.2368    1.8313   -3.6116 H   0  0  0  0  0  0  0  0  0  0  0  0
   -3.4926    0.2427   -3.8898 H   0  0  0  0  0  0  0  0  0  0  0  0
   -4.9865    0.3660   -2.9394 H   0  0  0  0  0  0  0  0  0  0  0  0
   -0.8112    0.8752   -2.6478 N   0  0  0  0  0  0  0  0  0  0  0  0
    0.6566    1.1208   -2.5952 C   0  0  2  0  0  0  0  0  0  0  0  0
    1.3952   -0.2161   -2.8793 C   0  0  0  0  0  0  0  0  0  0  0  0
    2.5765   -0.3831   -2.6068 O   0  0  0  0  0  0  0  0  0  0  0  0
    1.2229    1.6616   -1.2485 C   0  0  0  0  0  0  0  0  0  0  0  0
    0.6918    3.3370   -0.7123 S   0  0  0  0  0  0  0  0  0  0  0  0
   -1.0586   -0.1087   -2.5886 H   0  0  0  0  0  0  0  0  0  0  0  0
    0.9176    1.8314   -3.3859 H   0  0  0  0  0  0  0  0  0  0  0  0
    0.9547    0.9505   -0.4612 H   0  0  0  0  0  0  0  0  0  0  0  0
    2.3162    1.6915   -1.2971 H   0  0  0  0  0  0  0  0  0  0  0  0
    0.7013   -1.2829   -3.4258 N   0  0  0  0  0  0  0  0  0  0  0  0
    1.3054   -2.5631   -3.8150 C   0  0  2  0  0  0  0  0  0  0  0  0
    0.4836   -3.2247   -4.9413 C   0  0  0  0  0  0  0  0  0  0  0  0
   -0.6231   -2.7765   -5.2269 O   0  0  0  0  0  0  0  0  0  0  0  0
    1.3654   -3.4740   -2.5844 C   0  0  0  0  0  0  0  0  0  0  0  0
   -0.1729   -1.0575   -3.9005 H   0  0  0  0  0  0  0  0  0  0  0  0
    2.3189   -2.3964   -4.1962 H   0  0  0  0  0  0  0  0  0  0  0  0
    0.3590   -3.6572   -2.1945 H   0  0  0  0  0  0  0  0  0  0  0  0
    1.8218   -4.4352   -2.8390 H   0  0  0  0  0  0  0  0  0  0  0  0
    1.9653   -3.0084   -1.7961 H   0  0  0  0  0  0  0  0  0  0  0  0
    0.9859   -4.3026   -5.6459 N   0  0  0  0  0  0  0  0  0  0  0  0
    0.2666   -4.9511   -6.7363 C   0  0  0  0  0  0  0  0  0  0  0  0
    1.9126   -4.6389   -5.3988 H   0  0  0  0  0  0  0  0  0  0  0  0
   -0.6799   -5.3683   -6.3769 H   0  0  0  0  0  0  0  0  0  0  0  0
    0.0539   -4.2343   -7.5365 H   0  0  0  0  0  0  0  0  0  0  0  0
    0.8667   -5.7654   -7.1538 H   0  0  0  0  0  0  0  0  0  0  0  0
  1  2  2  0  0  0  0
  1  3  1  0  0  0  0
  1  7  1  0  0  0  0
  3  4  1  0  0  0  0
  3  5  1  0  0  0  0
  3  6  1  0  0  0  0
  7  8  1  0  0  0  0
  7 13  1  0  0  0  0
  8  9  1  0  0  0  0
  8 11  1  0  0  0  0
  8 14  1  0  0  0  0
  9 10  2  0  0  0  0
  9 17  1  0  0  0  0
 11 12  1  0  0  0  0
 11 15  1  0  0  0  0
 11 16  1  0  0  0  0
 12 44  1  0  0  0  0
 17 18  1  0  0  0  0
 17 19  1  0  0  0  0
 18 20  1  0  0  0  0
 18 21  1  0  0  0  0
 18 22  1  0  0  0  0
 23 24  2  0  0  0  0
 23 25  1  0  0  0  0
 23 29  1  0  0  0  0
 25 26  1  0  0  0  0
 25 27  1  0  0  0  0
 25 28  1  0  0  0  0
 29 30  1  0  0  0  0
 29 34  1  0  0  0  0
 30 31  1  0  0  0  0
 30 33  1  0  0  0  0
 30 35  1  0  0  0  0
 31 32  2  0  0  0  0
 31 39  1  0  0  0  0
 33 36  1  0  0  0  0
 33 37  1  0  0  0  0
 33 38  1  0  0  0  0
 39 40  1  0  0  0  0
 39 45  1  0  0  0  0
 40 41  1  0  0  0  0
 40 43  1  0  0  0  0
 40 46  1  0  0  0  0
 41 42  2  0  0  0  0
 41 49  1  0  0  0  0
 43 44  1  0  0  0  0
 43 47  1  0  0  0  0
 43 48  1  0  0  0  0
 49 50  1  0  0  0  0
 49 54  1  0  0  0  0
 50 51  1  0  0  0  0
 50 53  1  0  0  0  0
 50 55  1  0  0  0  0
 51 52  2  0  0  0  0
 51 59  1  0  0  0  0
 53 56  1  0  0  0  0
 53 57  1  0  0  0  0
 53 58  1  0  0  0  0
 59 60  1  0  0  0  0
 59 61  1  0  0  0  0
 60 62  1  0  0  0  0
 60 63  1  0  0  0  0
 60 64  1  0  0  0  0
M  END
$$$$

  -OEChem-05262216053D

 64 63  0     1  0  0  0  0  0999 V2000
   -1.8826    3.9767    4.3319 C   0  0  0  0  0  0  0  0  0  0  0  0
   -2.9782    4.1063    3.8041 O   0  0  0  0  0  0  0  0  0  0  0  0
   -1.4334    4.9495    5.4048 C   0  0  0  0  0  0  0  0  0  0  0  0
   -0.5550    5.5012    5.0611 H   0  0  0  0  0  0  0  0  0  0  0  0
   -2.2332    5.6615    5.6266 H   0  0  0  0  0  0  0  0  0  0  0  0
   -1.1807    4.4073    6.3190 H   0  0  0  0  0  0  0  0  0  0  0  0
   -1.0550    2.9450    3.9468 N   0  0  0  0  0  0  0  0  0  0  0  0
   -1.3760    1.9855    2.8834 C   0  0  2  0  0  0  0  0  0  0  0  0
   -0.6443    0.6375    3.0284 C   0  0  0  0  0  0  0  0  0  0  0  0
    0.2886    0.5128    3.8153 O   0  0  0  0  0  0  0  0  0  0  0  0
   -1.0623    2.6144    1.5191 C   0  0  0  0  0  0  0  0  0  0  0  0
    0.6838    3.1677    1.3829 S   0  0  0  0  0  0  0  0  0  0  0  0
   -0.1498    2.8508    4.4047 H   0  0  0  0  0  0  0  0  0  0  0  0
   -2.4434    1.7547    2.9325 H   0  0  0  0  0  0  0  0  0  0  0  0
   -1.2610    1.8869    0.7287 H   0  0  0  0  0  0  0  0  0  0  0  0
   -1.7182    3.4736    1.3499 H   0  0  0  0  0  0  0  0  0  0  0  0
   -1.0718   -0.4537    2.2945 N   0  0  0  0  0  0  0  0  0  0  0  0
   -0.4892   -1.7826    2.4193 C   0  0  0  0  0  0  0  0  0  0  0  0
   -1.9282   -0.3353    1.7451 H   0  0  0  0  0  0  0  0  0  0  0  0
    0.5839   -1.7530    2.2028 H   0  0  0  0  0  0  0  0  0  0  0  0
   -0.6339   -2.1709    3.4327 H   0  0  0  0  0  0  0  0  0  0  0  0
   -0.9643   -2.4696    1.7127 H   0  0  0  0  0  0  0  0  0  0  0  0
   -4.0723    1.4047    0.4167 C   0  0  0  0  0  0  0  0  0  0  0  0
   -3.5002    0.4135    0.8545 O   0  0  0  0  0  0  0  0  0  0  0  0
   -4.8246    2.3304    1.3538 C   0  0  0  0  0  0  0  0  0  0  0  0
   -5.8572    2.4450    1.0159 H   0  0  0  0  0  0  0  0  0  0  0  0
   -4.8318    1.9234    2.3686 H   0  0  0  0  0  0  0  0  0  0  0  0
   -4.3459    3.3131    1.3757 H   0  0  0  0  0  0  0  0  0  0  0  0
   -3.9869    1.7107   -0.9249 N   0  0  0  0  0  0  0  0  0  0  0  0
   -3.1648    0.9638   -1.8878 C   0  0  2  0  0  0  0  0  0  0  0  0
   -1.8034    1.6369   -2.1666 C   0  0  0  0  0  0  0  0  0  0  0  0
   -1.7457    2.8528   -2.2398 O   0  0  0  0  0  0  0  0  0  0  0  0
   -3.9730    0.8505   -3.1829 C   0  0  0  0  0  0  0  0  0  0  0  0
   -4.2682    2.6532   -1.1890 H   0  0  0  0  0  0  0  0  0  0  0  0
   -2.9720   -0.0475   -1.5156 H   0  0  0  0  0  0  0  0  0  0  0  0
   -4.1742    1.8444   -3.5964 H   0  0  0  0  0  0  0  0  0  0  0  0
   -3.4227    0.2699   -3.9300 H   0  0  0  0  0  0  0  0  0  0  0  0
   -4.9285    0.3515   -2.9928 H   0  0  0  0  0  0  0  0  0  0  0  0
   -0.7448    0.8523   -2.5870 N   0  0  0  0  0  0  0  0  0  0  0  0
    0.7175    1.1177   -2.5174 C   0  0  2  0  0  0  0  0  0  0  0  0
    1.4509   -0.2264   -2.7796 C   0  0  0  0  0  0  0  0  0  0  0  0
    2.5254   -0.5129   -2.2681 O   0  0  0  0  0  0  0  0  0  0  0  0
    1.2702    1.6981   -1.1815 C   0  0  0  0  0  0  0  0  0  0  0  0
    0.7214    3.3817   -0.6893 S   0  0  0  0  0  0  0  0  0  0  0  0
   -0.9791   -0.1370   -2.5642 H   0  0  0  0  0  0  0  0  0  0  0  0
    0.9813    1.8133   -3.3201 H   0  0  0  0  0  0  0  0  0  0  0  0
    1.0053    1.0046   -0.3777 H   0  0  0  0  0  0  0  0  0  0  0  0
    2.3635    1.7356   -1.2287 H   0  0  0  0  0  0  0  0  0  0  0  0
    0.8510   -1.1717   -3.5948 N   0  0  0  0  0  0  0  0  0  0  0  0
    1.4812   -2.4270   -4.0259 C   0  0  2  0  0  0  0  0  0  0  0  0
    0.9268   -2.8700   -5.3960 C   0  0  0  0  0  0  0  0  0  0  0  0
   -0.0888   -2.3416   -5.8376 O   0  0  0  0  0  0  0  0  0  0  0  0
    1.2205   -3.5033   -2.9665 C   0  0  0  0  0  0  0  0  0  0  0  0
    0.0838   -0.8421   -4.1826 H   0  0  0  0  0  0  0  0  0  0  0  0
    2.5610   -2.2809   -4.1369 H   0  0  0  0  0  0  0  0  0  0  0  0
    0.1454   -3.6693   -2.8453 H   0  0  0  0  0  0  0  0  0  0  0  0
    1.6880   -4.4492   -3.2563 H   0  0  0  0  0  0  0  0  0  0  0  0
    1.6377   -3.1965   -2.0020 H   0  0  0  0  0  0  0  0  0  0  0  0
    1.5725   -3.8363   -6.1442 N   0  0  0  0  0  0  0  0  0  0  0  0
    1.1230   -4.2521   -7.4674 C   0  0  0  0  0  0  0  0  0  0  0  0
    2.4303   -4.2313   -5.7692 H   0  0  0  0  0  0  0  0  0  0  0  0
    0.1012   -4.6432   -7.4209 H   0  0  0  0  0  0  0  0  0  0  0  0
    1.1445   -3.4059   -8.1623 H   0  0  0  0  0  0  0  0  0  0  0  0
    1.7749   -5.0387   -7.8592 H   0  0  0  0  0  0  0  0  0  0  0  0
  1  2  2  0  0  0  0
  1  3  1  0  0  0  0
  1  7  1  0  0  0  0
  3  4  1  0  0  0  0
  3  5  1  0  0  0  0
  3  6  1  0  0  0  0
  7  8  1  0  0  0  0
  7 13  1  0  0  0  0
  8  9  1  0  0  0  0
  8 11  1  0  0  0  0
  8 14  1  0  0  0  0
  9 10  2  0  0  0  0
  9 17  1  0  0  0  0
 11 12  1  0  0  0  0
 11 15  1  0  0  0  0
 11 16  1  0  0  0  0
 12 44  1  0  0  0  0
 17 18  1  0  0  0  0
 17 19  1  0  0  0  0
 18 20  1  0  0  0  0
 18 21  1  0  0  0  0
 18 22  1  0  0  0  0
 23 24  2  0  0  0  0
 23 25  1  0  0  0  0
 23 29  1  0  0  0  0
 25 26  1  0  0  0  0
 25 27  1  0  0  0  0
 25 28  1  0  0  0  0
 29 30  1  0  0  0  0
 29 34  1  0  0  0  0
 30 31  1  0  0  0  0
 30 33  1  0  0  0  0
 30 35  1  0  0  0  0
 31 32  2  0  0  0  0
 31 39  1  0  0  0  0
 33 36  1  0  0  0  0
 33 37  1  0  0  0  0
 33 38  1  0  0  0  0
 39 40  1  0  0  0  0
 39 45  1  0  0  0  0
 40 41  1  0  0  0  0
 40 43  1  0  0  0  0
 40 46  1  0  0  0  0
 41 42  2  0  0  0  0
 41 49  1  0  0  0  0
 43 44  1  0  0  0  0
 43 47  1  0  0  0  0
 43 48  1  0  0  0  0
 49 50  1  0  0  0  0
 49 54  1  0  0  0  0
 50 51  1  0  0  0  0
 50 53  1  0  0  0  0
 50 55  1  0  0  0  0
 51 52  2  0  0  0  0
 51 59  1  0  0  0  0
 53 56  1  0  0  0  0
 53 57  1  0  0  0  0
 53 58  1  0  0  0  0
 59 60  1  0  0  0  0
 59 61  1  0  0  0  0
 60 62  1  0  0  0  0
 60 63  1  0  0  0  0
 60 64  1  0  0  0  0
M  END
$$$$

  -OEChem-05262216053D

 64 63  0     1  0  0  0  0  0999 V2000
   -1.9380    3.9895    4.3630 C   0  0  0  0  0  0  0  0  0  0  0  0
   -3.0345    4.0973    3.8323 O   0  0  0  0  0  0  0  0  0  0  0  0
   -1.5232    4.9491    5.4621 C   0  0  0  0  0  0  0  0  0  0  0  0
   -0.6291    5.4985    5.1571 H   0  0  0  0  0  0  0  0  0  0  0  0
   -2.3259    5.6645    5.6608 H   0  0  0  0  0  0  0  0  0  0  0  0
   -1.3079    4.3965    6.3798 H   0  0  0  0  0  0  0  0  0  0  0  0
   -1.0778    2.9920    3.9600 N   0  0  0  0  0  0  0  0  0  0  0  0
   -1.3692    2.0330    2.8875 C   0  0  2  0  0  0  0  0  0  0  0  0
   -0.5927    0.7096    3.0270 C   0  0  0  0  0  0  0  0  0  0  0  0
    0.3250    0.6049    3.8348 O   0  0  0  0  0  0  0  0  0  0  0  0
   -1.0759    2.6803    1.5274 C   0  0  0  0  0  0  0  0  0  0  0  0
    0.6579    3.2703    1.3904 S   0  0  0  0  0  0  0  0  0  0  0  0
   -0.1791    2.9061    4.4321 H   0  0  0  0  0  0  0  0  0  0  0  0
   -2.4286    1.7672    2.9334 H   0  0  0  0  0  0  0  0  0  0  0  0
   -1.2615    1.9547    0.7321 H   0  0  0  0  0  0  0  0  0  0  0  0
   -1.7515    3.5258    1.3663 H   0  0  0  0  0  0  0  0  0  0  0  0
   -0.9683   -0.3860    2.2719 N   0  0  0  0  0  0  0  0  0  0  0  0
   -0.3487   -1.6974    2.3993 C   0  0  0  0  0  0  0  0  0  0  0  0
   -1.8169   -0.2897    1.7067 H   0  0  0  0  0  0  0  0  0  0  0  0
    0.7228   -1.6373    2.1806 H   0  0  0  0  0  0  0  0  0  0  0  0
   -0.4809   -2.0864    3.4144 H   0  0  0  0  0  0  0  0  0  0  0  0
   -0.8059   -2.4002    1.6963 H   0  0  0  0  0  0  0  0  0  0  0  0
   -4.0476    1.3461    0.3887 C   0  0  0  0  0  0  0  0  0  0  0  0
   -3.4296    0.3856    0.8325 O   0  0  0  0  0  0  0  0  0  0  0  0
   -4.8146    2.2610    1.3255 C   0  0  0  0  0  0  0  0  0  0  0  0
   -5.8439    2.3770    0.9778 H   0  0  0  0  0  0  0  0  0  0  0  0
   -4.8324    1.8435    2.3361 H   0  0  0  0  0  0  0  0  0  0  0  0
   -4.3389    3.2446    1.3626 H   0  0  0  0  0  0  0  0  0  0  0  0
   -3.9964    1.6308   -0.9598 N   0  0  0  0  0  0  0  0  0  0  0  0
   -3.1452    0.9063   -1.9150 C   0  0  2  0  0  0  0  0  0  0  0  0
   -1.7900    1.6051   -2.1604 C   0  0  0  0  0  0  0  0  0  0  0  0
   -1.7524    2.8224   -2.2206 O   0  0  0  0  0  0  0  0  0  0  0  0
   -3.9251    0.7861   -3.2272 C   0  0  0  0  0  0  0  0  0  0  0  0
   -4.3068    2.5618   -1.2313 H   0  0  0  0  0  0  0  0  0  0  0  0
   -2.9432   -0.1044   -1.5458 H   0  0  0  0  0  0  0  0  0  0  0  0
   -4.1440    1.7780   -3.6361 H   0  0  0  0  0  0  0  0  0  0  0  0
   -3.3451    0.2278   -3.9687 H   0  0  0  0  0  0  0  0  0  0  0  0
   -4.8708    0.2606   -3.0609 H   0  0  0  0  0  0  0  0  0  0  0  0
   -0.7063    0.8399   -2.5517 N   0  0  0  0  0  0  0  0  0  0  0  0
    0.7485    1.1298   -2.4610 C   0  0  2  0  0  0  0  0  0  0  0  0
    1.4913   -0.2103   -2.6968 C   0  0  0  0  0  0  0  0  0  0  0  0
    2.3928   -0.6192   -1.9765 O   0  0  0  0  0  0  0  0  0  0  0  0
    1.2800    1.7450   -1.1329 C   0  0  0  0  0  0  0  0  0  0  0  0
    0.7035    3.4321   -0.6862 S   0  0  0  0  0  0  0  0  0  0  0  0
   -0.9236   -0.1538   -2.5560 H   0  0  0  0  0  0  0  0  0  0  0  0
    1.0147    1.8154   -3.2717 H   0  0  0  0  0  0  0  0  0  0  0  0
    1.0091    1.0676   -0.3164 H   0  0  0  0  0  0  0  0  0  0  0  0
    2.3737    1.7861   -1.1673 H   0  0  0  0  0  0  0  0  0  0  0  0
    1.0723   -1.0203   -3.7370 N   0  0  0  0  0  0  0  0  0  0  0  0
    1.7388   -2.2600   -4.1573 C   0  0  2  0  0  0  0  0  0  0  0  0
    1.5024   -2.5269   -5.6589 C   0  0  0  0  0  0  0  0  0  0  0  0
    0.6152   -1.9211   -6.2510 O   0  0  0  0  0  0  0  0  0  0  0  0
    1.2006   -3.4219   -3.3154 C   0  0  0  0  0  0  0  0  0  0  0  0
    0.4317   -0.6049   -4.4156 H   0  0  0  0  0  0  0  0  0  0  0  0
    2.8195   -2.1692   -4.0027 H   0  0  0  0  0  0  0  0  0  0  0  0
    0.1218   -3.5347   -3.4632 H   0  0  0  0  0  0  0  0  0  0  0  0
    1.6903   -4.3589   -3.5973 H   0  0  0  0  0  0  0  0  0  0  0  0
    1.3904   -3.2422   -2.2524 H   0  0  0  0  0  0  0  0  0  0  0  0
    2.2904   -3.4278   -6.3507 N   0  0  0  0  0  0  0  0  0  0  0  0
    2.1434   -3.6846   -7.7786 C   0  0  0  0  0  0  0  0  0  0  0  0
    3.0410   -3.8876   -5.8428 H   0  0  0  0  0  0  0  0  0  0  0  0
    1.1279   -4.0264   -8.0046 H   0  0  0  0  0  0  0  0  0  0  0  0
    2.3454   -2.7750   -8.3542 H   0  0  0  0  0  0  0  0  0  0  0  0
    2.8463   -4.4598   -8.0983 H   0  0  0  0  0  0  0  0  0  0  0  0
  1  2  2  0  0  0  0
  1  3  1  0  0  0  0
  1  7  1  0  0  0  0
  3  4  1  0  0  0  0
  3  5  1  0  0  0  0
  3  6  1  0  0  0  0
  7  8  1  0  0  0  0
  7 13  1  0  0  0  0
  8  9  1  0  0  0  0
  8 11  1  0  0  0  0
  8 14  1  0  0  0  0
  9 10  2  0  0  0  0
  9 17  1  0  0  0  0
 11 12  1  0  0  0  0
 11 15  1  0  0  0  0
 11 16  1  0  0  0  0
 12 44  1  0  0  0  0
 17 18  1  0  0  0  0
 17 19  1  0  0  0  0
 18 20  1  0  0  0  0
 18 21  1  0  0  0  0
 18 22  1  0  0  0  0
 23 24  2  0  0  0  0
 23 25  1  0  0  0  0
 23 29  1  0  0  0  0
 25 26  1  0  0  0  0
 25 27  1  0  0  0  0
 25 28  1  0  0  0  0
 29 30  1  0  0  0  0
 29 34  1  0  0  0  0
 30 31  1  0  0  0  0
 30 33  1  0  0  0  0
 30 35  1  0  0  0  0
 31 32  2  0  0  0  0
 31 39  1  0  0  0  0
 33 36  1  0  0  0  0
 33 37  1  0  0  0  0
 33 38  1  0  0  0  0
 39 40  1  0  0  0  0
 39 45  1  0  0  0  0
 40 41  1  0  0  0  0
 40 43  1  0  0  0  0
 40 46  1  0  0  0  0
 41 42  2  0  0  0  0
 41 49  1  0  0  0  0
 43 44  1  0  0  0  0
 43 47  1  0  0  0  0
 43 48  1  0  0  0  0
 49 50  1  0  0  0  0
 49 54  1  0  0  0  0
 50 51  1  0  0  0  0
 50 53  1  0  0  0  0
 50 55  1  0  0  0  0
 51 52  2  0  0  0  0
 51 59  1  0  0  0  0
 53 56  1  0  0  0  0
 53 57  1  0  0  0  0
 53 58  1  0  0  0  0
 59 60  1  0  0  0  0
 59 61  1  0  0  0  0
 60 62  1  0  0  0  0
 60 63  1  0  0  0  0
 60 64  1  0  0  0  0
M  END
$$$$

  -OEChem-05262216053D

 64 63  0     1  0  0  0  0  0999 V2000
   -1.9049    3.9428    4.4521 C   0  0  0  0  0  0  0  0  0  0  0  0
   -3.0146    4.0719    3.9547 O   0  0  0  0  0  0  0  0  0  0  0  0
   -1.4568    4.8635    5.5705 C   0  0  0  0  0  0  0  0  0  0  0  0
   -0.5539    5.4007    5.2698 H   0  0  0  0  0  0  0  0  0  0  0  0
   -2.2410    5.5911    5.7971 H   0  0  0  0  0  0  0  0  0  0  0  0
   -1.2443    4.2806    6.4698 H   0  0  0  0  0  0  0  0  0  0  0  0
   -1.0576    2.9591    3.9920 N   0  0  0  0  0  0  0  0  0  0  0  0
   -1.3708    2.0540    2.8801 C   0  0  2  0  0  0  0  0  0  0  0  0
   -0.5472    0.7519    2.9058 C   0  0  0  0  0  0  0  0  0  0  0  0
    0.4128    0.6352    3.6611 O   0  0  0  0  0  0  0  0  0  0  0  0
   -1.1510    2.7855    1.5492 C   0  0  0  0  0  0  0  0  0  0  0  0
    0.5723    3.3927    1.3621 S   0  0  0  0  0  0  0  0  0  0  0  0
   -0.1433    2.8604    4.4309 H   0  0  0  0  0  0  0  0  0  0  0  0
   -2.4203    1.7562    2.9566 H   0  0  0  0  0  0  0  0  0  0  0  0
   -1.3739    2.1074    0.7223 H   0  0  0  0  0  0  0  0  0  0  0  0
   -1.8364    3.6349    1.4733 H   0  0  0  0  0  0  0  0  0  0  0  0
   -0.9091   -0.3039    2.0899 N   0  0  0  0  0  0  0  0  0  0  0  0
   -0.2031   -1.5771    2.0626 C   0  0  0  0  0  0  0  0  0  0  0  0
   -1.7893   -0.2111    1.5749 H   0  0  0  0  0  0  0  0  0  0  0  0
    0.8427   -1.4288    1.7729 H   0  0  0  0  0  0  0  0  0  0  0  0
   -0.2331   -2.0530    3.0484 H   0  0  0  0  0  0  0  0  0  0  0  0
   -0.6691   -2.2510    1.3374 H   0  0  0  0  0  0  0  0  0  0  0  0
   -4.0889    1.3957    0.3935 C   0  0  0  0  0  0  0  0  0  0  0  0
   -3.4797    0.4405    0.8591 O   0  0  0  0  0  0  0  0  0  0  0  0
   -4.8356    2.3469    1.3098 C   0  0  0  0  0  0  0  0  0  0  0  0
   -5.8653    2.4683    0.9651 H   0  0  0  0  0  0  0  0  0  0  0  0
   -4.8515    1.9574    2.3317 H   0  0  0  0  0  0  0  0  0  0  0  0
   -4.3458    3.3241    1.3173 H   0  0  0  0  0  0  0  0  0  0  0  0
   -4.0409    1.6420   -0.9622 N   0  0  0  0  0  0  0  0  0  0  0  0
   -3.2003    0.8811   -1.8981 C   0  0  2  0  0  0  0  0  0  0  0  0
   -1.8506    1.5739   -2.1840 C   0  0  0  0  0  0  0  0  0  0  0  0
   -1.8196    2.7870   -2.3064 O   0  0  0  0  0  0  0  0  0  0  0  0
   -3.9961    0.7096   -3.1938 C   0  0  0  0  0  0  0  0  0  0  0  0
   -4.3432    2.5679   -1.2595 H   0  0  0  0  0  0  0  0  0  0  0  0
   -2.9909   -0.1146   -1.4935 H   0  0  0  0  0  0  0  0  0  0  0  0
   -4.2096    1.6843   -3.6450 H   0  0  0  0  0  0  0  0  0  0  0  0
   -3.4306    0.1104   -3.9143 H   0  0  0  0  0  0  0  0  0  0  0  0
   -4.9453    0.2036   -2.9920 H   0  0  0  0  0  0  0  0  0  0  0  0
   -0.7581    0.8007   -2.5316 N   0  0  0  0  0  0  0  0  0  0  0  0
    0.6896    1.1074   -2.4128 C   0  0  2  0  0  0  0  0  0  0  0  0
    1.4529   -0.2267   -2.5930 C   0  0  0  0  0  0  0  0  0  0  0  0
    2.1036   -0.7523   -1.6986 O   0  0  0  0  0  0  0  0  0  0  0  0
    1.1887    1.7683   -1.0954 C   0  0  0  0  0  0  0  0  0  0  0  0
    0.5894    3.4645   -0.7190 S   0  0  0  0  0  0  0  0  0  0  0  0
   -0.9680   -0.1941   -2.5037 H   0  0  0  0  0  0  0  0  0  0  0  0
    0.9668    1.7744   -3.2352 H   0  0  0  0  0  0  0  0  0  0  0  0
    0.9003    1.1190   -0.2622 H   0  0  0  0  0  0  0  0  0  0  0  0
    2.2829    1.8086   -1.1074 H   0  0  0  0  0  0  0  0  0  0  0  0
    1.2992   -0.9170   -3.7804 N   0  0  0  0  0  0  0  0  0  0  0  0
    2.0437   -2.1305   -4.1422 C   0  0  2  0  0  0  0  0  0  0  0  0
    2.2548   -2.2176   -5.6688 C   0  0  0  0  0  0  0  0  0  0  0  0
    1.6045   -1.4944   -6.4159 O   0  0  0  0  0  0  0  0  0  0  0  0
    1.2682   -3.3506   -3.6352 C   0  0  0  0  0  0  0  0  0  0  0  0
    0.8473   -0.4201   -4.5501 H   0  0  0  0  0  0  0  0  0  0  0  0
    3.0339   -2.1095   -3.6739 H   0  0  0  0  0  0  0  0  0  0  0  0
    0.2774   -3.3940   -4.0988 H   0  0  0  0  0  0  0  0  0  0  0  0
    1.8055   -4.2732   -3.8743 H   0  0  0  0  0  0  0  0  0  0  0  0
    1.1435   -3.2973   -2.5490 H   0  0  0  0  0  0  0  0  0  0  0  0
    3.1816   -3.0919   -6.2058 N   0  0  0  0  0  0  0  0  0  0  0  0
    3.4470   -3.1957   -7.6360 C   0  0  0  0  0  0  0  0  0  0  0  0
    3.7252   -3.6598   -5.5621 H   0  0  0  0  0  0  0  0  0  0  0  0
    2.5412   -3.4965   -8.1729 H   0  0  0  0  0  0  0  0  0  0  0  0
    3.7898   -2.2344   -8.0333 H   0  0  0  0  0  0  0  0  0  0  0  0
    4.2234   -3.9435   -7.8240 H   0  0  0  0  0  0  0  0  0  0  0  0
  1  2  2  0  0  0  0
  1  3  1  0  0  0  0
  1  7  1  0  0  0  0
  3  4  1  0  0  0  0
  3  5  1  0  0  0  0
  3  6  1  0  0  0  0
  7  8  1  0  0  0  0
  7 13  1  0  0  0  0
  8  9  1  0  0  0  0
  8 11  1  0  0  0  0
  8 14  1  0  0  0  0
  9 10  2  0  0  0  0
  9 17  1  0  0  0  0
 11 12  1  0  0  0  0
 11 15  1  0  0  0  0
 11 16  1  0  0  0  0
 12 44  1  0  0  0  0
 17 18  1  0  0  0  0
 17 19  1  0  0  0  0
 18 20  1  0  0  0  0
 18 21  1  0  0  0  0
 18 22  1  0  0  0  0
 23 24  2  0  0  0  0
 23 25  1  0  0  0  0
 23 29  1  0  0  0  0
 25 26  1  0  0  0  0
 25 27  1  0  0  0  0
 25 28  1  0  0  0  0
 29 30  1  0  0  0  0
 29 34  1  0  0  0  0
 30 31  1  0  0  0  0
 30 33  1  0  0  0  0
 30 35  1  0  0  0  0
 31 32  2  0  0  0  0
 31 39  1  0  0  0  0
 33 36  1  0  0  0  0
 33 37  1  0  0  0  0
 33 38  1  0  0  0  0
 39 40  1  0  0  0  0
 39 45  1  0  0  0  0
 40 41  1  0  0  0  0
 40 43  1  0  0  0  0
 40 46  1  0  0  0  0
 41 42  2  0  0  0  0
 41 49  1  0  0  0  0
 43 44  1  0  0  0  0
 43 47  1  0  0  0  0
 43 48  1  0  0  0  0
 49 50  1  0  0  0  0
 49 54  1  0  0  0  0
 50 51  1  0  0  0  0
 50 53  1  0  0  0  0
 50 55  1  0  0  0  0
 51 52  2  0  0  0  0
 51 59  1  0  0  0  0
 53 56  1  0  0  0  0
 53 57  1  0  0  0  0
 53 58  1  0  0  0  0
 59 60  1  0  0  0  0
 59 61  1  0  0  0  0
 60 62  1  0  0  0  0
 60 63  1  0  0  0  0
 60 64  1  0  0  0  0
M  END
$$$$

  -OEChem-05262216053D

 64 63  0     1  0  0  0  0  0999 V2000
   -1.8299    3.7986    4.5956 C   0  0  0  0  0  0  0  0  0  0  0  0
   -2.9777    3.9038    4.1871 O   0  0  0  0  0  0  0  0  0  0  0  0
   -1.3645    4.6137    5.7869 C   0  0  0  0  0  0  0  0  0  0  0  0
   -0.5177    5.2422    5.5001 H   0  0  0  0  0  0  0  0  0  0  0  0
   -2.1746    5.2552    6.1448 H   0  0  0  0  0  0  0  0  0  0  0  0
   -1.0575    3.9477    6.5970 H   0  0  0  0  0  0  0  0  0  0  0  0
   -0.9577    2.9323    3.9745 N   0  0  0  0  0  0  0  0  0  0  0  0
   -1.3004    2.1035    2.8127 C   0  0  2  0  0  0  0  0  0  0  0  0
   -0.3830    0.8730    2.6611 C   0  0  0  0  0  0  0  0  0  0  0  0
    0.6425    0.7765    3.3286 O   0  0  0  0  0  0  0  0  0  0  0  0
   -1.2442    2.9625    1.5421 C   0  0  0  0  0  0  0  0  0  0  0  0
    0.4320    3.6512    1.2396 S   0  0  0  0  0  0  0  0  0  0  0  0
   -0.0114    2.8477    4.3431 H   0  0  0  0  0  0  0  0  0  0  0  0
   -2.3171    1.7198    2.9395 H   0  0  0  0  0  0  0  0  0  0  0  0
   -1.5322    2.3535    0.6823 H   0  0  0  0  0  0  0  0  0  0  0  0
   -1.9599    3.7864    1.6166 H   0  0  0  0  0  0  0  0  0  0  0  0
   -0.7175   -0.1320    1.7726 N   0  0  0  0  0  0  0  0  0  0  0  0
    0.1106   -1.3077    1.5365 C   0  0  0  0  0  0  0  0  0  0  0  0
   -1.6384   -0.0724    1.3296 H   0  0  0  0  0  0  0  0  0  0  0  0
    1.1343   -1.0129    1.2824 H   0  0  0  0  0  0  0  0  0  0  0  0
    0.1381   -1.9420    2.4282 H   0  0  0  0  0  0  0  0  0  0  0  0
   -0.2917   -1.8927    0.7042 H   0  0  0  0  0  0  0  0  0  0  0  0
   -4.1180    1.3852    0.3430 C   0  0  0  0  0  0  0  0  0  0  0  0
   -3.4289    0.4828    0.8025 O   0  0  0  0  0  0  0  0  0  0  0  0
   -4.8475    2.3396    1.2704 C   0  0  0  0  0  0  0  0  0  0  0  0
   -5.9143    2.3471    1.0355 H   0  0  0  0  0  0  0  0  0  0  0  0
   -4.7209    2.0305    2.3119 H   0  0  0  0  0  0  0  0  0  0  0  0
   -4.4508    3.3518    1.1567 H   0  0  0  0  0  0  0  0  0  0  0  0
   -4.1629    1.5789   -1.0217 N   0  0  0  0  0  0  0  0  0  0  0  0
   -3.3256    0.8290   -1.9690 C   0  0  2  0  0  0  0  0  0  0  0  0
   -1.9803    1.5306   -2.2554 C   0  0  0  0  0  0  0  0  0  0  0  0
   -1.9686    2.7346   -2.4499 O   0  0  0  0  0  0  0  0  0  0  0  0
   -4.1272    0.6582   -3.2619 C   0  0  0  0  0  0  0  0  0  0  0  0
   -4.5327    2.4740   -1.3357 H   0  0  0  0  0  0  0  0  0  0  0  0
   -3.1118   -0.1679   -1.5702 H   0  0  0  0  0  0  0  0  0  0  0  0
   -4.3552    1.6339   -3.7037 H   0  0  0  0  0  0  0  0  0  0  0  0
   -3.5571    0.0729   -3.9901 H   0  0  0  0  0  0  0  0  0  0  0  0
   -5.0687    0.1373   -3.0606 H   0  0  0  0  0  0  0  0  0  0  0  0
   -0.8631    0.7617   -2.5243 N   0  0  0  0  0  0  0  0  0  0  0  0
    0.5714    1.1119   -2.3881 C   0  0  2  0  0  0  0  0  0  0  0  0
    1.3754   -0.2063   -2.4602 C   0  0  0  0  0  0  0  0  0  0  0  0
    1.7579   -0.7990   -1.4591 O   0  0  0  0  0  0  0  0  0  0  0  0
    1.0258    1.8608   -1.1031 C   0  0  0  0  0  0  0  0  0  0  0  0
    0.3798    3.5616   -0.8413 S   0  0  0  0  0  0  0  0  0  0  0  0
   -1.0485   -0.2331   -2.4253 H   0  0  0  0  0  0  0  0  0  0  0  0
    0.8533    1.7361   -3.2418 H   0  0  0  0  0  0  0  0  0  0  0  0
    0.7274    1.2583   -0.2399 H   0  0  0  0  0  0  0  0  0  0  0  0
    2.1190    1.9196   -1.0896 H   0  0  0  0  0  0  0  0  0  0  0  0
    1.5387   -0.8212   -3.6864 N   0  0  0  0  0  0  0  0  0  0  0  0
    2.3753   -2.0054   -3.9227 C   0  0  2  0  0  0  0  0  0  0  0  0
    2.9470   -1.9999   -5.3564 C   0  0  0  0  0  0  0  0  0  0  0  0
    2.4900   -1.2271   -6.1918 O   0  0  0  0  0  0  0  0  0  0  0  0
    1.5317   -3.2623   -3.6835 C   0  0  0  0  0  0  0  0  0  0  0  0
    1.2664   -0.2902   -4.5154 H   0  0  0  0  0  0  0  0  0  0  0  0
    3.2243   -2.0011   -3.2305 H   0  0  0  0  0  0  0  0  0  0  0  0
    0.6833   -3.2909   -4.3748 H   0  0  0  0  0  0  0  0  0  0  0  0
    2.1347   -4.1629   -3.8337 H   0  0  0  0  0  0  0  0  0  0  0  0
    1.1469   -3.2748   -2.6586 H   0  0  0  0  0  0  0  0  0  0  0  0
    3.9853   -2.8423   -5.7082 N   0  0  0  0  0  0  0  0  0  0  0  0
    4.5866   -2.8561   -7.0367 C   0  0  0  0  0  0  0  0  0  0  0  0
    4.3647   -3.4526   -4.9900 H   0  0  0  0  0  0  0  0  0  0  0  0
    3.8392   -3.1180   -7.7932 H   0  0  0  0  0  0  0  0  0  0  0  0
    5.0036   -1.8729   -7.2796 H   0  0  0  0  0  0  0  0  0  0  0  0
    5.3942   -3.5934   -7.0796 H   0  0  0  0  0  0  0  0  0  0  0  0
  1  2  2  0  0  0  0
  1  3  1  0  0  0  0
  1  7  1  0  0  0  0
  3  4  1  0  0  0  0
  3  5  1  0  0  0  0
  3  6  1  0  0  0  0
  7  8  1  0  0  0  0
  7 13  1  0  0  0  0
  8  9  1  0  0  0  0
  8 11  1  0  0  0  0
  8 14  1  0  0  0  0
  9 10  2  0  0  0  0
  9 17  1  0  0  0  0
 11 12  1  0  0  0  0
 11 15  1  0  0  0  0
 11 16  1  0  0  0  0
 12 44  1  0  0  0  0
 17 18  1  0  0  0  0
 17 19  1  0  0  0  0
 18 20  1  0  0  0  0
 18 21  1  0  0  0  0
 18 22  1  0  0  0  0
 23 24  2  0  0  0  0
 23 25  1  0  0  0  0
 23 29  1  0  0  0  0
 25 26  1  0  0  0  0
 25 27  1  0  0  0  0
 25 28  1  0  0  0  0
 29 30  1  0  0  0  0
 29 34  1  0  0  0  0
 30 31  1  0  0  0  0
 30 33  1  0  0  0  0
 30 35  1  0  0  0  0
 31 32  2  0  0  0  0
 31 39  1  0  0  0  0
 33 36  1  0  0  0  0
 33 37  1  0  0  0  0
 33 38  1  0  0  0  0
 39 40  1  0  0  0  0
 39 45  1  0  0  0  0
 40 41  1  0  0  0  0
 40 43  1  0  0  0  0
 40 46  1  0  0  0  0
 41 42  2  0  0  0  0
 41 49  1  0  0  0  0
 43 44  1  0  0  0  0
 43 47  1  0  0  0  0
 43 48  1  0  0  0  0
 49 50  1  0  0  0  0
 49 54  1  0  0  0  0
 50 51  1  0  0  0  0
 50 53  1  0  0  0  0
 50 55  1  0  0  0  0
 51 52  2  0  0  0  0
 51 59  1  0  0  0  0
 53 56  1  0  0  0  0
 53 57  1  0  0  0  0
 53 58  1  0  0  0  0
 59 60  1  0  0  0  0
 59 61  1  0  0  0  0
 60 62  1  0  0  0  0
 60 63  1  0  0  0  0
 60 64  1  0  0  0  0
M  END
$$$$

  -OEChem-05262216053D

 64 63  0     1  0  0  0  0  0999 V2000
   -1.8222    3.8557    4.5872 C   0  0  0  0  0  0  0  0  0  0  0  0
   -2.9739    3.9432    4.1860 O   0  0  0  0  0  0  0  0  0  0  0  0
   -1.3645    4.6800    5.7755 C   0  0  0  0  0  0  0  0  0  0  0  0
   -0.5302    5.3226    5.4838 H   0  0  0  0  0  0  0  0  0  0  0  0
   -2.1838    5.3082    6.1366 H   0  0  0  0  0  0  0  0  0  0  0  0
   -1.0426    4.0204    6.5850 H   0  0  0  0  0  0  0  0  0  0  0  0
   -0.9413    3.0020    3.9599 N   0  0  0  0  0  0  0  0  0  0  0  0
   -1.2874    2.1525    2.8138 C   0  0  2  0  0  0  0  0  0  0  0  0
   -0.3648    0.9256    2.6723 C   0  0  0  0  0  0  0  0  0  0  0  0
    0.6659    0.8409    3.3334 O   0  0  0  0  0  0  0  0  0  0  0  0
   -1.2521    2.9889    1.5271 C   0  0  0  0  0  0  0  0  0  0  0  0
    0.4141    3.6839    1.1851 S   0  0  0  0  0  0  0  0  0  0  0  0
    0.0046    2.9212    4.3302 H   0  0  0  0  0  0  0  0  0  0  0  0
   -2.2996    1.7631    2.9579 H   0  0  0  0  0  0  0  0  0  0  0  0
   -1.5463    2.3620    0.6827 H   0  0  0  0  0  0  0  0  0  0  0  0
   -1.9734    3.8084    1.5966 H   0  0  0  0  0  0  0  0  0  0  0  0
   -0.7045   -0.0909    1.8000 N   0  0  0  0  0  0  0  0  0  0  0  0
    0.1185   -1.2718    1.5769 C   0  0  0  0  0  0  0  0  0  0  0  0
   -1.6303   -0.0397    1.3663 H   0  0  0  0  0  0  0  0  0  0  0  0
    1.1443   -0.9836    1.3234 H   0  0  0  0  0  0  0  0  0  0  0  0
    0.1402   -1.8989    2.4739 H   0  0  0  0  0  0  0  0  0  0  0  0
   -0.2849   -1.8607    0.7476 H   0  0  0  0  0  0  0  0  0  0  0  0
   -4.1121    1.3614    0.3742 C   0  0  0  0  0  0  0  0  0  0  0  0
   -3.4265    0.4704    0.8596 O   0  0  0  0  0  0  0  0  0  0  0  0
   -4.8427    2.3408    1.2738 C   0  0  0  0  0  0  0  0  0  0  0  0
   -5.9063    2.3551    1.0247 H   0  0  0  0  0  0  0  0  0  0  0  0
   -4.7319    2.0512    2.3227 H   0  0  0  0  0  0  0  0  0  0  0  0
   -4.4342    3.3463    1.1449 H   0  0  0  0  0  0  0  0  0  0  0  0
   -4.1507    1.5214   -0.9948 N   0  0  0  0  0  0  0  0  0  0  0  0
   -3.3135    0.7472   -1.9221 C   0  0  2  0  0  0  0  0  0  0  0  0
   -1.9836    1.4573   -2.2535 C   0  0  0  0  0  0  0  0  0  0  0  0
   -1.9939    2.6516   -2.5037 O   0  0  0  0  0  0  0  0  0  0  0  0
   -4.1284    0.5198   -3.1973 C   0  0  0  0  0  0  0  0  0  0  0  0
   -4.5206    2.4075   -1.3332 H   0  0  0  0  0  0  0  0  0  0  0  0
   -3.0792   -0.2311   -1.4897 H   0  0  0  0  0  0  0  0  0  0  0  0
   -4.3743    1.4759   -3.6712 H   0  0  0  0  0  0  0  0  0  0  0  0
   -3.5598   -0.0845   -3.9109 H   0  0  0  0  0  0  0  0  0  0  0  0
   -5.0601   -0.0049   -2.9639 H   0  0  0  0  0  0  0  0  0  0  0  0
   -0.8582    0.6974   -2.5102 N   0  0  0  0  0  0  0  0  0  0  0  0
    0.5676    1.0854   -2.4067 C   0  0  2  0  0  0  0  0  0  0  0  0
    1.4015   -0.2137   -2.4398 C   0  0  0  0  0  0  0  0  0  0  0  0
    1.5374   -0.9088   -1.4406 O   0  0  0  0  0  0  0  0  0  0  0  0
    1.0227    1.8668   -1.1414 C   0  0  0  0  0  0  0  0  0  0  0  0
    0.3363    3.5547   -0.8940 S   0  0  0  0  0  0  0  0  0  0  0  0
   -1.0179   -0.2937   -2.3457 H   0  0  0  0  0  0  0  0  0  0  0  0
    0.8233    1.6940   -3.2794 H   0  0  0  0  0  0  0  0  0  0  0  0
    0.7555    1.2722   -0.2622 H   0  0  0  0  0  0  0  0  0  0  0  0
    2.1140    1.9550   -1.1494 H   0  0  0  0  0  0  0  0  0  0  0  0
    1.8387   -0.7143   -3.6509 N   0  0  0  0  0  0  0  0  0  0  0  0
    2.6980   -1.8957   -3.8082 C   0  0  2  0  0  0  0  0  0  0  0  0
    3.5893   -1.7679   -5.0620 C   0  0  0  0  0  0  0  0  0  0  0  0
    3.3402   -0.9107   -5.9027 O   0  0  0  0  0  0  0  0  0  0  0  0
    1.8140   -3.1436   -3.9032 C   0  0  0  0  0  0  0  0  0  0  0  0
    1.7506   -0.1099   -4.4693 H   0  0  0  0  0  0  0  0  0  0  0  0
    3.3607   -1.9877   -2.9409 H   0  0  0  0  0  0  0  0  0  0  0  0
    1.1396   -3.0706   -4.7624 H   0  0  0  0  0  0  0  0  0  0  0  0
    2.4286   -4.0416   -4.0180 H   0  0  0  0  0  0  0  0  0  0  0  0
    1.2125   -3.2536   -2.9955 H   0  0  0  0  0  0  0  0  0  0  0  0
    4.6796   -2.5984   -5.2442 N   0  0  0  0  0  0  0  0  0  0  0  0
    5.5748   -2.4984   -6.3913 C   0  0  0  0  0  0  0  0  0  0  0  0
    4.8865   -3.2760   -4.5161 H   0  0  0  0  0  0  0  0  0  0  0  0
    5.0187   -2.6351   -7.3250 H   0  0  0  0  0  0  0  0  0  0  0  0
    6.0623   -1.5179   -6.4125 H   0  0  0  0  0  0  0  0  0  0  0  0
    6.3500   -3.2689   -6.3361 H   0  0  0  0  0  0  0  0  0  0  0  0
  1  2  2  0  0  0  0
  1  3  1  0  0  0  0
  1  7  1  0  0  0  0
  3  4  1  0  0  0  0
  3  5  1  0  0  0  0
  3  6  1  0  0  0  0
  7  8  1  0  0  0  0
  7 13  1  0  0  0  0
  8  9  1  0  0  0  0
  8 11  1  0  0  0  0
  8 14  1  0  0  0  0
  9 10  2  0  0  0  0
  9 17  1  0  0  0  0
 11 12  1  0  0  0  0
 11 15  1  0  0  0  0
 11 16  1  0  0  0  0
 12 44  1  0  0  0  0
 17 18  1  0  0  0  0
 17 19  1  0  0  0  0
 18 20  1  0  0  0  0
 18 21  1  0  0  0  0
 18 22  1  0  0  0  0
 23 24  2  0  0  0  0
 23 25  1  0  0  0  0
 23 29  1  0  0  0  0
 25 26  1  0  0  0  0
 25 27  1  0  0  0  0
 25 28  1  0  0  0  0
 29 30  1  0  0  0  0
 29 34  1  0  0  0  0
 30 31  1  0  0  0  0
 30 33  1  0  0  0  0
 30 35  1  0  0  0  0
 31 32  2  0  0  0  0
 31 39  1  0  0  0  0
 33 36  1  0  0  0  0
 33 37  1  0  0  0  0
 33 38  1  0  0  0  0
 39 40  1  0  0  0  0
 39 45  1  0  0  0  0
 40 41  1  0  0  0  0
 40 43  1  0  0  0  0
 40 46  1  0  0  0  0
 41 42  2  0  0  0  0
 41 49  1  0  0  0  0
 43 44  1  0  0  0  0
 43 47  1  0  0  0  0
 43 48  1  0  0  0  0
 49 50  1  0  0  0  0
 49 54  1  0  0  0  0
 50 51  1  0  0  0  0
 50 53  1  0  0  0  0
 50 55  1  0  0  0  0
 51 52  2  0  0  0  0
 51 59  1  0  0  0  0
 53 56  1  0  0  0  0
 53 57  1  0  0  0  0
 53 58  1  0  0  0  0
 59 60  1  0  0  0  0
 59 61  1  0  0  0  0
 60 62  1  0  0  0  0
 60 63  1  0  0  0  0
 60 64  1  0  0  0  0
M  END
$$$$

  -OEChem-05262216053D

 64 63  0     1  0  0  0  0  0999 V2000
   -1.7175    3.9268    4.5807 C   0  0  0  0  0  0  0  0  0  0  0  0
   -2.8806    4.0487    4.2241 O   0  0  0  0  0  0  0  0  0  0  0  0
   -1.1766    4.7629    5.7249 C   0  0  0  0  0  0  0  0  0  0  0  0
   -0.3112    5.3392    5.3885 H   0  0  0  0  0  0  0  0  0  0  0  0
   -1.9439    5.4553    6.0818 H   0  0  0  0  0  0  0  0  0  0  0  0
   -0.8749    4.1141    6.5506 H   0  0  0  0  0  0  0  0  0  0  0  0
   -0.8952    3.0244    3.9433 N   0  0  0  0  0  0  0  0  0  0  0  0
   -1.3066    2.1772    2.8170 C   0  0  2  0  0  0  0  0  0  0  0  0
   -0.4178    0.9273    2.6553 C   0  0  0  0  0  0  0  0  0  0  0  0
    0.6414    0.8338    3.2687 O   0  0  0  0  0  0  0  0  0  0  0  0
   -1.2894    3.0026    1.5232 C   0  0  0  0  0  0  0  0  0  0  0  0
    0.3732    3.6956    1.1583 S   0  0  0  0  0  0  0  0  0  0  0  0
    0.0653    2.9288    4.2699 H   0  0  0  0  0  0  0  0  0  0  0  0
   -2.3249    1.8177    2.9959 H   0  0  0  0  0  0  0  0  0  0  0  0
   -1.5961    2.3698    0.6873 H   0  0  0  0  0  0  0  0  0  0  0  0
   -2.0091    3.8234    1.5964 H   0  0  0  0  0  0  0  0  0  0  0  0
   -0.8143   -0.0971    1.8165 N   0  0  0  0  0  0  0  0  0  0  0  0
   -0.0301   -1.3041    1.5918 C   0  0  0  0  0  0  0  0  0  0  0  0
   -1.7592   -0.0369    1.4269 H   0  0  0  0  0  0  0  0  0  0  0  0
    0.9910   -1.0482    1.2897 H   0  0  0  0  0  0  0  0  0  0  0  0
    0.0132   -1.9077    2.5039 H   0  0  0  0  0  0  0  0  0  0  0  0
   -0.4808   -1.9047    0.7958 H   0  0  0  0  0  0  0  0  0  0  0  0
   -4.1795    1.3967    0.3800 C   0  0  0  0  0  0  0  0  0  0  0  0
   -3.5352    0.5236    0.9465 O   0  0  0  0  0  0  0  0  0  0  0  0
   -4.9327    2.4336    1.1926 C   0  0  0  0  0  0  0  0  0  0  0  0
   -5.9851    2.4464    0.8990 H   0  0  0  0  0  0  0  0  0  0  0  0
   -4.8686    2.1999    2.2594 H   0  0  0  0  0  0  0  0  0  0  0  0
   -4.5042    3.4254    1.0273 H   0  0  0  0  0  0  0  0  0  0  0  0
   -4.1533    1.4773   -0.9969 N   0  0  0  0  0  0  0  0  0  0  0  0
   -3.2823    0.6459   -1.8420 C   0  0  2  0  0  0  0  0  0  0  0  0
   -1.9738    1.3654   -2.2314 C   0  0  0  0  0  0  0  0  0  0  0  0
   -2.0092    2.5470   -2.5365 O   0  0  0  0  0  0  0  0  0  0  0  0
   -4.0741    0.2672   -3.0956 C   0  0  0  0  0  0  0  0  0  0  0  0
   -4.4936    2.3478   -1.4009 H   0  0  0  0  0  0  0  0  0  0  0  0
   -3.0163   -0.2787   -1.3193 H   0  0  0  0  0  0  0  0  0  0  0  0
   -4.3495    1.1629   -3.6622 H   0  0  0  0  0  0  0  0  0  0  0  0
   -3.4762   -0.3817   -3.7431 H   0  0  0  0  0  0  0  0  0  0  0  0
   -4.9882   -0.2675   -2.8198 H   0  0  0  0  0  0  0  0  0  0  0  0
   -0.8370    0.6161   -2.4648 N   0  0  0  0  0  0  0  0  0  0  0  0
    0.5786    1.0377   -2.3773 C   0  0  2  0  0  0  0  0  0  0  0  0
    1.4418   -0.2396   -2.3663 C   0  0  0  0  0  0  0  0  0  0  0  0
    1.3443   -1.0419   -1.4452 O   0  0  0  0  0  0  0  0  0  0  0  0
    1.0217    1.8508   -1.1306 C   0  0  0  0  0  0  0  0  0  0  0  0
    0.2940    3.5252   -0.9168 S   0  0  0  0  0  0  0  0  0  0  0  0
   -0.9701   -0.3686   -2.2426 H   0  0  0  0  0  0  0  0  0  0  0  0
    0.8166    1.6289   -3.2668 H   0  0  0  0  0  0  0  0  0  0  0  0
    0.7745    1.2656   -0.2388 H   0  0  0  0  0  0  0  0  0  0  0  0
    2.1100    1.9673   -1.1460 H   0  0  0  0  0  0  0  0  0  0  0  0
    2.1507   -0.6102   -3.4927 N   0  0  0  0  0  0  0  0  0  0  0  0
    3.0303   -1.7843   -3.5791 C   0  0  2  0  0  0  0  0  0  0  0  0
    4.1713   -1.5506   -4.5931 C   0  0  0  0  0  0  0  0  0  0  0  0
    4.1314   -0.5819   -5.3440 O   0  0  0  0  0  0  0  0  0  0  0  0
    2.1911   -3.0006   -3.9851 C   0  0  0  0  0  0  0  0  0  0  0  0
    2.2477    0.0803   -4.2389 H   0  0  0  0  0  0  0  0  0  0  0  0
    3.4917   -1.9706   -2.6031 H   0  0  0  0  0  0  0  0  0  0  0  0
    1.7215   -2.8318   -4.9594 H   0  0  0  0  0  0  0  0  0  0  0  0
    2.8165   -3.8960   -4.0496 H   0  0  0  0  0  0  0  0  0  0  0  0
    1.4050   -3.1847   -3.2461 H   0  0  0  0  0  0  0  0  0  0  0  0
    5.2515   -2.4117   -4.6548 N   0  0  0  0  0  0  0  0  0  0  0  0
    6.3677   -2.2257   -5.5744 C   0  0  0  0  0  0  0  0  0  0  0  0
    5.2722   -3.1938   -4.0066 H   0  0  0  0  0  0  0  0  0  0  0  0
    6.0196   -2.2600   -6.6121 H   0  0  0  0  0  0  0  0  0  0  0  0
    6.8526   -1.2599   -5.3974 H   0  0  0  0  0  0  0  0  0  0  0  0
    7.1109   -3.0161   -5.4333 H   0  0  0  0  0  0  0  0  0  0  0  0
  1  2  2  0  0  0  0
  1  3  1  0  0  0  0
  1  7  1  0  0  0  0
  3  4  1  0  0  0  0
  3  5  1  0  0  0  0
  3  6  1  0  0  0  0
  7  8  1  0  0  0  0
  7 13  1  0  0  0  0
  8  9  1  0  0  0  0
  8 11  1  0  0  0  0
  8 14  1  0  0  0  0
  9 10  2  0  0  0  0
  9 17  1  0  0  0  0
 11 12  1  0  0  0  0
 11 15  1  0  0  0  0
 11 16  1  0  0  0  0
 12 44  1  0  0  0  0
 17 18  1  0  0  0  0
 17 19  1  0  0  0  0
 18 20  1  0  0  0  0
 18 21  1  0  0  0  0
 18 22  1  0  0  0  0
 23 24  2  0  0  0  0
 23 25  1  0  0  0  0
 23 29  1  0  0  0  0
 25 26  1  0  0  0  0
 25 27  1  0  0  0  0
 25 28  1  0  0  0  0
 29 30  1  0  0  0  0
 29 34  1  0  0  0  0
 30 31  1  0  0  0  0
 30 33  1  0  0  0  0
 30 35  1  0  0  0  0
 31 32  2  0  0  0  0
 31 39  1  0  0  0  0
 33 36  1  0  0  0  0
 33 37  1  0  0  0  0
 33 38  1  0  0  0  0
 39 40  1  0  0  0  0
 39 45  1  0  0  0  0
 40 41  1  0  0  0  0
 40 43  1  0  0  0  0
 40 46  1  0  0  0  0
 41 42  2  0  0  0  0
 41 49  1  0  0  0  0
 43 44  1  0  0  0  0
 43 47  1  0  0  0  0
 43 48  1  0  0  0  0
 49 50  1  0  0  0  0
 49 54  1  0  0  0  0
 50 51  1  0  0  0  0
 50 53  1  0  0  0  0
 50 55  1  0  0  0  0
 51 52  2  0  0  0  0
 51 59  1  0  0  0  0
 53 56  1  0  0  0  0
 53 57  1  0  0  0  0
 53 58  1  0  0  0  0
 59 60  1  0  0  0  0
 59 61  1  0  0  0  0
 60 62  1  0  0  0  0
 60 63  1  0  0  0  0
 60 64  1  0  0  0  0
M  END
$$$$

  -OEChem-05262216053D

 64 63  0     1  0  0  0  0  0999 V2000
   -1.6959    3.9388    4.5448 C   0  0  0  0  0  0  0  0  0  0  0  0
   -2.8576    4.0589    4.1831 O   0  0  0  0  0  0  0  0  0  0  0  0
   -1.1650    4.7705    5.6966 C   0  0  0  0  0  0  0  0  0  0  0  0
   -0.3004    5.3526    5.3684 H   0  0  0  0  0  0  0  0  0  0  0  0
   -1.9377    5.4573    6.0530 H   0  0  0  0  0  0  0  0  0  0  0  0
   -0.8653    4.1185    6.5206 H   0  0  0  0  0  0  0  0  0  0  0  0
   -0.8685    3.0416    3.9065 N   0  0  0  0  0  0  0  0  0  0  0  0
   -1.2803    2.1910    2.7831 C   0  0  2  0  0  0  0  0  0  0  0  0
   -0.3988    0.9361    2.6246 C   0  0  0  0  0  0  0  0  0  0  0  0
    0.6711    0.8467    3.2197 O   0  0  0  0  0  0  0  0  0  0  0  0
   -1.2635    3.0110    1.4856 C   0  0  0  0  0  0  0  0  0  0  0  0
    0.4016    3.6924    1.1106 S   0  0  0  0  0  0  0  0  0  0  0  0
    0.0895    2.9427    4.2392 H   0  0  0  0  0  0  0  0  0  0  0  0
   -2.2987    1.8342    2.9658 H   0  0  0  0  0  0  0  0  0  0  0  0
   -1.5775    2.3764    0.6536 H   0  0  0  0  0  0  0  0  0  0  0  0
   -1.9777    3.8365    1.5590 H   0  0  0  0  0  0  0  0  0  0  0  0
   -0.8205   -0.1023    1.8162 N   0  0  0  0  0  0  0  0  0  0  0  0
   -0.0680   -1.3357    1.6319 C   0  0  0  0  0  0  0  0  0  0  0  0
   -1.7742   -0.0424    1.4484 H   0  0  0  0  0  0  0  0  0  0  0  0
    0.9600   -1.1165    1.3249 H   0  0  0  0  0  0  0  0  0  0  0  0
   -0.0427   -1.9113    2.5626 H   0  0  0  0  0  0  0  0  0  0  0  0
   -0.5333   -1.9493    0.8548 H   0  0  0  0  0  0  0  0  0  0  0  0
   -4.1651    1.4253    0.3905 C   0  0  0  0  0  0  0  0  0  0  0  0
   -3.5469    0.5390    0.9655 O   0  0  0  0  0  0  0  0  0  0  0  0
   -4.8795    2.4988    1.1900 C   0  0  0  0  0  0  0  0  0  0  0  0
   -5.9427    2.5073    0.9383 H   0  0  0  0  0  0  0  0  0  0  0  0
   -4.7737    2.3094    2.2622 H   0  0  0  0  0  0  0  0  0  0  0  0
   -4.4526    3.4796    0.9656 H   0  0  0  0  0  0  0  0  0  0  0  0
   -4.1352    1.4956   -0.9864 N   0  0  0  0  0  0  0  0  0  0  0  0
   -3.2925    0.6317   -1.8267 C   0  0  2  0  0  0  0  0  0  0  0  0
   -1.9673    1.3131   -2.2279 C   0  0  0  0  0  0  0  0  0  0  0  0
   -1.9790    2.4859   -2.5678 O   0  0  0  0  0  0  0  0  0  0  0  0
   -4.1030    0.2694   -3.0730 C   0  0  0  0  0  0  0  0  0  0  0  0
   -4.4471    2.3738   -1.3966 H   0  0  0  0  0  0  0  0  0  0  0  0
   -3.0501   -0.2956   -1.2971 H   0  0  0  0  0  0  0  0  0  0  0  0
   -4.3531    1.1697   -3.6438 H   0  0  0  0  0  0  0  0  0  0  0  0
   -3.5297   -0.4021   -3.7194 H   0  0  0  0  0  0  0  0  0  0  0  0
   -5.0322   -0.2335   -2.7883 H   0  0  0  0  0  0  0  0  0  0  0  0
   -0.8396    0.5403   -2.4255 N   0  0  0  0  0  0  0  0  0  0  0  0
    0.5807    0.9484   -2.3536 C   0  0  2  0  0  0  0  0  0  0  0  0
    1.4309   -0.3349   -2.2838 C   0  0  0  0  0  0  0  0  0  0  0  0
    1.1529   -1.2071   -1.4676 O   0  0  0  0  0  0  0  0  0  0  0  0
    1.0367    1.7894   -1.1324 C   0  0  0  0  0  0  0  0  0  0  0  0
    0.3285    3.4767   -0.9606 S   0  0  0  0  0  0  0  0  0  0  0  0
   -0.9809   -0.4357   -2.1683 H   0  0  0  0  0  0  0  0  0  0  0  0
    0.8261    1.5030   -3.2645 H   0  0  0  0  0  0  0  0  0  0  0  0
    0.7873    1.2290   -0.2259 H   0  0  0  0  0  0  0  0  0  0  0  0
    2.1264    1.8945   -1.1557 H   0  0  0  0  0  0  0  0  0  0  0  0
    2.3716   -0.6056   -3.2576 N   0  0  0  0  0  0  0  0  0  0  0  0
    3.2612   -1.7739   -3.2593 C   0  0  2  0  0  0  0  0  0  0  0  0
    4.5828   -1.4614   -3.9929 C   0  0  0  0  0  0  0  0  0  0  0  0
    4.6834   -0.4382   -4.6611 O   0  0  0  0  0  0  0  0  0  0  0  0
    2.5386   -2.9461   -3.9319 C   0  0  0  0  0  0  0  0  0  0  0  0
    2.6165    0.1478   -3.9018 H   0  0  0  0  0  0  0  0  0  0  0  0
    3.5122   -2.0473   -2.2288 H   0  0  0  0  0  0  0  0  0  0  0  0
    2.2736   -2.6916   -4.9633 H   0  0  0  0  0  0  0  0  0  0  0  0
    3.1772   -3.8346   -3.9452 H   0  0  0  0  0  0  0  0  0  0  0  0
    1.6216   -3.1915   -3.3871 H   0  0  0  0  0  0  0  0  0  0  0  0
    5.6643   -2.3174   -3.8969 N   0  0  0  0  0  0  0  0  0  0  0  0
    6.9358   -2.0752   -4.5685 C   0  0  0  0  0  0  0  0  0  0  0  0
    5.5605   -3.1495   -3.3235 H   0  0  0  0  0  0  0  0  0  0  0  0
    6.7938   -2.0358   -5.6537 H   0  0  0  0  0  0  0  0  0  0  0  0
    7.3724   -1.1275   -4.2359 H   0  0  0  0  0  0  0  0  0  0  0  0
    7.6428   -2.8787   -4.3411 H   0  0  0  0  0  0  0  0  0  0  0  0
  1  2  2  0  0  0  0
  1  3  1  0  0  0  0
  1  7  1  0  0  0  0
  3  4  1  0  0  0  0
  3  5  1  0  0  0  0
  3  6  1  0  0  0  0
  7  8  1  0  0  0  0
  7 13  1  0  0  0  0
  8  9  1  0  0  0  0
  8 11  1  0  0  0  0
  8 14  1  0  0  0  0
  9 10  2  0  0  0  0
  9 17  1  0  0  0  0
 11 12  1  0  0  0  0
 11 15  1  0  0  0  0
 11 16  1  0  0  0  0
 12 44  1  0  0  0  0
 17 18  1  0  0  0  0
 17 19  1  0  0  0  0
 18 20  1  0  0  0  0
 18 21  1  0  0  0  0
 18 22  1  0  0  0  0
 23 24  2  0  0  0  0
 23 25  1  0  0  0  0
 23 29  1  0  0  0  0
 25 26  1  0  0  0  0
 25 27  1  0  0  0  0
 25 28  1  0  0  0  0
 29 30  1  0  0  0  0
 29 34  1  0  0  0  0
 30 31  1  0  0  0  0
 30 33  1  0  0  0  0
 30 35  1  0  0  0  0
 31 32  2  0  0  0  0
 31 39  1  0  0  0  0
 33 36  1  0  0  0  0
 33 37  1  0  0  0  0
 33 38  1  0  0  0  0
 39 40  1  0  0  0  0
 39 45  1  0  0  0  0
 40 41  1  0  0  0  0
 40 43  1  0  0  0  0
 40 46  1  0  0  0  0
 41 42  2  0  0  0  0
 41 49  1  0  0  0  0
 43 44  1  0  0  0  0
 43 47  1  0  0  0  0
 43 48  1  0  0  0  0
 49 50  1  0  0  0  0
 49 54  1  0  0  0  0
 50 51  1  0  0  0  0
 50 53  1  0  0  0  0
 50 55  1  0  0  0  0
 51 52  2  0  0  0  0
 51 59  1  0  0  0  0
 53 56  1  0  0  0  0
 53 57  1  0  0  0  0
 53 58  1  0  0  0  0
 59 60  1  0  0  0  0
 59 61  1  0  0  0  0
 60 62  1  0  0  0  0
 60 63  1  0  0  0  0
 60 64  1  0  0  0  0
M  END
$$$$

  -OEChem-05262216053D

 64 63  0     1  0  0  0  0  0999 V2000
   -1.5103    3.9242    4.6001 C   0  0  0  0  0  0  0  0  0  0  0  0
   -2.6784    4.1210    4.2990 O   0  0  0  0  0  0  0  0  0  0  0  0
   -0.8813    4.6810    5.7544 C   0  0  0  0  0  0  0  0  0  0  0  0
   -0.0148    5.2459    5.4022 H   0  0  0  0  0  0  0  0  0  0  0  0
   -1.6045    5.3779    6.1869 H   0  0  0  0  0  0  0  0  0  0  0  0
   -0.5605    3.9803    6.5289 H   0  0  0  0  0  0  0  0  0  0  0  0
   -0.7643    3.0074    3.8930 N   0  0  0  0  0  0  0  0  0  0  0  0
   -1.2751    2.2106    2.7704 C   0  0  2  0  0  0  0  0  0  0  0  0
   -0.4760    0.9097    2.5516 C   0  0  0  0  0  0  0  0  0  0  0  0
    0.6089    0.7452    3.1019 O   0  0  0  0  0  0  0  0  0  0  0  0
   -1.2631    3.0600    1.4918 C   0  0  0  0  0  0  0  0  0  0  0  0
    0.4191    3.6706    1.0700 S   0  0  0  0  0  0  0  0  0  0  0  0
    0.2003    2.8447    4.1781 H   0  0  0  0  0  0  0  0  0  0  0  0
   -2.3059    1.9118    2.9872 H   0  0  0  0  0  0  0  0  0  0  0  0
   -1.6394    2.4637    0.6575 H   0  0  0  0  0  0  0  0  0  0  0  0
   -1.9325    3.9170    1.6127 H   0  0  0  0  0  0  0  0  0  0  0  0
   -0.9868   -0.0853    1.7393 N   0  0  0  0  0  0  0  0  0  0  0  0
   -0.3353   -1.3719    1.5320 C   0  0  0  0  0  0  0  0  0  0  0  0
   -1.9544    0.0334    1.4260 H   0  0  0  0  0  0  0  0  0  0  0  0
    0.7193   -1.2344    1.2709 H   0  0  0  0  0  0  0  0  0  0  0  0
   -0.3971   -1.9820    2.4387 H   0  0  0  0  0  0  0  0  0  0  0  0
   -0.8208   -1.9118    0.7135 H   0  0  0  0  0  0  0  0  0  0  0  0
   -4.2387    1.5585    0.3425 C   0  0  0  0  0  0  0  0  0  0  0  0
   -3.6823    0.6939    1.0057 O   0  0  0  0  0  0  0  0  0  0  0  0
   -4.9250    2.7217    1.0330 C   0  0  0  0  0  0  0  0  0  0  0  0
   -5.9965    2.7019    0.8202 H   0  0  0  0  0  0  0  0  0  0  0  0
   -4.7792    2.6616    2.1157 H   0  0  0  0  0  0  0  0  0  0  0  0
   -4.5076    3.6671    0.6778 H   0  0  0  0  0  0  0  0  0  0  0  0
   -4.1626    1.5187   -1.0337 N   0  0  0  0  0  0  0  0  0  0  0  0
   -3.3090    0.5770   -1.7741 C   0  0  2  0  0  0  0  0  0  0  0  0
   -1.9763    1.2192   -2.2144 C   0  0  0  0  0  0  0  0  0  0  0  0
   -1.9732    2.3751   -2.6091 O   0  0  0  0  0  0  0  0  0  0  0  0
   -4.0993    0.0987   -2.9942 C   0  0  0  0  0  0  0  0  0  0  0  0
   -4.4228    2.3757   -1.5184 H   0  0  0  0  0  0  0  0  0  0  0  0
   -3.0751   -0.2959   -1.1562 H   0  0  0  0  0  0  0  0  0  0  0  0
   -4.3438    0.9418   -3.6484 H   0  0  0  0  0  0  0  0  0  0  0  0
   -3.5142   -0.6264   -3.5680 H   0  0  0  0  0  0  0  0  0  0  0  0
   -5.0314   -0.3805   -2.6793 H   0  0  0  0  0  0  0  0  0  0  0  0
   -0.8570    0.4257   -2.3739 N   0  0  0  0  0  0  0  0  0  0  0  0
    0.5681    0.8192   -2.3130 C   0  0  2  0  0  0  0  0  0  0  0  0
    1.4107   -0.4658   -2.1850 C   0  0  0  0  0  0  0  0  0  0  0  0
    1.0055   -1.3952   -1.4934 O   0  0  0  0  0  0  0  0  0  0  0  0
    1.0215    1.6904   -1.1131 C   0  0  0  0  0  0  0  0  0  0  0  0
    0.3257    3.3863   -0.9930 S   0  0  0  0  0  0  0  0  0  0  0  0
   -1.0071   -0.5405   -2.0842 H   0  0  0  0  0  0  0  0  0  0  0  0
    0.8251    1.3382   -3.2417 H   0  0  0  0  0  0  0  0  0  0  0  0
    0.7623    1.1565   -0.1935 H   0  0  0  0  0  0  0  0  0  0  0  0
    2.1116    1.7882   -1.1314 H   0  0  0  0  0  0  0  0  0  0  0  0
    2.5482   -0.6393   -2.9491 N   0  0  0  0  0  0  0  0  0  0  0  0
    3.4575   -1.7885   -2.8511 C   0  0  2  0  0  0  0  0  0  0  0  0
    4.8827   -1.4079   -3.3064 C   0  0  0  0  0  0  0  0  0  0  0  0
    5.0767   -0.3400   -3.8771 O   0  0  0  0  0  0  0  0  0  0  0  0
    2.9106   -2.9321   -3.7125 C   0  0  0  0  0  0  0  0  0  0  0  0
    2.8926    0.1640   -3.4773 H   0  0  0  0  0  0  0  0  0  0  0  0
    3.5204   -2.1177   -1.8084 H   0  0  0  0  0  0  0  0  0  0  0  0
    2.8381   -2.6209   -4.7595 H   0  0  0  0  0  0  0  0  0  0  0  0
    3.5664   -3.8058   -3.6532 H   0  0  0  0  0  0  0  0  0  0  0  0
    1.9151   -3.2282   -3.3675 H   0  0  0  0  0  0  0  0  0  0  0  0
    5.9507   -2.2537   -3.0696 N   0  0  0  0  0  0  0  0  0  0  0  0
    7.3158   -1.9519   -3.4845 C   0  0  0  0  0  0  0  0  0  0  0  0
    5.7649   -3.1283   -2.5874 H   0  0  0  0  0  0  0  0  0  0  0  0
    7.3765   -1.8748   -4.5753 H   0  0  0  0  0  0  0  0  0  0  0  0
    7.6505   -1.0059   -3.0454 H   0  0  0  0  0  0  0  0  0  0  0  0
    7.9959   -2.7439   -3.1560 H   0  0  0  0  0  0  0  0  0  0  0  0
  1  2  2  0  0  0  0
  1  3  1  0  0  0  0
  1  7  1  0  0  0  0
  3  4  1  0  0  0  0
  3  5  1  0  0  0  0
  3  6  1  0  0  0  0
  7  8  1  0  0  0  0
  7 13  1  0  0  0  0
  8  9  1  0  0  0  0
  8 11  1  0  0  0  0
  8 14  1  0  0  0  0
  9 10  2  0  0  0  0
  9 17  1  0  0  0  0
 11 12  1  0  0  0  0
 11 15  1  0  0  0  0
 11 16  1  0  0  0  0
 12 44  1  0  0  0  0
 17 18  1  0  0  0  0
 17 19  1  0  0  0  0
 18 20  1  0  0  0  0
 18 21  1  0  0  0  0
 18 22  1  0  0  0  0
 23 24  2  0  0  0  0
 23 25  1  0  0  0  0
 23 29  1  0  0  0  0
 25 26  1  0  0  0  0
 25 27  1  0  0  0  0
 25 28  1  0  0  0  0
 29 30  1  0  0  0  0
 29 34  1  0  0  0  0
 30 31  1  0  0  0  0
 30 33  1  0  0  0  0
 30 35  1  0  0  0  0
 31 32  2  0  0  0  0
 31 39  1  0  0  0  0
 33 36  1  0  0  0  0
 33 37  1  0  0  0  0
 33 38  1  0  0  0  0
 39 40  1  0  0  0  0
 39 45  1  0  0  0  0
 40 41  1  0  0  0  0
 40 43  1  0  0  0  0
 40 46  1  0  0  0  0
 41 42  2  0  0  0  0
 41 49  1  0  0  0  0
 43 44  1  0  0  0  0
 43 47  1  0  0  0  0
 43 48  1  0  0  0  0
 49 50  1  0  0  0  0
 49 54  1  0  0  0  0
 50 51  1  0  0  0  0
 50 53  1  0  0  0  0
 50 55  1  0  0  0  0
 51 52  2  0  0  0  0
 51 59  1  0  0  0  0
 53 56  1  0  0  0  0
 53 57  1  0  0  0  0
 53 58  1  0  0  0  0
 59 60  1  0  0  0  0
 59 61  1  0  0  0  0
 60 62  1  0  0  0  0
 60 63  1  0  0  0  0
 60 64  1  0  0  0  0
M  END
$$$$

  -OEChem-05262216053D

 64 63  0     1  0  0  0  0  0999 V2000
   -1.7525    4.1970    4.2795 C   0  0  0  0  0  0  0  0  0  0  0  0
   -2.8494    4.3596    3.7640 O   0  0  0  0  0  0  0  0  0  0  0  0
   -1.2419    5.1820    5.3138 C   0  0  0  0  0  0  0  0  0  0  0  0
   -0.3128    5.6392    4.9646 H   0  0  0  0  0  0  0  0  0  0  0  0
   -1.9814    5.9698    5.4816 H   0  0  0  0  0  0  0  0  0  0  0  0
   -1.0545    4.6674    6.2592 H   0  0  0  0  0  0  0  0  0  0  0  0
   -0.9793    3.1153    3.9178 N   0  0  0  0  0  0  0  0  0  0  0  0
   -1.3566    2.1402    2.8868 C   0  0  2  0  0  0  0  0  0  0  0  0
   -0.6211    0.7925    3.0200 C   0  0  0  0  0  0  0  0  0  0  0  0
    0.3548    0.6815    3.7557 O   0  0  0  0  0  0  0  0  0  0  0  0
   -1.1003    2.7376    1.4960 C   0  0  0  0  0  0  0  0  0  0  0  0
    0.6467    3.2592    1.2692 S   0  0  0  0  0  0  0  0  0  0  0  0
   -0.0691    2.9993    4.3604 H   0  0  0  0  0  0  0  0  0  0  0  0
   -2.4225    1.9185    2.9907 H   0  0  0  0  0  0  0  0  0  0  0  0
   -1.3474    1.9966    0.7321 H   0  0  0  0  0  0  0  0  0  0  0  0
   -1.7510    3.6027    1.3383 H   0  0  0  0  0  0  0  0  0  0  0  0
   -1.0770   -0.3070    2.3169 N   0  0  0  0  0  0  0  0  0  0  0  0
   -0.4742   -1.6291    2.4064 C   0  0  0  0  0  0  0  0  0  0  0  0
   -1.9626   -0.1993    1.8133 H   0  0  0  0  0  0  0  0  0  0  0  0
    0.5765   -1.5920    2.1004 H   0  0  0  0  0  0  0  0  0  0  0  0
   -0.5317   -2.0077    3.4322 H   0  0  0  0  0  0  0  0  0  0  0  0
   -1.0002   -2.3277    1.7486 H   0  0  0  0  0  0  0  0  0  0  0  0
   -4.1313    1.4478    0.4868 C   0  0  0  0  0  0  0  0  0  0  0  0
   -3.5967    0.5088    1.0629 O   0  0  0  0  0  0  0  0  0  0  0  0
   -4.8307    2.5324    1.2847 C   0  0  0  0  0  0  0  0  0  0  0  0
   -5.8633    2.6405    0.9445 H   0  0  0  0  0  0  0  0  0  0  0  0
   -4.8372    2.2792    2.3487 H   0  0  0  0  0  0  0  0  0  0  0  0
   -4.3118    3.4860    1.1573 H   0  0  0  0  0  0  0  0  0  0  0  0
   -4.0341    1.5563   -0.8845 N   0  0  0  0  0  0  0  0  0  0  0  0
   -3.2071    0.6706   -1.7187 C   0  0  2  0  0  0  0  0  0  0  0  0
   -1.8507    1.3038   -2.0965 C   0  0  0  0  0  0  0  0  0  0  0  0
   -1.7941    2.5006   -2.3323 O   0  0  0  0  0  0  0  0  0  0  0  0
   -4.0102    0.3452   -2.9801 C   0  0  0  0  0  0  0  0  0  0  0  0
   -4.2785    2.4628   -1.2787 H   0  0  0  0  0  0  0  0  0  0  0  0
   -3.0044   -0.2682   -1.1929 H   0  0  0  0  0  0  0  0  0  0  0  0
   -4.2110    1.2565   -3.5531 H   0  0  0  0  0  0  0  0  0  0  0  0
   -3.4549   -0.3497   -3.6178 H   0  0  0  0  0  0  0  0  0  0  0  0
   -4.9654   -0.1179   -2.7136 H   0  0  0  0  0  0  0  0  0  0  0  0
   -0.7774    0.4791   -2.3722 N   0  0  0  0  0  0  0  0  0  0  0  0
    0.6738    0.7697   -2.3463 C   0  0  2  0  0  0  0  0  0  0  0  0
    1.4283   -0.5765   -2.3706 C   0  0  0  0  0  0  0  0  0  0  0  0
    0.8803   -1.5942   -1.9555 O   0  0  0  0  0  0  0  0  0  0  0  0
    1.2357    1.5038   -1.1013 C   0  0  0  0  0  0  0  0  0  0  0  0
    0.6654    3.2260   -0.8134 S   0  0  0  0  0  0  0  0  0  0  0  0
   -0.9771   -0.5095   -2.2145 H   0  0  0  0  0  0  0  0  0  0  0  0
    0.9284    1.3464   -3.2408 H   0  0  0  0  0  0  0  0  0  0  0  0
    0.9734    0.9117   -0.2179 H   0  0  0  0  0  0  0  0  0  0  0  0
    2.3287    1.5317   -1.1581 H   0  0  0  0  0  0  0  0  0  0  0  0
    2.6785   -0.6706   -2.9510 N   0  0  0  0  0  0  0  0  0  0  0  0
    3.5099   -1.8817   -2.9501 C   0  0  2  0  0  0  0  0  0  0  0  0
    5.0024   -1.5355   -2.7661 C   0  0  0  0  0  0  0  0  0  0  0  0
    5.3789   -0.3744   -2.8822 O   0  0  0  0  0  0  0  0  0  0  0  0
    3.2843   -2.6167   -4.2751 C   0  0  0  0  0  0  0  0  0  0  0  0
    3.1554    0.2018   -3.1824 H   0  0  0  0  0  0  0  0  0  0  0  0
    3.2233   -2.5349   -2.1188 H   0  0  0  0  0  0  0  0  0  0  0  0
    3.5803   -1.9839   -5.1180 H   0  0  0  0  0  0  0  0  0  0  0  0
    3.8719   -3.5390   -4.3091 H   0  0  0  0  0  0  0  0  0  0  0  0
    2.2274   -2.8775   -4.3902 H   0  0  0  0  0  0  0  0  0  0  0  0
    5.9217   -2.5216   -2.4591 N   0  0  0  0  0  0  0  0  0  0  0  0
    7.3360   -2.2510   -2.2310 C   0  0  0  0  0  0  0  0  0  0  0  0
    5.5758   -3.4687   -2.3351 H   0  0  0  0  0  0  0  0  0  0  0  0
    7.7762   -1.7504   -3.0999 H   0  0  0  0  0  0  0  0  0  0  0  0
    7.4660   -1.6109   -1.3521 H   0  0  0  0  0  0  0  0  0  0  0  0
    7.8775   -3.1865   -2.0617 H   0  0  0  0  0  0  0  0  0  0  0  0
  1  2  2  0  0  0  0
  1  3  1  0  0  0  0
  1  7  1  0  0  0  0
  3  4  1  0  0  0  0
  3  5  1  0  0  0  0
  3  6  1  0  0  0  0
  7  8  1  0  0  0  0
  7 13  1  0  0  0  0
  8  9  1  0  0  0  0
  8 11  1  0  0  0  0
  8 14  1  0  0  0  0
  9 10  2  0  0  0  0
  9 17  1  0  0  0  0
 11 12  1  0  0  0  0
 11 15  1  0  0  0  0
 11 16  1  0  0  0  0
 12 44  1  0  0  0  0
 17 18  1  0  0  0  0
 17 19  1  0  0  0  0
 18 20  1  0  0  0  0
 18 21  1  0  0  0  0
 18 22  1  0  0  0  0
 23 24  2  0  0  0  0
 23 25  1  0  0  0  0
 23 29  1  0  0  0  0
 25 26  1  0  0  0  0
 25 27  1  0  0  0  0
 25 28  1  0  0  0  0
 29 30  1  0  0  0  0
 29 34  1  0  0  0  0
 30 31  1  0  0  0  0
 30 33  1  0  0  0  0
 30 35  1  0  0  0  0
 31 32  2  0  0  0  0
 31 39  1  0  0  0  0
 33 36  1  0  0  0  0
 33 37  1  0  0  0  0
 33 38  1  0  0  0  0
 39 40  1  0  0  0  0
 39 45  1  0  0  0  0
 40 41  1  0  0  0  0
 40 43  1  0  0  0  0
 40 46  1  0  0  0  0
 41 42  2  0  0  0  0
 41 49  1  0  0  0  0
 43 44  1  0  0  0  0
 43 47  1  0  0  0  0
 43 48  1  0  0  0  0
 49 50  1  0  0  0  0
 49 54  1  0  0  0  0
 50 51  1  0  0  0  0
 50 53  1  0  0  0  0
 50 55  1  0  0  0  0
 51 52  2  0  0  0  0
 51 59  1  0  0  0  0
 53 56  1  0  0  0  0
 53 57  1  0  0  0  0
 53 58  1  0  0  0  0
 59 60  1  0  0  0  0
 59 61  1  0  0  0  0
 60 62  1  0  0  0  0
 60 63  1  0  0  0  0
 60 64  1  0  0  0  0
M  END
$$$$

  -OEChem-05262216053D

 64 63  0     1  0  0  0  0  0999 V2000
   -1.1969    3.7684    4.6105 C   0  0  0  0  0  0  0  0  0  0  0  0
   -2.3597    4.0737    4.3914 O   0  0  0  0  0  0  0  0  0  0  0  0
   -0.4277    4.4437    5.7303 C   0  0  0  0  0  0  0  0  0  0  0  0
    0.4457    4.9595    5.3237 H   0  0  0  0  0  0  0  0  0  0  0  0
   -1.0639    5.1742    6.2378 H   0  0  0  0  0  0  0  0  0  0  0  0
   -0.0964    3.6988    6.4579 H   0  0  0  0  0  0  0  0  0  0  0  0
   -0.5815    2.8069    3.8399 N   0  0  0  0  0  0  0  0  0  0  0  0
   -1.2154    2.1116    2.7119 C   0  0  2  0  0  0  0  0  0  0  0  0
   -0.5248    0.7715    2.3843 C   0  0  0  0  0  0  0  0  0  0  0  0
    0.5946    0.5232    2.8227 O   0  0  0  0  0  0  0  0  0  0  0  0
   -1.2111    3.0261    1.4780 C   0  0  0  0  0  0  0  0  0  0  0  0
    0.4839    3.5820    1.0277 S   0  0  0  0  0  0  0  0  0  0  0  0
    0.3903    2.5761    4.0411 H   0  0  0  0  0  0  0  0  0  0  0  0
   -2.2521    1.8765    2.9751 H   0  0  0  0  0  0  0  0  0  0  0  0
   -1.6488    2.4950    0.6295 H   0  0  0  0  0  0  0  0  0  0  0  0
   -1.8331    3.9053    1.6714 H   0  0  0  0  0  0  0  0  0  0  0  0
   -1.1654   -0.1667    1.5966 N   0  0  0  0  0  0  0  0  0  0  0  0
   -0.6263   -1.4936    1.3275 C   0  0  0  0  0  0  0  0  0  0  0  0
   -2.1471    0.0217    1.3726 H   0  0  0  0  0  0  0  0  0  0  0  0
    0.4175   -1.4292    1.0032 H   0  0  0  0  0  0  0  0  0  0  0  0
   -0.6763   -2.1149    2.2273 H   0  0  0  0  0  0  0  0  0  0  0  0
   -1.2001   -1.9806    0.5333 H   0  0  0  0  0  0  0  0  0  0  0  0
   -4.3103    1.6964    0.2985 C   0  0  0  0  0  0  0  0  0  0  0  0
   -3.8092    0.8355    1.0087 O   0  0  0  0  0  0  0  0  0  0  0  0
   -4.9402    2.9258    0.9256 C   0  0  0  0  0  0  0  0  0  0  0  0
   -6.0158    2.9328    0.7335 H   0  0  0  0  0  0  0  0  0  0  0  0
   -4.7744    2.9278    2.0072 H   0  0  0  0  0  0  0  0  0  0  0  0
   -4.4959    3.8309    0.5034 H   0  0  0  0  0  0  0  0  0  0  0  0
   -4.2211    1.5896   -1.0734 N   0  0  0  0  0  0  0  0  0  0  0  0
   -3.3878    0.5885   -1.7573 C   0  0  2  0  0  0  0  0  0  0  0  0
   -2.0226    1.1676   -2.1854 C   0  0  0  0  0  0  0  0  0  0  0  0
   -1.9650    2.3201   -2.5858 O   0  0  0  0  0  0  0  0  0  0  0  0
   -4.1676    0.0957   -2.9791 C   0  0  0  0  0  0  0  0  0  0  0  0
   -4.4272    2.4391   -1.5957 H   0  0  0  0  0  0  0  0  0  0  0  0
   -3.2011   -0.2692   -1.1029 H   0  0  0  0  0  0  0  0  0  0  0  0
   -4.3628    0.9230   -3.6696 H   0  0  0  0  0  0  0  0  0  0  0  0
   -3.5994   -0.6730   -3.5122 H   0  0  0  0  0  0  0  0  0  0  0  0
   -5.1256   -0.3343   -2.6703 H   0  0  0  0  0  0  0  0  0  0  0  0
   -0.9353    0.3255   -2.3100 N   0  0  0  0  0  0  0  0  0  0  0  0
    0.5113    0.6385   -2.2721 C   0  0  2  0  0  0  0  0  0  0  0  0
    1.2799   -0.6909   -2.0882 C   0  0  0  0  0  0  0  0  0  0  0  0
    0.6800   -1.7055   -1.7399 O   0  0  0  0  0  0  0  0  0  0  0  0
    1.0007    1.5259   -1.0956 C   0  0  0  0  0  0  0  0  0  0  0  0
    0.3896    3.2567   -1.0287 S   0  0  0  0  0  0  0  0  0  0  0  0
   -1.1321   -0.6416   -2.0498 H   0  0  0  0  0  0  0  0  0  0  0  0
    0.8005    1.1038   -3.2191 H   0  0  0  0  0  0  0  0  0  0  0  0
    0.7131    1.0322   -0.1633 H   0  0  0  0  0  0  0  0  0  0  0  0
    2.0941    1.5782   -1.1047 H   0  0  0  0  0  0  0  0  0  0  0  0
    2.6400   -0.7661   -2.3212 N   0  0  0  0  0  0  0  0  0  0  0  0
    3.4765   -1.9362   -2.0242 C   0  0  2  0  0  0  0  0  0  0  0  0
    4.9393   -1.5207   -1.7585 C   0  0  0  0  0  0  0  0  0  0  0  0
    5.3045   -0.3779   -2.0113 O   0  0  0  0  0  0  0  0  0  0  0  0
    3.4020   -2.9095   -3.2055 C   0  0  0  0  0  0  0  0  0  0  0  0
    3.1368    0.1032   -2.5221 H   0  0  0  0  0  0  0  0  0  0  0  0
    3.1068   -2.4324   -1.1206 H   0  0  0  0  0  0  0  0  0  0  0  0
    3.7675   -2.4294   -4.1189 H   0  0  0  0  0  0  0  0  0  0  0  0
    4.0101   -3.7980   -3.0111 H   0  0  0  0  0  0  0  0  0  0  0  0
    2.3688   -3.2310   -3.3703 H   0  0  0  0  0  0  0  0  0  0  0  0
    5.8461   -2.4224   -1.2324 N   0  0  0  0  0  0  0  0  0  0  0  0
    7.2395   -2.0892   -0.9602 C   0  0  0  0  0  0  0  0  0  0  0  0
    5.5123   -3.3567   -1.0148 H   0  0  0  0  0  0  0  0  0  0  0  0
    7.7419   -1.7644   -1.8776 H   0  0  0  0  0  0  0  0  0  0  0  0
    7.3036   -1.2852   -0.2191 H   0  0  0  0  0  0  0  0  0  0  0  0
    7.7686   -2.9636   -0.5688 H   0  0  0  0  0  0  0  0  0  0  0  0
  1  2  2  0  0  0  0
  1  3  1  0  0  0  0
  1  7  1  0  0  0  0
  3  4  1  0  0  0  0
  3  5  1  0  0  0  0
  3  6  1  0  0  0  0
  7  8  1  0  0  0  0
  7 13  1  0  0  0  0
  8  9  1  0  0  0  0
  8 11  1  0  0  0  0
  8 14  1  0  0  0  0
  9 10  2  0  0  0  0
  9 17  1  0  0  0  0
 11 12  1  0  0  0  0
 11 15  1  0  0  0  0
 11 16  1  0  0  0  0
 12 44  1  0  0  0  0
 17 18  1  0  0  0  0
 17 19  1  0  0  0  0
 18 20  1  0  0  0  0
 18 21  1  0  0  0  0
 18 22  1  0  0  0  0
 23 24  2  0  0  0  0
 23 25  1  0  0  0  0
 23 29  1  0  0  0  0
 25 26  1  0  0  0  0
 25 27  1  0  0  0  0
 25 28  1  0  0  0  0
 29 30  1  0  0  0  0
 29 34  1  0  0  0  0
 30 31  1  0  0  0  0
 30 33  1  0  0  0  0
 30 35  1  0  0  0  0
 31 32  2  0  0  0  0
 31 39  1  0  0  0  0
 33 36  1  0  0  0  0
 33 37  1  0  0  0  0
 33 38  1  0  0  0  0
 39 40  1  0  0  0  0
 39 45  1  0  0  0  0
 40 41  1  0  0  0  0
 40 43  1  0  0  0  0
 40 46  1  0  0  0  0
 41 42  2  0  0  0  0
 41 49  1  0  0  0  0
 43 44  1  0  0  0  0
 43 47  1  0  0  0  0
 43 48  1  0  0  0  0
 49 50  1  0  0  0  0
 49 54  1  0  0  0  0
 50 51  1  0  0  0  0
 50 53  1  0  0  0  0
 50 55  1  0  0  0  0
 51 52  2  0  0  0  0
 51 59  1  0  0  0  0
 53 56  1  0  0  0  0
 53 57  1  0  0  0  0
 53 58  1  0  0  0  0
 59 60  1  0  0  0  0
 59 61  1  0  0  0  0
 60 62  1  0  0  0  0
 60 63  1  0  0  0  0
 60 64  1  0  0  0  0
M  END
$$$$
